2au4_lig
 OpenBabel11021811423D
libRbt.so/2013.1/901 2013/11/27
 32 34  0  0  0  0  0  0  0  0999 V2000
   67.0044    9.5640    0.8101 P   0  0  1  0  0  0  0  0  0  0  0  0
   68.6838   11.3137    2.0299 P   0  0  1  0  0  0  0  0  0  0  0  0
   71.2094   11.3578    1.0004 P   0  0  2  0  0  0  0  0  0  0  0  0
   67.0773    7.6421   -1.0151 C   0  0  0  0  0  0  0  0  0  0  0  0
   67.2909    9.0228   -0.6780 O   0  0  0  0  0  0  0  0  0  0  0  0
   67.6291    7.2861   -2.3877 C   0  0  0  0  0  0  0  0  0  0  0  0
   69.0710    7.2596   -2.3637 O   0  0  0  0  0  0  0  0  0  0  0  0
   67.1346    5.9173   -2.8285 C   0  0  0  0  0  0  0  0  0  0  0  0
   66.3153    6.0213   -3.9993 O   0  0  0  0  0  0  0  0  0  0  0  0
   68.3643    5.0836   -3.0988 C   0  0  0  0  0  0  0  0  0  0  0  0
   68.3841    4.6111   -4.4525 O   0  0  0  0  0  0  0  0  0  0  0  0
   69.5584    5.9809   -2.8228 C   0  0  0  0  0  0  0  0  0  0  0  0
   70.4100    5.1065    2.1347 N   0  0  0  0  0  0  0  0  0  0  0  0
   65.5540    9.8017    0.9536 O   0  5  0  0  0  0  0  0  0  0  0  0
   68.9729   12.7607    2.0041 O   0  5  0  0  0  0  0  0  0  0  0  0
   71.9731   11.9992    2.0897 O   0  5  0  0  0  0  0  0  0  0  0  0
   69.3730    5.7790    1.5330 C   0  0  1  0  0  0  0  0  0  0  0  0
   68.4523    6.2851    2.3425 N   0  0  0  0  0  0  0  0  0  0  0  0
   67.7116    8.6933    1.7734 O   0  0  0  0  0  0  0  0  0  0  0  0
   68.1123   10.6934    3.2432 O   0  0  0  0  0  0  0  0  0  0  0  0
   70.6447   12.1799   -0.0902 O   0  0  0  0  0  0  0  0  0  0  0  0
   69.2596    5.9415    0.2172 N   0  0  0  0  0  0  0  0  0  0  0  0
   67.7318   10.9751    0.8070 O   0  0  0  0  0  0  0  0  0  0  0  0
   70.0163   10.5322    1.6572 O   0  0  0  0  0  0  0  0  0  0  0  0
   72.1209   10.2055    0.3507 O   0  0  0  0  0  0  0  0  0  0  0  0
   70.2833    5.3688   -0.4571 C   0  0  2  0  0  0  0  0  0  0  0  0
   71.3624    4.6757    0.0675 C   0  0  2  0  0  0  0  0  0  0  0  0
   71.4680    4.5123    1.4704 C   0  0  1  0  0  0  0  0  0  0  0  0
   72.3544    3.9571    2.1057 O   0  0  0  0  0  0  0  0  0  0  0  0
   72.2136    4.2344   -0.9512 N   0  0  0  0  0  0  0  0  0  0  0  0
   71.6076    4.6802   -2.0029 C   0  0  0  0  0  0  0  0  0  0  0  0
   70.4526    5.3676   -1.8214 N   0  0  0  0  0  0  0  0  0  0  0  0
  1  5  1  6  0  0  0
  1 14  1  0  0  0  0
  1 19  2  0  0  0  0
  2 15  1  1  0  0  0
  2 20  2  0  0  0  0
  2 23  1  0  0  0  0
  3 16  1  1  0  0  0
  3 21  2  0  0  0  0
  3 24  1  0  0  0  0
  3 25  1  0  0  0  0
  4  6  1  0  0  0  0
  5  4  1  0  0  0  0
  6  7  1  0  0  0  0
  6  8  2  0  0  0  0
  7 12  1  0  0  0  0
  8  9  1  0  0  0  0
  8 10  1  0  0  0  0
 10 11  1  0  0  0  0
 10 12  2  0  0  0  0
 12 32  1  0  0  0  0
 13 17  1  0  0  0  0
 17 18  1  1  0  0  0
 17 22  1  0  0  0  0
 23  1  1  0  0  0  0
 24  2  1  0  0  0  0
 26 22  1  1  0  0  0
 27 26  1  0  0  0  0
 27 28  1  0  0  0  0
 27 30  1  1  0  0  0
 28 13  1  0  0  0  0
 28 29  1  1  0  0  0
 31 30  1  0  0  0  0
 32 26  1  0  0  0  0
 32 31  1  0  0  0  0
M  CHG  3  14  -1  15  -1  16  -1
M  END
>  <CHROM.1>
-80.63451566,-165.86210019,83.30695694,71.85420096,-170.11510464,40.21932050
-131.90529155,-14.95905999,69.26442698,8.08382351,0.11299413,1.64129387,-0.56144694
0.50915978

>  <Name>
2au4_lig

>  <RI>
0

>  <Rbt.Current_Directory>
/home/itssahil/PROJECTS/Mol_Feturizer/New_Systems/rnas/2au4

>  <Rbt.Executable>
rbdock ($Id: //depot/dev/client3/rdock/2013.1/src/exe/rbdock.cxx#4 $)

>  <Rbt.Library>
libRbt.so (2013.1, Build901 2013/11/27)

>  <Rbt.Parameter_File>
/export/apps/rDock/src/rDock_2013.1_src/data/scripts/dock_solv.prm

>  <Rbt.Receptor>
prm/pocket_docking_2.prm

>  <SCORE>
-25.2349

>  <SCORE.INTER>
-25.2628

>  <SCORE.INTER.CONST>
1

>  <SCORE.INTER.POLAR>
-1.24798

>  <SCORE.INTER.ROT>
8

>  <SCORE.INTER.SOLV>
25.4755

>  <SCORE.INTER.VDW>
-30.1071

>  <SCORE.INTER.norm>
-0.789463

>  <SCORE.INTRA>
-0.523394

>  <SCORE.INTRA.DIHEDRAL>
-2.42335

>  <SCORE.INTRA.DIHEDRAL.0>
76.3625

>  <SCORE.INTRA.POLAR>
0

>  <SCORE.INTRA.POLAR.0>
0

>  <SCORE.INTRA.REPUL>
-0.12705

>  <SCORE.INTRA.REPUL.0>
0.12705

>  <SCORE.INTRA.SOLV>
-0.109483

>  <SCORE.INTRA.SOLV.lig_0>
-119.383

>  <SCORE.INTRA.VDW>
1.37827

>  <SCORE.INTRA.VDW.0>
-5.10464

>  <SCORE.INTRA.norm>
-0.0163561

>  <SCORE.RESTR>
0.551283

>  <SCORE.RESTR.CAVITY>
0.551283

>  <SCORE.RESTR.norm>
0.0172276

>  <SCORE.SYSTEM>
0

>  <SCORE.SYSTEM.CONST>
0

>  <SCORE.SYSTEM.DIHEDRAL>
0

>  <SCORE.SYSTEM.SOLV>
0

>  <SCORE.SYSTEM.norm>
0

>  <SCORE.heavy>
32

>  <SCORE.norm>
-0.788591

>  <RMSD>
0.963

$$$$
2au4_lig
 OpenBabel11021811423D
libRbt.so/2013.1/901 2013/11/27
 32 34  0  0  0  0  0  0  0  0999 V2000
   66.0896    9.3180    0.7402 P   0  0  1  0  0  0  0  0  0  0  0  0
   68.3362    9.4861    2.2548 P   0  0  1  0  0  0  0  0  0  0  0  0
   70.2691   11.0289    1.1039 P   0  0  2  0  0  0  0  0  0  0  0  0
   67.6936    8.7609   -1.2963 C   0  0  0  0  0  0  0  0  0  0  0  0
   66.3895    8.6652   -0.6996 O   0  0  0  0  0  0  0  0  0  0  0  0
   67.8203    7.9172   -2.5563 C   0  0  0  0  0  0  0  0  0  0  0  0
   69.1860    7.4953   -2.7492 O   0  0  0  0  0  0  0  0  0  0  0  0
   66.9467    6.6759   -2.4633 C   0  0  0  0  0  0  0  0  0  0  0  0
   65.9230    6.6939   -3.4656 O   0  0  0  0  0  0  0  0  0  0  0  0
   67.8646    5.4909   -2.6460 C   0  0  0  0  0  0  0  0  0  0  0  0
   67.4658    4.6935   -3.7691 O   0  0  0  0  0  0  0  0  0  0  0  0
   69.2584    6.0576   -2.8540 C   0  0  0  0  0  0  0  0  0  0  0  0
   70.1504    5.1070    2.0823 N   0  0  0  0  0  0  0  0  0  0  0  0
   66.4282   10.7544    0.6858 O   0  5  0  0  0  0  0  0  0  0  0  0
   67.7449   10.5555    3.0823 O   0  5  0  0  0  0  0  0  0  0  0  0
   71.4338   10.1274    0.9943 O   0  5  0  0  0  0  0  0  0  0  0  0
   69.0562    5.6919    1.4903 C   0  0  1  0  0  0  0  0  0  0  0  0
   68.0822    6.0754    2.3047 N   0  0  0  0  0  0  0  0  0  0  0  0
   64.7450    8.8899    1.1819 O   0  0  0  0  0  0  0  0  0  0  0  0
   69.3514    8.5794    2.8298 O   0  0  0  0  0  0  0  0  0  0  0  0
   70.1050   11.8827    2.2990 O   0  0  0  0  0  0  0  0  0  0  0  0
   68.9386    5.8862    0.1792 N   0  0  0  0  0  0  0  0  0  0  0  0
   67.1572    8.6002    1.6704 O   0  0  0  0  0  0  0  0  0  0  0  0
   68.9507   10.1491    0.9478 O   0  0  0  0  0  0  0  0  0  0  0  0
   70.2261   11.9647   -0.2011 O   0  0  0  0  0  0  0  0  0  0  0  0
   70.0206    5.4423   -0.5009 C   0  0  2  0  0  0  0  0  0  0  0  0
   71.1594    4.8439    0.0138 C   0  0  2  0  0  0  0  0  0  0  0  0
   71.2687    4.6448    1.4119 C   0  0  1  0  0  0  0  0  0  0  0  0
   72.2009    4.1604    2.0394 O   0  0  0  0  0  0  0  0  0  0  0  0
   72.0597    4.5247   -1.0084 N   0  0  0  0  0  0  0  0  0  0  0  0
   71.4211    4.9425   -2.0522 C   0  0  0  0  0  0  0  0  0  0  0  0
   70.2010    5.5040   -1.8625 N   0  0  0  0  0  0  0  0  0  0  0  0
  1  5  1  6  0  0  0
  1 14  1  0  0  0  0
  1 19  2  0  0  0  0
  2 15  1  1  0  0  0
  2 20  2  0  0  0  0
  2 23  1  0  0  0  0
  3 16  1  1  0  0  0
  3 21  2  0  0  0  0
  3 24  1  0  0  0  0
  3 25  1  0  0  0  0
  4  6  1  0  0  0  0
  5  4  1  0  0  0  0
  6  7  1  0  0  0  0
  6  8  2  0  0  0  0
  7 12  1  0  0  0  0
  8  9  1  0  0  0  0
  8 10  1  0  0  0  0
 10 11  1  0  0  0  0
 10 12  2  0  0  0  0
 12 32  1  0  0  0  0
 13 17  1  0  0  0  0
 17 18  1  1  0  0  0
 17 22  1  0  0  0  0
 23  1  1  0  0  0  0
 24  2  1  0  0  0  0
 26 22  1  1  0  0  0
 27 26  1  0  0  0  0
 27 28  1  0  0  0  0
 27 30  1  1  0  0  0
 28 13  1  0  0  0  0
 28 29  1  1  0  0  0
 31 30  1  0  0  0  0
 32 26  1  0  0  0  0
 32 31  1  0  0  0  0
M  CHG  3  14  -1  15  -1  16  -1
M  END
>  <CHROM.1>
56.24393557,60.55987215,87.70974306,-151.57130841,171.94090096,70.70034339
111.54527028,71.13095428,68.78557321,7.86146465,0.16765895,1.86864371,-0.58319419
0.65537539

>  <Name>
2au4_lig

>  <RI>
0

>  <Rbt.Current_Directory>
/home/itssahil/PROJECTS/Mol_Feturizer/New_Systems/rnas/2au4

>  <Rbt.Executable>
rbdock ($Id: //depot/dev/client3/rdock/2013.1/src/exe/rbdock.cxx#4 $)

>  <Rbt.Library>
libRbt.so (2013.1, Build901 2013/11/27)

>  <Rbt.Parameter_File>
/export/apps/rDock/src/rDock_2013.1_src/data/scripts/dock_solv.prm

>  <Rbt.Receptor>
prm/pocket_docking_2.prm

>  <SCORE>
-24.8093

>  <SCORE.INTER>
-25.0728

>  <SCORE.INTER.CONST>
1

>  <SCORE.INTER.POLAR>
-2.249

>  <SCORE.INTER.ROT>
8

>  <SCORE.INTER.SOLV>
30.3268

>  <SCORE.INTER.VDW>
-28.2608

>  <SCORE.INTER.norm>
-0.783525

>  <SCORE.INTRA>
0.0540019

>  <SCORE.INTRA.DIHEDRAL>
-0.762297

>  <SCORE.INTRA.DIHEDRAL.0>
76.3625

>  <SCORE.INTRA.POLAR>
0

>  <SCORE.INTRA.POLAR.0>
0

>  <SCORE.INTRA.REPUL>
-0.0979448

>  <SCORE.INTRA.REPUL.0>
0.12705

>  <SCORE.INTRA.SOLV>
2.84082

>  <SCORE.INTRA.SOLV.lig_0>
-119.383

>  <SCORE.INTRA.VDW>
-0.495536

>  <SCORE.INTRA.VDW.0>
-5.10464

>  <SCORE.INTRA.norm>
0.00168756

>  <SCORE.RESTR>
0.209499

>  <SCORE.RESTR.CAVITY>
0.209499

>  <SCORE.RESTR.norm>
0.00654685

>  <SCORE.SYSTEM>
0

>  <SCORE.SYSTEM.CONST>
0

>  <SCORE.SYSTEM.DIHEDRAL>
0

>  <SCORE.SYSTEM.SOLV>
0

>  <SCORE.SYSTEM.norm>
0

>  <SCORE.heavy>
32

>  <SCORE.norm>
-0.775291

>  <RMSD>
1.178

$$$$
2au4_lig
 OpenBabel11021811423D
libRbt.so/2013.1/901 2013/11/27
 32 34  0  0  0  0  0  0  0  0999 V2000
   65.8522    8.3614    0.7615 P   0  0  1  0  0  0  0  0  0  0  0  0
   67.9089   10.1087    1.0551 P   0  0  1  0  0  0  0  0  0  0  0  0
   68.4907   12.0778   -0.7406 P   0  0  2  0  0  0  0  0  0  0  0  0
   66.1744    6.3421   -0.9265 C   0  0  0  0  0  0  0  0  0  0  0  0
   65.3837    7.4582   -0.4852 O   0  0  0  0  0  0  0  0  0  0  0  0
   66.9394    6.6411   -2.2074 C   0  0  0  0  0  0  0  0  0  0  0  0
   68.3149    6.9609   -1.9141 O   0  0  0  0  0  0  0  0  0  0  0  0
   66.9178    5.4403   -3.1403 C   0  0  0  0  0  0  0  0  0  0  0  0
   66.2240    5.7484   -4.3555 O   0  0  0  0  0  0  0  0  0  0  0  0
   68.3594    5.0837   -3.4137 C   0  0  0  0  0  0  0  0  0  0  0  0
   68.6514    5.1408   -4.8164 O   0  0  0  0  0  0  0  0  0  0  0  0
   69.2014    6.0879   -2.6457 C   0  0  0  0  0  0  0  0  0  0  0  0
   70.4894    5.1788    2.2104 N   0  0  0  0  0  0  0  0  0  0  0  0
   64.7014    9.1659    1.2189 O   0  5  0  0  0  0  0  0  0  0  0  0
   67.4065    9.9914    2.4379 O   0  5  0  0  0  0  0  0  0  0  0  0
   69.9413   11.8784   -0.5476 O   0  5  0  0  0  0  0  0  0  0  0  0
   69.4644    5.9451    1.7085 C   0  0  1  0  0  0  0  0  0  0  0  0
   68.6893    6.5471    2.6006 N   0  0  0  0  0  0  0  0  0  0  0  0
   66.5832    7.5029    1.7179 O   0  0  0  0  0  0  0  0  0  0  0  0
   69.2807    9.6696    0.7251 O   0  0  0  0  0  0  0  0  0  0  0  0
   67.9707   13.4099   -1.1136 O   0  0  0  0  0  0  0  0  0  0  0  0
   69.2272    6.1060    0.4090 N   0  0  0  0  0  0  0  0  0  0  0  0
   66.9022    9.3475    0.0942 O   0  0  0  0  0  0  0  0  0  0  0  0
   67.7505   11.6210    0.5936 O   0  0  0  0  0  0  0  0  0  0  0  0
   67.9693   11.0068   -1.8184 O   0  0  0  0  0  0  0  0  0  0  0  0
   70.1122    5.4287   -0.3582 C   0  0  2  0  0  0  0  0  0  0  0  0
   71.1686    4.6371    0.0630 C   0  0  2  0  0  0  0  0  0  0  0  0
   71.4073    4.4769    1.4499 C   0  0  1  0  0  0  0  0  0  0  0  0
   72.2983    3.8425    1.9988 O   0  0  0  0  0  0  0  0  0  0  0  0
   71.8589    4.1044   -1.0311 N   0  0  0  0  0  0  0  0  0  0  0  0
   71.1901    4.5984   -2.0214 C   0  0  0  0  0  0  0  0  0  0  0  0
   70.1336    5.3983   -1.7325 N   0  0  0  0  0  0  0  0  0  0  0  0
  1  5  1  6  0  0  0
  1 14  1  0  0  0  0
  1 19  2  0  0  0  0
  2 15  1  1  0  0  0
  2 20  2  0  0  0  0
  2 23  1  0  0  0  0
  3 16  1  1  0  0  0
  3 21  2  0  0  0  0
  3 24  1  0  0  0  0
  3 25  1  0  0  0  0
  4  6  1  0  0  0  0
  5  4  1  0  0  0  0
  6  7  1  0  0  0  0
  6  8  2  0  0  0  0
  7 12  1  0  0  0  0
  8  9  1  0  0  0  0
  8 10  1  0  0  0  0
 10 11  1  0  0  0  0
 10 12  2  0  0  0  0
 12 32  1  0  0  0  0
 13 17  1  0  0  0  0
 17 18  1  6  0  0  0
 17 22  1  0  0  0  0
 23  1  1  0  0  0  0
 24  2  1  0  0  0  0
 26 22  1  6  0  0  0
 27 26  1  0  0  0  0
 27 28  1  0  0  0  0
 27 30  1  6  0  0  0
 28 13  1  0  0  0  0
 28 29  1  6  0  0  0
 31 30  1  0  0  0  0
 32 26  1  0  0  0  0
 32 31  1  0  0  0  0
M  CHG  3  14  -1  15  -1  16  -1
M  END
>  <CHROM.1>
-164.35329718,-14.85081649,-60.83325556,100.35774037,-104.54642933,6.83314316
-162.11080914,167.54388008,68.37636036,7.75037330,-0.33696607,2.24198420
-0.90015247,0.71328624

>  <Name>
2au4_lig

>  <RI>
0

>  <Rbt.Current_Directory>
/home/itssahil/PROJECTS/Mol_Feturizer/New_Systems/rnas/2au4

>  <Rbt.Executable>
rbdock ($Id: //depot/dev/client3/rdock/2013.1/src/exe/rbdock.cxx#4 $)

>  <Rbt.Library>
libRbt.so (2013.1, Build901 2013/11/27)

>  <Rbt.Parameter_File>
/export/apps/rDock/src/rDock_2013.1_src/data/scripts/dock_solv.prm

>  <Rbt.Receptor>
prm/pocket_docking_3.prm

>  <SCORE>
-35.508

>  <SCORE.INTER>
-24.9883

>  <SCORE.INTER.CONST>
1

>  <SCORE.INTER.POLAR>
-1.249

>  <SCORE.INTER.ROT>
8

>  <SCORE.INTER.SOLV>
32.0702

>  <SCORE.INTER.VDW>
-32.1189

>  <SCORE.INTER.norm>
-0.780884

>  <SCORE.INTRA>
-10.5313

>  <SCORE.INTRA.DIHEDRAL>
-24.0596

>  <SCORE.INTRA.DIHEDRAL.0>
76.3625

>  <SCORE.INTRA.POLAR>
0

>  <SCORE.INTRA.POLAR.0>
0

>  <SCORE.INTRA.REPUL>
-0.0545595

>  <SCORE.INTRA.REPUL.0>
0.12705

>  <SCORE.INTRA.SOLV>
2.30813

>  <SCORE.INTRA.SOLV.lig_0>
-119.383

>  <SCORE.INTRA.VDW>
0.617183

>  <SCORE.INTRA.VDW.0>
-5.10464

>  <SCORE.INTRA.norm>
-0.329104

>  <SCORE.RESTR>
0.0116695

>  <SCORE.RESTR.CAVITY>
0.0116695

>  <SCORE.RESTR.norm>
0.000364672

>  <SCORE.SYSTEM>
0

>  <SCORE.SYSTEM.CONST>
0

>  <SCORE.SYSTEM.DIHEDRAL>
0

>  <SCORE.SYSTEM.SOLV>
0

>  <SCORE.SYSTEM.norm>
0

>  <SCORE.heavy>
32

>  <SCORE.norm>
-1.10962

>  <RMSD>
1.251

$$$$
2au4_lig
 OpenBabel11021811423D
libRbt.so/2013.1/901 2013/11/27
 32 34  0  0  0  0  0  0  0  0999 V2000
   66.6392    8.4860    1.9006 P   0  0  1  0  0  0  0  0  0  0  0  0
   69.0420    9.7488    1.8636 P   0  0  1  0  0  0  0  0  0  0  0  0
   68.0851   11.3137   -0.1553 P   0  0  2  0  0  0  0  0  0  0  0  0
   66.2978    6.5777    0.0916 C   0  0  0  0  0  0  0  0  0  0  0  0
   65.7711    7.7241    0.7801 O   0  0  0  0  0  0  0  0  0  0  0  0
   66.6745    6.8869   -1.3499 C   0  0  0  0  0  0  0  0  0  0  0  0
   68.0759    7.2132   -1.4493 O   0  0  0  0  0  0  0  0  0  0  0  0
   66.3991    5.6902   -2.2469 C   0  0  0  0  0  0  0  0  0  0  0  0
   65.3931    5.9997   -3.2190 O   0  0  0  0  0  0  0  0  0  0  0  0
   67.7091    5.3430   -2.9130 C   0  0  0  0  0  0  0  0  0  0  0  0
   67.5987    5.4082   -4.3412 O   0  0  0  0  0  0  0  0  0  0  0  0
   68.7274    6.3486   -2.4039 C   0  0  0  0  0  0  0  0  0  0  0  0
   71.0128    4.9511    1.9424 N   0  0  0  0  0  0  0  0  0  0  0  0
   65.9496    9.7423    2.2568 O   0  5  0  0  0  0  0  0  0  0  0  0
   68.7101    9.7574    3.3016 O   0  5  0  0  0  0  0  0  0  0  0  0
   66.6356   11.0836    0.0100 O   0  5  0  0  0  0  0  0  0  0  0  0
   69.8422    5.6475    1.7571 C   0  0  1  0  0  0  0  0  0  0  0  0
   69.2014    6.0231    2.8559 N   0  0  0  0  0  0  0  0  0  0  0  0
   67.0041    7.5161    2.9552 O   0  0  0  0  0  0  0  0  0  0  0  0
   70.3831    9.3203    1.4149 O   0  0  0  0  0  0  0  0  0  0  0  0
   68.8639   10.4788   -1.0937 O   0  0  0  0  0  0  0  0  0  0  0  0
   69.3433    5.9536    0.5620 N   0  0  0  0  0  0  0  0  0  0  0  0
   67.9629    8.8636    1.1097 O   0  0  0  0  0  0  0  0  0  0  0  0
   68.7670   11.2008    1.2796 O   0  0  0  0  0  0  0  0  0  0  0  0
   68.3146   12.8575   -0.5353 O   0  0  0  0  0  0  0  0  0  0  0  0
   70.1227    5.5004   -0.4468 C   0  0  2  0  0  0  0  0  0  0  0  0
   71.3107    4.7940   -0.3495 C   0  0  2  0  0  0  0  0  0  0  0  0
   71.8280    4.4767    0.9304 C   0  0  1  0  0  0  0  0  0  0  0  0
   72.8644    3.8873    1.2059 O   0  0  0  0  0  0  0  0  0  0  0  0
   71.8229    4.5036   -1.6185 N   0  0  0  0  0  0  0  0  0  0  0  0
   70.9312    5.0423   -2.3843 C   0  0  0  0  0  0  0  0  0  0  0  0
   69.8799    5.6603   -1.7905 N   0  0  0  0  0  0  0  0  0  0  0  0
  1  5  1  6  0  0  0
  1 14  1  0  0  0  0
  1 19  2  0  0  0  0
  2 15  1  1  0  0  0
  2 20  2  0  0  0  0
  2 23  1  0  0  0  0
  3 16  1  1  0  0  0
  3 21  2  0  0  0  0
  3 24  1  0  0  0  0
  3 25  1  0  0  0  0
  4  6  1  0  0  0  0
  5  4  1  0  0  0  0
  6  7  1  0  0  0  0
  6  8  2  0  0  0  0
  7 12  1  0  0  0  0
  8  9  1  0  0  0  0
  8 10  1  0  0  0  0
 10 11  1  0  0  0  0
 10 12  2  0  0  0  0
 12 32  1  0  0  0  0
 13 17  1  0  0  0  0
 17 18  1  1  0  0  0
 17 22  1  0  0  0  0
 23  1  1  0  0  0  0
 24  2  1  0  0  0  0
 26 22  1  1  0  0  0
 27 26  1  0  0  0  0
 27 28  1  0  0  0  0
 27 30  1  1  0  0  0
 28 13  1  0  0  0  0
 28 29  1  1  0  0  0
 31 30  1  0  0  0  0
 32 26  1  0  0  0  0
 32 31  1  0  0  0  0
M  CHG  3  14  -1  15  -1  16  -1
M  END
>  <CHROM.1>
170.24856324,13.98563908,79.11831274,94.90930859,-107.12544660,18.29191002
175.08654541,-139.11884943,68.55729831,7.67157935,0.16174784,-2.14376605
0.74748160,-2.38864148

>  <Name>
2au4_lig

>  <RI>
0

>  <Rbt.Current_Directory>
/home/itssahil/PROJECTS/Mol_Feturizer/New_Systems/rnas/2au4

>  <Rbt.Executable>
rbdock ($Id: //depot/dev/client3/rdock/2013.1/src/exe/rbdock.cxx#4 $)

>  <Rbt.Library>
libRbt.so (2013.1, Build901 2013/11/27)

>  <Rbt.Parameter_File>
/export/apps/rDock/src/rDock_2013.1_src/data/scripts/dock_solv.prm

>  <Rbt.Receptor>
prm/pocket_docking_2.prm

>  <SCORE>
-24.3139

>  <SCORE.INTER>
-25.1688

>  <SCORE.INTER.CONST>
1

>  <SCORE.INTER.POLAR>
-2.79268

>  <SCORE.INTER.ROT>
8

>  <SCORE.INTER.SOLV>
31.355

>  <SCORE.INTER.VDW>
-26.8553

>  <SCORE.INTER.norm>
-0.786525

>  <SCORE.INTRA>
-0.734598

>  <SCORE.INTRA.DIHEDRAL>
-14.3872

>  <SCORE.INTRA.DIHEDRAL.0>
76.3625

>  <SCORE.INTRA.POLAR>
0

>  <SCORE.INTRA.POLAR.0>
0

>  <SCORE.INTRA.REPUL>
0.705253

>  <SCORE.INTRA.REPUL.0>
0.12705

>  <SCORE.INTRA.SOLV>
9.05406

>  <SCORE.INTRA.SOLV.lig_0>
-119.383

>  <SCORE.INTRA.VDW>
-1.59428

>  <SCORE.INTRA.VDW.0>
-5.10464

>  <SCORE.INTRA.norm>
-0.0229562

>  <SCORE.RESTR>
1.58953

>  <SCORE.RESTR.CAVITY>
1.58953

>  <SCORE.RESTR.norm>
0.0496728

>  <SCORE.SYSTEM>
0

>  <SCORE.SYSTEM.CONST>
0

>  <SCORE.SYSTEM.DIHEDRAL>
0

>  <SCORE.SYSTEM.SOLV>
0

>  <SCORE.SYSTEM.norm>
0

>  <SCORE.heavy>
32

>  <SCORE.norm>
-0.759808

>  <RMSD>
1.478

$$$$
2au4_lig
 OpenBabel11021811423D
libRbt.so/2013.1/901 2013/11/27
 32 34  0  0  0  0  0  0  0  0999 V2000
   65.9158    8.8214    0.4029 P   0  0  1  0  0  0  0  0  0  0  0  0
   68.2616    9.7918   -0.5590 P   0  0  1  0  0  0  0  0  0  0  0  0
   69.3141   11.8642    0.8685 P   0  0  2  0  0  0  0  0  0  0  0  0
   66.0394    6.3289   -0.4930 C   0  0  0  0  0  0  0  0  0  0  0  0
   66.3520    7.2785    0.5396 O   0  0  0  0  0  0  0  0  0  0  0  0
   66.6904    6.6800   -1.8229 C   0  0  0  0  0  0  0  0  0  0  0  0
   68.0685    7.0586   -1.6290 O   0  0  0  0  0  0  0  0  0  0  0  0
   66.6515    5.4922   -2.7716 C   0  0  0  0  0  0  0  0  0  0  0  0
   65.8540    5.7843   -3.9255 O   0  0  0  0  0  0  0  0  0  0  0  0
   68.0826    5.2058   -3.1592 C   0  0  0  0  0  0  0  0  0  0  0  0
   68.2640    5.2952   -4.5788 O   0  0  0  0  0  0  0  0  0  0  0  0
   68.9349    6.2372   -2.4401 C   0  0  0  0  0  0  0  0  0  0  0  0
   70.4405    5.0241    2.2851 N   0  0  0  0  0  0  0  0  0  0  0  0
   64.4913    8.8757    0.0176 O   0  5  0  0  0  0  0  0  0  0  0  0
   68.9834    8.6948    0.1146 O   0  5  0  0  0  0  0  0  0  0  0  0
   68.9834   12.6193    2.0939 O   0  5  0  0  0  0  0  0  0  0  0  0
   69.3205    5.7075    1.8749 C   0  0  1  0  0  0  0  0  0  0  0  0
   68.5024    6.1238    2.8321 N   0  0  0  0  0  0  0  0  0  0  0  0
   66.3889    9.5532    1.5974 O   0  0  0  0  0  0  0  0  0  0  0  0
   68.7979   10.3766   -1.8055 O   0  0  0  0  0  0  0  0  0  0  0  0
   69.7430   12.5828   -0.3496 O   0  0  0  0  0  0  0  0  0  0  0  0
   69.0340    5.9635    0.6009 N   0  0  0  0  0  0  0  0  0  0  0  0
   66.7758    9.3114   -0.8383 O   0  0  0  0  0  0  0  0  0  0  0  0
   68.0532   10.9686    0.4883 O   0  0  0  0  0  0  0  0  0  0  0  0
   70.4298   10.7673    1.2328 O   0  0  0  0  0  0  0  0  0  0  0  0
   69.9732    5.4739   -0.2410 C   0  0  2  0  0  0  0  0  0  0  0  0
   71.1253    4.7771    0.0860 C   0  0  2  0  0  0  0  0  0  0  0  0
   71.4155    4.5134    1.4471 C   0  0  1  0  0  0  0  0  0  0  0  0
   72.3881    3.9400    1.9190 O   0  0  0  0  0  0  0  0  0  0  0  0
   71.8461    4.4387   -1.0642 N   0  0  0  0  0  0  0  0  0  0  0  0
   71.0997    4.9425   -1.9921 C   0  0  0  0  0  0  0  0  0  0  0  0
   69.9639    5.5790   -1.6118 N   0  0  0  0  0  0  0  0  0  0  0  0
  1  5  1  1  0  0  0
  1 14  1  0  0  0  0
  1 19  2  0  0  0  0
  2 15  1  1  0  0  0
  2 20  2  0  0  0  0
  2 23  1  0  0  0  0
  3 16  1  1  0  0  0
  3 21  2  0  0  0  0
  3 24  1  0  0  0  0
  3 25  1  0  0  0  0
  4  6  1  0  0  0  0
  5  4  1  0  0  0  0
  6  7  1  0  0  0  0
  6  8  2  0  0  0  0
  7 12  1  0  0  0  0
  8  9  1  0  0  0  0
  8 10  1  0  0  0  0
 10 11  1  0  0  0  0
 10 12  2  0  0  0  0
 12 32  1  0  0  0  0
 13 17  1  0  0  0  0
 17 18  1  1  0  0  0
 17 22  1  0  0  0  0
 23  1  1  0  0  0  0
 24  2  1  0  0  0  0
 26 22  1  1  0  0  0
 27 26  1  0  0  0  0
 27 28  1  0  0  0  0
 27 30  1  1  0  0  0
 28 13  1  0  0  0  0
 28 29  1  1  0  0  0
 31 30  1  0  0  0  0
 32 26  1  0  0  0  0
 32 31  1  0  0  0  0
M  CHG  3  14  -1  15  -1  16  -1
M  END
>  <CHROM.1>
48.70486464,56.33878675,-164.70487444,44.92510482,61.70078646,13.96452487
-84.80890570,74.37971130,68.52571962,7.76884957,-0.25889342,1.89716593,-0.62004468
0.41879456

>  <Name>
2au4_lig

>  <RI>
0

>  <Rbt.Current_Directory>
/home/itssahil/PROJECTS/Mol_Feturizer/New_Systems/rnas/2au4

>  <Rbt.Executable>
rbdock ($Id: //depot/dev/client3/rdock/2013.1/src/exe/rbdock.cxx#4 $)

>  <Rbt.Library>
libRbt.so (2013.1, Build901 2013/11/27)

>  <Rbt.Parameter_File>
/export/apps/rDock/src/rDock_2013.1_src/data/scripts/dock_solv.prm

>  <Rbt.Receptor>
prm/pocket_docking_2.prm

>  <SCORE>
-34.5963

>  <SCORE.INTER>
-25.0295

>  <SCORE.INTER.CONST>
1

>  <SCORE.INTER.POLAR>
-1.4253

>  <SCORE.INTER.ROT>
8

>  <SCORE.INTER.SOLV>
32.5339

>  <SCORE.INTER.VDW>
-31.7133

>  <SCORE.INTER.norm>
-0.782173

>  <SCORE.INTRA>
-10.3391

>  <SCORE.INTRA.DIHEDRAL>
-26.6182

>  <SCORE.INTRA.DIHEDRAL.0>
76.3625

>  <SCORE.INTRA.POLAR>
0

>  <SCORE.INTRA.POLAR.0>
0

>  <SCORE.INTRA.REPUL>
0.314714

>  <SCORE.INTRA.REPUL.0>
0.12705

>  <SCORE.INTRA.SOLV>
3.65759

>  <SCORE.INTRA.SOLV.lig_0>
-119.383

>  <SCORE.INTRA.VDW>
-0.43232

>  <SCORE.INTRA.VDW.0>
-5.10464

>  <SCORE.INTRA.norm>
-0.323095

>  <SCORE.RESTR>
0.77232

>  <SCORE.RESTR.CAVITY>
0.77232

>  <SCORE.RESTR.norm>
0.024135

>  <SCORE.SYSTEM>
0

>  <SCORE.SYSTEM.CONST>
0

>  <SCORE.SYSTEM.DIHEDRAL>
0

>  <SCORE.SYSTEM.SOLV>
0

>  <SCORE.SYSTEM.norm>
0

>  <SCORE.heavy>
32

>  <SCORE.norm>
-1.08113

>  <RMSD>
1.612

$$$$
2au4_lig
 OpenBabel11021811423D
libRbt.so/2013.1/901 2013/11/27
 32 34  0  0  0  0  0  0  0  0999 V2000
   66.2139    9.4341   -0.8760 P   0  0  1  0  0  0  0  0  0  0  0  0
   66.8481    9.8511    1.7304 P   0  0  1  0  0  0  0  0  0  0  0  0
   69.5413    9.9248    1.3038 P   0  0  2  0  0  0  0  0  0  0  0  0
   66.2729    6.7833   -0.8966 C   0  0  0  0  0  0  0  0  0  0  0  0
   66.4426    8.0087   -0.1650 O   0  0  0  0  0  0  0  0  0  0  0  0
   66.9785    6.8079   -2.2446 C   0  0  0  0  0  0  0  0  0  0  0  0
   68.3889    7.0566   -2.0746 O   0  0  0  0  0  0  0  0  0  0  0  0
   66.8123    5.4782   -2.9636 C   0  0  0  0  0  0  0  0  0  0  0  0
   66.0704    5.6421   -4.1783 O   0  0  0  0  0  0  0  0  0  0  0  0
   68.2047    4.9649   -3.2430 C   0  0  0  0  0  0  0  0  0  0  0  0
   68.4143    4.7707   -4.6482 O   0  0  0  0  0  0  0  0  0  0  0  0
   69.1631    6.0072   -2.6932 C   0  0  0  0  0  0  0  0  0  0  0  0
   70.2790    5.2730    2.2345 N   0  0  0  0  0  0  0  0  0  0  0  0
   67.2767    9.6346   -1.8815 O   0  5  0  0  0  0  0  0  0  0  0  0
   67.1531   10.9702    2.6429 O   0  5  0  0  0  0  0  0  0  0  0  0
   70.4482    9.5018    2.3900 O   0  5  0  0  0  0  0  0  0  0  0  0
   69.2289    5.9576    1.6705 C   0  0  1  0  0  0  0  0  0  0  0  0
   68.3730    6.5195    2.5135 N   0  0  0  0  0  0  0  0  0  0  0  0
   64.7925    9.5434   -1.2681 O   0  0  0  0  0  0  0  0  0  0  0  0
   65.8195    8.8553    2.0965 O   0  0  0  0  0  0  0  0  0  0  0  0
   69.1646   11.3472    1.1670 O   0  0  0  0  0  0  0  0  0  0  0  0
   69.0430    6.0793    0.3585 N   0  0  0  0  0  0  0  0  0  0  0  0
   66.4690   10.4544    0.3132 O   0  0  0  0  0  0  0  0  0  0  0  0
   68.2002    9.0741    1.4248 O   0  0  0  0  0  0  0  0  0  0  0  0
   70.1534    9.4227   -0.0940 O   0  0  0  0  0  0  0  0  0  0  0  0
   70.0077    5.4521   -0.3532 C   0  0  2  0  0  0  0  0  0  0  0  0
   71.0946    4.7430    0.1321 C   0  0  2  0  0  0  0  0  0  0  0  0
   71.2779    4.6235    1.5316 C   0  0  1  0  0  0  0  0  0  0  0  0
   72.1832    4.0620    2.1337 O   0  0  0  0  0  0  0  0  0  0  0  0
   71.8708    4.2409   -0.9179 N   0  0  0  0  0  0  0  0  0  0  0  0
   71.2174    4.6702   -1.9478 C   0  0  0  0  0  0  0  0  0  0  0  0
   70.0960    5.3997   -1.7242 N   0  0  0  0  0  0  0  0  0  0  0  0
  1  5  1  1  0  0  0
  1 14  1  0  0  0  0
  1 19  2  0  0  0  0
  2 15  1  1  0  0  0
  2 20  2  0  0  0  0
  2 23  1  0  0  0  0
  3 16  1  1  0  0  0
  3 21  2  0  0  0  0
  3 24  1  0  0  0  0
  3 25  1  0  0  0  0
  4  6  1  0  0  0  0
  5  4  1  0  0  0  0
  6  7  1  0  0  0  0
  6  8  2  0  0  0  0
  7 12  1  0  0  0  0
  8  9  1  0  0  0  0
  8 10  1  0  0  0  0
 10 11  1  0  0  0  0
 10 12  2  0  0  0  0
 12 32  1  0  0  0  0
 13 17  1  0  0  0  0
 17 18  1  1  0  0  0
 17 22  1  0  0  0  0
 23  1  1  0  0  0  0
 24  2  1  0  0  0  0
 26 22  1  1  0  0  0
 27 26  1  0  0  0  0
 27 28  1  0  0  0  0
 27 30  1  6  0  0  0
 28 13  1  0  0  0  0
 28 29  1  1  0  0  0
 31 30  1  0  0  0  0
 32 26  1  0  0  0  0
 32 31  1  0  0  0  0
M  CHG  3  14  -1  15  -1  16  -1
M  END
>  <CHROM.1>
-67.62078824,175.11203968,116.61258661,58.10069579,47.44362793,20.04519637
0.28083284,-35.82716016,68.41076248,7.55946361,-0.13169509,2.19335870,-0.68425485
0.82723252

>  <Name>
2au4_lig

>  <RI>
0

>  <Rbt.Current_Directory>
/home/itssahil/PROJECTS/Mol_Feturizer/New_Systems/rnas/2au4

>  <Rbt.Executable>
rbdock ($Id: //depot/dev/client3/rdock/2013.1/src/exe/rbdock.cxx#4 $)

>  <Rbt.Library>
libRbt.so (2013.1, Build901 2013/11/27)

>  <Rbt.Parameter_File>
/export/apps/rDock/src/rDock_2013.1_src/data/scripts/dock_solv.prm

>  <Rbt.Receptor>
prm/pocket_docking_2.prm

>  <SCORE>
-32.9508

>  <SCORE.INTER>
-28.6729

>  <SCORE.INTER.CONST>
1

>  <SCORE.INTER.POLAR>
-1.92704

>  <SCORE.INTER.ROT>
8

>  <SCORE.INTER.SOLV>
28.9347

>  <SCORE.INTER.VDW>
-31.2701

>  <SCORE.INTER.norm>
-0.896029

>  <SCORE.INTRA>
-5.44564

>  <SCORE.INTRA.DIHEDRAL>
-16.7975

>  <SCORE.INTRA.DIHEDRAL.0>
76.3625

>  <SCORE.INTRA.POLAR>
0

>  <SCORE.INTRA.POLAR.0>
0

>  <SCORE.INTRA.REPUL>
-0.00357073

>  <SCORE.INTRA.REPUL.0>
0.12705

>  <SCORE.INTRA.SOLV>
5.66226

>  <SCORE.INTRA.SOLV.lig_0>
-119.383

>  <SCORE.INTRA.VDW>
0.13982

>  <SCORE.INTRA.VDW.0>
-5.10464

>  <SCORE.INTRA.norm>
-0.170176

>  <SCORE.RESTR>
1.16777

>  <SCORE.RESTR.CAVITY>
1.16777

>  <SCORE.RESTR.norm>
0.0364928

>  <SCORE.SYSTEM>
0

>  <SCORE.SYSTEM.CONST>
0

>  <SCORE.SYSTEM.DIHEDRAL>
0

>  <SCORE.SYSTEM.SOLV>
0

>  <SCORE.SYSTEM.norm>
0

>  <SCORE.heavy>
32

>  <SCORE.norm>
-1.02971

>  <RMSD>
1.666

$$$$
2au4_lig
 OpenBabel11021811423D
libRbt.so/2013.1/901 2013/11/27
 32 34  0  0  0  0  0  0  0  0999 V2000
   65.0358    8.8696   -0.1504 P   0  0  1  0  0  0  0  0  0  0  0  0
   67.1583    9.9569    1.1464 P   0  0  1  0  0  0  0  0  0  0  0  0
   69.5378   10.2220    2.4536 P   0  0  2  0  0  0  0  0  0  0  0  0
   66.8116    7.3090   -1.3511 C   0  0  0  0  0  0  0  0  0  0  0  0
   65.8746    8.3952   -1.4392 O   0  0  0  0  0  0  0  0  0  0  0  0
   67.4961    7.0218   -2.6794 C   0  0  0  0  0  0  0  0  0  0  0  0
   68.9300    7.0797   -2.5343 O   0  0  0  0  0  0  0  0  0  0  0  0
   67.1242    5.6381   -3.1887 C   0  0  0  0  0  0  0  0  0  0  0  0
   66.4000    5.7240   -4.4221 O   0  0  0  0  0  0  0  0  0  0  0  0
   68.4205    4.8856   -3.3716 C   0  0  0  0  0  0  0  0  0  0  0  0
   68.5813    4.4503   -4.7284 O   0  0  0  0  0  0  0  0  0  0  0  0
   69.5307    5.8443   -2.9772 C   0  0  0  0  0  0  0  0  0  0  0  0
   70.2558    5.2902    2.0462 N   0  0  0  0  0  0  0  0  0  0  0  0
   64.6775   10.2922   -0.3193 O   0  5  0  0  0  0  0  0  0  0  0  0
   67.7904   10.1664   -0.1707 O   0  5  0  0  0  0  0  0  0  0  0  0
   69.1004   11.4221    3.1950 O   0  5  0  0  0  0  0  0  0  0  0  0
   69.2666    5.9713    1.3774 C   0  0  1  0  0  0  0  0  0  0  0  0
   68.3624    6.5835    2.1302 N   0  0  0  0  0  0  0  0  0  0  0  0
   63.9833    7.8677    0.1227 O   0  0  0  0  0  0  0  0  0  0  0  0
   66.4943   11.0817    1.8374 O   0  0  0  0  0  0  0  0  0  0  0  0
   70.3114   10.3668    1.2029 O   0  0  0  0  0  0  0  0  0  0  0  0
   69.1828    6.0430    0.0513 N   0  0  0  0  0  0  0  0  0  0  0  0
   66.1117    8.7724    1.0128 O   0  0  0  0  0  0  0  0  0  0  0  0
   68.2468    9.3469    2.1305 O   0  0  0  0  0  0  0  0  0  0  0  0
   70.3629    9.2772    3.4572 O   0  0  0  0  0  0  0  0  0  0  0  0
   70.1842    5.3689   -0.5598 C   0  0  2  0  0  0  0  0  0  0  0  0
   71.2155    4.6595    0.0343 C   0  0  2  0  0  0  0  0  0  0  0  0
   71.2901    4.5936    1.4473 C   0  0  1  0  0  0  0  0  0  0  0  0
   72.1348    4.0398    2.1381 O   0  0  0  0  0  0  0  0  0  0  0  0
   72.0572    4.1002   -0.9330 N   0  0  0  0  0  0  0  0  0  0  0  0
   71.4929    4.4996   -2.0258 C   0  0  0  0  0  0  0  0  0  0  0  0
   70.3744    5.2590   -1.9169 N   0  0  0  0  0  0  0  0  0  0  0  0
  1  5  1  6  0  0  0
  1 14  1  0  0  0  0
  1 19  2  0  0  0  0
  2 15  1  6  0  0  0
  2 20  2  0  0  0  0
  2 23  1  0  0  0  0
  3 16  1  1  0  0  0
  3 21  2  0  0  0  0
  3 24  1  0  0  0  0
  3 25  1  0  0  0  0
  4  6  1  0  0  0  0
  5  4  1  0  0  0  0
  6  7  1  0  0  0  0
  6  8  2  0  0  0  0
  7 12  1  0  0  0  0
  8  9  1  0  0  0  0
  8 10  1  0  0  0  0
 10 11  1  0  0  0  0
 10 12  2  0  0  0  0
 12 32  1  0  0  0  0
 13 17  1  0  0  0  0
 17 18  1  1  0  0  0
 17 22  1  0  0  0  0
 23  1  1  0  0  0  0
 24  2  1  0  0  0  0
 26 22  1  1  0  0  0
 27 26  1  0  0  0  0
 27 28  1  0  0  0  0
 27 30  1  1  0  0  0
 28 13  1  0  0  0  0
 28 29  1  1  0  0  0
 31 30  1  0  0  0  0
 32 26  1  0  0  0  0
 32 31  1  0  0  0  0
M  CHG  3  14  -1  15  -1  16  -1
M  END
>  <CHROM.1>
153.76544776,-52.05242010,65.45910337,124.46470715,179.97889613,30.87171886
79.60238026,62.15244008,68.37636535,7.54952430,-0.02776176,2.08919354,-0.56573155
0.83825551

>  <Name>
2au4_lig

>  <RI>
0

>  <Rbt.Current_Directory>
/home/itssahil/PROJECTS/Mol_Feturizer/New_Systems/rnas/2au4

>  <Rbt.Executable>
rbdock ($Id: //depot/dev/client3/rdock/2013.1/src/exe/rbdock.cxx#4 $)

>  <Rbt.Library>
libRbt.so (2013.1, Build901 2013/11/27)

>  <Rbt.Parameter_File>
/export/apps/rDock/src/rDock_2013.1_src/data/scripts/dock_solv.prm

>  <Rbt.Receptor>
prm/pocket_docking_2.prm

>  <SCORE>
-31.5605

>  <SCORE.INTER>
-26.1076

>  <SCORE.INTER.CONST>
1

>  <SCORE.INTER.POLAR>
-1.52168

>  <SCORE.INTER.ROT>
8

>  <SCORE.INTER.SOLV>
27.4873

>  <SCORE.INTER.VDW>
-30.4286

>  <SCORE.INTER.norm>
-0.815864

>  <SCORE.INTRA>
-7.14838

>  <SCORE.INTRA.DIHEDRAL>
-13.0603

>  <SCORE.INTRA.DIHEDRAL.0>
76.3625

>  <SCORE.INTRA.POLAR>
0

>  <SCORE.INTRA.POLAR.0>
0

>  <SCORE.INTRA.REPUL>
-0.0170736

>  <SCORE.INTRA.REPUL.0>
0.12705

>  <SCORE.INTRA.SOLV>
0.740706

>  <SCORE.INTRA.SOLV.lig_0>
-119.383

>  <SCORE.INTRA.VDW>
-0.903216

>  <SCORE.INTRA.VDW.0>
-5.10464

>  <SCORE.INTRA.norm>
-0.223387

>  <SCORE.RESTR>
1.69553

>  <SCORE.RESTR.CAVITY>
1.69553

>  <SCORE.RESTR.norm>
0.0529852

>  <SCORE.SYSTEM>
0

>  <SCORE.SYSTEM.CONST>
0

>  <SCORE.SYSTEM.DIHEDRAL>
0

>  <SCORE.SYSTEM.SOLV>
0

>  <SCORE.SYSTEM.norm>
0

>  <SCORE.heavy>
32

>  <SCORE.norm>
-0.986266

>  <RMSD>
1.808

$$$$
2au4_lig
 OpenBabel11021811423D
libRbt.so/2013.1/901 2013/11/27
 32 34  0  0  0  0  0  0  0  0999 V2000
   65.7341    8.7931   -0.2254 P   0  0  1  0  0  0  0  0  0  0  0  0
   68.1606    9.9515    0.1481 P   0  0  1  0  0  0  0  0  0  0  0  0
   68.9756   10.4003    2.7122 P   0  0  2  0  0  0  0  0  0  0  0  0
   66.0744    6.2326   -0.8244 C   0  0  0  0  0  0  0  0  0  0  0  0
   66.2120    7.2982    0.1302 O   0  0  0  0  0  0  0  0  0  0  0  0
   66.7999    6.5235   -2.1300 C   0  0  0  0  0  0  0  0  0  0  0  0
   68.1662    6.9095   -1.8761 O   0  0  0  0  0  0  0  0  0  0  0  0
   66.8103    5.2946   -3.0256 C   0  0  0  0  0  0  0  0  0  0  0  0
   66.0796    5.5356   -4.2343 O   0  0  0  0  0  0  0  0  0  0  0  0
   68.2600    4.9902   -3.3192 C   0  0  0  0  0  0  0  0  0  0  0  0
   68.5208    5.0160   -4.7289 O   0  0  0  0  0  0  0  0  0  0  0  0
   69.0740    6.0520   -2.6000 C   0  0  0  0  0  0  0  0  0  0  0  0
   70.3800    5.1686    2.2559 N   0  0  0  0  0  0  0  0  0  0  0  0
   66.0610    9.0682   -1.6390 O   0  5  0  0  0  0  0  0  0  0  0  0
   68.9197    8.6885    0.2277 O   0  5  0  0  0  0  0  0  0  0  0  0
   67.7166    9.7785    3.1701 O   0  5  0  0  0  0  0  0  0  0  0  0
   69.2970    5.8504    1.7540 C   0  0  1  0  0  0  0  0  0  0  0  0
   68.4609    6.3641    2.6462 N   0  0  0  0  0  0  0  0  0  0  0  0
   64.3510    8.9755    0.2644 O   0  0  0  0  0  0  0  0  0  0  0  0
   68.0611   10.6770   -1.1354 O   0  0  0  0  0  0  0  0  0  0  0  0
   69.5986   11.4797    3.5064 O   0  0  0  0  0  0  0  0  0  0  0  0
   69.0619    6.0142    0.4546 N   0  0  0  0  0  0  0  0  0  0  0  0
   66.6899    9.6819    0.6781 O   0  0  0  0  0  0  0  0  0  0  0  0
   68.7422   10.9525    1.2367 O   0  0  0  0  0  0  0  0  0  0  0  0
   70.0633    9.2398    2.4874 O   0  0  0  0  0  0  0  0  0  0  0  0
   70.0127    5.4329   -0.3126 C   0  0  2  0  0  0  0  0  0  0  0  0
   71.1302    4.7303    0.1085 C   0  0  2  0  0  0  0  0  0  0  0  0
   71.3657    4.5655    1.4955 C   0  0  1  0  0  0  0  0  0  0  0  0
   72.3030    4.0024    2.0449 O   0  0  0  0  0  0  0  0  0  0  0  0
   71.8780    4.2819   -0.9854 N   0  0  0  0  0  0  0  0  0  0  0  0
   71.1798    4.7333   -1.9757 C   0  0  0  0  0  0  0  0  0  0  0  0
   70.0529    5.4307   -1.6869 N   0  0  0  0  0  0  0  0  0  0  0  0
  1  5  1  1  0  0  0
  1 14  1  0  0  0  0
  1 19  2  0  0  0  0
  2 15  1  6  0  0  0
  2 20  2  0  0  0  0
  2 23  1  0  0  0  0
  3 16  1  1  0  0  0
  3 21  2  0  0  0  0
  3 24  1  0  0  0  0
  3 25  1  0  0  0  0
  4  6  1  0  0  0  0
  5  4  1  0  0  0  0
  6  7  1  0  0  0  0
  6  8  2  0  0  0  0
  7 12  1  0  0  0  0
  8  9  1  0  0  0  0
  8 10  1  0  0  0  0
 10 11  1  0  0  0  0
 10 12  2  0  0  0  0
 12 32  1  0  0  0  0
 13 17  1  0  0  0  0
 17 18  1  1  0  0  0
 17 22  1  0  0  0  0
 23  1  1  0  0  0  0
 24  2  1  0  0  0  0
 26 22  1  1  0  0  0
 27 26  1  0  0  0  0
 27 28  1  0  0  0  0
 27 30  1  1  0  0  0
 28 13  1  0  0  0  0
 28 29  1  1  0  0  0
 31 30  1  0  0  0  0
 32 26  1  0  0  0  0
 32 31  1  0  0  0  0
M  CHG  3  14  -1  15  -1  16  -1
M  END
>  <CHROM.1>
-38.08393554,-70.28667476,-52.62918928,51.32004351,57.84365380,11.16920928
80.45904818,-47.18761367,68.44081674,7.48882052,-0.02197832,1.86426585,-0.66638532
0.77499274

>  <Name>
2au4_lig

>  <RI>
0

>  <Rbt.Current_Directory>
/home/itssahil/PROJECTS/Mol_Feturizer/New_Systems/rnas/2au4

>  <Rbt.Executable>
rbdock ($Id: //depot/dev/client3/rdock/2013.1/src/exe/rbdock.cxx#4 $)

>  <Rbt.Library>
libRbt.so (2013.1, Build901 2013/11/27)

>  <Rbt.Parameter_File>
/export/apps/rDock/src/rDock_2013.1_src/data/scripts/dock_solv.prm

>  <Rbt.Receptor>
prm/pocket_docking_2.prm

>  <SCORE>
-40.1937

>  <SCORE.INTER>
-29.1595

>  <SCORE.INTER.CONST>
1

>  <SCORE.INTER.POLAR>
-2.04623

>  <SCORE.INTER.ROT>
8

>  <SCORE.INTER.SOLV>
28.0637

>  <SCORE.INTER.VDW>
-30.9068

>  <SCORE.INTER.norm>
-0.911236

>  <SCORE.INTRA>
-11.5231

>  <SCORE.INTRA.DIHEDRAL>
-28.3284

>  <SCORE.INTRA.DIHEDRAL.0>
76.3625

>  <SCORE.INTRA.POLAR>
0

>  <SCORE.INTRA.POLAR.0>
0

>  <SCORE.INTRA.REPUL>
0.232429

>  <SCORE.INTRA.REPUL.0>
0.12705

>  <SCORE.INTRA.SOLV>
5.17861

>  <SCORE.INTRA.SOLV.lig_0>
-119.383

>  <SCORE.INTRA.VDW>
-1.11042

>  <SCORE.INTRA.VDW.0>
-5.10464

>  <SCORE.INTRA.norm>
-0.360098

>  <SCORE.RESTR>
0.488979

>  <SCORE.RESTR.CAVITY>
0.488979

>  <SCORE.RESTR.norm>
0.0152806

>  <SCORE.SYSTEM>
0

>  <SCORE.SYSTEM.CONST>
0

>  <SCORE.SYSTEM.DIHEDRAL>
0

>  <SCORE.SYSTEM.SOLV>
0

>  <SCORE.SYSTEM.norm>
0

>  <SCORE.heavy>
32

>  <SCORE.norm>
-1.25605

>  <RMSD>
2.011

$$$$
2au4_lig
 OpenBabel11021811423D
libRbt.so/2013.1/901 2013/11/27
 32 34  0  0  0  0  0  0  0  0999 V2000
   69.0596   11.2684   -0.3678 P   0  0  1  0  0  0  0  0  0  0  0  0
   70.4648   10.6933    1.8826 P   0  0  1  0  0  0  0  0  0  0  0  0
   72.3887   12.4023    0.9779 P   0  0  2  0  0  0  0  0  0  0  0  0
   67.9055    9.0520   -1.2543 C   0  0  0  0  0  0  0  0  0  0  0  0
   68.5096   10.3226   -1.5478 O   0  0  0  0  0  0  0  0  0  0  0  0
   67.8656    8.1328   -2.4663 C   0  0  0  0  0  0  0  0  0  0  0  0
   69.1691    7.5697   -2.7193 O   0  0  0  0  0  0  0  0  0  0  0  0
   66.8877    6.9898   -2.2433 C   0  0  0  0  0  0  0  0  0  0  0  0
   65.8038    7.0533   -3.1781 O   0  0  0  0  0  0  0  0  0  0  0  0
   67.6755    5.7125   -2.4115 C   0  0  0  0  0  0  0  0  0  0  0  0
   67.1274    4.8982   -3.4567 O   0  0  0  0  0  0  0  0  0  0  0  0
   69.0988    6.1282   -2.7411 C   0  0  0  0  0  0  0  0  0  0  0  0
   70.1169    5.1556    2.1664 N   0  0  0  0  0  0  0  0  0  0  0  0
   69.8404   12.3675   -0.9704 O   0  5  0  0  0  0  0  0  0  0  0  0
   69.7257   11.9145    2.2574 O   0  5  0  0  0  0  0  0  0  0  0  0
   71.2194   13.3036    1.0202 O   0  5  0  0  0  0  0  0  0  0  0  0
   69.0279    5.7824    1.6090 C   0  0  1  0  0  0  0  0  0  0  0  0
   68.0978    6.2069    2.4539 N   0  0  0  0  0  0  0  0  0  0  0  0
   67.9436   11.5708    0.5538 O   0  0  0  0  0  0  0  0  0  0  0  0
   70.3554    9.4762    2.7135 O   0  0  0  0  0  0  0  0  0  0  0  0
   72.9824   12.0220   -0.3209 O   0  0  0  0  0  0  0  0  0  0  0  0
   68.8742    5.9779    0.3017 N   0  0  0  0  0  0  0  0  0  0  0  0
   70.0719   10.3117    0.3938 O   0  0  0  0  0  0  0  0  0  0  0  0
   72.0045   11.0631    1.7497 O   0  0  0  0  0  0  0  0  0  0  0  0
   73.5442   13.0249    1.9040 O   0  0  0  0  0  0  0  0  0  0  0  0
   69.9142    5.4889   -0.4124 C   0  0  2  0  0  0  0  0  0  0  0  0
   71.0446    4.8466    0.0664 C   0  0  2  0  0  0  0  0  0  0  0  0
   71.1927    4.6470    1.4608 C   0  0  1  0  0  0  0  0  0  0  0  0
   72.1252    4.1272    2.0588 O   0  0  0  0  0  0  0  0  0  0  0  0
   71.8966    4.4888   -0.9840 N   0  0  0  0  0  0  0  0  0  0  0  0
   71.2406    4.9291   -2.0076 C   0  0  0  0  0  0  0  0  0  0  0  0
   70.0511    5.5397   -1.7794 N   0  0  0  0  0  0  0  0  0  0  0  0
  1  5  1  6  0  0  0
  1 14  1  0  0  0  0
  1 19  2  0  0  0  0
  2 15  1  1  0  0  0
  2 20  2  0  0  0  0
  2 23  1  0  0  0  0
  3 16  1  6  0  0  0
  3 21  2  0  0  0  0
  3 24  1  0  0  0  0
  3 25  1  0  0  0  0
  4  6  1  0  0  0  0
  5  4  1  0  0  0  0
  6  7  1  0  0  0  0
  6  8  2  0  0  0  0
  7 12  1  0  0  0  0
  8  9  1  0  0  0  0
  8 10  1  0  0  0  0
 10 11  1  0  0  0  0
 10 12  2  0  0  0  0
 12 32  1  0  0  0  0
 13 17  1  0  0  0  0
 17 18  1  1  0  0  0
 17 22  1  0  0  0  0
 23  1  1  0  0  0  0
 24  2  1  0  0  0  0
 26 22  1  1  0  0  0
 27 26  1  0  0  0  0
 27 28  1  0  0  0  0
 27 30  1  1  0  0  0
 28 13  1  0  0  0  0
 28 29  1  1  0  0  0
 31 30  1  0  0  0  0
 32 26  1  0  0  0  0
 32 31  1  0  0  0  0
M  CHG  3  14  -1  15  -1  16  -1
M  END
>  <CHROM.1>
169.56092000,1.42584875,23.11187451,76.28651226,-161.46093899,75.54045813
-160.22879737,-44.33989236,69.91097334,8.66276667,-0.02713452,1.15571155
-0.76953159,0.02140122

>  <Name>
2au4_lig

>  <RI>
0

>  <Rbt.Current_Directory>
/home/itssahil/PROJECTS/Mol_Feturizer/New_Systems/rnas/2au4

>  <Rbt.Executable>
rbdock ($Id: //depot/dev/client3/rdock/2013.1/src/exe/rbdock.cxx#4 $)

>  <Rbt.Library>
libRbt.so (2013.1, Build901 2013/11/27)

>  <Rbt.Parameter_File>
/export/apps/rDock/src/rDock_2013.1_src/data/scripts/dock_solv.prm

>  <Rbt.Receptor>
prm/pocket_docking_2.prm

>  <SCORE>
-28.1959

>  <SCORE.INTER>
-33.8297

>  <SCORE.INTER.CONST>
1

>  <SCORE.INTER.POLAR>
-2.98957

>  <SCORE.INTER.ROT>
8

>  <SCORE.INTER.SOLV>
30.4315

>  <SCORE.INTER.VDW>
-31.6651

>  <SCORE.INTER.norm>
-1.05718

>  <SCORE.INTRA>
3.1948

>  <SCORE.INTRA.DIHEDRAL>
0.688396

>  <SCORE.INTRA.DIHEDRAL.0>
76.3625

>  <SCORE.INTRA.POLAR>
0

>  <SCORE.INTRA.POLAR.0>
0

>  <SCORE.INTRA.REPUL>
-0.12705

>  <SCORE.INTRA.REPUL.0>
0.12705

>  <SCORE.INTRA.SOLV>
2.41103

>  <SCORE.INTRA.SOLV.lig_0>
-119.383

>  <SCORE.INTRA.VDW>
2.28033

>  <SCORE.INTRA.VDW.0>
-5.10464

>  <SCORE.INTRA.norm>
0.0998375

>  <SCORE.RESTR>
2.43897

>  <SCORE.RESTR.CAVITY>
2.43897

>  <SCORE.RESTR.norm>
0.0762177

>  <SCORE.SYSTEM>
0

>  <SCORE.SYSTEM.CONST>
0

>  <SCORE.SYSTEM.DIHEDRAL>
0

>  <SCORE.SYSTEM.SOLV>
0

>  <SCORE.SYSTEM.norm>
0

>  <SCORE.heavy>
32

>  <SCORE.norm>
-0.881122

>  <RMSD>
2.121

$$$$
2au4_lig
 OpenBabel11021811423D
libRbt.so/2013.1/901 2013/11/27
 32 34  0  0  0  0  0  0  0  0999 V2000
   68.0819   11.5879    0.2781 P   0  0  1  0  0  0  0  0  0  0  0  0
   70.2294   10.9048    1.7917 P   0  0  1  0  0  0  0  0  0  0  0  0
   72.4786   12.3450    1.2372 P   0  0  2  0  0  0  0  0  0  0  0  0
   68.4729    9.6916   -1.5333 C   0  0  0  0  0  0  0  0  0  0  0  0
   67.9621   10.0707   -0.2445 O   0  0  0  0  0  0  0  0  0  0  0  0
   67.6885    8.5460   -2.1562 C   0  0  0  0  0  0  0  0  0  0  0  0
   68.5828    7.5273   -2.6487 O   0  0  0  0  0  0  0  0  0  0  0  0
   66.7597    7.9107   -1.1333 C   0  0  0  0  0  0  0  0  0  0  0  0
   65.3883    8.0799   -1.5122 O   0  0  0  0  0  0  0  0  0  0  0  0
   67.1287    6.4478   -1.0692 C   0  0  0  0  0  0  0  0  0  0  0  0
   66.0086    5.6149   -1.3976 O   0  0  0  0  0  0  0  0  0  0  0  0
   68.2596    6.2482   -2.0633 C   0  0  0  0  0  0  0  0  0  0  0  0
   70.4476    4.9915    2.3752 N   0  0  0  0  0  0  0  0  0  0  0  0
   67.7476   12.4976   -0.8361 O   0  5  0  0  0  0  0  0  0  0  0  0
   69.2004   10.8360    2.8475 O   0  5  0  0  0  0  0  0  0  0  0  0
   73.6053   12.9497    1.9763 O   0  5  0  0  0  0  0  0  0  0  0  0
   69.2278    5.5799    2.1396 C   0  0  1  0  0  0  0  0  0  0  0  0
   68.5012    5.8752    3.2091 N   0  0  0  0  0  0  0  0  0  0  0  0
   67.3665   11.7010    1.5672 O   0  0  0  0  0  0  0  0  0  0  0  0
   70.8311    9.6640    1.2608 O   0  0  0  0  0  0  0  0  0  0  0  0
   71.7640   13.1288    0.2081 O   0  0  0  0  0  0  0  0  0  0  0  0
   68.7623    5.8595    0.9247 N   0  0  0  0  0  0  0  0  0  0  0  0
   69.6358   11.7270    0.5718 O   0  0  0  0  0  0  0  0  0  0  0  0
   71.4052   11.8441    2.3019 O   0  0  0  0  0  0  0  0  0  0  0  0
   72.9845   10.9726    0.5729 O   0  0  0  0  0  0  0  0  0  0  0  0
   69.6295    5.4983   -0.0489 C   0  0  2  0  0  0  0  0  0  0  0  0
   70.8719    4.9031    0.0996 C   0  0  2  0  0  0  0  0  0  0  0  0
   71.3525    4.6126    1.3999 C   0  0  1  0  0  0  0  0  0  0  0  0
   72.4245    4.1167    1.7201 O   0  0  0  0  0  0  0  0  0  0  0  0
   71.4711    4.6839   -1.1454 N   0  0  0  0  0  0  0  0  0  0  0  0
   70.5720    5.1512   -1.9486 C   0  0  0  0  0  0  0  0  0  0  0  0
   69.4396    5.6587   -1.4010 N   0  0  0  0  0  0  0  0  0  0  0  0
  1  5  1  6  0  0  0
  1 14  1  0  0  0  0
  1 19  2  0  0  0  0
  2 15  1  1  0  0  0
  2 20  2  0  0  0  0
  2 23  1  0  0  0  0
  3 16  1  1  0  0  0
  3 21  2  0  0  0  0
  3 24  1  0  0  0  0
  3 25  1  0  0  0  0
  4  6  1  0  0  0  0
  5  4  1  0  0  0  0
  6  7  1  0  0  0  0
  6  8  2  0  0  0  0
  7 12  1  0  0  0  0
  8  9  1  0  0  0  0
  8 10  1  0  0  0  0
 10 11  1  0  0  0  0
 10 12  2  0  0  0  0
 12 32  1  0  0  0  0
 13 17  1  0  0  0  0
 17 18  1  1  0  0  0
 17 22  1  0  0  0  0
 23  1  1  0  0  0  0
 24  2  1  0  0  0  0
 26 22  1  1  0  0  0
 27 26  1  0  0  0  0
 27 28  1  0  0  0  0
 27 30  1  1  0  0  0
 28 13  1  0  0  0  0
 28 29  1  1  0  0  0
 31 30  1  0  0  0  0
 32 26  1  0  0  0  0
 32 31  1  0  0  0  0
M  CHG  3  14  -1  15  -1  16  -1
M  END
>  <CHROM.1>
42.72798569,-33.80461211,-168.30005902,-131.96831805,-149.72458385,110.14843783
-68.95071425,-166.59979124,69.61617280,8.80624379,0.35117976,1.29352733,-0.48920632
0.07959272

>  <Name>
2au4_lig

>  <RI>
0

>  <Rbt.Current_Directory>
/home/itssahil/PROJECTS/Mol_Feturizer/New_Systems/rnas/2au4

>  <Rbt.Executable>
rbdock ($Id: //depot/dev/client3/rdock/2013.1/src/exe/rbdock.cxx#4 $)

>  <Rbt.Library>
libRbt.so (2013.1, Build901 2013/11/27)

>  <Rbt.Parameter_File>
/export/apps/rDock/src/rDock_2013.1_src/data/scripts/dock_solv.prm

>  <Rbt.Receptor>
prm/pocket_docking_2.prm

>  <SCORE>
-35.6688

>  <SCORE.INTER>
-26.6162

>  <SCORE.INTER.CONST>
1

>  <SCORE.INTER.POLAR>
-2.96753

>  <SCORE.INTER.ROT>
8

>  <SCORE.INTER.SOLV>
31.0728

>  <SCORE.INTER.VDW>
-27.1433

>  <SCORE.INTER.norm>
-0.831755

>  <SCORE.INTRA>
-12.6077

>  <SCORE.INTRA.DIHEDRAL>
-25.7254

>  <SCORE.INTRA.DIHEDRAL.0>
76.3625

>  <SCORE.INTRA.POLAR>
0

>  <SCORE.INTRA.POLAR.0>
0

>  <SCORE.INTRA.REPUL>
-0.125671

>  <SCORE.INTRA.REPUL.0>
0.12705

>  <SCORE.INTRA.SOLV>
-5.15981

>  <SCORE.INTRA.SOLV.lig_0>
-119.383

>  <SCORE.INTRA.VDW>
3.46327

>  <SCORE.INTRA.VDW.0>
-5.10464

>  <SCORE.INTRA.norm>
-0.393991

>  <SCORE.RESTR>
3.5551

>  <SCORE.RESTR.CAVITY>
3.5551

>  <SCORE.RESTR.norm>
0.111097

>  <SCORE.SYSTEM>
0

>  <SCORE.SYSTEM.CONST>
0

>  <SCORE.SYSTEM.DIHEDRAL>
0

>  <SCORE.SYSTEM.SOLV>
0

>  <SCORE.SYSTEM.norm>
0

>  <SCORE.heavy>
32

>  <SCORE.norm>
-1.11465

>  <RMSD>
2.232

$$$$
2au4_lig
 OpenBabel11021811423D
libRbt.so/2013.1/901 2013/11/27
 32 34  0  0  0  0  0  0  0  0999 V2000
   67.8240   10.9152    0.1289 P   0  0  1  0  0  0  0  0  0  0  0  0
   70.2679   11.1414    1.2888 P   0  0  1  0  0  0  0  0  0  0  0  0
   72.8922   11.5834    0.6902 P   0  0  2  0  0  0  0  0  0  0  0  0
   68.0026    9.4752   -2.0903 C   0  0  0  0  0  0  0  0  0  0  0  0
   67.3469   10.5231   -1.3571 O   0  0  0  0  0  0  0  0  0  0  0  0
   67.1209    8.2474   -2.2647 C   0  0  0  0  0  0  0  0  0  0  0  0
   67.8795    7.1521   -2.8172 O   0  0  0  0  0  0  0  0  0  0  0  0
   66.5463    7.8030   -0.9288 C   0  0  0  0  0  0  0  0  0  0  0  0
   65.1180    7.9172   -0.9222 O   0  0  0  0  0  0  0  0  0  0  0  0
   66.9771    6.3691   -0.7322 C   0  0  0  0  0  0  0  0  0  0  0  0
   65.8445    5.5022   -0.5844 O   0  0  0  0  0  0  0  0  0  0  0  0
   67.7873    5.9938   -1.9610 C   0  0  0  0  0  0  0  0  0  0  0  0
   70.9505    4.8762    1.8876 N   0  0  0  0  0  0  0  0  0  0  0  0
   67.3139   12.2642    0.4466 O   0  5  0  0  0  0  0  0  0  0  0  0
   69.4423   11.7934    2.3238 O   0  5  0  0  0  0  0  0  0  0  0  0
   72.8327   10.4166   -0.2133 O   0  5  0  0  0  0  0  0  0  0  0  0
   69.6573    5.3406    1.9281 C   0  0  1  0  0  0  0  0  0  0  0  0
   69.1407    5.5370    3.1337 N   0  0  0  0  0  0  0  0  0  0  0  0
   67.5338    9.7814    1.0325 O   0  0  0  0  0  0  0  0  0  0  0  0
   70.8918    9.8288    1.5562 O   0  0  0  0  0  0  0  0  0  0  0  0
   73.4766   11.4438    2.0404 O   0  0  0  0  0  0  0  0  0  0  0  0
   68.9277    5.5963    0.8450 N   0  0  0  0  0  0  0  0  0  0  0  0
   69.4000   11.0155   -0.0331 O   0  0  0  0  0  0  0  0  0  0  0  0
   71.4140   12.1530    0.8547 O   0  0  0  0  0  0  0  0  0  0  0  0
   73.6486   12.7783   -0.0717 O   0  0  0  0  0  0  0  0  0  0  0  0
   69.6073    5.3468   -0.2979 C   0  0  2  0  0  0  0  0  0  0  0  0
   70.9053    4.8798   -0.4284 C   0  0  2  0  0  0  0  0  0  0  0  0
   71.6683    4.6130    0.7347 C   0  0  1  0  0  0  0  0  0  0  0  0
   72.8259    4.2236    0.8108 O   0  0  0  0  0  0  0  0  0  0  0  0
   71.2545    4.7496   -1.7768 N   0  0  0  0  0  0  0  0  0  0  0  0
   70.1688    5.1386   -2.3616 C   0  0  0  0  0  0  0  0  0  0  0  0
   69.1293    5.5152   -1.5759 N   0  0  0  0  0  0  0  0  0  0  0  0
  1  5  1  6  0  0  0
  1 14  1  0  0  0  0
  1 19  2  0  0  0  0
  2 15  1  1  0  0  0
  2 20  2  0  0  0  0
  2 23  1  0  0  0  0
  3 16  1  6  0  0  0
  3 21  2  0  0  0  0
  3 24  1  0  0  0  0
  3 25  1  0  0  0  0
  4  6  1  0  0  0  0
  5  4  1  0  0  0  0
  6  7  1  0  0  0  0
  6  8  2  0  0  0  0
  7 12  1  0  0  0  0
  8  9  1  0  0  0  0
  8 10  1  0  0  0  0
 10 11  1  0  0  0  0
 10 12  2  0  0  0  0
 12 32  1  0  0  0  0
 13 17  1  0  0  0  0
 17 18  1  6  0  0  0
 17 22  1  0  0  0  0
 23  1  1  0  0  0  0
 24  2  1  0  0  0  0
 26 22  1  6  0  0  0
 27 26  1  0  0  0  0
 27 28  1  0  0  0  0
 27 30  1  6  0  0  0
 28 13  1  0  0  0  0
 28 29  1  6  0  0  0
 31 30  1  0  0  0  0
 32 26  1  0  0  0  0
 32 31  1  0  0  0  0
M  CHG  3  14  -1  15  -1  16  -1
M  END
>  <CHROM.1>
161.13177430,-27.84199744,52.62799978,-171.09023912,110.51917589,123.57804115
-169.59264114,135.92891670,69.61358605,8.55639604,0.08078121,1.19282622,-0.30898301
0.09771581

>  <Name>
2au4_lig

>  <RI>
0

>  <Rbt.Current_Directory>
/home/itssahil/PROJECTS/Mol_Feturizer/New_Systems/rnas/2au4

>  <Rbt.Executable>
rbdock ($Id: //depot/dev/client3/rdock/2013.1/src/exe/rbdock.cxx#4 $)

>  <Rbt.Library>
libRbt.so (2013.1, Build901 2013/11/27)

>  <Rbt.Parameter_File>
/export/apps/rDock/src/rDock_2013.1_src/data/scripts/dock_solv.prm

>  <Rbt.Receptor>
prm/pocket_docking_3.prm

>  <SCORE>
-36.7526

>  <SCORE.INTER>
-22.2638

>  <SCORE.INTER.CONST>
1

>  <SCORE.INTER.POLAR>
-2.82039

>  <SCORE.INTER.ROT>
8

>  <SCORE.INTER.SOLV>
35.7592

>  <SCORE.INTER.VDW>
-26.2943

>  <SCORE.INTER.norm>
-0.695744

>  <SCORE.INTRA>
-14.7147

>  <SCORE.INTRA.DIHEDRAL>
-29.8519

>  <SCORE.INTRA.DIHEDRAL.0>
76.3625

>  <SCORE.INTRA.POLAR>
0

>  <SCORE.INTRA.POLAR.0>
0

>  <SCORE.INTRA.REPUL>
-0.122517

>  <SCORE.INTRA.REPUL.0>
0.12705

>  <SCORE.INTRA.SOLV>
-2.68823

>  <SCORE.INTRA.SOLV.lig_0>
-119.383

>  <SCORE.INTRA.VDW>
2.16796

>  <SCORE.INTRA.VDW.0>
-5.10464

>  <SCORE.INTRA.norm>
-0.459833

>  <SCORE.RESTR>
0.225874

>  <SCORE.RESTR.CAVITY>
0.225874

>  <SCORE.RESTR.norm>
0.00705856

>  <SCORE.SYSTEM>
0

>  <SCORE.SYSTEM.CONST>
0

>  <SCORE.SYSTEM.DIHEDRAL>
0

>  <SCORE.SYSTEM.SOLV>
0

>  <SCORE.SYSTEM.norm>
0

>  <SCORE.heavy>
32

>  <SCORE.norm>
-1.14852

>  <RMSD>
2.317

$$$$
2au4_lig
 OpenBabel11021811423D
libRbt.so/2013.1/901 2013/11/27
 32 34  0  0  0  0  0  0  0  0999 V2000
   68.9931    9.2126    1.0274 P   0  0  1  0  0  0  0  0  0  0  0  0
   70.3928   11.4700    0.4668 P   0  0  1  0  0  0  0  0  0  0  0  0
   72.4327   13.0424    1.3653 P   0  0  2  0  0  0  0  0  0  0  0  0
   66.8176    7.7985    0.4811 C   0  0  0  0  0  0  0  0  0  0  0  0
   67.3997    9.0548    0.8665 O   0  0  0  0  0  0  0  0  0  0  0  0
   66.8249    7.5919   -1.0265 C   0  0  0  0  0  0  0  0  0  0  0  0
   68.1744    7.6136   -1.5351 O   0  0  0  0  0  0  0  0  0  0  0  0
   66.2002    6.2538   -1.3896 C   0  0  0  0  0  0  0  0  0  0  0  0
   65.0078    6.4383   -2.1622 O   0  0  0  0  0  0  0  0  0  0  0  0
   67.2425    5.4925   -2.1733 C   0  0  0  0  0  0  0  0  0  0  0  0
   66.7618    5.1496   -3.4800 O   0  0  0  0  0  0  0  0  0  0  0  0
   68.4562    6.4012   -2.2659 C   0  0  0  0  0  0  0  0  0  0  0  0
   70.9542    4.8917    1.9231 N   0  0  0  0  0  0  0  0  0  0  0  0
   69.4046    8.5695    2.2914 O   0  5  0  0  0  0  0  0  0  0  0  0
   71.3893   10.4272    0.1538 O   0  5  0  0  0  0  0  0  0  0  0  0
   73.2829   12.0172    0.7270 O   0  5  0  0  0  0  0  0  0  0  0  0
   69.7536    5.5522    1.8139 C   0  0  1  0  0  0  0  0  0  0  0  0
   69.1427    5.8533    2.9519 N   0  0  0  0  0  0  0  0  0  0  0  0
   69.6369    8.8240   -0.2457 O   0  0  0  0  0  0  0  0  0  0  0  0
   69.8610   12.3336   -0.6079 O   0  0  0  0  0  0  0  0  0  0  0  0
   72.8616   13.6759    2.6297 O   0  0  0  0  0  0  0  0  0  0  0  0
   69.1989    5.8940    0.6536 N   0  0  0  0  0  0  0  0  0  0  0  0
   69.1659   10.7812    1.1995 O   0  0  0  0  0  0  0  0  0  0  0  0
   70.9914   12.4071    1.6019 O   0  0  0  0  0  0  0  0  0  0  0  0
   72.1369   14.1988    0.2902 O   0  0  0  0  0  0  0  0  0  0  0  0
   69.9545    5.5165   -0.4033 C   0  0  2  0  0  0  0  0  0  0  0  0
   71.1694    4.8506   -0.3830 C   0  0  2  0  0  0  0  0  0  0  0  0
   71.7462    4.4945    0.8607 C   0  0  1  0  0  0  0  0  0  0  0  0
   72.8124    3.9317    1.0700 O   0  0  0  0  0  0  0  0  0  0  0  0
   71.6425    4.6377   -1.6822 N   0  0  0  0  0  0  0  0  0  0  0  0
   70.7036    5.1775   -2.3886 C   0  0  0  0  0  0  0  0  0  0  0  0
   69.6548    5.7285   -1.7282 N   0  0  0  0  0  0  0  0  0  0  0  0
  1  5  1  6  0  0  0
  1 14  1  0  0  0  0
  1 19  2  0  0  0  0
  2 15  1  6  0  0  0
  2 20  2  0  0  0  0
  2 23  1  0  0  0  0
  3 16  1  6  0  0  0
  3 21  2  0  0  0  0
  3 24  1  0  0  0  0
  3 25  1  0  0  0  0
  4  6  1  0  0  0  0
  5  4  1  0  0  0  0
  6  7  1  0  0  0  0
  6  8  2  0  0  0  0
  7 12  1  0  0  0  0
  8  9  1  0  0  0  0
  8 10  1  0  0  0  0
 10 11  1  0  0  0  0
 10 12  2  0  0  0  0
 12 32  1  0  0  0  0
 13 17  1  0  0  0  0
 17 18  1  1  0  0  0
 17 22  1  0  0  0  0
 23  1  1  0  0  0  0
 24  2  1  0  0  0  0
 26 22  1  1  0  0  0
 27 26  1  0  0  0  0
 27 28  1  0  0  0  0
 27 30  1  1  0  0  0
 28 13  1  0  0  0  0
 28 29  1  1  0  0  0
 31 30  1  0  0  0  0
 32 26  1  0  0  0  0
 32 31  1  0  0  0  0
M  CHG  3  14  -1  15  -1  16  -1
M  END
>  <CHROM.1>
-75.61859366,-19.62366959,-39.69273812,60.03040570,-83.57245915,44.98642350
-139.93620579,52.67696170,69.82678585,8.43776830,0.15240374,1.15460376,-0.44017398
0.09917577

>  <Name>
2au4_lig

>  <RI>
0

>  <Rbt.Current_Directory>
/home/itssahil/PROJECTS/Mol_Feturizer/New_Systems/rnas/2au4

>  <Rbt.Executable>
rbdock ($Id: //depot/dev/client3/rdock/2013.1/src/exe/rbdock.cxx#4 $)

>  <Rbt.Library>
libRbt.so (2013.1, Build901 2013/11/27)

>  <Rbt.Parameter_File>
/export/apps/rDock/src/rDock_2013.1_src/data/scripts/dock_solv.prm

>  <Rbt.Receptor>
prm/pocket_docking_2.prm

>  <SCORE>
-25.5146

>  <SCORE.INTER>
-34.2374

>  <SCORE.INTER.CONST>
1

>  <SCORE.INTER.POLAR>
-4.25207

>  <SCORE.INTER.ROT>
8

>  <SCORE.INTER.SOLV>
36.3756

>  <SCORE.INTER.VDW>
-29.7099

>  <SCORE.INTER.norm>
-1.06992

>  <SCORE.INTRA>
5.34919

>  <SCORE.INTRA.DIHEDRAL>
1.23509

>  <SCORE.INTRA.DIHEDRAL.0>
76.3625

>  <SCORE.INTRA.POLAR>
0

>  <SCORE.INTRA.POLAR.0>
0

>  <SCORE.INTRA.REPUL>
-0.12705

>  <SCORE.INTRA.REPUL.0>
0.12705

>  <SCORE.INTRA.SOLV>
5.85192

>  <SCORE.INTRA.SOLV.lig_0>
-119.383

>  <SCORE.INTRA.VDW>
2.44093

>  <SCORE.INTRA.VDW.0>
-5.10464

>  <SCORE.INTRA.norm>
0.167162

>  <SCORE.RESTR>
3.37361

>  <SCORE.RESTR.CAVITY>
3.37361

>  <SCORE.RESTR.norm>
0.105425

>  <SCORE.SYSTEM>
0

>  <SCORE.SYSTEM.CONST>
0

>  <SCORE.SYSTEM.DIHEDRAL>
0

>  <SCORE.SYSTEM.SOLV>
0

>  <SCORE.SYSTEM.norm>
0

>  <SCORE.heavy>
32

>  <SCORE.norm>
-0.79733

>  <RMSD>
2.345

$$$$
2au4_lig
 OpenBabel11021811423D
libRbt.so/2013.1/901 2013/11/27
 32 34  0  0  0  0  0  0  0  0999 V2000
   66.1305    8.3850    0.5051 P   0  0  1  0  0  0  0  0  0  0  0  0
   67.8011    9.3222    2.4286 P   0  0  1  0  0  0  0  0  0  0  0  0
   69.9369   10.9074    1.8236 P   0  0  2  0  0  0  0  0  0  0  0  0
   65.2689    6.7220   -1.3718 C   0  0  0  0  0  0  0  0  0  0  0  0
   65.7958    6.9114   -0.0481 O   0  0  0  0  0  0  0  0  0  0  0  0
   66.3415    6.8289   -2.4459 C   0  0  0  0  0  0  0  0  0  0  0  0
   67.5846    7.2895   -1.8775 O   0  0  0  0  0  0  0  0  0  0  0  0
   66.5874    5.4772   -3.0976 C   0  0  0  0  0  0  0  0  0  0  0  0
   66.2361    5.5068   -4.4864 O   0  0  0  0  0  0  0  0  0  0  0  0
   68.0554    5.1738   -2.9153 C   0  0  0  0  0  0  0  0  0  0  0  0
   68.7083    4.9891   -4.1786 O   0  0  0  0  0  0  0  0  0  0  0  0
   68.6473    6.3575   -2.1698 C   0  0  0  0  0  0  0  0  0  0  0  0
   72.7832    4.1686   -0.1279 N   0  0  0  0  0  0  0  0  0  0  0  0
   66.7058    9.1822   -0.5969 O   0  5  0  0  0  0  0  0  0  0  0  0
   66.6278   10.0901    2.8887 O   0  5  0  0  0  0  0  0  0  0  0  0
   70.9355    9.8516    2.0868 O   0  5  0  0  0  0  0  0  0  0  0  0
   72.4979    4.4348   -1.4460 C   0  0  1  0  0  0  0  0  0  0  0  0
   73.4174    4.0736   -2.3310 N   0  0  0  0  0  0  0  0  0  0  0  0
   64.9559    8.8881    1.2489 O   0  0  0  0  0  0  0  0  0  0  0  0
   68.7803    8.8068    3.4079 O   0  0  0  0  0  0  0  0  0  0  0  0
   69.5996   11.8855    2.8789 O   0  0  0  0  0  0  0  0  0  0  0  0
   71.3744    5.0167   -1.8581 N   0  0  0  0  0  0  0  0  0  0  0  0
   67.2856    8.1015    1.5566 O   0  0  0  0  0  0  0  0  0  0  0  0
   68.5858   10.2014    1.3626 O   0  0  0  0  0  0  0  0  0  0  0  0
   70.3827   11.7118    0.5065 O   0  0  0  0  0  0  0  0  0  0  0  0
   70.5474    5.3139   -0.8293 C   0  0  2  0  0  0  0  0  0  0  0  0
   70.7557    5.0822    0.5207 C   0  0  2  0  0  0  0  0  0  0  0  0
   71.9570    4.4613    0.9423 C   0  0  1  0  0  0  0  0  0  0  0  0
   72.2977    4.1593    2.0781 O   0  0  0  0  0  0  0  0  0  0  0  0
   69.6671    5.5302    1.2767 N   0  0  0  0  0  0  0  0  0  0  0  0
   68.8878    5.9931    0.3546 C   0  0  0  0  0  0  0  0  0  0  0  0
   69.3146    5.9139   -0.9304 N   0  0  0  0  0  0  0  0  0  0  0  0
  1  5  1  6  0  0  0
  1 14  1  0  0  0  0
  1 19  2  0  0  0  0
  2 15  1  1  0  0  0
  2 20  2  0  0  0  0
  2 23  1  0  0  0  0
  3 16  1  1  0  0  0
  3 21  2  0  0  0  0
  3 24  1  0  0  0  0
  3 25  1  0  0  0  0
  4  6  1  0  0  0  0
  5  4  1  0  0  0  0
  6  7  1  0  0  0  0
  6  8  2  0  0  0  0
  7 12  1  0  0  0  0
  8  9  1  0  0  0  0
  8 10  1  0  0  0  0
 10 11  1  0  0  0  0
 10 12  2  0  0  0  0
 12 32  1  0  0  0  0
 13 17  1  0  0  0  0
 17 18  1  6  0  0  0
 17 22  1  0  0  0  0
 23  1  1  0  0  0  0
 24  2  1  0  0  0  0
 26 22  1  6  0  0  0
 27 26  1  0  0  0  0
 27 28  1  0  0  0  0
 27 30  1  6  0  0  0
 28 13  1  0  0  0  0
 28 29  1  6  0  0  0
 31 30  1  0  0  0  0
 32 26  1  0  0  0  0
 32 31  1  0  0  0  0
M  CHG  3  14  -1  15  -1  16  -1
M  END
>  <CHROM.1>
-38.43531690,43.54533677,67.14783570,-8.48093461,78.01119962,-162.43493682
-174.48566496,104.23510332,68.76165009,7.43375157,0.09408701,1.93410841,-0.36762818
0.73960690

>  <Name>
2au4_lig

>  <RI>
0

>  <Rbt.Current_Directory>
/home/itssahil/PROJECTS/Mol_Feturizer/New_Systems/rnas/2au4

>  <Rbt.Executable>
rbdock ($Id: //depot/dev/client3/rdock/2013.1/src/exe/rbdock.cxx#4 $)

>  <Rbt.Library>
libRbt.so (2013.1, Build901 2013/11/27)

>  <Rbt.Parameter_File>
/export/apps/rDock/src/rDock_2013.1_src/data/scripts/dock_solv.prm

>  <Rbt.Receptor>
prm/pocket_docking_2.prm

>  <SCORE>
-39.3904

>  <SCORE.INTER>
-29.8228

>  <SCORE.INTER.CONST>
1

>  <SCORE.INTER.POLAR>
-2.83056

>  <SCORE.INTER.ROT>
8

>  <SCORE.INTER.SOLV>
33.7806

>  <SCORE.INTER.VDW>
-30.6402

>  <SCORE.INTER.norm>
-0.931963

>  <SCORE.INTRA>
-10.5249

>  <SCORE.INTRA.DIHEDRAL>
-20.7493

>  <SCORE.INTRA.DIHEDRAL.0>
76.3625

>  <SCORE.INTRA.POLAR>
0

>  <SCORE.INTRA.POLAR.0>
0

>  <SCORE.INTRA.REPUL>
-0.12705

>  <SCORE.INTRA.REPUL.0>
0.12705

>  <SCORE.INTRA.SOLV>
-0.760932

>  <SCORE.INTRA.SOLV.lig_0>
-119.383

>  <SCORE.INTRA.VDW>
0.865534

>  <SCORE.INTRA.VDW.0>
-5.10464

>  <SCORE.INTRA.norm>
-0.328902

>  <SCORE.RESTR>
0.957323

>  <SCORE.RESTR.CAVITY>
0.957323

>  <SCORE.RESTR.norm>
0.0299163

>  <SCORE.SYSTEM>
0

>  <SCORE.SYSTEM.CONST>
0

>  <SCORE.SYSTEM.DIHEDRAL>
0

>  <SCORE.SYSTEM.SOLV>
0

>  <SCORE.SYSTEM.norm>
0

>  <SCORE.heavy>
32

>  <SCORE.norm>
-1.23095

>  <RMSD>
2.381

$$$$
2au4_lig
 OpenBabel11021811423D
libRbt.so/2013.1/901 2013/11/27
 32 34  0  0  0  0  0  0  0  0999 V2000
   66.2285    8.2379    0.4493 P   0  0  1  0  0  0  0  0  0  0  0  0
   68.0210    9.0113    2.3356 P   0  0  1  0  0  0  0  0  0  0  0  0
   69.2558   11.3428    1.6428 P   0  0  2  0  0  0  0  0  0  0  0  0
   65.3065    6.7356   -1.5315 C   0  0  0  0  0  0  0  0  0  0  0  0
   65.8447    6.8170   -0.2013 O   0  0  0  0  0  0  0  0  0  0  0  0
   66.3866    6.8035   -2.6013 C   0  0  0  0  0  0  0  0  0  0  0  0
   67.6304    7.2680   -2.0378 O   0  0  0  0  0  0  0  0  0  0  0  0
   66.6238    5.4324   -3.2147 C   0  0  0  0  0  0  0  0  0  0  0  0
   66.2813    5.4276   -4.6059 O   0  0  0  0  0  0  0  0  0  0  0  0
   68.0879    5.1208   -3.0151 C   0  0  0  0  0  0  0  0  0  0  0  0
   68.7466    4.8959   -4.2687 O   0  0  0  0  0  0  0  0  0  0  0  0
   68.6862    6.3188   -2.2981 C   0  0  0  0  0  0  0  0  0  0  0  0
   72.8048    4.1807   -0.1693 N   0  0  0  0  0  0  0  0  0  0  0  0
   66.8481    9.0810   -0.5929 O   0  5  0  0  0  0  0  0  0  0  0  0
   66.9890    9.5857    3.2205 O   0  5  0  0  0  0  0  0  0  0  0  0
   70.6304   10.8690    1.9022 O   0  5  0  0  0  0  0  0  0  0  0  0
   72.5322    4.4182   -1.4956 C   0  0  1  0  0  0  0  0  0  0  0  0
   73.4608    4.0397   -2.3635 N   0  0  0  0  0  0  0  0  0  0  0  0
   65.0646    8.7378    1.2119 O   0  0  0  0  0  0  0  0  0  0  0  0
   69.2880    8.5067    2.9045 O   0  0  0  0  0  0  0  0  0  0  0  0
   68.5183   12.0807    2.6895 O   0  0  0  0  0  0  0  0  0  0  0  0
   71.4120    4.9894   -1.9310 N   0  0  0  0  0  0  0  0  0  0  0  0
   67.3583    7.8426    1.4922 O   0  0  0  0  0  0  0  0  0  0  0  0
   68.3748   10.0854    1.2192 O   0  0  0  0  0  0  0  0  0  0  0  0
   69.2687   12.2321    0.3050 O   0  0  0  0  0  0  0  0  0  0  0  0
   70.5745    5.3072   -0.9170 C   0  0  2  0  0  0  0  0  0  0  0  0
   70.7697    5.1047    0.4397 C   0  0  2  0  0  0  0  0  0  0  0  0
   71.9677    4.4950    0.8862 C   0  0  1  0  0  0  0  0  0  0  0  0
   72.2976    4.2179    2.0316 O   0  0  0  0  0  0  0  0  0  0  0  0
   69.6731    5.5671    1.1752 N   0  0  0  0  0  0  0  0  0  0  0  0
   68.9023    6.0089    0.2358 C   0  0  0  0  0  0  0  0  0  0  0  0
   69.3418    5.9028   -1.0430 N   0  0  0  0  0  0  0  0  0  0  0  0
  1  5  1  6  0  0  0
  1 14  1  0  0  0  0
  1 19  2  0  0  0  0
  2 15  1  1  0  0  0
  2 20  2  0  0  0  0
  2 23  1  0  0  0  0
  3 16  1  1  0  0  0
  3 21  2  0  0  0  0
  3 24  1  0  0  0  0
  3 25  1  0  0  0  0
  4  6  1  0  0  0  0
  5  4  1  0  0  0  0
  6  7  1  0  0  0  0
  6  8  2  0  0  0  0
  7 12  1  0  0  0  0
  8  9  1  0  0  0  0
  8 10  1  0  0  0  0
 10 11  1  0  0  0  0
 10 12  2  0  0  0  0
 12 32  1  0  0  0  0
 13 17  1  0  0  0  0
 17 18  1  6  0  0  0
 17 22  1  0  0  0  0
 23  1  1  0  0  0  0
 24  2  1  0  0  0  0
 26 22  1  6  0  0  0
 27 26  1  0  0  0  0
 27 28  1  0  0  0  0
 27 30  1  6  0  0  0
 28 13  1  0  0  0  0
 28 29  1  6  0  0  0
 31 30  1  0  0  0  0
 32 26  1  0  0  0  0
 32 31  1  0  0  0  0
M  CHG  3  14  -1  15  -1  16  -1
M  END
>  <CHROM.1>
-39.50556194,65.73896723,70.66953962,-14.53711814,81.22800672,-161.70933379
178.99226560,74.25901504,68.70902775,7.43186326,-0.01010876,1.95613592,-0.41893723
0.73531558

>  <Name>
2au4_lig

>  <RI>
0

>  <Rbt.Current_Directory>
/home/itssahil/PROJECTS/Mol_Feturizer/New_Systems/rnas/2au4

>  <Rbt.Executable>
rbdock ($Id: //depot/dev/client3/rdock/2013.1/src/exe/rbdock.cxx#4 $)

>  <Rbt.Library>
libRbt.so (2013.1, Build901 2013/11/27)

>  <Rbt.Parameter_File>
/export/apps/rDock/src/rDock_2013.1_src/data/scripts/dock_solv.prm

>  <Rbt.Receptor>
prm/pocket_docking_2.prm

>  <SCORE>
-41.8827

>  <SCORE.INTER>
-33.0476

>  <SCORE.INTER.CONST>
1

>  <SCORE.INTER.POLAR>
-3.41492

>  <SCORE.INTER.ROT>
8

>  <SCORE.INTER.SOLV>
32.5416

>  <SCORE.INTER.VDW>
-30.4292

>  <SCORE.INTER.norm>
-1.03274

>  <SCORE.INTRA>
-9.82272

>  <SCORE.INTRA.DIHEDRAL>
-21.1711

>  <SCORE.INTRA.DIHEDRAL.0>
76.3625

>  <SCORE.INTRA.POLAR>
0

>  <SCORE.INTRA.POLAR.0>
0

>  <SCORE.INTRA.REPUL>
-0.0970566

>  <SCORE.INTRA.REPUL.0>
0.12705

>  <SCORE.INTRA.SOLV>
0.774037

>  <SCORE.INTRA.SOLV.lig_0>
-119.383

>  <SCORE.INTRA.VDW>
0.861096

>  <SCORE.INTRA.VDW.0>
-5.10464

>  <SCORE.INTRA.norm>
-0.30696

>  <SCORE.RESTR>
0.987551

>  <SCORE.RESTR.CAVITY>
0.987551

>  <SCORE.RESTR.norm>
0.030861

>  <SCORE.SYSTEM>
0

>  <SCORE.SYSTEM.CONST>
0

>  <SCORE.SYSTEM.DIHEDRAL>
0

>  <SCORE.SYSTEM.SOLV>
0

>  <SCORE.SYSTEM.norm>
0

>  <SCORE.heavy>
32

>  <SCORE.norm>
-1.30884

>  <RMSD>
2.411

$$$$
2au4_lig
 OpenBabel11021811423D
libRbt.so/2013.1/901 2013/11/27
 32 34  0  0  0  0  0  0  0  0999 V2000
   65.1381    8.5892   -0.6331 P   0  0  1  0  0  0  0  0  0  0  0  0
   66.4561   10.2653    1.0472 P   0  0  1  0  0  0  0  0  0  0  0  0
   67.9279    9.7838    3.2928 P   0  0  2  0  0  0  0  0  0  0  0  0
   66.0919    6.1336   -0.9338 C   0  0  0  0  0  0  0  0  0  0  0  0
   64.9635    6.9907   -0.6936 O   0  0  0  0  0  0  0  0  0  0  0  0
   66.8397    6.4992   -2.2076 C   0  0  0  0  0  0  0  0  0  0  0  0
   68.1976    6.8811   -1.9070 O   0  0  0  0  0  0  0  0  0  0  0  0
   66.8776    5.3199   -3.1670 C   0  0  0  0  0  0  0  0  0  0  0  0
   66.1680    5.6197   -4.3751 O   0  0  0  0  0  0  0  0  0  0  0  0
   68.3351    5.0424   -3.4481 C   0  0  0  0  0  0  0  0  0  0  0  0
   68.6225    5.1454   -4.8491 O   0  0  0  0  0  0  0  0  0  0  0  0
   69.1262    6.0703   -2.6578 C   0  0  0  0  0  0  0  0  0  0  0  0
   70.5172    5.1976    2.1765 N   0  0  0  0  0  0  0  0  0  0  0  0
   65.9588    9.0172   -1.7837 O   0  5  0  0  0  0  0  0  0  0  0  0
   66.6559   11.0108   -0.2107 O   0  5  0  0  0  0  0  0  0  0  0  0
   67.4643   11.0146    3.9648 O   0  5  0  0  0  0  0  0  0  0  0  0
   69.4621    5.9334    1.6916 C   0  0  1  0  0  0  0  0  0  0  0  0
   68.6836    6.5116    2.5963 N   0  0  0  0  0  0  0  0  0  0  0  0
   63.8120    9.2004   -0.4005 O   0  0  0  0  0  0  0  0  0  0  0  0
   65.5381   10.7874    2.0807 O   0  0  0  0  0  0  0  0  0  0  0  0
   69.2537    9.2181    3.6185 O   0  0  0  0  0  0  0  0  0  0  0  0
   69.1998    6.0877    0.3962 N   0  0  0  0  0  0  0  0  0  0  0  0
   66.0022    8.7894    0.6836 O   0  0  0  0  0  0  0  0  0  0  0  0
   67.8767   10.0338    1.7207 O   0  0  0  0  0  0  0  0  0  0  0  0
   66.8196    8.6405    3.5051 O   0  0  0  0  0  0  0  0  0  0  0  0
   70.0923    5.4374   -0.3856 C   0  0  2  0  0  0  0  0  0  0  0  0
   71.1782    4.6774    0.0181 C   0  0  2  0  0  0  0  0  0  0  0  0
   71.4435    4.5237    1.4010 C   0  0  1  0  0  0  0  0  0  0  0  0
   72.3615    3.9158    1.9351 O   0  0  0  0  0  0  0  0  0  0  0  0
   71.8667    4.1660   -1.0872 N   0  0  0  0  0  0  0  0  0  0  0  0
   71.1680    4.6403   -2.0664 C   0  0  0  0  0  0  0  0  0  0  0  0
   70.0928    5.4084   -1.7601 N   0  0  0  0  0  0  0  0  0  0  0  0
  1  5  1  6  0  0  0
  1 14  1  0  0  0  0
  1 19  2  0  0  0  0
  2 15  1  6  0  0  0
  2 20  2  0  0  0  0
  2 23  1  0  0  0  0
  3 16  1  1  0  0  0
  3 21  2  0  0  0  0
  3 24  1  0  0  0  0
  3 25  1  0  0  0  0
  4  6  1  0  0  0  0
  5  4  1  0  0  0  0
  6  7  1  0  0  0  0
  6  8  2  0  0  0  0
  7 12  1  0  0  0  0
  8  9  1  0  0  0  0
  8 10  1  0  0  0  0
 10 11  1  0  0  0  0
 10 12  2  0  0  0  0
 12 32  1  0  0  0  0
 13 17  1  0  0  0  0
 17 18  1  6  0  0  0
 17 22  1  0  0  0  0
 23  1  1  0  0  0  0
 24  2  1  0  0  0  0
 26 22  1  6  0  0  0
 27 26  1  0  0  0  0
 27 28  1  0  0  0  0
 27 30  1  6  0  0  0
 28 13  1  0  0  0  0
 28 29  1  6  0  0  0
 31 30  1  0  0  0  0
 32 26  1  0  0  0  0
 32 31  1  0  0  0  0
M  CHG  3  14  -1  15  -1  16  -1
M  END
>  <CHROM.1>
46.72825798,-31.88070688,-65.07012406,118.44053652,-54.81287113,4.91099322
176.75724023,156.53281945,67.90257505,7.42541594,0.10765883,2.24145128,-0.63197695
1.01159868

>  <Name>
2au4_lig

>  <RI>
0

>  <Rbt.Current_Directory>
/home/itssahil/PROJECTS/Mol_Feturizer/New_Systems/rnas/2au4

>  <Rbt.Executable>
rbdock ($Id: //depot/dev/client3/rdock/2013.1/src/exe/rbdock.cxx#4 $)

>  <Rbt.Library>
libRbt.so (2013.1, Build901 2013/11/27)

>  <Rbt.Parameter_File>
/export/apps/rDock/src/rDock_2013.1_src/data/scripts/dock_solv.prm

>  <Rbt.Receptor>
prm/pocket_docking_2.prm

>  <SCORE>
-39.65

>  <SCORE.INTER>
-25.9076

>  <SCORE.INTER.CONST>
1

>  <SCORE.INTER.POLAR>
-1.249

>  <SCORE.INTER.ROT>
8

>  <SCORE.INTER.SOLV>
25.8527

>  <SCORE.INTER.VDW>
-30.6593

>  <SCORE.INTER.norm>
-0.809611

>  <SCORE.INTRA>
-15.5453

>  <SCORE.INTRA.DIHEDRAL>
-32.7824

>  <SCORE.INTRA.DIHEDRAL.0>
76.3625

>  <SCORE.INTRA.POLAR>
0

>  <SCORE.INTRA.POLAR.0>
0

>  <SCORE.INTRA.REPUL>
-0.0221364

>  <SCORE.INTRA.REPUL.0>
0.12705

>  <SCORE.INTRA.SOLV>
0.793793

>  <SCORE.INTRA.SOLV.lig_0>
-119.383

>  <SCORE.INTRA.VDW>
0.559722

>  <SCORE.INTRA.VDW.0>
-5.10464

>  <SCORE.INTRA.norm>
-0.48579

>  <SCORE.RESTR>
1.80284

>  <SCORE.RESTR.CAVITY>
1.80284

>  <SCORE.RESTR.norm>
0.0563389

>  <SCORE.SYSTEM>
0

>  <SCORE.SYSTEM.CONST>
0

>  <SCORE.SYSTEM.DIHEDRAL>
0

>  <SCORE.SYSTEM.SOLV>
0

>  <SCORE.SYSTEM.norm>
0

>  <SCORE.heavy>
32

>  <SCORE.norm>
-1.23906

>  <RMSD>
2.481

$$$$
2au4_lig
 OpenBabel11021811423D
libRbt.so/2013.1/901 2013/11/27
 32 34  0  0  0  0  0  0  0  0999 V2000
   65.4667    8.9638    0.1477 P   0  0  1  0  0  0  0  0  0  0  0  0
   67.0209    9.5460    2.2959 P   0  0  1  0  0  0  0  0  0  0  0  0
   69.5464   10.3243    1.6201 P   0  0  2  0  0  0  0  0  0  0  0  0
   65.6953    7.3569   -1.9490 C   0  0  0  0  0  0  0  0  0  0  0  0
   66.2912    7.9363   -0.7764 O   0  0  0  0  0  0  0  0  0  0  0  0
   66.7237    7.0220   -3.0194 C   0  0  0  0  0  0  0  0  0  0  0  0
   68.0570    7.3072   -2.5490 O   0  0  0  0  0  0  0  0  0  0  0  0
   66.6543    5.5490   -3.3907 C   0  0  0  0  0  0  0  0  0  0  0  0
   66.2632    5.3837   -4.7591 O   0  0  0  0  0  0  0  0  0  0  0  0
   68.0317    4.9799   -3.1472 C   0  0  0  0  0  0  0  0  0  0  0  0
   68.5813    4.4190   -4.3469 O   0  0  0  0  0  0  0  0  0  0  0  0
   68.8878    6.1310   -2.6480 C   0  0  0  0  0  0  0  0  0  0  0  0
   72.9325    4.1778   -0.2208 N   0  0  0  0  0  0  0  0  0  0  0  0
   65.9274   10.3356   -0.1465 O   0  5  0  0  0  0  0  0  0  0  0  0
   66.4146   10.8854    2.4238 O   0  5  0  0  0  0  0  0  0  0  0  0
   70.1825    9.5000    2.6676 O   0  5  0  0  0  0  0  0  0  0  0  0
   72.7127    4.3269   -1.5695 C   0  0  1  0  0  0  0  0  0  0  0  0
   73.6792    3.9034   -2.3730 N   0  0  0  0  0  0  0  0  0  0  0  0
   64.0291    8.6297    0.0586 O   0  0  0  0  0  0  0  0  0  0  0  0
   67.5587    8.8587    3.4884 O   0  0  0  0  0  0  0  0  0  0  0  0
   69.2662   11.7532    1.8722 O   0  0  0  0  0  0  0  0  0  0  0  0
   71.6068    4.8570   -2.0859 N   0  0  0  0  0  0  0  0  0  0  0  0
   65.9631    8.5851    1.6073 O   0  0  0  0  0  0  0  0  0  0  0  0
   68.1768    9.6235    1.2082 O   0  0  0  0  0  0  0  0  0  0  0  0
   70.4217   10.2054    0.2783 O   0  0  0  0  0  0  0  0  0  0  0  0
   70.7259    5.2302   -1.1292 C   0  0  2  0  0  0  0  0  0  0  0  0
   70.8668    5.1172    0.2445 C   0  0  2  0  0  0  0  0  0  0  0  0
   72.0503    4.5502    0.7775 C   0  0  1  0  0  0  0  0  0  0  0  0
   72.3352    4.3506    1.9508 O   0  0  0  0  0  0  0  0  0  0  0  0
   69.7373    5.6141    0.9037 N   0  0  0  0  0  0  0  0  0  0  0  0
   69.0021    5.9865   -0.0927 C   0  0  0  0  0  0  0  0  0  0  0  0
   69.4947    5.8034   -1.3432 N   0  0  0  0  0  0  0  0  0  0  0  0
  1  5  1  6  0  0  0
  1 14  1  0  0  0  0
  1 19  2  0  0  0  0
  2 15  1  1  0  0  0
  2 20  2  0  0  0  0
  2 23  1  0  0  0  0
  3 16  1  1  0  0  0
  3 21  2  0  0  0  0
  3 24  1  0  0  0  0
  3 25  1  0  0  0  0
  4  6  1  0  0  0  0
  5  4  1  0  0  0  0
  6  7  1  0  0  0  0
  6  8  2  0  0  0  0
  7 12  1  0  0  0  0
  8  9  1  0  0  0  0
  8 10  1  0  0  0  0
 10 11  1  0  0  0  0
 10 12  2  0  0  0  0
 12 32  1  0  0  0  0
 13 17  1  0  0  0  0
 17 18  1  6  0  0  0
 17 22  1  0  0  0  0
 23  1  1  0  0  0  0
 24  2  1  0  0  0  0
 26 22  1  6  0  0  0
 27 26  1  0  0  0  0
 27 28  1  0  0  0  0
 27 30  1  6  0  0  0
 28 13  1  0  0  0  0
 28 29  1  6  0  0  0
 31 30  1  0  0  0  0
 32 26  1  0  0  0  0
 32 31  1  0  0  0  0
M  CHG  3  14  -1  15  -1  16  -1
M  END
>  <CHROM.1>
-102.61177297,60.81264140,65.78915260,3.19039880,151.14028191,-147.45591425
102.99160030,75.07294279,68.56528921,7.45544173,-0.18492357,2.23061487,-0.42494948
0.84443578

>  <Name>
2au4_lig

>  <RI>
0

>  <Rbt.Current_Directory>
/home/itssahil/PROJECTS/Mol_Feturizer/New_Systems/rnas/2au4

>  <Rbt.Executable>
rbdock ($Id: //depot/dev/client3/rdock/2013.1/src/exe/rbdock.cxx#4 $)

>  <Rbt.Library>
libRbt.so (2013.1, Build901 2013/11/27)

>  <Rbt.Parameter_File>
/export/apps/rDock/src/rDock_2013.1_src/data/scripts/dock_solv.prm

>  <Rbt.Receptor>
prm/pocket_docking_2.prm

>  <SCORE>
-33.898

>  <SCORE.INTER>
-30.3323

>  <SCORE.INTER.CONST>
1

>  <SCORE.INTER.POLAR>
-3.23874

>  <SCORE.INTER.ROT>
8

>  <SCORE.INTER.SOLV>
35.1872

>  <SCORE.INTER.VDW>
-30.0881

>  <SCORE.INTER.norm>
-0.947884

>  <SCORE.INTRA>
-5.21018

>  <SCORE.INTRA.DIHEDRAL>
-6.29166

>  <SCORE.INTRA.DIHEDRAL.0>
76.3625

>  <SCORE.INTRA.POLAR>
0

>  <SCORE.INTRA.POLAR.0>
0

>  <SCORE.INTRA.REPUL>
-0.12705

>  <SCORE.INTRA.REPUL.0>
0.12705

>  <SCORE.INTRA.SOLV>
-4.88118

>  <SCORE.INTRA.SOLV.lig_0>
-119.383

>  <SCORE.INTRA.VDW>
1.01149

>  <SCORE.INTRA.VDW.0>
-5.10464

>  <SCORE.INTRA.norm>
-0.162818

>  <SCORE.RESTR>
1.64448

>  <SCORE.RESTR.CAVITY>
1.64448

>  <SCORE.RESTR.norm>
0.05139

>  <SCORE.SYSTEM>
0

>  <SCORE.SYSTEM.CONST>
0

>  <SCORE.SYSTEM.DIHEDRAL>
0

>  <SCORE.SYSTEM.SOLV>
0

>  <SCORE.SYSTEM.norm>
0

>  <SCORE.heavy>
32

>  <SCORE.norm>
-1.05931

>  <RMSD>
2.481

$$$$
2au4_lig
 OpenBabel11021811423D
libRbt.so/2013.1/901 2013/11/27
 32 34  0  0  0  0  0  0  0  0999 V2000
   68.2487   10.7350   -1.0646 P   0  0  1  0  0  0  0  0  0  0  0  0
   69.4792   10.3909    1.3306 P   0  0  1  0  0  0  0  0  0  0  0  0
   67.7551    9.7649    3.3496 P   0  0  2  0  0  0  0  0  0  0  0  0
   67.3906    8.2367   -0.8350 C   0  0  0  0  0  0  0  0  0  0  0  0
   67.0936    9.6428   -0.8155 O   0  0  0  0  0  0  0  0  0  0  0  0
   67.7418    7.7355   -2.2282 C   0  0  0  0  0  0  0  0  0  0  0  0
   69.1622    7.5139   -2.3446 O   0  0  0  0  0  0  0  0  0  0  0  0
   67.0292    6.4251   -2.5244 C   0  0  0  0  0  0  0  0  0  0  0  0
   66.1102    6.5768   -3.6131 O   0  0  0  0  0  0  0  0  0  0  0  0
   68.1041    5.4182   -2.8576 C   0  0  0  0  0  0  0  0  0  0  0  0
   67.9177    4.8753   -4.1716 O   0  0  0  0  0  0  0  0  0  0  0  0
   69.4274    6.1579   -2.7620 C   0  0  0  0  0  0  0  0  0  0  0  0
   70.4582    5.1401    2.1338 N   0  0  0  0  0  0  0  0  0  0  0  0
   68.6188   10.7113   -2.4940 O   0  5  0  0  0  0  0  0  0  0  0  0
   70.6046    9.6322    1.9102 O   0  5  0  0  0  0  0  0  0  0  0  0
   66.9894   11.0045    3.5910 O   0  5  0  0  0  0  0  0  0  0  0  0
   69.4279    5.8721    1.5931 C   0  0  1  0  0  0  0  0  0  0  0  0
   68.5689    6.4023    2.4534 N   0  0  0  0  0  0  0  0  0  0  0  0
   67.8435   12.0050   -0.4250 O   0  0  0  0  0  0  0  0  0  0  0  0
   69.3666   11.8454    1.5655 O   0  0  0  0  0  0  0  0  0  0  0  0
   68.9884    9.4962    4.1182 O   0  0  0  0  0  0  0  0  0  0  0  0
   69.2634    6.0675    0.2872 N   0  0  0  0  0  0  0  0  0  0  0  0
   69.4656   10.1411   -0.2359 O   0  0  0  0  0  0  0  0  0  0  0  0
   68.1232    9.7088    1.8010 O   0  0  0  0  0  0  0  0  0  0  0  0
   66.7634    8.5130    3.5226 O   0  0  0  0  0  0  0  0  0  0  0  0
   70.2281    5.4630   -0.4440 C   0  0  2  0  0  0  0  0  0  0  0  0
   71.2960    4.7104    0.0173 C   0  0  2  0  0  0  0  0  0  0  0  0
   71.4565    4.5125    1.4106 C   0  0  1  0  0  0  0  0  0  0  0  0
   72.3436    3.9039    1.9940 O   0  0  0  0  0  0  0  0  0  0  0  0
   72.0793    4.2523   -1.0475 N   0  0  0  0  0  0  0  0  0  0  0  0
   71.4483    4.7476   -2.0616 C   0  0  0  0  0  0  0  0  0  0  0  0
   70.3358    5.4832   -1.8145 N   0  0  0  0  0  0  0  0  0  0  0  0
  1  5  1  1  0  0  0
  1 14  1  0  0  0  0
  1 19  2  0  0  0  0
  2 15  1  1  0  0  0
  2 20  2  0  0  0  0
  2 23  1  0  0  0  0
  3 16  1  1  0  0  0
  3 21  2  0  0  0  0
  3 24  1  0  0  0  0
  3 25  1  0  0  0  0
  4  6  1  0  0  0  0
  5  4  1  0  0  0  0
  6  7  1  0  0  0  0
  6  8  2  0  0  0  0
  7 12  1  0  0  0  0
  8  9  1  0  0  0  0
  8 10  1  0  0  0  0
 10 11  1  0  0  0  0
 10 12  2  0  0  0  0
 12 32  1  0  0  0  0
 13 17  1  0  0  0  0
 17 18  1  1  0  0  0
 17 22  1  0  0  0  0
 23  1  1  0  0  0  0
 24  2  1  0  0  0  0
 26 22  1  1  0  0  0
 27 26  1  0  0  0  0
 27 28  1  0  0  0  0
 27 30  1  1  0  0  0
 28 13  1  0  0  0  0
 28 29  1  1  0  0  0
 31 30  1  0  0  0  0
 32 26  1  0  0  0  0
 32 31  1  0  0  0  0
M  CHG  3  14  -1  15  -1  16  -1
M  END
>  <CHROM.1>
72.51085752,173.78657573,89.02400361,104.76423164,-69.30244903,47.83184165
-80.71077461,66.44189131,68.95723638,7.97439870,0.15327166,2.11993627,-1.04248069
1.02982022

>  <Name>
2au4_lig

>  <RI>
0

>  <Rbt.Current_Directory>
/home/itssahil/PROJECTS/Mol_Feturizer/New_Systems/rnas/2au4

>  <Rbt.Executable>
rbdock ($Id: //depot/dev/client3/rdock/2013.1/src/exe/rbdock.cxx#4 $)

>  <Rbt.Library>
libRbt.so (2013.1, Build901 2013/11/27)

>  <Rbt.Parameter_File>
/export/apps/rDock/src/rDock_2013.1_src/data/scripts/dock_solv.prm

>  <Rbt.Receptor>
prm/pocket_docking_2.prm

>  <SCORE>
-30.484

>  <SCORE.INTER>
-30.914

>  <SCORE.INTER.CONST>
1

>  <SCORE.INTER.POLAR>
-2.52022

>  <SCORE.INTER.ROT>
8

>  <SCORE.INTER.SOLV>
30.3964

>  <SCORE.INTER.VDW>
-31.2741

>  <SCORE.INTER.norm>
-0.966064

>  <SCORE.INTRA>
-1.12094

>  <SCORE.INTRA.DIHEDRAL>
-2.6649

>  <SCORE.INTRA.DIHEDRAL.0>
76.3625

>  <SCORE.INTRA.POLAR>
0

>  <SCORE.INTRA.POLAR.0>
0

>  <SCORE.INTRA.REPUL>
0.00588428

>  <SCORE.INTRA.REPUL.0>
0.12705

>  <SCORE.INTRA.SOLV>
2.77069

>  <SCORE.INTRA.SOLV.lig_0>
-119.383

>  <SCORE.INTRA.VDW>
-1.20326

>  <SCORE.INTRA.VDW.0>
-5.10464

>  <SCORE.INTRA.norm>
-0.0350295

>  <SCORE.RESTR>
1.55101

>  <SCORE.RESTR.CAVITY>
1.55101

>  <SCORE.RESTR.norm>
0.048469

>  <SCORE.SYSTEM>
0

>  <SCORE.SYSTEM.CONST>
0

>  <SCORE.SYSTEM.DIHEDRAL>
0

>  <SCORE.SYSTEM.SOLV>
0

>  <SCORE.SYSTEM.norm>
0

>  <SCORE.heavy>
32

>  <SCORE.norm>
-0.952624

>  <RMSD>
2.523

$$$$
2au4_lig
 OpenBabel11021811423D
libRbt.so/2013.1/901 2013/11/27
 32 34  0  0  0  0  0  0  0  0999 V2000
   67.2947   10.5877    0.0986 P   0  0  1  0  0  0  0  0  0  0  0  0
   67.8226    8.7714    2.0459 P   0  0  1  0  0  0  0  0  0  0  0  0
   69.8690    9.7507    3.5604 P   0  0  2  0  0  0  0  0  0  0  0  0
   68.2151    9.4853   -2.1303 C   0  0  0  0  0  0  0  0  0  0  0  0
   67.5177   10.5695   -1.4949 O   0  0  0  0  0  0  0  0  0  0  0  0
   67.3224    8.2747   -2.3605 C   0  0  0  0  0  0  0  0  0  0  0  0
   68.0872    7.1742   -2.8937 O   0  0  0  0  0  0  0  0  0  0  0  0
   66.6816    7.8226   -1.0576 C   0  0  0  0  0  0  0  0  0  0  0  0
   65.2565    7.9606   -1.1129 O   0  0  0  0  0  0  0  0  0  0  0  0
   67.0801    6.3793   -0.8618 C   0  0  0  0  0  0  0  0  0  0  0  0
   65.9283    5.5296   -0.7763 O   0  0  0  0  0  0  0  0  0  0  0  0
   67.9383    6.0066   -2.0584 C   0  0  0  0  0  0  0  0  0  0  0  0
   70.9276    4.8380    1.9122 N   0  0  0  0  0  0  0  0  0  0  0  0
   67.9897   11.7645    0.6580 O   0  5  0  0  0  0  0  0  0  0  0  0
   67.1533    9.8465    2.8037 O   0  5  0  0  0  0  0  0  0  0  0  0
   71.3215    9.5321    3.7139 O   0  5  0  0  0  0  0  0  0  0  0  0
   69.6443    5.3305    1.9016 C   0  0  1  0  0  0  0  0  0  0  0  0
   69.0866    5.5435    3.0859 N   0  0  0  0  0  0  0  0  0  0  0  0
   65.8583   10.3737    0.3767 O   0  0  0  0  0  0  0  0  0  0  0  0
   67.2085    7.4299    1.9630 O   0  0  0  0  0  0  0  0  0  0  0  0
   69.0023    9.8257    4.7550 O   0  0  0  0  0  0  0  0  0  0  0  0
   68.9621    5.5971    0.7906 N   0  0  0  0  0  0  0  0  0  0  0  0
   68.0784    9.2895    0.5686 O   0  0  0  0  0  0  0  0  0  0  0  0
   69.2973    8.6045    2.6138 O   0  0  0  0  0  0  0  0  0  0  0  0
   69.6445   11.0779    2.6835 O   0  0  0  0  0  0  0  0  0  0  0  0
   69.6791    5.3277   -0.3247 C   0  0  2  0  0  0  0  0  0  0  0  0
   70.9705    4.8321   -0.4039 C   0  0  2  0  0  0  0  0  0  0  0  0
   71.6828    4.5541    0.7884 C   0  0  1  0  0  0  0  0  0  0  0  0
   72.8278    4.1399    0.9100 O   0  0  0  0  0  0  0  0  0  0  0  0
   71.3679    4.6882   -1.7376 N   0  0  0  0  0  0  0  0  0  0  0  0
   70.3140    5.0981   -2.3647 C   0  0  0  0  0  0  0  0  0  0  0  0
   69.2539    5.5007   -1.6206 N   0  0  0  0  0  0  0  0  0  0  0  0
  1  5  1  6  0  0  0
  1 14  1  0  0  0  0
  1 19  2  0  0  0  0
  2 15  1  1  0  0  0
  2 20  2  0  0  0  0
  2 23  1  0  0  0  0
  3 16  1  1  0  0  0
  3 21  2  0  0  0  0
  3 24  1  0  0  0  0
  3 25  1  0  0  0  0
  4  6  1  0  0  0  0
  5  4  1  0  0  0  0
  6  7  1  0  0  0  0
  6  8  2  0  0  0  0
  7 12  1  0  0  0  0
  8  9  1  0  0  0  0
  8 10  1  0  0  0  0
 10 11  1  0  0  0  0
 10 12  2  0  0  0  0
 12 32  1  0  0  0  0
 13 17  1  0  0  0  0
 17 18  1  1  0  0  0
 17 22  1  0  0  0  0
 23  1  1  0  0  0  0
 24  2  1  0  0  0  0
 26 22  1  1  0  0  0
 27 26  1  0  0  0  0
 27 28  1  0  0  0  0
 27 30  1  1  0  0  0
 28 13  1  0  0  0  0
 28 29  1  1  0  0  0
 31 30  1  0  0  0  0
 32 26  1  0  0  0  0
 32 31  1  0  0  0  0
M  CHG  3  14  -1  15  -1  16  -1
M  END
>  <CHROM.1>
117.57961034,-15.06271902,-167.73898085,-175.11879294,81.37491429,122.46800622
-166.37775704,-13.72488184,68.67037502,7.85372373,0.64720487,2.09175902,-0.80081896
0.80443762

>  <Name>
2au4_lig

>  <RI>
0

>  <Rbt.Current_Directory>
/home/itssahil/PROJECTS/Mol_Feturizer/New_Systems/rnas/2au4

>  <Rbt.Executable>
rbdock ($Id: //depot/dev/client3/rdock/2013.1/src/exe/rbdock.cxx#4 $)

>  <Rbt.Library>
libRbt.so (2013.1, Build901 2013/11/27)

>  <Rbt.Parameter_File>
/export/apps/rDock/src/rDock_2013.1_src/data/scripts/dock_solv.prm

>  <Rbt.Receptor>
prm/pocket_docking_2.prm

>  <SCORE>
-32.444

>  <SCORE.INTER>
-24.4419

>  <SCORE.INTER.CONST>
1

>  <SCORE.INTER.POLAR>
-3.11857

>  <SCORE.INTER.ROT>
8

>  <SCORE.INTER.SOLV>
28.9991

>  <SCORE.INTER.VDW>
-24.499

>  <SCORE.INTER.norm>
-0.763808

>  <SCORE.INTRA>
-12.7181

>  <SCORE.INTRA.DIHEDRAL>
-31.6591

>  <SCORE.INTRA.DIHEDRAL.0>
76.3625

>  <SCORE.INTRA.POLAR>
0

>  <SCORE.INTRA.POLAR.0>
0

>  <SCORE.INTRA.REPUL>
-0.109186

>  <SCORE.INTRA.REPUL.0>
0.12705

>  <SCORE.INTRA.SOLV>
6.36352

>  <SCORE.INTRA.SOLV.lig_0>
-119.383

>  <SCORE.INTRA.VDW>
0.475559

>  <SCORE.INTRA.VDW.0>
-5.10464

>  <SCORE.INTRA.norm>
-0.397442

>  <SCORE.RESTR>
4.71601

>  <SCORE.RESTR.CAVITY>
4.71601

>  <SCORE.RESTR.norm>
0.147375

>  <SCORE.SYSTEM>
0

>  <SCORE.SYSTEM.CONST>
0

>  <SCORE.SYSTEM.DIHEDRAL>
0

>  <SCORE.SYSTEM.SOLV>
0

>  <SCORE.SYSTEM.norm>
0

>  <SCORE.heavy>
32

>  <SCORE.norm>
-1.01387

>  <RMSD>
2.540

$$$$
2au4_lig
 OpenBabel11021811423D
libRbt.so/2013.1/901 2013/11/27
 32 34  0  0  0  0  0  0  0  0999 V2000
   65.9896    8.8788    0.5358 P   0  0  1  0  0  0  0  0  0  0  0  0
   67.1834   10.6652    2.1950 P   0  0  1  0  0  0  0  0  0  0  0  0
   69.8553   10.8560    1.6803 P   0  0  2  0  0  0  0  0  0  0  0  0
   67.6090    9.5265   -1.4614 C   0  0  0  0  0  0  0  0  0  0  0  0
   67.4520    9.1058   -0.0961 O   0  0  0  0  0  0  0  0  0  0  0  0
   67.6029    8.3570   -2.4350 C   0  0  0  0  0  0  0  0  0  0  0  0
   68.8204    7.5927   -2.3177 O   0  0  0  0  0  0  0  0  0  0  0  0
   66.4298    7.4304   -2.1562 C   0  0  0  0  0  0  0  0  0  0  0  0
   65.5239    7.4030   -3.2659 O   0  0  0  0  0  0  0  0  0  0  0  0
   67.0154    6.0624   -1.8996 C   0  0  0  0  0  0  0  0  0  0  0  0
   66.5057    5.0967   -2.8290 O   0  0  0  0  0  0  0  0  0  0  0  0
   68.5205    6.2078   -2.0432 C   0  0  0  0  0  0  0  0  0  0  0  0
   72.7986    4.2499   -0.0606 N   0  0  0  0  0  0  0  0  0  0  0  0
   65.0244    9.7243   -0.1951 O   0  5  0  0  0  0  0  0  0  0  0  0
   66.9903   11.6320    1.0968 O   0  5  0  0  0  0  0  0  0  0  0  0
   69.8728   11.9577    2.6637 O   0  5  0  0  0  0  0  0  0  0  0  0
   72.5065    4.5637   -1.3666 C   0  0  1  0  0  0  0  0  0  0  0  0
   73.4613    4.3262   -2.2560 N   0  0  0  0  0  0  0  0  0  0  0  0
   65.7519    7.4252    0.6655 O   0  0  0  0  0  0  0  0  0  0  0  0
   67.1041   11.1142    3.6006 O   0  0  0  0  0  0  0  0  0  0  0  0
   69.8603   11.1565    0.2333 O   0  0  0  0  0  0  0  0  0  0  0  0
   71.3439    5.0751   -1.7635 N   0  0  0  0  0  0  0  0  0  0  0  0
   66.1520    9.4761    1.9976 O   0  0  0  0  0  0  0  0  0  0  0  0
   68.5846    9.9456    1.9854 O   0  0  0  0  0  0  0  0  0  0  0  0
   71.0820    9.8694    2.0004 O   0  0  0  0  0  0  0  0  0  0  0  0
   70.4850    5.2486   -0.7326 C   0  0  2  0  0  0  0  0  0  0  0  0
   70.6973    4.9611    0.6061 C   0  0  2  0  0  0  0  0  0  0  0  0
   71.9404    4.4166    1.0115 C   0  0  1  0  0  0  0  0  0  0  0  0
   72.2927    4.0815    2.1345 O   0  0  0  0  0  0  0  0  0  0  0  0
   69.5682    5.2785    1.3688 N   0  0  0  0  0  0  0  0  0  0  0  0
   68.7636    5.7269    0.4614 C   0  0  0  0  0  0  0  0  0  0  0  0
   69.2087    5.7523   -0.8196 N   0  0  0  0  0  0  0  0  0  0  0  0
  1  5  1  6  0  0  0
  1 14  1  0  0  0  0
  1 19  2  0  0  0  0
  2 15  1  6  0  0  0
  2 20  2  0  0  0  0
  2 23  1  0  0  0  0
  3 16  1  1  0  0  0
  3 21  2  0  0  0  0
  3 24  1  0  0  0  0
  3 25  1  0  0  0  0
  4  6  1  0  0  0  0
  5  4  1  0  0  0  0
  6  7  1  0  0  0  0
  6  8  2  0  0  0  0
  7 12  1  0  0  0  0
  8  9  1  0  0  0  0
  8 10  1  0  0  0  0
 10 11  1  0  0  0  0
 10 12  2  0  0  0  0
 12 32  1  0  0  0  0
 13 17  1  0  0  0  0
 17 18  1  6  0  0  0
 17 22  1  0  0  0  0
 23  1  1  0  0  0  0
 24  2  1  0  0  0  0
 26 22  1  6  0  0  0
 27 26  1  0  0  0  0
 27 28  1  0  0  0  0
 27 30  1  6  0  0  0
 28 13  1  0  0  0  0
 28 29  1  6  0  0  0
 31 30  1  0  0  0  0
 32 26  1  0  0  0  0
 32 31  1  0  0  0  0
M  CHG  3  14  -1  15  -1  16  -1
M  END
>  <CHROM.1>
-26.12952972,44.79613500,48.16211059,-71.47723568,-85.86420738,-86.71703223
30.25806838,48.06130340,68.65435938,7.95412258,0.16920579,2.20193587,-0.43689272
0.65599163

>  <Name>
2au4_lig

>  <RI>
0

>  <Rbt.Current_Directory>
/home/itssahil/PROJECTS/Mol_Feturizer/New_Systems/rnas/2au4

>  <Rbt.Executable>
rbdock ($Id: //depot/dev/client3/rdock/2013.1/src/exe/rbdock.cxx#4 $)

>  <Rbt.Library>
libRbt.so (2013.1, Build901 2013/11/27)

>  <Rbt.Parameter_File>
/export/apps/rDock/src/rDock_2013.1_src/data/scripts/dock_solv.prm

>  <Rbt.Receptor>
prm/pocket_docking_2.prm

>  <SCORE>
-27.1037

>  <SCORE.INTER>
-24.2497

>  <SCORE.INTER.CONST>
1

>  <SCORE.INTER.POLAR>
-2.70009

>  <SCORE.INTER.ROT>
8

>  <SCORE.INTER.SOLV>
29.6907

>  <SCORE.INTER.VDW>
-25.9964

>  <SCORE.INTER.norm>
-0.757802

>  <SCORE.INTRA>
-5.19669

>  <SCORE.INTRA.DIHEDRAL>
-9.9807

>  <SCORE.INTRA.DIHEDRAL.0>
76.3625

>  <SCORE.INTRA.POLAR>
0

>  <SCORE.INTRA.POLAR.0>
0

>  <SCORE.INTRA.REPUL>
-0.12705

>  <SCORE.INTRA.REPUL.0>
0.12705

>  <SCORE.INTRA.SOLV>
1.10987

>  <SCORE.INTRA.SOLV.lig_0>
-119.383

>  <SCORE.INTRA.VDW>
-0.126027

>  <SCORE.INTRA.VDW.0>
-5.10464

>  <SCORE.INTRA.norm>
-0.162396

>  <SCORE.RESTR>
2.3427

>  <SCORE.RESTR.CAVITY>
2.3427

>  <SCORE.RESTR.norm>
0.0732095

>  <SCORE.SYSTEM>
0

>  <SCORE.SYSTEM.CONST>
0

>  <SCORE.SYSTEM.DIHEDRAL>
0

>  <SCORE.SYSTEM.SOLV>
0

>  <SCORE.SYSTEM.norm>
0

>  <SCORE.heavy>
32

>  <SCORE.norm>
-0.846989

>  <RMSD>
2.552

$$$$
2au4_lig
 OpenBabel11021811423D
libRbt.so/2013.1/901 2013/11/27
 32 34  0  0  0  0  0  0  0  0999 V2000
   67.9812    8.7211    1.0892 P   0  0  1  0  0  0  0  0  0  0  0  0
   67.2252   10.9305    2.4736 P   0  0  1  0  0  0  0  0  0  0  0  0
   64.7430   10.8754    1.3440 P   0  0  2  0  0  0  0  0  0  0  0  0
   67.1975    7.7086   -1.2326 C   0  0  0  0  0  0  0  0  0  0  0  0
   68.1969    8.4105   -0.4749 O   0  0  0  0  0  0  0  0  0  0  0  0
   67.7116    7.2496   -2.5892 C   0  0  0  0  0  0  0  0  0  0  0  0
   69.1530    7.1993   -2.5951 O   0  0  0  0  0  0  0  0  0  0  0  0
   67.1851    5.8626   -2.9234 C   0  0  0  0  0  0  0  0  0  0  0  0
   66.3407    5.9005   -4.0803 O   0  0  0  0  0  0  0  0  0  0  0  0
   68.3947    4.9908   -3.1625 C   0  0  0  0  0  0  0  0  0  0  0  0
   68.3755    4.4262   -4.4805 O   0  0  0  0  0  0  0  0  0  0  0  0
   69.6091    5.8838   -2.9754 C   0  0  0  0  0  0  0  0  0  0  0  0
   70.3751    5.0079    1.9957 N   0  0  0  0  0  0  0  0  0  0  0  0
   66.8397    7.9202    1.5754 O   0  5  0  0  0  0  0  0  0  0  0  0
   67.0045    9.8663    3.4720 O   0  5  0  0  0  0  0  0  0  0  0  0
   65.2332   10.7848   -0.0462 O   0  5  0  0  0  0  0  0  0  0  0  0
   69.3093    5.6097    1.3701 C   0  0  1  0  0  0  0  0  0  0  0  0
   68.3297    6.0350    2.1565 N   0  0  0  0  0  0  0  0  0  0  0  0
   69.2899    8.6368    1.7721 O   0  0  0  0  0  0  0  0  0  0  0  0
   68.2458   11.9719    2.7134 O   0  0  0  0  0  0  0  0  0  0  0  0
   63.4276   11.4873    1.6257 O   0  0  0  0  0  0  0  0  0  0  0  0
   69.2235    5.7811    0.0533 N   0  0  0  0  0  0  0  0  0  0  0  0
   67.5376   10.2453    1.0774 O   0  0  0  0  0  0  0  0  0  0  0  0
   65.8369   11.6539    2.2007 O   0  0  0  0  0  0  0  0  0  0  0  0
   64.7699    9.4045    1.9894 O   0  0  0  0  0  0  0  0  0  0  0  0
   70.3067    5.2952   -0.5956 C   0  0  2  0  0  0  0  0  0  0  0  0
   71.4183    4.6770   -0.0459 C   0  0  2  0  0  0  0  0  0  0  0  0
   71.4939    4.5029    1.3577 C   0  0  1  0  0  0  0  0  0  0  0  0
   72.3998    4.0065    2.0137 O   0  0  0  0  0  0  0  0  0  0  0  0
   72.3301    4.3139   -1.0429 N   0  0  0  0  0  0  0  0  0  0  0  0
   71.7242    4.7277   -2.1076 C   0  0  0  0  0  0  0  0  0  0  0  0
   70.5162    5.3250   -1.9540 N   0  0  0  0  0  0  0  0  0  0  0  0
  1  5  1  6  0  0  0
  1 14  1  0  0  0  0
  1 19  2  0  0  0  0
  2 15  1  1  0  0  0
  2 20  2  0  0  0  0
  2 23  1  0  0  0  0
  3 16  1  6  0  0  0
  3 21  2  0  0  0  0
  3 24  1  0  0  0  0
  3 25  1  0  0  0  0
  4  6  1  0  0  0  0
  5  4  1  0  0  0  0
  6  7  1  0  0  0  0
  6  8  2  0  0  0  0
  7 12  1  0  0  0  0
  8  9  1  0  0  0  0
  8 10  1  0  0  0  0
 10 11  1  0  0  0  0
 10 12  2  0  0  0  0
 12 32  1  0  0  0  0
 13 17  1  0  0  0  0
 17 18  1  1  0  0  0
 17 22  1  0  0  0  0
 23  1  1  0  0  0  0
 24  2  1  0  0  0  0
 26 22  1  1  0  0  0
 27 26  1  0  0  0  0
 27 28  1  0  0  0  0
 27 30  1  1  0  0  0
 28 13  1  0  0  0  0
 28 29  1  1  0  0  0
 31 30  1  0  0  0  0
 32 26  1  0  0  0  0
 32 31  1  0  0  0  0
M  CHG  3  14  -1  15  -1  16  -1
M  END
>  <CHROM.1>
12.95697234,-17.92788402,-68.98751827,20.46884417,-167.38152658,47.85319087
179.96787692,-73.44393444,68.12567883,7.74728925,0.22807515,-2.35639723,0.67215652
-2.08948252

>  <Name>
2au4_lig

>  <RI>
0

>  <Rbt.Current_Directory>
/home/itssahil/PROJECTS/Mol_Feturizer/New_Systems/rnas/2au4

>  <Rbt.Executable>
rbdock ($Id: //depot/dev/client3/rdock/2013.1/src/exe/rbdock.cxx#4 $)

>  <Rbt.Library>
libRbt.so (2013.1, Build901 2013/11/27)

>  <Rbt.Parameter_File>
/export/apps/rDock/src/rDock_2013.1_src/data/scripts/dock_solv.prm

>  <Rbt.Receptor>
prm/pocket_docking_2.prm

>  <SCORE>
-24.5129

>  <SCORE.INTER>
-29.7953

>  <SCORE.INTER.CONST>
1

>  <SCORE.INTER.POLAR>
-2.249

>  <SCORE.INTER.ROT>
8

>  <SCORE.INTER.SOLV>
25.8957

>  <SCORE.INTER.VDW>
-29.9321

>  <SCORE.INTER.norm>
-0.931103

>  <SCORE.INTRA>
3.73846

>  <SCORE.INTRA.DIHEDRAL>
0.579433

>  <SCORE.INTRA.DIHEDRAL.0>
76.3625

>  <SCORE.INTRA.POLAR>
0

>  <SCORE.INTRA.POLAR.0>
0

>  <SCORE.INTRA.REPUL>
-0.12705

>  <SCORE.INTRA.REPUL.0>
0.12705

>  <SCORE.INTRA.SOLV>
7.56258

>  <SCORE.INTRA.SOLV.lig_0>
-119.383

>  <SCORE.INTRA.VDW>
0.302703

>  <SCORE.INTRA.VDW.0>
-5.10464

>  <SCORE.INTRA.norm>
0.116827

>  <SCORE.RESTR>
1.54395

>  <SCORE.RESTR.CAVITY>
1.54395

>  <SCORE.RESTR.norm>
0.0482483

>  <SCORE.SYSTEM>
0

>  <SCORE.SYSTEM.CONST>
0

>  <SCORE.SYSTEM.DIHEDRAL>
0

>  <SCORE.SYSTEM.SOLV>
0

>  <SCORE.SYSTEM.norm>
0

>  <SCORE.heavy>
32

>  <SCORE.norm>
-0.766028

>  <RMSD>
2.554

$$$$
2au4_lig
 OpenBabel11021811423D
libRbt.so/2013.1/901 2013/11/27
 32 34  0  0  0  0  0  0  0  0999 V2000
   68.0804   11.9960   -0.7284 P   0  0  1  0  0  0  0  0  0  0  0  0
   69.8969   11.7387    1.2724 P   0  0  1  0  0  0  0  0  0  0  0  0
   69.0217    9.7923    2.9713 P   0  0  2  0  0  0  0  0  0  0  0  0
   68.4095    9.4346   -1.3294 C   0  0  0  0  0  0  0  0  0  0  0  0
   68.0089   10.7508   -1.7451 O   0  0  0  0  0  0  0  0  0  0  0  0
   67.8785    8.3464   -2.2511 C   0  0  0  0  0  0  0  0  0  0  0  0
   68.9552    7.5105   -2.7223 O   0  0  0  0  0  0  0  0  0  0  0  0
   66.8754    7.4658   -1.5225 C   0  0  0  0  0  0  0  0  0  0  0  0
   65.5747    7.5739   -2.1137 O   0  0  0  0  0  0  0  0  0  0  0  0
   67.3984    6.0523   -1.6158 C   0  0  0  0  0  0  0  0  0  0  0  0
   66.4535    5.1908   -2.2648 O   0  0  0  0  0  0  0  0  0  0  0  0
   68.6930    6.1267   -2.4068 C   0  0  0  0  0  0  0  0  0  0  0  0
   70.5018    4.9478    2.2197 N   0  0  0  0  0  0  0  0  0  0  0  0
   67.8549   13.2402   -1.4912 O   0  5  0  0  0  0  0  0  0  0  0  0
   71.3583   11.7830    1.4733 O   0  5  0  0  0  0  0  0  0  0  0  0
   69.4726    8.3979    3.1547 O   0  5  0  0  0  0  0  0  0  0  0  0
   69.3117    5.5424    1.8738 C   0  0  1  0  0  0  0  0  0  0  0  0
   68.5047    5.8682    2.8747 N   0  0  0  0  0  0  0  0  0  0  0  0
   67.2457   11.6894    0.4529 O   0  0  0  0  0  0  0  0  0  0  0  0
   69.0139   12.6298    2.0534 O   0  0  0  0  0  0  0  0  0  0  0  0
   67.6049   10.1469    3.1969 O   0  0  0  0  0  0  0  0  0  0  0  0
   68.9488    5.7995    0.6197 N   0  0  0  0  0  0  0  0  0  0  0  0
   69.5994   11.9749   -0.2677 O   0  0  0  0  0  0  0  0  0  0  0  0
   69.4082   10.2429    1.4934 O   0  0  0  0  0  0  0  0  0  0  0  0
   69.9377   10.7468    3.8827 O   0  0  0  0  0  0  0  0  0  0  0  0
   69.8875    5.4085   -0.2728 C   0  0  2  0  0  0  0  0  0  0  0  0
   71.1071    4.8050   -0.0118 C   0  0  2  0  0  0  0  0  0  0  0  0
   71.4781    4.5387    1.3290 C   0  0  1  0  0  0  0  0  0  0  0  0
   72.5151    4.0399    1.7453 O   0  0  0  0  0  0  0  0  0  0  0  0
   71.8022    4.5525   -1.1993 N   0  0  0  0  0  0  0  0  0  0  0  0
   70.9760    5.0105   -2.0823 C   0  0  0  0  0  0  0  0  0  0  0  0
   69.8090    5.5408   -1.6390 N   0  0  0  0  0  0  0  0  0  0  0  0
  1  5  1  6  0  0  0
  1 14  1  0  0  0  0
  1 19  2  0  0  0  0
  2 15  1  1  0  0  0
  2 20  2  0  0  0  0
  2 23  1  0  0  0  0
  3 16  1  1  0  0  0
  3 21  2  0  0  0  0
  3 24  1  0  0  0  0
  3 25  1  0  0  0  0
  4  6  1  0  0  0  0
  5  4  1  0  0  0  0
  6  7  1  0  0  0  0
  6  8  2  0  0  0  0
  7 12  1  0  0  0  0
  8  9  1  0  0  0  0
  8 10  1  0  0  0  0
 10 11  1  0  0  0  0
 10 12  2  0  0  0  0
 12 32  1  0  0  0  0
 13 17  1  0  0  0  0
 17 18  1  1  0  0  0
 17 22  1  0  0  0  0
 23  1  1  0  0  0  0
 24  2  1  0  0  0  0
 26 22  1  1  0  0  0
 27 26  1  0  0  0  0
 27 28  1  0  0  0  0
 27 30  1  1  0  0  0
 28 13  1  0  0  0  0
 28 29  1  1  0  0  0
 31 30  1  0  0  0  0
 32 26  1  0  0  0  0
 32 31  1  0  0  0  0
M  CHG  3  14  -1  15  -1  16  -1
M  END
>  <CHROM.1>
169.55509878,-178.95827839,-142.62081471,126.11370030,162.26592445,96.56125653
-118.03322213,88.29076046,69.09474722,8.52268886,0.30133345,1.89561852,-1.02394078
0.44835524

>  <Name>
2au4_lig

>  <RI>
0

>  <Rbt.Current_Directory>
/home/itssahil/PROJECTS/Mol_Feturizer/New_Systems/rnas/2au4

>  <Rbt.Executable>
rbdock ($Id: //depot/dev/client3/rdock/2013.1/src/exe/rbdock.cxx#4 $)

>  <Rbt.Library>
libRbt.so (2013.1, Build901 2013/11/27)

>  <Rbt.Parameter_File>
/export/apps/rDock/src/rDock_2013.1_src/data/scripts/dock_solv.prm

>  <Rbt.Receptor>
prm/pocket_docking_2.prm

>  <SCORE>
-28.7726

>  <SCORE.INTER>
-26.8728

>  <SCORE.INTER.CONST>
1

>  <SCORE.INTER.POLAR>
-2.18555

>  <SCORE.INTER.ROT>
8

>  <SCORE.INTER.SOLV>
28.2296

>  <SCORE.INTER.VDW>
-28.9732

>  <SCORE.INTER.norm>
-0.839776

>  <SCORE.INTRA>
-5.99675

>  <SCORE.INTRA.DIHEDRAL>
-13.9058

>  <SCORE.INTRA.DIHEDRAL.0>
76.3625

>  <SCORE.INTRA.POLAR>
0

>  <SCORE.INTRA.POLAR.0>
0

>  <SCORE.INTRA.REPUL>
-0.12705

>  <SCORE.INTRA.REPUL.0>
0.12705

>  <SCORE.INTRA.SOLV>
0.477057

>  <SCORE.INTRA.SOLV.lig_0>
-119.383

>  <SCORE.INTRA.VDW>
1.35287

>  <SCORE.INTRA.VDW.0>
-5.10464

>  <SCORE.INTRA.norm>
-0.187399

>  <SCORE.RESTR>
4.09703

>  <SCORE.RESTR.CAVITY>
4.09703

>  <SCORE.RESTR.norm>
0.128032

>  <SCORE.SYSTEM>
0

>  <SCORE.SYSTEM.CONST>
0

>  <SCORE.SYSTEM.DIHEDRAL>
0

>  <SCORE.SYSTEM.SOLV>
0

>  <SCORE.SYSTEM.norm>
0

>  <SCORE.heavy>
32

>  <SCORE.norm>
-0.899143

>  <RMSD>
2.574

$$$$
2au4_lig
 OpenBabel11021811423D
libRbt.so/2013.1/901 2013/11/27
 32 34  0  0  0  0  0  0  0  0999 V2000
   69.2040    9.9778    0.3596 P   0  0  1  0  0  0  0  0  0  0  0  0
   70.5488   12.1217    1.3419 P   0  0  1  0  0  0  0  0  0  0  0  0
   73.2485   12.4273    1.0986 P   0  0  2  0  0  0  0  0  0  0  0  0
   68.0135    9.5830   -1.9765 C   0  0  0  0  0  0  0  0  0  0  0  0
   69.1219    9.3114   -1.1028 O   0  0  0  0  0  0  0  0  0  0  0  0
   67.1201    8.3678   -2.1780 C   0  0  0  0  0  0  0  0  0  0  0  0
   67.8664    7.2807   -2.7623 O   0  0  0  0  0  0  0  0  0  0  0  0
   66.5479    7.8942   -0.8511 C   0  0  0  0  0  0  0  0  0  0  0  0
   65.1208    8.0206   -0.8345 O   0  0  0  0  0  0  0  0  0  0  0  0
   66.9670    6.4520   -0.6937 C   0  0  0  0  0  0  0  0  0  0  0  0
   65.8275    5.5915   -0.5626 O   0  0  0  0  0  0  0  0  0  0  0  0
   67.7680    6.1015   -1.9358 C   0  0  0  0  0  0  0  0  0  0  0  0
   70.9382    4.8540    1.8669 N   0  0  0  0  0  0  0  0  0  0  0  0
   67.9384   10.6915    0.6236 O   0  5  0  0  0  0  0  0  0  0  0  0
   69.3604   12.9957    1.3836 O   0  5  0  0  0  0  0  0  0  0  0  0
   73.5840   12.7157    2.5077 O   0  5  0  0  0  0  0  0  0  0  0  0
   69.6492    5.3280    1.9257 C   0  0  1  0  0  0  0  0  0  0  0  0
   69.1395    5.4961    3.1386 N   0  0  0  0  0  0  0  0  0  0  0  0
   69.6948    8.9614    1.3147 O   0  0  0  0  0  0  0  0  0  0  0  0
   70.9770   11.3942    2.5547 O   0  0  0  0  0  0  0  0  0  0  0  0
   74.1280   12.9130    0.0149 O   0  0  0  0  0  0  0  0  0  0  0  0
   68.9171    5.6189    0.8533 N   0  0  0  0  0  0  0  0  0  0  0  0
   70.3474   11.0639    0.1770 O   0  0  0  0  0  0  0  0  0  0  0  0
   71.7807   12.9795    0.8205 O   0  0  0  0  0  0  0  0  0  0  0  0
   73.0658   10.8398    0.9342 O   0  0  0  0  0  0  0  0  0  0  0  0
   69.5896    5.3946   -0.2990 C   0  0  2  0  0  0  0  0  0  0  0  0
   70.8829    4.9204   -0.4480 C   0  0  2  0  0  0  0  0  0  0  0  0
   71.6487    4.6160    0.7040 C   0  0  1  0  0  0  0  0  0  0  0  0
   72.8033    4.2149    0.7643 O   0  0  0  0  0  0  0  0  0  0  0  0
   71.2252    4.8237   -1.8010 N   0  0  0  0  0  0  0  0  0  0  0  0
   70.1404    5.2374   -2.3701 C   0  0  0  0  0  0  0  0  0  0  0  0
   69.1075    5.6014   -1.5698 N   0  0  0  0  0  0  0  0  0  0  0  0
  1  5  1  6  0  0  0
  1 14  1  0  0  0  0
  1 19  2  0  0  0  0
  2 15  1  1  0  0  0
  2 20  2  0  0  0  0
  2 23  1  0  0  0  0
  3 16  1  1  0  0  0
  3 21  2  0  0  0  0
  3 24  1  0  0  0  0
  3 25  1  0  0  0  0
  4  6  1  0  0  0  0
  5  4  1  0  0  0  0
  6  7  1  0  0  0  0
  6  8  2  0  0  0  0
  7 12  1  0  0  0  0
  8  9  1  0  0  0  0
  8 10  1  0  0  0  0
 10 11  1  0  0  0  0
 10 12  2  0  0  0  0
 12 32  1  0  0  0  0
 13 17  1  0  0  0  0
 17 18  1  1  0  0  0
 17 22  1  0  0  0  0
 23  1  1  0  0  0  0
 24  2  1  0  0  0  0
 26 22  1  1  0  0  0
 27 26  1  0  0  0  0
 27 28  1  0  0  0  0
 27 30  1  1  0  0  0
 28 13  1  0  0  0  0
 28 29  1  1  0  0  0
 31 30  1  0  0  0  0
 32 26  1  0  0  0  0
 32 31  1  0  0  0  0
M  CHG  3  14  -1  15  -1  16  -1
M  END
>  <CHROM.1>
6.92237129,-67.41759215,-77.87615021,-60.20261963,-111.04220106,123.65178436
169.21455705,161.55201359,69.93646096,8.69769472,0.21448274,1.08837852,-0.36157051
0.08024574

>  <Name>
2au4_lig

>  <RI>
0

>  <Rbt.Current_Directory>
/home/itssahil/PROJECTS/Mol_Feturizer/New_Systems/rnas/2au4

>  <Rbt.Executable>
rbdock ($Id: //depot/dev/client3/rdock/2013.1/src/exe/rbdock.cxx#4 $)

>  <Rbt.Library>
libRbt.so (2013.1, Build901 2013/11/27)

>  <Rbt.Parameter_File>
/export/apps/rDock/src/rDock_2013.1_src/data/scripts/dock_solv.prm

>  <Rbt.Receptor>
prm/pocket_docking_4.prm

>  <SCORE>
-50.3668

>  <SCORE.INTER>
-34.4277

>  <SCORE.INTER.CONST>
1

>  <SCORE.INTER.POLAR>
-4.64005

>  <SCORE.INTER.ROT>
8

>  <SCORE.INTER.SOLV>
32.9033

>  <SCORE.INTER.VDW>
-27.3861

>  <SCORE.INTER.norm>
-1.07587

>  <SCORE.INTRA>
-16.1449

>  <SCORE.INTRA.DIHEDRAL>
-30.4687

>  <SCORE.INTRA.DIHEDRAL.0>
76.3625

>  <SCORE.INTRA.POLAR>
0

>  <SCORE.INTRA.POLAR.0>
0

>  <SCORE.INTRA.REPUL>
-0.12705

>  <SCORE.INTRA.REPUL.0>
0.12705

>  <SCORE.INTRA.SOLV>
-2.10044

>  <SCORE.INTRA.SOLV.lig_0>
-119.383

>  <SCORE.INTRA.VDW>
0.774873

>  <SCORE.INTRA.VDW.0>
-5.10464

>  <SCORE.INTRA.norm>
-0.504529

>  <SCORE.RESTR>
0.205838

>  <SCORE.RESTR.CAVITY>
0.205838

>  <SCORE.RESTR.norm>
0.00643244

>  <SCORE.SYSTEM>
0

>  <SCORE.SYSTEM.CONST>
0

>  <SCORE.SYSTEM.DIHEDRAL>
0

>  <SCORE.SYSTEM.SOLV>
0

>  <SCORE.SYSTEM.norm>
0

>  <SCORE.heavy>
32

>  <SCORE.norm>
-1.57396

>  <RMSD>
2.589

$$$$
2au4_lig
 OpenBabel11021811423D
libRbt.so/2013.1/901 2013/11/27
 32 34  0  0  0  0  0  0  0  0999 V2000
   68.7449   11.5329    0.0372 P   0  0  1  0  0  0  0  0  0  0  0  0
   71.1524   10.7175    0.9904 P   0  0  1  0  0  0  0  0  0  0  0  0
   72.1697   13.2074    1.4439 P   0  0  2  0  0  0  0  0  0  0  0  0
   68.1329    9.7364   -1.8145 C   0  0  0  0  0  0  0  0  0  0  0  0
   68.0636   10.1559   -0.4415 O   0  0  0  0  0  0  0  0  0  0  0  0
   67.2383    8.5399   -2.1032 C   0  0  0  0  0  0  0  0  0  0  0  0
   67.9949    7.4773   -2.7186 O   0  0  0  0  0  0  0  0  0  0  0  0
   66.6233    8.0051   -0.8193 C   0  0  0  0  0  0  0  0  0  0  0  0
   65.1972    8.1418   -0.8388 O   0  0  0  0  0  0  0  0  0  0  0  0
   67.0283    6.5536   -0.7219 C   0  0  0  0  0  0  0  0  0  0  0  0
   65.8799    5.6966   -0.6680 O   0  0  0  0  0  0  0  0  0  0  0  0
   67.8641    6.2592   -1.9555 C   0  0  0  0  0  0  0  0  0  0  0  0
   70.9208    4.8269    1.8749 N   0  0  0  0  0  0  0  0  0  0  0  0
   68.3148   12.6126   -0.8738 O   0  5  0  0  0  0  0  0  0  0  0  0
   70.3651    9.6875    1.6956 O   0  5  0  0  0  0  0  0  0  0  0  0
   71.6586   14.4398    2.0774 O   0  5  0  0  0  0  0  0  0  0  0  0
   69.6351    5.3115    1.9192 C   0  0  1  0  0  0  0  0  0  0  0  0
   69.0951    5.4359    3.1242 N   0  0  0  0  0  0  0  0  0  0  0  0
   68.5510   11.6732    1.4963 O   0  0  0  0  0  0  0  0  0  0  0  0
   72.5045   10.4006    0.4856 O   0  0  0  0  0  0  0  0  0  0  0  0
   72.2832   13.1246   -0.0272 O   0  0  0  0  0  0  0  0  0  0  0  0
   68.9344    5.6529    0.8408 N   0  0  0  0  0  0  0  0  0  0  0  0
   70.2870   11.2604   -0.2232 O   0  0  0  0  0  0  0  0  0  0  0  0
   71.2638   11.9921    1.9328 O   0  0  0  0  0  0  0  0  0  0  0  0
   73.6011   12.8618    2.0860 O   0  0  0  0  0  0  0  0  0  0  0  0
   69.6351    5.4682   -0.3018 C   0  0  2  0  0  0  0  0  0  0  0  0
   70.9275    4.9870   -0.4361 C   0  0  2  0  0  0  0  0  0  0  0  0
   71.6596    4.6285    0.7223 C   0  0  1  0  0  0  0  0  0  0  0  0
   72.8084    4.2135    0.7963 O   0  0  0  0  0  0  0  0  0  0  0  0
   71.3045    4.9413   -1.7825 N   0  0  0  0  0  0  0  0  0  0  0  0
   70.2390    5.3888   -2.3625 C   0  0  0  0  0  0  0  0  0  0  0  0
   69.1888    5.7310   -1.5753 N   0  0  0  0  0  0  0  0  0  0  0  0
  1  5  1  6  0  0  0
  1 14  1  0  0  0  0
  1 19  2  0  0  0  0
  2 15  1  1  0  0  0
  2 20  2  0  0  0  0
  2 23  1  0  0  0  0
  3 16  1  1  0  0  0
  3 21  2  0  0  0  0
  3 24  1  0  0  0  0
  3 25  1  0  0  0  0
  4  6  1  0  0  0  0
  5  4  1  0  0  0  0
  6  7  1  0  0  0  0
  6  8  2  0  0  0  0
  7 12  1  0  0  0  0
  8  9  1  0  0  0  0
  8 10  1  0  0  0  0
 10 11  1  0  0  0  0
 10 12  2  0  0  0  0
 12 32  1  0  0  0  0
 13 17  1  0  0  0  0
 17 18  1  1  0  0  0
 17 22  1  0  0  0  0
 23  1  1  0  0  0  0
 24  2  1  0  0  0  0
 26 22  1  1  0  0  0
 27 26  1  0  0  0  0
 27 28  1  0  0  0  0
 27 30  1  1  0  0  0
 28 13  1  0  0  0  0
 28 29  1  1  0  0  0
 31 30  1  0  0  0  0
 32 26  1  0  0  0  0
 32 31  1  0  0  0  0
M  CHG  3  14  -1  15  -1  16  -1
M  END
>  <CHROM.1>
49.73429200,42.35493782,153.96988561,-126.40679259,-170.44988012,123.04196124
-94.36519993,175.19933276,69.81142953,8.93130367,0.16833541,1.23778472,-0.44871082
0.06265629

>  <Name>
2au4_lig

>  <RI>
0

>  <Rbt.Current_Directory>
/home/itssahil/PROJECTS/Mol_Feturizer/New_Systems/rnas/2au4

>  <Rbt.Executable>
rbdock ($Id: //depot/dev/client3/rdock/2013.1/src/exe/rbdock.cxx#4 $)

>  <Rbt.Library>
libRbt.so (2013.1, Build901 2013/11/27)

>  <Rbt.Parameter_File>
/export/apps/rDock/src/rDock_2013.1_src/data/scripts/dock_solv.prm

>  <Rbt.Receptor>
prm/pocket_docking_3.prm

>  <SCORE>
-49.0907

>  <SCORE.INTER>
-30.764

>  <SCORE.INTER.CONST>
1

>  <SCORE.INTER.POLAR>
-4.11964

>  <SCORE.INTER.ROT>
8

>  <SCORE.INTER.SOLV>
37.7344

>  <SCORE.INTER.VDW>
-28.2886

>  <SCORE.INTER.norm>
-0.961374

>  <SCORE.INTRA>
-18.5351

>  <SCORE.INTRA.DIHEDRAL>
-37.6179

>  <SCORE.INTRA.DIHEDRAL.0>
76.3625

>  <SCORE.INTRA.POLAR>
0

>  <SCORE.INTRA.POLAR.0>
0

>  <SCORE.INTRA.REPUL>
-0.12705

>  <SCORE.INTRA.REPUL.0>
0.12705

>  <SCORE.INTRA.SOLV>
-3.43869

>  <SCORE.INTRA.SOLV.lig_0>
-119.383

>  <SCORE.INTRA.VDW>
2.62849

>  <SCORE.INTRA.VDW.0>
-5.10464

>  <SCORE.INTRA.norm>
-0.579221

>  <SCORE.RESTR>
0.208367

>  <SCORE.RESTR.CAVITY>
0.208367

>  <SCORE.RESTR.norm>
0.00651147

>  <SCORE.SYSTEM>
0

>  <SCORE.SYSTEM.CONST>
0

>  <SCORE.SYSTEM.DIHEDRAL>
0

>  <SCORE.SYSTEM.SOLV>
0

>  <SCORE.SYSTEM.norm>
0

>  <SCORE.heavy>
32

>  <SCORE.norm>
-1.53408

>  <RMSD>
2.690

$$$$
2au4_lig
 OpenBabel11021811423D
libRbt.so/2013.1/901 2013/11/27
 32 34  0  0  0  0  0  0  0  0999 V2000
   65.6025    8.6972    0.1705 P   0  0  1  0  0  0  0  0  0  0  0  0
   68.0106    9.9495    0.2183 P   0  0  1  0  0  0  0  0  0  0  0  0
   68.9930   10.6051    2.6771 P   0  0  2  0  0  0  0  0  0  0  0  0
   65.8184    7.3728   -2.1164 C   0  0  0  0  0  0  0  0  0  0  0  0
   66.2827    8.4325   -1.2637 O   0  0  0  0  0  0  0  0  0  0  0  0
   66.8445    6.9817   -3.1697 C   0  0  0  0  0  0  0  0  0  0  0  0
   68.1821    7.2387   -2.6953 O   0  0  0  0  0  0  0  0  0  0  0  0
   66.7341    5.5027   -3.5059 C   0  0  0  0  0  0  0  0  0  0  0  0
   66.3488    5.3157   -4.8732 O   0  0  0  0  0  0  0  0  0  0  0  0
   68.0921    4.8993   -3.2372 C   0  0  0  0  0  0  0  0  0  0  0  0
   68.6339    4.2932   -4.4183 O   0  0  0  0  0  0  0  0  0  0  0  0
   68.9782    6.0364   -2.7588 C   0  0  0  0  0  0  0  0  0  0  0  0
   73.0025    4.1479   -0.2479 N   0  0  0  0  0  0  0  0  0  0  0  0
   64.2650    9.2853   -0.0440 O   0  5  0  0  0  0  0  0  0  0  0  0
   68.7032    8.6644    0.4347 O   0  5  0  0  0  0  0  0  0  0  0  0
   69.4481   11.8067    3.4053 O   0  5  0  0  0  0  0  0  0  0  0  0
   72.8057    4.2876   -1.6011 C   0  0  1  0  0  0  0  0  0  0  0  0
   73.7923    3.8730   -2.3845 N   0  0  0  0  0  0  0  0  0  0  0  0
   65.7531    7.4800    0.9962 O   0  0  0  0  0  0  0  0  0  0  0  0
   67.9296   10.5287   -1.1387 O   0  0  0  0  0  0  0  0  0  0  0  0
   69.8518    9.4036    2.6237 O   0  0  0  0  0  0  0  0  0  0  0  0
   71.7027    4.8007   -2.1404 N   0  0  0  0  0  0  0  0  0  0  0  0
   66.5362    9.8220    0.7896 O   0  0  0  0  0  0  0  0  0  0  0  0
   68.6611   11.0347    1.1798 O   0  0  0  0  0  0  0  0  0  0  0  0
   67.5540   10.1782    3.2496 O   0  0  0  0  0  0  0  0  0  0  0  0
   70.7995    5.1670   -1.2020 C   0  0  2  0  0  0  0  0  0  0  0  0
   70.9165    5.0624    0.1747 C   0  0  2  0  0  0  0  0  0  0  0  0
   72.0972    4.5134    0.7322 C   0  0  1  0  0  0  0  0  0  0  0  0
   72.3629    4.3231    1.9115 O   0  0  0  0  0  0  0  0  0  0  0  0
   69.7686    5.5475    0.8104 N   0  0  0  0  0  0  0  0  0  0  0  0
   69.0472    5.9056   -0.2012 C   0  0  0  0  0  0  0  0  0  0  0  0
   69.5651    5.7230   -1.4414 N   0  0  0  0  0  0  0  0  0  0  0  0
  1  5  1  6  0  0  0
  1 14  1  0  0  0  0
  1 19  2  0  0  0  0
  2 15  1  1  0  0  0
  2 20  2  0  0  0  0
  2 23  1  0  0  0  0
  3 16  1  1  0  0  0
  3 21  2  0  0  0  0
  3 24  1  0  0  0  0
  3 25  1  0  0  0  0
  4  6  1  0  0  0  0
  5  4  1  0  0  0  0
  6  7  1  0  0  0  0
  6  8  2  0  0  0  0
  7 12  1  0  0  0  0
  8  9  1  0  0  0  0
  8 10  1  0  0  0  0
 10 11  1  0  0  0  0
 10 12  2  0  0  0  0
 12 32  1  0  0  0  0
 13 17  1  0  0  0  0
 17 18  1  6  0  0  0
 17 22  1  0  0  0  0
 23  1  1  0  0  0  0
 24  2  1  0  0  0  0
 26 22  1  6  0  0  0
 27 26  1  0  0  0  0
 27 28  1  0  0  0  0
 27 30  1  6  0  0  0
 28 13  1  0  0  0  0
 28 29  1  6  0  0  0
 31 30  1  0  0  0  0
 32 26  1  0  0  0  0
 32 31  1  0  0  0  0
M  CHG  3  14  -1  15  -1  16  -1
M  END
>  <CHROM.1>
-72.18002307,-59.36252679,-174.04991014,28.41642104,-160.60560049,-144.70134421
-22.35652191,-42.49040014,68.66190851,7.46164111,-0.36418797,2.14024052,-0.48870463
0.81872548

>  <Name>
2au4_lig

>  <RI>
0

>  <Rbt.Current_Directory>
/home/itssahil/PROJECTS/Mol_Feturizer/New_Systems/rnas/2au4

>  <Rbt.Executable>
rbdock ($Id: //depot/dev/client3/rdock/2013.1/src/exe/rbdock.cxx#4 $)

>  <Rbt.Library>
libRbt.so (2013.1, Build901 2013/11/27)

>  <Rbt.Parameter_File>
/export/apps/rDock/src/rDock_2013.1_src/data/scripts/dock_solv.prm

>  <Rbt.Receptor>
prm/pocket_docking_2.prm

>  <SCORE>
-33.5752

>  <SCORE.INTER>
-29.9836

>  <SCORE.INTER.CONST>
1

>  <SCORE.INTER.POLAR>
-3.41519

>  <SCORE.INTER.ROT>
8

>  <SCORE.INTER.SOLV>
36.9027

>  <SCORE.INTER.VDW>
-29.8393

>  <SCORE.INTER.norm>
-0.936986

>  <SCORE.INTRA>
-5.17325

>  <SCORE.INTRA.DIHEDRAL>
-7.5909

>  <SCORE.INTRA.DIHEDRAL.0>
76.3625

>  <SCORE.INTRA.POLAR>
0

>  <SCORE.INTRA.POLAR.0>
0

>  <SCORE.INTRA.REPUL>
-0.12705

>  <SCORE.INTRA.REPUL.0>
0.12705

>  <SCORE.INTRA.SOLV>
-3.09034

>  <SCORE.INTRA.SOLV.lig_0>
-119.383

>  <SCORE.INTRA.VDW>
0.802612

>  <SCORE.INTRA.VDW.0>
-5.10464

>  <SCORE.INTRA.norm>
-0.161664

>  <SCORE.RESTR>
1.58161

>  <SCORE.RESTR.CAVITY>
1.58161

>  <SCORE.RESTR.norm>
0.0494254

>  <SCORE.SYSTEM>
0

>  <SCORE.SYSTEM.CONST>
0

>  <SCORE.SYSTEM.DIHEDRAL>
0

>  <SCORE.SYSTEM.SOLV>
0

>  <SCORE.SYSTEM.norm>
0

>  <SCORE.heavy>
32

>  <SCORE.norm>
-1.04922

>  <RMSD>
2.735

$$$$
2au4_lig
 OpenBabel11021811423D
libRbt.so/2013.1/901 2013/11/27
 32 34  0  0  0  0  0  0  0  0999 V2000
   68.4749   12.1247   -0.9711 P   0  0  1  0  0  0  0  0  0  0  0  0
   70.9094   12.8364   -0.0036 P   0  0  1  0  0  0  0  0  0  0  0  0
   73.5156   13.6410    0.0294 P   0  0  2  0  0  0  0  0  0  0  0  0
   68.3400    9.5025   -1.3403 C   0  0  0  0  0  0  0  0  0  0  0  0
   68.4618   10.8169   -1.9087 O   0  0  0  0  0  0  0  0  0  0  0  0
   67.9737    8.4515   -2.3779 C   0  0  0  0  0  0  0  0  0  0  0  0
   69.1262    7.6560   -2.7232 O   0  0  0  0  0  0  0  0  0  0  0  0
   66.8951    7.5215   -1.8448 C   0  0  0  0  0  0  0  0  0  0  0  0
   65.6925    7.6373   -2.6151 O   0  0  0  0  0  0  0  0  0  0  0  0
   67.4578    6.1224   -1.9239 C   0  0  0  0  0  0  0  0  0  0  0  0
   66.6372    5.2782   -2.7426 O   0  0  0  0  0  0  0  0  0  0  0  0
   68.8519    6.2547   -2.5121 C   0  0  0  0  0  0  0  0  0  0  0  0
   70.1064    5.1244    2.3061 N   0  0  0  0  0  0  0  0  0  0  0  0
   67.4822   13.0866   -1.4908 O   0  5  0  0  0  0  0  0  0  0  0  0
   70.2034   13.5290    1.0919 O   0  5  0  0  0  0  0  0  0  0  0  0
   73.4549   13.8760    1.4862 O   0  5  0  0  0  0  0  0  0  0  0  0
   68.9824    5.7498    1.8210 C   0  0  1  0  0  0  0  0  0  0  0  0
   68.0838    6.1251    2.7214 N   0  0  0  0  0  0  0  0  0  0  0  0
   68.4192   11.6931    0.4420 O   0  0  0  0  0  0  0  0  0  0  0  0
   71.5120   11.5070    0.2265 O   0  0  0  0  0  0  0  0  0  0  0  0
   74.4281   14.4435   -0.8116 O   0  0  0  0  0  0  0  0  0  0  0  0
   68.7668    5.9896    0.5300 N   0  0  0  0  0  0  0  0  0  0  0  0
   69.9206   12.7233   -1.2389 O   0  0  0  0  0  0  0  0  0  0  0  0
   72.0432   13.8032   -0.5559 O   0  0  0  0  0  0  0  0  0  0  0  0
   73.8264   12.0851   -0.2221 O   0  0  0  0  0  0  0  0  0  0  0  0
   69.7822    5.5472   -0.2470 C   0  0  2  0  0  0  0  0  0  0  0  0
   70.9443    4.9101    0.1571 C   0  0  2  0  0  0  0  0  0  0  0  0
   71.1583    4.6629    1.5353 C   0  0  1  0  0  0  0  0  0  0  0  0
   72.1258    4.1399    2.0717 O   0  0  0  0  0  0  0  0  0  0  0  0
   71.7545    4.6073   -0.9424 N   0  0  0  0  0  0  0  0  0  0  0  0
   71.0455    5.0717   -1.9190 C   0  0  0  0  0  0  0  0  0  0  0  0
   69.8568    5.6503   -1.6159 N   0  0  0  0  0  0  0  0  0  0  0  0
  1  5  1  6  0  0  0
  1 14  1  0  0  0  0
  1 19  2  0  0  0  0
  2 15  1  1  0  0  0
  2 20  2  0  0  0  0
  2 23  1  0  0  0  0
  3 16  1  1  0  0  0
  3 21  2  0  0  0  0
  3 24  1  0  0  0  0
  3 25  1  0  0  0  0
  4  6  1  0  0  0  0
  5  4  1  0  0  0  0
  6  7  1  0  0  0  0
  6  8  2  0  0  0  0
  7 12  1  0  0  0  0
  8  9  1  0  0  0  0
  8 10  1  0  0  0  0
 10 11  1  0  0  0  0
 10 12  2  0  0  0  0
 12 32  1  0  0  0  0
 13 17  1  0  0  0  0
 17 18  1  1  0  0  0
 17 22  1  0  0  0  0
 23  1  1  0  0  0  0
 24  2  1  0  0  0  0
 26 22  1  1  0  0  0
 27 26  1  0  0  0  0
 27 28  1  0  0  0  0
 27 30  1  1  0  0  0
 28 13  1  0  0  0  0
 28 29  1  1  0  0  0
 31 30  1  0  0  0  0
 32 26  1  0  0  0  0
 32 31  1  0  0  0  0
M  CHG  3  14  -1  15  -1  16  -1
M  END
>  <CHROM.1>
-129.21616890,-51.05363271,-59.96889345,103.88161697,164.55021783,91.15614854
-118.79914152,94.77066269,70.03846575,9.38375838,-0.46263034,1.20498108,-0.47497220
-0.13234625

>  <Name>
2au4_lig

>  <RI>
0

>  <Rbt.Current_Directory>
/home/itssahil/PROJECTS/Mol_Feturizer/New_Systems/rnas/2au4

>  <Rbt.Executable>
rbdock ($Id: //depot/dev/client3/rdock/2013.1/src/exe/rbdock.cxx#4 $)

>  <Rbt.Library>
libRbt.so (2013.1, Build901 2013/11/27)

>  <Rbt.Parameter_File>
/export/apps/rDock/src/rDock_2013.1_src/data/scripts/dock_solv.prm

>  <Rbt.Receptor>
prm/pocket_docking_6.prm

>  <SCORE>
-38.3216

>  <SCORE.INTER>
-34.0498

>  <SCORE.INTER.CONST>
1

>  <SCORE.INTER.POLAR>
-2.76432

>  <SCORE.INTER.ROT>
8

>  <SCORE.INTER.SOLV>
38.3453

>  <SCORE.INTER.VDW>
-35.2005

>  <SCORE.INTER.norm>
-1.06405

>  <SCORE.INTRA>
-4.27182

>  <SCORE.INTRA.DIHEDRAL>
-8.26569

>  <SCORE.INTRA.DIHEDRAL.0>
76.3625

>  <SCORE.INTRA.POLAR>
0

>  <SCORE.INTRA.POLAR.0>
0

>  <SCORE.INTRA.REPUL>
-0.12705

>  <SCORE.INTRA.REPUL.0>
0.12705

>  <SCORE.INTRA.SOLV>
-5.23361

>  <SCORE.INTRA.SOLV.lig_0>
-119.383

>  <SCORE.INTRA.VDW>
3.11308

>  <SCORE.INTRA.VDW.0>
-5.10464

>  <SCORE.INTRA.norm>
-0.133494

>  <SCORE.RESTR>
0

>  <SCORE.RESTR.CAVITY>
0

>  <SCORE.RESTR.norm>
0

>  <SCORE.SYSTEM>
0

>  <SCORE.SYSTEM.CONST>
0

>  <SCORE.SYSTEM.DIHEDRAL>
0

>  <SCORE.SYSTEM.SOLV>
0

>  <SCORE.SYSTEM.norm>
0

>  <SCORE.heavy>
32

>  <SCORE.norm>
-1.19755

>  <RMSD>
2.801

$$$$
2au4_lig
 OpenBabel11021811423D
libRbt.so/2013.1/901 2013/11/27
 32 34  0  0  0  0  0  0  0  0999 V2000
   68.6132   11.8468   -0.5447 P   0  0  1  0  0  0  0  0  0  0  0  0
   68.2899   11.3167    2.0980 P   0  0  1  0  0  0  0  0  0  0  0  0
   70.5667   10.4019    3.2896 P   0  0  2  0  0  0  0  0  0  0  0  0
   68.1519    9.6897   -2.0160 C   0  0  0  0  0  0  0  0  0  0  0  0
   67.8955   10.4316   -0.8120 O   0  0  0  0  0  0  0  0  0  0  0  0
   67.2125    8.5040   -2.1802 C   0  0  0  0  0  0  0  0  0  0  0  0
   67.9091    7.3806   -2.7571 O   0  0  0  0  0  0  0  0  0  0  0  0
   66.6473    8.0746   -0.8352 C   0  0  0  0  0  0  0  0  0  0  0  0
   65.2261    8.2525   -0.7967 O   0  0  0  0  0  0  0  0  0  0  0  0
   67.0175    6.6213   -0.6587 C   0  0  0  0  0  0  0  0  0  0  0  0
   65.8505    5.8048   -0.4926 O   0  0  0  0  0  0  0  0  0  0  0  0
   67.7835    6.2205   -1.9076 C   0  0  0  0  0  0  0  0  0  0  0  0
   70.9251    4.8061    1.8601 N   0  0  0  0  0  0  0  0  0  0  0  0
   70.0612   11.6151   -0.3710 O   0  5  0  0  0  0  0  0  0  0  0  0
   67.7101   11.9401    3.3035 O   0  5  0  0  0  0  0  0  0  0  0  0
   70.1135    9.0222    3.0209 O   0  5  0  0  0  0  0  0  0  0  0  0
   69.6483    5.3101    1.9319 C   0  0  1  0  0  0  0  0  0  0  0  0
   69.1439    5.4621    3.1491 N   0  0  0  0  0  0  0  0  0  0  0  0
   68.1336   12.8171   -1.5521 O   0  0  0  0  0  0  0  0  0  0  0  0
   67.9002    9.9444    1.7126 O   0  0  0  0  0  0  0  0  0  0  0  0
   70.3737   10.9958    4.6290 O   0  0  0  0  0  0  0  0  0  0  0  0
   68.9226    5.6442    0.8677 N   0  0  0  0  0  0  0  0  0  0  0  0
   68.0152   12.2733    0.8627 O   0  0  0  0  0  0  0  0  0  0  0  0
   69.8732   11.3626    2.2252 O   0  0  0  0  0  0  0  0  0  0  0  0
   72.1221   10.5105    2.9030 O   0  0  0  0  0  0  0  0  0  0  0  0
   69.5885    5.4306   -0.2906 C   0  0  2  0  0  0  0  0  0  0  0  0
   70.8696    4.9284   -0.4525 C   0  0  2  0  0  0  0  0  0  0  0  0
   71.6286    4.5782    0.6910 C   0  0  1  0  0  0  0  0  0  0  0  0
   72.7730    4.1476    0.7401 O   0  0  0  0  0  0  0  0  0  0  0  0
   71.2083    4.8553   -1.8079 N   0  0  0  0  0  0  0  0  0  0  0  0
   70.1335    5.3089   -2.3656 C   0  0  0  0  0  0  0  0  0  0  0  0
   69.1106    5.6792   -1.5555 N   0  0  0  0  0  0  0  0  0  0  0  0
  1  5  1  6  0  0  0
  1 14  1  0  0  0  0
  1 19  2  0  0  0  0
  2 15  1  1  0  0  0
  2 20  2  0  0  0  0
  2 23  1  0  0  0  0
  3 16  1  6  0  0  0
  3 21  2  0  0  0  0
  3 24  1  0  0  0  0
  3 25  1  0  0  0  0
  4  6  1  0  0  0  0
  5  4  1  0  0  0  0
  6  7  1  0  0  0  0
  6  8  2  0  0  0  0
  7 12  1  0  0  0  0
  8  9  1  0  0  0  0
  8 10  1  0  0  0  0
 10 11  1  0  0  0  0
 10 12  2  0  0  0  0
 12 32  1  0  0  0  0
 13 17  1  0  0  0  0
 17 18  1  1  0  0  0
 17 22  1  0  0  0  0
 23  1  1  0  0  0  0
 24  2  1  0  0  0  0
 26 22  1  1  0  0  0
 27 26  1  0  0  0  0
 27 28  1  0  0  0  0
 27 30  1  1  0  0  0
 28 13  1  0  0  0  0
 28 29  1  1  0  0  0
 31 30  1  0  0  0  0
 32 26  1  0  0  0  0
 32 31  1  0  0  0  0
M  CHG  3  14  -1  15  -1  16  -1
M  END
>  <CHROM.1>
-66.73931943,176.99710019,54.12298655,-142.78317995,-170.60267062,126.28399781
60.69667930,71.38161802,69.06357800,8.58309377,0.54943043,1.76112669,-0.86734835
0.44626718

>  <Name>
2au4_lig

>  <RI>
0

>  <Rbt.Current_Directory>
/home/itssahil/PROJECTS/Mol_Feturizer/New_Systems/rnas/2au4

>  <Rbt.Executable>
rbdock ($Id: //depot/dev/client3/rdock/2013.1/src/exe/rbdock.cxx#4 $)

>  <Rbt.Library>
libRbt.so (2013.1, Build901 2013/11/27)

>  <Rbt.Parameter_File>
/export/apps/rDock/src/rDock_2013.1_src/data/scripts/dock_solv.prm

>  <Rbt.Receptor>
prm/pocket_docking_4.prm

>  <SCORE>
-43.9089

>  <SCORE.INTER>
-22.7306

>  <SCORE.INTER.CONST>
1

>  <SCORE.INTER.POLAR>
-3.19797

>  <SCORE.INTER.ROT>
8

>  <SCORE.INTER.SOLV>
30.8783

>  <SCORE.INTER.VDW>
-23.7199

>  <SCORE.INTER.norm>
-0.710332

>  <SCORE.INTRA>
-21.3513

>  <SCORE.INTRA.DIHEDRAL>
-42.4818

>  <SCORE.INTRA.DIHEDRAL.0>
76.3625

>  <SCORE.INTRA.POLAR>
0

>  <SCORE.INTRA.POLAR.0>
0

>  <SCORE.INTRA.REPUL>
-0.12705

>  <SCORE.INTRA.REPUL.0>
0.12705

>  <SCORE.INTRA.SOLV>
-2.24978

>  <SCORE.INTRA.SOLV.lig_0>
-119.383

>  <SCORE.INTRA.VDW>
1.64971

>  <SCORE.INTRA.VDW.0>
-5.10464

>  <SCORE.INTRA.norm>
-0.667229

>  <SCORE.RESTR>
0.173005

>  <SCORE.RESTR.CAVITY>
0.173005

>  <SCORE.RESTR.norm>
0.00540641

>  <SCORE.SYSTEM>
0

>  <SCORE.SYSTEM.CONST>
0

>  <SCORE.SYSTEM.DIHEDRAL>
0

>  <SCORE.SYSTEM.SOLV>
0

>  <SCORE.SYSTEM.norm>
0

>  <SCORE.heavy>
32

>  <SCORE.norm>
-1.37215

>  <RMSD>
2.815

$$$$
2au4_lig
 OpenBabel11021811423D
libRbt.so/2013.1/901 2013/11/27
 32 34  0  0  0  0  0  0  0  0999 V2000
   66.2287    8.5018   -0.0593 P   0  0  1  0  0  0  0  0  0  0  0  0
   68.5913    9.6193    0.6747 P   0  0  1  0  0  0  0  0  0  0  0  0
   68.7554    8.4628    3.1397 P   0  0  2  0  0  0  0  0  0  0  0  0
   65.2947    6.6022   -1.6561 C   0  0  0  0  0  0  0  0  0  0  0  0
   65.7650    6.9894   -0.3543 O   0  0  0  0  0  0  0  0  0  0  0  0
   66.3854    6.6759   -2.7145 C   0  0  0  0  0  0  0  0  0  0  0  0
   67.6189    7.1537   -2.1397 O   0  0  0  0  0  0  0  0  0  0  0  0
   66.6415    5.3048   -3.3202 C   0  0  0  0  0  0  0  0  0  0  0  0
   66.3138    5.2917   -4.7149 O   0  0  0  0  0  0  0  0  0  0  0  0
   68.1061    5.0071   -3.1038 C   0  0  0  0  0  0  0  0  0  0  0  0
   68.7801    4.7835   -4.3495 O   0  0  0  0  0  0  0  0  0  0  0  0
   68.6859    6.2131   -2.3851 C   0  0  0  0  0  0  0  0  0  0  0  0
   72.8228    4.1690   -0.2001 N   0  0  0  0  0  0  0  0  0  0  0  0
   66.0532    9.2970   -1.2912 O   0  5  0  0  0  0  0  0  0  0  0  0
   69.4815   10.0420   -0.4239 O   0  5  0  0  0  0  0  0  0  0  0  0
   68.1528    7.1652    2.7731 O   0  5  0  0  0  0  0  0  0  0  0  0
   72.5653    4.4059   -1.5295 C   0  0  1  0  0  0  0  0  0  0  0  0
   73.5169    4.0549   -2.3842 N   0  0  0  0  0  0  0  0  0  0  0  0
   65.6066    8.9480    1.2057 O   0  0  0  0  0  0  0  0  0  0  0  0
   67.6284   10.5761    1.2585 O   0  0  0  0  0  0  0  0  0  0  0  0
   67.9113    9.5371    3.7029 O   0  0  0  0  0  0  0  0  0  0  0  0
   71.4381    4.9508   -1.9803 N   0  0  0  0  0  0  0  0  0  0  0  0
   67.7867    8.3381    0.1976 O   0  0  0  0  0  0  0  0  0  0  0  0
   69.4905    9.0441    1.8519 O   0  0  0  0  0  0  0  0  0  0  0  0
   69.9746    8.1899    4.1495 O   0  0  0  0  0  0  0  0  0  0  0  0
   70.5770    5.2427   -0.9784 C   0  0  2  0  0  0  0  0  0  0  0  0
   70.7557    5.0387    0.3803 C   0  0  2  0  0  0  0  0  0  0  0  0
   71.9614    4.4571    0.8433 C   0  0  1  0  0  0  0  0  0  0  0  0
   72.2800    4.1829    1.9925 O   0  0  0  0  0  0  0  0  0  0  0  0
   69.6363    5.4698    1.1002 N   0  0  0  0  0  0  0  0  0  0  0  0
   68.8696    5.8966    0.1505 C   0  0  0  0  0  0  0  0  0  0  0  0
   69.3319    5.8078   -1.1215 N   0  0  0  0  0  0  0  0  0  0  0  0
  1  5  1  6  0  0  0
  1 14  1  0  0  0  0
  1 19  2  0  0  0  0
  2 15  1  6  0  0  0
  2 20  2  0  0  0  0
  2 23  1  0  0  0  0
  3 16  1  6  0  0  0
  3 21  2  0  0  0  0
  3 24  1  0  0  0  0
  3 25  1  0  0  0  0
  4  6  1  0  0  0  0
  5  4  1  0  0  0  0
  6  7  1  0  0  0  0
  6  8  2  0  0  0  0
  7 12  1  0  0  0  0
  8  9  1  0  0  0  0
  8 10  1  0  0  0  0
 10 11  1  0  0  0  0
 10 12  2  0  0  0  0
 12 32  1  0  0  0  0
 13 17  1  0  0  0  0
 17 18  1  6  0  0  0
 17 22  1  0  0  0  0
 23  1  1  0  0  0  0
 24  2  1  0  0  0  0
 26 22  1  6  0  0  0
 27 26  1  0  0  0  0
 27 28  1  0  0  0  0
 27 30  1  6  0  0  0
 28 13  1  0  0  0  0
 28 29  1  6  0  0  0
 31 30  1  0  0  0  0
 32 26  1  0  0  0  0
 32 31  1  0  0  0  0
M  CHG  3  14  -1  15  -1  16  -1
M  END
>  <CHROM.1>
0.82353007,-110.65127925,73.27852766,-1.45880640,66.12523079,-160.62510590
-173.90240646,-177.55849223,68.70544045,7.03075912,-0.12121024,2.18968265
-0.53995660,0.99421990

>  <Name>
2au4_lig

>  <RI>
0

>  <Rbt.Current_Directory>
/home/itssahil/PROJECTS/Mol_Feturizer/New_Systems/rnas/2au4

>  <Rbt.Executable>
rbdock ($Id: //depot/dev/client3/rdock/2013.1/src/exe/rbdock.cxx#4 $)

>  <Rbt.Library>
libRbt.so (2013.1, Build901 2013/11/27)

>  <Rbt.Parameter_File>
/export/apps/rDock/src/rDock_2013.1_src/data/scripts/dock_solv.prm

>  <Rbt.Receptor>
prm/pocket_docking_2.prm

>  <SCORE>
-38.7046

>  <SCORE.INTER>
-34.0575

>  <SCORE.INTER.CONST>
1

>  <SCORE.INTER.POLAR>
-3.22511

>  <SCORE.INTER.ROT>
8

>  <SCORE.INTER.SOLV>
34.3199

>  <SCORE.INTER.VDW>
-32.3279

>  <SCORE.INTER.norm>
-1.0643

>  <SCORE.INTRA>
-6.88278

>  <SCORE.INTRA.DIHEDRAL>
-19.0621

>  <SCORE.INTRA.DIHEDRAL.0>
76.3625

>  <SCORE.INTRA.POLAR>
0

>  <SCORE.INTRA.POLAR.0>
0

>  <SCORE.INTRA.REPUL>
-0.12705

>  <SCORE.INTRA.REPUL.0>
0.12705

>  <SCORE.INTRA.SOLV>
5.93022

>  <SCORE.INTRA.SOLV.lig_0>
-119.383

>  <SCORE.INTRA.VDW>
0.318381

>  <SCORE.INTRA.VDW.0>
-5.10464

>  <SCORE.INTRA.norm>
-0.215087

>  <SCORE.RESTR>
2.2356

>  <SCORE.RESTR.CAVITY>
2.2356

>  <SCORE.RESTR.norm>
0.0698626

>  <SCORE.SYSTEM>
0

>  <SCORE.SYSTEM.CONST>
0

>  <SCORE.SYSTEM.DIHEDRAL>
0

>  <SCORE.SYSTEM.SOLV>
0

>  <SCORE.SYSTEM.norm>
0

>  <SCORE.heavy>
32

>  <SCORE.norm>
-1.20952

>  <RMSD>
2.977

$$$$
2au4_lig
 OpenBabel11021811423D
libRbt.so/2013.1/901 2013/11/27
 32 34  0  0  0  0  0  0  0  0999 V2000
   68.2553   11.4496   -0.2851 P   0  0  1  0  0  0  0  0  0  0  0  0
   69.4184   10.8095    2.0828 P   0  0  1  0  0  0  0  0  0  0  0  0
   69.9512    9.3544    4.3277 P   0  0  2  0  0  0  0  0  0  0  0  0
   68.2122    9.5350   -2.1189 C   0  0  0  0  0  0  0  0  0  0  0  0
   67.5143   10.5759   -1.4151 O   0  0  0  0  0  0  0  0  0  0  0  0
   67.3377    8.3154   -2.3706 C   0  0  0  0  0  0  0  0  0  0  0  0
   68.1233    7.2286   -2.9016 O   0  0  0  0  0  0  0  0  0  0  0  0
   66.6849    7.8454   -1.0800 C   0  0  0  0  0  0  0  0  0  0  0  0
   65.2591    7.9663   -1.1539 O   0  0  0  0  0  0  0  0  0  0  0  0
   67.0985    6.4056   -0.8898 C   0  0  0  0  0  0  0  0  0  0  0  0
   65.9561    5.5412   -0.8266 O   0  0  0  0  0  0  0  0  0  0  0  0
   67.9774    6.0527   -2.0773 C   0  0  0  0  0  0  0  0  0  0  0  0
   70.9174    4.8649    1.9242 N   0  0  0  0  0  0  0  0  0  0  0  0
   69.4030   12.1432   -0.9034 O   0  5  0  0  0  0  0  0  0  0  0  0
   70.6096   11.6403    1.8204 O   0  5  0  0  0  0  0  0  0  0  0  0
   68.5626    9.3524    4.8306 O   0  5  0  0  0  0  0  0  0  0  0  0
   69.6271    5.3384    1.8997 C   0  0  1  0  0  0  0  0  0  0  0  0
   69.0465    5.5238    3.0776 N   0  0  0  0  0  0  0  0  0  0  0  0
   67.2365   12.2209    0.4588 O   0  0  0  0  0  0  0  0  0  0  0  0
   68.3066   11.3436    2.8966 O   0  0  0  0  0  0  0  0  0  0  0  0
   70.9095   10.3726    4.8064 O   0  0  0  0  0  0  0  0  0  0  0  0
   68.9596    5.6126    0.7817 N   0  0  0  0  0  0  0  0  0  0  0  0
   68.8268   10.3345    0.6897 O   0  0  0  0  0  0  0  0  0  0  0  0
   69.8977    9.4436    2.7384 O   0  0  0  0  0  0  0  0  0  0  0  0
   70.5849    7.8998    4.5789 O   0  0  0  0  0  0  0  0  0  0  0  0
   69.6991    5.3721   -0.3255 C   0  0  2  0  0  0  0  0  0  0  0  0
   70.9991    4.8972   -0.3907 C   0  0  2  0  0  0  0  0  0  0  0  0
   71.6955    4.6106    0.8090 C   0  0  1  0  0  0  0  0  0  0  0  0
   72.8445    4.2117    0.9434 O   0  0  0  0  0  0  0  0  0  0  0  0
   71.4208    4.7809   -1.7195 N   0  0  0  0  0  0  0  0  0  0  0  0
   70.3715    5.1850   -2.3578 C   0  0  0  0  0  0  0  0  0  0  0  0
   69.2930    5.5596   -1.6255 N   0  0  0  0  0  0  0  0  0  0  0  0
  1  5  1  6  0  0  0
  1 14  1  0  0  0  0
  1 19  2  0  0  0  0
  2 15  1  6  0  0  0
  2 20  2  0  0  0  0
  2 23  1  0  0  0  0
  3 16  1  1  0  0  0
  3 21  2  0  0  0  0
  3 24  1  0  0  0  0
  3 25  1  0  0  0  0
  4  6  1  0  0  0  0
  5  4  1  0  0  0  0
  6  7  1  0  0  0  0
  6  8  2  0  0  0  0
  7 12  1  0  0  0  0
  8  9  1  0  0  0  0
  8 10  1  0  0  0  0
 10 11  1  0  0  0  0
 10 12  2  0  0  0  0
 12 32  1  0  0  0  0
 13 17  1  0  0  0  0
 17 18  1  1  0  0  0
 17 22  1  0  0  0  0
 23  1  1  0  0  0  0
 24  2  1  0  0  0  0
 26 22  1  1  0  0  0
 27 26  1  0  0  0  0
 27 28  1  0  0  0  0
 27 30  1  1  0  0  0
 28 13  1  0  0  0  0
 28 29  1  1  0  0  0
 31 30  1  0  0  0  0
 32 26  1  0  0  0  0
 32 31  1  0  0  0  0
M  CHG  3  14  -1  15  -1  16  -1
M  END
>  <CHROM.1>
60.04875705,-64.73407720,70.02605856,-171.71679101,141.39554582,123.00272598
-169.58941584,92.35104626,69.10975853,8.24256994,0.72787275,1.69409115,-0.99415651
0.60392848

>  <Name>
2au4_lig

>  <RI>
0

>  <Rbt.Current_Directory>
/home/itssahil/PROJECTS/Mol_Feturizer/New_Systems/rnas/2au4

>  <Rbt.Executable>
rbdock ($Id: //depot/dev/client3/rdock/2013.1/src/exe/rbdock.cxx#4 $)

>  <Rbt.Library>
libRbt.so (2013.1, Build901 2013/11/27)

>  <Rbt.Parameter_File>
/export/apps/rDock/src/rDock_2013.1_src/data/scripts/dock_solv.prm

>  <Rbt.Receptor>
prm/pocket_docking_4.prm

>  <SCORE>
-44.0281

>  <SCORE.INTER>
-26.1871

>  <SCORE.INTER.CONST>
1

>  <SCORE.INTER.POLAR>
-3.03263

>  <SCORE.INTER.ROT>
8

>  <SCORE.INTER.SOLV>
29.1012

>  <SCORE.INTER.VDW>
-25.9831

>  <SCORE.INTER.norm>
-0.818347

>  <SCORE.INTRA>
-18.0855

>  <SCORE.INTRA.DIHEDRAL>
-34.3061

>  <SCORE.INTRA.DIHEDRAL.0>
76.3625

>  <SCORE.INTRA.POLAR>
0

>  <SCORE.INTRA.POLAR.0>
0

>  <SCORE.INTRA.REPUL>
-0.12705

>  <SCORE.INTRA.REPUL.0>
0.12705

>  <SCORE.INTRA.SOLV>
-2.89492

>  <SCORE.INTRA.SOLV.lig_0>
-119.383

>  <SCORE.INTRA.VDW>
1.1502

>  <SCORE.INTRA.VDW.0>
-5.10464

>  <SCORE.INTRA.norm>
-0.565173

>  <SCORE.RESTR>
0.244537

>  <SCORE.RESTR.CAVITY>
0.244537

>  <SCORE.RESTR.norm>
0.00764178

>  <SCORE.SYSTEM>
0

>  <SCORE.SYSTEM.CONST>
0

>  <SCORE.SYSTEM.DIHEDRAL>
0

>  <SCORE.SYSTEM.SOLV>
0

>  <SCORE.SYSTEM.norm>
0

>  <SCORE.heavy>
32

>  <SCORE.norm>
-1.37588

>  <RMSD>
2.983

$$$$
2au4_lig
 OpenBabel11021811423D
libRbt.so/2013.1/901 2013/11/27
 32 34  0  0  0  0  0  0  0  0999 V2000
   68.9019   11.2466   -0.2791 P   0  0  1  0  0  0  0  0  0  0  0  0
   71.4588   11.9889    0.2510 P   0  0  1  0  0  0  0  0  0  0  0  0
   71.7900   13.4312    2.5424 P   0  0  2  0  0  0  0  0  0  0  0  0
   68.0330    9.5072   -2.0819 C   0  0  0  0  0  0  0  0  0  0  0  0
   68.2146    9.8535   -0.6988 O   0  0  0  0  0  0  0  0  0  0  0  0
   67.1550    8.2778   -2.2635 C   0  0  0  0  0  0  0  0  0  0  0  0
   67.9196    7.1846   -2.8118 O   0  0  0  0  0  0  0  0  0  0  0  0
   66.5721    7.8310   -0.9319 C   0  0  0  0  0  0  0  0  0  0  0  0
   65.1436    7.9423   -0.9351 O   0  0  0  0  0  0  0  0  0  0  0  0
   67.0044    6.3978   -0.7338 C   0  0  0  0  0  0  0  0  0  0  0  0
   65.8726    5.5285   -0.5946 O   0  0  0  0  0  0  0  0  0  0  0  0
   67.8238    6.0253   -1.9574 C   0  0  0  0  0  0  0  0  0  0  0  0
   70.9374    4.8383    1.9108 N   0  0  0  0  0  0  0  0  0  0  0  0
   68.7871   12.1882   -1.4109 O   0  5  0  0  0  0  0  0  0  0  0  0
   72.8231   11.4950   -0.0187 O   0  5  0  0  0  0  0  0  0  0  0  0
   71.8530   13.1674    3.9942 O   0  5  0  0  0  0  0  0  0  0  0  0
   69.6395    5.2901    1.9427 C   0  0  1  0  0  0  0  0  0  0  0  0
   69.1026    5.4511    3.1447 N   0  0  0  0  0  0  0  0  0  0  0  0
   68.4066   11.6330    1.0594 O   0  0  0  0  0  0  0  0  0  0  0  0
   70.9924   13.2502   -0.3616 O   0  0  0  0  0  0  0  0  0  0  0  0
   70.9914   14.5646    2.0309 O   0  0  0  0  0  0  0  0  0  0  0  0
   68.9243    5.5667    0.8552 N   0  0  0  0  0  0  0  0  0  0  0  0
   70.4305   10.8437   -0.1330 O   0  0  0  0  0  0  0  0  0  0  0  0
   71.2730   12.1066    1.8248 O   0  0  0  0  0  0  0  0  0  0  0  0
   73.2902   13.5722    1.9858 O   0  0  0  0  0  0  0  0  0  0  0  0
   69.6238    5.3524   -0.2829 C   0  0  2  0  0  0  0  0  0  0  0  0
   70.9279    4.9004   -0.4048 C   0  0  2  0  0  0  0  0  0  0  0  0
   71.6753    4.6109    0.7630 C   0  0  1  0  0  0  0  0  0  0  0  0
   72.8352    4.2299    0.8473 O   0  0  0  0  0  0  0  0  0  0  0  0
   71.2991    4.8076   -1.7505 N   0  0  0  0  0  0  0  0  0  0  0  0
   70.2190    5.2017   -2.3421 C   0  0  0  0  0  0  0  0  0  0  0  0
   69.1641    5.5490   -1.5635 N   0  0  0  0  0  0  0  0  0  0  0  0
  1  5  1  6  0  0  0
  1 14  1  0  0  0  0
  1 19  2  0  0  0  0
  2 15  1  6  0  0  0
  2 20  2  0  0  0  0
  2 23  1  0  0  0  0
  3 16  1  1  0  0  0
  3 21  2  0  0  0  0
  3 24  1  0  0  0  0
  3 25  1  0  0  0  0
  4  6  1  0  0  0  0
  5  4  1  0  0  0  0
  6  7  1  0  0  0  0
  6  8  2  0  0  0  0
  7 12  1  0  0  0  0
  8  9  1  0  0  0  0
  8 10  1  0  0  0  0
 10 11  1  0  0  0  0
 10 12  2  0  0  0  0
 12 32  1  0  0  0  0
 13 17  1  0  0  0  0
 17 18  1  1  0  0  0
 17 22  1  0  0  0  0
 23  1  1  0  0  0  0
 24  2  1  0  0  0  0
 26 22  1  1  0  0  0
 27 26  1  0  0  0  0
 27 28  1  0  0  0  0
 27 30  1  1  0  0  0
 28 13  1  0  0  0  0
 28 29  1  1  0  0  0
 31 30  1  0  0  0  0
 32 26  1  0  0  0  0
 32 31  1  0  0  0  0
M  CHG  3  14  -1  15  -1  16  -1
M  END
>  <CHROM.1>
21.34432750,-165.04336025,-164.82897191,-113.64625623,-169.96009780,125.11550713
178.71156687,84.05144408,69.81022577,9.07581196,0.16347682,1.21731218,-0.56661754
0.06014581

>  <Name>
2au4_lig

>  <RI>
0

>  <Rbt.Current_Directory>
/home/itssahil/PROJECTS/Mol_Feturizer/New_Systems/rnas/2au4

>  <Rbt.Executable>
rbdock ($Id: //depot/dev/client3/rdock/2013.1/src/exe/rbdock.cxx#4 $)

>  <Rbt.Library>
libRbt.so (2013.1, Build901 2013/11/27)

>  <Rbt.Parameter_File>
/export/apps/rDock/src/rDock_2013.1_src/data/scripts/dock_solv.prm

>  <Rbt.Receptor>
prm/pocket_docking_3.prm

>  <SCORE>
-45.186

>  <SCORE.INTER>
-26.1231

>  <SCORE.INTER.CONST>
1

>  <SCORE.INTER.POLAR>
-3.3728

>  <SCORE.INTER.ROT>
8

>  <SCORE.INTER.SOLV>
35.8576

>  <SCORE.INTER.VDW>
-27.0586

>  <SCORE.INTER.norm>
-0.816347

>  <SCORE.INTRA>
-20.3597

>  <SCORE.INTRA.DIHEDRAL>
-39.5002

>  <SCORE.INTRA.DIHEDRAL.0>
76.3625

>  <SCORE.INTRA.POLAR>
0

>  <SCORE.INTRA.POLAR.0>
0

>  <SCORE.INTRA.REPUL>
-0.12705

>  <SCORE.INTRA.REPUL.0>
0.12705

>  <SCORE.INTRA.SOLV>
-5.16964

>  <SCORE.INTRA.SOLV.lig_0>
-119.383

>  <SCORE.INTRA.VDW>
2.61042

>  <SCORE.INTRA.VDW.0>
-5.10464

>  <SCORE.INTRA.norm>
-0.636241

>  <SCORE.RESTR>
1.29683

>  <SCORE.RESTR.CAVITY>
1.29683

>  <SCORE.RESTR.norm>
0.0405261

>  <SCORE.SYSTEM>
0

>  <SCORE.SYSTEM.CONST>
0

>  <SCORE.SYSTEM.DIHEDRAL>
0

>  <SCORE.SYSTEM.SOLV>
0

>  <SCORE.SYSTEM.norm>
0

>  <SCORE.heavy>
32

>  <SCORE.norm>
-1.41206

>  <RMSD>
3.016

$$$$
2au4_lig
 OpenBabel11021811423D
libRbt.so/2013.1/901 2013/11/27
 32 34  0  0  0  0  0  0  0  0999 V2000
   67.6913   12.0173   -1.7636 P   0  0  1  0  0  0  0  0  0  0  0  0
   68.0479   12.9551    0.7588 P   0  0  1  0  0  0  0  0  0  0  0  0
   69.0126   13.5033    3.2507 P   0  0  2  0  0  0  0  0  0  0  0  0
   68.5291    9.5017   -1.7445 C   0  0  0  0  0  0  0  0  0  0  0  0
   68.2650   10.7013   -2.4907 O   0  0  0  0  0  0  0  0  0  0  0  0
   67.6904    8.3243   -2.2198 C   0  0  0  0  0  0  0  0  0  0  0  0
   68.5317    7.2944   -2.7780 O   0  0  0  0  0  0  0  0  0  0  0  0
   66.9034    7.7232   -1.0657 C   0  0  0  0  0  0  0  0  0  0  0  0
   65.4935    7.8640   -1.2790 O   0  0  0  0  0  0  0  0  0  0  0  0
   67.2981    6.2676   -0.9896 C   0  0  0  0  0  0  0  0  0  0  0  0
   66.1581    5.4116   -1.1440 O   0  0  0  0  0  0  0  0  0  0  0  0
   68.3011    6.0376   -2.1069 C   0  0  0  0  0  0  0  0  0  0  0  0
   70.9507    4.7926    2.0759 N   0  0  0  0  0  0  0  0  0  0  0  0
   67.9803   13.1892   -2.6145 O   0  5  0  0  0  0  0  0  0  0  0  0
   68.0286   14.3802    0.3760 O   0  5  0  0  0  0  0  0  0  0  0  0
   69.9651   12.9049    4.2078 O   0  5  0  0  0  0  0  0  0  0  0  0
   69.6911    5.3327    1.9698 C   0  0  1  0  0  0  0  0  0  0  0  0
   69.0581    5.5766    3.1095 N   0  0  0  0  0  0  0  0  0  0  0  0
   66.3069   11.7463   -1.3208 O   0  0  0  0  0  0  0  0  0  0  0  0
   66.8140   12.3002    1.2409 O   0  0  0  0  0  0  0  0  0  0  0  0
   67.5712   13.5495    3.5731 O   0  0  0  0  0  0  0  0  0  0  0  0
   69.1011    5.6149    0.8109 N   0  0  0  0  0  0  0  0  0  0  0  0
   68.6040   12.1180   -0.4686 O   0  0  0  0  0  0  0  0  0  0  0  0
   69.1772   12.7491    1.8576 O   0  0  0  0  0  0  0  0  0  0  0  0
   69.5061   14.9929    2.9065 O   0  0  0  0  0  0  0  0  0  0  0  0
   69.8858    5.3092   -0.2481 C   0  0  2  0  0  0  0  0  0  0  0  0
   71.1598    4.7650   -0.2309 C   0  0  2  0  0  0  0  0  0  0  0  0
   71.7734    4.4709    1.0113 C   0  0  1  0  0  0  0  0  0  0  0  0
   72.8903    4.0154    1.2178 O   0  0  0  0  0  0  0  0  0  0  0  0
   71.6463    4.5948   -1.5315 N   0  0  0  0  0  0  0  0  0  0  0  0
   70.6566    5.0383   -2.2356 C   0  0  0  0  0  0  0  0  0  0  0  0
   69.5617    5.4867   -1.5724 N   0  0  0  0  0  0  0  0  0  0  0  0
  1  5  1  6  0  0  0
  1 14  1  0  0  0  0
  1 19  2  0  0  0  0
  2 15  1  6  0  0  0
  2 20  2  0  0  0  0
  2 23  1  0  0  0  0
  3 16  1  1  0  0  0
  3 21  2  0  0  0  0
  3 24  1  0  0  0  0
  3 25  1  0  0  0  0
  4  6  1  0  0  0  0
  5  4  1  0  0  0  0
  6  7  1  0  0  0  0
  6  8  2  0  0  0  0
  7 12  1  0  0  0  0
  8  9  1  0  0  0  0
  8 10  1  0  0  0  0
 10 11  1  0  0  0  0
 10 12  2  0  0  0  0
 12 32  1  0  0  0  0
 13 17  1  0  0  0  0
 17 18  1  1  0  0  0
 17 22  1  0  0  0  0
 23  1  1  0  0  0  0
 24  2  1  0  0  0  0
 26 22  1  1  0  0  0
 27 26  1  0  0  0  0
 27 28  1  0  0  0  0
 27 30  1  1  0  0  0
 28 13  1  0  0  0  0
 28 29  1  1  0  0  0
 31 30  1  0  0  0  0
 32 26  1  0  0  0  0
 32 31  1  0  0  0  0
M  CHG  3  14  -1  15  -1  16  -1
M  END
>  <CHROM.1>
159.50716815,-68.89941814,165.79966598,115.15846592,118.71978525,114.38741316
-158.68506031,63.09598875,68.73824894,9.34055031,0.12174489,1.93984967,-0.99675879
0.50293681

>  <Name>
2au4_lig

>  <RI>
0

>  <Rbt.Current_Directory>
/home/itssahil/PROJECTS/Mol_Feturizer/New_Systems/rnas/2au4

>  <Rbt.Executable>
rbdock ($Id: //depot/dev/client3/rdock/2013.1/src/exe/rbdock.cxx#4 $)

>  <Rbt.Library>
libRbt.so (2013.1, Build901 2013/11/27)

>  <Rbt.Parameter_File>
/export/apps/rDock/src/rDock_2013.1_src/data/scripts/dock_solv.prm

>  <Rbt.Receptor>
prm/pocket_docking_4.prm

>  <SCORE>
-37.7141

>  <SCORE.INTER>
-24.248

>  <SCORE.INTER.CONST>
1

>  <SCORE.INTER.POLAR>
-2.56485

>  <SCORE.INTER.ROT>
8

>  <SCORE.INTER.SOLV>
33.8158

>  <SCORE.INTER.VDW>
-27.8211

>  <SCORE.INTER.norm>
-0.757751

>  <SCORE.INTRA>
-13.9458

>  <SCORE.INTRA.DIHEDRAL>
-25.897

>  <SCORE.INTRA.DIHEDRAL.0>
76.3625

>  <SCORE.INTRA.POLAR>
0

>  <SCORE.INTRA.POLAR.0>
0

>  <SCORE.INTRA.REPUL>
-0.12705

>  <SCORE.INTRA.REPUL.0>
0.12705

>  <SCORE.INTRA.SOLV>
-4.43355

>  <SCORE.INTRA.SOLV.lig_0>
-119.383

>  <SCORE.INTRA.VDW>
1.85474

>  <SCORE.INTRA.VDW.0>
-5.10464

>  <SCORE.INTRA.norm>
-0.435807

>  <SCORE.RESTR>
0.479775

>  <SCORE.RESTR.CAVITY>
0.479775

>  <SCORE.RESTR.norm>
0.014993

>  <SCORE.SYSTEM>
0

>  <SCORE.SYSTEM.CONST>
0

>  <SCORE.SYSTEM.DIHEDRAL>
0

>  <SCORE.SYSTEM.SOLV>
0

>  <SCORE.SYSTEM.norm>
0

>  <SCORE.heavy>
32

>  <SCORE.norm>
-1.17856

>  <RMSD>
3.033

$$$$
2au4_lig
 OpenBabel11021811423D
libRbt.so/2013.1/901 2013/11/27
 32 34  0  0  0  0  0  0  0  0999 V2000
   68.0291   11.8304   -0.9469 P   0  0  1  0  0  0  0  0  0  0  0  0
   67.8528   11.4037    1.7283 P   0  0  1  0  0  0  0  0  0  0  0  0
   68.1777    9.9082    3.9863 P   0  0  2  0  0  0  0  0  0  0  0  0
   67.9503    9.4314   -2.0733 C   0  0  0  0  0  0  0  0  0  0  0  0
   67.3368   10.4015   -1.2083 O   0  0  0  0  0  0  0  0  0  0  0  0
   67.0834    8.1963   -2.2698 C   0  0  0  0  0  0  0  0  0  0  0  0
   67.8577    7.1169   -2.8315 O   0  0  0  0  0  0  0  0  0  0  0  0
   66.5048    7.7280   -0.9437 C   0  0  0  0  0  0  0  0  0  0  0  0
   65.0754    7.8264   -0.9453 O   0  0  0  0  0  0  0  0  0  0  0  0
   66.9502    6.2965   -0.7632 C   0  0  0  0  0  0  0  0  0  0  0  0
   65.8263    5.4153   -0.6344 O   0  0  0  0  0  0  0  0  0  0  0  0
   67.7727    5.9464   -1.9912 C   0  0  0  0  0  0  0  0  0  0  0  0
   70.9406    4.8650    1.8638 N   0  0  0  0  0  0  0  0  0  0  0  0
   69.0660   12.0466   -1.9759 O   0  5  0  0  0  0  0  0  0  0  0  0
   67.5701   12.7307    2.3090 O   0  5  0  0  0  0  0  0  0  0  0  0
   67.2733   10.8740    4.6426 O   0  5  0  0  0  0  0  0  0  0  0  0
   69.6447    5.3219    1.9016 C   0  0  1  0  0  0  0  0  0  0  0  0
   69.1264    5.5206    3.1061 N   0  0  0  0  0  0  0  0  0  0  0  0
   66.9675   12.8388   -0.7413 O   0  0  0  0  0  0  0  0  0  0  0  0
   66.7407   10.5003    1.3670 O   0  0  0  0  0  0  0  0  0  0  0  0
   69.2718    9.2795    4.7555 O   0  0  0  0  0  0  0  0  0  0  0  0
   68.9140    5.5684    0.8171 N   0  0  0  0  0  0  0  0  0  0  0  0
   68.7614   11.6065    0.4438 O   0  0  0  0  0  0  0  0  0  0  0  0
   68.8215   10.6229    2.7168 O   0  0  0  0  0  0  0  0  0  0  0  0
   67.2871    8.7467    3.3242 O   0  0  0  0  0  0  0  0  0  0  0  0
   69.5957    5.3177   -0.3245 C   0  0  2  0  0  0  0  0  0  0  0  0
   70.8964    4.8578   -0.4523 C   0  0  2  0  0  0  0  0  0  0  0  0
   71.6605    4.6008    0.7124 C   0  0  1  0  0  0  0  0  0  0  0  0
   72.8203    4.2186    0.7907 O   0  0  0  0  0  0  0  0  0  0  0  0
   71.2471    4.7236   -1.7999 N   0  0  0  0  0  0  0  0  0  0  0  0
   70.1594    5.1035   -2.3869 C   0  0  0  0  0  0  0  0  0  0  0  0
   69.1173    5.4775   -1.6034 N   0  0  0  0  0  0  0  0  0  0  0  0
  1  5  1  6  0  0  0
  1 14  1  0  0  0  0
  1 19  2  0  0  0  0
  2 15  1  1  0  0  0
  2 20  2  0  0  0  0
  2 23  1  0  0  0  0
  3 16  1  1  0  0  0
  3 21  2  0  0  0  0
  3 24  1  0  0  0  0
  3 25  1  0  0  0  0
  4  6  1  0  0  0  0
  5  4  1  0  0  0  0
  6  7  1  0  0  0  0
  6  8  2  0  0  0  0
  7 12  1  0  0  0  0
  8  9  1  0  0  0  0
  8 10  1  0  0  0  0
 10 11  1  0  0  0  0
 10 12  2  0  0  0  0
 12 32  1  0  0  0  0
 13 17  1  0  0  0  0
 17 18  1  6  0  0  0
 17 22  1  0  0  0  0
 23  1  1  0  0  0  0
 24  2  1  0  0  0  0
 26 22  1  6  0  0  0
 27 26  1  0  0  0  0
 27 28  1  0  0  0  0
 27 30  1  6  0  0  0
 28 13  1  0  0  0  0
 28 29  1  6  0  0  0
 31 30  1  0  0  0  0
 32 26  1  0  0  0  0
 32 31  1  0  0  0  0
M  CHG  3  14  -1  15  -1  16  -1
M  END
>  <CHROM.1>
15.41867531,-88.93580723,-47.89569917,-164.66769702,-175.51291736,122.46274994
-67.71307610,80.72186246,68.43561269,8.43349591,0.51043726,2.39970580,-1.12062151
1.05300014

>  <Name>
2au4_lig

>  <RI>
0

>  <Rbt.Current_Directory>
/home/itssahil/PROJECTS/Mol_Feturizer/New_Systems/rnas/2au4

>  <Rbt.Executable>
rbdock ($Id: //depot/dev/client3/rdock/2013.1/src/exe/rbdock.cxx#4 $)

>  <Rbt.Library>
libRbt.so (2013.1, Build901 2013/11/27)

>  <Rbt.Parameter_File>
/export/apps/rDock/src/rDock_2013.1_src/data/scripts/dock_solv.prm

>  <Rbt.Receptor>
prm/pocket_docking_3.prm

>  <SCORE>
-41.6168

>  <SCORE.INTER>
-22.0751

>  <SCORE.INTER.CONST>
1

>  <SCORE.INTER.POLAR>
-2.7063

>  <SCORE.INTER.ROT>
8

>  <SCORE.INTER.SOLV>
29.2384

>  <SCORE.INTER.VDW>
-24.3752

>  <SCORE.INTER.norm>
-0.689848

>  <SCORE.INTRA>
-19.7701

>  <SCORE.INTRA.DIHEDRAL>
-37.3521

>  <SCORE.INTRA.DIHEDRAL.0>
76.3625

>  <SCORE.INTRA.POLAR>
0

>  <SCORE.INTRA.POLAR.0>
0

>  <SCORE.INTRA.REPUL>
-0.123571

>  <SCORE.INTRA.REPUL.0>
0.12705

>  <SCORE.INTRA.SOLV>
-4.64258

>  <SCORE.INTRA.SOLV.lig_0>
-119.383

>  <SCORE.INTRA.VDW>
1.84514

>  <SCORE.INTRA.VDW.0>
-5.10464

>  <SCORE.INTRA.norm>
-0.617815

>  <SCORE.RESTR>
0.228414

>  <SCORE.RESTR.CAVITY>
0.228414

>  <SCORE.RESTR.norm>
0.00713793

>  <SCORE.SYSTEM>
0

>  <SCORE.SYSTEM.CONST>
0

>  <SCORE.SYSTEM.DIHEDRAL>
0

>  <SCORE.SYSTEM.SOLV>
0

>  <SCORE.SYSTEM.norm>
0

>  <SCORE.heavy>
32

>  <SCORE.norm>
-1.30052

>  <RMSD>
3.100

$$$$
2au4_lig
 OpenBabel11021811423D
libRbt.so/2013.1/901 2013/11/27
 32 34  0  0  0  0  0  0  0  0999 V2000
   68.0019    8.0686    3.7616 P   0  0  1  0  0  0  0  0  0  0  0  0
   69.7052   10.0221    2.9540 P   0  0  1  0  0  0  0  0  0  0  0  0
   68.5591   11.8978    1.3388 P   0  0  2  0  0  0  0  0  0  0  0  0
   66.7883    7.3752    1.5084 C   0  0  0  0  0  0  0  0  0  0  0  0
   66.9933    8.3541    2.5407 O   0  0  0  0  0  0  0  0  0  0  0  0
   66.2241    7.9839    0.2331 C   0  0  0  0  0  0  0  0  0  0  0  0
   67.2419    8.0605   -0.7860 O   0  0  0  0  0  0  0  0  0  0  0  0
   65.0757    7.1432   -0.3026 C   0  0  0  0  0  0  0  0  0  0  0  0
   63.8481    7.8818   -0.2836 O   0  0  0  0  0  0  0  0  0  0  0  0
   65.4518    6.7515   -1.7117 C   0  0  0  0  0  0  0  0  0  0  0  0
   64.4787    7.2158   -2.6570 O   0  0  0  0  0  0  0  0  0  0  0  0
   66.8088    7.3782   -1.9819 C   0  0  0  0  0  0  0  0  0  0  0  0
   70.7888    4.5164   -0.5549 N   0  0  0  0  0  0  0  0  0  0  0  0
   67.6953    9.0116    4.8560 O   0  5  0  0  0  0  0  0  0  0  0  0
   69.6670   10.6690    4.2799 O   0  5  0  0  0  0  0  0  0  0  0  0
   67.1911   12.4005    1.1001 O   0  5  0  0  0  0  0  0  0  0  0  0
   70.0799    5.4469    0.1671 C   0  0  1  0  0  0  0  0  0  0  0  0
   70.4757    5.6469    1.4170 N   0  0  0  0  0  0  0  0  0  0  0  0
   68.0274    6.6135    4.0225 O   0  0  0  0  0  0  0  0  0  0  0  0
   70.9018   10.1570    2.0975 O   0  0  0  0  0  0  0  0  0  0  0  0
   69.4827   11.6994    0.2023 O   0  0  0  0  0  0  0  0  0  0  0  0
   69.0503    6.1349   -0.3199 N   0  0  0  0  0  0  0  0  0  0  0  0
   69.4076    8.4758    3.1465 O   0  0  0  0  0  0  0  0  0  0  0  0
   68.4446   10.5156    2.1218 O   0  0  0  0  0  0  0  0  0  0  0  0
   69.2721   12.8550    2.4141 O   0  0  0  0  0  0  0  0  0  0  0  0
   68.7845    5.8121   -1.6066 C   0  0  2  0  0  0  0  0  0  0  0  0
   69.4446    4.8911   -2.4040 C   0  0  2  0  0  0  0  0  0  0  0  0
   70.5390    4.1675   -1.8700 C   0  0  1  0  0  0  0  0  0  0  0  0
   71.2480    3.3412   -2.4285 O   0  0  0  0  0  0  0  0  0  0  0  0
   68.8756    4.8396   -3.6810 N   0  0  0  0  0  0  0  0  0  0  0  0
   67.9293    5.7144   -3.5755 C   0  0  0  0  0  0  0  0  0  0  0  0
   67.7880    6.3504   -2.3859 N   0  0  0  0  0  0  0  0  0  0  0  0
  1  5  1  6  0  0  0
  1 14  1  0  0  0  0
  1 19  2  0  0  0  0
  2 15  1  1  0  0  0
  2 20  2  0  0  0  0
  2 23  1  0  0  0  0
  3 16  1  6  0  0  0
  3 21  2  0  0  0  0
  3 24  1  0  0  0  0
  3 25  1  0  0  0  0
  4  6  1  0  0  0  0
  5  4  1  0  0  0  0
  6  7  1  0  0  0  0
  6  8  2  0  0  0  0
  7 12  1  0  0  0  0
  8  9  1  0  0  0  0
  8 10  1  0  0  0  0
 10 11  1  0  0  0  0
 10 12  2  0  0  0  0
 12 32  1  0  0  0  0
 13 17  1  0  0  0  0
 17 18  1  6  0  0  0
 17 22  1  0  0  0  0
 23  1  1  0  0  0  0
 24  2  1  0  0  0  0
 26 22  1  6  0  0  0
 27 26  1  0  0  0  0
 27 28  1  0  0  0  0
 27 30  1  6  0  0  0
 28 13  1  0  0  0  0
 28 29  1  6  0  0  0
 31 30  1  0  0  0  0
 32 26  1  0  0  0  0
 32 31  1  0  0  0  0
M  CHG  3  14  -1  15  -1  16  -1
M  END
>  <CHROM.1>
-162.05830488,61.33247366,-158.31502032,105.83877135,-159.55405445,17.02695485
73.40149010,84.22034403,68.32638757,8.05509739,0.68630304,-1.53782509,0.56088184
-2.41461034

>  <Name>
2au4_lig

>  <RI>
0

>  <Rbt.Current_Directory>
/home/itssahil/PROJECTS/Mol_Feturizer/New_Systems/rnas/2au4

>  <Rbt.Executable>
rbdock ($Id: //depot/dev/client3/rdock/2013.1/src/exe/rbdock.cxx#4 $)

>  <Rbt.Library>
libRbt.so (2013.1, Build901 2013/11/27)

>  <Rbt.Parameter_File>
/export/apps/rDock/src/rDock_2013.1_src/data/scripts/dock_solv.prm

>  <Rbt.Receptor>
prm/pocket_docking_3.prm

>  <SCORE>
-27.8412

>  <SCORE.INTER>
-14.7803

>  <SCORE.INTER.CONST>
1

>  <SCORE.INTER.POLAR>
-0.828328

>  <SCORE.INTER.ROT>
8

>  <SCORE.INTER.SOLV>
29.9211

>  <SCORE.INTER.VDW>
-25.9995

>  <SCORE.INTER.norm>
-0.461885

>  <SCORE.INTRA>
-13.285

>  <SCORE.INTRA.DIHEDRAL>
-21.634

>  <SCORE.INTRA.DIHEDRAL.0>
76.3625

>  <SCORE.INTRA.POLAR>
0

>  <SCORE.INTRA.POLAR.0>
0

>  <SCORE.INTRA.REPUL>
-0.0728722

>  <SCORE.INTRA.REPUL.0>
0.12705

>  <SCORE.INTRA.SOLV>
-4.45302

>  <SCORE.INTRA.SOLV.lig_0>
-119.383

>  <SCORE.INTRA.VDW>
0.122879

>  <SCORE.INTRA.VDW.0>
-5.10464

>  <SCORE.INTRA.norm>
-0.415156

>  <SCORE.RESTR>
0.224096

>  <SCORE.RESTR.CAVITY>
0.224096

>  <SCORE.RESTR.norm>
0.00700299

>  <SCORE.SYSTEM>
0

>  <SCORE.SYSTEM.CONST>
0

>  <SCORE.SYSTEM.DIHEDRAL>
0

>  <SCORE.SYSTEM.SOLV>
0

>  <SCORE.SYSTEM.norm>
0

>  <SCORE.heavy>
32

>  <SCORE.norm>
-0.870038

>  <RMSD>
3.253

$$$$
2au4_lig
 OpenBabel11021811423D
libRbt.so/2013.1/901 2013/11/27
 32 34  0  0  0  0  0  0  0  0999 V2000
   68.4491    8.6047    3.7020 P   0  0  1  0  0  0  0  0  0  0  0  0
   68.6059   11.1604    2.8004 P   0  0  1  0  0  0  0  0  0  0  0  0
   70.6613   11.9535    1.1919 P   0  0  2  0  0  0  0  0  0  0  0  0
   67.1609    6.8588    2.1779 C   0  0  0  0  0  0  0  0  0  0  0  0
   67.3896    7.4132    3.4840 O   0  0  0  0  0  0  0  0  0  0  0  0
   66.9152    7.9303    1.1258 C   0  0  0  0  0  0  0  0  0  0  0  0
   68.0650    8.0706    0.2664 O   0  0  0  0  0  0  0  0  0  0  0  0
   65.7158    7.5720    0.2623 C   0  0  0  0  0  0  0  0  0  0  0  0
   64.6643    8.5319    0.4228 O   0  0  0  0  0  0  0  0  0  0  0  0
   66.2088    7.5404   -1.1647 C   0  0  0  0  0  0  0  0  0  0  0  0
   65.4906    8.4736   -1.9830 O   0  0  0  0  0  0  0  0  0  0  0  0
   67.6858    7.8914   -1.1147 C   0  0  0  0  0  0  0  0  0  0  0  0
   71.2113    4.2616   -0.4355 N   0  0  0  0  0  0  0  0  0  0  0  0
   68.4097    9.0162    5.1197 O   0  5  0  0  0  0  0  0  0  0  0  0
   67.8213   12.1146    1.9929 O   0  5  0  0  0  0  0  0  0  0  0  0
   71.9051   11.3963    0.6231 O   0  5  0  0  0  0  0  0  0  0  0  0
   70.6576    5.1225    0.4821 C   0  0  1  0  0  0  0  0  0  0  0  0
   71.0935    5.0117    1.7298 N   0  0  0  0  0  0  0  0  0  0  0  0
   69.7321    8.2154    3.0787 O   0  0  0  0  0  0  0  0  0  0  0  0
   68.9950   11.5043    4.1838 O   0  0  0  0  0  0  0  0  0  0  0  0
   70.7165   13.1433    2.0668 O   0  0  0  0  0  0  0  0  0  0  0  0
   69.7363    6.0342    0.1807 N   0  0  0  0  0  0  0  0  0  0  0  0
   67.8255    9.7798    2.8356 O   0  0  0  0  0  0  0  0  0  0  0  0
   69.9247   10.7914    1.9943 O   0  0  0  0  0  0  0  0  0  0  0  0
   69.6411   12.2530   -0.0123 O   0  0  0  0  0  0  0  0  0  0  0  0
   69.4102    6.0146   -1.1322 C   0  0  2  0  0  0  0  0  0  0  0  0
   69.9163    5.1848   -2.1197 C   0  0  2  0  0  0  0  0  0  0  0  0
   70.8967    4.2200   -1.7819 C   0  0  1  0  0  0  0  0  0  0  0  0
   71.4680    3.4276   -2.5190 O   0  0  0  0  0  0  0  0  0  0  0  0
   69.3309    5.4698   -3.3580 N   0  0  0  0  0  0  0  0  0  0  0  0
   68.5269    6.4332   -3.0458 C   0  0  0  0  0  0  0  0  0  0  0  0
   68.4960    6.8343   -1.7505 N   0  0  0  0  0  0  0  0  0  0  0  0
  1  5  1  6  0  0  0
  1 14  1  0  0  0  0
  1 19  2  0  0  0  0
  2 15  1  6  0  0  0
  2 20  2  0  0  0  0
  2 23  1  0  0  0  0
  3 16  1  6  0  0  0
  3 21  2  0  0  0  0
  3 24  1  0  0  0  0
  3 25  1  0  0  0  0
  4  6  1  0  0  0  0
  5  4  1  0  0  0  0
  6  7  1  0  0  0  0
  6  8  2  0  0  0  0
  7 12  1  0  0  0  0
  8  9  1  0  0  0  0
  8 10  1  0  0  0  0
 10 11  1  0  0  0  0
 10 12  2  0  0  0  0
 12 32  1  0  0  0  0
 13 17  1  0  0  0  0
 17 18  1  6  0  0  0
 17 22  1  0  0  0  0
 23  1  1  0  0  0  0
 24  2  1  0  0  0  0
 26 22  1  6  0  0  0
 27 26  1  0  0  0  0
 27 28  1  0  0  0  0
 27 30  1  6  0  0  0
 28 13  1  0  0  0  0
 28 29  1  6  0  0  0
 31 30  1  0  0  0  0
 32 26  1  0  0  0  0
 32 31  1  0  0  0  0
M  CHG  3  14  -1  15  -1  16  -1
M  END
>  <CHROM.1>
176.71811195,-177.49581809,175.46496283,106.28279268,-49.22807264,5.80750140
179.93335973,39.25400453,68.89218026,8.42647953,0.87385699,1.63169684,0.13733724
0.60500766

>  <Name>
2au4_lig

>  <RI>
0

>  <Rbt.Current_Directory>
/home/itssahil/PROJECTS/Mol_Feturizer/New_Systems/rnas/2au4

>  <Rbt.Executable>
rbdock ($Id: //depot/dev/client3/rdock/2013.1/src/exe/rbdock.cxx#4 $)

>  <Rbt.Library>
libRbt.so (2013.1, Build901 2013/11/27)

>  <Rbt.Parameter_File>
/export/apps/rDock/src/rDock_2013.1_src/data/scripts/dock_solv.prm

>  <Rbt.Receptor>
prm/pocket_docking_3.prm

>  <SCORE>
-31.0573

>  <SCORE.INTER>
-13.3249

>  <SCORE.INTER.CONST>
1

>  <SCORE.INTER.POLAR>
-0.912831

>  <SCORE.INTER.ROT>
8

>  <SCORE.INTER.SOLV>
26.3366

>  <SCORE.INTER.VDW>
-23.5527

>  <SCORE.INTER.norm>
-0.416403

>  <SCORE.INTRA>
-17.7514

>  <SCORE.INTRA.DIHEDRAL>
-33.141

>  <SCORE.INTRA.DIHEDRAL.0>
76.3625

>  <SCORE.INTRA.POLAR>
0

>  <SCORE.INTRA.POLAR.0>
0

>  <SCORE.INTRA.REPUL>
-0.1195

>  <SCORE.INTRA.REPUL.0>
0.12705

>  <SCORE.INTRA.SOLV>
-1.72903

>  <SCORE.INTRA.SOLV.lig_0>
-119.383

>  <SCORE.INTRA.VDW>
0.281097

>  <SCORE.INTRA.VDW.0>
-5.10464

>  <SCORE.INTRA.norm>
-0.554732

>  <SCORE.RESTR>
0.0190295

>  <SCORE.RESTR.CAVITY>
0.0190295

>  <SCORE.RESTR.norm>
0.000594673

>  <SCORE.SYSTEM>
0

>  <SCORE.SYSTEM.CONST>
0

>  <SCORE.SYSTEM.DIHEDRAL>
0

>  <SCORE.SYSTEM.SOLV>
0

>  <SCORE.SYSTEM.norm>
0

>  <SCORE.heavy>
32

>  <SCORE.norm>
-0.97054

>  <RMSD>
3.289

$$$$
2au4_lig
 OpenBabel11021811423D
libRbt.so/2013.1/901 2013/11/27
 32 34  0  0  0  0  0  0  0  0999 V2000
   68.0123   12.2031   -0.3073 P   0  0  1  0  0  0  0  0  0  0  0  0
   70.0697   12.9768    1.2858 P   0  0  1  0  0  0  0  0  0  0  0  0
   71.7184   10.8783    1.8502 P   0  0  2  0  0  0  0  0  0  0  0  0
   67.1420   10.1350   -1.7201 C   0  0  0  0  0  0  0  0  0  0  0  0
   67.1843   10.8322   -0.4640 O   0  0  0  0  0  0  0  0  0  0  0  0
   66.1657    8.9680   -1.7052 C   0  0  0  0  0  0  0  0  0  0  0  0
   66.7844    7.7818   -2.2441 O   0  0  0  0  0  0  0  0  0  0  0  0
   65.7101    8.6652   -0.2863 C   0  0  0  0  0  0  0  0  0  0  0  0
   64.3019    8.8871   -0.1422 O   0  0  0  0  0  0  0  0  0  0  0  0
   66.0618    7.2206   -0.0220 C   0  0  0  0  0  0  0  0  0  0  0  0
   64.8958    6.4546    0.3096 O   0  0  0  0  0  0  0  0  0  0  0  0
   66.7073    6.6981   -1.2938 C   0  0  0  0  0  0  0  0  0  0  0  0
   70.0455    5.2924    2.3043 N   0  0  0  0  0  0  0  0  0  0  0  0
   68.7931   12.4253   -1.5409 O   0  5  0  0  0  0  0  0  0  0  0  0
   70.8886   13.3216    0.1075 O   0  5  0  0  0  0  0  0  0  0  0  0
   72.5307   11.2030    0.6603 O   0  5  0  0  0  0  0  0  0  0  0  0
   68.7790    5.8086    2.4431 C   0  0  1  0  0  0  0  0  0  0  0  0
   68.3458    5.9771    3.6853 N   0  0  0  0  0  0  0  0  0  0  0  0
   67.0975   13.2529    0.1899 O   0  0  0  0  0  0  0  0  0  0  0  0
   69.3337   14.0327    2.0118 O   0  0  0  0  0  0  0  0  0  0  0  0
   70.6998    9.8098    1.7808 O   0  0  0  0  0  0  0  0  0  0  0  0
   67.9970    6.1388    1.4183 N   0  0  0  0  0  0  0  0  0  0  0  0
   69.0317   11.8557    0.8591 O   0  0  0  0  0  0  0  0  0  0  0  0
   70.9936   12.2132    2.3291 O   0  0  0  0  0  0  0  0  0  0  0  0
   72.7114   10.5576    3.0715 O   0  0  0  0  0  0  0  0  0  0  0  0
   68.5943    5.9079    0.2265 C   0  0  2  0  0  0  0  0  0  0  0  0
   69.8599    5.3926   -0.0025 C   0  0  2  0  0  0  0  0  0  0  0  0
   70.6796    5.0467    1.0997 C   0  0  1  0  0  0  0  0  0  0  0  0
   71.8212    4.6063    1.0884 O   0  0  0  0  0  0  0  0  0  0  0  0
   70.1206    5.3031   -1.3741 N   0  0  0  0  0  0  0  0  0  0  0  0
   69.0198    5.7609   -1.8747 C   0  0  0  0  0  0  0  0  0  0  0  0
   68.0476    6.1483   -1.0118 N   0  0  0  0  0  0  0  0  0  0  0  0
  1  5  1  6  0  0  0
  1 14  1  0  0  0  0
  1 19  2  0  0  0  0
  2 15  1  6  0  0  0
  2 20  2  0  0  0  0
  2 23  1  0  0  0  0
  3 16  1  6  0  0  0
  3 21  2  0  0  0  0
  3 24  1  0  0  0  0
  3 25  1  0  0  0  0
  4  6  1  0  0  0  0
  5  4  1  0  0  0  0
  6  7  1  0  0  0  0
  6  8  2  0  0  0  0
  7 12  1  0  0  0  0
  8  9  1  0  0  0  0
  8 10  1  0  0  0  0
 10 11  1  0  0  0  0
 10 12  2  0  0  0  0
 12 32  1  0  0  0  0
 13 17  1  0  0  0  0
 17 18  1  1  0  0  0
 17 22  1  0  0  0  0
 23  1  1  0  0  0  0
 24  2  1  0  0  0  0
 26 22  1  1  0  0  0
 27 26  1  0  0  0  0
 27 28  1  0  0  0  0
 27 30  1  1  0  0  0
 28 13  1  0  0  0  0
 28 29  1  1  0  0  0
 31 30  1  0  0  0  0
 32 26  1  0  0  0  0
 32 31  1  0  0  0  0
M  CHG  3  14  -1  15  -1  16  -1
M  END
>  <CHROM.1>
-8.04813819,-59.54514275,56.80886619,-131.96121037,-172.57099201,130.83815044
178.47213346,-57.98694193,68.92301761,9.25440649,0.47583986,1.28312482,-0.47490671
-0.01815997

>  <Name>
2au4_lig

>  <RI>
0

>  <Rbt.Current_Directory>
/home/itssahil/PROJECTS/Mol_Feturizer/New_Systems/rnas/2au4

>  <Rbt.Executable>
rbdock ($Id: //depot/dev/client3/rdock/2013.1/src/exe/rbdock.cxx#4 $)

>  <Rbt.Library>
libRbt.so (2013.1, Build901 2013/11/27)

>  <Rbt.Parameter_File>
/export/apps/rDock/src/rDock_2013.1_src/data/scripts/dock_solv.prm

>  <Rbt.Receptor>
prm/pocket_docking_4.prm

>  <SCORE>
-35.9798

>  <SCORE.INTER>
-13.7409

>  <SCORE.INTER.CONST>
1

>  <SCORE.INTER.POLAR>
-0.565059

>  <SCORE.INTER.ROT>
8

>  <SCORE.INTER.SOLV>
31.5128

>  <SCORE.INTER.VDW>
-26.7147

>  <SCORE.INTER.norm>
-0.429403

>  <SCORE.INTRA>
-22.2696

>  <SCORE.INTRA.DIHEDRAL>
-43.1472

>  <SCORE.INTRA.DIHEDRAL.0>
76.3625

>  <SCORE.INTRA.POLAR>
0

>  <SCORE.INTRA.POLAR.0>
0

>  <SCORE.INTRA.REPUL>
-0.12705

>  <SCORE.INTRA.REPUL.0>
0.12705

>  <SCORE.INTRA.SOLV>
-4.41144

>  <SCORE.INTRA.SOLV.lig_0>
-119.383

>  <SCORE.INTRA.VDW>
2.14491

>  <SCORE.INTRA.VDW.0>
-5.10464

>  <SCORE.INTRA.norm>
-0.695926

>  <SCORE.RESTR>
0.0307627

>  <SCORE.RESTR.CAVITY>
0.0307627

>  <SCORE.RESTR.norm>
0.000961335

>  <SCORE.SYSTEM>
0

>  <SCORE.SYSTEM.CONST>
0

>  <SCORE.SYSTEM.DIHEDRAL>
0

>  <SCORE.SYSTEM.SOLV>
0

>  <SCORE.SYSTEM.norm>
0

>  <SCORE.heavy>
32

>  <SCORE.norm>
-1.12437

>  <RMSD>
3.352

$$$$
2au4_lig
 OpenBabel11021811423D
libRbt.so/2013.1/901 2013/11/27
 32 34  0  0  0  0  0  0  0  0999 V2000
   67.8498   10.6387   -0.2907 P   0  0  1  0  0  0  0  0  0  0  0  0
   70.0091   10.7261    1.3522 P   0  0  1  0  0  0  0  0  0  0  0  0
   72.1450   12.2258    0.5589 P   0  0  2  0  0  0  0  0  0  0  0  0
   65.9723    8.9379   -1.0734 C   0  0  0  0  0  0  0  0  0  0  0  0
   67.2873    9.4861   -1.2626 O   0  0  0  0  0  0  0  0  0  0  0  0
   65.9265    7.9087    0.0465 C   0  0  0  0  0  0  0  0  0  0  0  0
   66.1808    6.5860   -0.4691 O   0  0  0  0  0  0  0  0  0  0  0  0
   66.9742    8.2174    1.1046 C   0  0  0  0  0  0  0  0  0  0  0  0
   66.3580    8.5256    2.3609 O   0  0  0  0  0  0  0  0  0  0  0  0
   67.8470    6.9900    1.2147 C   0  0  0  0  0  0  0  0  0  0  0  0
   67.8341    6.4615    2.5476 O   0  0  0  0  0  0  0  0  0  0  0  0
   67.2896    5.9790    0.2277 C   0  0  0  0  0  0  0  0  0  0  0  0
   72.0768    4.2956   -0.3342 N   0  0  0  0  0  0  0  0  0  0  0  0
   68.5578   11.6422   -1.1109 O   0  5  0  0  0  0  0  0  0  0  0  0
   69.3052   11.8185    2.0516 O   0  5  0  0  0  0  0  0  0  0  0  0
   72.6479   12.8685   -0.6721 O   0  5  0  0  0  0  0  0  0  0  0  0
   71.3967    4.6239    0.8144 C   0  0  1  0  0  0  0  0  0  0  0  0
   72.0669    4.4950    1.9516 N   0  0  0  0  0  0  0  0  0  0  0  0
   66.7641   11.0590    0.6208 O   0  0  0  0  0  0  0  0  0  0  0  0
   70.8808    9.8026    2.1077 O   0  0  0  0  0  0  0  0  0  0  0  0
   73.0419   11.3740    1.3676 O   0  0  0  0  0  0  0  0  0  0  0  0
   70.1377    5.0546    0.8326 N   0  0  0  0  0  0  0  0  0  0  0  0
   68.9329    9.8612    0.5710 O   0  0  0  0  0  0  0  0  0  0  0  0
   70.8657   11.3592    0.1730 O   0  0  0  0  0  0  0  0  0  0  0  0
   71.5273   13.3633    1.5104 O   0  0  0  0  0  0  0  0  0  0  0  0
   69.6076    5.1320   -0.4098 C   0  0  2  0  0  0  0  0  0  0  0  0
   70.2190    4.8221   -1.6139 C   0  0  2  0  0  0  0  0  0  0  0  0
   71.5597    4.3653   -1.6154 C   0  0  1  0  0  0  0  0  0  0  0  0
   72.2608    4.0713   -2.5744 O   0  0  0  0  0  0  0  0  0  0  0  0
   69.3445    5.0330   -2.6853 N   0  0  0  0  0  0  0  0  0  0  0  0
   68.2842    5.4486   -2.0729 C   0  0  0  0  0  0  0  0  0  0  0  0
   68.3335    5.5444   -0.7208 N   0  0  0  0  0  0  0  0  0  0  0  0
  1  5  1  6  0  0  0
  1 14  1  0  0  0  0
  1 19  2  0  0  0  0
  2 15  1  1  0  0  0
  2 20  2  0  0  0  0
  2 23  1  0  0  0  0
  3 16  1  6  0  0  0
  3 21  2  0  0  0  0
  3 24  1  0  0  0  0
  3 25  1  0  0  0  0
  4  6  1  0  0  0  0
  5  4  1  0  0  0  0
  6  7  1  0  0  0  0
  6  8  2  0  0  0  0
  7 12  1  0  0  0  0
  8  9  1  0  0  0  0
  8 10  1  0  0  0  0
 10 11  1  0  0  0  0
 10 12  2  0  0  0  0
 12 32  1  0  0  0  0
 13 17  1  0  0  0  0
 17 18  1  6  0  0  0
 17 22  1  0  0  0  0
 23  1  1  0  0  0  0
 24  2  1  0  0  0  0
 26 22  1  6  0  0  0
 27 26  1  0  0  0  0
 27 28  1  0  0  0  0
 27 30  1  6  0  0  0
 28 13  1  0  0  0  0
 28 29  1  6  0  0  0
 31 30  1  0  0  0  0
 32 26  1  0  0  0  0
 32 31  1  0  0  0  0
M  CHG  3  14  -1  15  -1  16  -1
M  END
>  <CHROM.1>
-138.29606012,46.82426999,-171.53565019,-90.45144933,-79.39511908,168.60788006
162.47109088,70.33655967,69.45385893,8.52767190,0.19914566,1.46334628,0.00341008
0.19443168

>  <Name>
2au4_lig

>  <RI>
0

>  <Rbt.Current_Directory>
/home/itssahil/PROJECTS/Mol_Feturizer/New_Systems/rnas/2au4

>  <Rbt.Executable>
rbdock ($Id: //depot/dev/client3/rdock/2013.1/src/exe/rbdock.cxx#4 $)

>  <Rbt.Library>
libRbt.so (2013.1, Build901 2013/11/27)

>  <Rbt.Parameter_File>
/export/apps/rDock/src/rDock_2013.1_src/data/scripts/dock_solv.prm

>  <Rbt.Receptor>
prm/pocket_docking_2.prm

>  <SCORE>
-40.6044

>  <SCORE.INTER>
-19.917

>  <SCORE.INTER.CONST>
1

>  <SCORE.INTER.POLAR>
-1.71768

>  <SCORE.INTER.ROT>
8

>  <SCORE.INTER.SOLV>
32.3556

>  <SCORE.INTER.VDW>
-27.2709

>  <SCORE.INTER.norm>
-0.622408

>  <SCORE.INTRA>
-21.409

>  <SCORE.INTRA.DIHEDRAL>
-41.9585

>  <SCORE.INTRA.DIHEDRAL.0>
76.3625

>  <SCORE.INTRA.POLAR>
0

>  <SCORE.INTRA.POLAR.0>
0

>  <SCORE.INTRA.REPUL>
-0.12705

>  <SCORE.INTRA.REPUL.0>
0.12705

>  <SCORE.INTRA.SOLV>
-2.01661

>  <SCORE.INTRA.SOLV.lig_0>
-119.383

>  <SCORE.INTRA.VDW>
1.21384

>  <SCORE.INTRA.VDW.0>
-5.10464

>  <SCORE.INTRA.norm>
-0.669031

>  <SCORE.RESTR>
0.721617

>  <SCORE.RESTR.CAVITY>
0.721617

>  <SCORE.RESTR.norm>
0.0225505

>  <SCORE.SYSTEM>
0

>  <SCORE.SYSTEM.CONST>
0

>  <SCORE.SYSTEM.DIHEDRAL>
0

>  <SCORE.SYSTEM.SOLV>
0

>  <SCORE.SYSTEM.norm>
0

>  <SCORE.heavy>
32

>  <SCORE.norm>
-1.26889

>  <RMSD>
3.413

$$$$
2au4_lig
 OpenBabel11021811423D
libRbt.so/2013.1/901 2013/11/27
 32 34  0  0  0  0  0  0  0  0999 V2000
   68.9583   10.8076   -0.0751 P   0  0  1  0  0  0  0  0  0  0  0  0
   70.4769   11.6808    1.9988 P   0  0  1  0  0  0  0  0  0  0  0  0
   73.1616   11.7348    1.5190 P   0  0  2  0  0  0  0  0  0  0  0  0
   68.0617    9.2503   -2.0248 C   0  0  0  0  0  0  0  0  0  0  0  0
   68.8793    9.4009   -0.8524 O   0  0  0  0  0  0  0  0  0  0  0  0
   67.0203    8.1516   -1.8709 C   0  0  0  0  0  0  0  0  0  0  0  0
   67.6573    6.8728   -1.6728 O   0  0  0  0  0  0  0  0  0  0  0  0
   66.1207    8.4260   -0.6759 C   0  0  0  0  0  0  0  0  0  0  0  0
   64.7657    8.6346   -1.0921 O   0  0  0  0  0  0  0  0  0  0  0  0
   66.2314    7.2226    0.2296 C   0  0  0  0  0  0  0  0  0  0  0  0
   64.9515    6.6109    0.4389 O   0  0  0  0  0  0  0  0  0  0  0  0
   67.1849    6.2586   -0.4550 C   0  0  0  0  0  0  0  0  0  0  0  0
   71.8698    4.2574   -0.1181 N   0  0  0  0  0  0  0  0  0  0  0  0
   69.2568   11.8711   -1.0553 O   0  5  0  0  0  0  0  0  0  0  0  0
   70.4835   13.0272    1.3944 O   0  5  0  0  0  0  0  0  0  0  0  0
   73.7693   12.9777    2.0358 O   0  5  0  0  0  0  0  0  0  0  0  0
   71.0664    4.4163   -1.2221 C   0  0  1  0  0  0  0  0  0  0  0  0
   71.5619    3.9896   -2.3760 N   0  0  0  0  0  0  0  0  0  0  0  0
   67.7795   10.9249    0.8097 O   0  0  0  0  0  0  0  0  0  0  0  0
   69.5509   11.3705    3.1078 O   0  0  0  0  0  0  0  0  0  0  0  0
   72.6705   11.6754    0.1264 O   0  0  0  0  0  0  0  0  0  0  0  0
   69.8519    4.9587   -1.1828 N   0  0  0  0  0  0  0  0  0  0  0  0
   70.2384   10.6189    0.8447 O   0  0  0  0  0  0  0  0  0  0  0  0
   71.9532   11.3428    2.4797 O   0  0  0  0  0  0  0  0  0  0  0  0
   74.1988   10.5293    1.7458 O   0  0  0  0  0  0  0  0  0  0  0  0
   69.5014    5.3336    0.0691 C   0  0  2  0  0  0  0  0  0  0  0  0
   70.2461    5.2112    1.2311 C   0  0  2  0  0  0  0  0  0  0  0  0
   71.5370    4.6312    1.1716 C   0  0  1  0  0  0  0  0  0  0  0  0
   72.3187    4.4222    2.0896 O   0  0  0  0  0  0  0  0  0  0  0  0
   69.5408    5.7134    2.3299 N   0  0  0  0  0  0  0  0  0  0  0  0
   68.4389    6.0980    1.7732 C   0  0  0  0  0  0  0  0  0  0  0  0
   68.3121    5.9182    0.4348 N   0  0  0  0  0  0  0  0  0  0  0  0
  1  5  1  6  0  0  0
  1 14  1  0  0  0  0
  1 19  2  0  0  0  0
  2 15  1  6  0  0  0
  2 20  2  0  0  0  0
  2 23  1  0  0  0  0
  3 16  1  1  0  0  0
  3 21  2  0  0  0  0
  3 24  1  0  0  0  0
  3 25  1  0  0  0  0
  4  6  1  0  0  0  0
  5  4  1  0  0  0  0
  6  7  1  0  0  0  0
  6  8  2  0  0  0  0
  7 12  1  0  0  0  0
  8  9  1  0  0  0  0
  8 10  1  0  0  0  0
 10 11  1  0  0  0  0
 10 12  2  0  0  0  0
 12 32  1  0  0  0  0
 13 17  1  0  0  0  0
 17 18  1  1  0  0  0
 17 22  1  0  0  0  0
 23  1  1  0  0  0  0
 24  2  1  0  0  0  0
 26 22  1  1  0  0  0
 27 26  1  0  0  0  0
 27 28  1  0  0  0  0
 27 30  1  1  0  0  0
 28 13  1  0  0  0  0
 28 29  1  1  0  0  0
 31 30  1  0  0  0  0
 32 26  1  0  0  0  0
 32 31  1  0  0  0  0
M  CHG  3  14  -1  15  -1  16  -1
M  END
>  <CHROM.1>
-50.72957246,-54.62489660,101.28379677,-62.08691732,-121.95152363,-43.80128415
-167.27282114,-42.03562530,69.79031855,8.70418360,0.46531197,1.10036772,-0.29367112
0.13237833

>  <Name>
2au4_lig

>  <RI>
0

>  <Rbt.Current_Directory>
/home/itssahil/PROJECTS/Mol_Feturizer/New_Systems/rnas/2au4

>  <Rbt.Executable>
rbdock ($Id: //depot/dev/client3/rdock/2013.1/src/exe/rbdock.cxx#4 $)

>  <Rbt.Library>
libRbt.so (2013.1, Build901 2013/11/27)

>  <Rbt.Parameter_File>
/export/apps/rDock/src/rDock_2013.1_src/data/scripts/dock_solv.prm

>  <Rbt.Receptor>
prm/pocket_docking_4.prm

>  <SCORE>
-49.4832

>  <SCORE.INTER>
-29.4987

>  <SCORE.INTER.CONST>
1

>  <SCORE.INTER.POLAR>
-3.05602

>  <SCORE.INTER.ROT>
8

>  <SCORE.INTER.SOLV>
30.3836

>  <SCORE.INTER.VDW>
-28.5402

>  <SCORE.INTER.norm>
-0.921834

>  <SCORE.INTRA>
-19.9846

>  <SCORE.INTRA.DIHEDRAL>
-38.2845

>  <SCORE.INTRA.DIHEDRAL.0>
76.3625

>  <SCORE.INTRA.POLAR>
0

>  <SCORE.INTRA.POLAR.0>
0

>  <SCORE.INTRA.REPUL>
-0.008934

>  <SCORE.INTRA.REPUL.0>
0.12705

>  <SCORE.INTRA.SOLV>
-2.64676

>  <SCORE.INTRA.SOLV.lig_0>
-119.383

>  <SCORE.INTRA.VDW>
0.525718

>  <SCORE.INTRA.VDW.0>
-5.10464

>  <SCORE.INTRA.norm>
-0.624517

>  <SCORE.RESTR>
0

>  <SCORE.RESTR.CAVITY>
0

>  <SCORE.RESTR.norm>
0

>  <SCORE.SYSTEM>
0

>  <SCORE.SYSTEM.CONST>
0

>  <SCORE.SYSTEM.DIHEDRAL>
0

>  <SCORE.SYSTEM.SOLV>
0

>  <SCORE.SYSTEM.norm>
0

>  <SCORE.heavy>
32

>  <SCORE.norm>
-1.54635

>  <RMSD>
3.420

$$$$
2au4_lig
 OpenBabel11021811423D
libRbt.so/2013.1/901 2013/11/27
 32 34  0  0  0  0  0  0  0  0999 V2000
   68.4906   11.8714    0.6374 P   0  0  1  0  0  0  0  0  0  0  0  0
   70.8600   10.5774    0.9221 P   0  0  1  0  0  0  0  0  0  0  0  0
   72.8194   12.4500    1.2300 P   0  0  2  0  0  0  0  0  0  0  0  0
   67.1335   10.3586   -1.0657 C   0  0  0  0  0  0  0  0  0  0  0  0
   67.1590   11.1017    0.1643 O   0  0  0  0  0  0  0  0  0  0  0  0
   66.1327    9.2129   -1.0327 C   0  0  0  0  0  0  0  0  0  0  0  0
   66.3976    8.2769   -2.0977 O   0  0  0  0  0  0  0  0  0  0  0  0
   66.2130    8.4656    0.2893 C   0  0  0  0  0  0  0  0  0  0  0  0
   64.9857    8.5830    1.0192 O   0  0  0  0  0  0  0  0  0  0  0  0
   66.5071    7.0239   -0.0501 C   0  0  0  0  0  0  0  0  0  0  0  0
   65.4849    6.1531    0.4529 O   0  0  0  0  0  0  0  0  0  0  0  0
   66.5831    6.9482   -1.5653 C   0  0  0  0  0  0  0  0  0  0  0  0
   70.9790    4.8084   -0.0943 N   0  0  0  0  0  0  0  0  0  0  0  0
   68.5208   13.1997   -0.0072 O   0  5  0  0  0  0  0  0  0  0  0  0
   70.3379    9.7519    2.0285 O   0  5  0  0  0  0  0  0  0  0  0  0
   72.8727   12.9653   -0.1531 O   0  5  0  0  0  0  0  0  0  0  0  0
   69.9207    5.2405    0.6691 C   0  0  1  0  0  0  0  0  0  0  0  0
   70.0431    5.0918    1.9813 N   0  0  0  0  0  0  0  0  0  0  0  0
   68.6043   11.7582    2.1073 O   0  0  0  0  0  0  0  0  0  0  0  0
   71.9434   10.0618    0.0596 O   0  0  0  0  0  0  0  0  0  0  0  0
   73.7306   11.3651    1.6503 O   0  0  0  0  0  0  0  0  0  0  0  0
   68.8171    5.7865    0.1644 N   0  0  0  0  0  0  0  0  0  0  0  0
   69.6427   10.9900   -0.0076 O   0  0  0  0  0  0  0  0  0  0  0  0
   71.3273   11.9739    1.5194 O   0  0  0  0  0  0  0  0  0  0  0  0
   72.9981   13.6862    2.2402 O   0  0  0  0  0  0  0  0  0  0  0  0
   68.8598    5.8670   -1.1855 C   0  0  2  0  0  0  0  0  0  0  0  0
   69.8809    5.4576   -2.0279 C   0  0  2  0  0  0  0  0  0  0  0  0
   71.0490    4.8787   -1.4741 C   0  0  1  0  0  0  0  0  0  0  0  0
   72.0511    4.4859   -2.0562 O   0  0  0  0  0  0  0  0  0  0  0  0
   69.5546    5.7093   -3.3648 N   0  0  0  0  0  0  0  0  0  0  0  0
   68.3831    6.2437   -3.2467 C   0  0  0  0  0  0  0  0  0  0  0  0
   67.8771    6.3841   -1.9961 N   0  0  0  0  0  0  0  0  0  0  0  0
  1  5  1  6  0  0  0
  1 14  1  0  0  0  0
  1 19  2  0  0  0  0
  2 15  1  1  0  0  0
  2 20  2  0  0  0  0
  2 23  1  0  0  0  0
  3 16  1  6  0  0  0
  3 21  2  0  0  0  0
  3 24  1  0  0  0  0
  3 25  1  0  0  0  0
  4  6  1  0  0  0  0
  5  4  1  0  0  0  0
  6  7  1  0  0  0  0
  6  8  2  0  0  0  0
  7 12  1  0  0  0  0
  8  9  1  0  0  0  0
  8 10  1  0  0  0  0
 10 11  1  0  0  0  0
 10 12  2  0  0  0  0
 12 32  1  0  0  0  0
 13 17  1  0  0  0  0
 17 18  1  1  0  0  0
 17 22  1  0  0  0  0
 23  1  1  0  0  0  0
 24  2  1  0  0  0  0
 26 22  1  1  0  0  0
 27 26  1  0  0  0  0
 27 28  1  0  0  0  0
 27 30  1  1  0  0  0
 28 13  1  0  0  0  0
 28 29  1  1  0  0  0
 31 30  1  0  0  0  0
 32 26  1  0  0  0  0
 32 31  1  0  0  0  0
M  CHG  3  14  -1  15  -1  16  -1
M  END
>  <CHROM.1>
84.92765830,61.94191692,77.64684139,-163.56867027,152.25177779,126.19825597
-132.35846174,125.55589323,69.46479291,9.06939109,0.01868935,1.12588686,-0.09099989
0.30268771

>  <Name>
2au4_lig

>  <RI>
0

>  <Rbt.Current_Directory>
/home/itssahil/PROJECTS/Mol_Feturizer/New_Systems/rnas/2au4

>  <Rbt.Executable>
rbdock ($Id: //depot/dev/client3/rdock/2013.1/src/exe/rbdock.cxx#4 $)

>  <Rbt.Library>
libRbt.so (2013.1, Build901 2013/11/27)

>  <Rbt.Parameter_File>
/export/apps/rDock/src/rDock_2013.1_src/data/scripts/dock_solv.prm

>  <Rbt.Receptor>
prm/pocket_docking_2.prm

>  <SCORE>
-30.3494

>  <SCORE.INTER>
-17.7786

>  <SCORE.INTER.CONST>
1

>  <SCORE.INTER.POLAR>
-1.68713

>  <SCORE.INTER.ROT>
8

>  <SCORE.INTER.SOLV>
32.2634

>  <SCORE.INTER.VDW>
-25.9164

>  <SCORE.INTER.norm>
-0.55558

>  <SCORE.INTRA>
-16.7232

>  <SCORE.INTRA.DIHEDRAL>
-33.7299

>  <SCORE.INTRA.DIHEDRAL.0>
76.3625

>  <SCORE.INTRA.POLAR>
0

>  <SCORE.INTRA.POLAR.0>
0

>  <SCORE.INTRA.REPUL>
-0.12705

>  <SCORE.INTRA.REPUL.0>
0.12705

>  <SCORE.INTRA.SOLV>
-4.57164

>  <SCORE.INTRA.SOLV.lig_0>
-119.383

>  <SCORE.INTRA.VDW>
3.06278

>  <SCORE.INTRA.VDW.0>
-5.10464

>  <SCORE.INTRA.norm>
-0.522601

>  <SCORE.RESTR>
4.15245

>  <SCORE.RESTR.CAVITY>
4.15245

>  <SCORE.RESTR.norm>
0.129764

>  <SCORE.SYSTEM>
0

>  <SCORE.SYSTEM.CONST>
0

>  <SCORE.SYSTEM.DIHEDRAL>
0

>  <SCORE.SYSTEM.SOLV>
0

>  <SCORE.SYSTEM.norm>
0

>  <SCORE.heavy>
32

>  <SCORE.norm>
-0.948417

>  <RMSD>
3.448

$$$$
2au4_lig
 OpenBabel11021811423D
libRbt.so/2013.1/901 2013/11/27
 32 34  0  0  0  0  0  0  0  0999 V2000
   68.1065   11.8326   -0.7276 P   0  0  1  0  0  0  0  0  0  0  0  0
   68.5784   13.4462    1.4039 P   0  0  1  0  0  0  0  0  0  0  0  0
   68.3006   14.6564    3.8326 P   0  0  2  0  0  0  0  0  0  0  0  0
   68.0647    9.5521   -2.0797 C   0  0  0  0  0  0  0  0  0  0  0  0
   67.7842   10.2618   -0.8617 O   0  0  0  0  0  0  0  0  0  0  0  0
   67.1759    8.3301   -2.2591 C   0  0  0  0  0  0  0  0  0  0  0  0
   67.9303    7.2300   -2.8076 O   0  0  0  0  0  0  0  0  0  0  0  0
   66.5912    7.8893   -0.9263 C   0  0  0  0  0  0  0  0  0  0  0  0
   65.1637    8.0129   -0.9274 O   0  0  0  0  0  0  0  0  0  0  0  0
   67.0115    6.4526   -0.7277 C   0  0  0  0  0  0  0  0  0  0  0  0
   65.8725    5.5931   -0.5861 O   0  0  0  0  0  0  0  0  0  0  0  0
   67.8258    6.0722   -1.9522 C   0  0  0  0  0  0  0  0  0  0  0  0
   70.9332    4.8565    1.9121 N   0  0  0  0  0  0  0  0  0  0  0  0
   69.4967   12.0672   -1.1668 O   0  5  0  0  0  0  0  0  0  0  0  0
   70.0409   13.4917    1.2111 O   0  5  0  0  0  0  0  0  0  0  0  0
   67.0627   15.4070    3.5404 O   0  5  0  0  0  0  0  0  0  0  0  0
   69.6390    5.3187    1.9456 C   0  0  1  0  0  0  0  0  0  0  0  0
   69.1044    5.4830    3.1482 N   0  0  0  0  0  0  0  0  0  0  0  0
   66.9974   12.5959   -1.3387 O   0  0  0  0  0  0  0  0  0  0  0  0
   67.7250   14.5224    0.8590 O   0  0  0  0  0  0  0  0  0  0  0  0
   69.6173   15.3017    3.6488 O   0  0  0  0  0  0  0  0  0  0  0  0
   68.9251    5.6022    0.8590 N   0  0  0  0  0  0  0  0  0  0  0  0
   68.0458   12.0615    0.8422 O   0  0  0  0  0  0  0  0  0  0  0  0
   68.2841   13.3237    2.9607 O   0  0  0  0  0  0  0  0  0  0  0  0
   68.2126   14.0964    5.3357 O   0  0  0  0  0  0  0  0  0  0  0  0
   69.6218    5.3832   -0.2799 C   0  0  2  0  0  0  0  0  0  0  0  0
   70.9221    4.9208   -0.4034 C   0  0  2  0  0  0  0  0  0  0  0  0
   71.6682    4.6242    0.7635 C   0  0  1  0  0  0  0  0  0  0  0  0
   72.8250    4.2338    0.8464 O   0  0  0  0  0  0  0  0  0  0  0  0
   71.2914    4.8263   -1.7495 N   0  0  0  0  0  0  0  0  0  0  0  0
   70.2140    5.2296   -2.3398 C   0  0  0  0  0  0  0  0  0  0  0  0
   69.1626    5.5847   -1.5600 N   0  0  0  0  0  0  0  0  0  0  0  0
  1  5  1  6  0  0  0
  1 14  1  0  0  0  0
  1 19  2  0  0  0  0
  2 15  1  6  0  0  0
  2 20  2  0  0  0  0
  2 23  1  0  0  0  0
  3 16  1  6  0  0  0
  3 21  2  0  0  0  0
  3 24  1  0  0  0  0
  3 25  1  0  0  0  0
  4  6  1  0  0  0  0
  5  4  1  0  0  0  0
  6  7  1  0  0  0  0
  6  8  2  0  0  0  0
  7 12  1  0  0  0  0
  8  9  1  0  0  0  0
  8 10  1  0  0  0  0
 10 11  1  0  0  0  0
 10 12  2  0  0  0  0
 12 32  1  0  0  0  0
 13 17  1  0  0  0  0
 17 18  1  1  0  0  0
 17 22  1  0  0  0  0
 23  1  1  0  0  0  0
 24  2  1  0  0  0  0
 26 22  1  1  0  0  0
 27 26  1  0  0  0  0
 27 28  1  0  0  0  0
 27 30  1  1  0  0  0
 28 13  1  0  0  0  0
 28 29  1  1  0  0  0
 31 30  1  0  0  0  0
 32 26  1  0  0  0  0
 32 31  1  0  0  0  0
M  CHG  3  14  -1  15  -1  16  -1
M  END
>  <CHROM.1>
-50.15190621,-68.55351184,74.62025541,-140.40361356,-154.29311402,125.22146994
168.81720927,82.31948101,68.64213891,9.61590106,0.49510549,1.79929188,-0.93123895
0.50119256

>  <Name>
2au4_lig

>  <RI>
0

>  <Rbt.Current_Directory>
/home/itssahil/PROJECTS/Mol_Feturizer/New_Systems/rnas/2au4

>  <Rbt.Executable>
rbdock ($Id: //depot/dev/client3/rdock/2013.1/src/exe/rbdock.cxx#4 $)

>  <Rbt.Library>
libRbt.so (2013.1, Build901 2013/11/27)

>  <Rbt.Parameter_File>
/export/apps/rDock/src/rDock_2013.1_src/data/scripts/dock_solv.prm

>  <Rbt.Receptor>
prm/pocket_docking_5.prm

>  <SCORE>
-39.2657

>  <SCORE.INTER>
-19.2599

>  <SCORE.INTER.CONST>
1

>  <SCORE.INTER.POLAR>
-2.35129

>  <SCORE.INTER.ROT>
8

>  <SCORE.INTER.SOLV>
32.59

>  <SCORE.INTER.VDW>
-24.799

>  <SCORE.INTER.norm>
-0.601871

>  <SCORE.INTRA>
-20.0094

>  <SCORE.INTRA.DIHEDRAL>
-38.5963

>  <SCORE.INTRA.DIHEDRAL.0>
76.3625

>  <SCORE.INTRA.POLAR>
0

>  <SCORE.INTRA.POLAR.0>
0

>  <SCORE.INTRA.REPUL>
-0.12705

>  <SCORE.INTRA.REPUL.0>
0.12705

>  <SCORE.INTRA.SOLV>
-4.2857

>  <SCORE.INTRA.SOLV.lig_0>
-119.383

>  <SCORE.INTRA.VDW>
2.06685

>  <SCORE.INTRA.VDW.0>
-5.10464

>  <SCORE.INTRA.norm>
-0.625294

>  <SCORE.RESTR>
0.00360303

>  <SCORE.RESTR.CAVITY>
0.00360303

>  <SCORE.RESTR.norm>
0.000112595

>  <SCORE.SYSTEM>
0

>  <SCORE.SYSTEM.CONST>
0

>  <SCORE.SYSTEM.DIHEDRAL>
0

>  <SCORE.SYSTEM.SOLV>
0

>  <SCORE.SYSTEM.norm>
0

>  <SCORE.heavy>
32

>  <SCORE.norm>
-1.22705

>  <RMSD>
3.491

$$$$
2au4_lig
 OpenBabel11021811423D
libRbt.so/2013.1/901 2013/11/27
 32 34  0  0  0  0  0  0  0  0999 V2000
   67.9423   11.3294    0.4335 P   0  0  1  0  0  0  0  0  0  0  0  0
   70.3186   10.2214    1.1370 P   0  0  1  0  0  0  0  0  0  0  0  0
   72.0759   12.2749    0.7686 P   0  0  2  0  0  0  0  0  0  0  0  0
   66.3898    9.4337   -0.5795 C   0  0  0  0  0  0  0  0  0  0  0  0
   66.5033   10.6690    0.1463 O   0  0  0  0  0  0  0  0  0  0  0  0
   66.1652    8.2393    0.3362 C   0  0  0  0  0  0  0  0  0  0  0  0
   66.3173    7.0046   -0.3936 O   0  0  0  0  0  0  0  0  0  0  0  0
   67.1663    8.2426    1.4809 C   0  0  0  0  0  0  0  0  0  0  0  0
   66.5027    8.3977    2.7412 O   0  0  0  0  0  0  0  0  0  0  0  0
   67.9004    6.9248    1.4124 C   0  0  0  0  0  0  0  0  0  0  0  0
   67.7453    6.1802    2.6280 O   0  0  0  0  0  0  0  0  0  0  0  0
   67.3098    6.1669    0.2360 C   0  0  0  0  0  0  0  0  0  0  0  0
   72.0493    4.3671   -0.3675 N   0  0  0  0  0  0  0  0  0  0  0  0
   68.5934   11.6205   -0.8596 O   0  5  0  0  0  0  0  0  0  0  0  0
   70.7928    9.7602    2.4563 O   0  5  0  0  0  0  0  0  0  0  0  0
   72.4690   13.1548    1.8877 O   0  5  0  0  0  0  0  0  0  0  0  0
   71.3483    4.6076    0.7902 C   0  0  1  0  0  0  0  0  0  0  0  0
   71.9806    4.3437    1.9258 N   0  0  0  0  0  0  0  0  0  0  0  0
   67.7776   12.4016    1.4383 O   0  0  0  0  0  0  0  0  0  0  0  0
   70.8252    9.5852   -0.0968 O   0  0  0  0  0  0  0  0  0  0  0  0
   72.1530   12.7684   -0.6223 O   0  0  0  0  0  0  0  0  0  0  0  0
   70.1052    5.0816    0.8189 N   0  0  0  0  0  0  0  0  0  0  0  0
   68.7346   10.1378    1.1211 O   0  0  0  0  0  0  0  0  0  0  0  0
   70.5833   11.7846    1.0304 O   0  0  0  0  0  0  0  0  0  0  0  0
   72.9191   10.9116    0.8733 O   0  0  0  0  0  0  0  0  0  0  0  0
   69.6140    5.2992   -0.4229 C   0  0  2  0  0  0  0  0  0  0  0  0
   70.2486    5.0849   -1.6358 C   0  0  2  0  0  0  0  0  0  0  0  0
   71.5720    4.5803   -1.6483 C   0  0  1  0  0  0  0  0  0  0  0  0
   72.2897    4.3547   -2.6135 O   0  0  0  0  0  0  0  0  0  0  0  0
   69.4132    5.4317   -2.7030 N   0  0  0  0  0  0  0  0  0  0  0  0
   68.3510    5.8254   -2.0797 C   0  0  0  0  0  0  0  0  0  0  0  0
   68.3646    5.7875   -0.7240 N   0  0  0  0  0  0  0  0  0  0  0  0
  1  5  1  6  0  0  0
  1 14  1  0  0  0  0
  1 19  2  0  0  0  0
  2 15  1  1  0  0  0
  2 20  2  0  0  0  0
  2 23  1  0  0  0  0
  3 16  1  1  0  0  0
  3 21  2  0  0  0  0
  3 24  1  0  0  0  0
  3 25  1  0  0  0  0
  4  6  1  0  0  0  0
  5  4  1  0  0  0  0
  6  7  1  0  0  0  0
  6  8  2  0  0  0  0
  7 12  1  0  0  0  0
  8  9  1  0  0  0  0
  8 10  1  0  0  0  0
 10 11  1  0  0  0  0
 10 12  2  0  0  0  0
 12 32  1  0  0  0  0
 13 17  1  0  0  0  0
 17 18  1  1  0  0  0
 17 22  1  0  0  0  0
 23  1  1  0  0  0  0
 24  2  1  0  0  0  0
 26 22  1  1  0  0  0
 27 26  1  0  0  0  0
 27 28  1  0  0  0  0
 27 30  1  1  0  0  0
 28 13  1  0  0  0  0
 28 29  1  1  0  0  0
 31 30  1  0  0  0  0
 32 26  1  0  0  0  0
 32 31  1  0  0  0  0
M  CHG  3  14  -1  15  -1  16  -1
M  END
>  <CHROM.1>
60.40234458,139.17807707,-121.18090684,-168.79910422,100.93052356,162.30102139
160.64800774,75.81110609,69.55226951,8.62266695,0.34920955,1.52500536,0.09095930
0.20623468

>  <Name>
2au4_lig

>  <RI>
0

>  <Rbt.Current_Directory>
/home/itssahil/PROJECTS/Mol_Feturizer/New_Systems/rnas/2au4

>  <Rbt.Executable>
rbdock ($Id: //depot/dev/client3/rdock/2013.1/src/exe/rbdock.cxx#4 $)

>  <Rbt.Library>
libRbt.so (2013.1, Build901 2013/11/27)

>  <Rbt.Parameter_File>
/export/apps/rDock/src/rDock_2013.1_src/data/scripts/dock_solv.prm

>  <Rbt.Receptor>
prm/pocket_docking_2.prm

>  <SCORE>
-34.1606

>  <SCORE.INTER>
-16.596

>  <SCORE.INTER.CONST>
1

>  <SCORE.INTER.POLAR>
-1.57064

>  <SCORE.INTER.ROT>
8

>  <SCORE.INTER.SOLV>
34.1848

>  <SCORE.INTER.VDW>
-26.1568

>  <SCORE.INTER.norm>
-0.518624

>  <SCORE.INTRA>
-18.9109

>  <SCORE.INTRA.DIHEDRAL>
-38.7739

>  <SCORE.INTRA.DIHEDRAL.0>
76.3625

>  <SCORE.INTRA.POLAR>
0

>  <SCORE.INTRA.POLAR.0>
0

>  <SCORE.INTRA.REPUL>
-0.12705

>  <SCORE.INTRA.REPUL.0>
0.12705

>  <SCORE.INTRA.SOLV>
-2.98023

>  <SCORE.INTRA.SOLV.lig_0>
-119.383

>  <SCORE.INTRA.VDW>
2.6014

>  <SCORE.INTRA.VDW.0>
-5.10464

>  <SCORE.INTRA.norm>
-0.590965

>  <SCORE.RESTR>
1.34627

>  <SCORE.RESTR.CAVITY>
1.34627

>  <SCORE.RESTR.norm>
0.042071

>  <SCORE.SYSTEM>
0

>  <SCORE.SYSTEM.CONST>
0

>  <SCORE.SYSTEM.DIHEDRAL>
0

>  <SCORE.SYSTEM.SOLV>
0

>  <SCORE.SYSTEM.norm>
0

>  <SCORE.heavy>
32

>  <SCORE.norm>
-1.06752

>  <RMSD>
3.505

$$$$
2au4_lig
 OpenBabel11021811423D
libRbt.so/2013.1/901 2013/11/27
 32 34  0  0  0  0  0  0  0  0999 V2000
   68.8978   12.0813    0.3158 P   0  0  1  0  0  0  0  0  0  0  0  0
   70.5858   12.1538    2.4406 P   0  0  1  0  0  0  0  0  0  0  0  0
   73.1747   11.3038    2.3158 P   0  0  2  0  0  0  0  0  0  0  0  0
   67.4190   10.7119   -1.4072 C   0  0  0  0  0  0  0  0  0  0  0  0
   67.6356   11.1556   -0.0574 O   0  0  0  0  0  0  0  0  0  0  0  0
   66.3681    9.6152   -1.4976 C   0  0  0  0  0  0  0  0  0  0  0  0
   66.9115    8.4434   -2.1394 O   0  0  0  0  0  0  0  0  0  0  0  0
   65.8836    9.2181   -0.1120 C   0  0  0  0  0  0  0  0  0  0  0  0
   64.4920    9.5188    0.0496 O   0  0  0  0  0  0  0  0  0  0  0  0
   66.1378    7.7357    0.0228 C   0  0  0  0  0  0  0  0  0  0  0  0
   64.9218    7.0219    0.2833 O   0  0  0  0  0  0  0  0  0  0  0  0
   66.7566    7.2869   -1.2897 C   0  0  0  0  0  0  0  0  0  0  0  0
   69.9211    5.2493    2.1600 N   0  0  0  0  0  0  0  0  0  0  0  0
   70.0281   11.7116   -0.5598 O   0  5  0  0  0  0  0  0  0  0  0  0
   70.7494   13.5656    2.0430 O   0  5  0  0  0  0  0  0  0  0  0  0
   73.6397   12.7047    2.3651 O   0  5  0  0  0  0  0  0  0  0  0  0
   68.6835    5.8195    2.3410 C   0  0  1  0  0  0  0  0  0  0  0  0
   68.2309    5.8588    3.5871 N   0  0  0  0  0  0  0  0  0  0  0  0
   68.4466   13.4874    0.3895 O   0  0  0  0  0  0  0  0  0  0  0  0
   70.5879   11.7813    3.8706 O   0  0  0  0  0  0  0  0  0  0  0  0
   73.9688   10.2861    1.5962 O   0  0  0  0  0  0  0  0  0  0  0  0
   67.9466    6.3201    1.3525 N   0  0  0  0  0  0  0  0  0  0  0  0
   69.2469   11.6060    1.7897 O   0  0  0  0  0  0  0  0  0  0  0  0
   71.7035   11.2960    1.7058 O   0  0  0  0  0  0  0  0  0  0  0  0
   72.9361   10.7942    3.8205 O   0  0  0  0  0  0  0  0  0  0  0  0
   68.5581    6.2029    0.1513 C   0  0  2  0  0  0  0  0  0  0  0  0
   69.7971    5.6448   -0.1191 C   0  0  2  0  0  0  0  0  0  0  0  0
   70.5687    5.1167    0.9448 C   0  0  1  0  0  0  0  0  0  0  0  0
   71.6831    4.6133    0.8977 O   0  0  0  0  0  0  0  0  0  0  0  0
   70.0850    5.7100   -1.4866 N   0  0  0  0  0  0  0  0  0  0  0  0
   69.0247    6.2915   -1.9444 C   0  0  0  0  0  0  0  0  0  0  0  0
   68.0560    6.6270   -1.0562 N   0  0  0  0  0  0  0  0  0  0  0  0
  1  5  1  6  0  0  0
  1 14  1  0  0  0  0
  1 19  2  0  0  0  0
  2 15  1  6  0  0  0
  2 20  2  0  0  0  0
  2 23  1  0  0  0  0
  3 16  1  6  0  0  0
  3 21  2  0  0  0  0
  3 24  1  0  0  0  0
  3 25  1  0  0  0  0
  4  6  1  0  0  0  0
  5  4  1  0  0  0  0
  6  7  1  0  0  0  0
  6  8  2  0  0  0  0
  7 12  1  0  0  0  0
  8  9  1  0  0  0  0
  8 10  1  0  0  0  0
 10 11  1  0  0  0  0
 10 12  2  0  0  0  0
 12 32  1  0  0  0  0
 13 17  1  0  0  0  0
 17 18  1  1  0  0  0
 17 22  1  0  0  0  0
 23  1  1  0  0  0  0
 24  2  1  0  0  0  0
 26 22  1  1  0  0  0
 27 26  1  0  0  0  0
 27 28  1  0  0  0  0
 27 30  1  1  0  0  0
 28 13  1  0  0  0  0
 28 29  1  1  0  0  0
 31 30  1  0  0  0  0
 32 26  1  0  0  0  0
 32 31  1  0  0  0  0
M  CHG  3  14  -1  15  -1  16  -1
M  END
>  <CHROM.1>
-32.93789186,38.64108763,-57.52362977,-123.50018108,167.40719228,133.10263973
171.54944192,79.59352664,69.40485783,9.37092562,0.85306367,0.87714097,-0.45568781
0.05199269

>  <Name>
2au4_lig

>  <RI>
0

>  <Rbt.Current_Directory>
/home/itssahil/PROJECTS/Mol_Feturizer/New_Systems/rnas/2au4

>  <Rbt.Executable>
rbdock ($Id: //depot/dev/client3/rdock/2013.1/src/exe/rbdock.cxx#4 $)

>  <Rbt.Library>
libRbt.so (2013.1, Build901 2013/11/27)

>  <Rbt.Parameter_File>
/export/apps/rDock/src/rDock_2013.1_src/data/scripts/dock_solv.prm

>  <Rbt.Receptor>
prm/pocket_docking_4.prm

>  <SCORE>
-39.8596

>  <SCORE.INTER>
-17.6189

>  <SCORE.INTER.CONST>
1

>  <SCORE.INTER.POLAR>
-2.01399

>  <SCORE.INTER.ROT>
8

>  <SCORE.INTER.SOLV>
33.9063

>  <SCORE.INTER.VDW>
-25.2681

>  <SCORE.INTER.norm>
-0.550592

>  <SCORE.INTRA>
-22.9673

>  <SCORE.INTRA.DIHEDRAL>
-44.2335

>  <SCORE.INTRA.DIHEDRAL.0>
76.3625

>  <SCORE.INTRA.POLAR>
0

>  <SCORE.INTRA.POLAR.0>
0

>  <SCORE.INTRA.REPUL>
-0.12705

>  <SCORE.INTRA.REPUL.0>
0.12705

>  <SCORE.INTRA.SOLV>
-5.89216

>  <SCORE.INTRA.SOLV.lig_0>
-119.383

>  <SCORE.INTRA.VDW>
2.7308

>  <SCORE.INTRA.VDW.0>
-5.10464

>  <SCORE.INTRA.norm>
-0.717728

>  <SCORE.RESTR>
0.726651

>  <SCORE.RESTR.CAVITY>
0.726651

>  <SCORE.RESTR.norm>
0.0227078

>  <SCORE.SYSTEM>
0

>  <SCORE.SYSTEM.CONST>
0

>  <SCORE.SYSTEM.DIHEDRAL>
0

>  <SCORE.SYSTEM.SOLV>
0

>  <SCORE.SYSTEM.norm>
0

>  <SCORE.heavy>
32

>  <SCORE.norm>
-1.24561

>  <RMSD>
3.598

$$$$
2au4_lig
 OpenBabel11021811423D
libRbt.so/2013.1/901 2013/11/27
 32 34  0  0  0  0  0  0  0  0999 V2000
   69.9089   10.5442    0.3968 P   0  0  1  0  0  0  0  0  0  0  0  0
   70.1220   10.8312    3.0879 P   0  0  1  0  0  0  0  0  0  0  0  0
   68.1171    9.3854    4.2415 P   0  0  2  0  0  0  0  0  0  0  0  0
   68.4365    9.6632   -1.6247 C   0  0  0  0  0  0  0  0  0  0  0  0
   69.3412    9.3709   -0.5468 O   0  0  0  0  0  0  0  0  0  0  0  0
   67.8238    8.4073   -2.2270 C   0  0  0  0  0  0  0  0  0  0  0  0
   68.7481    7.3031   -2.1468 O   0  0  0  0  0  0  0  0  0  0  0  0
   66.5532    8.0199   -1.4868 C   0  0  0  0  0  0  0  0  0  0  0  0
   65.4127    8.1003   -2.3504 O   0  0  0  0  0  0  0  0  0  0  0  0
   66.7595    6.6089   -0.9900 C   0  0  0  0  0  0  0  0  0  0  0  0
   65.7568    5.7243   -1.5077 O   0  0  0  0  0  0  0  0  0  0  0  0
   68.1427    6.1892   -1.4568 C   0  0  0  0  0  0  0  0  0  0  0  0
   72.6418    4.3038    0.0497 N   0  0  0  0  0  0  0  0  0  0  0  0
   71.3798   10.5799    0.2705 O   0  5  0  0  0  0  0  0  0  0  0  0
   71.5948   10.7392    3.0692 O   0  5  0  0  0  0  0  0  0  0  0  0
   68.1481    8.2578    3.2883 O   0  5  0  0  0  0  0  0  0  0  0  0
   72.1963    4.5893   -1.2190 C   0  0  1  0  0  0  0  0  0  0  0  0
   73.0433    4.3413   -2.2091 N   0  0  0  0  0  0  0  0  0  0  0  0
   69.1145   11.7681    0.1578 O   0  0  0  0  0  0  0  0  0  0  0  0
   69.4619   12.1531    3.1057 O   0  0  0  0  0  0  0  0  0  0  0  0
   67.1739   10.5039    4.0332 O   0  0  0  0  0  0  0  0  0  0  0  0
   70.9904    5.0839   -1.4871 N   0  0  0  0  0  0  0  0  0  0  0  0
   69.5571   10.0138    1.8512 O   0  0  0  0  0  0  0  0  0  0  0  0
   69.5858    9.9953    4.3285 O   0  0  0  0  0  0  0  0  0  0  0  0
   67.8911    8.7963    5.7189 O   0  0  0  0  0  0  0  0  0  0  0  0
   70.2558    5.2713   -0.3665 C   0  0  2  0  0  0  0  0  0  0  0  0
   70.6255    5.0122    0.9435 C   0  0  2  0  0  0  0  0  0  0  0  0
   71.9128    4.4854    1.2113 C   0  0  1  0  0  0  0  0  0  0  0  0
   72.3968    4.1755    2.2916 O   0  0  0  0  0  0  0  0  0  0  0  0
   69.5900    5.3362    1.8266 N   0  0  0  0  0  0  0  0  0  0  0  0
   68.6807    5.7603    1.0110 C   0  0  0  0  0  0  0  0  0  0  0  0
   68.9732    5.7635   -0.3134 N   0  0  0  0  0  0  0  0  0  0  0  0
  1  5  1  6  0  0  0
  1 14  1  0  0  0  0
  1 19  2  0  0  0  0
  2 15  1  6  0  0  0
  2 20  2  0  0  0  0
  2 23  1  0  0  0  0
  3 16  1  6  0  0  0
  3 21  2  0  0  0  0
  3 24  1  0  0  0  0
  3 25  1  0  0  0  0
  4  6  1  0  0  0  0
  5  4  1  0  0  0  0
  6  7  1  0  0  0  0
  6  8  2  0  0  0  0
  7 12  1  0  0  0  0
  8  9  1  0  0  0  0
  8 10  1  0  0  0  0
 10 11  1  0  0  0  0
 10 12  2  0  0  0  0
 12 32  1  0  0  0  0
 13 17  1  0  0  0  0
 17 18  1  6  0  0  0
 17 22  1  0  0  0  0
 23  1  1  0  0  0  0
 24  2  1  0  0  0  0
 26 22  1  6  0  0  0
 27 26  1  0  0  0  0
 27 28  1  0  0  0  0
 27 30  1  6  0  0  0
 28 13  1  0  0  0  0
 28 29  1  6  0  0  0
 31 30  1  0  0  0  0
 32 26  1  0  0  0  0
 32 31  1  0  0  0  0
M  CHG  3  14  -1  15  -1  16  -1
M  END
>  <CHROM.1>
-118.98421852,-64.89583254,72.37849788,-31.76368820,-169.50169423,-62.36857015
172.81616939,-153.22717042,69.38031639,8.07495630,0.93035048,1.80089188,-0.74364659
0.81104133

>  <Name>
2au4_lig

>  <RI>
0

>  <Rbt.Current_Directory>
/home/itssahil/PROJECTS/Mol_Feturizer/New_Systems/rnas/2au4

>  <Rbt.Executable>
rbdock ($Id: //depot/dev/client3/rdock/2013.1/src/exe/rbdock.cxx#4 $)

>  <Rbt.Library>
libRbt.so (2013.1, Build901 2013/11/27)

>  <Rbt.Parameter_File>
/export/apps/rDock/src/rDock_2013.1_src/data/scripts/dock_solv.prm

>  <Rbt.Receptor>
prm/pocket_docking_3.prm

>  <SCORE>
-39.7118

>  <SCORE.INTER>
-22.2004

>  <SCORE.INTER.CONST>
1

>  <SCORE.INTER.POLAR>
-1.94353

>  <SCORE.INTER.ROT>
8

>  <SCORE.INTER.SOLV>
33.6681

>  <SCORE.INTER.VDW>
-28.4779

>  <SCORE.INTER.norm>
-0.693764

>  <SCORE.INTRA>
-18.2523

>  <SCORE.INTRA.DIHEDRAL>
-33.3912

>  <SCORE.INTRA.DIHEDRAL.0>
76.3625

>  <SCORE.INTRA.POLAR>
0

>  <SCORE.INTRA.POLAR.0>
0

>  <SCORE.INTRA.REPUL>
-0.110304

>  <SCORE.INTRA.REPUL.0>
0.12705

>  <SCORE.INTRA.SOLV>
-3.87572

>  <SCORE.INTRA.SOLV.lig_0>
-119.383

>  <SCORE.INTRA.VDW>
0.932653

>  <SCORE.INTRA.VDW.0>
-5.10464

>  <SCORE.INTRA.norm>
-0.570385

>  <SCORE.RESTR>
0.741014

>  <SCORE.RESTR.CAVITY>
0.741014

>  <SCORE.RESTR.norm>
0.0231567

>  <SCORE.SYSTEM>
0

>  <SCORE.SYSTEM.CONST>
0

>  <SCORE.SYSTEM.DIHEDRAL>
0

>  <SCORE.SYSTEM.SOLV>
0

>  <SCORE.SYSTEM.norm>
0

>  <SCORE.heavy>
32

>  <SCORE.norm>
-1.24099

>  <RMSD>
3.682

$$$$
2au4_lig
 OpenBabel11021811423D
libRbt.so/2013.1/901 2013/11/27
 32 34  0  0  0  0  0  0  0  0999 V2000
   67.7196   11.0890   -0.6320 P   0  0  1  0  0  0  0  0  0  0  0  0
   69.8760   12.5918    0.0470 P   0  0  1  0  0  0  0  0  0  0  0  0
   70.9046   12.9983    2.5405 P   0  0  2  0  0  0  0  0  0  0  0  0
   66.2689    8.9874   -1.3456 C   0  0  0  0  0  0  0  0  0  0  0  0
   67.5513    9.6348   -1.3001 O   0  0  0  0  0  0  0  0  0  0  0  0
   66.1071    7.9395   -0.2542 C   0  0  0  0  0  0  0  0  0  0  0  0
   66.3430    6.6176   -0.7808 O   0  0  0  0  0  0  0  0  0  0  0  0
   67.0926    8.1843    0.8778 C   0  0  0  0  0  0  0  0  0  0  0  0
   66.4059    8.4931    2.0968 O   0  0  0  0  0  0  0  0  0  0  0  0
   67.9068    6.9203    1.0185 C   0  0  0  0  0  0  0  0  0  0  0  0
   67.7832    6.3670    2.3356 O   0  0  0  0  0  0  0  0  0  0  0  0
   67.3775    5.9523   -0.0255 C   0  0  0  0  0  0  0  0  0  0  0  0
   72.1743    4.2279   -0.3134 N   0  0  0  0  0  0  0  0  0  0  0  0
   67.1021   12.0912   -1.5236 O   0  5  0  0  0  0  0  0  0  0  0  0
   70.9672   13.1321   -0.7869 O   0  5  0  0  0  0  0  0  0  0  0  0
   71.6787   14.1060    1.9446 O   0  5  0  0  0  0  0  0  0  0  0  0
   71.4394    4.5815    0.7932 C   0  0  1  0  0  0  0  0  0  0  0  0
   72.0501    4.4689    1.9651 N   0  0  0  0  0  0  0  0  0  0  0  0
   67.3106   11.0070    0.7865 O   0  0  0  0  0  0  0  0  0  0  0  0
   68.7420   13.4560    0.4349 O   0  0  0  0  0  0  0  0  0  0  0  0
   71.4791   12.2073    3.6487 O   0  0  0  0  0  0  0  0  0  0  0  0
   70.1844    5.0206    0.7397 N   0  0  0  0  0  0  0  0  0  0  0  0
   69.2921   11.3039   -0.6717 O   0  0  0  0  0  0  0  0  0  0  0  0
   70.5128   11.9891    1.3723 O   0  0  0  0  0  0  0  0  0  0  0  0
   69.4775   13.5691    3.0077 O   0  0  0  0  0  0  0  0  0  0  0  0
   69.7184    5.0788   -0.5292 C   0  0  2  0  0  0  0  0  0  0  0  0
   70.3877    4.7430   -1.6950 C   0  0  2  0  0  0  0  0  0  0  0  0
   71.7234    4.2776   -1.6202 C   0  0  1  0  0  0  0  0  0  0  0  0
   72.4700    3.9617   -2.5369 O   0  0  0  0  0  0  0  0  0  0  0  0
   69.5703    4.9402   -2.8130 N   0  0  0  0  0  0  0  0  0  0  0  0
   68.4834    5.3737   -2.2628 C   0  0  0  0  0  0  0  0  0  0  0  0
   68.4648    5.4937   -0.9118 N   0  0  0  0  0  0  0  0  0  0  0  0
  1  5  1  6  0  0  0
  1 14  1  0  0  0  0
  1 19  2  0  0  0  0
  2 15  1  6  0  0  0
  2 20  2  0  0  0  0
  2 23  1  0  0  0  0
  3 16  1  6  0  0  0
  3 21  2  0  0  0  0
  3 24  1  0  0  0  0
  3 25  1  0  0  0  0
  4  6  1  0  0  0  0
  5  4  1  0  0  0  0
  6  7  1  0  0  0  0
  6  8  2  0  0  0  0
  7 12  1  0  0  0  0
  8  9  1  0  0  0  0
  8 10  1  0  0  0  0
 10 11  1  0  0  0  0
 10 12  2  0  0  0  0
 12 32  1  0  0  0  0
 13 17  1  0  0  0  0
 17 18  1  6  0  0  0
 17 22  1  0  0  0  0
 23  1  1  0  0  0  0
 24  2  1  0  0  0  0
 26 22  1  6  0  0  0
 27 26  1  0  0  0  0
 27 28  1  0  0  0  0
 27 30  1  6  0  0  0
 28 13  1  0  0  0  0
 28 29  1  6  0  0  0
 31 30  1  0  0  0  0
 32 26  1  0  0  0  0
 32 31  1  0  0  0  0
M  CHG  3  14  -1  15  -1  16  -1
M  END
>  <CHROM.1>
-72.07827134,-140.65969096,-48.55696911,-99.57457396,-100.11892867,165.53098828
-173.88829562,79.90770909,69.24729292,8.99632764,0.19297470,1.59487607,-0.33288292
0.24576903

>  <Name>
2au4_lig

>  <RI>
0

>  <Rbt.Current_Directory>
/home/itssahil/PROJECTS/Mol_Feturizer/New_Systems/rnas/2au4

>  <Rbt.Executable>
rbdock ($Id: //depot/dev/client3/rdock/2013.1/src/exe/rbdock.cxx#4 $)

>  <Rbt.Library>
libRbt.so (2013.1, Build901 2013/11/27)

>  <Rbt.Parameter_File>
/export/apps/rDock/src/rDock_2013.1_src/data/scripts/dock_solv.prm

>  <Rbt.Receptor>
prm/pocket_docking_3.prm

>  <SCORE>
-39.2936

>  <SCORE.INTER>
-18.2308

>  <SCORE.INTER.CONST>
1

>  <SCORE.INTER.POLAR>
-1.249

>  <SCORE.INTER.ROT>
8

>  <SCORE.INTER.SOLV>
33.2526

>  <SCORE.INTER.VDW>
-28.0081

>  <SCORE.INTER.norm>
-0.569713

>  <SCORE.INTRA>
-21.0632

>  <SCORE.INTRA.DIHEDRAL>
-40.0083

>  <SCORE.INTRA.DIHEDRAL.0>
76.3625

>  <SCORE.INTRA.POLAR>
0

>  <SCORE.INTRA.POLAR.0>
0

>  <SCORE.INTRA.REPUL>
-0.12705

>  <SCORE.INTRA.REPUL.0>
0.12705

>  <SCORE.INTRA.SOLV>
-3.41519

>  <SCORE.INTRA.SOLV.lig_0>
-119.383

>  <SCORE.INTRA.VDW>
1.28386

>  <SCORE.INTRA.VDW.0>
-5.10464

>  <SCORE.INTRA.norm>
-0.658224

>  <SCORE.RESTR>
0.000323246

>  <SCORE.RESTR.CAVITY>
0.000323246

>  <SCORE.RESTR.norm>
1.01014e-05

>  <SCORE.SYSTEM>
0

>  <SCORE.SYSTEM.CONST>
0

>  <SCORE.SYSTEM.DIHEDRAL>
0

>  <SCORE.SYSTEM.SOLV>
0

>  <SCORE.SYSTEM.norm>
0

>  <SCORE.heavy>
32

>  <SCORE.norm>
-1.22793

>  <RMSD>
3.686

$$$$
2au4_lig
 OpenBabel11021811423D
libRbt.so/2013.1/901 2013/11/27
 32 34  0  0  0  0  0  0  0  0999 V2000
   68.8425   11.0791   -0.2467 P   0  0  1  0  0  0  0  0  0  0  0  0
   70.0485   11.0791    2.1854 P   0  0  1  0  0  0  0  0  0  0  0  0
   72.4205   12.1775    1.4056 P   0  0  2  0  0  0  0  0  0  0  0  0
   66.6204    9.6325   -0.2310 C   0  0  0  0  0  0  0  0  0  0  0  0
   67.4773   10.5725    0.4382 O   0  0  0  0  0  0  0  0  0  0  0  0
   66.3172    8.4107    0.6238 C   0  0  0  0  0  0  0  0  0  0  0  0
   66.3731    7.2086   -0.1713 O   0  0  0  0  0  0  0  0  0  0  0  0
   67.3253    8.2813    1.7549 C   0  0  0  0  0  0  0  0  0  0  0  0
   66.6851    8.4169    3.0295 O   0  0  0  0  0  0  0  0  0  0  0  0
   67.9611    6.9194    1.6089 C   0  0  0  0  0  0  0  0  0  0  0  0
   67.7623    6.1247    2.7858 O   0  0  0  0  0  0  0  0  0  0  0  0
   67.3072    6.2694    0.4018 C   0  0  0  0  0  0  0  0  0  0  0  0
   71.9960    4.3913   -0.3430 N   0  0  0  0  0  0  0  0  0  0  0  0
   69.6873    9.9035   -0.5384 O   0  5  0  0  0  0  0  0  0  0  0  0
   69.0789   11.2586    3.2835 O   0  5  0  0  0  0  0  0  0  0  0  0
   71.8064   13.1922    0.5255 O   0  5  0  0  0  0  0  0  0  0  0  0
   71.3376    4.6518    0.8352 C   0  0  1  0  0  0  0  0  0  0  0  0
   72.0031    4.3868    1.9515 N   0  0  0  0  0  0  0  0  0  0  0  0
   68.5044   12.0343   -1.3234 O   0  0  0  0  0  0  0  0  0  0  0  0
   70.4136    9.7204    1.7335 O   0  0  0  0  0  0  0  0  0  0  0  0
   72.8909   10.8957    0.8403 O   0  0  0  0  0  0  0  0  0  0  0  0
   70.1035    5.1452    0.9010 N   0  0  0  0  0  0  0  0  0  0  0  0
   69.5318   11.8956    0.9274 O   0  0  0  0  0  0  0  0  0  0  0  0
   71.3856   11.8468    2.5703 O   0  0  0  0  0  0  0  0  0  0  0  0
   73.6380   12.8625    2.1987 O   0  0  0  0  0  0  0  0  0  0  0  0
   69.5749    5.3608   -0.3256 C   0  0  2  0  0  0  0  0  0  0  0  0
   70.1655    5.1273   -1.5570 C   0  0  2  0  0  0  0  0  0  0  0  0
   71.4799    4.6021   -1.6091 C   0  0  1  0  0  0  0  0  0  0  0  0
   72.1616    4.3579   -2.5956 O   0  0  0  0  0  0  0  0  0  0  0  0
   69.3007    5.4788   -2.5989 N   0  0  0  0  0  0  0  0  0  0  0  0
   68.2658    5.8938   -1.9441 C   0  0  0  0  0  0  0  0  0  0  0  0
   68.3238    5.8661   -0.5893 N   0  0  0  0  0  0  0  0  0  0  0  0
  1  5  1  1  0  0  0
  1 14  1  0  0  0  0
  1 19  2  0  0  0  0
  2 15  1  1  0  0  0
  2 20  2  0  0  0  0
  2 23  1  0  0  0  0
  3 16  1  6  0  0  0
  3 21  2  0  0  0  0
  3 24  1  0  0  0  0
  3 25  1  0  0  0  0
  4  6  1  0  0  0  0
  5  4  1  0  0  0  0
  6  7  1  0  0  0  0
  6  8  2  0  0  0  0
  7 12  1  0  0  0  0
  8  9  1  0  0  0  0
  8 10  1  0  0  0  0
 10 11  1  0  0  0  0
 10 12  2  0  0  0  0
 12 32  1  0  0  0  0
 13 17  1  0  0  0  0
 17 18  1  1  0  0  0
 17 22  1  0  0  0  0
 23  1  1  0  0  0  0
 24  2  1  0  0  0  0
 26 22  1  1  0  0  0
 27 26  1  0  0  0  0
 27 28  1  0  0  0  0
 27 30  1  1  0  0  0
 28 13  1  0  0  0  0
 28 29  1  1  0  0  0
 31 30  1  0  0  0  0
 32 26  1  0  0  0  0
 32 31  1  0  0  0  0
M  CHG  3  14  -1  15  -1  16  -1
M  END
>  <CHROM.1>
-57.63977425,-102.51751815,68.54707554,-138.13238778,125.86507851,157.35450118
68.08647321,-162.24535087,69.71178725,8.72747823,0.58426358,1.40946104,0.05043167
0.27667638

>  <Name>
2au4_lig

>  <RI>
0

>  <Rbt.Current_Directory>
/home/itssahil/PROJECTS/Mol_Feturizer/New_Systems/rnas/2au4

>  <Rbt.Executable>
rbdock ($Id: //depot/dev/client3/rdock/2013.1/src/exe/rbdock.cxx#4 $)

>  <Rbt.Library>
libRbt.so (2013.1, Build901 2013/11/27)

>  <Rbt.Parameter_File>
/export/apps/rDock/src/rDock_2013.1_src/data/scripts/dock_solv.prm

>  <Rbt.Receptor>
prm/pocket_docking_2.prm

>  <SCORE>
-42.2442

>  <SCORE.INTER>
-25.0591

>  <SCORE.INTER.CONST>
1

>  <SCORE.INTER.POLAR>
-2.97197

>  <SCORE.INTER.ROT>
8

>  <SCORE.INTER.SOLV>
32.444

>  <SCORE.INTER.VDW>
-26.5475

>  <SCORE.INTER.norm>
-0.783098

>  <SCORE.INTRA>
-19.704

>  <SCORE.INTRA.DIHEDRAL>
-41.491

>  <SCORE.INTRA.DIHEDRAL.0>
76.3625

>  <SCORE.INTRA.POLAR>
0

>  <SCORE.INTRA.POLAR.0>
0

>  <SCORE.INTRA.REPUL>
-0.12705

>  <SCORE.INTRA.REPUL.0>
0.12705

>  <SCORE.INTRA.SOLV>
0.891432

>  <SCORE.INTRA.SOLV.lig_0>
-119.383

>  <SCORE.INTRA.VDW>
1.23109

>  <SCORE.INTRA.VDW.0>
-5.10464

>  <SCORE.INTRA.norm>
-0.615749

>  <SCORE.RESTR>
2.51889

>  <SCORE.RESTR.CAVITY>
2.51889

>  <SCORE.RESTR.norm>
0.0787154

>  <SCORE.SYSTEM>
0

>  <SCORE.SYSTEM.CONST>
0

>  <SCORE.SYSTEM.DIHEDRAL>
0

>  <SCORE.SYSTEM.SOLV>
0

>  <SCORE.SYSTEM.norm>
0

>  <SCORE.heavy>
32

>  <SCORE.norm>
-1.32013

>  <RMSD>
3.702

$$$$
2au4_lig
 OpenBabel11021811423D
libRbt.so/2013.1/901 2013/11/27
 32 34  0  0  0  0  0  0  0  0999 V2000
   68.3227   11.0431   -0.6400 P   0  0  1  0  0  0  0  0  0  0  0  0
   69.1757   10.2403    1.8090 P   0  0  1  0  0  0  0  0  0  0  0  0
   67.4231   10.1610    3.8978 P   0  0  2  0  0  0  0  0  0  0  0  0
   68.6111    8.9530   -2.2459 C   0  0  0  0  0  0  0  0  0  0  0  0
   68.3088   10.3496   -2.0920 O   0  0  0  0  0  0  0  0  0  0  0  0
   67.4131    8.0624   -1.9508 C   0  0  0  0  0  0  0  0  0  0  0  0
   67.8439    6.7294   -1.6079 O   0  0  0  0  0  0  0  0  0  0  0  0
   66.6043    8.6157   -0.7879 C   0  0  0  0  0  0  0  0  0  0  0  0
   65.2881    8.9905   -1.2119 O   0  0  0  0  0  0  0  0  0  0  0  0
   66.5487    7.5238    0.2538 C   0  0  0  0  0  0  0  0  0  0  0  0
   65.1945    7.1554    0.5481 O   0  0  0  0  0  0  0  0  0  0  0  0
   67.3160    6.3454   -0.3206 C   0  0  0  0  0  0  0  0  0  0  0  0
   71.9489    4.2386    0.0844 N   0  0  0  0  0  0  0  0  0  0  0  0
   69.1998   12.2300   -0.6933 O   0  5  0  0  0  0  0  0  0  0  0  0
   70.0744    9.2268    2.3948 O   0  5  0  0  0  0  0  0  0  0  0  0
   68.4270    9.3738    4.6419 O   0  5  0  0  0  0  0  0  0  0  0  0
   71.1935    4.4756   -1.0394 C   0  0  1  0  0  0  0  0  0  0  0  0
   71.7279    4.1059   -2.1956 N   0  0  0  0  0  0  0  0  0  0  0  0
   66.9284   11.1726   -0.1653 O   0  0  0  0  0  0  0  0  0  0  0  0
   69.4679   11.6785    1.9813 O   0  0  0  0  0  0  0  0  0  0  0  0
   65.9821    9.9300    4.1303 O   0  0  0  0  0  0  0  0  0  0  0  0
   69.9878    5.0380   -1.0167 N   0  0  0  0  0  0  0  0  0  0  0  0
   69.0403    9.9464    0.2560 O   0  0  0  0  0  0  0  0  0  0  0  0
   67.7034    9.9688    2.3417 O   0  0  0  0  0  0  0  0  0  0  0  0
   67.7322   11.7213    4.1224 O   0  0  0  0  0  0  0  0  0  0  0  0
   69.5935    5.3476    0.2400 C   0  0  2  0  0  0  0  0  0  0  0  0
   70.2885    5.1449    1.4214 C   0  0  2  0  0  0  0  0  0  0  0  0
   71.5706    4.5445    1.3794 C   0  0  1  0  0  0  0  0  0  0  0  0
   72.3110    4.2686    2.3138 O   0  0  0  0  0  0  0  0  0  0  0  0
   69.5479    5.5972    2.5188 N   0  0  0  0  0  0  0  0  0  0  0  0
   68.4760    6.0339    1.9423 C   0  0  0  0  0  0  0  0  0  0  0  0
   68.4004    5.9332    0.5918 N   0  0  0  0  0  0  0  0  0  0  0  0
  1  5  1  6  0  0  0
  1 14  1  0  0  0  0
  1 19  2  0  0  0  0
  2 15  1  1  0  0  0
  2 20  2  0  0  0  0
  2 23  1  0  0  0  0
  3 16  1  1  0  0  0
  3 21  2  0  0  0  0
  3 24  1  0  0  0  0
  3 25  1  0  0  0  0
  4  6  1  0  0  0  0
  5  4  1  0  0  0  0
  6  7  1  0  0  0  0
  6  8  2  0  0  0  0
  7 12  1  0  0  0  0
  8  9  1  0  0  0  0
  8 10  1  0  0  0  0
 10 11  1  0  0  0  0
 10 12  2  0  0  0  0
 12 32  1  0  0  0  0
 13 17  1  0  0  0  0
 17 18  1  1  0  0  0
 17 22  1  0  0  0  0
 23  1  1  0  0  0  0
 24  2  1  0  0  0  0
 26 22  1  1  0  0  0
 27 26  1  0  0  0  0
 27 28  1  0  0  0  0
 27 30  1  1  0  0  0
 28 13  1  0  0  0  0
 28 29  1  1  0  0  0
 31 30  1  0  0  0  0
 32 26  1  0  0  0  0
 32 31  1  0  0  0  0
M  CHG  3  14  -1  15  -1  16  -1
M  END
>  <CHROM.1>
126.91911484,-169.86671344,-52.19530746,-157.83240672,81.85371809,-30.34416238
-176.82621938,65.67359438,68.62047201,8.30457471,0.80786042,2.57379284,-1.04521202
1.22155707

>  <Name>
2au4_lig

>  <RI>
0

>  <Rbt.Current_Directory>
/home/itssahil/PROJECTS/Mol_Feturizer/New_Systems/rnas/2au4

>  <Rbt.Executable>
rbdock ($Id: //depot/dev/client3/rdock/2013.1/src/exe/rbdock.cxx#4 $)

>  <Rbt.Library>
libRbt.so (2013.1, Build901 2013/11/27)

>  <Rbt.Parameter_File>
/export/apps/rDock/src/rDock_2013.1_src/data/scripts/dock_solv.prm

>  <Rbt.Receptor>
prm/pocket_docking_3.prm

>  <SCORE>
-46.2762

>  <SCORE.INTER>
-23.3159

>  <SCORE.INTER.CONST>
1

>  <SCORE.INTER.POLAR>
-2.38299

>  <SCORE.INTER.ROT>
8

>  <SCORE.INTER.SOLV>
29.261

>  <SCORE.INTER.VDW>
-26.2876

>  <SCORE.INTER.norm>
-0.728622

>  <SCORE.INTRA>
-22.9603

>  <SCORE.INTRA.DIHEDRAL>
-46.451

>  <SCORE.INTRA.DIHEDRAL.0>
76.3625

>  <SCORE.INTRA.POLAR>
0

>  <SCORE.INTRA.POLAR.0>
0

>  <SCORE.INTRA.REPUL>
0.0628433

>  <SCORE.INTRA.REPUL.0>
0.12705

>  <SCORE.INTRA.SOLV>
-0.443121

>  <SCORE.INTRA.SOLV.lig_0>
-119.383

>  <SCORE.INTRA.VDW>
0.172569

>  <SCORE.INTRA.VDW.0>
-5.10464

>  <SCORE.INTRA.norm>
-0.717509

>  <SCORE.RESTR>
0

>  <SCORE.RESTR.CAVITY>
0

>  <SCORE.RESTR.norm>
0

>  <SCORE.SYSTEM>
0

>  <SCORE.SYSTEM.CONST>
0

>  <SCORE.SYSTEM.DIHEDRAL>
0

>  <SCORE.SYSTEM.SOLV>
0

>  <SCORE.SYSTEM.norm>
0

>  <SCORE.heavy>
32

>  <SCORE.norm>
-1.44613

>  <RMSD>
3.718

$$$$
2au4_lig
 OpenBabel11021811423D
libRbt.so/2013.1/901 2013/11/27
 32 34  0  0  0  0  0  0  0  0999 V2000
   68.9657   11.2225   -0.1407 P   0  0  1  0  0  0  0  0  0  0  0  0
   68.5876   11.9793    2.4388 P   0  0  1  0  0  0  0  0  0  0  0  0
   69.6664    9.9832    3.9529 P   0  0  2  0  0  0  0  0  0  0  0  0
   66.7836   10.4170   -1.4135 C   0  0  0  0  0  0  0  0  0  0  0  0
   68.1777   10.2215   -1.1237 O   0  0  0  0  0  0  0  0  0  0  0  0
   65.9343    9.2158   -1.0245 C   0  0  0  0  0  0  0  0  0  0  0  0
   66.1438    8.1264   -1.9462 O   0  0  0  0  0  0  0  0  0  0  0  0
   66.2919    8.7333    0.3726 C   0  0  0  0  0  0  0  0  0  0  0  0
   65.1798    8.8777    1.2645 O   0  0  0  0  0  0  0  0  0  0  0  0
   66.6938    7.2841    0.2362 C   0  0  0  0  0  0  0  0  0  0  0  0
   65.8615    6.4367    1.0395 O   0  0  0  0  0  0  0  0  0  0  0  0
   66.5544    6.9386   -1.2364 C   0  0  0  0  0  0  0  0  0  0  0  0
   71.0804    4.8443   -0.1431 N   0  0  0  0  0  0  0  0  0  0  0  0
   70.3492   10.7320    0.0206 O   0  5  0  0  0  0  0  0  0  0  0  0
   69.9977   12.3846    2.2795 O   0  5  0  0  0  0  0  0  0  0  0  0
   69.2459    9.0659    5.0313 O   0  5  0  0  0  0  0  0  0  0  0  0
   70.0687    5.2274    0.7051 C   0  0  1  0  0  0  0  0  0  0  0  0
   70.2834    5.0368    1.9999 N   0  0  0  0  0  0  0  0  0  0  0  0
   68.7187   12.6112   -0.5842 O   0  0  0  0  0  0  0  0  0  0  0  0
   67.5299   13.0048    2.5536 O   0  0  0  0  0  0  0  0  0  0  0  0
   70.9223   10.7510    4.0832 O   0  0  0  0  0  0  0  0  0  0  0  0
   68.9231    5.7666    0.2959 N   0  0  0  0  0  0  0  0  0  0  0  0
   68.2097   11.0123    1.2394 O   0  0  0  0  0  0  0  0  0  0  0  0
   68.4840   11.0203    3.7017 O   0  0  0  0  0  0  0  0  0  0  0  0
   69.7129    9.1596    2.5744 O   0  0  0  0  0  0  0  0  0  0  0  0
   68.8718    5.8939   -1.0501 C   0  0  2  0  0  0  0  0  0  0  0  0
   69.8404    5.5353   -1.9737 C   0  0  2  0  0  0  0  0  0  0  0  0
   71.0545    4.9630   -1.5211 C   0  0  1  0  0  0  0  0  0  0  0  0
   72.0217    4.6117   -2.1832 O   0  0  0  0  0  0  0  0  0  0  0  0
   69.4188    5.8253   -3.2757 N   0  0  0  0  0  0  0  0  0  0  0  0
   68.2482    6.3302   -3.0596 C   0  0  0  0  0  0  0  0  0  0  0  0
   67.8263    6.4172   -1.7735 N   0  0  0  0  0  0  0  0  0  0  0  0
  1  5  1  6  0  0  0
  1 14  1  0  0  0  0
  1 19  2  0  0  0  0
  2 15  1  6  0  0  0
  2 20  2  0  0  0  0
  2 23  1  0  0  0  0
  3 16  1  1  0  0  0
  3 21  2  0  0  0  0
  3 24  1  0  0  0  0
  3 25  1  0  0  0  0
  4  6  1  0  0  0  0
  5  4  1  0  0  0  0
  6  7  1  0  0  0  0
  6  8  2  0  0  0  0
  7 12  1  0  0  0  0
  8  9  1  0  0  0  0
  8 10  1  0  0  0  0
 10 11  1  0  0  0  0
 10 12  2  0  0  0  0
 12 32  1  0  0  0  0
 13 17  1  0  0  0  0
 17 18  1  1  0  0  0
 17 22  1  0  0  0  0
 23  1  1  0  0  0  0
 24  2  1  0  0  0  0
 26 22  1  1  0  0  0
 27 26  1  0  0  0  0
 27 28  1  0  0  0  0
 27 30  1  1  0  0  0
 28 13  1  0  0  0  0
 28 29  1  1  0  0  0
 31 30  1  0  0  0  0
 32 26  1  0  0  0  0
 32 31  1  0  0  0  0
M  CHG  3  14  -1  15  -1  16  -1
M  END
>  <CHROM.1>
177.05310136,-29.80276382,-170.75752670,-73.24662761,-121.29665612,140.16515047
-172.44624910,-37.94763968,68.68362294,8.79306174,0.59728727,1.65092821,-0.81327622
0.65976865

>  <Name>
2au4_lig

>  <RI>
0

>  <Rbt.Current_Directory>
/home/itssahil/PROJECTS/Mol_Feturizer/New_Systems/rnas/2au4

>  <Rbt.Executable>
rbdock ($Id: //depot/dev/client3/rdock/2013.1/src/exe/rbdock.cxx#4 $)

>  <Rbt.Library>
libRbt.so (2013.1, Build901 2013/11/27)

>  <Rbt.Parameter_File>
/export/apps/rDock/src/rDock_2013.1_src/data/scripts/dock_solv.prm

>  <Rbt.Receptor>
prm/pocket_docking_3.prm

>  <SCORE>
-34.414

>  <SCORE.INTER>
-12.0065

>  <SCORE.INTER.CONST>
1

>  <SCORE.INTER.POLAR>
-0.8

>  <SCORE.INTER.ROT>
8

>  <SCORE.INTER.SOLV>
25.4942

>  <SCORE.INTER.VDW>
-22.7691

>  <SCORE.INTER.norm>
-0.375203

>  <SCORE.INTRA>
-22.4075

>  <SCORE.INTRA.DIHEDRAL>
-40.2004

>  <SCORE.INTRA.DIHEDRAL.0>
76.3625

>  <SCORE.INTRA.POLAR>
0

>  <SCORE.INTRA.POLAR.0>
0

>  <SCORE.INTRA.REPUL>
-0.12705

>  <SCORE.INTRA.REPUL.0>
0.12705

>  <SCORE.INTRA.SOLV>
-4.25079

>  <SCORE.INTRA.SOLV.lig_0>
-119.383

>  <SCORE.INTRA.VDW>
0.453368

>  <SCORE.INTRA.VDW.0>
-5.10464

>  <SCORE.INTRA.norm>
-0.700233

>  <SCORE.RESTR>
0

>  <SCORE.RESTR.CAVITY>
0

>  <SCORE.RESTR.norm>
0

>  <SCORE.SYSTEM>
0

>  <SCORE.SYSTEM.CONST>
0

>  <SCORE.SYSTEM.DIHEDRAL>
0

>  <SCORE.SYSTEM.SOLV>
0

>  <SCORE.SYSTEM.norm>
0

>  <SCORE.heavy>
32

>  <SCORE.norm>
-1.07544

>  <RMSD>
3.790

$$$$
2au4_lig
 OpenBabel11021811423D
libRbt.so/2013.1/901 2013/11/27
 32 34  0  0  0  0  0  0  0  0999 V2000
   68.5110   11.3145   -0.5158 P   0  0  1  0  0  0  0  0  0  0  0  0
   70.3051   11.1027    1.5104 P   0  0  1  0  0  0  0  0  0  0  0  0
   72.1691   13.0929    1.4354 P   0  0  2  0  0  0  0  0  0  0  0  0
   66.6282    9.5998    0.2227 C   0  0  0  0  0  0  0  0  0  0  0  0
   68.0234    9.9399    0.1640 O   0  0  0  0  0  0  0  0  0  0  0  0
   66.3669    8.3574    1.0615 C   0  0  0  0  0  0  0  0  0  0  0  0
   66.4205    7.1715    0.2423 O   0  0  0  0  0  0  0  0  0  0  0  0
   67.4067    8.2230    2.1630 C   0  0  0  0  0  0  0  0  0  0  0  0
   66.7985    8.3242    3.4564 O   0  0  0  0  0  0  0  0  0  0  0  0
   68.0596    6.8745    1.9743 C   0  0  0  0  0  0  0  0  0  0  0  0
   67.9046    6.0547    3.1405 O   0  0  0  0  0  0  0  0  0  0  0  0
   67.3842    6.2368    0.7725 C   0  0  0  0  0  0  0  0  0  0  0  0
   72.0594    4.3957   -0.1323 N   0  0  0  0  0  0  0  0  0  0  0  0
   68.5353   11.1324   -1.9811 O   0  5  0  0  0  0  0  0  0  0  0  0
   69.4619   11.9823    2.3429 O   0  5  0  0  0  0  0  0  0  0  0  0
   71.3968   13.8950    2.4056 O   0  5  0  0  0  0  0  0  0  0  0  0
   71.4256    4.6158    1.0675 C   0  0  1  0  0  0  0  0  0  0  0  0
   72.1150    4.3160    2.1601 N   0  0  0  0  0  0  0  0  0  0  0  0
   67.7478   12.4322    0.0795 O   0  0  0  0  0  0  0  0  0  0  0  0
   70.2456    9.6365    1.6850 O   0  0  0  0  0  0  0  0  0  0  0  0
   72.0446   13.3628   -0.0123 O   0  0  0  0  0  0  0  0  0  0  0  0
   70.1924    5.1038    1.1754 N   0  0  0  0  0  0  0  0  0  0  0  0
   70.0125   11.4307   -0.0138 O   0  0  0  0  0  0  0  0  0  0  0  0
   71.8183   11.5582    1.6776 O   0  0  0  0  0  0  0  0  0  0  0  0
   73.7228   13.1678    1.8363 O   0  0  0  0  0  0  0  0  0  0  0  0
   69.6375    5.3581   -0.0320 C   0  0  2  0  0  0  0  0  0  0  0  0
   70.2023    5.1665   -1.2826 C   0  0  2  0  0  0  0  0  0  0  0  0
   71.5163    4.6465   -1.3796 C   0  0  1  0  0  0  0  0  0  0  0  0
   72.1774    4.4365   -2.3877 O   0  0  0  0  0  0  0  0  0  0  0  0
   69.3150    5.5499   -2.2940 N   0  0  0  0  0  0  0  0  0  0  0  0
   68.2935    5.9407   -1.6042 C   0  0  0  0  0  0  0  0  0  0  0  0
   68.3802    5.8688   -0.2526 N   0  0  0  0  0  0  0  0  0  0  0  0
  1  5  1  1  0  0  0
  1 14  1  0  0  0  0
  1 19  2  0  0  0  0
  2 15  1  1  0  0  0
  2 20  2  0  0  0  0
  2 23  1  0  0  0  0
  3 16  1  1  0  0  0
  3 21  2  0  0  0  0
  3 24  1  0  0  0  0
  3 25  1  0  0  0  0
  4  6  1  0  0  0  0
  5  4  1  0  0  0  0
  6  7  1  0  0  0  0
  6  8  2  0  0  0  0
  7 12  1  0  0  0  0
  8  9  1  0  0  0  0
  8 10  1  0  0  0  0
 10 11  1  0  0  0  0
 10 12  2  0  0  0  0
 12 32  1  0  0  0  0
 13 17  1  0  0  0  0
 17 18  1  1  0  0  0
 17 22  1  0  0  0  0
 23  1  1  0  0  0  0
 24  2  1  0  0  0  0
 26 22  1  1  0  0  0
 27 26  1  0  0  0  0
 27 28  1  0  0  0  0
 27 30  1  1  0  0  0
 28 13  1  0  0  0  0
 28 29  1  1  0  0  0
 31 30  1  0  0  0  0
 32 26  1  0  0  0  0
 32 31  1  0  0  0  0
M  CHG  3  14  -1  15  -1  16  -1
M  END
>  <CHROM.1>
-80.34520125,-56.57798775,60.15045183,-90.05050391,-172.46215636,158.51158999
-43.62071511,-52.50301165,69.68130403,8.92580456,0.61690602,1.42443282,0.06715371
0.16691174

>  <Name>
2au4_lig

>  <RI>
0

>  <Rbt.Current_Directory>
/home/itssahil/PROJECTS/Mol_Feturizer/New_Systems/rnas/2au4

>  <Rbt.Executable>
rbdock ($Id: //depot/dev/client3/rdock/2013.1/src/exe/rbdock.cxx#4 $)

>  <Rbt.Library>
libRbt.so (2013.1, Build901 2013/11/27)

>  <Rbt.Parameter_File>
/export/apps/rDock/src/rDock_2013.1_src/data/scripts/dock_solv.prm

>  <Rbt.Receptor>
prm/pocket_docking_4.prm

>  <SCORE>
-57.7468

>  <SCORE.INTER>
-31.4704

>  <SCORE.INTER.CONST>
1

>  <SCORE.INTER.POLAR>
-3.49182

>  <SCORE.INTER.ROT>
8

>  <SCORE.INTER.SOLV>
32.754

>  <SCORE.INTER.VDW>
-29.1922

>  <SCORE.INTER.norm>
-0.983452

>  <SCORE.INTRA>
-26.2764

>  <SCORE.INTRA.DIHEDRAL>
-48.9675

>  <SCORE.INTRA.DIHEDRAL.0>
76.3625

>  <SCORE.INTRA.POLAR>
0

>  <SCORE.INTRA.POLAR.0>
0

>  <SCORE.INTRA.REPUL>
-0.12705

>  <SCORE.INTRA.REPUL.0>
0.12705

>  <SCORE.INTRA.SOLV>
-3.13442

>  <SCORE.INTRA.SOLV.lig_0>
-119.383

>  <SCORE.INTRA.VDW>
0.409791

>  <SCORE.INTRA.VDW.0>
-5.10464

>  <SCORE.INTRA.norm>
-0.821137

>  <SCORE.RESTR>
0

>  <SCORE.RESTR.CAVITY>
0

>  <SCORE.RESTR.norm>
0

>  <SCORE.SYSTEM>
0

>  <SCORE.SYSTEM.CONST>
0

>  <SCORE.SYSTEM.DIHEDRAL>
0

>  <SCORE.SYSTEM.SOLV>
0

>  <SCORE.SYSTEM.norm>
0

>  <SCORE.heavy>
32

>  <SCORE.norm>
-1.80459

>  <RMSD>
3.803

$$$$
2au4_lig
 OpenBabel11021811423D
libRbt.so/2013.1/901 2013/11/27
 32 34  0  0  0  0  0  0  0  0999 V2000
   69.7553   10.6447    0.9639 P   0  0  1  0  0  0  0  0  0  0  0  0
   69.2517   13.2659    1.4588 P   0  0  1  0  0  0  0  0  0  0  0  0
   71.7184   13.6939    2.5417 P   0  0  2  0  0  0  0  0  0  0  0  0
   68.4577    9.8728   -1.2158 C   0  0  0  0  0  0  0  0  0  0  0  0
   68.4220   10.5068    0.0736 O   0  0  0  0  0  0  0  0  0  0  0  0
   67.3830    8.8067   -1.3700 C   0  0  0  0  0  0  0  0  0  0  0  0
   67.9696    7.4891   -1.3568 O   0  0  0  0  0  0  0  0  0  0  0  0
   66.3744    8.8907   -0.2349 C   0  0  0  0  0  0  0  0  0  0  0  0
   65.0726    9.2262   -0.7304 O   0  0  0  0  0  0  0  0  0  0  0  0
   66.3683    7.5371    0.4344 C   0  0  0  0  0  0  0  0  0  0  0  0
   65.0612    6.9484    0.4034 O   0  0  0  0  0  0  0  0  0  0  0  0
   67.3648    6.6794   -0.3262 C   0  0  0  0  0  0  0  0  0  0  0  0
   71.9132    4.3934    0.0651 N   0  0  0  0  0  0  0  0  0  0  0  0
   69.9506    9.3895    1.7170 O   0  5  0  0  0  0  0  0  0  0  0  0
   68.6041   13.2293    0.1331 O   0  5  0  0  0  0  0  0  0  0  0  0
   72.0474   12.2969    2.8901 O   0  5  0  0  0  0  0  0  0  0  0  0
   71.2227    4.7753   -1.0605 C   0  0  1  0  0  0  0  0  0  0  0  0
   71.8054    4.5166   -2.2235 N   0  0  0  0  0  0  0  0  0  0  0  0
   70.8406   11.1730    0.1099 O   0  0  0  0  0  0  0  0  0  0  0  0
   68.6907   14.1090    2.5349 O   0  0  0  0  0  0  0  0  0  0  0  0
   71.0939   14.5792    3.5469 O   0  0  0  0  0  0  0  0  0  0  0  0
   70.0328    5.3704   -1.0336 N   0  0  0  0  0  0  0  0  0  0  0  0
   69.3583   11.7790    2.0011 O   0  0  0  0  0  0  0  0  0  0  0  0
   70.7752   13.6708    1.2585 O   0  0  0  0  0  0  0  0  0  0  0  0
   73.0481   14.4070    1.9902 O   0  0  0  0  0  0  0  0  0  0  0  0
   69.5833    5.5540    0.2292 C   0  0  2  0  0  0  0  0  0  0  0  0
   70.2114    5.2018    1.4130 C   0  0  2  0  0  0  0  0  0  0  0  0
   71.4776    4.5687    1.3664 C   0  0  1  0  0  0  0  0  0  0  0  0
   72.1617    4.1692    2.2991 O   0  0  0  0  0  0  0  0  0  0  0  0
   69.4282    5.5556    2.5168 N   0  0  0  0  0  0  0  0  0  0  0  0
   68.3991    6.0867    1.9414 C   0  0  0  0  0  0  0  0  0  0  0  0
   68.3899    6.1359    0.5860 N   0  0  0  0  0  0  0  0  0  0  0  0
  1  5  1  6  0  0  0
  1 14  1  0  0  0  0
  1 19  2  0  0  0  0
  2 15  1  6  0  0  0
  2 20  2  0  0  0  0
  2 23  1  0  0  0  0
  3 16  1  1  0  0  0
  3 21  2  0  0  0  0
  3 24  1  0  0  0  0
  3 25  1  0  0  0  0
  4  6  1  0  0  0  0
  5  4  1  0  0  0  0
  6  7  1  0  0  0  0
  6  8  2  0  0  0  0
  7 12  1  0  0  0  0
  8  9  1  0  0  0  0
  8 10  1  0  0  0  0
 10 11  1  0  0  0  0
 10 12  2  0  0  0  0
 12 32  1  0  0  0  0
 13 17  1  0  0  0  0
 17 18  1  6  0  0  0
 17 22  1  0  0  0  0
 23  1  1  0  0  0  0
 24  2  1  0  0  0  0
 26 22  1  6  0  0  0
 27 26  1  0  0  0  0
 27 28  1  0  0  0  0
 27 30  1  6  0  0  0
 28 13  1  0  0  0  0
 28 29  1  6  0  0  0
 31 30  1  0  0  0  0
 32 26  1  0  0  0  0
 32 31  1  0  0  0  0
M  CHG  3  14  -1  15  -1  16  -1
M  END
>  <CHROM.1>
-84.03991117,40.49438343,76.07959827,-108.21015737,129.56137035,-45.44410025
-72.21445634,-176.36382407,69.55764491,9.40534534,0.85416495,1.43958053,-0.33223058
0.17966251

>  <Name>
2au4_lig

>  <RI>
0

>  <Rbt.Current_Directory>
/home/itssahil/PROJECTS/Mol_Feturizer/New_Systems/rnas/2au4

>  <Rbt.Executable>
rbdock ($Id: //depot/dev/client3/rdock/2013.1/src/exe/rbdock.cxx#4 $)

>  <Rbt.Library>
libRbt.so (2013.1, Build901 2013/11/27)

>  <Rbt.Parameter_File>
/export/apps/rDock/src/rDock_2013.1_src/data/scripts/dock_solv.prm

>  <Rbt.Receptor>
prm/pocket_docking_6.prm

>  <SCORE>
-50.4241

>  <SCORE.INTER>
-31.0532

>  <SCORE.INTER.CONST>
1

>  <SCORE.INTER.POLAR>
-3.249

>  <SCORE.INTER.ROT>
8

>  <SCORE.INTER.SOLV>
30.7713

>  <SCORE.INTER.VDW>
-29.0625

>  <SCORE.INTER.norm>
-0.970412

>  <SCORE.INTRA>
-19.3709

>  <SCORE.INTRA.DIHEDRAL>
-39.8175

>  <SCORE.INTRA.DIHEDRAL.0>
76.3625

>  <SCORE.INTRA.POLAR>
0

>  <SCORE.INTRA.POLAR.0>
0

>  <SCORE.INTRA.REPUL>
-0.0197163

>  <SCORE.INTRA.REPUL.0>
0.12705

>  <SCORE.INTRA.SOLV>
0.155849

>  <SCORE.INTRA.SOLV.lig_0>
-119.383

>  <SCORE.INTRA.VDW>
0.558449

>  <SCORE.INTRA.VDW.0>
-5.10464

>  <SCORE.INTRA.norm>
-0.605342

>  <SCORE.RESTR>
0

>  <SCORE.RESTR.CAVITY>
0

>  <SCORE.RESTR.norm>
0

>  <SCORE.SYSTEM>
0

>  <SCORE.SYSTEM.CONST>
0

>  <SCORE.SYSTEM.DIHEDRAL>
0

>  <SCORE.SYSTEM.SOLV>
0

>  <SCORE.SYSTEM.norm>
0

>  <SCORE.heavy>
32

>  <SCORE.norm>
-1.57575

>  <RMSD>
3.811

$$$$
2au4_lig
 OpenBabel11021811423D
libRbt.so/2013.1/901 2013/11/27
 32 34  0  0  0  0  0  0  0  0999 V2000
   67.7322   10.7614   -0.8952 P   0  0  1  0  0  0  0  0  0  0  0  0
   67.5482   11.5730    1.6888 P   0  0  1  0  0  0  0  0  0  0  0  0
   67.7399   11.4576    4.4073 P   0  0  2  0  0  0  0  0  0  0  0  0
   66.2233    8.6954   -1.5919 C   0  0  0  0  0  0  0  0  0  0  0  0
   67.5119    9.3319   -1.6004 O   0  0  0  0  0  0  0  0  0  0  0  0
   66.0873    7.6718   -0.4742 C   0  0  0  0  0  0  0  0  0  0  0  0
   66.3408    6.3416   -0.9706 O   0  0  0  0  0  0  0  0  0  0  0  0
   67.0774    7.9602    0.6434 C   0  0  0  0  0  0  0  0  0  0  0  0
   66.3952    8.2874    1.8602 O   0  0  0  0  0  0  0  0  0  0  0  0
   67.9133    6.7134    0.8081 C   0  0  0  0  0  0  0  0  0  0  0  0
   67.8091    6.1905    2.1392 O   0  0  0  0  0  0  0  0  0  0  0  0
   67.3919    5.7118   -0.2078 C   0  0  0  0  0  0  0  0  0  0  0  0
   72.2562    4.1905   -0.5100 N   0  0  0  0  0  0  0  0  0  0  0  0
   69.1829   11.0196   -0.7973 O   0  5  0  0  0  0  0  0  0  0  0  0
   68.9564   11.9731    1.5020 O   0  5  0  0  0  0  0  0  0  0  0  0
   68.7594   10.6732    5.1330 O   0  5  0  0  0  0  0  0  0  0  0  0
   71.5299    4.5773    0.5912 C   0  0  1  0  0  0  0  0  0  0  0  0
   72.1706    4.5637    1.7523 N   0  0  0  0  0  0  0  0  0  0  0  0
   66.8457   11.7501   -1.5454 O   0  0  0  0  0  0  0  0  0  0  0  0
   66.4835   12.5973    1.7141 O   0  0  0  0  0  0  0  0  0  0  0  0
   66.4418   11.7553    5.0480 O   0  0  0  0  0  0  0  0  0  0  0  0
   70.2550    4.9555    0.5425 N   0  0  0  0  0  0  0  0  0  0  0  0
   67.1819   10.5075    0.5721 O   0  0  0  0  0  0  0  0  0  0  0  0
   67.4450   10.7211    3.0263 O   0  0  0  0  0  0  0  0  0  0  0  0
   68.4046   12.8416    3.9349 O   0  0  0  0  0  0  0  0  0  0  0  0
   69.7593    4.9154   -0.7158 C   0  0  2  0  0  0  0  0  0  0  0  0
   70.4179    4.5398   -1.8755 C   0  0  2  0  0  0  0  0  0  0  0  0
   71.7750    4.1404   -1.8060 C   0  0  1  0  0  0  0  0  0  0  0  0
   72.5152    3.8032   -2.7203 O   0  0  0  0  0  0  0  0  0  0  0  0
   69.5679    4.6317   -2.9829 N   0  0  0  0  0  0  0  0  0  0  0  0
   68.4744    5.0486   -2.4330 C   0  0  0  0  0  0  0  0  0  0  0  0
   68.4798    5.2495   -1.0916 N   0  0  0  0  0  0  0  0  0  0  0  0
  1  5  1  6  0  0  0
  1 14  1  0  0  0  0
  1 19  2  0  0  0  0
  2 15  1  6  0  0  0
  2 20  2  0  0  0  0
  2 23  1  0  0  0  0
  3 16  1  1  0  0  0
  3 21  2  0  0  0  0
  3 24  1  0  0  0  0
  3 25  1  0  0  0  0
  4  6  1  0  0  0  0
  5  4  1  0  0  0  0
  6  7  1  0  0  0  0
  6  8  2  0  0  0  0
  7 12  1  0  0  0  0
  8  9  1  0  0  0  0
  8 10  1  0  0  0  0
 10 11  1  0  0  0  0
 10 12  2  0  0  0  0
 12 32  1  0  0  0  0
 13 17  1  0  0  0  0
 17 18  1  6  0  0  0
 17 22  1  0  0  0  0
 23  1  1  0  0  0  0
 24  2  1  0  0  0  0
 26 22  1  6  0  0  0
 27 26  1  0  0  0  0
 27 28  1  0  0  0  0
 27 30  1  6  0  0  0
 28 13  1  0  0  0  0
 28 29  1  6  0  0  0
 31 30  1  0  0  0  0
 32 26  1  0  0  0  0
 32 31  1  0  0  0  0
M  CHG  3  14  -1  15  -1  16  -1
M  END
>  <CHROM.1>
167.51717801,-40.89087871,-127.27823010,-97.58849061,-96.62701361,162.73009326
165.26256271,66.08268807,68.40600888,8.44091419,0.59982414,2.19102522,-0.93896646
1.02849255

>  <Name>
2au4_lig

>  <RI>
0

>  <Rbt.Current_Directory>
/home/itssahil/PROJECTS/Mol_Feturizer/New_Systems/rnas/2au4

>  <Rbt.Executable>
rbdock ($Id: //depot/dev/client3/rdock/2013.1/src/exe/rbdock.cxx#4 $)

>  <Rbt.Library>
libRbt.so (2013.1, Build901 2013/11/27)

>  <Rbt.Parameter_File>
/export/apps/rDock/src/rDock_2013.1_src/data/scripts/dock_solv.prm

>  <Rbt.Receptor>
prm/pocket_docking_3.prm

>  <SCORE>
-33.6351

>  <SCORE.INTER>
-13.0604

>  <SCORE.INTER.CONST>
1

>  <SCORE.INTER.POLAR>
-1.23889

>  <SCORE.INTER.ROT>
8

>  <SCORE.INTER.SOLV>
29.1348

>  <SCORE.INTER.VDW>
-23.2222

>  <SCORE.INTER.norm>
-0.408136

>  <SCORE.INTRA>
-20.6176

>  <SCORE.INTRA.DIHEDRAL>
-40.8186

>  <SCORE.INTRA.DIHEDRAL.0>
76.3625

>  <SCORE.INTRA.POLAR>
0

>  <SCORE.INTRA.POLAR.0>
0

>  <SCORE.INTRA.REPUL>
-0.12705

>  <SCORE.INTRA.REPUL.0>
0.12705

>  <SCORE.INTRA.SOLV>
-4.6172

>  <SCORE.INTRA.SOLV.lig_0>
-119.383

>  <SCORE.INTRA.VDW>
2.73555

>  <SCORE.INTRA.VDW.0>
-5.10464

>  <SCORE.INTRA.norm>
-0.6443

>  <SCORE.RESTR>
0.0429022

>  <SCORE.RESTR.CAVITY>
0.0429022

>  <SCORE.RESTR.norm>
0.00134069

>  <SCORE.SYSTEM>
0

>  <SCORE.SYSTEM.CONST>
0

>  <SCORE.SYSTEM.DIHEDRAL>
0

>  <SCORE.SYSTEM.SOLV>
0

>  <SCORE.SYSTEM.norm>
0

>  <SCORE.heavy>
32

>  <SCORE.norm>
-1.0511

>  <RMSD>
3.842

$$$$
2au4_lig
 OpenBabel11021811423D
libRbt.so/2013.1/901 2013/11/27
 32 34  0  0  0  0  0  0  0  0999 V2000
   68.4005   12.3434   -1.1689 P   0  0  1  0  0  0  0  0  0  0  0  0
   70.4874   12.5116    0.5591 P   0  0  1  0  0  0  0  0  0  0  0  0
   72.0337   12.9513    2.7628 P   0  0  2  0  0  0  0  0  0  0  0  0
   68.3890    9.7337   -1.6374 C   0  0  0  0  0  0  0  0  0  0  0  0
   68.2257   10.8132   -0.7027 O   0  0  0  0  0  0  0  0  0  0  0  0
   67.2378    8.7400   -1.5856 C   0  0  0  0  0  0  0  0  0  0  0  0
   67.7361    7.3918   -1.4659 O   0  0  0  0  0  0  0  0  0  0  0  0
   66.3360    9.0222   -0.3941 C   0  0  0  0  0  0  0  0  0  0  0  0
   65.0218    9.3974   -0.8241 O   0  0  0  0  0  0  0  0  0  0  0  0
   66.2979    7.7541    0.4248 C   0  0  0  0  0  0  0  0  0  0  0  0
   64.9572    7.2643    0.5614 O   0  0  0  0  0  0  0  0  0  0  0  0
   67.1687    6.7468   -0.3061 C   0  0  0  0  0  0  0  0  0  0  0  0
   71.7254    4.4616   -0.0223 N   0  0  0  0  0  0  0  0  0  0  0  0
   69.3920   12.3923   -2.2622 O   0  5  0  0  0  0  0  0  0  0  0  0
   70.4094   11.0578    0.8011 O   0  5  0  0  0  0  0  0  0  0  0  0
   71.8016   13.3076    4.1771 O   0  5  0  0  0  0  0  0  0  0  0  0
   70.9903    4.8070   -1.1313 C   0  0  1  0  0  0  0  0  0  0  0  0
   71.5247    4.5071   -2.3076 N   0  0  0  0  0  0  0  0  0  0  0  0
   67.0589   12.9355   -1.3581 O   0  0  0  0  0  0  0  0  0  0  0  0
   71.4832   13.0529   -0.3890 O   0  0  0  0  0  0  0  0  0  0  0  0
   73.1503   13.5700    2.0182 O   0  0  0  0  0  0  0  0  0  0  0  0
   69.8035    5.4063   -1.0763 N   0  0  0  0  0  0  0  0  0  0  0  0
   69.0526   13.0187    0.1113 O   0  0  0  0  0  0  0  0  0  0  0  0
   70.6906   13.2396    1.9569 O   0  0  0  0  0  0  0  0  0  0  0  0
   72.1733   11.3544    2.6572 O   0  0  0  0  0  0  0  0  0  0  0  0
   69.4061    5.6341    0.1968 C   0  0  2  0  0  0  0  0  0  0  0  0
   70.0814    5.3205    1.3653 C   0  0  2  0  0  0  0  0  0  0  0  0
   71.3435    4.6823    1.2888 C   0  0  1  0  0  0  0  0  0  0  0  0
   72.0644    4.3127    2.2060 O   0  0  0  0  0  0  0  0  0  0  0  0
   69.3444    5.7141    2.4874 N   0  0  0  0  0  0  0  0  0  0  0  0
   68.2936    6.2283    1.9365 C   0  0  0  0  0  0  0  0  0  0  0  0
   68.2292    6.2314    0.5817 N   0  0  0  0  0  0  0  0  0  0  0  0
  1  5  1  1  0  0  0
  1 14  1  0  0  0  0
  1 19  2  0  0  0  0
  2 15  1  1  0  0  0
  2 20  2  0  0  0  0
  2 23  1  0  0  0  0
  3 16  1  1  0  0  0
  3 21  2  0  0  0  0
  3 24  1  0  0  0  0
  3 25  1  0  0  0  0
  4  6  1  0  0  0  0
  5  4  1  0  0  0  0
  6  7  1  0  0  0  0
  6  8  2  0  0  0  0
  7 12  1  0  0  0  0
  8  9  1  0  0  0  0
  8 10  1  0  0  0  0
 10 11  1  0  0  0  0
 10 12  2  0  0  0  0
 12 32  1  0  0  0  0
 13 17  1  0  0  0  0
 17 18  1  1  0  0  0
 17 22  1  0  0  0  0
 23  1  1  0  0  0  0
 24  2  1  0  0  0  0
 26 22  1  1  0  0  0
 27 26  1  0  0  0  0
 27 28  1  0  0  0  0
 27 30  1  1  0  0  0
 28 13  1  0  0  0  0
 28 29  1  1  0  0  0
 31 30  1  0  0  0  0
 32 26  1  0  0  0  0
 32 31  1  0  0  0  0
M  CHG  3  14  -1  15  -1  16  -1
M  END
>  <CHROM.1>
-31.06018707,-57.38301799,-159.77650448,-129.73128368,-130.66632298,-39.08180535
63.41168545,64.24458075,69.51530942,9.44805199,0.36105658,1.36538386,-0.52969755
0.01888664

>  <Name>
2au4_lig

>  <RI>
0

>  <Rbt.Current_Directory>
/home/itssahil/PROJECTS/Mol_Feturizer/New_Systems/rnas/2au4

>  <Rbt.Executable>
rbdock ($Id: //depot/dev/client3/rdock/2013.1/src/exe/rbdock.cxx#4 $)

>  <Rbt.Library>
libRbt.so (2013.1, Build901 2013/11/27)

>  <Rbt.Parameter_File>
/export/apps/rDock/src/rDock_2013.1_src/data/scripts/dock_solv.prm

>  <Rbt.Receptor>
prm/pocket_docking_5.prm

>  <SCORE>
-49.3091

>  <SCORE.INTER>
-28.1123

>  <SCORE.INTER.CONST>
1

>  <SCORE.INTER.POLAR>
-2.79485

>  <SCORE.INTER.ROT>
8

>  <SCORE.INTER.SOLV>
34.8974

>  <SCORE.INTER.VDW>
-29.9912

>  <SCORE.INTER.norm>
-0.878509

>  <SCORE.INTRA>
-21.1968

>  <SCORE.INTRA.DIHEDRAL>
-41.4785

>  <SCORE.INTRA.DIHEDRAL.0>
76.3625

>  <SCORE.INTRA.POLAR>
0

>  <SCORE.INTRA.POLAR.0>
0

>  <SCORE.INTRA.REPUL>
0.021053

>  <SCORE.INTRA.REPUL.0>
0.12705

>  <SCORE.INTRA.SOLV>
-5.5771

>  <SCORE.INTRA.SOLV.lig_0>
-119.383

>  <SCORE.INTRA.VDW>
2.22572

>  <SCORE.INTRA.VDW.0>
-5.10464

>  <SCORE.INTRA.norm>
-0.662401

>  <SCORE.RESTR>
0

>  <SCORE.RESTR.CAVITY>
0

>  <SCORE.RESTR.norm>
0

>  <SCORE.SYSTEM>
0

>  <SCORE.SYSTEM.CONST>
0

>  <SCORE.SYSTEM.DIHEDRAL>
0

>  <SCORE.SYSTEM.SOLV>
0

>  <SCORE.SYSTEM.norm>
0

>  <SCORE.heavy>
32

>  <SCORE.norm>
-1.54091

>  <RMSD>
3.914

$$$$
2au4_lig
 OpenBabel11021811423D
libRbt.so/2013.1/901 2013/11/27
 32 34  0  0  0  0  0  0  0  0999 V2000
   68.3166   11.3240   -1.0593 P   0  0  1  0  0  0  0  0  0  0  0  0
   69.6648   12.5519    0.9516 P   0  0  1  0  0  0  0  0  0  0  0  0
   71.5884   13.7841    2.4423 P   0  0  2  0  0  0  0  0  0  0  0  0
   66.5193    9.6246   -0.1041 C   0  0  0  0  0  0  0  0  0  0  0  0
   67.8660   10.1262   -0.0837 O   0  0  0  0  0  0  0  0  0  0  0  0
   66.3209    8.4516    0.8447 C   0  0  0  0  0  0  0  0  0  0  0  0
   66.3987    7.2016    0.1294 O   0  0  0  0  0  0  0  0  0  0  0  0
   67.3886    8.4483    1.9275 C   0  0  0  0  0  0  0  0  0  0  0  0
   66.8057    8.6410    3.2221 O   0  0  0  0  0  0  0  0  0  0  0  0
   68.0848    7.1112    1.8391 C   0  0  0  0  0  0  0  0  0  0  0  0
   67.9847    6.3910    3.0750 O   0  0  0  0  0  0  0  0  0  0  0  0
   67.4063    6.3493    0.7138 C   0  0  0  0  0  0  0  0  0  0  0  0
   72.0314    4.3619   -0.1378 N   0  0  0  0  0  0  0  0  0  0  0  0
   68.5866   10.7639   -2.3988 O   0  5  0  0  0  0  0  0  0  0  0  0
   68.7209   13.6790    0.8223 O   0  5  0  0  0  0  0  0  0  0  0  0
   71.8226   12.6829    3.3982 O   0  5  0  0  0  0  0  0  0  0  0  0
   71.4038    4.6312    1.0552 C   0  0  1  0  0  0  0  0  0  0  0  0
   72.0853    4.3435    2.1560 N   0  0  0  0  0  0  0  0  0  0  0  0
   67.3643   12.4441   -0.9026 O   0  0  0  0  0  0  0  0  0  0  0  0
   69.4912   11.5598    2.0329 O   0  0  0  0  0  0  0  0  0  0  0  0
   70.6340   14.8620    2.7756 O   0  0  0  0  0  0  0  0  0  0  0  0
   70.1838    5.1543    1.1491 N   0  0  0  0  0  0  0  0  0  0  0  0
   69.7030   11.7743   -0.4306 O   0  0  0  0  0  0  0  0  0  0  0  0
   71.1361   13.1431    1.0562 O   0  0  0  0  0  0  0  0  0  0  0  0
   73.0039   14.4508    2.0781 O   0  0  0  0  0  0  0  0  0  0  0  0
   69.6356    5.3900   -0.0652 C   0  0  2  0  0  0  0  0  0  0  0  0
   70.1950    5.1495   -1.3098 C   0  0  2  0  0  0  0  0  0  0  0  0
   71.4948    4.5927   -1.3918 C   0  0  1  0  0  0  0  0  0  0  0  0
   72.1499    4.3378   -2.3934 O   0  0  0  0  0  0  0  0  0  0  0  0
   69.3179    5.5283   -2.3317 N   0  0  0  0  0  0  0  0  0  0  0  0
   68.3071    5.9645   -1.6534 C   0  0  0  0  0  0  0  0  0  0  0  0
   68.3921    5.9273   -0.3002 N   0  0  0  0  0  0  0  0  0  0  0  0
  1  5  1  1  0  0  0
  1 14  1  0  0  0  0
  1 19  2  0  0  0  0
  2 15  1  1  0  0  0
  2 20  2  0  0  0  0
  2 23  1  0  0  0  0
  3 16  1  1  0  0  0
  3 21  2  0  0  0  0
  3 24  1  0  0  0  0
  3 25  1  0  0  0  0
  4  6  1  0  0  0  0
  5  4  1  0  0  0  0
  6  7  1  0  0  0  0
  6  8  2  0  0  0  0
  7 12  1  0  0  0  0
  8  9  1  0  0  0  0
  8 10  1  0  0  0  0
 10 11  1  0  0  0  0
 10 12  2  0  0  0  0
 12 32  1  0  0  0  0
 13 17  1  0  0  0  0
 17 18  1  6  0  0  0
 17 22  1  0  0  0  0
 23  1  1  0  0  0  0
 24  2  1  0  0  0  0
 26 22  1  1  0  0  0
 27 26  1  0  0  0  0
 27 28  1  0  0  0  0
 27 30  1  6  0  0  0
 28 13  1  0  0  0  0
 28 29  1  1  0  0  0
 31 30  1  0  0  0  0
 32 26  1  0  0  0  0
 32 31  1  0  0  0  0
M  CHG  3  14  -1  15  -1  16  -1
M  END
>  <CHROM.1>
-80.25397302,-51.68780812,73.90121547,-98.27213720,177.24659221,163.56262410
-71.82363591,76.40857415,69.44629382,9.30757453,0.57252458,1.50887250,-0.30200415
0.18686709

>  <Name>
2au4_lig

>  <RI>
0

>  <Rbt.Current_Directory>
/home/itssahil/PROJECTS/Mol_Feturizer/New_Systems/rnas/2au4

>  <Rbt.Executable>
rbdock ($Id: //depot/dev/client3/rdock/2013.1/src/exe/rbdock.cxx#4 $)

>  <Rbt.Library>
libRbt.so (2013.1, Build901 2013/11/27)

>  <Rbt.Parameter_File>
/export/apps/rDock/src/rDock_2013.1_src/data/scripts/dock_solv.prm

>  <Rbt.Receptor>
prm/pocket_docking_4.prm

>  <SCORE>
-54.9017

>  <SCORE.INTER>
-29.6897

>  <SCORE.INTER.CONST>
1

>  <SCORE.INTER.POLAR>
-2.81304

>  <SCORE.INTER.ROT>
8

>  <SCORE.INTER.SOLV>
34.3572

>  <SCORE.INTER.VDW>
-30.8021

>  <SCORE.INTER.norm>
-0.927804

>  <SCORE.INTRA>
-25.212

>  <SCORE.INTRA.DIHEDRAL>
-47.5278

>  <SCORE.INTRA.DIHEDRAL.0>
76.3625

>  <SCORE.INTRA.POLAR>
0

>  <SCORE.INTRA.POLAR.0>
0

>  <SCORE.INTRA.REPUL>
-0.12705

>  <SCORE.INTRA.REPUL.0>
0.12705

>  <SCORE.INTRA.SOLV>
-4.61885

>  <SCORE.INTRA.SOLV.lig_0>
-119.383

>  <SCORE.INTRA.VDW>
1.4966

>  <SCORE.INTRA.VDW.0>
-5.10464

>  <SCORE.INTRA.norm>
-0.787875

>  <SCORE.RESTR>
0

>  <SCORE.RESTR.CAVITY>
0

>  <SCORE.RESTR.norm>
0

>  <SCORE.SYSTEM>
0

>  <SCORE.SYSTEM.CONST>
0

>  <SCORE.SYSTEM.DIHEDRAL>
0

>  <SCORE.SYSTEM.SOLV>
0

>  <SCORE.SYSTEM.norm>
0

>  <SCORE.heavy>
32

>  <SCORE.norm>
-1.71568

>  <RMSD>
3.966

$$$$
2au4_lig
 OpenBabel11021811423D
libRbt.so/2013.1/901 2013/11/27
 32 34  0  0  0  0  0  0  0  0999 V2000
   68.1242   12.1988    0.6262 P   0  0  1  0  0  0  0  0  0  0  0  0
   69.9063   12.7685    2.5932 P   0  0  1  0  0  0  0  0  0  0  0  0
   72.4229   13.2600    1.6628 P   0  0  2  0  0  0  0  0  0  0  0  0
   66.9379    9.8283    0.5610 C   0  0  0  0  0  0  0  0  0  0  0  0
   67.6854   10.8064    1.3029 O   0  0  0  0  0  0  0  0  0  0  0  0
   66.6273    8.5865    1.3836 C   0  0  0  0  0  0  0  0  0  0  0  0
   66.5677    7.4195    0.5381 O   0  0  0  0  0  0  0  0  0  0  0  0
   67.6991    8.3570    2.4377 C   0  0  0  0  0  0  0  0  0  0  0  0
   67.1517    8.4678    3.7572 O   0  0  0  0  0  0  0  0  0  0  0  0
   68.2514    6.9729    2.1936 C   0  0  0  0  0  0  0  0  0  0  0  0
   68.0884    6.1377    3.3477 O   0  0  0  0  0  0  0  0  0  0  0  0
   67.4866    6.4104    1.0079 C   0  0  0  0  0  0  0  0  0  0  0  0
   72.0144    4.3429   -0.1282 N   0  0  0  0  0  0  0  0  0  0  0  0
   68.1130   12.0333   -0.8412 O   0  5  0  0  0  0  0  0  0  0  0  0
   69.6167   14.2097    2.7251 O   0  5  0  0  0  0  0  0  0  0  0  0
   73.8230   13.0124    2.0624 O   0  5  0  0  0  0  0  0  0  0  0  0
   71.4495    4.5844    1.1015 C   0  0  1  0  0  0  0  0  0  0  0  0
   72.1732    4.2407    2.1585 N   0  0  0  0  0  0  0  0  0  0  0  0
   67.3531   13.2928    1.2545 O   0  0  0  0  0  0  0  0  0  0  0  0
   69.2326   11.7932    3.4755 O   0  0  0  0  0  0  0  0  0  0  0  0
   71.9430   14.6444    1.4695 O   0  0  0  0  0  0  0  0  0  0  0  0
   70.2492    5.1332    1.2706 N   0  0  0  0  0  0  0  0  0  0  0  0
   69.6359   12.3428    1.0892 O   0  0  0  0  0  0  0  0  0  0  0  0
   71.4753   12.5601    2.7346 O   0  0  0  0  0  0  0  0  0  0  0  0
   72.1207   12.4241    0.3246 O   0  0  0  0  0  0  0  0  0  0  0  0
   69.6520    5.4258    0.0924 C   0  0  2  0  0  0  0  0  0  0  0  0
   70.1471    5.2166   -1.1847 C   0  0  2  0  0  0  0  0  0  0  0  0
   71.4269    4.6317   -1.3469 C   0  0  1  0  0  0  0  0  0  0  0  0
   72.0285    4.3971   -2.3864 O   0  0  0  0  0  0  0  0  0  0  0  0
   69.2341    5.6531   -2.1506 N   0  0  0  0  0  0  0  0  0  0  0  0
   68.2672    6.0892   -1.4109 C   0  0  0  0  0  0  0  0  0  0  0  0
   68.4134    6.0013   -0.0653 N   0  0  0  0  0  0  0  0  0  0  0  0
  1  5  1  1  0  0  0
  1 14  1  0  0  0  0
  1 19  2  0  0  0  0
  2 15  1  1  0  0  0
  2 20  2  0  0  0  0
  2 23  1  0  0  0  0
  3 16  1  1  0  0  0
  3 21  2  0  0  0  0
  3 24  1  0  0  0  0
  3 25  1  0  0  0  0
  4  6  1  0  0  0  0
  5  4  1  0  0  0  0
  6  7  1  0  0  0  0
  6  8  2  0  0  0  0
  7 12  1  0  0  0  0
  8  9  1  0  0  0  0
  8 10  1  0  0  0  0
 10 11  1  0  0  0  0
 10 12  2  0  0  0  0
 12 32  1  0  0  0  0
 13 17  1  0  0  0  0
 17 18  1  1  0  0  0
 17 22  1  0  0  0  0
 23  1  1  0  0  0  0
 24  2  1  0  0  0  0
 26 22  1  1  0  0  0
 27 26  1  0  0  0  0
 27 28  1  0  0  0  0
 27 30  1  1  0  0  0
 28 13  1  0  0  0  0
 28 29  1  1  0  0  0
 31 30  1  0  0  0  0
 32 26  1  0  0  0  0
 32 31  1  0  0  0  0
M  CHG  3  14  -1  15  -1  16  -1
M  END
>  <CHROM.1>
-21.45373912,-75.03644871,175.57068662,-148.84436515,179.93852408,157.19661639
-75.28367439,-61.51434362,69.62890241,9.39985637,1.07756790,1.51321282,0.14136580
0.22843946

>  <Name>
2au4_lig

>  <RI>
0

>  <Rbt.Current_Directory>
/home/itssahil/PROJECTS/Mol_Feturizer/New_Systems/rnas/2au4

>  <Rbt.Executable>
rbdock ($Id: //depot/dev/client3/rdock/2013.1/src/exe/rbdock.cxx#4 $)

>  <Rbt.Library>
libRbt.so (2013.1, Build901 2013/11/27)

>  <Rbt.Parameter_File>
/export/apps/rDock/src/rDock_2013.1_src/data/scripts/dock_solv.prm

>  <Rbt.Receptor>
prm/pocket_docking_6.prm

>  <SCORE>
-50.8557

>  <SCORE.INTER>
-25.061

>  <SCORE.INTER.CONST>
1

>  <SCORE.INTER.POLAR>
-2.49819

>  <SCORE.INTER.ROT>
8

>  <SCORE.INTER.SOLV>
31.0759

>  <SCORE.INTER.VDW>
-27.672

>  <SCORE.INTER.norm>
-0.783156

>  <SCORE.INTRA>
-25.7947

>  <SCORE.INTRA.DIHEDRAL>
-47.7547

>  <SCORE.INTRA.DIHEDRAL.0>
76.3625

>  <SCORE.INTRA.POLAR>
0

>  <SCORE.INTRA.POLAR.0>
0

>  <SCORE.INTRA.REPUL>
-0.12705

>  <SCORE.INTRA.REPUL.0>
0.12705

>  <SCORE.INTRA.SOLV>
-6.28913

>  <SCORE.INTRA.SOLV.lig_0>
-119.383

>  <SCORE.INTRA.VDW>
1.86245

>  <SCORE.INTRA.VDW.0>
-5.10464

>  <SCORE.INTRA.norm>
-0.806085

>  <SCORE.RESTR>
0

>  <SCORE.RESTR.CAVITY>
0

>  <SCORE.RESTR.norm>
0

>  <SCORE.SYSTEM>
0

>  <SCORE.SYSTEM.CONST>
0

>  <SCORE.SYSTEM.DIHEDRAL>
0

>  <SCORE.SYSTEM.SOLV>
0

>  <SCORE.SYSTEM.norm>
0

>  <SCORE.heavy>
32

>  <SCORE.norm>
-1.58924

>  <RMSD>
4.035

$$$$
2au4_lig
 OpenBabel11021811423D
libRbt.so/2013.1/901 2013/11/27
 32 34  0  0  0  0  0  0  0  0999 V2000
   67.5522   11.2684   -1.4322 P   0  0  1  0  0  0  0  0  0  0  0  0
   69.5255   11.1537    0.4286 P   0  0  1  0  0  0  0  0  0  0  0  0
   70.6168   10.5983    2.8660 P   0  0  2  0  0  0  0  0  0  0  0  0
   66.2758    8.9446   -1.3968 C   0  0  0  0  0  0  0  0  0  0  0  0
   67.5222    9.6596   -1.4308 O   0  0  0  0  0  0  0  0  0  0  0  0
   65.9437    8.4200   -0.0076 C   0  0  0  0  0  0  0  0  0  0  0  0
   66.2635    7.0174    0.0951 O   0  0  0  0  0  0  0  0  0  0  0  0
   66.7349    9.1682    1.0539 C   0  0  0  0  0  0  0  0  0  0  0  0
   65.8614    9.8970    1.9250 O   0  0  0  0  0  0  0  0  0  0  0  0
   67.5187    8.1276    1.8175 C   0  0  0  0  0  0  0  0  0  0  0  0
   67.1872    8.1480    3.2125 O   0  0  0  0  0  0  0  0  0  0  0  0
   67.1652    6.7864    1.1983 C   0  0  0  0  0  0  0  0  0  0  0  0
   69.5501    4.5154   -2.7032 N   0  0  0  0  0  0  0  0  0  0  0  0
   68.5901   11.7192   -2.3811 O   0  5  0  0  0  0  0  0  0  0  0  0
   69.6438    9.7014    0.1943 O   0  5  0  0  0  0  0  0  0  0  0  0
   70.4559   11.0058    4.2764 O   0  5  0  0  0  0  0  0  0  0  0  0
   68.3097    5.1066   -2.6639 C   0  0  1  0  0  0  0  0  0  0  0  0
   67.6149    5.0906   -3.7935 N   0  0  0  0  0  0  0  0  0  0  0  0
   66.1657   11.7664   -1.5588 O   0  0  0  0  0  0  0  0  0  0  0  0
   70.4771   12.0874   -0.2087 O   0  0  0  0  0  0  0  0  0  0  0  0
   71.9336   10.7211    2.2066 O   0  0  0  0  0  0  0  0  0  0  0  0
   67.7925    5.6721   -1.5761 N   0  0  0  0  0  0  0  0  0  0  0  0
   68.0555   11.6025    0.0359 O   0  0  0  0  0  0  0  0  0  0  0  0
   69.5579   11.4102    1.9965 O   0  0  0  0  0  0  0  0  0  0  0  0
   70.1100    9.0815    2.7142 O   0  0  0  0  0  0  0  0  0  0  0  0
   68.6290    5.5959   -0.5154 C   0  0  2  0  0  0  0  0  0  0  0  0
   69.8891    5.0217   -0.4682 C   0  0  2  0  0  0  0  0  0  0  0  0
   70.4246    4.4237   -1.6352 C   0  0  1  0  0  0  0  0  0  0  0  0
   71.4988    3.8536   -1.7719 O   0  0  0  0  0  0  0  0  0  0  0  0
   70.4431    5.1406    0.8109 N   0  0  0  0  0  0  0  0  0  0  0  0
   69.5021    5.7648    1.4408 C   0  0  0  0  0  0  0  0  0  0  0  0
   68.3813    6.0828    0.7462 N   0  0  0  0  0  0  0  0  0  0  0  0
  1  5  1  6  0  0  0
  1 14  1  0  0  0  0
  1 19  2  0  0  0  0
  2 15  1  6  0  0  0
  2 20  2  0  0  0  0
  2 23  1  0  0  0  0
  3 16  1  1  0  0  0
  3 21  2  0  0  0  0
  3 24  1  0  0  0  0
  3 25  1  0  0  0  0
  4  6  1  0  0  0  0
  5  4  1  0  0  0  0
  6  7  1  0  0  0  0
  6  8  2  0  0  0  0
  7 12  1  0  0  0  0
  8  9  1  0  0  0  0
  8 10  1  0  0  0  0
 10 11  1  0  0  0  0
 10 12  2  0  0  0  0
 12 32  1  0  0  0  0
 13 17  1  0  0  0  0
 17 18  1  1  0  0  0
 17 22  1  0  0  0  0
 23  1  1  0  0  0  0
 24  2  1  0  0  0  0
 26 22  1  1  0  0  0
 27 26  1  0  0  0  0
 27 28  1  0  0  0  0
 27 30  1  1  0  0  0
 28 13  1  0  0  0  0
 28 29  1  1  0  0  0
 31 30  1  0  0  0  0
 32 26  1  0  0  0  0
 32 31  1  0  0  0  0
M  CHG  3  14  -1  15  -1  16  -1
M  END
>  <CHROM.1>
-138.89074385,-55.75577171,179.92152640,-100.56232779,-101.13849454,-4.90228236
65.01159651,42.71541436,68.69523282,8.64971943,0.18623755,1.53879255,-0.85178120
0.38003790

>  <Name>
2au4_lig

>  <RI>
0

>  <Rbt.Current_Directory>
/home/itssahil/PROJECTS/Mol_Feturizer/New_Systems/rnas/2au4

>  <Rbt.Executable>
rbdock ($Id: //depot/dev/client3/rdock/2013.1/src/exe/rbdock.cxx#4 $)

>  <Rbt.Library>
libRbt.so (2013.1, Build901 2013/11/27)

>  <Rbt.Parameter_File>
/export/apps/rDock/src/rDock_2013.1_src/data/scripts/dock_solv.prm

>  <Rbt.Receptor>
prm/pocket_docking_4.prm

>  <SCORE>
-37.0084

>  <SCORE.INTER>
-18.0811

>  <SCORE.INTER.CONST>
1

>  <SCORE.INTER.POLAR>
-1.40752

>  <SCORE.INTER.ROT>
8

>  <SCORE.INTER.SOLV>
30.9397

>  <SCORE.INTER.VDW>
-26.6089

>  <SCORE.INTER.norm>
-0.565034

>  <SCORE.INTRA>
-18.9273

>  <SCORE.INTRA.DIHEDRAL>
-34.0681

>  <SCORE.INTRA.DIHEDRAL.0>
76.3625

>  <SCORE.INTRA.POLAR>
0

>  <SCORE.INTRA.POLAR.0>
0

>  <SCORE.INTRA.REPUL>
-0.065167

>  <SCORE.INTRA.REPUL.0>
0.12705

>  <SCORE.INTRA.SOLV>
-1.00988

>  <SCORE.INTRA.SOLV.lig_0>
-119.383

>  <SCORE.INTRA.VDW>
-1.06245

>  <SCORE.INTRA.VDW.0>
-5.10464

>  <SCORE.INTRA.norm>
-0.591478

>  <SCORE.RESTR>
0

>  <SCORE.RESTR.CAVITY>
0

>  <SCORE.RESTR.norm>
0

>  <SCORE.SYSTEM>
0

>  <SCORE.SYSTEM.CONST>
0

>  <SCORE.SYSTEM.DIHEDRAL>
0

>  <SCORE.SYSTEM.SOLV>
0

>  <SCORE.SYSTEM.norm>
0

>  <SCORE.heavy>
32

>  <SCORE.norm>
-1.15651

>  <RMSD>
4.168

$$$$
2au4_lig
 OpenBabel11021811423D
libRbt.so/2013.1/901 2013/11/27
 32 34  0  0  0  0  0  0  0  0999 V2000
   68.9436   12.4521   -0.6735 P   0  0  1  0  0  0  0  0  0  0  0  0
   71.6142   12.8981   -0.4772 P   0  0  1  0  0  0  0  0  0  0  0  0
   71.9067   13.2577    2.2109 P   0  0  2  0  0  0  0  0  0  0  0  0
   67.9874    9.9841   -0.8319 C   0  0  0  0  0  0  0  0  0  0  0  0
   67.9884   11.2594   -0.1691 O   0  0  0  0  0  0  0  0  0  0  0  0
   67.2882    8.9055   -0.0175 C   0  0  0  0  0  0  0  0  0  0  0  0
   67.1409    7.6989   -0.7938 O   0  0  0  0  0  0  0  0  0  0  0  0
   68.0866    8.5729    1.2333 C   0  0  0  0  0  0  0  0  0  0  0  0
   67.3492    8.9071    2.4155 O   0  0  0  0  0  0  0  0  0  0  0  0
   68.3774    7.0922    1.1753 C   0  0  0  0  0  0  0  0  0  0  0  0
   67.8452    6.4133    2.3207 O   0  0  0  0  0  0  0  0  0  0  0  0
   67.7353    6.5801   -0.1024 C   0  0  0  0  0  0  0  0  0  0  0  0
   72.1984    4.1059   -0.2619 N   0  0  0  0  0  0  0  0  0  0  0  0
   69.0881   12.3516   -2.1397 O   0  5  0  0  0  0  0  0  0  0  0  0
   72.7616   11.9729   -0.5516 O   0  5  0  0  0  0  0  0  0  0  0  0
   70.5295   12.9075    2.6131 O   0  5  0  0  0  0  0  0  0  0  0  0
   71.5326    4.6353    0.8179 C   0  0  1  0  0  0  0  0  0  0  0  0
   72.1222    4.4966    1.9979 N   0  0  0  0  0  0  0  0  0  0  0  0
   68.4847   13.7163   -0.0590 O   0  0  0  0  0  0  0  0  0  0  0  0
   71.2384   13.7093   -1.6538 O   0  0  0  0  0  0  0  0  0  0  0  0
   72.7172   14.1592    3.0561 O   0  0  0  0  0  0  0  0  0  0  0  0
   70.3626    5.2632    0.7318 N   0  0  0  0  0  0  0  0  0  0  0  0
   70.3392   12.0730   -0.0187 O   0  0  0  0  0  0  0  0  0  0  0  0
   71.8468   13.8835    0.7475 O   0  0  0  0  0  0  0  0  0  0  0  0
   72.7302   11.8978    1.9801 O   0  0  0  0  0  0  0  0  0  0  0  0
   69.9070    5.3198   -0.5409 C   0  0  2  0  0  0  0  0  0  0  0  0
   70.5106    4.8148   -1.6813 C   0  0  2  0  0  0  0  0  0  0  0  0
   71.7563    4.1495   -1.5719 C   0  0  1  0  0  0  0  0  0  0  0  0
   72.4402    3.6665   -2.4644 O   0  0  0  0  0  0  0  0  0  0  0  0
   69.7305    5.0727   -2.8136 N   0  0  0  0  0  0  0  0  0  0  0  0
   68.7278    5.7039   -2.2957 C   0  0  0  0  0  0  0  0  0  0  0  0
   68.7333    5.9044   -0.9543 N   0  0  0  0  0  0  0  0  0  0  0  0
  1  5  1  1  0  0  0
  1 14  1  0  0  0  0
  1 19  2  0  0  0  0
  2 15  1  6  0  0  0
  2 20  2  0  0  0  0
  2 23  1  0  0  0  0
  3 16  1  1  0  0  0
  3 21  2  0  0  0  0
  3 24  1  0  0  0  0
  3 25  1  0  0  0  0
  4  6  1  0  0  0  0
  5  4  1  0  0  0  0
  6  7  1  0  0  0  0
  6  8  2  0  0  0  0
  7 12  1  0  0  0  0
  8  9  1  0  0  0  0
  8 10  1  0  0  0  0
 10 11  1  0  0  0  0
 10 12  2  0  0  0  0
 12 32  1  0  0  0  0
 13 17  1  0  0  0  0
 17 18  1  6  0  0  0
 17 22  1  0  0  0  0
 23  1  1  0  0  0  0
 24  2  1  0  0  0  0
 26 22  1  6  0  0  0
 27 26  1  0  0  0  0
 27 28  1  0  0  0  0
 27 30  1  6  0  0  0
 28 13  1  0  0  0  0
 28 29  1  6  0  0  0
 31 30  1  0  0  0  0
 32 26  1  0  0  0  0
 32 31  1  0  0  0  0
M  CHG  3  14  -1  15  -1  16  -1
M  END
>  <CHROM.1>
33.01011218,-142.45009845,-74.91826714,171.78981053,166.06475694,144.80978338
170.41092409,-63.28459436,70.11714364,9.43098904,0.08547273,1.47232150,-0.21960383
0.13043806

>  <Name>
2au4_lig

>  <RI>
0

>  <Rbt.Current_Directory>
/home/itssahil/PROJECTS/Mol_Feturizer/New_Systems/rnas/2au4

>  <Rbt.Executable>
rbdock ($Id: //depot/dev/client3/rdock/2013.1/src/exe/rbdock.cxx#4 $)

>  <Rbt.Library>
libRbt.so (2013.1, Build901 2013/11/27)

>  <Rbt.Parameter_File>
/export/apps/rDock/src/rDock_2013.1_src/data/scripts/dock_solv.prm

>  <Rbt.Receptor>
prm/pocket_docking_5.prm

>  <SCORE>
-48.5639

>  <SCORE.INTER>
-24.9833

>  <SCORE.INTER.CONST>
1

>  <SCORE.INTER.POLAR>
-2.70981

>  <SCORE.INTER.ROT>
8

>  <SCORE.INTER.SOLV>
41.759

>  <SCORE.INTER.VDW>
-30.4759

>  <SCORE.INTER.norm>
-0.78073

>  <SCORE.INTRA>
-23.5806

>  <SCORE.INTRA.DIHEDRAL>
-46.1288

>  <SCORE.INTRA.DIHEDRAL.0>
76.3625

>  <SCORE.INTRA.POLAR>
0

>  <SCORE.INTRA.POLAR.0>
0

>  <SCORE.INTRA.REPUL>
-0.12705

>  <SCORE.INTRA.REPUL.0>
0.12705

>  <SCORE.INTRA.SOLV>
-4.89915

>  <SCORE.INTRA.SOLV.lig_0>
-119.383

>  <SCORE.INTRA.VDW>
2.56866

>  <SCORE.INTRA.VDW.0>
-5.10464

>  <SCORE.INTRA.norm>
-0.736892

>  <SCORE.RESTR>
0

>  <SCORE.RESTR.CAVITY>
0

>  <SCORE.RESTR.norm>
0

>  <SCORE.SYSTEM>
0

>  <SCORE.SYSTEM.CONST>
0

>  <SCORE.SYSTEM.DIHEDRAL>
0

>  <SCORE.SYSTEM.SOLV>
0

>  <SCORE.SYSTEM.norm>
0

>  <SCORE.heavy>
32

>  <SCORE.norm>
-1.51762

>  <RMSD>
4.176

$$$$
2au4_lig
 OpenBabel11021811423D
libRbt.so/2013.1/901 2013/11/27
 32 34  0  0  0  0  0  0  0  0999 V2000
   68.4812    7.8831    2.0601 P   0  0  1  0  0  0  0  0  0  0  0  0
   69.5429   10.2259    1.1922 P   0  0  1  0  0  0  0  0  0  0  0  0
   70.1959   12.4241   -0.2851 P   0  0  2  0  0  0  0  0  0  0  0  0
   69.9507    5.6760    2.0625 C   0  0  0  0  0  0  0  0  0  0  0  0
   69.4796    6.8357    1.3562 O   0  0  0  0  0  0  0  0  0  0  0  0
   70.4312    4.5786    1.1244 C   0  0  0  0  0  0  0  0  0  0  0  0
   69.4054    4.2440    0.1673 O   0  0  0  0  0  0  0  0  0  0  0  0
   71.6677    5.0262    0.3607 C   0  0  0  0  0  0  0  0  0  0  0  0
   72.7995    4.2149    0.6979 O   0  0  0  0  0  0  0  0  0  0  0  0
   71.3321    4.9069   -1.1067 C   0  0  0  0  0  0  0  0  0  0  0  0
   72.2378    4.0192   -1.7760 O   0  0  0  0  0  0  0  0  0  0  0  0
   69.9089    4.3809   -1.1785 C   0  0  0  0  0  0  0  0  0  0  0  0
   65.4637    6.8791   -1.4343 N   0  0  0  0  0  0  0  0  0  0  0  0
   67.1293    7.2903    2.1011 O   0  5  0  0  0  0  0  0  0  0  0  0
   69.1443   11.0767    2.3304 O   0  5  0  0  0  0  0  0  0  0  0  0
   69.9318   13.2442    0.9144 O   0  5  0  0  0  0  0  0  0  0  0  0
   65.9447    6.0534   -0.4461 C   0  0  1  0  0  0  0  0  0  0  0  0
   65.1506    5.8628    0.5989 N   0  0  0  0  0  0  0  0  0  0  0  0
   69.1128    8.3749    3.3033 O   0  0  0  0  0  0  0  0  0  0  0  0
   70.8797    9.5965    1.1696 O   0  0  0  0  0  0  0  0  0  0  0  0
   69.9333   12.9760   -1.6306 O   0  0  0  0  0  0  0  0  0  0  0  0
   67.1321    5.4546   -0.4938 N   0  0  0  0  0  0  0  0  0  0  0  0
   68.4561    9.0831    1.0211 O   0  0  0  0  0  0  0  0  0  0  0  0
   69.3718   11.0685   -0.1442 O   0  0  0  0  0  0  0  0  0  0  0  0
   71.7197   11.9186   -0.2299 O   0  0  0  0  0  0  0  0  0  0  0  0
   67.8081    5.7528   -1.6272 C   0  0  2  0  0  0  0  0  0  0  0  0
   67.3999    6.5711   -2.6682 C   0  0  2  0  0  0  0  0  0  0  0  0
   66.1328    7.2005   -2.6017 C   0  0  1  0  0  0  0  0  0  0  0  0
   65.6023    7.9289   -3.4296 O   0  0  0  0  0  0  0  0  0  0  0  0
   68.3770    6.6305   -3.6676 N   0  0  0  0  0  0  0  0  0  0  0  0
   69.2926    5.8604   -3.1771 C   0  0  0  0  0  0  0  0  0  0  0  0
   69.0558    5.2882   -1.9704 N   0  0  0  0  0  0  0  0  0  0  0  0
  1  5  1  6  0  0  0
  1 14  1  0  0  0  0
  1 19  2  0  0  0  0
  2 15  1  1  0  0  0
  2 20  2  0  0  0  0
  2 23  1  0  0  0  0
  3 16  1  1  0  0  0
  3 21  2  0  0  0  0
  3 24  1  0  0  0  0
  3 25  1  0  0  0  0
  4  6  1  0  0  0  0
  5  4  1  0  0  0  0
  6  7  1  0  0  0  0
  6  8  2  0  0  0  0
  7 12  1  0  0  0  0
  8  9  1  0  0  0  0
  8 10  1  0  0  0  0
 10 11  1  0  0  0  0
 10 12  2  0  0  0  0
 12 32  1  0  0  0  0
 13 17  1  0  0  0  0
 17 18  1  6  0  0  0
 17 22  1  0  0  0  0
 23  1  1  0  0  0  0
 24  2  1  0  0  0  0
 26 22  1  6  0  0  0
 27 26  1  0  0  0  0
 27 28  1  0  0  0  0
 27 30  1  6  0  0  0
 28 13  1  0  0  0  0
 28 29  1  6  0  0  0
 31 30  1  0  0  0  0
 32 26  1  0  0  0  0
 32 31  1  0  0  0  0
M  CHG  3  14  -1  15  -1  16  -1
M  END
>  <CHROM.1>
-75.67318851,-75.56206980,-52.23995400,-54.14309752,158.70295246,-12.45275301
-89.41745132,59.12329363,69.07692293,7.84118450,-0.06388305,-1.40871080,0.57087498
-3.01161714

>  <Name>
2au4_lig

>  <RI>
0

>  <Rbt.Current_Directory>
/home/itssahil/PROJECTS/Mol_Feturizer/New_Systems/rnas/2au4

>  <Rbt.Executable>
rbdock ($Id: //depot/dev/client3/rdock/2013.1/src/exe/rbdock.cxx#4 $)

>  <Rbt.Library>
libRbt.so (2013.1, Build901 2013/11/27)

>  <Rbt.Parameter_File>
/export/apps/rDock/src/rDock_2013.1_src/data/scripts/dock_solv.prm

>  <Rbt.Receptor>
prm/pocket_docking_2.prm

>  <SCORE>
-27.062

>  <SCORE.INTER>
-8.68801

>  <SCORE.INTER.CONST>
1

>  <SCORE.INTER.POLAR>
-2.69744

>  <SCORE.INTER.ROT>
8

>  <SCORE.INTER.SOLV>
33.206

>  <SCORE.INTER.VDW>
-16.8025

>  <SCORE.INTER.norm>
-0.2715

>  <SCORE.INTRA>
-22.167

>  <SCORE.INTRA.DIHEDRAL>
-43.1094

>  <SCORE.INTRA.DIHEDRAL.0>
76.3625

>  <SCORE.INTRA.POLAR>
0

>  <SCORE.INTRA.POLAR.0>
0

>  <SCORE.INTRA.REPUL>
0.0183107

>  <SCORE.INTRA.REPUL.0>
0.12705

>  <SCORE.INTRA.SOLV>
-0.492133

>  <SCORE.INTRA.SOLV.lig_0>
-119.383

>  <SCORE.INTRA.VDW>
-0.457835

>  <SCORE.INTRA.VDW.0>
-5.10464

>  <SCORE.INTRA.norm>
-0.69272

>  <SCORE.RESTR>
3.79301

>  <SCORE.RESTR.CAVITY>
3.79301

>  <SCORE.RESTR.norm>
0.118532

>  <SCORE.SYSTEM>
0

>  <SCORE.SYSTEM.CONST>
0

>  <SCORE.SYSTEM.DIHEDRAL>
0

>  <SCORE.SYSTEM.SOLV>
0

>  <SCORE.SYSTEM.norm>
0

>  <SCORE.heavy>
32

>  <SCORE.norm>
-0.845689

>  <RMSD>
4.195

$$$$
2au4_lig
 OpenBabel11021811423D
libRbt.so/2013.1/901 2013/11/27
 32 34  0  0  0  0  0  0  0  0999 V2000
   68.1165    7.5978    2.3345 P   0  0  1  0  0  0  0  0  0  0  0  0
   69.2465   10.0609    2.4944 P   0  0  1  0  0  0  0  0  0  0  0  0
   69.1305   12.0233    0.6033 P   0  0  2  0  0  0  0  0  0  0  0  0
   69.9706    5.7220    2.0618 C   0  0  0  0  0  0  0  0  0  0  0  0
   68.6713    6.2236    1.7072 O   0  0  0  0  0  0  0  0  0  0  0  0
   70.4353    4.6055    1.1382 C   0  0  0  0  0  0  0  0  0  0  0  0
   69.4001    4.2644    0.1937 O   0  0  0  0  0  0  0  0  0  0  0  0
   71.6702    5.0302    0.3590 C   0  0  0  0  0  0  0  0  0  0  0  0
   72.7974    4.2147    0.7015 O   0  0  0  0  0  0  0  0  0  0  0  0
   71.3233    4.8901   -1.1040 C   0  0  0  0  0  0  0  0  0  0  0  0
   72.2168    3.9841   -1.7651 O   0  0  0  0  0  0  0  0  0  0  0  0
   69.8953    4.3753   -1.1575 C   0  0  0  0  0  0  0  0  0  0  0  0
   65.4099    6.7913   -1.4900 N   0  0  0  0  0  0  0  0  0  0  0  0
   67.2081    8.2290    1.3562 O   0  5  0  0  0  0  0  0  0  0  0  0
   67.8813   10.3479    2.9760 O   0  5  0  0  0  0  0  0  0  0  0  0
   69.0167   12.7780    1.8677 O   0  5  0  0  0  0  0  0  0  0  0  0
   65.8825    5.9613   -0.5014 C   0  0  1  0  0  0  0  0  0  0  0  0
   65.0669    5.7410    0.5209 N   0  0  0  0  0  0  0  0  0  0  0  0
   67.6528    7.3338    3.7134 O   0  0  0  0  0  0  0  0  0  0  0  0
   70.4154   10.6290    3.1975 O   0  0  0  0  0  0  0  0  0  0  0  0
   68.0572   12.1106   -0.4089 O   0  0  0  0  0  0  0  0  0  0  0  0
   67.0822    5.3861   -0.5276 N   0  0  0  0  0  0  0  0  0  0  0  0
   69.4287    8.4866    2.4257 O   0  0  0  0  0  0  0  0  0  0  0  0
   69.3357   10.4861    0.9658 O   0  0  0  0  0  0  0  0  0  0  0  0
   70.5238   12.4105   -0.0962 O   0  0  0  0  0  0  0  0  0  0  0  0
   67.7799    5.7128   -1.6398 C   0  0  2  0  0  0  0  0  0  0  0  0
   67.3814    6.5375   -2.6795 C   0  0  2  0  0  0  0  0  0  0  0  0
   66.1010    7.1416   -2.6360 C   0  0  1  0  0  0  0  0  0  0  0  0
   65.5769    7.8711   -3.4671 O   0  0  0  0  0  0  0  0  0  0  0  0
   68.3814    6.6295   -3.6535 N   0  0  0  0  0  0  0  0  0  0  0  0
   69.2996    5.8703   -3.1508 C   0  0  0  0  0  0  0  0  0  0  0  0
   69.0443    5.2770   -1.9581 N   0  0  0  0  0  0  0  0  0  0  0  0
  1  5  1  6  0  0  0
  1 14  1  0  0  0  0
  1 19  2  0  0  0  0
  2 15  1  1  0  0  0
  2 20  2  0  0  0  0
  2 23  1  0  0  0  0
  3 16  1  1  0  0  0
  3 21  2  0  0  0  0
  3 24  1  0  0  0  0
  3 25  1  0  0  0  0
  4  6  1  0  0  0  0
  5  4  1  0  0  0  0
  6  7  1  0  0  0  0
  6  8  2  0  0  0  0
  7 12  1  0  0  0  0
  8  9  1  0  0  0  0
  8 10  1  0  0  0  0
 10 11  1  0  0  0  0
 10 12  2  0  0  0  0
 12 32  1  0  0  0  0
 13 17  1  0  0  0  0
 17 18  1  6  0  0  0
 17 22  1  0  0  0  0
 23  1  1  0  0  0  0
 24  2  1  0  0  0  0
 26 22  1  6  0  0  0
 27 26  1  0  0  0  0
 27 28  1  0  0  0  0
 27 30  1  6  0  0  0
 28 13  1  0  0  0  0
 28 29  1  6  0  0  0
 31 30  1  0  0  0  0
 32 26  1  0  0  0  0
 32 31  1  0  0  0  0
M  CHG  3  14  -1  15  -1  16  -1
M  END
>  <CHROM.1>
150.09838947,21.67262031,5.39535386,-4.31009323,-166.84740360,-15.40653733
158.30089497,63.03226122,68.74655657,7.70044482,0.31260840,-1.59675542,0.71823221
-2.68090725

>  <Name>
2au4_lig

>  <RI>
0

>  <Rbt.Current_Directory>
/home/itssahil/PROJECTS/Mol_Feturizer/New_Systems/rnas/2au4

>  <Rbt.Executable>
rbdock ($Id: //depot/dev/client3/rdock/2013.1/src/exe/rbdock.cxx#4 $)

>  <Rbt.Library>
libRbt.so (2013.1, Build901 2013/11/27)

>  <Rbt.Parameter_File>
/export/apps/rDock/src/rDock_2013.1_src/data/scripts/dock_solv.prm

>  <Rbt.Receptor>
prm/pocket_docking_2.prm

>  <SCORE>
-27.0798

>  <SCORE.INTER>
-12.0974

>  <SCORE.INTER.CONST>
1

>  <SCORE.INTER.POLAR>
-2.9921

>  <SCORE.INTER.ROT>
8

>  <SCORE.INTER.SOLV>
25.442

>  <SCORE.INTER.VDW>
-15.5053

>  <SCORE.INTER.norm>
-0.378044

>  <SCORE.INTRA>
-19.2314

>  <SCORE.INTRA.DIHEDRAL>
-42.4547

>  <SCORE.INTRA.DIHEDRAL.0>
76.3625

>  <SCORE.INTRA.POLAR>
0

>  <SCORE.INTRA.POLAR.0>
0

>  <SCORE.INTRA.REPUL>
0.210325

>  <SCORE.INTRA.REPUL.0>
0.12705

>  <SCORE.INTRA.SOLV>
0.188858

>  <SCORE.INTRA.SOLV.lig_0>
-119.383

>  <SCORE.INTRA.VDW>
0.849888

>  <SCORE.INTRA.VDW.0>
-5.10464

>  <SCORE.INTRA.norm>
-0.600981

>  <SCORE.RESTR>
4.24898

>  <SCORE.RESTR.CAVITY>
4.24898

>  <SCORE.RESTR.norm>
0.132781

>  <SCORE.SYSTEM>
0

>  <SCORE.SYSTEM.CONST>
0

>  <SCORE.SYSTEM.DIHEDRAL>
0

>  <SCORE.SYSTEM.SOLV>
0

>  <SCORE.SYSTEM.norm>
0

>  <SCORE.heavy>
32

>  <SCORE.norm>
-0.846245

>  <RMSD>
4.213

$$$$
2au4_lig
 OpenBabel11021811423D
libRbt.so/2013.1/901 2013/11/27
 32 34  0  0  0  0  0  0  0  0999 V2000
   67.7364   11.5345    2.4600 P   0  0  1  0  0  0  0  0  0  0  0  0
   67.7278   12.6919    0.0044 P   0  0  1  0  0  0  0  0  0  0  0  0
   70.4511   12.7426   -0.1438 P   0  0  2  0  0  0  0  0  0  0  0  0
   68.5167    9.5032    0.9449 C   0  0  0  0  0  0  0  0  0  0  0  0
   68.8702   10.5997    1.8042 O   0  0  0  0  0  0  0  0  0  0  0  0
   67.7717    8.4014    1.6842 C   0  0  0  0  0  0  0  0  0  0  0  0
   67.8897    7.1482    0.9800 O   0  0  0  0  0  0  0  0  0  0  0  0
   68.3353    8.2161    3.0844 C   0  0  0  0  0  0  0  0  0  0  0  0
   67.3527    8.5326    4.0780 O   0  0  0  0  0  0  0  0  0  0  0  0
   68.7647    6.7720    3.1862 C   0  0  0  0  0  0  0  0  0  0  0  0
   68.0815    6.1011    4.2535 O   0  0  0  0  0  0  0  0  0  0  0  0
   68.4355    6.1326    1.8483 C   0  0  0  0  0  0  0  0  0  0  0  0
   70.9439    5.0340   -2.4607 N   0  0  0  0  0  0  0  0  0  0  0  0
   66.4176   10.9166    2.2160 O   0  5  0  0  0  0  0  0  0  0  0  0
   66.6076   11.7797   -0.2973 O   0  5  0  0  0  0  0  0  0  0  0  0
   70.3440   13.5068    1.1155 O   0  5  0  0  0  0  0  0  0  0  0  0
   69.7376    5.6711   -2.2917 C   0  0  1  0  0  0  0  0  0  0  0  0
   69.1185    6.0606   -3.3981 N   0  0  0  0  0  0  0  0  0  0  0  0
   68.1489   11.8815    3.8368 O   0  0  0  0  0  0  0  0  0  0  0  0
   67.7690   14.0403   -0.5988 O   0  0  0  0  0  0  0  0  0  0  0  0
   70.7690   13.4403   -1.4072 O   0  0  0  0  0  0  0  0  0  0  0  0
   69.1817    5.9026   -1.1051 N   0  0  0  0  0  0  0  0  0  0  0  0
   67.8280   12.8523    1.5794 O   0  0  0  0  0  0  0  0  0  0  0  0
   69.0862   11.9493   -0.3544 O   0  0  0  0  0  0  0  0  0  0  0  0
   71.5179   11.5603    0.0682 O   0  0  0  0  0  0  0  0  0  0  0  0
   69.9415    5.4372   -0.0869 C   0  0  2  0  0  0  0  0  0  0  0  0
   71.1627    4.7876   -0.1677 C   0  0  2  0  0  0  0  0  0  0  0  0
   71.7402    4.5488   -1.4388 C   0  0  1  0  0  0  0  0  0  0  0  0
   72.7884    3.9742   -1.7009 O   0  0  0  0  0  0  0  0  0  0  0  0
   71.6373    4.4588    1.1066 N   0  0  0  0  0  0  0  0  0  0  0  0
   70.6923    4.9203    1.8590 C   0  0  0  0  0  0  0  0  0  0  0  0
   69.6385    5.5203    1.2515 N   0  0  0  0  0  0  0  0  0  0  0  0
  1  5  1  6  0  0  0
  1 14  1  0  0  0  0
  1 19  2  0  0  0  0
  2 15  1  6  0  0  0
  2 20  2  0  0  0  0
  2 23  1  0  0  0  0
  3 16  1  1  0  0  0
  3 21  2  0  0  0  0
  3 24  1  0  0  0  0
  3 25  1  0  0  0  0
  4  6  1  0  0  0  0
  5  4  1  0  0  0  0
  6  7  1  0  0  0  0
  6  8  2  0  0  0  0
  7 12  1  0  0  0  0
  8  9  1  0  0  0  0
  8 10  1  0  0  0  0
 10 11  1  0  0  0  0
 10 12  2  0  0  0  0
 12 32  1  0  0  0  0
 13 17  1  0  0  0  0
 17 18  1  6  0  0  0
 17 22  1  0  0  0  0
 23  1  1  0  0  0  0
 24  2  1  0  0  0  0
 26 22  1  6  0  0  0
 27 26  1  0  0  0  0
 27 28  1  0  0  0  0
 27 30  1  6  0  0  0
 28 13  1  0  0  0  0
 28 29  1  6  0  0  0
 31 30  1  0  0  0  0
 32 26  1  0  0  0  0
 32 31  1  0  0  0  0
M  CHG  3  14  -1  15  -1  16  -1
M  END
>  <CHROM.1>
9.78707737,45.62588173,40.22020762,-157.68139388,-66.29580059,-25.88430538
53.17753142,178.77302779,69.14280214,9.15987798,0.70219165,2.05505232,1.01087300
-0.28141816

>  <Name>
2au4_lig

>  <RI>
0

>  <Rbt.Current_Directory>
/home/itssahil/PROJECTS/Mol_Feturizer/New_Systems/rnas/2au4

>  <Rbt.Executable>
rbdock ($Id: //depot/dev/client3/rdock/2013.1/src/exe/rbdock.cxx#4 $)

>  <Rbt.Library>
libRbt.so (2013.1, Build901 2013/11/27)

>  <Rbt.Parameter_File>
/export/apps/rDock/src/rDock_2013.1_src/data/scripts/dock_solv.prm

>  <Rbt.Receptor>
prm/pocket_docking_4.prm

>  <SCORE>
-35.9329

>  <SCORE.INTER>
-13.6389

>  <SCORE.INTER.CONST>
1

>  <SCORE.INTER.POLAR>
0

>  <SCORE.INTER.ROT>
8

>  <SCORE.INTER.SOLV>
27.2444

>  <SCORE.INTER.VDW>
-27.1074

>  <SCORE.INTER.norm>
-0.426215

>  <SCORE.INTRA>
-22.4283

>  <SCORE.INTRA.DIHEDRAL>
-47.5338

>  <SCORE.INTRA.DIHEDRAL.0>
76.3625

>  <SCORE.INTRA.POLAR>
0

>  <SCORE.INTRA.POLAR.0>
0

>  <SCORE.INTRA.REPUL>
0.0713422

>  <SCORE.INTRA.REPUL.0>
0.12705

>  <SCORE.INTRA.SOLV>
0.225666

>  <SCORE.INTRA.SOLV.lig_0>
-119.383

>  <SCORE.INTRA.VDW>
0.869017

>  <SCORE.INTRA.VDW.0>
-5.10464

>  <SCORE.INTRA.norm>
-0.700885

>  <SCORE.RESTR>
0.134299

>  <SCORE.RESTR.CAVITY>
0.134299

>  <SCORE.RESTR.norm>
0.00419686

>  <SCORE.SYSTEM>
0

>  <SCORE.SYSTEM.CONST>
0

>  <SCORE.SYSTEM.DIHEDRAL>
0

>  <SCORE.SYSTEM.SOLV>
0

>  <SCORE.SYSTEM.norm>
0

>  <SCORE.heavy>
32

>  <SCORE.norm>
-1.1229

>  <RMSD>
4.236

$$$$
2au4_lig
 OpenBabel11021811423D
libRbt.so/2013.1/901 2013/11/27
 32 34  0  0  0  0  0  0  0  0999 V2000
   69.5109   10.2025   -0.0610 P   0  0  1  0  0  0  0  0  0  0  0  0
   69.7641   12.7480    0.8479 P   0  0  1  0  0  0  0  0  0  0  0  0
   72.4718   13.0712    0.9144 P   0  0  2  0  0  0  0  0  0  0  0  0
   67.2343    9.8340    1.2473 C   0  0  0  0  0  0  0  0  0  0  0  0
   68.6436   10.1127    1.2914 O   0  0  0  0  0  0  0  0  0  0  0  0
   66.8565    8.6132    2.0734 C   0  0  0  0  0  0  0  0  0  0  0  0
   66.5203    7.5039    1.2150 O   0  0  0  0  0  0  0  0  0  0  0  0
   68.0110    8.1903    2.9683 C   0  0  0  0  0  0  0  0  0  0  0  0
   67.6603    8.3191    4.3516 O   0  0  0  0  0  0  0  0  0  0  0  0
   68.3213    6.7545    2.6183 C   0  0  0  0  0  0  0  0  0  0  0  0
   68.1899    5.9010    3.7630 O   0  0  0  0  0  0  0  0  0  0  0  0
   67.3367    6.3567    1.5323 C   0  0  0  0  0  0  0  0  0  0  0  0
   71.6178    4.2640   -0.3004 N   0  0  0  0  0  0  0  0  0  0  0  0
   70.3775    9.0098   -0.1447 O   0  5  0  0  0  0  0  0  0  0  0  0
   69.0288   13.4594   -0.2157 O   0  5  0  0  0  0  0  0  0  0  0  0
   73.4618   13.9063    1.6243 O   0  5  0  0  0  0  0  0  0  0  0  0
   71.2969    4.6036    0.9924 C   0  0  1  0  0  0  0  0  0  0  0  0
   72.2236    4.3639    1.9104 N   0  0  0  0  0  0  0  0  0  0  0  0
   68.6062   10.5413   -1.1804 O   0  0  0  0  0  0  0  0  0  0  0  0
   69.0665   12.3368    2.0840 O   0  0  0  0  0  0  0  0  0  0  0  0
   72.5570   12.9092   -0.5520 O   0  0  0  0  0  0  0  0  0  0  0  0
   70.1361    5.1476    1.3492 N   0  0  0  0  0  0  0  0  0  0  0  0
   70.4390   11.4615    0.2107 O   0  0  0  0  0  0  0  0  0  0  0  0
   71.0207   13.6289    1.2604 O   0  0  0  0  0  0  0  0  0  0  0  0
   72.4600   11.6131    1.5886 O   0  0  0  0  0  0  0  0  0  0  0  0
   69.3113    5.3276    0.2919 C   0  0  2  0  0  0  0  0  0  0  0  0
   69.5536    5.0151   -1.0360 C   0  0  2  0  0  0  0  0  0  0  0  0
   70.7947    4.4369   -1.3988 C   0  0  1  0  0  0  0  0  0  0  0  0
   71.1886    4.1213   -2.5136 O   0  0  0  0  0  0  0  0  0  0  0  0
   68.4561    5.3524   -1.8354 N   0  0  0  0  0  0  0  0  0  0  0  0
   67.6393    5.8372   -0.9580 C   0  0  0  0  0  0  0  0  0  0  0  0
   68.0483    5.8691    0.3348 N   0  0  0  0  0  0  0  0  0  0  0  0
  1  5  1  1  0  0  0
  1 14  1  0  0  0  0
  1 19  2  0  0  0  0
  2 15  1  6  0  0  0
  2 20  2  0  0  0  0
  2 23  1  0  0  0  0
  3 16  1  1  0  0  0
  3 21  2  0  0  0  0
  3 24  1  0  0  0  0
  3 25  1  0  0  0  0
  4  6  1  0  0  0  0
  5  4  1  0  0  0  0
  6  7  1  0  0  0  0
  6  8  2  0  0  0  0
  7 12  1  0  0  0  0
  8  9  1  0  0  0  0
  8 10  1  0  0  0  0
 10 11  1  0  0  0  0
 10 12  2  0  0  0  0
 12 32  1  0  0  0  0
 13 17  1  0  0  0  0
 17 18  1  6  0  0  0
 17 22  1  0  0  0  0
 23  1  1  0  0  0  0
 24  2  1  0  0  0  0
 26 22  1  6  0  0  0
 27 26  1  0  0  0  0
 27 28  1  0  0  0  0
 27 30  1  6  0  0  0
 28 13  1  0  0  0  0
 28 29  1  6  0  0  0
 31 30  1  0  0  0  0
 32 26  1  0  0  0  0
 32 31  1  0  0  0  0
M  CHG  3  14  -1  15  -1  16  -1
M  END
>  <CHROM.1>
-108.14557965,-77.82746761,-168.68375031,-107.59353170,123.57432080,144.88515474
-44.09944009,-112.35407336,69.75758131,8.95797625,0.73211659,-1.33440841
-0.49638807,-2.96013177

>  <Name>
2au4_lig

>  <RI>
0

>  <Rbt.Current_Directory>
/home/itssahil/PROJECTS/Mol_Feturizer/New_Systems/rnas/2au4

>  <Rbt.Executable>
rbdock ($Id: //depot/dev/client3/rdock/2013.1/src/exe/rbdock.cxx#4 $)

>  <Rbt.Library>
libRbt.so (2013.1, Build901 2013/11/27)

>  <Rbt.Parameter_File>
/export/apps/rDock/src/rDock_2013.1_src/data/scripts/dock_solv.prm

>  <Rbt.Receptor>
prm/pocket_docking_2.prm

>  <SCORE>
-35.1906

>  <SCORE.INTER>
-22.2469

>  <SCORE.INTER.CONST>
1

>  <SCORE.INTER.POLAR>
-2.49981

>  <SCORE.INTER.ROT>
8

>  <SCORE.INTER.SOLV>
38.2187

>  <SCORE.INTER.VDW>
-28.1714

>  <SCORE.INTER.norm>
-0.695214

>  <SCORE.INTRA>
-18.0077

>  <SCORE.INTRA.DIHEDRAL>
-38.9288

>  <SCORE.INTRA.DIHEDRAL.0>
76.3625

>  <SCORE.INTRA.POLAR>
0

>  <SCORE.INTRA.POLAR.0>
0

>  <SCORE.INTRA.REPUL>
-0.12705

>  <SCORE.INTRA.REPUL.0>
0.12705

>  <SCORE.INTRA.SOLV>
-3.0205

>  <SCORE.INTRA.SOLV.lig_0>
-119.383

>  <SCORE.INTRA.VDW>
3.60221

>  <SCORE.INTRA.VDW.0>
-5.10464

>  <SCORE.INTRA.norm>
-0.562739

>  <SCORE.RESTR>
5.06397

>  <SCORE.RESTR.CAVITY>
5.06397

>  <SCORE.RESTR.norm>
0.158249

>  <SCORE.SYSTEM>
0

>  <SCORE.SYSTEM.CONST>
0

>  <SCORE.SYSTEM.DIHEDRAL>
0

>  <SCORE.SYSTEM.SOLV>
0

>  <SCORE.SYSTEM.norm>
0

>  <SCORE.heavy>
32

>  <SCORE.norm>
-1.0997

>  <RMSD>
4.256

$$$$
2au4_lig
 OpenBabel11021811423D
libRbt.so/2013.1/901 2013/11/27
 32 34  0  0  0  0  0  0  0  0999 V2000
   68.1473   12.0263    0.2185 P   0  0  1  0  0  0  0  0  0  0  0  0
   70.7844   11.5383    0.6394 P   0  0  1  0  0  0  0  0  0  0  0  0
   73.2367   12.7112    0.8659 P   0  0  2  0  0  0  0  0  0  0  0  0
   67.7486    9.4205    0.5032 C   0  0  0  0  0  0  0  0  0  0  0  0
   67.8483   10.7199    1.1092 O   0  0  0  0  0  0  0  0  0  0  0  0
   67.2169    8.3688    1.4659 C   0  0  0  0  0  0  0  0  0  0  0  0
   67.3040    7.0539    0.8796 O   0  0  0  0  0  0  0  0  0  0  0  0
   68.0178    8.3681    2.7586 C   0  0  0  0  0  0  0  0  0  0  0  0
   67.1947    8.7395    3.8711 O   0  0  0  0  0  0  0  0  0  0  0  0
   68.5589    6.9684    2.9271 C   0  0  0  0  0  0  0  0  0  0  0  0
   68.1122    6.3837    4.1578 O   0  0  0  0  0  0  0  0  0  0  0  0
   68.0572    6.1698    1.7365 C   0  0  0  0  0  0  0  0  0  0  0  0
   69.7918    4.5260   -2.7752 N   0  0  0  0  0  0  0  0  0  0  0  0
   67.1854   12.0630   -0.9014 O   0  5  0  0  0  0  0  0  0  0  0  0
   70.3090   11.9236    1.9823 O   0  5  0  0  0  0  0  0  0  0  0  0
   73.1039   13.6010    2.0371 O   0  5  0  0  0  0  0  0  0  0  0  0
   68.5758    5.0837   -2.4586 C   0  0  1  0  0  0  0  0  0  0  0  0
   67.7132    5.2184   -3.4570 N   0  0  0  0  0  0  0  0  0  0  0  0
   68.2809   13.1913    1.1191 O   0  0  0  0  0  0  0  0  0  0  0  0
   71.3875   10.2072    0.4201 O   0  0  0  0  0  0  0  0  0  0  0  0
   74.2571   12.9935   -0.1652 O   0  0  0  0  0  0  0  0  0  0  0  0
   68.2378    5.4775   -1.2334 N   0  0  0  0  0  0  0  0  0  0  0  0
   69.5826   11.7100   -0.3817 O   0  0  0  0  0  0  0  0  0  0  0  0
   71.8196   12.6368    0.1426 O   0  0  0  0  0  0  0  0  0  0  0  0
   73.4448   11.2073    1.3909 O   0  0  0  0  0  0  0  0  0  0  0  0
   69.2292    5.2641   -0.3378 C   0  0  2  0  0  0  0  0  0  0  0  0
   70.4781    4.7111   -0.5704 C   0  0  2  0  0  0  0  0  0  0  0  0
   70.8217    4.2967   -1.8806 C   0  0  1  0  0  0  0  0  0  0  0  0
   71.8583    3.7710   -2.2635 O   0  0  0  0  0  0  0  0  0  0  0  0
   71.2256    4.6542    0.6108 N   0  0  0  0  0  0  0  0  0  0  0  0
   70.3978    5.1647    1.4628 C   0  0  0  0  0  0  0  0  0  0  0  0
   69.1840    5.5598    1.0041 N   0  0  0  0  0  0  0  0  0  0  0  0
  1  5  1  1  0  0  0
  1 14  1  0  0  0  0
  1 19  2  0  0  0  0
  2 15  1  1  0  0  0
  2 20  2  0  0  0  0
  2 23  1  0  0  0  0
  3 16  1  1  0  0  0
  3 21  2  0  0  0  0
  3 24  1  0  0  0  0
  3 25  1  0  0  0  0
  4  6  1  0  0  0  0
  5  4  1  0  0  0  0
  6  7  1  0  0  0  0
  6  8  2  0  0  0  0
  7 12  1  0  0  0  0
  8  9  1  0  0  0  0
  8 10  1  0  0  0  0
 10 11  1  0  0  0  0
 10 12  2  0  0  0  0
 12 32  1  0  0  0  0
 13 17  1  0  0  0  0
 17 18  1  1  0  0  0
 17 22  1  0  0  0  0
 23  1  1  0  0  0  0
 24  2  1  0  0  0  0
 26 22  1  1  0  0  0
 27 26  1  0  0  0  0
 27 28  1  0  0  0  0
 27 30  1  1  0  0  0
 28 13  1  0  0  0  0
 28 29  1  1  0  0  0
 31 30  1  0  0  0  0
 32 26  1  0  0  0  0
 32 31  1  0  0  0  0
M  CHG  3  14  -1  15  -1  16  -1
M  END
>  <CHROM.1>
51.50855479,-8.47183104,-87.61919519,-172.19316843,-169.59819031,-30.61195165
-62.22876709,70.02738016,69.81509732,8.99677848,0.48886110,1.28831090,0.38580527
0.29182087

>  <Name>
2au4_lig

>  <RI>
0

>  <Rbt.Current_Directory>
/home/itssahil/PROJECTS/Mol_Feturizer/New_Systems/rnas/2au4

>  <Rbt.Executable>
rbdock ($Id: //depot/dev/client3/rdock/2013.1/src/exe/rbdock.cxx#4 $)

>  <Rbt.Library>
libRbt.so (2013.1, Build901 2013/11/27)

>  <Rbt.Parameter_File>
/export/apps/rDock/src/rDock_2013.1_src/data/scripts/dock_solv.prm

>  <Rbt.Receptor>
prm/pocket_docking_3.prm

>  <SCORE>
-44.3154

>  <SCORE.INTER>
-21.8148

>  <SCORE.INTER.CONST>
1

>  <SCORE.INTER.POLAR>
-1.24188

>  <SCORE.INTER.ROT>
8

>  <SCORE.INTER.SOLV>
29.5484

>  <SCORE.INTER.VDW>
-29.1864

>  <SCORE.INTER.norm>
-0.681712

>  <SCORE.INTRA>
-23.0218

>  <SCORE.INTRA.DIHEDRAL>
-46.6538

>  <SCORE.INTRA.DIHEDRAL.0>
76.3625

>  <SCORE.INTRA.POLAR>
0

>  <SCORE.INTRA.POLAR.0>
0

>  <SCORE.INTRA.REPUL>
0.061999

>  <SCORE.INTRA.REPUL.0>
0.12705

>  <SCORE.INTRA.SOLV>
-6.30253

>  <SCORE.INTRA.SOLV.lig_0>
-119.383

>  <SCORE.INTRA.VDW>
3.14638

>  <SCORE.INTRA.VDW.0>
-5.10464

>  <SCORE.INTRA.norm>
-0.719431

>  <SCORE.RESTR>
0.52121

>  <SCORE.RESTR.CAVITY>
0.52121

>  <SCORE.RESTR.norm>
0.0162878

>  <SCORE.SYSTEM>
0

>  <SCORE.SYSTEM.CONST>
0

>  <SCORE.SYSTEM.DIHEDRAL>
0

>  <SCORE.SYSTEM.SOLV>
0

>  <SCORE.SYSTEM.norm>
0

>  <SCORE.heavy>
32

>  <SCORE.norm>
-1.38486

>  <RMSD>
4.296

$$$$
2au4_lig
 OpenBabel11021811423D
libRbt.so/2013.1/901 2013/11/27
 32 34  0  0  0  0  0  0  0  0999 V2000
   67.8346   11.6539    1.6453 P   0  0  1  0  0  0  0  0  0  0  0  0
   66.7819   14.0384    0.8867 P   0  0  1  0  0  0  0  0  0  0  0  0
   64.9225   12.6370   -0.5344 P   0  0  2  0  0  0  0  0  0  0  0  0
   67.6262    9.6749   -0.1070 C   0  0  0  0  0  0  0  0  0  0  0  0
   68.4556   10.4543    0.7707 O   0  0  0  0  0  0  0  0  0  0  0  0
   67.1090    8.4064    0.5554 C   0  0  0  0  0  0  0  0  0  0  0  0
   67.2196    7.2834   -0.3430 O   0  0  0  0  0  0  0  0  0  0  0  0
   67.9058    8.0917    1.8118 C   0  0  0  0  0  0  0  0  0  0  0  0
   67.0734    8.1578    2.9761 O   0  0  0  0  0  0  0  0  0  0  0  0
   68.4695    6.7032    1.6257 C   0  0  0  0  0  0  0  0  0  0  0  0
   68.0288    5.8201    2.6658 O   0  0  0  0  0  0  0  0  0  0  0  0
   67.9847    6.2233    0.2686 C   0  0  0  0  0  0  0  0  0  0  0  0
   72.6676    4.1962    0.1034 N   0  0  0  0  0  0  0  0  0  0  0  0
   66.4411   11.3106    1.9932 O   0  5  0  0  0  0  0  0  0  0  0  0
   67.0066   14.5216    2.2630 O   0  5  0  0  0  0  0  0  0  0  0  0
   63.9039   13.5090   -1.1536 O   0  5  0  0  0  0  0  0  0  0  0  0
   71.8500    4.4162    1.1863 C   0  0  1  0  0  0  0  0  0  0  0  0
   72.3327    4.0603    2.3693 N   0  0  0  0  0  0  0  0  0  0  0  0
   68.7978   12.0100    2.7091 O   0  0  0  0  0  0  0  0  0  0  0  0
   66.8482   14.9804   -0.2499 O   0  0  0  0  0  0  0  0  0  0  0  0
   64.6157   11.2164   -0.2668 O   0  0  0  0  0  0  0  0  0  0  0  0
   70.6368    4.9563    1.1011 N   0  0  0  0  0  0  0  0  0  0  0  0
   67.7965   12.8520    0.6045 O   0  0  0  0  0  0  0  0  0  0  0  0
   65.3723   13.3063    0.8391 O   0  0  0  0  0  0  0  0  0  0  0  0
   66.2613   12.7117   -1.4190 O   0  0  0  0  0  0  0  0  0  0  0  0
   70.3041    5.2636   -0.1738 C   0  0  2  0  0  0  0  0  0  0  0  0
   71.0636    5.0762   -1.3175 C   0  0  2  0  0  0  0  0  0  0  0  0
   72.3531    4.5003   -1.2090 C   0  0  1  0  0  0  0  0  0  0  0  0
   73.1657    4.2845   -2.0981 O   0  0  0  0  0  0  0  0  0  0  0  0
   70.3756    5.5226   -2.4509 N   0  0  0  0  0  0  0  0  0  0  0  0
   69.2690    5.9425   -1.9303 C   0  0  0  0  0  0  0  0  0  0  0  0
   69.1236    5.8351   -0.5860 N   0  0  0  0  0  0  0  0  0  0  0  0
  1  5  1  6  0  0  0
  1 14  1  0  0  0  0
  1 19  2  0  0  0  0
  2 15  1  1  0  0  0
  2 20  2  0  0  0  0
  2 23  1  0  0  0  0
  3 16  1  6  0  0  0
  3 21  2  0  0  0  0
  3 24  1  0  0  0  0
  3 25  1  0  0  0  0
  4  6  1  0  0  0  0
  5  4  1  0  0  0  0
  6  7  1  0  0  0  0
  6  8  2  0  0  0  0
  7 12  1  0  0  0  0
  8  9  1  0  0  0  0
  8 10  1  0  0  0  0
 10 11  1  0  0  0  0
 10 12  2  0  0  0  0
 12 32  1  0  0  0  0
 13 17  1  0  0  0  0
 17 18  1  1  0  0  0
 17 22  1  0  0  0  0
 23  1  1  0  0  0  0
 24  2  1  0  0  0  0
 26 22  1  1  0  0  0
 27 26  1  0  0  0  0
 27 28  1  0  0  0  0
 27 30  1  1  0  0  0
 28 13  1  0  0  0  0
 28 29  1  1  0  0  0
 31 30  1  0  0  0  0
 32 26  1  0  0  0  0
 32 31  1  0  0  0  0
M  CHG  3  14  -1  15  -1  16  -1
M  END
>  <CHROM.1>
31.89411245,52.43762968,-104.30516713,-136.15812689,-94.14375628,154.22005190
157.77496076,-177.46223608,68.15624342,9.30489260,0.42892567,-2.70788424
0.97659130,-2.01061176

>  <Name>
2au4_lig

>  <RI>
0

>  <Rbt.Current_Directory>
/home/itssahil/PROJECTS/Mol_Feturizer/New_Systems/rnas/2au4

>  <Rbt.Executable>
rbdock ($Id: //depot/dev/client3/rdock/2013.1/src/exe/rbdock.cxx#4 $)

>  <Rbt.Library>
libRbt.so (2013.1, Build901 2013/11/27)

>  <Rbt.Parameter_File>
/export/apps/rDock/src/rDock_2013.1_src/data/scripts/dock_solv.prm

>  <Rbt.Receptor>
prm/pocket_docking_5.prm

>  <SCORE>
-39.9036

>  <SCORE.INTER>
-19.1959

>  <SCORE.INTER.CONST>
1

>  <SCORE.INTER.POLAR>
-2.04334

>  <SCORE.INTER.ROT>
8

>  <SCORE.INTER.SOLV>
28.5063

>  <SCORE.INTER.VDW>
-24.4216

>  <SCORE.INTER.norm>
-0.599871

>  <SCORE.INTRA>
-20.7841

>  <SCORE.INTRA.DIHEDRAL>
-43.1015

>  <SCORE.INTRA.DIHEDRAL.0>
76.3625

>  <SCORE.INTRA.POLAR>
0

>  <SCORE.INTRA.POLAR.0>
0

>  <SCORE.INTRA.REPUL>
-0.12705

>  <SCORE.INTRA.REPUL.0>
0.12705

>  <SCORE.INTRA.SOLV>
-0.827345

>  <SCORE.INTRA.SOLV.lig_0>
-119.383

>  <SCORE.INTRA.VDW>
1.81559

>  <SCORE.INTRA.VDW.0>
-5.10464

>  <SCORE.INTRA.norm>
-0.649503

>  <SCORE.RESTR>
0.0763705

>  <SCORE.RESTR.CAVITY>
0.0763705

>  <SCORE.RESTR.norm>
0.00238658

>  <SCORE.SYSTEM>
0

>  <SCORE.SYSTEM.CONST>
0

>  <SCORE.SYSTEM.DIHEDRAL>
0

>  <SCORE.SYSTEM.SOLV>
0

>  <SCORE.SYSTEM.norm>
0

>  <SCORE.heavy>
32

>  <SCORE.norm>
-1.24699

>  <RMSD>
4.305

$$$$
2au4_lig
 OpenBabel11021811423D
libRbt.so/2013.1/901 2013/11/27
 32 34  0  0  0  0  0  0  0  0999 V2000
   66.3166   11.2801   -0.3873 P   0  0  1  0  0  0  0  0  0  0  0  0
   68.4587   12.4100   -1.6137 P   0  0  1  0  0  0  0  0  0  0  0  0
   69.4922   12.9741    0.8469 P   0  0  2  0  0  0  0  0  0  0  0  0
   67.1165    8.9423    0.5746 C   0  0  0  0  0  0  0  0  0  0  0  0
   66.1467   10.0031    0.5770 O   0  0  0  0  0  0  0  0  0  0  0  0
   66.8682    7.9244    1.6780 C   0  0  0  0  0  0  0  0  0  0  0  0
   67.1535    6.5899    1.2111 O   0  0  0  0  0  0  0  0  0  0  0  0
   67.7539    8.2078    2.8813 C   0  0  0  0  0  0  0  0  0  0  0  0
   66.9657    8.5460    4.0290 O   0  0  0  0  0  0  0  0  0  0  0  0
   68.5590    6.9539    3.1260 C   0  0  0  0  0  0  0  0  0  0  0  0
   68.3275    6.4371    4.4434 O   0  0  0  0  0  0  0  0  0  0  0  0
   68.1238    5.9533    2.0694 C   0  0  0  0  0  0  0  0  0  0  0  0
   69.9550    4.8389   -2.5644 N   0  0  0  0  0  0  0  0  0  0  0  0
   65.4946   11.0701   -1.5960 O   0  5  0  0  0  0  0  0  0  0  0  0
   68.9542   11.9113   -2.9113 O   0  5  0  0  0  0  0  0  0  0  0  0
   69.3209   11.6260    1.4253 O   0  5  0  0  0  0  0  0  0  0  0  0
   68.7096    5.2971   -2.2055 C   0  0  1  0  0  0  0  0  0  0  0  0
   67.8427    5.4779   -3.1929 N   0  0  0  0  0  0  0  0  0  0  0  0
   66.1471   12.5071    0.4202 O   0  0  0  0  0  0  0  0  0  0  0  0
   67.4887   13.5239   -1.5690 O   0  0  0  0  0  0  0  0  0  0  0  0
   68.4537   14.0049    1.0541 O   0  0  0  0  0  0  0  0  0  0  0  0
   68.3480    5.5547   -0.9511 N   0  0  0  0  0  0  0  0  0  0  0  0
   67.8430   11.1866   -0.8132 O   0  0  0  0  0  0  0  0  0  0  0  0
   69.7116   12.8109   -0.7222 O   0  0  0  0  0  0  0  0  0  0  0  0
   70.9021   13.5641    1.3413 O   0  0  0  0  0  0  0  0  0  0  0  0
   69.3479    5.3123   -0.0725 C   0  0  2  0  0  0  0  0  0  0  0  0
   70.6258    4.8527   -0.3472 C   0  0  2  0  0  0  0  0  0  0  0  0
   70.9942    4.5829   -1.6880 C   0  0  1  0  0  0  0  0  0  0  0  0
   72.0589    4.1531   -2.1112 O   0  0  0  0  0  0  0  0  0  0  0  0
   71.3729    4.7257    0.8288 N   0  0  0  0  0  0  0  0  0  0  0  0
   70.5166    5.1078    1.7191 C   0  0  0  0  0  0  0  0  0  0  0  0
   69.2839    5.4775    1.2909 N   0  0  0  0  0  0  0  0  0  0  0  0
  1  5  1  1  0  0  0
  1 14  1  0  0  0  0
  1 19  2  0  0  0  0
  2 15  1  6  0  0  0
  2 20  2  0  0  0  0
  2 23  1  0  0  0  0
  3 16  1  1  0  0  0
  3 21  2  0  0  0  0
  3 24  1  0  0  0  0
  3 25  1  0  0  0  0
  4  6  1  0  0  0  0
  5  4  1  0  0  0  0
  6  7  1  0  0  0  0
  6  8  2  0  0  0  0
  7 12  1  0  0  0  0
  8  9  1  0  0  0  0
  8 10  1  0  0  0  0
 10 11  1  0  0  0  0
 10 12  2  0  0  0  0
 12 32  1  0  0  0  0
 13 17  1  0  0  0  0
 17 18  1  1  0  0  0
 17 22  1  0  0  0  0
 23  1  1  0  0  0  0
 24  2  1  0  0  0  0
 26 22  1  1  0  0  0
 27 26  1  0  0  0  0
 27 28  1  0  0  0  0
 27 30  1  1  0  0  0
 28 13  1  0  0  0  0
 28 29  1  1  0  0  0
 31 30  1  0  0  0  0
 32 26  1  0  0  0  0
 32 31  1  0  0  0  0
M  CHG  3  14  -1  15  -1  16  -1
M  END
>  <CHROM.1>
97.45150365,-121.00157993,72.90729206,142.08832734,172.60328447,-16.12676905
-171.31740625,-162.56618031,68.51554233,9.07468513,0.13514809,-2.23017415
-1.23639672,2.48798908

>  <Name>
2au4_lig

>  <RI>
0

>  <Rbt.Current_Directory>
/home/itssahil/PROJECTS/Mol_Feturizer/New_Systems/rnas/2au4

>  <Rbt.Executable>
rbdock ($Id: //depot/dev/client3/rdock/2013.1/src/exe/rbdock.cxx#4 $)

>  <Rbt.Library>
libRbt.so (2013.1, Build901 2013/11/27)

>  <Rbt.Parameter_File>
/export/apps/rDock/src/rDock_2013.1_src/data/scripts/dock_solv.prm

>  <Rbt.Receptor>
prm/pocket_docking_3.prm

>  <SCORE>
-39.397

>  <SCORE.INTER>
-20.6763

>  <SCORE.INTER.CONST>
1

>  <SCORE.INTER.POLAR>
-0.783253

>  <SCORE.INTER.ROT>
8

>  <SCORE.INTER.SOLV>
30.5274

>  <SCORE.INTER.VDW>
-30.2825

>  <SCORE.INTER.norm>
-0.646134

>  <SCORE.INTRA>
-19.8447

>  <SCORE.INTRA.DIHEDRAL>
-43.6659

>  <SCORE.INTRA.DIHEDRAL.0>
76.3625

>  <SCORE.INTRA.POLAR>
0

>  <SCORE.INTRA.POLAR.0>
0

>  <SCORE.INTRA.REPUL>
0.0455234

>  <SCORE.INTRA.REPUL.0>
0.12705

>  <SCORE.INTRA.SOLV>
0.51447

>  <SCORE.INTRA.SOLV.lig_0>
-119.383

>  <SCORE.INTRA.VDW>
1.50343

>  <SCORE.INTRA.VDW.0>
-5.10464

>  <SCORE.INTRA.norm>
-0.620147

>  <SCORE.RESTR>
1.12401

>  <SCORE.RESTR.CAVITY>
1.12401

>  <SCORE.RESTR.norm>
0.0351253

>  <SCORE.SYSTEM>
0

>  <SCORE.SYSTEM.CONST>
0

>  <SCORE.SYSTEM.DIHEDRAL>
0

>  <SCORE.SYSTEM.SOLV>
0

>  <SCORE.SYSTEM.norm>
0

>  <SCORE.heavy>
32

>  <SCORE.norm>
-1.23116

>  <RMSD>
4.371

$$$$
2au4_lig
 OpenBabel11021811423D
libRbt.so/2013.1/901 2013/11/27
 32 34  0  0  0  0  0  0  0  0999 V2000
   69.4188   10.9720    0.5544 P   0  0  1  0  0  0  0  0  0  0  0  0
   69.5670   13.0961    2.2384 P   0  0  1  0  0  0  0  0  0  0  0  0
   71.9282   13.6719    3.4768 P   0  0  2  0  0  0  0  0  0  0  0  0
   67.1266    9.8631    1.2938 C   0  0  0  0  0  0  0  0  0  0  0  0
   68.4153   10.3804    1.6645 O   0  0  0  0  0  0  0  0  0  0  0  0
   66.7887    8.5685    2.0186 C   0  0  0  0  0  0  0  0  0  0  0  0
   66.6568    7.4812    1.0802 O   0  0  0  0  0  0  0  0  0  0  0  0
   67.8799    8.2085    3.0147 C   0  0  0  0  0  0  0  0  0  0  0  0
   67.3756    8.2273    4.3557 O   0  0  0  0  0  0  0  0  0  0  0  0
   68.3674    6.8300    2.6372 C   0  0  0  0  0  0  0  0  0  0  0  0
   68.2033    5.9063    3.7216 O   0  0  0  0  0  0  0  0  0  0  0  0
   67.5463    6.4009    1.4336 C   0  0  0  0  0  0  0  0  0  0  0  0
   71.9963    4.3567   -0.0104 N   0  0  0  0  0  0  0  0  0  0  0  0
   70.2900    9.8794    0.0771 O   0  5  0  0  0  0  0  0  0  0  0  0
   68.5763   13.7475    1.3595 O   0  5  0  0  0  0  0  0  0  0  0  0
   72.0671   12.2072    3.3473 O   0  5  0  0  0  0  0  0  0  0  0  0
   71.4838    4.5268    1.2537 C   0  0  1  0  0  0  0  0  0  0  0  0
   72.2437    4.1089    2.2572 N   0  0  0  0  0  0  0  0  0  0  0  0
   68.6355   11.7713   -0.4119 O   0  0  0  0  0  0  0  0  0  0  0  0
   69.1419   12.5043    3.5239 O   0  0  0  0  0  0  0  0  0  0  0  0
   71.7202   14.2799    4.8076 O   0  0  0  0  0  0  0  0  0  0  0  0
   70.2989    5.0778    1.5049 N   0  0  0  0  0  0  0  0  0  0  0  0
   70.3128   11.9742    1.4009 O   0  0  0  0  0  0  0  0  0  0  0  0
   70.7307   14.1367    2.5353 O   0  0  0  0  0  0  0  0  0  0  0  0
   73.2053   14.3661    2.7930 O   0  0  0  0  0  0  0  0  0  0  0  0
   69.6599    5.4508    0.3721 C   0  0  2  0  0  0  0  0  0  0  0  0
   70.1014    5.3167   -0.9344 C   0  0  2  0  0  0  0  0  0  0  0  0
   71.3654    4.7283   -1.1841 C   0  0  1  0  0  0  0  0  0  0  0  0
   71.9222    4.5527   -2.2596 O   0  0  0  0  0  0  0  0  0  0  0  0
   69.1573    5.8237   -1.8337 N   0  0  0  0  0  0  0  0  0  0  0  0
   68.2266    6.2235   -1.0300 C   0  0  0  0  0  0  0  0  0  0  0  0
   68.4244    6.0494    0.3005 N   0  0  0  0  0  0  0  0  0  0  0  0
  1  5  1  1  0  0  0
  1 14  1  0  0  0  0
  1 19  2  0  0  0  0
  2 15  1  6  0  0  0
  2 20  2  0  0  0  0
  2 23  1  0  0  0  0
  3 16  1  1  0  0  0
  3 21  2  0  0  0  0
  3 24  1  0  0  0  0
  3 25  1  0  0  0  0
  4  6  1  0  0  0  0
  5  4  1  0  0  0  0
  6  7  1  0  0  0  0
  6  8  2  0  0  0  0
  7 12  1  0  0  0  0
  8  9  1  0  0  0  0
  8 10  1  0  0  0  0
 10 11  1  0  0  0  0
 10 12  2  0  0  0  0
 12 32  1  0  0  0  0
 13 17  1  0  0  0  0
 17 18  1  1  0  0  0
 17 22  1  0  0  0  0
 23  1  1  0  0  0  0
 24  2  1  0  0  0  0
 26 22  1  1  0  0  0
 27 26  1  0  0  0  0
 27 28  1  0  0  0  0
 27 30  1  1  0  0  0
 28 13  1  0  0  0  0
 28 29  1  1  0  0  0
 31 30  1  0  0  0  0
 32 26  1  0  0  0  0
 32 31  1  0  0  0  0
M  CHG  3  14  -1  15  -1  16  -1
M  END
>  <CHROM.1>
-91.09823201,-48.10050053,27.94291507,-116.54945583,137.38420334,155.11518367
-54.93334105,179.65323834,69.74714515,9.30704116,1.51384072,1.47832054,0.15159425
0.31428158

>  <Name>
2au4_lig

>  <RI>
0

>  <Rbt.Current_Directory>
/home/itssahil/PROJECTS/Mol_Feturizer/New_Systems/rnas/2au4

>  <Rbt.Executable>
rbdock ($Id: //depot/dev/client3/rdock/2013.1/src/exe/rbdock.cxx#4 $)

>  <Rbt.Library>
libRbt.so (2013.1, Build901 2013/11/27)

>  <Rbt.Parameter_File>
/export/apps/rDock/src/rDock_2013.1_src/data/scripts/dock_solv.prm

>  <Rbt.Receptor>
prm/pocket_docking_6.prm

>  <SCORE>
-48.4437

>  <SCORE.INTER>
-26.3949

>  <SCORE.INTER.CONST>
1

>  <SCORE.INTER.POLAR>
-2.249

>  <SCORE.INTER.ROT>
8

>  <SCORE.INTER.SOLV>
31.6702

>  <SCORE.INTER.VDW>
-29.59

>  <SCORE.INTER.norm>
-0.82484

>  <SCORE.INTRA>
-22.0488

>  <SCORE.INTRA.DIHEDRAL>
-42.1772

>  <SCORE.INTRA.DIHEDRAL.0>
76.3625

>  <SCORE.INTRA.POLAR>
0

>  <SCORE.INTRA.POLAR.0>
0

>  <SCORE.INTRA.REPUL>
-0.12705

>  <SCORE.INTRA.REPUL.0>
0.12705

>  <SCORE.INTRA.SOLV>
-3.90321

>  <SCORE.INTRA.SOLV.lig_0>
-119.383

>  <SCORE.INTRA.VDW>
1.62661

>  <SCORE.INTRA.VDW.0>
-5.10464

>  <SCORE.INTRA.norm>
-0.689026

>  <SCORE.RESTR>
0

>  <SCORE.RESTR.CAVITY>
0

>  <SCORE.RESTR.norm>
0

>  <SCORE.SYSTEM>
0

>  <SCORE.SYSTEM.CONST>
0

>  <SCORE.SYSTEM.DIHEDRAL>
0

>  <SCORE.SYSTEM.SOLV>
0

>  <SCORE.SYSTEM.norm>
0

>  <SCORE.heavy>
32

>  <SCORE.norm>
-1.51387

>  <RMSD>
4.401

$$$$
2au4_lig
 OpenBabel11021811423D
libRbt.so/2013.1/901 2013/11/27
 32 34  0  0  0  0  0  0  0  0999 V2000
   66.1363   11.5278   -0.3472 P   0  0  1  0  0  0  0  0  0  0  0  0
   68.3259   13.1146   -0.1073 P   0  0  1  0  0  0  0  0  0  0  0  0
   68.8927   14.1186    2.3647 P   0  0  2  0  0  0  0  0  0  0  0  0
   66.9806    9.8872    1.5571 C   0  0  0  0  0  0  0  0  0  0  0  0
   66.1219   10.1176    0.4278 O   0  0  0  0  0  0  0  0  0  0  0  0
   66.6882    8.5645    2.2501 C   0  0  0  0  0  0  0  0  0  0  0  0
   66.5368    7.5067    1.2814 O   0  0  0  0  0  0  0  0  0  0  0  0
   67.8206    8.1888    3.1930 C   0  0  0  0  0  0  0  0  0  0  0  0
   67.3663    8.1558    4.5514 O   0  0  0  0  0  0  0  0  0  0  0  0
   68.3131    6.8311    2.7521 C   0  0  0  0  0  0  0  0  0  0  0  0
   68.2025    5.8698    3.8104 O   0  0  0  0  0  0  0  0  0  0  0  0
   67.4541    6.4291    1.5657 C   0  0  0  0  0  0  0  0  0  0  0  0
   71.8556    4.4593   -0.1114 N   0  0  0  0  0  0  0  0  0  0  0  0
   65.4709   11.3537   -1.6540 O   0  5  0  0  0  0  0  0  0  0  0  0
   69.7352   13.1522   -0.5436 O   0  5  0  0  0  0  0  0  0  0  0  0
   68.8280   13.6954    3.7782 O   0  5  0  0  0  0  0  0  0  0  0  0
   71.3853    4.5740    1.1752 C   0  0  1  0  0  0  0  0  0  0  0  0
   72.1785    4.1154    2.1341 N   0  0  0  0  0  0  0  0  0  0  0  0
   65.6788   12.5823    0.5827 O   0  0  0  0  0  0  0  0  0  0  0  0
   67.4094   14.2172   -0.4648 O   0  0  0  0  0  0  0  0  0  0  0  0
   68.2489   15.3793    1.9402 O   0  0  0  0  0  0  0  0  0  0  0  0
   70.2088    5.1108    1.4889 N   0  0  0  0  0  0  0  0  0  0  0  0
   67.6845   11.7553   -0.6148 O   0  0  0  0  0  0  0  0  0  0  0  0
   68.2972   12.9417    1.4721 O   0  0  0  0  0  0  0  0  0  0  0  0
   70.4347   14.1572    1.9157 O   0  0  0  0  0  0  0  0  0  0  0  0
   69.5321    5.5304    0.3950 C   0  0  2  0  0  0  0  0  0  0  0  0
   69.9300    5.4533   -0.9300 C   0  0  2  0  0  0  0  0  0  0  0  0
   71.1856    4.8792   -1.2465 C   0  0  1  0  0  0  0  0  0  0  0  0
   71.7065    4.7511   -2.3464 O   0  0  0  0  0  0  0  0  0  0  0  0
   68.9559    5.9960   -1.7749 N   0  0  0  0  0  0  0  0  0  0  0  0
   68.0521    6.3588   -0.9244 C   0  0  0  0  0  0  0  0  0  0  0  0
   68.2942    6.1285    0.3901 N   0  0  0  0  0  0  0  0  0  0  0  0
  1  5  1  1  0  0  0
  1 14  1  0  0  0  0
  1 19  2  0  0  0  0
  2 15  1  6  0  0  0
  2 20  2  0  0  0  0
  2 23  1  0  0  0  0
  3 16  1  1  0  0  0
  3 21  2  0  0  0  0
  3 24  1  0  0  0  0
  3 25  1  0  0  0  0
  4  6  1  0  0  0  0
  5  4  1  0  0  0  0
  6  7  1  0  0  0  0
  6  8  2  0  0  0  0
  7 12  1  0  0  0  0
  8  9  1  0  0  0  0
  8 10  1  0  0  0  0
 10 11  1  0  0  0  0
 10 12  2  0  0  0  0
 12 32  1  0  0  0  0
 13 17  1  0  0  0  0
 17 18  1  1  0  0  0
 17 22  1  0  0  0  0
 23  1  1  0  0  0  0
 24  2  1  0  0  0  0
 26 22  1  1  0  0  0
 27 26  1  0  0  0  0
 27 28  1  0  0  0  0
 27 30  1  1  0  0  0
 28 13  1  0  0  0  0
 28 29  1  1  0  0  0
 31 30  1  0  0  0  0
 32 26  1  0  0  0  0
 32 31  1  0  0  0  0
M  CHG  3  14  -1  15  -1  16  -1
M  END
>  <CHROM.1>
164.02186456,-176.05457683,-176.69851108,45.39446876,172.73220337,156.06822356
-125.34240469,64.73338785,68.45209865,9.52516988,0.84125096,3.06013360,-1.31888921
1.55084624

>  <Name>
2au4_lig

>  <RI>
0

>  <Rbt.Current_Directory>
/home/itssahil/PROJECTS/Mol_Feturizer/New_Systems/rnas/2au4

>  <Rbt.Executable>
rbdock ($Id: //depot/dev/client3/rdock/2013.1/src/exe/rbdock.cxx#4 $)

>  <Rbt.Library>
libRbt.so (2013.1, Build901 2013/11/27)

>  <Rbt.Parameter_File>
/export/apps/rDock/src/rDock_2013.1_src/data/scripts/dock_solv.prm

>  <Rbt.Receptor>
prm/pocket_docking_6.prm

>  <SCORE>
-46.0768

>  <SCORE.INTER>
-20.5876

>  <SCORE.INTER.CONST>
1

>  <SCORE.INTER.POLAR>
-1.249

>  <SCORE.INTER.ROT>
8

>  <SCORE.INTER.SOLV>
31.9948

>  <SCORE.INTER.VDW>
-29.16

>  <SCORE.INTER.norm>
-0.643363

>  <SCORE.INTRA>
-25.4918

>  <SCORE.INTRA.DIHEDRAL>
-47.6083

>  <SCORE.INTRA.DIHEDRAL.0>
76.3625

>  <SCORE.INTRA.POLAR>
0

>  <SCORE.INTRA.POLAR.0>
0

>  <SCORE.INTRA.REPUL>
-0.12705

>  <SCORE.INTRA.REPUL.0>
0.12705

>  <SCORE.INTRA.SOLV>
-5.66222

>  <SCORE.INTRA.SOLV.lig_0>
-119.383

>  <SCORE.INTRA.VDW>
1.77872

>  <SCORE.INTRA.VDW.0>
-5.10464

>  <SCORE.INTRA.norm>
-0.796618

>  <SCORE.RESTR>
0.00262307

>  <SCORE.RESTR.CAVITY>
0.00262307

>  <SCORE.RESTR.norm>
8.19711e-05

>  <SCORE.SYSTEM>
0

>  <SCORE.SYSTEM.CONST>
0

>  <SCORE.SYSTEM.DIHEDRAL>
0

>  <SCORE.SYSTEM.SOLV>
0

>  <SCORE.SYSTEM.norm>
0

>  <SCORE.heavy>
32

>  <SCORE.norm>
-1.4399

>  <RMSD>
4.432

$$$$
2au4_lig
 OpenBabel11021811423D
libRbt.so/2013.1/901 2013/11/27
 32 34  0  0  0  0  0  0  0  0999 V2000
   69.3744    8.4448    3.6134 P   0  0  1  0  0  0  0  0  0  0  0  0
   69.1520   10.7287    2.1629 P   0  0  1  0  0  0  0  0  0  0  0  0
   70.7543   12.0707    0.4101 P   0  0  2  0  0  0  0  0  0  0  0  0
   69.0006    6.1480    2.3424 C   0  0  0  0  0  0  0  0  0  0  0  0
   69.7943    6.9356    3.2454 O   0  0  0  0  0  0  0  0  0  0  0  0
   69.7633    4.9541    1.7872 C   0  0  0  0  0  0  0  0  0  0  0  0
   69.1110    4.4388    0.6085 O   0  0  0  0  0  0  0  0  0  0  0  0
   71.1830    5.3494    1.4117 C   0  0  0  0  0  0  0  0  0  0  0  0
   72.1393    4.6495    2.2170 O   0  0  0  0  0  0  0  0  0  0  0  0
   71.3508    5.0086   -0.0498 C   0  0  0  0  0  0  0  0  0  0  0  0
   72.4261    4.0807   -0.2464 O   0  0  0  0  0  0  0  0  0  0  0  0
   70.0308    4.4093   -0.5034 C   0  0  0  0  0  0  0  0  0  0  0  0
   65.9134    6.5996   -2.5807 N   0  0  0  0  0  0  0  0  0  0  0  0
   67.9321    8.4686    3.9294 O   0  5  0  0  0  0  0  0  0  0  0  0
   67.6875   10.8027    2.3290 O   0  5  0  0  0  0  0  0  0  0  0  0
   70.7158   12.5081   -1.0001 O   0  5  0  0  0  0  0  0  0  0  0  0
   66.0395    5.9416   -1.3804 C   0  0  1  0  0  0  0  0  0  0  0  0
   64.9411    5.8485   -0.6428 N   0  0  0  0  0  0  0  0  0  0  0  0
   70.3539    8.9849    4.5804 O   0  0  0  0  0  0  0  0  0  0  0  0
   70.0395   11.5012    3.0569 O   0  0  0  0  0  0  0  0  0  0  0  0
   71.9554   11.3931    0.9414 O   0  0  0  0  0  0  0  0  0  0  0  0
   67.1779    5.4088   -0.9435 N   0  0  0  0  0  0  0  0  0  0  0  0
   69.5842    9.2041    2.2351 O   0  0  0  0  0  0  0  0  0  0  0  0
   69.5040   11.1170    0.6627 O   0  0  0  0  0  0  0  0  0  0  0  0
   70.4278   13.3364    1.3440 O   0  0  0  0  0  0  0  0  0  0  0  0
   68.1940    5.5898   -1.8183 C   0  0  2  0  0  0  0  0  0  0  0  0
   68.1543    6.2375   -3.0426 C   0  0  2  0  0  0  0  0  0  0  0  0
   66.9342    6.7987   -3.4928 C   0  0  1  0  0  0  0  0  0  0  0  0
   66.7083    7.3791   -4.5462 O   0  0  0  0  0  0  0  0  0  0  0  0
   69.4105    6.2170   -3.6578 N   0  0  0  0  0  0  0  0  0  0  0  0
   70.1130    5.5716   -2.7850 C   0  0  0  0  0  0  0  0  0  0  0  0
   69.4877    5.1536   -1.6563 N   0  0  0  0  0  0  0  0  0  0  0  0
  1  5  1  6  0  0  0
  1 14  1  0  0  0  0
  1 19  2  0  0  0  0
  2 15  1  1  0  0  0
  2 20  2  0  0  0  0
  2 23  1  0  0  0  0
  3 16  1  6  0  0  0
  3 21  2  0  0  0  0
  3 24  1  0  0  0  0
  3 25  1  0  0  0  0
  4  6  1  0  0  0  0
  5  4  1  0  0  0  0
  6  7  1  0  0  0  0
  6  8  2  0  0  0  0
  7 12  1  0  0  0  0
  8  9  1  0  0  0  0
  8 10  1  0  0  0  0
 10 11  1  0  0  0  0
 10 12  2  0  0  0  0
 12 32  1  0  0  0  0
 13 17  1  0  0  0  0
 17 18  1  6  0  0  0
 17 22  1  0  0  0  0
 23  1  1  0  0  0  0
 24  2  1  0  0  0  0
 26 22  1  6  0  0  0
 27 26  1  0  0  0  0
 27 28  1  0  0  0  0
 27 30  1  6  0  0  0
 28 13  1  0  0  0  0
 28 29  1  6  0  0  0
 31 30  1  0  0  0  0
 32 26  1  0  0  0  0
 32 31  1  0  0  0  0
M  CHG  3  14  -1  15  -1  16  -1
M  END
>  <CHROM.1>
46.49134157,-65.42047691,-168.57797281,-162.39801588,161.92432506,-13.10937911
175.07811065,137.65415725,69.31131109,7.94954770,0.51902988,-1.00911146,1.12740314
-3.06653976

>  <Name>
2au4_lig

>  <RI>
0

>  <Rbt.Current_Directory>
/home/itssahil/PROJECTS/Mol_Feturizer/New_Systems/rnas/2au4

>  <Rbt.Executable>
rbdock ($Id: //depot/dev/client3/rdock/2013.1/src/exe/rbdock.cxx#4 $)

>  <Rbt.Library>
libRbt.so (2013.1, Build901 2013/11/27)

>  <Rbt.Parameter_File>
/export/apps/rDock/src/rDock_2013.1_src/data/scripts/dock_solv.prm

>  <Rbt.Receptor>
prm/pocket_docking_2.prm

>  <SCORE>
6.81068

>  <SCORE.INTER>
24.8838

>  <SCORE.INTER.CONST>
1

>  <SCORE.INTER.POLAR>
-1.83455

>  <SCORE.INTER.ROT>
8

>  <SCORE.INTER.SOLV>
30.4517

>  <SCORE.INTER.VDW>
3.62045

>  <SCORE.INTER.norm>
0.777619

>  <SCORE.INTRA>
-22.4031

>  <SCORE.INTRA.DIHEDRAL>
-43.2383

>  <SCORE.INTRA.DIHEDRAL.0>
76.3625

>  <SCORE.INTRA.POLAR>
0

>  <SCORE.INTRA.POLAR.0>
0

>  <SCORE.INTRA.REPUL>
0.0238694

>  <SCORE.INTRA.REPUL.0>
0.12705

>  <SCORE.INTRA.SOLV>
-6.03051

>  <SCORE.INTRA.SOLV.lig_0>
-119.383

>  <SCORE.INTRA.VDW>
2.11193

>  <SCORE.INTRA.VDW.0>
-5.10464

>  <SCORE.INTRA.norm>
-0.700097

>  <SCORE.RESTR>
4.33

>  <SCORE.RESTR.CAVITY>
4.33

>  <SCORE.RESTR.norm>
0.135312

>  <SCORE.SYSTEM>
0

>  <SCORE.SYSTEM.CONST>
0

>  <SCORE.SYSTEM.DIHEDRAL>
0

>  <SCORE.SYSTEM.SOLV>
0

>  <SCORE.SYSTEM.norm>
0

>  <SCORE.heavy>
32

>  <SCORE.norm>
0.212834

>  <RMSD>
4.446

$$$$
2au4_lig
 OpenBabel11021811423D
libRbt.so/2013.1/901 2013/11/27
 32 34  0  0  0  0  0  0  0  0999 V2000
   68.1736   10.6987   -0.4733 P   0  0  1  0  0  0  0  0  0  0  0  0
   69.9730   10.9396    1.5450 P   0  0  1  0  0  0  0  0  0  0  0  0
   72.1715   12.1807    0.5122 P   0  0  2  0  0  0  0  0  0  0  0  0
   65.8116   10.2759    0.6550 C   0  0  0  0  0  0  0  0  0  0  0  0
   66.6578   10.1592   -0.5009 O   0  0  0  0  0  0  0  0  0  0  0  0
   65.8320    9.0241    1.5199 C   0  0  0  0  0  0  0  0  0  0  0  0
   65.2628    7.9062    0.8082 O   0  0  0  0  0  0  0  0  0  0  0  0
   67.2564    8.6639    1.9121 C   0  0  0  0  0  0  0  0  0  0  0  0
   67.4353    8.7539    3.3308 O   0  0  0  0  0  0  0  0  0  0  0  0
   67.4924    7.2546    1.4236 C   0  0  0  0  0  0  0  0  0  0  0  0
   67.8393    6.3809    2.5064 O   0  0  0  0  0  0  0  0  0  0  0  0
   66.1991    6.8088    0.7633 C   0  0  0  0  0  0  0  0  0  0  0  0
   69.5118    4.7256   -2.5158 N   0  0  0  0  0  0  0  0  0  0  0  0
   69.0589    9.6430   -1.0048 O   0  5  0  0  0  0  0  0  0  0  0  0
   70.0122   11.6287    2.8495 O   0  5  0  0  0  0  0  0  0  0  0  0
   72.5118   12.5734    1.8947 O   0  5  0  0  0  0  0  0  0  0  0  0
   69.6604    4.9890   -1.1749 C   0  0  1  0  0  0  0  0  0  0  0  0
   70.8294    4.6657   -0.6383 N   0  0  0  0  0  0  0  0  0  0  0  0
   68.2026   12.0553   -1.0606 O   0  0  0  0  0  0  0  0  0  0  0  0
   70.5919    9.6065    1.3919 O   0  0  0  0  0  0  0  0  0  0  0  0
   72.5186   13.0702   -0.6158 O   0  0  0  0  0  0  0  0  0  0  0  0
   68.7140    5.5396   -0.4187 N   0  0  0  0  0  0  0  0  0  0  0  0
   68.4591   10.8372    1.0822 O   0  0  0  0  0  0  0  0  0  0  0  0
   70.6040   11.9049    0.4519 O   0  0  0  0  0  0  0  0  0  0  0  0
   72.7969   10.7286    0.2276 O   0  0  0  0  0  0  0  0  0  0  0  0
   67.5912    5.8098   -1.1237 C   0  0  2  0  0  0  0  0  0  0  0  0
   67.3582    5.5777   -2.4696 C   0  0  2  0  0  0  0  0  0  0  0  0
   68.3766    4.9912   -3.2604 C   0  0  1  0  0  0  0  0  0  0  0  0
   68.3576    4.7381   -4.4575 O   0  0  0  0  0  0  0  0  0  0  0  0
   66.0731    5.9953   -2.8319 N   0  0  0  0  0  0  0  0  0  0  0  0
   65.6224    6.4438   -1.7060 C   0  0  0  0  0  0  0  0  0  0  0  0
   66.4431    6.3809   -0.6280 N   0  0  0  0  0  0  0  0  0  0  0  0
  1  5  1  6  0  0  0
  1 14  1  0  0  0  0
  1 19  2  0  0  0  0
  2 15  1  1  0  0  0
  2 20  2  0  0  0  0
  2 23  1  0  0  0  0
  3 16  1  1  0  0  0
  3 21  2  0  0  0  0
  3 24  1  0  0  0  0
  3 25  1  0  0  0  0
  4  6  1  0  0  0  0
  5  4  1  0  0  0  0
  6  7  1  0  0  0  0
  6  8  2  0  0  0  0
  7 12  1  0  0  0  0
  8  9  1  0  0  0  0
  8 10  1  0  0  0  0
 10 11  1  0  0  0  0
 10 12  2  0  0  0  0
 12 32  1  0  0  0  0
 13 17  1  0  0  0  0
 17 18  1  6  0  0  0
 17 22  1  0  0  0  0
 23  1  1  0  0  0  0
 24  2  1  0  0  0  0
 26 22  1  6  0  0  0
 27 26  1  0  0  0  0
 27 28  1  0  0  0  0
 27 30  1  6  0  0  0
 28 13  1  0  0  0  0
 28 29  1  6  0  0  0
 31 30  1  0  0  0  0
 32 26  1  0  0  0  0
 32 31  1  0  0  0  0
M  CHG  3  14  -1  15  -1  16  -1
M  END
>  <CHROM.1>
131.29400181,155.59451513,-50.35464960,-65.26024070,-94.12388946,151.10831130
162.57931963,69.90388044,68.77017680,8.85961101,0.01792863,1.04302398,0.36977207
0.58931900

>  <Name>
2au4_lig

>  <RI>
0

>  <Rbt.Current_Directory>
/home/itssahil/PROJECTS/Mol_Feturizer/New_Systems/rnas/2au4

>  <Rbt.Executable>
rbdock ($Id: //depot/dev/client3/rdock/2013.1/src/exe/rbdock.cxx#4 $)

>  <Rbt.Library>
libRbt.so (2013.1, Build901 2013/11/27)

>  <Rbt.Parameter_File>
/export/apps/rDock/src/rDock_2013.1_src/data/scripts/dock_solv.prm

>  <Rbt.Receptor>
prm/pocket_docking_2.prm

>  <SCORE>
-35.2654

>  <SCORE.INTER>
-14.1959

>  <SCORE.INTER.CONST>
1

>  <SCORE.INTER.POLAR>
-0.613903

>  <SCORE.INTER.ROT>
8

>  <SCORE.INTER.SOLV>
25.1597

>  <SCORE.INTER.VDW>
-24.7375

>  <SCORE.INTER.norm>
-0.443621

>  <SCORE.INTRA>
-22.9315

>  <SCORE.INTRA.DIHEDRAL>
-43.6228

>  <SCORE.INTRA.DIHEDRAL.0>
76.3625

>  <SCORE.INTRA.POLAR>
0

>  <SCORE.INTRA.POLAR.0>
0

>  <SCORE.INTRA.REPUL>
-0.12705

>  <SCORE.INTRA.REPUL.0>
0.12705

>  <SCORE.INTRA.SOLV>
-1.17762

>  <SCORE.INTRA.SOLV.lig_0>
-119.383

>  <SCORE.INTRA.VDW>
0.104

>  <SCORE.INTRA.VDW.0>
-5.10464

>  <SCORE.INTRA.norm>
-0.716609

>  <SCORE.RESTR>
1.86191

>  <SCORE.RESTR.CAVITY>
1.86191

>  <SCORE.RESTR.norm>
0.0581846

>  <SCORE.SYSTEM>
0

>  <SCORE.SYSTEM.CONST>
0

>  <SCORE.SYSTEM.DIHEDRAL>
0

>  <SCORE.SYSTEM.SOLV>
0

>  <SCORE.SYSTEM.norm>
0

>  <SCORE.heavy>
32

>  <SCORE.norm>
-1.10204

>  <RMSD>
4.460

$$$$
2au4_lig
 OpenBabel11021811423D
libRbt.so/2013.1/901 2013/11/27
 32 34  0  0  0  0  0  0  0  0999 V2000
   68.4841   11.5470   -0.3589 P   0  0  1  0  0  0  0  0  0  0  0  0
   70.1760   11.1362    1.7239 P   0  0  1  0  0  0  0  0  0  0  0  0
   72.6157   12.2274    1.1783 P   0  0  2  0  0  0  0  0  0  0  0  0
   66.6597   10.0463    0.8451 C   0  0  0  0  0  0  0  0  0  0  0  0
   67.9848   10.1674    0.3021 O   0  0  0  0  0  0  0  0  0  0  0  0
   66.4805    8.7768    1.6648 C   0  0  0  0  0  0  0  0  0  0  0  0
   65.7736    7.7766    0.9032 O   0  0  0  0  0  0  0  0  0  0  0  0
   67.8292    8.2025    2.0697 C   0  0  0  0  0  0  0  0  0  0  0  0
   67.9861    8.2192    3.4938 O   0  0  0  0  0  0  0  0  0  0  0  0
   67.8720    6.7908    1.5353 C   0  0  0  0  0  0  0  0  0  0  0  0
   68.0651    5.8412    2.5922 O   0  0  0  0  0  0  0  0  0  0  0  0
   66.5439    6.5578    0.8361 C   0  0  0  0  0  0  0  0  0  0  0  0
   69.7449    4.4218   -2.5192 N   0  0  0  0  0  0  0  0  0  0  0  0
   68.6450   11.3416   -1.8125 O   0  5  0  0  0  0  0  0  0  0  0  0
   69.0245   11.5013    2.5718 O   0  5  0  0  0  0  0  0  0  0  0  0
   72.1578   13.2671    0.2346 O   0  5  0  0  0  0  0  0  0  0  0  0
   69.9188    4.6581   -1.1762 C   0  0  1  0  0  0  0  0  0  0  0  0
   71.0831    4.2878   -0.6602 N   0  0  0  0  0  0  0  0  0  0  0  0
   67.6334   12.6467    0.1444 O   0  0  0  0  0  0  0  0  0  0  0  0
   70.5749    9.7202    1.5849 O   0  0  0  0  0  0  0  0  0  0  0  0
   73.0779   10.9191    0.6697 O   0  0  0  0  0  0  0  0  0  0  0  0
   69.0006    5.2268   -0.3989 N   0  0  0  0  0  0  0  0  0  0  0  0
   69.9302   11.7249    0.2715 O   0  0  0  0  0  0  0  0  0  0  0  0
   71.4416   11.9588    2.2205 O   0  0  0  0  0  0  0  0  0  0  0  0
   73.7718   12.8528    2.1018 O   0  0  0  0  0  0  0  0  0  0  0  0
   67.8787    5.5451   -1.0848 C   0  0  2  0  0  0  0  0  0  0  0  0
   67.6213    5.3431   -2.4312 C   0  0  2  0  0  0  0  0  0  0  0  0
   68.6098    4.7367   -3.2445 C   0  0  1  0  0  0  0  0  0  0  0  0
   68.5675    4.5043   -4.4452 O   0  0  0  0  0  0  0  0  0  0  0  0
   66.3462    5.8085   -2.7698 N   0  0  0  0  0  0  0  0  0  0  0  0
   65.9246    6.2529   -1.6311 C   0  0  0  0  0  0  0  0  0  0  0  0
   66.7563    6.1453   -0.5650 N   0  0  0  0  0  0  0  0  0  0  0  0
  1  5  1  1  0  0  0
  1 14  1  0  0  0  0
  1 19  2  0  0  0  0
  2 15  1  1  0  0  0
  2 20  2  0  0  0  0
  2 23  1  0  0  0  0
  3 16  1  6  0  0  0
  3 21  2  0  0  0  0
  3 24  1  0  0  0  0
  3 25  1  0  0  0  0
  4  6  1  0  0  0  0
  5  4  1  0  0  0  0
  6  7  1  0  0  0  0
  6  8  2  0  0  0  0
  7 12  1  0  0  0  0
  8  9  1  0  0  0  0
  8 10  1  0  0  0  0
 10 11  1  0  0  0  0
 10 12  2  0  0  0  0
 12 32  1  0  0  0  0
 13 17  1  0  0  0  0
 17 18  1  6  0  0  0
 17 22  1  0  0  0  0
 23  1  1  0  0  0  0
 24  2  1  0  0  0  0
 26 22  1  6  0  0  0
 27 26  1  0  0  0  0
 27 28  1  0  0  0  0
 27 30  1  6  0  0  0
 28 13  1  0  0  0  0
 28 29  1  6  0  0  0
 31 30  1  0  0  0  0
 32 26  1  0  0  0  0
 32 31  1  0  0  0  0
M  CHG  3  14  -1  15  -1  16  -1
M  END
>  <CHROM.1>
-111.41272119,-44.53177941,74.30782050,-101.75953623,-168.39616073,144.36758729
-30.46327232,-155.37540901,69.10211549,8.89091382,0.22179019,1.12996166,0.26501815
0.50638080

>  <Name>
2au4_lig

>  <RI>
0

>  <Rbt.Current_Directory>
/home/itssahil/PROJECTS/Mol_Feturizer/New_Systems/rnas/2au4

>  <Rbt.Executable>
rbdock ($Id: //depot/dev/client3/rdock/2013.1/src/exe/rbdock.cxx#4 $)

>  <Rbt.Library>
libRbt.so (2013.1, Build901 2013/11/27)

>  <Rbt.Parameter_File>
/export/apps/rDock/src/rDock_2013.1_src/data/scripts/dock_solv.prm

>  <Rbt.Receptor>
prm/pocket_docking_3.prm

>  <SCORE>
-43.5896

>  <SCORE.INTER>
-20.551

>  <SCORE.INTER.CONST>
1

>  <SCORE.INTER.POLAR>
-1.96489

>  <SCORE.INTER.ROT>
8

>  <SCORE.INTER.SOLV>
28.061

>  <SCORE.INTER.VDW>
-25.4381

>  <SCORE.INTER.norm>
-0.64222

>  <SCORE.INTRA>
-23.0432

>  <SCORE.INTRA.DIHEDRAL>
-45.6833

>  <SCORE.INTRA.DIHEDRAL.0>
76.3625

>  <SCORE.INTRA.POLAR>
0

>  <SCORE.INTRA.POLAR.0>
0

>  <SCORE.INTRA.REPUL>
-0.12705

>  <SCORE.INTRA.REPUL.0>
0.12705

>  <SCORE.INTRA.SOLV>
-1.94002

>  <SCORE.INTRA.SOLV.lig_0>
-119.383

>  <SCORE.INTRA.VDW>
1.40366

>  <SCORE.INTRA.VDW.0>
-5.10464

>  <SCORE.INTRA.norm>
-0.720101

>  <SCORE.RESTR>
0.00465681

>  <SCORE.RESTR.CAVITY>
0.00465681

>  <SCORE.RESTR.norm>
0.000145525

>  <SCORE.SYSTEM>
0

>  <SCORE.SYSTEM.CONST>
0

>  <SCORE.SYSTEM.DIHEDRAL>
0

>  <SCORE.SYSTEM.SOLV>
0

>  <SCORE.SYSTEM.norm>
0

>  <SCORE.heavy>
32

>  <SCORE.norm>
-1.36218

>  <RMSD>
4.478

$$$$
2au4_lig
 OpenBabel11021811423D
libRbt.so/2013.1/901 2013/11/27
 32 34  0  0  0  0  0  0  0  0999 V2000
   67.5892   10.7761    0.8151 P   0  0  1  0  0  0  0  0  0  0  0  0
   69.8021   12.3467    0.8913 P   0  0  1  0  0  0  0  0  0  0  0  0
   72.3497   11.3924    0.6919 P   0  0  2  0  0  0  0  0  0  0  0  0
   66.9509    8.2724    1.4107 C   0  0  0  0  0  0  0  0  0  0  0  0
   67.8203    9.3987    1.6144 O   0  0  0  0  0  0  0  0  0  0  0  0
   67.5571    6.9708    1.9145 C   0  0  0  0  0  0  0  0  0  0  0  0
   67.4191    5.9304    0.9253 O   0  0  0  0  0  0  0  0  0  0  0  0
   69.0369    7.1476    2.2169 C   0  0  0  0  0  0  0  0  0  0  0  0
   69.3016    6.9517    3.6114 O   0  0  0  0  0  0  0  0  0  0  0  0
   69.7708    6.1298    1.3769 C   0  0  0  0  0  0  0  0  0  0  0  0
   70.5434    5.2411    2.1951 O   0  0  0  0  0  0  0  0  0  0  0  0
   68.7085    5.3665    0.6049 C   0  0  0  0  0  0  0  0  0  0  0  0
   66.6835    5.9799   -4.0416 N   0  0  0  0  0  0  0  0  0  0  0  0
   68.1525   10.6330   -0.5424 O   0  5  0  0  0  0  0  0  0  0  0  0
   69.4854   12.5403   -0.5371 O   0  5  0  0  0  0  0  0  0  0  0  0
   72.4301   12.0329   -0.6365 O   0  5  0  0  0  0  0  0  0  0  0  0
   66.0650    5.9763   -2.8139 C   0  0  1  0  0  0  0  0  0  0  0  0
   64.7505    6.1521   -2.8175 N   0  0  0  0  0  0  0  0  0  0  0  0
   66.1825   11.1951    0.9934 O   0  0  0  0  0  0  0  0  0  0  0  0
   70.3352   13.4690    1.6911 O   0  0  0  0  0  0  0  0  0  0  0  0
   73.0908   10.1413    0.9555 O   0  0  0  0  0  0  0  0  0  0  0  0
   66.7074    5.8060   -1.6611 N   0  0  0  0  0  0  0  0  0  0  0  0
   68.5044   11.7951    1.6179 O   0  0  0  0  0  0  0  0  0  0  0  0
   70.8133   11.1273    1.0171 O   0  0  0  0  0  0  0  0  0  0  0  0
   72.7647   12.4748    1.8041 O   0  0  0  0  0  0  0  0  0  0  0  0
   68.0379    5.6363   -1.8393 C   0  0  2  0  0  0  0  0  0  0  0  0
   68.7394    5.6265   -3.0341 C   0  0  2  0  0  0  0  0  0  0  0  0
   68.0400    5.8088   -4.2523 C   0  0  1  0  0  0  0  0  0  0  0  0
   68.4860    5.8053   -5.3919 O   0  0  0  0  0  0  0  0  0  0  0  0
   70.1047    5.4213   -2.8084 N   0  0  0  0  0  0  0  0  0  0  0  0
   70.1394    5.3216   -1.5197 C   0  0  0  0  0  0  0  0  0  0  0  0
   68.9672    5.4343   -0.8465 N   0  0  0  0  0  0  0  0  0  0  0  0
  1  5  1  1  0  0  0
  1 14  1  0  0  0  0
  1 19  2  0  0  0  0
  2 15  1  6  0  0  0
  2 20  2  0  0  0  0
  2 23  1  0  0  0  0
  3 16  1  6  0  0  0
  3 21  2  0  0  0  0
  3 24  1  0  0  0  0
  3 25  1  0  0  0  0
  4  6  1  0  0  0  0
  5  4  1  0  0  0  0
  6  7  1  0  0  0  0
  6  8  2  0  0  0  0
  7 12  1  0  0  0  0
  8  9  1  0  0  0  0
  8 10  1  0  0  0  0
 10 11  1  0  0  0  0
 10 12  2  0  0  0  0
 12 32  1  0  0  0  0
 13 17  1  0  0  0  0
 17 18  1  6  0  0  0
 17 22  1  0  0  0  0
 23  1  1  0  0  0  0
 24  2  1  0  0  0  0
 26 22  1  6  0  0  0
 27 26  1  0  0  0  0
 27 28  1  0  0  0  0
 27 30  1  6  0  0  0
 28 13  1  0  0  0  0
 28 29  1  6  0  0  0
 31 30  1  0  0  0  0
 32 26  1  0  0  0  0
 32 31  1  0  0  0  0
M  CHG  3  14  -1  15  -1  16  -1
M  END
>  <CHROM.1>
-80.14098081,36.78267247,-52.23573029,-132.63439602,162.81434260,-17.28942894
110.84009824,79.00259392,69.06713376,8.71731957,-0.05963922,1.00058274,-0.78001248
0.06044480

>  <Name>
2au4_lig

>  <RI>
0

>  <Rbt.Current_Directory>
/home/itssahil/PROJECTS/Mol_Feturizer/New_Systems/rnas/2au4

>  <Rbt.Executable>
rbdock ($Id: //depot/dev/client3/rdock/2013.1/src/exe/rbdock.cxx#4 $)

>  <Rbt.Library>
libRbt.so (2013.1, Build901 2013/11/27)

>  <Rbt.Parameter_File>
/export/apps/rDock/src/rDock_2013.1_src/data/scripts/dock_solv.prm

>  <Rbt.Receptor>
prm/pocket_docking_2.prm

>  <SCORE>
-17.7557

>  <SCORE.INTER>
-0.881048

>  <SCORE.INTER.CONST>
1

>  <SCORE.INTER.POLAR>
0

>  <SCORE.INTER.ROT>
8

>  <SCORE.INTER.SOLV>
32.635

>  <SCORE.INTER.VDW>
-20.399

>  <SCORE.INTER.norm>
-0.0275327

>  <SCORE.INTRA>
-20.8107

>  <SCORE.INTRA.DIHEDRAL>
-44.485

>  <SCORE.INTRA.DIHEDRAL.0>
76.3625

>  <SCORE.INTRA.POLAR>
0

>  <SCORE.INTRA.POLAR.0>
0

>  <SCORE.INTRA.REPUL>
0.0521275

>  <SCORE.INTRA.REPUL.0>
0.12705

>  <SCORE.INTRA.SOLV>
-6.1329

>  <SCORE.INTRA.SOLV.lig_0>
-119.383

>  <SCORE.INTRA.VDW>
4.23759

>  <SCORE.INTRA.VDW.0>
-5.10464

>  <SCORE.INTRA.norm>
-0.650335

>  <SCORE.RESTR>
3.9361

>  <SCORE.RESTR.CAVITY>
3.9361

>  <SCORE.RESTR.norm>
0.123003

>  <SCORE.SYSTEM>
0

>  <SCORE.SYSTEM.CONST>
0

>  <SCORE.SYSTEM.DIHEDRAL>
0

>  <SCORE.SYSTEM.SOLV>
0

>  <SCORE.SYSTEM.norm>
0

>  <SCORE.heavy>
32

>  <SCORE.norm>
-0.554865

>  <RMSD>
4.499

$$$$
2au4_lig
 OpenBabel11021811423D
libRbt.so/2013.1/901 2013/11/27
 32 34  0  0  0  0  0  0  0  0999 V2000
   68.1478    7.0192    2.4561 P   0  0  1  0  0  0  0  0  0  0  0  0
   69.1333    9.3936    1.5842 P   0  0  1  0  0  0  0  0  0  0  0  0
   66.5649   10.2902    1.3840 P   0  0  2  0  0  0  0  0  0  0  0  0
   70.1874    5.5210    1.6651 C   0  0  0  0  0  0  0  0  0  0  0  0
   69.0507    6.3288    1.3171 O   0  0  0  0  0  0  0  0  0  0  0  0
   70.5540    4.5298    0.5703 C   0  0  0  0  0  0  0  0  0  0  0  0
   69.4267    4.2924   -0.2975 O   0  0  0  0  0  0  0  0  0  0  0  0
   71.7020    5.0605   -0.2742 C   0  0  0  0  0  0  0  0  0  0  0  0
   72.8583    4.2235   -0.1504 O   0  0  0  0  0  0  0  0  0  0  0  0
   71.2059    5.0936   -1.7001 C   0  0  0  0  0  0  0  0  0  0  0  0
   72.0261    4.2849   -2.5541 O   0  0  0  0  0  0  0  0  0  0  0  0
   69.7798    4.5715   -1.6689 C   0  0  0  0  0  0  0  0  0  0  0  0
   65.2916    6.9663   -1.2365 N   0  0  0  0  0  0  0  0  0  0  0  0
   66.8500    7.3988    1.8625 O   0  5  0  0  0  0  0  0  0  0  0  0
   69.2956   10.7378    2.1714 O   0  5  0  0  0  0  0  0  0  0  0  0
   66.9050   11.6758    1.0024 O   0  5  0  0  0  0  0  0  0  0  0  0
   65.8645    6.0306   -0.4082 C   0  0  1  0  0  0  0  0  0  0  0  0
   65.1618    5.6839    0.6618 N   0  0  0  0  0  0  0  0  0  0  0  0
   68.1891    6.1736    3.6684 O   0  0  0  0  0  0  0  0  0  0  0  0
   70.1536    8.8614    0.6572 O   0  0  0  0  0  0  0  0  0  0  0  0
   66.3156    9.9537    2.8013 O   0  0  0  0  0  0  0  0  0  0  0  0
   67.0528    5.4740   -0.6292 N   0  0  0  0  0  0  0  0  0  0  0  0
   68.9505    8.3529    2.7674 O   0  0  0  0  0  0  0  0  0  0  0  0
   67.7239    9.3359    0.8524 O   0  0  0  0  0  0  0  0  0  0  0  0
   65.2959    9.8213    0.5179 O   0  0  0  0  0  0  0  0  0  0  0  0
   67.6289    5.9358   -1.7630 C   0  0  2  0  0  0  0  0  0  0  0  0
   67.1244    6.8730   -2.6501 C   0  0  2  0  0  0  0  0  0  0  0  0
   65.8576    7.4554   -2.4001 C   0  0  1  0  0  0  0  0  0  0  0  0
   65.2501    8.2723   -3.0790 O   0  0  0  0  0  0  0  0  0  0  0  0
   68.0151    7.0884   -3.7071 N   0  0  0  0  0  0  0  0  0  0  0  0
   68.9794    6.2844   -3.3977 C   0  0  0  0  0  0  0  0  0  0  0  0
   68.8510    5.5527   -2.2628 N   0  0  0  0  0  0  0  0  0  0  0  0
  1  5  1  6  0  0  0
  1 14  1  0  0  0  0
  1 19  2  0  0  0  0
  2 15  1  1  0  0  0
  2 20  2  0  0  0  0
  2 23  1  0  0  0  0
  3 16  1  6  0  0  0
  3 21  2  0  0  0  0
  3 24  1  0  0  0  0
  3 25  1  0  0  0  0
  4  6  1  0  0  0  0
  5  4  1  0  0  0  0
  6  7  1  0  0  0  0
  6  8  2  0  0  0  0
  7 12  1  0  0  0  0
  8  9  1  0  0  0  0
  8 10  1  0  0  0  0
 10 11  1  0  0  0  0
 10 12  2  0  0  0  0
 12 32  1  0  0  0  0
 13 17  1  0  0  0  0
 17 18  1  6  0  0  0
 17 22  1  0  0  0  0
 23  1  1  0  0  0  0
 24  2  1  0  0  0  0
 26 22  1  6  0  0  0
 27 26  1  0  0  0  0
 27 28  1  0  0  0  0
 27 30  1  6  0  0  0
 28 13  1  0  0  0  0
 28 29  1  6  0  0  0
 31 30  1  0  0  0  0
 32 26  1  0  0  0  0
 32 31  1  0  0  0  0
M  CHG  3  14  -1  15  -1  16  -1
M  END
>  <CHROM.1>
-161.91689494,153.57883139,71.66140509,-21.29439168,156.58358829,-15.09070194
61.64289549,-27.11071197,68.24183783,7.28481705,0.18809590,-2.25482205,0.58620982
-2.18396359

>  <Name>
2au4_lig

>  <RI>
0

>  <Rbt.Current_Directory>
/home/itssahil/PROJECTS/Mol_Feturizer/New_Systems/rnas/2au4

>  <Rbt.Executable>
rbdock ($Id: //depot/dev/client3/rdock/2013.1/src/exe/rbdock.cxx#4 $)

>  <Rbt.Library>
libRbt.so (2013.1, Build901 2013/11/27)

>  <Rbt.Parameter_File>
/export/apps/rDock/src/rDock_2013.1_src/data/scripts/dock_solv.prm

>  <Rbt.Receptor>
prm/pocket_docking_2.prm

>  <SCORE>
-27.7628

>  <SCORE.INTER>
-12.4209

>  <SCORE.INTER.CONST>
1

>  <SCORE.INTER.POLAR>
-1.45755

>  <SCORE.INTER.ROT>
8

>  <SCORE.INTER.SOLV>
30.9193

>  <SCORE.INTER.VDW>
-22.6619

>  <SCORE.INTER.norm>
-0.388152

>  <SCORE.INTRA>
-18.6819

>  <SCORE.INTRA.DIHEDRAL>
-43.2838

>  <SCORE.INTRA.DIHEDRAL.0>
76.3625

>  <SCORE.INTRA.POLAR>
0

>  <SCORE.INTRA.POLAR.0>
0

>  <SCORE.INTRA.REPUL>
0.038818

>  <SCORE.INTRA.REPUL.0>
0.12705

>  <SCORE.INTRA.SOLV>
5.6242

>  <SCORE.INTRA.SOLV.lig_0>
-119.383

>  <SCORE.INTRA.VDW>
-0.0462169

>  <SCORE.INTRA.VDW.0>
-5.10464

>  <SCORE.INTRA.norm>
-0.58381

>  <SCORE.RESTR>
3.34002

>  <SCORE.RESTR.CAVITY>
3.34002

>  <SCORE.RESTR.norm>
0.104375

>  <SCORE.SYSTEM>
0

>  <SCORE.SYSTEM.CONST>
0

>  <SCORE.SYSTEM.DIHEDRAL>
0

>  <SCORE.SYSTEM.SOLV>
0

>  <SCORE.SYSTEM.norm>
0

>  <SCORE.heavy>
32

>  <SCORE.norm>
-0.867587

>  <RMSD>
4.539

$$$$
2au4_lig
 OpenBabel11021811423D
libRbt.so/2013.1/901 2013/11/27
 32 34  0  0  0  0  0  0  0  0999 V2000
   68.2088   11.5036   -0.8492 P   0  0  1  0  0  0  0  0  0  0  0  0
   69.4895   12.9976    1.0209 P   0  0  1  0  0  0  0  0  0  0  0  0
   72.0839   12.8458    1.8494 P   0  0  2  0  0  0  0  0  0  0  0  0
   66.6575    9.6893    0.3051 C   0  0  0  0  0  0  0  0  0  0  0  0
   67.9095   10.3946    0.2778 O   0  0  0  0  0  0  0  0  0  0  0  0
   66.4986    8.8339    1.5534 C   0  0  0  0  0  0  0  0  0  0  0  0
   66.5287    7.4321    1.2152 O   0  0  0  0  0  0  0  0  0  0  0  0
   67.6210    9.1099    2.5417 C   0  0  0  0  0  0  0  0  0  0  0  0
   67.1076    9.6706    3.7561 O   0  0  0  0  0  0  0  0  0  0  0  0
   68.3004    7.7862    2.7997 C   0  0  0  0  0  0  0  0  0  0  0  0
   68.2584    7.4435    4.1914 O   0  0  0  0  0  0  0  0  0  0  0  0
   67.5581    6.7551    1.9671 C   0  0  0  0  0  0  0  0  0  0  0  0
   68.3314    4.9019   -2.7269 N   0  0  0  0  0  0  0  0  0  0  0  0
   68.5053   10.8143   -2.1211 O   0  5  0  0  0  0  0  0  0  0  0  0
   68.5005   14.0797    0.8502 O   0  5  0  0  0  0  0  0  0  0  0  0
   71.5867   12.5005    3.1965 O   0  5  0  0  0  0  0  0  0  0  0  0
   67.2377    5.5615   -2.2187 C   0  0  1  0  0  0  0  0  0  0  0  0
   66.2242    5.7493   -3.0533 N   0  0  0  0  0  0  0  0  0  0  0  0
   67.1478   12.5318   -0.7933 O   0  0  0  0  0  0  0  0  0  0  0  0
   69.3595   12.0447    2.1427 O   0  0  0  0  0  0  0  0  0  0  0  0
   73.3436   13.6036    1.6980 O   0  0  0  0  0  0  0  0  0  0  0  0
   67.1541    6.0017   -0.9656 N   0  0  0  0  0  0  0  0  0  0  0  0
   69.5543   12.1660   -0.3285 O   0  0  0  0  0  0  0  0  0  0  0  0
   70.9361   13.6511    1.0938 O   0  0  0  0  0  0  0  0  0  0  0  0
   72.1945   11.4952    0.9867 O   0  0  0  0  0  0  0  0  0  0  0  0
   68.2696    5.7233   -0.2523 C   0  0  2  0  0  0  0  0  0  0  0  0
   69.4110    5.0670   -0.6840 C   0  0  2  0  0  0  0  0  0  0  0  0
   69.4833    4.6046   -2.0209 C   0  0  1  0  0  0  0  0  0  0  0  0
   70.3917    3.9904   -2.5639 O   0  0  0  0  0  0  0  0  0  0  0  0
   70.3499    4.9692    0.3485 N   0  0  0  0  0  0  0  0  0  0  0  0
   69.7285    5.5592    1.3168 C   0  0  0  0  0  0  0  0  0  0  0  0
   68.4865    6.0438    1.0669 N   0  0  0  0  0  0  0  0  0  0  0  0
  1  5  1  1  0  0  0
  1 14  1  0  0  0  0
  1 19  2  0  0  0  0
  2 15  1  6  0  0  0
  2 20  2  0  0  0  0
  2 23  1  0  0  0  0
  3 16  1  1  0  0  0
  3 21  2  0  0  0  0
  3 24  1  0  0  0  0
  3 25  1  0  0  0  0
  4  6  1  0  0  0  0
  5  4  1  0  0  0  0
  6  7  1  0  0  0  0
  6  8  2  0  0  0  0
  7 12  1  0  0  0  0
  8  9  1  0  0  0  0
  8 10  1  0  0  0  0
 10 11  1  0  0  0  0
 10 12  2  0  0  0  0
 12 32  1  0  0  0  0
 13 17  1  0  0  0  0
 17 18  1  1  0  0  0
 17 22  1  0  0  0  0
 23  1  1  0  0  0  0
 24  2  1  0  0  0  0
 26 22  1  1  0  0  0
 27 26  1  0  0  0  0
 27 28  1  0  0  0  0
 27 30  1  1  0  0  0
 28 13  1  0  0  0  0
 28 29  1  1  0  0  0
 31 30  1  0  0  0  0
 32 26  1  0  0  0  0
 32 31  1  0  0  0  0
M  CHG  3  14  -1  15  -1  16  -1
M  END
>  <CHROM.1>
-75.65017123,-58.08063642,-52.97788207,-111.69409773,-171.94187747,-16.76078630
-66.73358658,155.22936425,68.98679339,9.41564004,0.51903406,1.05947227,-0.98794303
-0.15604639

>  <Name>
2au4_lig

>  <RI>
0

>  <Rbt.Current_Directory>
/home/itssahil/PROJECTS/Mol_Feturizer/New_Systems/rnas/2au4

>  <Rbt.Executable>
rbdock ($Id: //depot/dev/client3/rdock/2013.1/src/exe/rbdock.cxx#4 $)

>  <Rbt.Library>
libRbt.so (2013.1, Build901 2013/11/27)

>  <Rbt.Parameter_File>
/export/apps/rDock/src/rDock_2013.1_src/data/scripts/dock_solv.prm

>  <Rbt.Receptor>
prm/pocket_docking_3.prm

>  <SCORE>
-44.1443

>  <SCORE.INTER>
-20.1554

>  <SCORE.INTER.CONST>
1

>  <SCORE.INTER.POLAR>
-1.72391

>  <SCORE.INTER.ROT>
8

>  <SCORE.INTER.SOLV>
28.6412

>  <SCORE.INTER.VDW>
-26.1709

>  <SCORE.INTER.norm>
-0.629855

>  <SCORE.INTRA>
-24.1095

>  <SCORE.INTRA.DIHEDRAL>
-47.0935

>  <SCORE.INTRA.DIHEDRAL.0>
76.3625

>  <SCORE.INTRA.POLAR>
0

>  <SCORE.INTRA.POLAR.0>
0

>  <SCORE.INTRA.REPUL>
0.0492458

>  <SCORE.INTRA.REPUL.0>
0.12705

>  <SCORE.INTRA.SOLV>
-5.61185

>  <SCORE.INTRA.SOLV.lig_0>
-119.383

>  <SCORE.INTRA.VDW>
1.99696

>  <SCORE.INTRA.VDW.0>
-5.10464

>  <SCORE.INTRA.norm>
-0.753421

>  <SCORE.RESTR>
0.120567

>  <SCORE.RESTR.CAVITY>
0.120567

>  <SCORE.RESTR.norm>
0.00376773

>  <SCORE.SYSTEM>
0

>  <SCORE.SYSTEM.CONST>
0

>  <SCORE.SYSTEM.DIHEDRAL>
0

>  <SCORE.SYSTEM.SOLV>
0

>  <SCORE.SYSTEM.norm>
0

>  <SCORE.heavy>
32

>  <SCORE.norm>
-1.37951

>  <RMSD>
4.550

$$$$
2au4_lig
 OpenBabel11021811423D
libRbt.so/2013.1/901 2013/11/27
 32 34  0  0  0  0  0  0  0  0999 V2000
   66.9955   11.7952    1.7754 P   0  0  1  0  0  0  0  0  0  0  0  0
   66.5464   13.3273   -0.4202 P   0  0  1  0  0  0  0  0  0  0  0  0
   65.8138   15.4451   -1.9754 P   0  0  2  0  0  0  0  0  0  0  0  0
   67.2265    9.8846   -0.0485 C   0  0  0  0  0  0  0  0  0  0  0  0
   67.8612   10.8692    0.7843 O   0  0  0  0  0  0  0  0  0  0  0  0
   66.7630    8.6679    0.7389 C   0  0  0  0  0  0  0  0  0  0  0  0
   66.7180    7.5018   -0.1087 O   0  0  0  0  0  0  0  0  0  0  0  0
   67.7099    8.3812    1.8938 C   0  0  0  0  0  0  0  0  0  0  0  0
   67.0425    8.5314    3.1527 O   0  0  0  0  0  0  0  0  0  0  0  0
   68.2004    6.9656    1.7050 C   0  0  0  0  0  0  0  0  0  0  0  0
   67.8750    6.1479    2.8370 O   0  0  0  0  0  0  0  0  0  0  0  0
   67.5244    6.4427    0.4493 C   0  0  0  0  0  0  0  0  0  0  0  0
   72.1063    4.2947   -0.2281 N   0  0  0  0  0  0  0  0  0  0  0  0
   65.5898   11.3448    1.7329 O   0  5  0  0  0  0  0  0  0  0  0  0
   67.5527   12.7204   -1.3129 O   0  5  0  0  0  0  0  0  0  0  0  0
   66.2451   16.8422   -2.1840 O   0  5  0  0  0  0  0  0  0  0  0  0
   71.4513    4.6025    0.9406 C   0  0  1  0  0  0  0  0  0  0  0  0
   72.0888    4.3100    2.0663 N   0  0  0  0  0  0  0  0  0  0  0  0
   67.7037   11.8923    3.0697 O   0  0  0  0  0  0  0  0  0  0  0  0
   65.1471   12.8533   -0.4498 O   0  0  0  0  0  0  0  0  0  0  0  0
   64.3757   15.1245   -1.8617 O   0  0  0  0  0  0  0  0  0  0  0  0
   70.2467    5.1659    0.9886 N   0  0  0  0  0  0  0  0  0  0  0  0
   67.0738   13.2161    1.0718 O   0  0  0  0  0  0  0  0  0  0  0  0
   66.5409   14.8968   -0.6687 O   0  0  0  0  0  0  0  0  0  0  0  0
   66.4480   14.5380   -3.1397 O   0  0  0  0  0  0  0  0  0  0  0  0
   69.7442    5.4003   -0.2455 C   0  0  2  0  0  0  0  0  0  0  0  0
   70.3336    5.1227   -1.4683 C   0  0  2  0  0  0  0  0  0  0  0  0
   71.6165    4.5232   -1.5015 C   0  0  1  0  0  0  0  0  0  0  0  0
   72.2936    4.2319   -2.4783 O   0  0  0  0  0  0  0  0  0  0  0  0
   69.5012    5.5136   -2.5226 N   0  0  0  0  0  0  0  0  0  0  0  0
   68.4848    5.9926   -1.8828 C   0  0  0  0  0  0  0  0  0  0  0  0
   68.5268    5.9736   -0.5272 N   0  0  0  0  0  0  0  0  0  0  0  0
  1  5  1  6  0  0  0
  1 14  1  0  0  0  0
  1 19  2  0  0  0  0
  2 15  1  6  0  0  0
  2 20  2  0  0  0  0
  2 23  1  0  0  0  0
  3 16  1  6  0  0  0
  3 21  2  0  0  0  0
  3 24  1  0  0  0  0
  3 25  1  0  0  0  0
  4  6  1  0  0  0  0
  5  4  1  0  0  0  0
  6  7  1  0  0  0  0
  6  8  2  0  0  0  0
  7 12  1  0  0  0  0
  8  9  1  0  0  0  0
  8 10  1  0  0  0  0
 10 11  1  0  0  0  0
 10 12  2  0  0  0  0
 12 32  1  0  0  0  0
 13 17  1  0  0  0  0
 17 18  1  6  0  0  0
 17 22  1  0  0  0  0
 23  1  1  0  0  0  0
 24  2  1  0  0  0  0
 26 22  1  6  0  0  0
 27 26  1  0  0  0  0
 27 28  1  0  0  0  0
 27 30  1  6  0  0  0
 28 13  1  0  0  0  0
 28 29  1  6  0  0  0
 31 30  1  0  0  0  0
 32 26  1  0  0  0  0
 32 31  1  0  0  0  0
M  CHG  3  14  -1  15  -1  16  -1
M  END
>  <CHROM.1>
5.35233490,-75.45365859,-164.84417623,-153.43387376,-73.97637242,152.91442213
57.90029059,76.83210627,67.87128125,9.75681884,-0.02801744,2.55418046,1.04934940
-1.00697840

>  <Name>
2au4_lig

>  <RI>
0

>  <Rbt.Current_Directory>
/home/itssahil/PROJECTS/Mol_Feturizer/New_Systems/rnas/2au4

>  <Rbt.Executable>
rbdock ($Id: //depot/dev/client3/rdock/2013.1/src/exe/rbdock.cxx#4 $)

>  <Rbt.Library>
libRbt.so (2013.1, Build901 2013/11/27)

>  <Rbt.Parameter_File>
/export/apps/rDock/src/rDock_2013.1_src/data/scripts/dock_solv.prm

>  <Rbt.Receptor>
prm/pocket_docking_7.prm

>  <SCORE>
-45.897

>  <SCORE.INTER>
-21.2488

>  <SCORE.INTER.CONST>
1

>  <SCORE.INTER.POLAR>
-1.249

>  <SCORE.INTER.ROT>
8

>  <SCORE.INTER.SOLV>
27.9567

>  <SCORE.INTER.VDW>
-28.2548

>  <SCORE.INTER.norm>
-0.664026

>  <SCORE.INTRA>
-24.6482

>  <SCORE.INTRA.DIHEDRAL>
-47.457

>  <SCORE.INTRA.DIHEDRAL.0>
76.3625

>  <SCORE.INTRA.POLAR>
0

>  <SCORE.INTRA.POLAR.0>
0

>  <SCORE.INTRA.REPUL>
-0.12705

>  <SCORE.INTRA.REPUL.0>
0.12705

>  <SCORE.INTRA.SOLV>
-2.62599

>  <SCORE.INTRA.SOLV.lig_0>
-119.383

>  <SCORE.INTRA.VDW>
1.02858

>  <SCORE.INTRA.VDW.0>
-5.10464

>  <SCORE.INTRA.norm>
-0.770255

>  <SCORE.RESTR>
0

>  <SCORE.RESTR.CAVITY>
0

>  <SCORE.RESTR.norm>
0

>  <SCORE.SYSTEM>
0

>  <SCORE.SYSTEM.CONST>
0

>  <SCORE.SYSTEM.DIHEDRAL>
0

>  <SCORE.SYSTEM.SOLV>
0

>  <SCORE.SYSTEM.norm>
0

>  <SCORE.heavy>
32

>  <SCORE.norm>
-1.43428

>  <RMSD>
4.564

$$$$
2au4_lig
 OpenBabel11021811423D
libRbt.so/2013.1/901 2013/11/27
 32 34  0  0  0  0  0  0  0  0999 V2000
   68.3092   10.5611   -1.1249 P   0  0  1  0  0  0  0  0  0  0  0  0
   70.1645   10.5792    0.8568 P   0  0  1  0  0  0  0  0  0  0  0  0
   69.6679   12.9038    2.1948 P   0  0  2  0  0  0  0  0  0  0  0  0
   68.3639    8.1747   -2.2792 C   0  0  0  0  0  0  0  0  0  0  0  0
   68.1231    9.5871   -2.3922 O   0  0  0  0  0  0  0  0  0  0  0  0
   67.1572    7.4200   -1.7407 C   0  0  0  0  0  0  0  0  0  0  0  0
   67.5282    6.6161   -0.6021 O   0  0  0  0  0  0  0  0  0  0  0  0
   66.0672    8.3873   -1.3062 C   0  0  0  0  0  0  0  0  0  0  0  0
   64.8883    8.2219   -2.1036 O   0  0  0  0  0  0  0  0  0  0  0  0
   65.7854    8.0910    0.1474 C   0  0  0  0  0  0  0  0  0  0  0  0
   64.4122    7.7293    0.3469 O   0  0  0  0  0  0  0  0  0  0  0  0
   66.7067    6.9481    0.5373 C   0  0  0  0  0  0  0  0  0  0  0  0
   67.1893    9.9825    4.6148 N   0  0  0  0  0  0  0  0  0  0  0  0
   68.9667   11.8033   -1.5782 O   0  5  0  0  0  0  0  0  0  0  0  0
   70.4036    9.6993    2.0173 O   0  5  0  0  0  0  0  0  0  0  0  0
   70.6542   13.6667    1.4033 O   0  5  0  0  0  0  0  0  0  0  0  0
   66.1791    9.9258    3.6842 C   0  0  1  0  0  0  0  0  0  0  0  0
   65.1774   10.7789    3.8513 N   0  0  0  0  0  0  0  0  0  0  0  0
   67.0292   10.6266   -0.3878 O   0  0  0  0  0  0  0  0  0  0  0  0
   71.3010   11.2343    0.1765 O   0  0  0  0  0  0  0  0  0  0  0  0
   70.0483   12.3436    3.5084 O   0  0  0  0  0  0  0  0  0  0  0  0
   66.1659    9.0819    2.6555 N   0  0  0  0  0  0  0  0  0  0  0  0
   69.3455    9.7605   -0.2273 O   0  0  0  0  0  0  0  0  0  0  0  0
   69.1325   11.7071    1.2904 O   0  0  0  0  0  0  0  0  0  0  0  0
   68.3583   13.8137    2.3885 O   0  0  0  0  0  0  0  0  0  0  0  0
   67.2618    8.2887    2.6329 C   0  0  2  0  0  0  0  0  0  0  0  0
   68.3209    8.2795    3.5262 C   0  0  2  0  0  0  0  0  0  0  0  0
   68.3194    9.1847    4.6156 C   0  0  1  0  0  0  0  0  0  0  0  0
   69.1724    9.3338    5.4802 O   0  0  0  0  0  0  0  0  0  0  0  0
   69.2677    7.3146    3.1661 N   0  0  0  0  0  0  0  0  0  0  0  0
   68.7317    6.8143    2.1010 C   0  0  0  0  0  0  0  0  0  0  0  0
   67.5402    7.3211    1.6968 N   0  0  0  0  0  0  0  0  0  0  0  0
  1  5  1  6  0  0  0
  1 14  1  0  0  0  0
  1 19  2  0  0  0  0
  2 15  1  1  0  0  0
  2 20  2  0  0  0  0
  2 23  1  0  0  0  0
  3 16  1  6  0  0  0
  3 21  2  0  0  0  0
  3 24  1  0  0  0  0
  3 25  1  0  0  0  0
  4  6  1  0  0  0  0
  5  4  1  0  0  0  0
  6  7  1  0  0  0  0
  6  8  2  0  0  0  0
  7 12  1  0  0  0  0
  8  9  1  0  0  0  0
  8 10  1  0  0  0  0
 10 11  1  0  0  0  0
 10 12  2  0  0  0  0
 12 32  1  0  0  0  0
 13 17  1  0  0  0  0
 17 18  1  6  0  0  0
 17 22  1  0  0  0  0
 23  1  1  0  0  0  0
 24  2  1  0  0  0  0
 26 22  1  6  0  0  0
 27 26  1  0  0  0  0
 27 28  1  0  0  0  0
 27 30  1  6  0  0  0
 28 13  1  0  0  0  0
 28 29  1  6  0  0  0
 31 30  1  0  0  0  0
 32 26  1  0  0  0  0
 32 31  1  0  0  0  0
M  CHG  3  14  -1  15  -1  16  -1
M  END
>  <CHROM.1>
138.86068308,146.99653724,64.75556070,-126.82116336,83.97645340,143.42852434
159.47445534,76.15645740,68.18586598,9.82476315,1.14547033,-2.56540664,0.92448372
1.57497650

>  <Name>
2au4_lig

>  <RI>
0

>  <Rbt.Current_Directory>
/home/itssahil/PROJECTS/Mol_Feturizer/New_Systems/rnas/2au4

>  <Rbt.Executable>
rbdock ($Id: //depot/dev/client3/rdock/2013.1/src/exe/rbdock.cxx#4 $)

>  <Rbt.Library>
libRbt.so (2013.1, Build901 2013/11/27)

>  <Rbt.Parameter_File>
/export/apps/rDock/src/rDock_2013.1_src/data/scripts/dock_solv.prm

>  <Rbt.Receptor>
prm/pocket_docking_4.prm

>  <SCORE>
-34.0665

>  <SCORE.INTER>
-13.5806

>  <SCORE.INTER.CONST>
1

>  <SCORE.INTER.POLAR>
-1.29913

>  <SCORE.INTER.ROT>
8

>  <SCORE.INTER.SOLV>
15.8915

>  <SCORE.INTER.VDW>
-18.9538

>  <SCORE.INTER.norm>
-0.424394

>  <SCORE.INTRA>
-20.4905

>  <SCORE.INTRA.DIHEDRAL>
-44.9392

>  <SCORE.INTRA.DIHEDRAL.0>
76.3625

>  <SCORE.INTRA.POLAR>
0

>  <SCORE.INTRA.POLAR.0>
0

>  <SCORE.INTRA.REPUL>
-0.12705

>  <SCORE.INTRA.REPUL.0>
0.12705

>  <SCORE.INTRA.SOLV>
7.76499

>  <SCORE.INTRA.SOLV.lig_0>
-119.383

>  <SCORE.INTRA.VDW>
-1.26813

>  <SCORE.INTRA.VDW.0>
-5.10464

>  <SCORE.INTRA.norm>
-0.640327

>  <SCORE.RESTR>
0.00461166

>  <SCORE.RESTR.CAVITY>
0.00461166

>  <SCORE.RESTR.norm>
0.000144114

>  <SCORE.SYSTEM>
0

>  <SCORE.SYSTEM.CONST>
0

>  <SCORE.SYSTEM.DIHEDRAL>
0

>  <SCORE.SYSTEM.SOLV>
0

>  <SCORE.SYSTEM.norm>
0

>  <SCORE.heavy>
32

>  <SCORE.norm>
-1.06458

>  <RMSD>
4.570

$$$$
2au4_lig
 OpenBabel11021811423D
libRbt.so/2013.1/901 2013/11/27
 32 34  0  0  0  0  0  0  0  0999 V2000
   69.6056   11.3751    3.1028 P   0  0  1  0  0  0  0  0  0  0  0  0
   70.5042   13.2022    1.3074 P   0  0  1  0  0  0  0  0  0  0  0  0
   73.0677   12.6739    0.5394 P   0  0  2  0  0  0  0  0  0  0  0  0
   68.6027    9.6799    1.3277 C   0  0  0  0  0  0  0  0  0  0  0  0
   68.4890   10.9262    2.0345 O   0  0  0  0  0  0  0  0  0  0  0  0
   67.8140    8.5606    1.9913 C   0  0  0  0  0  0  0  0  0  0  0  0
   67.8216    7.3769    1.1673 O   0  0  0  0  0  0  0  0  0  0  0  0
   68.4160    8.2050    3.3418 C   0  0  0  0  0  0  0  0  0  0  0  0
   67.4946    8.4846    4.4028 O   0  0  0  0  0  0  0  0  0  0  0  0
   68.7516    6.7337    3.2877 C   0  0  0  0  0  0  0  0  0  0  0  0
   68.0655    6.0066    4.3157 O   0  0  0  0  0  0  0  0  0  0  0  0
   68.3305    6.2494    1.9110 C   0  0  0  0  0  0  0  0  0  0  0  0
   70.4424    5.1612   -2.6081 N   0  0  0  0  0  0  0  0  0  0  0  0
   69.0870   12.5248    3.8710 O   0  5  0  0  0  0  0  0  0  0  0  0
   69.1594   13.0861    0.7106 O   0  5  0  0  0  0  0  0  0  0  0  0
   73.0961   11.2168    0.7788 O   0  5  0  0  0  0  0  0  0  0  0  0
   69.2669    5.8173   -2.3298 C   0  0  1  0  0  0  0  0  0  0  0  0
   68.5633    6.2316   -3.3750 N   0  0  0  0  0  0  0  0  0  0  0  0
   70.0940   10.1715    3.8092 O   0  0  0  0  0  0  0  0  0  0  0  0
   70.8517   14.3808    2.1282 O   0  0  0  0  0  0  0  0  0  0  0  0
   73.5246   13.6050    1.5921 O   0  0  0  0  0  0  0  0  0  0  0  0
   68.8184    6.0435   -1.0976 N   0  0  0  0  0  0  0  0  0  0  0  0
   70.7788   11.9004    2.1713 O   0  0  0  0  0  0  0  0  0  0  0  0
   71.5788   13.0775    0.1434 O   0  0  0  0  0  0  0  0  0  0  0  0
   73.8878   12.9840   -0.8067 O   0  0  0  0  0  0  0  0  0  0  0  0
   69.6532    5.5521   -0.1531 C   0  0  2  0  0  0  0  0  0  0  0  0
   70.8508    4.8821   -0.3450 C   0  0  2  0  0  0  0  0  0  0  0  0
   71.3135    4.6492   -1.6633 C   0  0  1  0  0  0  0  0  0  0  0  0
   72.3247    4.0596   -2.0201 O   0  0  0  0  0  0  0  0  0  0  0  0
   71.4258    4.5289    0.8804 N   0  0  0  0  0  0  0  0  0  0  0  0
   70.5571    4.9974    1.7158 C   0  0  0  0  0  0  0  0  0  0  0  0
   69.4667    5.6235    1.2071 N   0  0  0  0  0  0  0  0  0  0  0  0
  1  5  1  6  0  0  0
  1 14  1  0  0  0  0
  1 19  2  0  0  0  0
  2 15  1  6  0  0  0
  2 20  2  0  0  0  0
  2 23  1  0  0  0  0
  3 16  1  1  0  0  0
  3 21  2  0  0  0  0
  3 24  1  0  0  0  0
  3 25  1  0  0  0  0
  4  6  1  0  0  0  0
  5  4  1  0  0  0  0
  6  7  1  0  0  0  0
  6  8  2  0  0  0  0
  7 12  1  0  0  0  0
  8  9  1  0  0  0  0
  8 10  1  0  0  0  0
 10 11  1  0  0  0  0
 10 12  2  0  0  0  0
 12 32  1  0  0  0  0
 13 17  1  0  0  0  0
 17 18  1  6  0  0  0
 17 22  1  0  0  0  0
 23  1  1  0  0  0  0
 24  2  1  0  0  0  0
 26 22  1  6  0  0  0
 27 26  1  0  0  0  0
 27 28  1  0  0  0  0
 27 30  1  6  0  0  0
 28 13  1  0  0  0  0
 28 29  1  6  0  0  0
 31 30  1  0  0  0  0
 32 26  1  0  0  0  0
 32 31  1  0  0  0  0
M  CHG  3  14  -1  15  -1  16  -1
M  END
>  <CHROM.1>
-167.79614367,-43.81282548,78.09593590,173.01460109,95.71426248,-31.96644643
65.96043937,-159.48590667,70.19898524,9.26437006,1.13147836,1.29411110,0.83207597
0.43689576

>  <Name>
2au4_lig

>  <RI>
0

>  <Rbt.Current_Directory>
/home/itssahil/PROJECTS/Mol_Feturizer/New_Systems/rnas/2au4

>  <Rbt.Executable>
rbdock ($Id: //depot/dev/client3/rdock/2013.1/src/exe/rbdock.cxx#4 $)

>  <Rbt.Library>
libRbt.so (2013.1, Build901 2013/11/27)

>  <Rbt.Parameter_File>
/export/apps/rDock/src/rDock_2013.1_src/data/scripts/dock_solv.prm

>  <Rbt.Receptor>
prm/pocket_docking_3.prm

>  <SCORE>
-41.6527

>  <SCORE.INTER>
-20.4497

>  <SCORE.INTER.CONST>
1

>  <SCORE.INTER.POLAR>
-1.25

>  <SCORE.INTER.ROT>
8

>  <SCORE.INTER.SOLV>
25.8145

>  <SCORE.INTER.VDW>
-27.0047

>  <SCORE.INTER.norm>
-0.639054

>  <SCORE.INTRA>
-21.7952

>  <SCORE.INTRA.DIHEDRAL>
-44.3563

>  <SCORE.INTRA.DIHEDRAL.0>
76.3625

>  <SCORE.INTRA.POLAR>
0

>  <SCORE.INTRA.POLAR.0>
0

>  <SCORE.INTRA.REPUL>
0.057217

>  <SCORE.INTRA.REPUL.0>
0.12705

>  <SCORE.INTRA.SOLV>
-2.27236

>  <SCORE.INTRA.SOLV.lig_0>
-119.383

>  <SCORE.INTRA.VDW>
1.23307

>  <SCORE.INTRA.VDW.0>
-5.10464

>  <SCORE.INTRA.norm>
-0.681099

>  <SCORE.RESTR>
0.592156

>  <SCORE.RESTR.CAVITY>
0.592156

>  <SCORE.RESTR.norm>
0.0185049

>  <SCORE.SYSTEM>
0

>  <SCORE.SYSTEM.CONST>
0

>  <SCORE.SYSTEM.DIHEDRAL>
0

>  <SCORE.SYSTEM.SOLV>
0

>  <SCORE.SYSTEM.norm>
0

>  <SCORE.heavy>
32

>  <SCORE.norm>
-1.30165

>  <RMSD>
4.572

$$$$
2au4_lig
 OpenBabel11021811423D
libRbt.so/2013.1/901 2013/11/27
 32 34  0  0  0  0  0  0  0  0999 V2000
   70.0012   10.6130    1.1750 P   0  0  1  0  0  0  0  0  0  0  0  0
   68.5158   12.8815    1.3041 P   0  0  1  0  0  0  0  0  0  0  0  0
   69.0985   14.5088    3.4144 P   0  0  2  0  0  0  0  0  0  0  0  0
   67.7587    9.3324    0.5735 C   0  0  0  0  0  0  0  0  0  0  0  0
   69.1932    9.3916    0.5080 O   0  0  0  0  0  0  0  0  0  0  0  0
   67.2640    8.2953    1.5710 C   0  0  0  0  0  0  0  0  0  0  0  0
   67.4128    6.9645    1.0352 O   0  0  0  0  0  0  0  0  0  0  0  0
   68.0524    8.3774    2.8687 C   0  0  0  0  0  0  0  0  0  0  0  0
   67.2042    8.7539    3.9603 O   0  0  0  0  0  0  0  0  0  0  0  0
   68.6517    7.0097    3.0937 C   0  0  0  0  0  0  0  0  0  0  0  0
   68.2195    6.4523    4.3421 O   0  0  0  0  0  0  0  0  0  0  0  0
   68.1955    6.1463    1.9302 C   0  0  0  0  0  0  0  0  0  0  0  0
   70.1771    4.7567   -2.5652 N   0  0  0  0  0  0  0  0  0  0  0  0
   69.6334   10.6970    2.6027 O   0  5  0  0  0  0  0  0  0  0  0  0
   68.2020   14.0585    0.4708 O   0  5  0  0  0  0  0  0  0  0  0  0
   69.9909   14.4797    4.5908 O   0  5  0  0  0  0  0  0  0  0  0  0
   68.9547    5.3208   -2.2876 C   0  0  1  0  0  0  0  0  0  0  0  0
   68.1588    5.5394   -3.3259 N   0  0  0  0  0  0  0  0  0  0  0  0
   71.4225   10.5100    0.7807 O   0  0  0  0  0  0  0  0  0  0  0  0
   67.4269   12.1155    1.9451 O   0  0  0  0  0  0  0  0  0  0  0  0
   67.6340   14.4269    3.5952 O   0  0  0  0  0  0  0  0  0  0  0  0
   68.5482    5.6427   -1.0621 N   0  0  0  0  0  0  0  0  0  0  0  0
   69.3833   11.8755    0.4371 O   0  0  0  0  0  0  0  0  0  0  0  0
   69.5362   13.3302    2.4367 O   0  0  0  0  0  0  0  0  0  0  0  0
   69.4333   15.8239    2.5547 O   0  0  0  0  0  0  0  0  0  0  0  0
   69.4775    5.3492   -0.1235 C   0  0  2  0  0  0  0  0  0  0  0  0
   70.7277    4.7836   -0.3152 C   0  0  2  0  0  0  0  0  0  0  0  0
   71.1446    4.4465   -1.6263 C   0  0  1  0  0  0  0  0  0  0  0  0
   72.1929    3.9228   -1.9788 O   0  0  0  0  0  0  0  0  0  0  0  0
   71.3986    4.6335    0.9032 N   0  0  0  0  0  0  0  0  0  0  0  0
   70.5291    5.1072    1.7347 C   0  0  0  0  0  0  0  0  0  0  0  0
   69.3541    5.5589    1.2296 N   0  0  0  0  0  0  0  0  0  0  0  0
  1  5  1  6  0  0  0
  1 14  1  0  0  0  0
  1 19  2  0  0  0  0
  2 15  1  6  0  0  0
  2 20  2  0  0  0  0
  2 23  1  0  0  0  0
  3 16  1  1  0  0  0
  3 21  2  0  0  0  0
  3 24  1  0  0  0  0
  3 25  1  0  0  0  0
  4  6  1  0  0  0  0
  5  4  1  0  0  0  0
  6  7  1  0  0  0  0
  6  8  2  0  0  0  0
  7 12  1  0  0  0  0
  8  9  1  0  0  0  0
  8 10  1  0  0  0  0
 10 11  1  0  0  0  0
 10 12  2  0  0  0  0
 12 32  1  0  0  0  0
 13 17  1  0  0  0  0
 17 18  1  1  0  0  0
 17 22  1  0  0  0  0
 23  1  1  0  0  0  0
 24  2  1  0  0  0  0
 26 22  1  1  0  0  0
 27 26  1  0  0  0  0
 27 28  1  0  0  0  0
 27 30  1  1  0  0  0
 28 13  1  0  0  0  0
 28 29  1  1  0  0  0
 31 30  1  0  0  0  0
 32 26  1  0  0  0  0
 32 31  1  0  0  0  0
M  CHG  3  14  -1  15  -1  16  -1
M  END
>  <CHROM.1>
56.06327960,172.41611325,163.53736589,-75.50707725,-105.54571173,-23.02654636
112.66661534,57.57304096,69.16336931,9.33328839,1.24413587,-1.87403818,-1.21689191
-3.07353046

>  <Name>
2au4_lig

>  <RI>
0

>  <Rbt.Current_Directory>
/home/itssahil/PROJECTS/Mol_Feturizer/New_Systems/rnas/2au4

>  <Rbt.Executable>
rbdock ($Id: //depot/dev/client3/rdock/2013.1/src/exe/rbdock.cxx#4 $)

>  <Rbt.Library>
libRbt.so (2013.1, Build901 2013/11/27)

>  <Rbt.Parameter_File>
/export/apps/rDock/src/rDock_2013.1_src/data/scripts/dock_solv.prm

>  <Rbt.Receptor>
prm/pocket_docking_5.prm

>  <SCORE>
-35.7314

>  <SCORE.INTER>
-15.674

>  <SCORE.INTER.CONST>
1

>  <SCORE.INTER.POLAR>
0

>  <SCORE.INTER.ROT>
8

>  <SCORE.INTER.SOLV>
22.568

>  <SCORE.INTER.VDW>
-26.9053

>  <SCORE.INTER.norm>
-0.489812

>  <SCORE.INTRA>
-20.0574

>  <SCORE.INTRA.DIHEDRAL>
-41.0305

>  <SCORE.INTRA.DIHEDRAL.0>
76.3625

>  <SCORE.INTRA.POLAR>
0

>  <SCORE.INTRA.POLAR.0>
0

>  <SCORE.INTRA.REPUL>
0.0705504

>  <SCORE.INTRA.REPUL.0>
0.12705

>  <SCORE.INTRA.SOLV>
-1.54393

>  <SCORE.INTRA.SOLV.lig_0>
-119.383

>  <SCORE.INTRA.VDW>
0.877074

>  <SCORE.INTRA.VDW.0>
-5.10464

>  <SCORE.INTRA.norm>
-0.626794

>  <SCORE.RESTR>
0

>  <SCORE.RESTR.CAVITY>
0

>  <SCORE.RESTR.norm>
0

>  <SCORE.SYSTEM>
0

>  <SCORE.SYSTEM.CONST>
0

>  <SCORE.SYSTEM.DIHEDRAL>
0

>  <SCORE.SYSTEM.SOLV>
0

>  <SCORE.SYSTEM.norm>
0

>  <SCORE.heavy>
32

>  <SCORE.norm>
-1.11661

>  <RMSD>
4.587

$$$$
2au4_lig
 OpenBabel11021811423D
libRbt.so/2013.1/901 2013/11/27
 32 34  0  0  0  0  0  0  0  0999 V2000
   66.8431   11.7341   -0.4627 P   0  0  1  0  0  0  0  0  0  0  0  0
   69.1915   12.3669    0.7433 P   0  0  1  0  0  0  0  0  0  0  0  0
   71.3342   10.7467    1.2171 P   0  0  2  0  0  0  0  0  0  0  0  0
   64.8738   10.0454    0.0856 C   0  0  0  0  0  0  0  0  0  0  0  0
   66.0474   10.3532   -0.6849 O   0  0  0  0  0  0  0  0  0  0  0  0
   65.0639    8.8237    0.9726 C   0  0  0  0  0  0  0  0  0  0  0  0
   64.6946    7.6215    0.2665 O   0  0  0  0  0  0  0  0  0  0  0  0
   66.5154    8.6943    1.4070 C   0  0  0  0  0  0  0  0  0  0  0  0
   66.6387    8.8302    2.8280 O   0  0  0  0  0  0  0  0  0  0  0  0
   66.9803    7.3324    0.9495 C   0  0  0  0  0  0  0  0  0  0  0  0
   67.4282    6.5378    2.0560 O   0  0  0  0  0  0  0  0  0  0  0  0
   65.7905    6.6823    0.2647 C   0  0  0  0  0  0  0  0  0  0  0  0
   69.4126    4.8651   -2.8409 N   0  0  0  0  0  0  0  0  0  0  0  0
   67.2279   12.2734   -1.7825 O   0  5  0  0  0  0  0  0  0  0  0  0
   68.9196   13.5993   -0.0217 O   0  5  0  0  0  0  0  0  0  0  0  0
   70.4381    9.5923    1.4306 O   0  5  0  0  0  0  0  0  0  0  0  0
   69.4727    5.1343   -1.4942 C   0  0  1  0  0  0  0  0  0  0  0  0
   70.6339    4.8976   -0.8986 N   0  0  0  0  0  0  0  0  0  0  0  0
   66.0789   12.5719    0.4861 O   0  0  0  0  0  0  0  0  0  0  0  0
   69.1918   12.3962    2.2207 O   0  0  0  0  0  0  0  0  0  0  0  0
   71.8579   11.5003    2.3755 O   0  0  0  0  0  0  0  0  0  0  0  0
   68.4504    5.6096   -0.7873 N   0  0  0  0  0  0  0  0  0  0  0  0
   68.1656   11.2525    0.2718 O   0  0  0  0  0  0  0  0  0  0  0  0
   70.5867   11.7783    0.2613 O   0  0  0  0  0  0  0  0  0  0  0  0
   72.5756   10.2670    0.3174 O   0  0  0  0  0  0  0  0  0  0  0  0
   67.3478    5.7972   -1.5487 C   0  0  2  0  0  0  0  0  0  0  0  0
   67.2016    5.5530   -2.9047 C   0  0  2  0  0  0  0  0  0  0  0  0
   68.3000    5.0474   -3.6423 C   0  0  1  0  0  0  0  0  0  0  0  0
   68.3609    4.7978   -4.8388 O   0  0  0  0  0  0  0  0  0  0  0  0
   65.9088    5.8743   -3.3320 N   0  0  0  0  0  0  0  0  0  0  0  0
   65.3690    6.2838   -2.2307 C   0  0  0  0  0  0  0  0  0  0  0  0
   66.1363    6.2789   -1.1122 N   0  0  0  0  0  0  0  0  0  0  0  0
  1  5  1  6  0  0  0
  1 14  1  0  0  0  0
  1 19  2  0  0  0  0
  2 15  1  6  0  0  0
  2 20  2  0  0  0  0
  2 23  1  0  0  0  0
  3 16  1  1  0  0  0
  3 21  2  0  0  0  0
  3 24  1  0  0  0  0
  3 25  1  0  0  0  0
  4  6  1  0  0  0  0
  5  4  1  0  0  0  0
  6  7  1  0  0  0  0
  6  8  2  0  0  0  0
  7 12  1  0  0  0  0
  8  9  1  0  0  0  0
  8 10  1  0  0  0  0
 10 11  1  0  0  0  0
 10 12  2  0  0  0  0
 12 32  1  0  0  0  0
 13 17  1  0  0  0  0
 17 18  1  6  0  0  0
 17 22  1  0  0  0  0
 23  1  1  0  0  0  0
 24  2  1  0  0  0  0
 26 22  1  6  0  0  0
 27 26  1  0  0  0  0
 27 28  1  0  0  0  0
 27 30  1  6  0  0  0
 28 13  1  0  0  0  0
 28 29  1  6  0  0  0
 31 30  1  0  0  0  0
 32 26  1  0  0  0  0
 32 31  1  0  0  0  0
M  CHG  3  14  -1  15  -1  16  -1
M  END
>  <CHROM.1>
-138.20244546,-19.82637936,59.04561246,-89.37592080,-116.22367889,156.02799608
-176.47978008,160.69543578,68.08324373,9.02096736,-0.20979038,1.30127874
-0.07652803,0.41907868

>  <Name>
2au4_lig

>  <RI>
0

>  <Rbt.Current_Directory>
/home/itssahil/PROJECTS/Mol_Feturizer/New_Systems/rnas/2au4

>  <Rbt.Executable>
rbdock ($Id: //depot/dev/client3/rdock/2013.1/src/exe/rbdock.cxx#4 $)

>  <Rbt.Library>
libRbt.so (2013.1, Build901 2013/11/27)

>  <Rbt.Parameter_File>
/export/apps/rDock/src/rDock_2013.1_src/data/scripts/dock_solv.prm

>  <Rbt.Receptor>
prm/pocket_docking_3.prm

>  <SCORE>
-36.2061

>  <SCORE.INTER>
-15.827

>  <SCORE.INTER.CONST>
1

>  <SCORE.INTER.POLAR>
-0.69968

>  <SCORE.INTER.ROT>
8

>  <SCORE.INTER.SOLV>
26.563

>  <SCORE.INTER.VDW>
-26.0067

>  <SCORE.INTER.norm>
-0.494593

>  <SCORE.INTRA>
-20.3791

>  <SCORE.INTRA.DIHEDRAL>
-38.4375

>  <SCORE.INTRA.DIHEDRAL.0>
76.3625

>  <SCORE.INTRA.POLAR>
0

>  <SCORE.INTRA.POLAR.0>
0

>  <SCORE.INTRA.REPUL>
-0.12705

>  <SCORE.INTRA.REPUL.0>
0.12705

>  <SCORE.INTRA.SOLV>
-3.63846

>  <SCORE.INTRA.SOLV.lig_0>
-119.383

>  <SCORE.INTRA.VDW>
1.29412

>  <SCORE.INTRA.VDW.0>
-5.10464

>  <SCORE.INTRA.norm>
-0.636847

>  <SCORE.RESTR>
0

>  <SCORE.RESTR.CAVITY>
0

>  <SCORE.RESTR.norm>
0

>  <SCORE.SYSTEM>
0

>  <SCORE.SYSTEM.CONST>
0

>  <SCORE.SYSTEM.DIHEDRAL>
0

>  <SCORE.SYSTEM.SOLV>
0

>  <SCORE.SYSTEM.norm>
0

>  <SCORE.heavy>
32

>  <SCORE.norm>
-1.13144

>  <RMSD>
4.599

$$$$
2au4_lig
 OpenBabel11021811423D
libRbt.so/2013.1/901 2013/11/27
 32 34  0  0  0  0  0  0  0  0999 V2000
   68.0408   11.5117    2.4783 P   0  0  1  0  0  0  0  0  0  0  0  0
   70.4986   10.7761    1.5906 P   0  0  1  0  0  0  0  0  0  0  0  0
   72.3579   12.7654    1.4276 P   0  0  2  0  0  0  0  0  0  0  0  0
   66.3724   10.0612    1.0144 C   0  0  0  0  0  0  0  0  0  0  0  0
   67.6556   10.6950    1.1464 O   0  0  0  0  0  0  0  0  0  0  0  0
   66.3074    8.7232    1.7363 C   0  0  0  0  0  0  0  0  0  0  0  0
   65.5877    7.7548    0.9462 O   0  0  0  0  0  0  0  0  0  0  0  0
   67.7050    8.1828    1.9956 C   0  0  0  0  0  0  0  0  0  0  0  0
   67.9667    8.0930    3.4014 O   0  0  0  0  0  0  0  0  0  0  0  0
   67.7662    6.8219    1.3440 C   0  0  0  0  0  0  0  0  0  0  0  0
   68.0764    5.8010    2.3020 O   0  0  0  0  0  0  0  0  0  0  0  0
   66.4005    6.5830    0.7236 C   0  0  0  0  0  0  0  0  0  0  0  0
   69.2969    4.5653   -2.9650 N   0  0  0  0  0  0  0  0  0  0  0  0
   67.2597   12.7646    2.5050 O   0  5  0  0  0  0  0  0  0  0  0  0
   70.2801    9.5167    2.3284 O   0  5  0  0  0  0  0  0  0  0  0  0
   71.4657   13.7431    2.0828 O   0  5  0  0  0  0  0  0  0  0  0  0
   69.5422    4.6580   -1.6156 C   0  0  1  0  0  0  0  0  0  0  0  0
   70.6963    4.1599   -1.1924 N   0  0  0  0  0  0  0  0  0  0  0  0
   67.9952   10.5853    3.6298 O   0  0  0  0  0  0  0  0  0  0  0  0
   70.3352   10.8132    0.1225 O   0  0  0  0  0  0  0  0  0  0  0  0
   72.4474   12.7183   -0.0467 O   0  0  0  0  0  0  0  0  0  0  0  0
   68.7006    5.2110   -0.7458 N   0  0  0  0  0  0  0  0  0  0  0  0
   69.5608   11.8901    2.2201 O   0  0  0  0  0  0  0  0  0  0  0  0
   71.9535   11.3121    1.9387 O   0  0  0  0  0  0  0  0  0  0  0  0
   73.8386   12.9499    2.0227 O   0  0  0  0  0  0  0  0  0  0  0  0
   67.5781    5.6710   -1.3448 C   0  0  2  0  0  0  0  0  0  0  0  0
   67.2520    5.6184   -2.6904 C   0  0  2  0  0  0  0  0  0  0  0  0
   68.1594    5.0267   -3.6029 C   0  0  1  0  0  0  0  0  0  0  0  0
   68.0514    4.9150   -4.8167 O   0  0  0  0  0  0  0  0  0  0  0  0
   66.0018    6.2014   -2.9231 N   0  0  0  0  0  0  0  0  0  0  0  0
   65.6606    6.5617   -1.7290 C   0  0  0  0  0  0  0  0  0  0  0  0
   66.5248    6.2942   -0.7184 N   0  0  0  0  0  0  0  0  0  0  0  0
  1  5  1  6  0  0  0
  1 14  1  0  0  0  0
  1 19  2  0  0  0  0
  2 15  1  1  0  0  0
  2 20  2  0  0  0  0
  2 23  1  0  0  0  0
  3 16  1  1  0  0  0
  3 21  2  0  0  0  0
  3 24  1  0  0  0  0
  3 25  1  0  0  0  0
  4  6  1  0  0  0  0
  5  4  1  0  0  0  0
  6  7  1  0  0  0  0
  6  8  2  0  0  0  0
  7 12  1  0  0  0  0
  8  9  1  0  0  0  0
  8 10  1  0  0  0  0
 10 11  1  0  0  0  0
 10 12  2  0  0  0  0
 12 32  1  0  0  0  0
 13 17  1  0  0  0  0
 17 18  1  6  0  0  0
 17 22  1  0  0  0  0
 23  1  1  0  0  0  0
 24  2  1  0  0  0  0
 26 22  1  6  0  0  0
 27 26  1  0  0  0  0
 27 28  1  0  0  0  0
 27 30  1  6  0  0  0
 28 13  1  0  0  0  0
 28 29  1  6  0  0  0
 31 30  1  0  0  0  0
 32 26  1  0  0  0  0
 32 31  1  0  0  0  0
M  CHG  3  14  -1  15  -1  16  -1
M  END
>  <CHROM.1>
-71.34183402,-47.22287576,63.28361550,-139.46992082,-80.37090776,151.24323112
-42.00497174,-171.61529738,68.90015809,8.97460179,0.59449779,1.14061158,0.40328469
0.68623082

>  <Name>
2au4_lig

>  <RI>
0

>  <Rbt.Current_Directory>
/home/itssahil/PROJECTS/Mol_Feturizer/New_Systems/rnas/2au4

>  <Rbt.Executable>
rbdock ($Id: //depot/dev/client3/rdock/2013.1/src/exe/rbdock.cxx#4 $)

>  <Rbt.Library>
libRbt.so (2013.1, Build901 2013/11/27)

>  <Rbt.Parameter_File>
/export/apps/rDock/src/rDock_2013.1_src/data/scripts/dock_solv.prm

>  <Rbt.Receptor>
prm/pocket_docking_3.prm

>  <SCORE>
-43.2077

>  <SCORE.INTER>
-19.2783

>  <SCORE.INTER.CONST>
1

>  <SCORE.INTER.POLAR>
-1.80259

>  <SCORE.INTER.ROT>
8

>  <SCORE.INTER.SOLV>
23.2927

>  <SCORE.INTER.VDW>
-23.5412

>  <SCORE.INTER.norm>
-0.602448

>  <SCORE.INTRA>
-23.958

>  <SCORE.INTRA.DIHEDRAL>
-48.3348

>  <SCORE.INTRA.DIHEDRAL.0>
76.3625

>  <SCORE.INTRA.POLAR>
0

>  <SCORE.INTRA.POLAR.0>
0

>  <SCORE.INTRA.REPUL>
-0.12705

>  <SCORE.INTRA.REPUL.0>
0.12705

>  <SCORE.INTRA.SOLV>
-0.119894

>  <SCORE.INTRA.SOLV.lig_0>
-119.383

>  <SCORE.INTRA.VDW>
0.904649

>  <SCORE.INTRA.VDW.0>
-5.10464

>  <SCORE.INTRA.norm>
-0.748686

>  <SCORE.RESTR>
0.0285534

>  <SCORE.RESTR.CAVITY>
0.0285534

>  <SCORE.RESTR.norm>
0.000892295

>  <SCORE.SYSTEM>
0

>  <SCORE.SYSTEM.CONST>
0

>  <SCORE.SYSTEM.DIHEDRAL>
0

>  <SCORE.SYSTEM.SOLV>
0

>  <SCORE.SYSTEM.norm>
0

>  <SCORE.heavy>
32

>  <SCORE.norm>
-1.35024

>  <RMSD>
4.619

$$$$
2au4_lig
 OpenBabel11021811423D
libRbt.so/2013.1/901 2013/11/27
 32 34  0  0  0  0  0  0  0  0999 V2000
   71.3634   10.8885    1.3668 P   0  0  1  0  0  0  0  0  0  0  0  0
   72.1293   13.4737    1.6824 P   0  0  1  0  0  0  0  0  0  0  0  0
   70.2090   14.7990    3.0954 P   0  0  2  0  0  0  0  0  0  0  0  0
   69.2684   10.6416   -0.2396 C   0  0  0  0  0  0  0  0  0  0  0  0
   69.9455   10.2431    0.9639 O   0  0  0  0  0  0  0  0  0  0  0  0
   67.9879    9.8540   -0.4750 C   0  0  0  0  0  0  0  0  0  0  0  0
   68.2798    8.4533   -0.6567 O   0  0  0  0  0  0  0  0  0  0  0  0
   67.0441    9.9944    0.7092 C   0  0  0  0  0  0  0  0  0  0  0  0
   65.8340   10.6576    0.3237 O   0  0  0  0  0  0  0  0  0  0  0  0
   66.7629    8.5948    1.2017 C   0  0  0  0  0  0  0  0  0  0  0  0
   65.3599    8.3018    1.1600 O   0  0  0  0  0  0  0  0  0  0  0  0
   67.5375    7.6575    0.2914 C   0  0  0  0  0  0  0  0  0  0  0  0
   71.5889    4.5523    0.1908 N   0  0  0  0  0  0  0  0  0  0  0  0
   71.8349   10.2494    2.6117 O   0  5  0  0  0  0  0  0  0  0  0  0
   73.0367   13.2075    2.8154 O   0  5  0  0  0  0  0  0  0  0  0  0
   70.8120   14.2970    4.3467 O   0  5  0  0  0  0  0  0  0  0  0  0
   70.9854    5.2327   -0.8400 C   0  0  1  0  0  0  0  0  0  0  0  0
   71.5165    5.0673   -2.0440 N   0  0  0  0  0  0  0  0  0  0  0  0
   72.2305   10.9080    0.1693 O   0  0  0  0  0  0  0  0  0  0  0  0
   72.6630   13.5461    0.3063 O   0  0  0  0  0  0  0  0  0  0  0  0
   69.0249   14.1252    2.5230 O   0  0  0  0  0  0  0  0  0  0  0  0
   69.9244    6.0209   -0.6866 N   0  0  0  0  0  0  0  0  0  0  0  0
   70.9720   12.3890    1.7068 O   0  0  0  0  0  0  0  0  0  0  0  0
   71.3443   14.8232    1.9786 O   0  0  0  0  0  0  0  0  0  0  0  0
   69.8670   16.3571    3.2854 O   0  0  0  0  0  0  0  0  0  0  0  0
   69.5099    6.0729    0.6003 C   0  0  2  0  0  0  0  0  0  0  0  0
   70.0573    5.4231    1.6948 C   0  0  2  0  0  0  0  0  0  0  0  0
   71.1865    4.5874    1.5139 C   0  0  1  0  0  0  0  0  0  0  0  0
   71.7814    3.9228    2.3516 O   0  0  0  0  0  0  0  0  0  0  0  0
   69.3467    5.7268    2.8609 N   0  0  0  0  0  0  0  0  0  0  0  0
   68.4349    6.5227    2.4057 C   0  0  0  0  0  0  0  0  0  0  0  0
   68.4414    6.7948    1.0769 N   0  0  0  0  0  0  0  0  0  0  0  0
  1  5  1  6  0  0  0
  1 14  1  0  0  0  0
  1 19  2  0  0  0  0
  2 15  1  1  0  0  0
  2 20  2  0  0  0  0
  2 23  1  0  0  0  0
  3 16  1  1  0  0  0
  3 21  2  0  0  0  0
  3 24  1  0  0  0  0
  3 25  1  0  0  0  0
  4  6  1  0  0  0  0
  5  4  1  0  0  0  0
  6  7  1  0  0  0  0
  6  8  2  0  0  0  0
  7 12  1  0  0  0  0
  8  9  1  0  0  0  0
  8 10  1  0  0  0  0
 10 11  1  0  0  0  0
 10 12  2  0  0  0  0
 12 32  1  0  0  0  0
 13 17  1  0  0  0  0
 17 18  1  6  0  0  0
 17 22  1  0  0  0  0
 23  1  1  0  0  0  0
 24  2  1  0  0  0  0
 26 22  1  6  0  0  0
 27 26  1  0  0  0  0
 27 28  1  0  0  0  0
 27 30  1  6  0  0  0
 28 13  1  0  0  0  0
 28 29  1  6  0  0  0
 31 30  1  0  0  0  0
 32 26  1  0  0  0  0
 32 31  1  0  0  0  0
M  CHG  3  14  -1  15  -1  16  -1
M  END
>  <CHROM.1>
-177.71796122,-68.91434237,55.36057611,-62.92234591,176.61552749,-42.52703242
-160.03047343,-72.62347835,70.07024052,9.98392084,1.32366448,-1.43187063
0.07650416,-2.94143845

>  <Name>
2au4_lig

>  <RI>
0

>  <Rbt.Current_Directory>
/home/itssahil/PROJECTS/Mol_Feturizer/New_Systems/rnas/2au4

>  <Rbt.Executable>
rbdock ($Id: //depot/dev/client3/rdock/2013.1/src/exe/rbdock.cxx#4 $)

>  <Rbt.Library>
libRbt.so (2013.1, Build901 2013/11/27)

>  <Rbt.Parameter_File>
/export/apps/rDock/src/rDock_2013.1_src/data/scripts/dock_solv.prm

>  <Rbt.Receptor>
prm/pocket_docking_7.prm

>  <SCORE>
-55.1332

>  <SCORE.INTER>
-30.2003

>  <SCORE.INTER.CONST>
1

>  <SCORE.INTER.POLAR>
-3.61574

>  <SCORE.INTER.ROT>
8

>  <SCORE.INTER.SOLV>
34.3544

>  <SCORE.INTER.VDW>
-28.4659

>  <SCORE.INTER.norm>
-0.943759

>  <SCORE.INTRA>
-24.9329

>  <SCORE.INTRA.DIHEDRAL>
-47.0718

>  <SCORE.INTRA.DIHEDRAL.0>
76.3625

>  <SCORE.INTRA.POLAR>
0

>  <SCORE.INTRA.POLAR.0>
0

>  <SCORE.INTRA.REPUL>
-0.000626301

>  <SCORE.INTRA.REPUL.0>
0.12705

>  <SCORE.INTRA.SOLV>
-4.7465

>  <SCORE.INTRA.SOLV.lig_0>
-119.383

>  <SCORE.INTRA.VDW>
0.979336

>  <SCORE.INTRA.VDW.0>
-5.10464

>  <SCORE.INTRA.norm>
-0.779154

>  <SCORE.RESTR>
0

>  <SCORE.RESTR.CAVITY>
0

>  <SCORE.RESTR.norm>
0

>  <SCORE.SYSTEM>
0

>  <SCORE.SYSTEM.CONST>
0

>  <SCORE.SYSTEM.DIHEDRAL>
0

>  <SCORE.SYSTEM.SOLV>
0

>  <SCORE.SYSTEM.norm>
0

>  <SCORE.heavy>
32

>  <SCORE.norm>
-1.72291

>  <RMSD>
4.677

$$$$
2au4_lig
 OpenBabel11021811423D
libRbt.so/2013.1/901 2013/11/27
 32 34  0  0  0  0  0  0  0  0999 V2000
   67.5775   12.2505   -0.0323 P   0  0  1  0  0  0  0  0  0  0  0  0
   69.9463   11.7433    1.1928 P   0  0  1  0  0  0  0  0  0  0  0  0
   72.5541   11.9439    1.9671 P   0  0  2  0  0  0  0  0  0  0  0  0
   65.9763   10.2273    0.5786 C   0  0  0  0  0  0  0  0  0  0  0  0
   67.1538   10.9944    0.8799 O   0  0  0  0  0  0  0  0  0  0  0  0
   65.9003    8.9379    1.3830 C   0  0  0  0  0  0  0  0  0  0  0  0
   65.2630    7.8970    0.6144 O   0  0  0  0  0  0  0  0  0  0  0  0
   67.2918    8.4612    1.7690 C   0  0  0  0  0  0  0  0  0  0  0  0
   67.4604    8.4719    3.1918 O   0  0  0  0  0  0  0  0  0  0  0  0
   67.4351    7.0634    1.2158 C   0  0  0  0  0  0  0  0  0  0  0  0
   67.7084    6.1178    2.2586 O   0  0  0  0  0  0  0  0  0  0  0  0
   66.1216    6.7403    0.5249 C   0  0  0  0  0  0  0  0  0  0  0  0
   69.3280    4.6073   -2.8271 N   0  0  0  0  0  0  0  0  0  0  0  0
   68.0045   11.7497   -1.3543 O   0  5  0  0  0  0  0  0  0  0  0  0
   69.5316   11.2131    2.5062 O   0  5  0  0  0  0  0  0  0  0  0  0
   72.2053   11.2723    3.2354 O   0  5  0  0  0  0  0  0  0  0  0  0
   69.4807    4.7993   -1.4745 C   0  0  1  0  0  0  0  0  0  0  0  0
   70.6226    4.3796   -0.9464 N   0  0  0  0  0  0  0  0  0  0  0  0
   66.5218   13.2813    0.0640 O   0  0  0  0  0  0  0  0  0  0  0  0
   70.2091   10.8196    0.0698 O   0  0  0  0  0  0  0  0  0  0  0  0
   73.6461   12.9392    1.9335 O   0  0  0  0  0  0  0  0  0  0  0  0
   68.5635    5.3726   -0.6993 N   0  0  0  0  0  0  0  0  0  0  0  0
   68.8630   12.8010    0.7192 O   0  0  0  0  0  0  0  0  0  0  0  0
   71.2387   12.6434    1.4040 O   0  0  0  0  0  0  0  0  0  0  0  0
   72.8563   10.8179    0.8620 O   0  0  0  0  0  0  0  0  0  0  0  0
   67.4659    5.7440   -1.3979 C   0  0  2  0  0  0  0  0  0  0  0  0
   67.2310    5.5887   -2.7545 C   0  0  2  0  0  0  0  0  0  0  0  0
   68.2181    4.9768   -3.5654 C   0  0  1  0  0  0  0  0  0  0  0  0
   68.1941    4.7806   -4.7730 O   0  0  0  0  0  0  0  0  0  0  0  0
   65.9774    6.1017   -3.1048 N   0  0  0  0  0  0  0  0  0  0  0  0
   65.5453    6.5254   -1.9622 C   0  0  0  0  0  0  0  0  0  0  0  0
   66.3510    6.3622   -0.8832 N   0  0  0  0  0  0  0  0  0  0  0  0
  1  5  1  1  0  0  0
  1 14  1  0  0  0  0
  1 19  2  0  0  0  0
  2 15  1  1  0  0  0
  2 20  2  0  0  0  0
  2 23  1  0  0  0  0
  3 16  1  1  0  0  0
  3 21  2  0  0  0  0
  3 24  1  0  0  0  0
  3 25  1  0  0  0  0
  4  6  1  0  0  0  0
  5  4  1  0  0  0  0
  6  7  1  0  0  0  0
  6  8  2  0  0  0  0
  7 12  1  0  0  0  0
  8  9  1  0  0  0  0
  8 10  1  0  0  0  0
 10 11  1  0  0  0  0
 10 12  2  0  0  0  0
 12 32  1  0  0  0  0
 13 17  1  0  0  0  0
 17 18  1  6  0  0  0
 17 22  1  0  0  0  0
 23  1  1  0  0  0  0
 24  2  1  0  0  0  0
 26 22  1  6  0  0  0
 27 26  1  0  0  0  0
 27 28  1  0  0  0  0
 27 30  1  6  0  0  0
 28 13  1  0  0  0  0
 28 29  1  6  0  0  0
 31 30  1  0  0  0  0
 32 26  1  0  0  0  0
 32 31  1  0  0  0  0
M  CHG  3  14  -1  15  -1  16  -1
M  END
>  <CHROM.1>
-68.69165630,-84.81925562,-55.09922778,-146.87390426,168.85730766,150.65868015
45.21203336,62.43372454,68.67752425,9.13597235,0.16273390,1.14840626,-0.09043356
0.43274889

>  <Name>
2au4_lig

>  <RI>
0

>  <Rbt.Current_Directory>
/home/itssahil/PROJECTS/Mol_Feturizer/New_Systems/rnas/2au4

>  <Rbt.Executable>
rbdock ($Id: //depot/dev/client3/rdock/2013.1/src/exe/rbdock.cxx#4 $)

>  <Rbt.Library>
libRbt.so (2013.1, Build901 2013/11/27)

>  <Rbt.Parameter_File>
/export/apps/rDock/src/rDock_2013.1_src/data/scripts/dock_solv.prm

>  <Rbt.Receptor>
prm/pocket_docking_6.prm

>  <SCORE>
-44.6977

>  <SCORE.INTER>
-17.8379

>  <SCORE.INTER.CONST>
1

>  <SCORE.INTER.POLAR>
-1.25

>  <SCORE.INTER.ROT>
8

>  <SCORE.INTER.SOLV>
23.876

>  <SCORE.INTER.VDW>
-24.6173

>  <SCORE.INTER.norm>
-0.557435

>  <SCORE.INTRA>
-26.8598

>  <SCORE.INTRA.DIHEDRAL>
-49.6782

>  <SCORE.INTRA.DIHEDRAL.0>
76.3625

>  <SCORE.INTRA.POLAR>
0

>  <SCORE.INTRA.POLAR.0>
0

>  <SCORE.INTRA.REPUL>
-0.12705

>  <SCORE.INTRA.REPUL.0>
0.12705

>  <SCORE.INTRA.SOLV>
-5.23004

>  <SCORE.INTRA.SOLV.lig_0>
-119.383

>  <SCORE.INTRA.VDW>
1.2296

>  <SCORE.INTRA.VDW.0>
-5.10464

>  <SCORE.INTRA.norm>
-0.839367

>  <SCORE.RESTR>
0

>  <SCORE.RESTR.CAVITY>
0

>  <SCORE.RESTR.norm>
0

>  <SCORE.SYSTEM>
0

>  <SCORE.SYSTEM.CONST>
0

>  <SCORE.SYSTEM.DIHEDRAL>
0

>  <SCORE.SYSTEM.SOLV>
0

>  <SCORE.SYSTEM.norm>
0

>  <SCORE.heavy>
32

>  <SCORE.norm>
-1.3968

>  <RMSD>
4.678

$$$$
2au4_lig
 OpenBabel11021811423D
libRbt.so/2013.1/901 2013/11/27
 32 34  0  0  0  0  0  0  0  0999 V2000
   70.7879   10.1271    3.6673 P   0  0  1  0  0  0  0  0  0  0  0  0
   72.7570   10.7159    1.8939 P   0  0  1  0  0  0  0  0  0  0  0  0
   72.7124   13.3556    1.2076 P   0  0  2  0  0  0  0  0  0  0  0  0
   68.5201    9.9938    2.2999 C   0  0  0  0  0  0  0  0  0  0  0  0
   69.9389    9.7694    2.3480 O   0  0  0  0  0  0  0  0  0  0  0  0
   67.7216    8.7481    2.6549 C   0  0  0  0  0  0  0  0  0  0  0  0
   67.3426    8.0313    1.4621 O   0  0  0  0  0  0  0  0  0  0  0  0
   68.5416    7.8146    3.5316 C   0  0  0  0  0  0  0  0  0  0  0  0
   67.9431    7.6695    4.8252 O   0  0  0  0  0  0  0  0  0  0  0  0
   68.6010    6.4898    2.8092 C   0  0  0  0  0  0  0  0  0  0  0  0
   68.0495    5.4363    3.6105 O   0  0  0  0  0  0  0  0  0  0  0  0
   67.8058    6.6658    1.5271 C   0  0  0  0  0  0  0  0  0  0  0  0
   72.0134    4.3323   -0.1809 N   0  0  0  0  0  0  0  0  0  0  0  0
   70.6073   11.5613    3.9690 O   0  5  0  0  0  0  0  0  0  0  0  0
   74.2136   10.5309    1.7443 O   0  5  0  0  0  0  0  0  0  0  0  0
   73.4223   12.7437    0.0661 O   0  5  0  0  0  0  0  0  0  0  0  0
   71.5346    4.4377    1.1034 C   0  0  1  0  0  0  0  0  0  0  0  0
   72.2602    3.8587    2.0506 N   0  0  0  0  0  0  0  0  0  0  0  0
   70.5025    9.1104    4.7023 O   0  0  0  0  0  0  0  0  0  0  0  0
   71.8482   10.3753    0.7796 O   0  0  0  0  0  0  0  0  0  0  0  0
   73.2827   14.5390    1.8845 O   0  0  0  0  0  0  0  0  0  0  0  0
   70.4134    5.0776    1.4260 N   0  0  0  0  0  0  0  0  0  0  0  0
   72.2837    9.9159    3.1793 O   0  0  0  0  0  0  0  0  0  0  0  0
   72.4860   12.2261    2.3075 O   0  0  0  0  0  0  0  0  0  0  0  0
   71.2139   13.7049    0.7462 O   0  0  0  0  0  0  0  0  0  0  0  0
   69.8021    5.6119    0.3437 C   0  0  2  0  0  0  0  0  0  0  0  0
   70.2133    5.5531   -0.9782 C   0  0  2  0  0  0  0  0  0  0  0  0
   71.4095    4.8682   -1.3042 C   0  0  1  0  0  0  0  0  0  0  0  0
   71.9339    4.7360   -2.4019 O   0  0  0  0  0  0  0  0  0  0  0  0
   69.3143    6.2291   -1.8100 N   0  0  0  0  0  0  0  0  0  0  0  0
   68.4372    6.6446   -0.9556 C   0  0  0  0  0  0  0  0  0  0  0  0
   68.6316    6.3330    0.3501 N   0  0  0  0  0  0  0  0  0  0  0  0
  1  5  1  6  0  0  0
  1 14  1  0  0  0  0
  1 19  2  0  0  0  0
  2 15  1  6  0  0  0
  2 20  2  0  0  0  0
  2 23  1  0  0  0  0
  3 16  1  6  0  0  0
  3 21  2  0  0  0  0
  3 24  1  0  0  0  0
  3 25  1  0  0  0  0
  4  6  1  0  0  0  0
  5  4  1  0  0  0  0
  6  7  1  0  0  0  0
  6  8  2  0  0  0  0
  7 12  1  0  0  0  0
  8  9  1  0  0  0  0
  8 10  1  0  0  0  0
 10 11  1  0  0  0  0
 10 12  2  0  0  0  0
 12 32  1  0  0  0  0
 13 17  1  0  0  0  0
 17 18  1  1  0  0  0
 17 22  1  0  0  0  0
 23  1  1  0  0  0  0
 24  2  1  0  0  0  0
 26 22  1  1  0  0  0
 27 26  1  0  0  0  0
 27 28  1  0  0  0  0
 27 30  1  1  0  0  0
 28 13  1  0  0  0  0
 28 29  1  1  0  0  0
 31 30  1  0  0  0  0
 32 26  1  0  0  0  0
 32 31  1  0  0  0  0
M  CHG  3  14  -1  15  -1  16  -1
M  END
>  <CHROM.1>
-58.13977230,171.59946797,-11.87709103,-94.96871957,-95.14949602,137.93581679
55.13537546,71.28766950,70.73689028,8.78130476,1.62542482,1.09865578,0.73495600
0.51083629

>  <Name>
2au4_lig

>  <RI>
0

>  <Rbt.Current_Directory>
/home/itssahil/PROJECTS/Mol_Feturizer/New_Systems/rnas/2au4

>  <Rbt.Executable>
rbdock ($Id: //depot/dev/client3/rdock/2013.1/src/exe/rbdock.cxx#4 $)

>  <Rbt.Library>
libRbt.so (2013.1, Build901 2013/11/27)

>  <Rbt.Parameter_File>
/export/apps/rDock/src/rDock_2013.1_src/data/scripts/dock_solv.prm

>  <Rbt.Receptor>
prm/pocket_docking_6.prm

>  <SCORE>
-54.2666

>  <SCORE.INTER>
-33.6077

>  <SCORE.INTER.CONST>
1

>  <SCORE.INTER.POLAR>
-3.36736

>  <SCORE.INTER.ROT>
8

>  <SCORE.INTER.SOLV>
44.2757

>  <SCORE.INTER.VDW>
-34.8725

>  <SCORE.INTER.norm>
-1.05024

>  <SCORE.INTRA>
-20.6694

>  <SCORE.INTRA.DIHEDRAL>
-42.329

>  <SCORE.INTRA.DIHEDRAL.0>
76.3625

>  <SCORE.INTRA.POLAR>
0

>  <SCORE.INTRA.POLAR.0>
0

>  <SCORE.INTRA.REPUL>
-0.12705

>  <SCORE.INTRA.REPUL.0>
0.12705

>  <SCORE.INTRA.SOLV>
-1.99758

>  <SCORE.INTRA.SOLV.lig_0>
-119.383

>  <SCORE.INTRA.VDW>
2.12914

>  <SCORE.INTRA.VDW.0>
-5.10464

>  <SCORE.INTRA.norm>
-0.645919

>  <SCORE.RESTR>
0.0104903

>  <SCORE.RESTR.CAVITY>
0.0104903

>  <SCORE.RESTR.norm>
0.000327822

>  <SCORE.SYSTEM>
0

>  <SCORE.SYSTEM.CONST>
0

>  <SCORE.SYSTEM.DIHEDRAL>
0

>  <SCORE.SYSTEM.SOLV>
0

>  <SCORE.SYSTEM.norm>
0

>  <SCORE.heavy>
32

>  <SCORE.norm>
-1.69583

>  <RMSD>
4.682

$$$$
2au4_lig
 OpenBabel11021811423D
libRbt.so/2013.1/901 2013/11/27
 32 34  0  0  0  0  0  0  0  0999 V2000
   66.3374   12.9670    0.9791 P   0  0  1  0  0  0  0  0  0  0  0  0
   68.6811   12.8018    2.3391 P   0  0  1  0  0  0  0  0  0  0  0  0
   70.1826   10.7481    1.3549 P   0  0  2  0  0  0  0  0  0  0  0  0
   66.2446   10.3285    0.7336 C   0  0  0  0  0  0  0  0  0  0  0  0
   66.0972   11.4891    1.5685 O   0  0  0  0  0  0  0  0  0  0  0  0
   66.0963    9.0293    1.5118 C   0  0  0  0  0  0  0  0  0  0  0  0
   65.3935    8.0447    0.7264 O   0  0  0  0  0  0  0  0  0  0  0  0
   67.4591    8.4625    1.8779 C   0  0  0  0  0  0  0  0  0  0  0  0
   67.6364    8.4331    3.2994 O   0  0  0  0  0  0  0  0  0  0  0  0
   67.5154    7.0706    1.2950 C   0  0  0  0  0  0  0  0  0  0  0  0
   67.7379    6.0886    2.3160 O   0  0  0  0  0  0  0  0  0  0  0  0
   66.1809    6.8409    0.6068 C   0  0  0  0  0  0  0  0  0  0  0  0
   69.2576    4.6357   -2.8192 N   0  0  0  0  0  0  0  0  0  0  0  0
   65.8769   12.9950   -0.4237 O   0  5  0  0  0  0  0  0  0  0  0  0
   69.9733   13.5138    2.3023 O   0  5  0  0  0  0  0  0  0  0  0  0
   71.4392   11.1562    2.0150 O   0  5  0  0  0  0  0  0  0  0  0  0
   69.4326    4.7960   -1.4652 C   0  0  1  0  0  0  0  0  0  0  0  0
   70.5610    4.3183   -0.9576 N   0  0  0  0  0  0  0  0  0  0  0  0
   65.8164   13.9529    1.9500 O   0  0  0  0  0  0  0  0  0  0  0  0
   67.7353   13.0389    3.4494 O   0  0  0  0  0  0  0  0  0  0  0  0
   69.9081   11.1665   -0.0356 O   0  0  0  0  0  0  0  0  0  0  0  0
   68.5490    5.3933   -0.6694 N   0  0  0  0  0  0  0  0  0  0  0  0
   67.9209   13.0804    0.9749 O   0  0  0  0  0  0  0  0  0  0  0  0
   68.9693   11.2410    2.2614 O   0  0  0  0  0  0  0  0  0  0  0  0
   70.0601    9.1486    1.4398 O   0  0  0  0  0  0  0  0  0  0  0  0
   67.4610    5.8241   -1.3487 C   0  0  2  0  0  0  0  0  0  0  0  0
   67.2054    5.7042   -2.7052 C   0  0  2  0  0  0  0  0  0  0  0  0
   68.1568    5.0659   -3.5381 C   0  0  1  0  0  0  0  0  0  0  0  0
   68.1117    4.8932   -4.7487 O   0  0  0  0  0  0  0  0  0  0  0  0
   65.9714    6.2765   -3.0319 N   0  0  0  0  0  0  0  0  0  0  0  0
   65.5699    6.6970   -1.8770 C   0  0  0  0  0  0  0  0  0  0  0  0
   66.3791    6.4796   -0.8104 N   0  0  0  0  0  0  0  0  0  0  0  0
  1  5  1  1  0  0  0
  1 14  1  0  0  0  0
  1 19  2  0  0  0  0
  2 15  1  1  0  0  0
  2 20  2  0  0  0  0
  2 23  1  0  0  0  0
  3 16  1  1  0  0  0
  3 21  2  0  0  0  0
  3 24  1  0  0  0  0
  3 25  1  0  0  0  0
  4  6  1  0  0  0  0
  5  4  1  0  0  0  0
  6  7  1  0  0  0  0
  6  8  2  0  0  0  0
  7 12  1  0  0  0  0
  8  9  1  0  0  0  0
  8 10  1  0  0  0  0
 10 11  1  0  0  0  0
 10 12  2  0  0  0  0
 12 32  1  0  0  0  0
 13 17  1  0  0  0  0
 17 18  1  6  0  0  0
 17 22  1  0  0  0  0
 23  1  1  0  0  0  0
 24  2  1  0  0  0  0
 26 22  1  6  0  0  0
 27 26  1  0  0  0  0
 27 28  1  0  0  0  0
 27 30  1  6  0  0  0
 28 13  1  0  0  0  0
 28 29  1  6  0  0  0
 31 30  1  0  0  0  0
 32 26  1  0  0  0  0
 32 31  1  0  0  0  0
M  CHG  3  14  -1  15  -1  16  -1
M  END
>  <CHROM.1>
34.74624502,-154.99253107,70.24512061,142.16179508,174.86213686,149.64214450
-54.33152721,-35.84686638,67.89452702,9.27349089,0.44992807,1.55974720,-0.31599550
0.48453735

>  <Name>
2au4_lig

>  <RI>
0

>  <Rbt.Current_Directory>
/home/itssahil/PROJECTS/Mol_Feturizer/New_Systems/rnas/2au4

>  <Rbt.Executable>
rbdock ($Id: //depot/dev/client3/rdock/2013.1/src/exe/rbdock.cxx#4 $)

>  <Rbt.Library>
libRbt.so (2013.1, Build901 2013/11/27)

>  <Rbt.Parameter_File>
/export/apps/rDock/src/rDock_2013.1_src/data/scripts/dock_solv.prm

>  <Rbt.Receptor>
prm/pocket_docking_5.prm

>  <SCORE>
-39.8467

>  <SCORE.INTER>
-13.0612

>  <SCORE.INTER.CONST>
1

>  <SCORE.INTER.POLAR>
-0.775493

>  <SCORE.INTER.ROT>
8

>  <SCORE.INTER.SOLV>
19.3568

>  <SCORE.INTER.VDW>
-21.5081

>  <SCORE.INTER.norm>
-0.408162

>  <SCORE.INTRA>
-26.7856

>  <SCORE.INTRA.DIHEDRAL>
-48.7581

>  <SCORE.INTRA.DIHEDRAL.0>
76.3625

>  <SCORE.INTRA.POLAR>
0

>  <SCORE.INTRA.POLAR.0>
0

>  <SCORE.INTRA.REPUL>
-0.12705

>  <SCORE.INTRA.REPUL.0>
0.12705

>  <SCORE.INTRA.SOLV>
-3.96007

>  <SCORE.INTRA.SOLV.lig_0>
-119.383

>  <SCORE.INTRA.VDW>
0.20878

>  <SCORE.INTRA.VDW.0>
-5.10464

>  <SCORE.INTRA.norm>
-0.837049

>  <SCORE.RESTR>
0

>  <SCORE.RESTR.CAVITY>
0

>  <SCORE.RESTR.norm>
0

>  <SCORE.SYSTEM>
0

>  <SCORE.SYSTEM.CONST>
0

>  <SCORE.SYSTEM.DIHEDRAL>
0

>  <SCORE.SYSTEM.SOLV>
0

>  <SCORE.SYSTEM.norm>
0

>  <SCORE.heavy>
32

>  <SCORE.norm>
-1.24521

>  <RMSD>
4.685

$$$$
2au4_lig
 OpenBabel11021811423D
libRbt.so/2013.1/901 2013/11/27
 32 34  0  0  0  0  0  0  0  0999 V2000
   68.8830   12.2968   -1.3052 P   0  0  1  0  0  0  0  0  0  0  0  0
   70.2759   11.7414    0.9577 P   0  0  1  0  0  0  0  0  0  0  0  0
   72.3572   13.4702    1.3045 P   0  0  2  0  0  0  0  0  0  0  0  0
   68.1394    9.8289   -1.9271 C   0  0  0  0  0  0  0  0  0  0  0  0
   68.1918   10.8864   -0.9553 O   0  0  0  0  0  0  0  0  0  0  0  0
   66.9946    8.8597   -1.6714 C   0  0  0  0  0  0  0  0  0  0  0  0
   67.4582    7.7097   -0.9346 O   0  0  0  0  0  0  0  0  0  0  0  0
   65.8922    9.5292   -0.8656 C   0  0  0  0  0  0  0  0  0  0  0  0
   64.6793    9.6082   -1.6243 O   0  0  0  0  0  0  0  0  0  0  0  0
   65.7015    8.6932    0.3774 C   0  0  0  0  0  0  0  0  0  0  0  0
   64.3566    8.2054    0.4738 O   0  0  0  0  0  0  0  0  0  0  0  0
   66.6872    7.5422    0.2740 C   0  0  0  0  0  0  0  0  0  0  0  0
   67.4565    9.1780    5.0489 N   0  0  0  0  0  0  0  0  0  0  0  0
   69.1405   12.3473   -2.7584 O   0  5  0  0  0  0  0  0  0  0  0  0
   69.4167   12.6780    1.7078 O   0  5  0  0  0  0  0  0  0  0  0  0
   71.5758   14.3187    2.2268 O   0  5  0  0  0  0  0  0  0  0  0  0
   66.4267    9.4635    4.1841 C   0  0  1  0  0  0  0  0  0  0  0  0
   65.4894   10.2852    4.6372 N   0  0  0  0  0  0  0  0  0  0  0  0
   68.1117   13.3756   -0.6513 O   0  0  0  0  0  0  0  0  0  0  0  0
   70.0134   10.2883    1.0127 O   0  0  0  0  0  0  0  0  0  0  0  0
   72.4568   13.8295   -0.1255 O   0  0  0  0  0  0  0  0  0  0  0  0
   66.3355    8.9698    2.9518 N   0  0  0  0  0  0  0  0  0  0  0  0
   70.2831   12.1846   -0.5654 O   0  0  0  0  0  0  0  0  0  0  0  0
   71.7834   11.9873    1.3963 O   0  0  0  0  0  0  0  0  0  0  0  0
   73.8427   13.3114    1.8950 O   0  0  0  0  0  0  0  0  0  0  0  0
   67.3738    8.1562    2.6506 C   0  0  2  0  0  0  0  0  0  0  0  0
   68.4471    7.8161    3.4582 C   0  0  2  0  0  0  0  0  0  0  0  0
   68.5290    8.3509    4.7672 C   0  0  1  0  0  0  0  0  0  0  0  0
   69.4070    8.1824    5.6029 O   0  0  0  0  0  0  0  0  0  0  0  0
   69.3183    6.9493    2.7898 N   0  0  0  0  0  0  0  0  0  0  0  0
   68.7284    6.8248    1.6459 C   0  0  0  0  0  0  0  0  0  0  0  0
   67.5668    7.4995    1.4584 N   0  0  0  0  0  0  0  0  0  0  0  0
  1  5  1  1  0  0  0
  1 14  1  0  0  0  0
  1 19  2  0  0  0  0
  2 15  1  1  0  0  0
  2 20  2  0  0  0  0
  2 23  1  0  0  0  0
  3 16  1  1  0  0  0
  3 21  2  0  0  0  0
  3 24  1  0  0  0  0
  3 25  1  0  0  0  0
  4  6  1  0  0  0  0
  5  4  1  0  0  0  0
  6  7  1  0  0  0  0
  6  8  2  0  0  0  0
  7 12  1  0  0  0  0
  8  9  1  0  0  0  0
  8 10  1  0  0  0  0
 10 11  1  0  0  0  0
 10 12  2  0  0  0  0
 12 32  1  0  0  0  0
 13 17  1  0  0  0  0
 17 18  1  6  0  0  0
 17 22  1  0  0  0  0
 23  1  1  0  0  0  0
 24  2  1  0  0  0  0
 26 22  1  6  0  0  0
 27 26  1  0  0  0  0
 27 28  1  0  0  0  0
 27 30  1  6  0  0  0
 28 13  1  0  0  0  0
 28 29  1  6  0  0  0
 31 30  1  0  0  0  0
 32 26  1  0  0  0  0
 32 31  1  0  0  0  0
M  CHG  3  14  -1  15  -1  16  -1
M  END
>  <CHROM.1>
11.24309149,-56.32447438,62.67182536,-96.30591166,-155.52341736,135.31863569
-50.07545143,-53.43798619,68.76496725,10.47185379,1.05381913,0.49141317,-0.67239616
-1.11722631

>  <Name>
2au4_lig

>  <RI>
0

>  <Rbt.Current_Directory>
/home/itssahil/PROJECTS/Mol_Feturizer/New_Systems/rnas/2au4

>  <Rbt.Executable>
rbdock ($Id: //depot/dev/client3/rdock/2013.1/src/exe/rbdock.cxx#4 $)

>  <Rbt.Library>
libRbt.so (2013.1, Build901 2013/11/27)

>  <Rbt.Parameter_File>
/export/apps/rDock/src/rDock_2013.1_src/data/scripts/dock_solv.prm

>  <Rbt.Receptor>
prm/pocket_docking_4.prm

>  <SCORE>
-40.2554

>  <SCORE.INTER>
-17.8944

>  <SCORE.INTER.CONST>
1

>  <SCORE.INTER.POLAR>
-1.72131

>  <SCORE.INTER.ROT>
8

>  <SCORE.INTER.SOLV>
25.1359

>  <SCORE.INTER.VDW>
-23.5038

>  <SCORE.INTER.norm>
-0.559199

>  <SCORE.INTRA>
-22.3639

>  <SCORE.INTRA.DIHEDRAL>
-43.2076

>  <SCORE.INTRA.DIHEDRAL.0>
76.3625

>  <SCORE.INTRA.POLAR>
0

>  <SCORE.INTRA.POLAR.0>
0

>  <SCORE.INTRA.REPUL>
-0.12705

>  <SCORE.INTRA.REPUL.0>
0.12705

>  <SCORE.INTRA.SOLV>
-2.19481

>  <SCORE.INTRA.SOLV.lig_0>
-119.383

>  <SCORE.INTRA.VDW>
0.972601

>  <SCORE.INTRA.VDW.0>
-5.10464

>  <SCORE.INTRA.norm>
-0.69887

>  <SCORE.RESTR>
0.00285131

>  <SCORE.RESTR.CAVITY>
0.00285131

>  <SCORE.RESTR.norm>
8.91033e-05

>  <SCORE.SYSTEM>
0

>  <SCORE.SYSTEM.CONST>
0

>  <SCORE.SYSTEM.DIHEDRAL>
0

>  <SCORE.SYSTEM.SOLV>
0

>  <SCORE.SYSTEM.norm>
0

>  <SCORE.heavy>
32

>  <SCORE.norm>
-1.25798

>  <RMSD>
4.729

$$$$
2au4_lig
 OpenBabel11021811423D
libRbt.so/2013.1/901 2013/11/27
 32 34  0  0  0  0  0  0  0  0999 V2000
   68.7694   11.5320    0.3721 P   0  0  1  0  0  0  0  0  0  0  0  0
   71.1103   10.9150    1.6005 P   0  0  1  0  0  0  0  0  0  0  0  0
   72.5438   13.0764    0.7553 P   0  0  2  0  0  0  0  0  0  0  0  0
   67.3387    9.9304    1.9273 C   0  0  0  0  0  0  0  0  0  0  0  0
   68.2247   10.0812    0.8057 O   0  0  0  0  0  0  0  0  0  0  0  0
   67.4354    8.5517    2.5640 C   0  0  0  0  0  0  0  0  0  0  0  0
   66.5855    7.6132    1.8734 O   0  0  0  0  0  0  0  0  0  0  0  0
   68.8634    8.0319    2.5083 C   0  0  0  0  0  0  0  0  0  0  0  0
   69.4002    7.8673    3.8265 O   0  0  0  0  0  0  0  0  0  0  0  0
   68.8113    6.7129    1.7748 C   0  0  0  0  0  0  0  0  0  0  0  0
   69.3186    5.6463    2.5879 O   0  0  0  0  0  0  0  0  0  0  0  0
   67.3527    6.4767    1.4229 C   0  0  0  0  0  0  0  0  0  0  0  0
   69.3936    4.5590   -2.8461 N   0  0  0  0  0  0  0  0  0  0  0  0
   69.4959   11.3993   -0.9067 O   0  5  0  0  0  0  0  0  0  0  0  0
   71.7060   11.0787    2.9408 O   0  5  0  0  0  0  0  0  0  0  0  0
   71.3605   13.8443    1.1926 O   0  5  0  0  0  0  0  0  0  0  0  0
   69.8882    4.5529   -1.5635 C   0  0  1  0  0  0  0  0  0  0  0  0
   71.0683    3.9724   -1.3914 N   0  0  0  0  0  0  0  0  0  0  0  0
   67.6660   12.5079    0.4997 O   0  0  0  0  0  0  0  0  0  0  0  0
   70.7321    9.5711    1.1164 O   0  0  0  0  0  0  0  0  0  0  0  0
   73.3013   13.5024   -0.4400 O   0  0  0  0  0  0  0  0  0  0  0  0
   69.2560    5.0898   -0.5230 N   0  0  0  0  0  0  0  0  0  0  0  0
   69.8331   11.8512    1.5064 O   0  0  0  0  0  0  0  0  0  0  0  0
   72.0940   11.5645    0.5348 O   0  0  0  0  0  0  0  0  0  0  0  0
   73.5630   12.9650    1.9920 O   0  0  0  0  0  0  0  0  0  0  0  0
   68.0722    5.6420   -0.8755 C   0  0  2  0  0  0  0  0  0  0  0  0
   67.5014    5.6918   -2.1370 C   0  0  2  0  0  0  0  0  0  0  0  0
   68.1880    5.1157   -3.2339 C   0  0  1  0  0  0  0  0  0  0  0  0
   67.8518    5.0874   -4.4102 O   0  0  0  0  0  0  0  0  0  0  0  0
   66.2673    6.3495   -2.0997 N   0  0  0  0  0  0  0  0  0  0  0  0
   66.1741    6.6489   -0.8453 C   0  0  0  0  0  0  0  0  0  0  0  0
   67.1918    6.2751   -0.0303 N   0  0  0  0  0  0  0  0  0  0  0  0
  1  5  1  1  0  0  0
  1 14  1  0  0  0  0
  1 19  2  0  0  0  0
  2 15  1  1  0  0  0
  2 20  2  0  0  0  0
  2 23  1  0  0  0  0
  3 16  1  1  0  0  0
  3 21  2  0  0  0  0
  3 24  1  0  0  0  0
  3 25  1  0  0  0  0
  4  6  1  0  0  0  0
  5  4  1  0  0  0  0
  6  7  1  0  0  0  0
  6  8  2  0  0  0  0
  7 12  1  0  0  0  0
  8  9  1  0  0  0  0
  8 10  1  0  0  0  0
 10 11  1  0  0  0  0
 10 12  2  0  0  0  0
 12 32  1  0  0  0  0
 13 17  1  0  0  0  0
 17 18  1  6  0  0  0
 17 22  1  0  0  0  0
 23  1  1  0  0  0  0
 24  2  1  0  0  0  0
 26 22  1  6  0  0  0
 27 26  1  0  0  0  0
 27 28  1  0  0  0  0
 27 30  1  6  0  0  0
 28 13  1  0  0  0  0
 28 29  1  6  0  0  0
 31 30  1  0  0  0  0
 32 26  1  0  0  0  0
 32 31  1  0  0  0  0
M  CHG  3  14  -1  15  -1  16  -1
M  END
>  <CHROM.1>
-172.26379823,-161.16554736,-41.70378882,-84.91397274,-153.85533564,155.53890653
64.29671845,-54.01132776,69.48250778,9.01672908,0.40905568,0.96108771,0.75628553
0.77804425

>  <Name>
2au4_lig

>  <RI>
0

>  <Rbt.Current_Directory>
/home/itssahil/PROJECTS/Mol_Feturizer/New_Systems/rnas/2au4

>  <Rbt.Executable>
rbdock ($Id: //depot/dev/client3/rdock/2013.1/src/exe/rbdock.cxx#4 $)

>  <Rbt.Library>
libRbt.so (2013.1, Build901 2013/11/27)

>  <Rbt.Parameter_File>
/export/apps/rDock/src/rDock_2013.1_src/data/scripts/dock_solv.prm

>  <Rbt.Receptor>
prm/pocket_docking_2.prm

>  <SCORE>
-36.3346

>  <SCORE.INTER>
-17.3741

>  <SCORE.INTER.CONST>
1

>  <SCORE.INTER.POLAR>
-1.49956

>  <SCORE.INTER.ROT>
8

>  <SCORE.INTER.SOLV>
26.1613

>  <SCORE.INTER.VDW>
-24.238

>  <SCORE.INTER.norm>
-0.542942

>  <SCORE.INTRA>
-23.5744

>  <SCORE.INTRA.DIHEDRAL>
-46.3735

>  <SCORE.INTRA.DIHEDRAL.0>
76.3625

>  <SCORE.INTRA.POLAR>
0

>  <SCORE.INTRA.POLAR.0>
0

>  <SCORE.INTRA.REPUL>
-0.12705

>  <SCORE.INTRA.REPUL.0>
0.12705

>  <SCORE.INTRA.SOLV>
-1.24953

>  <SCORE.INTRA.SOLV.lig_0>
-119.383

>  <SCORE.INTRA.VDW>
0.872402

>  <SCORE.INTRA.VDW.0>
-5.10464

>  <SCORE.INTRA.norm>
-0.736698

>  <SCORE.RESTR>
4.6139

>  <SCORE.RESTR.CAVITY>
4.6139

>  <SCORE.RESTR.norm>
0.144184

>  <SCORE.SYSTEM>
0

>  <SCORE.SYSTEM.CONST>
0

>  <SCORE.SYSTEM.DIHEDRAL>
0

>  <SCORE.SYSTEM.SOLV>
0

>  <SCORE.SYSTEM.norm>
0

>  <SCORE.heavy>
32

>  <SCORE.norm>
-1.13546

>  <RMSD>
4.744

$$$$
2au4_lig
 OpenBabel11021811423D
libRbt.so/2013.1/901 2013/11/27
 32 34  0  0  0  0  0  0  0  0999 V2000
   66.7812   12.4183    0.7768 P   0  0  1  0  0  0  0  0  0  0  0  0
   68.0580   11.0562   -1.1940 P   0  0  1  0  0  0  0  0  0  0  0  0
   69.9877    9.7074    0.1835 P   0  0  2  0  0  0  0  0  0  0  0  0
   65.6863   10.0058    0.8854 C   0  0  0  0  0  0  0  0  0  0  0  0
   66.6538   10.9383    1.3955 O   0  0  0  0  0  0  0  0  0  0  0  0
   65.7430    8.6614    1.5959 C   0  0  0  0  0  0  0  0  0  0  0  0
   65.1620    7.6283    0.7741 O   0  0  0  0  0  0  0  0  0  0  0  0
   67.1815    8.2743    1.9018 C   0  0  0  0  0  0  0  0  0  0  0  0
   67.4019    8.1992    3.3155 O   0  0  0  0  0  0  0  0  0  0  0  0
   67.4144    6.9351    1.2441 C   0  0  0  0  0  0  0  0  0  0  0  0
   67.8008    5.9444    2.2060 O   0  0  0  0  0  0  0  0  0  0  0  0
   66.1057    6.5547    0.5734 C   0  0  0  0  0  0  0  0  0  0  0  0
   69.2581    4.7203   -2.9992 N   0  0  0  0  0  0  0  0  0  0  0  0
   65.4925   13.1164    0.9568 O   0  5  0  0  0  0  0  0  0  0  0  0
   67.3663    9.7951   -1.5248 O   0  5  0  0  0  0  0  0  0  0  0  0
   71.3074   10.3686    0.1334 O   0  5  0  0  0  0  0  0  0  0  0  0
   69.4338    4.7995   -1.6381 C   0  0  1  0  0  0  0  0  0  0  0  0
   70.5856    4.3413   -1.1665 N   0  0  0  0  0  0  0  0  0  0  0  0
   68.0318   13.0313    1.2732 O   0  0  0  0  0  0  0  0  0  0  0  0
   68.9631   11.6854   -2.1780 O   0  0  0  0  0  0  0  0  0  0  0  0
   69.6301    8.6930   -0.8299 O   0  0  0  0  0  0  0  0  0  0  0  0
   68.5289    5.3027   -0.8022 N   0  0  0  0  0  0  0  0  0  0  0  0
   66.9656   12.1266   -0.7727 O   0  0  0  0  0  0  0  0  0  0  0  0
   68.8692   10.8409    0.1554 O   0  0  0  0  0  0  0  0  0  0  0  0
   69.7984    9.0603    1.6416 O   0  0  0  0  0  0  0  0  0  0  0  0
   67.4186    5.7272   -1.4485 C   0  0  2  0  0  0  0  0  0  0  0  0
   67.1605    5.6847   -2.8091 C   0  0  2  0  0  0  0  0  0  0  0  0
   68.1347    5.1461   -3.6850 C   0  0  1  0  0  0  0  0  0  0  0  0
   68.0902    5.0511   -4.9042 O   0  0  0  0  0  0  0  0  0  0  0  0
   65.8999    6.2205   -3.0939 N   0  0  0  0  0  0  0  0  0  0  0  0
   65.4868    6.5459   -1.9126 C   0  0  0  0  0  0  0  0  0  0  0  0
   66.3114    6.2963   -0.8650 N   0  0  0  0  0  0  0  0  0  0  0  0
  1  5  1  1  0  0  0
  1 14  1  0  0  0  0
  1 19  2  0  0  0  0
  2 15  1  6  0  0  0
  2 20  2  0  0  0  0
  2 23  1  0  0  0  0
  3 16  1  6  0  0  0
  3 21  2  0  0  0  0
  3 24  1  0  0  0  0
  3 25  1  0  0  0  0
  4  6  1  0  0  0  0
  5  4  1  0  0  0  0
  6  7  1  0  0  0  0
  6  8  2  0  0  0  0
  7 12  1  0  0  0  0
  8  9  1  0  0  0  0
  8 10  1  0  0  0  0
 10 11  1  0  0  0  0
 10 12  2  0  0  0  0
 12 32  1  0  0  0  0
 13 17  1  0  0  0  0
 17 18  1  6  0  0  0
 17 22  1  0  0  0  0
 23  1  1  0  0  0  0
 24  2  1  0  0  0  0
 26 22  1  6  0  0  0
 27 26  1  0  0  0  0
 27 28  1  0  0  0  0
 27 30  1  6  0  0  0
 28 13  1  0  0  0  0
 28 29  1  6  0  0  0
 31 30  1  0  0  0  0
 32 26  1  0  0  0  0
 32 31  1  0  0  0  0
M  CHG  3  14  -1  15  -1  16  -1
M  END
>  <CHROM.1>
60.43800431,102.08090607,105.31651778,-158.28996277,179.28586859,155.27820301
-49.34716326,59.72691173,67.79385936,8.66503200,-0.35194991,1.69005904,0.77504598
0.32032168

>  <Name>
2au4_lig

>  <RI>
0

>  <Rbt.Current_Directory>
/home/itssahil/PROJECTS/Mol_Feturizer/New_Systems/rnas/2au4

>  <Rbt.Executable>
rbdock ($Id: //depot/dev/client3/rdock/2013.1/src/exe/rbdock.cxx#4 $)

>  <Rbt.Library>
libRbt.so (2013.1, Build901 2013/11/27)

>  <Rbt.Parameter_File>
/export/apps/rDock/src/rDock_2013.1_src/data/scripts/dock_solv.prm

>  <Rbt.Receptor>
prm/pocket_docking_3.prm

>  <SCORE>
-37.4803

>  <SCORE.INTER>
-14.8618

>  <SCORE.INTER.CONST>
1

>  <SCORE.INTER.POLAR>
-1.16308

>  <SCORE.INTER.ROT>
8

>  <SCORE.INTER.SOLV>
32.9462

>  <SCORE.INTER.VDW>
-25.9463

>  <SCORE.INTER.norm>
-0.46443

>  <SCORE.INTRA>
-22.8559

>  <SCORE.INTRA.DIHEDRAL>
-46.5216

>  <SCORE.INTRA.DIHEDRAL.0>
76.3625

>  <SCORE.INTRA.POLAR>
0

>  <SCORE.INTRA.POLAR.0>
0

>  <SCORE.INTRA.REPUL>
-0.12705

>  <SCORE.INTRA.REPUL.0>
0.12705

>  <SCORE.INTRA.SOLV>
0.949776

>  <SCORE.INTRA.SOLV.lig_0>
-119.383

>  <SCORE.INTRA.VDW>
0.565278

>  <SCORE.INTRA.VDW.0>
-5.10464

>  <SCORE.INTRA.norm>
-0.714246

>  <SCORE.RESTR>
0.237385

>  <SCORE.RESTR.CAVITY>
0.237385

>  <SCORE.RESTR.norm>
0.00741827

>  <SCORE.SYSTEM>
0

>  <SCORE.SYSTEM.CONST>
0

>  <SCORE.SYSTEM.DIHEDRAL>
0

>  <SCORE.SYSTEM.SOLV>
0

>  <SCORE.SYSTEM.norm>
0

>  <SCORE.heavy>
32

>  <SCORE.norm>
-1.17126

>  <RMSD>
4.749

$$$$
2au4_lig
 OpenBabel11021811423D
libRbt.so/2013.1/901 2013/11/27
 32 34  0  0  0  0  0  0  0  0999 V2000
   67.2178   12.1669    0.0233 P   0  0  1  0  0  0  0  0  0  0  0  0
   69.5264   12.2515    1.4491 P   0  0  1  0  0  0  0  0  0  0  0  0
   70.0672   10.3023    3.2792 P   0  0  2  0  0  0  0  0  0  0  0  0
   65.8165   10.0106    0.6691 C   0  0  0  0  0  0  0  0  0  0  0  0
   67.0250   10.7758    0.8089 O   0  0  0  0  0  0  0  0  0  0  0  0
   65.8583    8.7081    1.4547 C   0  0  0  0  0  0  0  0  0  0  0  0
   65.2731    7.6348    0.6893 O   0  0  0  0  0  0  0  0  0  0  0  0
   67.2919    8.3275    1.7902 C   0  0  0  0  0  0  0  0  0  0  0  0
   67.5043    8.3306    3.2072 O   0  0  0  0  0  0  0  0  0  0  0  0
   67.5172    6.9514    1.2105 C   0  0  0  0  0  0  0  0  0  0  0  0
   67.8904    6.0136    2.2291 O   0  0  0  0  0  0  0  0  0  0  0  0
   66.2089    6.5442    0.5549 C   0  0  0  0  0  0  0  0  0  0  0  0
   69.3807    4.5205   -2.8963 N   0  0  0  0  0  0  0  0  0  0  0  0
   67.9429   11.9004   -1.2353 O   0  5  0  0  0  0  0  0  0  0  0  0
   69.9996   11.3977    0.3423 O   0  5  0  0  0  0  0  0  0  0  0  0
   69.4494    9.7282    4.4916 O   0  5  0  0  0  0  0  0  0  0  0  0
   69.5521    4.6799   -1.5417 C   0  0  1  0  0  0  0  0  0  0  0  0
   70.7049    4.2561   -1.0412 N   0  0  0  0  0  0  0  0  0  0  0  0
   65.9212   12.8770   -0.0046 O   0  0  0  0  0  0  0  0  0  0  0  0
   70.4210   13.2729    2.0322 O   0  0  0  0  0  0  0  0  0  0  0  0
   71.3683   10.9972    3.3706 O   0  0  0  0  0  0  0  0  0  0  0  0
   68.6424    5.2265   -0.7390 N   0  0  0  0  0  0  0  0  0  0  0  0
   68.1909   12.9714    0.9857 O   0  0  0  0  0  0  0  0  0  0  0  0
   69.0210   11.3094    2.6248 O   0  0  0  0  0  0  0  0  0  0  0  0
   70.1840    9.1449    2.1713 O   0  0  0  0  0  0  0  0  0  0  0  0
   67.5318    5.6067   -1.4118 C   0  0  2  0  0  0  0  0  0  0  0  0
   67.2778    5.4835   -2.7683 C   0  0  2  0  0  0  0  0  0  0  0  0
   68.2572    4.8997   -3.6087 C   0  0  1  0  0  0  0  0  0  0  0  0
   68.2166    4.7334   -4.8203 O   0  0  0  0  0  0  0  0  0  0  0  0
   66.0154    5.9952   -3.0871 N   0  0  0  0  0  0  0  0  0  0  0  0
   65.5973    6.3869   -1.9279 C   0  0  0  0  0  0  0  0  0  0  0  0
   66.4201    6.2032   -0.8654 N   0  0  0  0  0  0  0  0  0  0  0  0
  1  5  1  1  0  0  0
  1 14  1  0  0  0  0
  1 19  2  0  0  0  0
  2 15  1  6  0  0  0
  2 20  2  0  0  0  0
  2 23  1  0  0  0  0
  3 16  1  1  0  0  0
  3 21  2  0  0  0  0
  3 24  1  0  0  0  0
  3 25  1  0  0  0  0
  4  6  1  0  0  0  0
  5  4  1  0  0  0  0
  6  7  1  0  0  0  0
  6  8  2  0  0  0  0
  7 12  1  0  0  0  0
  8  9  1  0  0  0  0
  8 10  1  0  0  0  0
 10 11  1  0  0  0  0
 10 12  2  0  0  0  0
 12 32  1  0  0  0  0
 13 17  1  0  0  0  0
 17 18  1  6  0  0  0
 17 22  1  0  0  0  0
 23  1  1  0  0  0  0
 24  2  1  0  0  0  0
 26 22  1  6  0  0  0
 27 26  1  0  0  0  0
 27 28  1  0  0  0  0
 27 30  1  6  0  0  0
 28 13  1  0  0  0  0
 28 29  1  6  0  0  0
 31 30  1  0  0  0  0
 32 26  1  0  0  0  0
 32 31  1  0  0  0  0
M  CHG  3  14  -1  15  -1  16  -1
M  END
>  <CHROM.1>
-94.95031087,34.15474796,169.62310045,-139.16912195,177.94174336,154.49788924
51.91333820,60.26001742,68.17099803,8.86310240,0.42250110,1.33355675,-0.82770526
0.38235252

>  <Name>
2au4_lig

>  <RI>
0

>  <Rbt.Current_Directory>
/home/itssahil/PROJECTS/Mol_Feturizer/New_Systems/rnas/2au4

>  <Rbt.Executable>
rbdock ($Id: //depot/dev/client3/rdock/2013.1/src/exe/rbdock.cxx#4 $)

>  <Rbt.Library>
libRbt.so (2013.1, Build901 2013/11/27)

>  <Rbt.Parameter_File>
/export/apps/rDock/src/rDock_2013.1_src/data/scripts/dock_solv.prm

>  <Rbt.Receptor>
prm/pocket_docking_3.prm

>  <SCORE>
-40.8587

>  <SCORE.INTER>
-13.919

>  <SCORE.INTER.CONST>
1

>  <SCORE.INTER.POLAR>
-0.8

>  <SCORE.INTER.ROT>
8

>  <SCORE.INTER.SOLV>
22.025

>  <SCORE.INTER.VDW>
-22.8877

>  <SCORE.INTER.norm>
-0.43497

>  <SCORE.INTRA>
-27.2192

>  <SCORE.INTRA.DIHEDRAL>
-48.7695

>  <SCORE.INTRA.DIHEDRAL.0>
76.3625

>  <SCORE.INTRA.POLAR>
0

>  <SCORE.INTRA.POLAR.0>
0

>  <SCORE.INTRA.REPUL>
-0.12705

>  <SCORE.INTRA.REPUL.0>
0.12705

>  <SCORE.INTRA.SOLV>
-5.23472

>  <SCORE.INTRA.SOLV.lig_0>
-119.383

>  <SCORE.INTRA.VDW>
0.418165

>  <SCORE.INTRA.VDW.0>
-5.10464

>  <SCORE.INTRA.norm>
-0.850599

>  <SCORE.RESTR>
0.279507

>  <SCORE.RESTR.CAVITY>
0.279507

>  <SCORE.RESTR.norm>
0.00873461

>  <SCORE.SYSTEM>
0

>  <SCORE.SYSTEM.CONST>
0

>  <SCORE.SYSTEM.DIHEDRAL>
0

>  <SCORE.SYSTEM.SOLV>
0

>  <SCORE.SYSTEM.norm>
0

>  <SCORE.heavy>
32

>  <SCORE.norm>
-1.27683

>  <RMSD>
4.756

$$$$
2au4_lig
 OpenBabel11021811423D
libRbt.so/2013.1/901 2013/11/27
 32 34  0  0  0  0  0  0  0  0999 V2000
   67.9659   11.8653   -0.8815 P   0  0  1  0  0  0  0  0  0  0  0  0
   70.1092   11.4790    0.7390 P   0  0  1  0  0  0  0  0  0  0  0  0
   69.8998   10.3978    3.2346 P   0  0  2  0  0  0  0  0  0  0  0  0
   66.0379   10.5198    0.3444 C   0  0  0  0  0  0  0  0  0  0  0  0
   67.4437   10.7280    0.1300 O   0  0  0  0  0  0  0  0  0  0  0  0
   65.7542    9.2828    1.1840 C   0  0  0  0  0  0  0  0  0  0  0  0
   65.1113    8.2659    0.3883 O   0  0  0  0  0  0  0  0  0  0  0  0
   67.0444    8.7047    1.7441 C   0  0  0  0  0  0  0  0  0  0  0  0
   67.0557    8.7698    3.1754 O   0  0  0  0  0  0  0  0  0  0  0  0
   67.1170    7.2745    1.2651 C   0  0  0  0  0  0  0  0  0  0  0  0
   67.1849    6.3604    2.3678 O   0  0  0  0  0  0  0  0  0  0  0  0
   65.8632    7.0351    0.4419 C   0  0  0  0  0  0  0  0  0  0  0  0
   69.3151    4.6622   -2.4772 N   0  0  0  0  0  0  0  0  0  0  0  0
   68.4786   11.2107   -2.1019 O   0  5  0  0  0  0  0  0  0  0  0  0
   70.1416   10.1820    0.0355 O   0  5  0  0  0  0  0  0  0  0  0  0
   68.9556   10.3943    4.3703 O   0  5  0  0  0  0  0  0  0  0  0  0
   69.3502    4.9331   -1.1300 C   0  0  1  0  0  0  0  0  0  0  0  0
   70.4326    4.5306   -0.4775 N   0  0  0  0  0  0  0  0  0  0  0  0
   66.9318   12.9173   -0.9834 O   0  0  0  0  0  0  0  0  0  0  0  0
   71.3704   12.1725    1.0737 O   0  0  0  0  0  0  0  0  0  0  0  0
   71.2989   10.8282    3.4377 O   0  0  0  0  0  0  0  0  0  0  0  0
   68.3785    5.5639   -0.4754 N   0  0  0  0  0  0  0  0  0  0  0  0
   69.2044   12.4767   -0.0990 O   0  0  0  0  0  0  0  0  0  0  0  0
   69.2748   11.2986    2.0793 O   0  0  0  0  0  0  0  0  0  0  0  0
   69.9075    8.9329    2.5753 O   0  0  0  0  0  0  0  0  0  0  0  0
   67.3546    5.9074   -1.2904 C   0  0  2  0  0  0  0  0  0  0  0  0
   67.2386    5.6741   -2.6513 C   0  0  2  0  0  0  0  0  0  0  0  0
   68.2823    5.0016   -3.3328 C   0  0  1  0  0  0  0  0  0  0  0  0
   68.3623    4.7335   -4.5241 O   0  0  0  0  0  0  0  0  0  0  0  0
   66.0310    6.1818   -3.1424 N   0  0  0  0  0  0  0  0  0  0  0  0
   65.5068    6.6790   -2.0700 C   0  0  0  0  0  0  0  0  0  0  0  0
   66.2100    6.5702   -0.9153 N   0  0  0  0  0  0  0  0  0  0  0  0
  1  5  1  1  0  0  0
  1 14  1  0  0  0  0
  1 19  2  0  0  0  0
  2 15  1  6  0  0  0
  2 20  2  0  0  0  0
  2 23  1  0  0  0  0
  3 16  1  1  0  0  0
  3 21  2  0  0  0  0
  3 24  1  0  0  0  0
  3 25  1  0  0  0  0
  4  6  1  0  0  0  0
  5  4  1  0  0  0  0
  6  7  1  0  0  0  0
  6  8  2  0  0  0  0
  7 12  1  0  0  0  0
  8  9  1  0  0  0  0
  8 10  1  0  0  0  0
 10 11  1  0  0  0  0
 10 12  2  0  0  0  0
 12 32  1  0  0  0  0
 13 17  1  0  0  0  0
 17 18  1  6  0  0  0
 17 22  1  0  0  0  0
 23  1  1  0  0  0  0
 24  2  1  0  0  0  0
 26 22  1  6  0  0  0
 27 26  1  0  0  0  0
 27 28  1  0  0  0  0
 27 30  1  6  0  0  0
 28 13  1  0  0  0  0
 28 29  1  6  0  0  0
 31 30  1  0  0  0  0
 32 26  1  0  0  0  0
 32 31  1  0  0  0  0
M  CHG  3  14  -1  15  -1  16  -1
M  END
>  <CHROM.1>
-106.78910961,33.54034615,179.41403403,-111.80550017,172.19492648,146.08843020
36.97878154,68.48644032,68.25921661,8.86776542,0.20139056,0.91697862,-1.13634144
-0.03578635

>  <Name>
2au4_lig

>  <RI>
0

>  <Rbt.Current_Directory>
/home/itssahil/PROJECTS/Mol_Feturizer/New_Systems/rnas/2au4

>  <Rbt.Executable>
rbdock ($Id: //depot/dev/client3/rdock/2013.1/src/exe/rbdock.cxx#4 $)

>  <Rbt.Library>
libRbt.so (2013.1, Build901 2013/11/27)

>  <Rbt.Parameter_File>
/export/apps/rDock/src/rDock_2013.1_src/data/scripts/dock_solv.prm

>  <Rbt.Receptor>
prm/pocket_docking_3.prm

>  <SCORE>
-43.0194

>  <SCORE.INTER>
-16.7681

>  <SCORE.INTER.CONST>
1

>  <SCORE.INTER.POLAR>
-1.32335

>  <SCORE.INTER.ROT>
8

>  <SCORE.INTER.SOLV>
25.8079

>  <SCORE.INTER.VDW>
-24.3035

>  <SCORE.INTER.norm>
-0.524002

>  <SCORE.INTRA>
-26.2533

>  <SCORE.INTRA.DIHEDRAL>
-47.5759

>  <SCORE.INTRA.DIHEDRAL.0>
76.3625

>  <SCORE.INTRA.POLAR>
0

>  <SCORE.INTRA.POLAR.0>
0

>  <SCORE.INTRA.REPUL>
-0.12705

>  <SCORE.INTRA.REPUL.0>
0.12705

>  <SCORE.INTRA.SOLV>
-4.81459

>  <SCORE.INTRA.SOLV.lig_0>
-119.383

>  <SCORE.INTRA.VDW>
0.577214

>  <SCORE.INTRA.VDW.0>
-5.10464

>  <SCORE.INTRA.norm>
-0.820414

>  <SCORE.RESTR>
0.00190785

>  <SCORE.RESTR.CAVITY>
0.00190785

>  <SCORE.RESTR.norm>
5.96202e-05

>  <SCORE.SYSTEM>
0

>  <SCORE.SYSTEM.CONST>
0

>  <SCORE.SYSTEM.DIHEDRAL>
0

>  <SCORE.SYSTEM.SOLV>
0

>  <SCORE.SYSTEM.norm>
0

>  <SCORE.heavy>
32

>  <SCORE.norm>
-1.34436

>  <RMSD>
4.789

$$$$
2au4_lig
 OpenBabel11021811423D
libRbt.so/2013.1/901 2013/11/27
 32 34  0  0  0  0  0  0  0  0999 V2000
   70.2783   11.8390    3.2806 P   0  0  1  0  0  0  0  0  0  0  0  0
   72.6460   12.1546    1.9907 P   0  0  1  0  0  0  0  0  0  0  0  0
   72.3054   13.2634   -0.4782 P   0  0  2  0  0  0  0  0  0  0  0  0
   69.5014   10.0405    1.4938 C   0  0  0  0  0  0  0  0  0  0  0  0
   69.4016   11.3771    2.0127 O   0  0  0  0  0  0  0  0  0  0  0  0
   68.4965    9.0923    2.1312 C   0  0  0  0  0  0  0  0  0  0  0  0
   68.2698    7.9480    1.2830 O   0  0  0  0  0  0  0  0  0  0  0  0
   69.0030    8.5956    3.4763 C   0  0  0  0  0  0  0  0  0  0  0  0
   68.1493    9.0361    4.5394 O   0  0  0  0  0  0  0  0  0  0  0  0
   69.0329    7.0881    3.3932 C   0  0  0  0  0  0  0  0  0  0  0  0
   68.2052    6.4959    4.4033 O   0  0  0  0  0  0  0  0  0  0  0  0
   68.5330    6.7264    2.0052 C   0  0  0  0  0  0  0  0  0  0  0  0
   70.3085    5.1940   -2.5297 N   0  0  0  0  0  0  0  0  0  0  0  0
   70.3603   13.3134    3.2844 O   0  5  0  0  0  0  0  0  0  0  0  0
   72.9498   13.4143    2.6971 O   0  5  0  0  0  0  0  0  0  0  0  0
   73.0406   14.4369    0.0354 O   0  5  0  0  0  0  0  0  0  0  0  0
   69.2738    6.0523   -2.2427 C   0  0  1  0  0  0  0  0  0  0  0  0
   68.6283    6.5634   -3.2825 N   0  0  0  0  0  0  0  0  0  0  0  0
   69.7917   11.1207    4.4778 O   0  0  0  0  0  0  0  0  0  0  0  0
   73.7442   11.3001    1.4934 O   0  0  0  0  0  0  0  0  0  0  0  0
   71.2319   13.4430   -1.4778 O   0  0  0  0  0  0  0  0  0  0  0  0
   68.9026    6.3784   -1.0071 N   0  0  0  0  0  0  0  0  0  0  0  0
   71.7179   11.2714    2.9261 O   0  0  0  0  0  0  0  0  0  0  0  0
   71.6874   12.4874    0.7678 O   0  0  0  0  0  0  0  0  0  0  0  0
   73.3707   12.2098   -1.0577 O   0  0  0  0  0  0  0  0  0  0  0  0
   69.6612    5.7662   -0.0689 C   0  0  2  0  0  0  0  0  0  0  0  0
   70.7173    4.8921   -0.2697 C   0  0  2  0  0  0  0  0  0  0  0  0
   71.0992    4.5552   -1.5914 C   0  0  1  0  0  0  0  0  0  0  0  0
   71.9819    3.7898   -1.9552 O   0  0  0  0  0  0  0  0  0  0  0  0
   71.2515    4.4673    0.9516 N   0  0  0  0  0  0  0  0  0  0  0  0
   70.4995    5.0980    1.7935 C   0  0  0  0  0  0  0  0  0  0  0  0
   69.5239    5.8963    1.2929 N   0  0  0  0  0  0  0  0  0  0  0  0
  1  5  1  6  0  0  0
  1 14  1  0  0  0  0
  1 19  2  0  0  0  0
  2 15  1  1  0  0  0
  2 20  2  0  0  0  0
  2 23  1  0  0  0  0
  3 16  1  1  0  0  0
  3 21  2  0  0  0  0
  3 24  1  0  0  0  0
  3 25  1  0  0  0  0
  4  6  1  0  0  0  0
  5  4  1  0  0  0  0
  6  7  1  0  0  0  0
  6  8  2  0  0  0  0
  7 12  1  0  0  0  0
  8  9  1  0  0  0  0
  8 10  1  0  0  0  0
 10 11  1  0  0  0  0
 10 12  2  0  0  0  0
 12 32  1  0  0  0  0
 13 17  1  0  0  0  0
 17 18  1  1  0  0  0
 17 22  1  0  0  0  0
 23  1  1  0  0  0  0
 24  2  1  0  0  0  0
 26 22  1  1  0  0  0
 27 26  1  0  0  0  0
 27 28  1  0  0  0  0
 27 30  1  1  0  0  0
 28 13  1  0  0  0  0
 28 29  1  1  0  0  0
 31 30  1  0  0  0  0
 32 26  1  0  0  0  0
 32 31  1  0  0  0  0
M  CHG  3  14  -1  15  -1  16  -1
M  END
>  <CHROM.1>
159.51863022,63.88529774,-49.40334626,158.49131573,90.88302112,-35.28988299
84.30132179,71.29231304,70.61255772,9.40939813,1.13219723,1.05867937,1.01286519
0.66583355

>  <Name>
2au4_lig

>  <RI>
0

>  <Rbt.Current_Directory>
/home/itssahil/PROJECTS/Mol_Feturizer/New_Systems/rnas/2au4

>  <Rbt.Executable>
rbdock ($Id: //depot/dev/client3/rdock/2013.1/src/exe/rbdock.cxx#4 $)

>  <Rbt.Library>
libRbt.so (2013.1, Build901 2013/11/27)

>  <Rbt.Parameter_File>
/export/apps/rDock/src/rDock_2013.1_src/data/scripts/dock_solv.prm

>  <Rbt.Receptor>
prm/pocket_docking_4.prm

>  <SCORE>
-44.1951

>  <SCORE.INTER>
-20.6955

>  <SCORE.INTER.CONST>
1

>  <SCORE.INTER.POLAR>
-1.25

>  <SCORE.INTER.ROT>
8

>  <SCORE.INTER.SOLV>
29.7974

>  <SCORE.INTER.VDW>
-28.4961

>  <SCORE.INTER.norm>
-0.646736

>  <SCORE.INTRA>
-23.4996

>  <SCORE.INTRA.DIHEDRAL>
-45.4246

>  <SCORE.INTRA.DIHEDRAL.0>
76.3625

>  <SCORE.INTRA.POLAR>
0

>  <SCORE.INTRA.POLAR.0>
0

>  <SCORE.INTRA.REPUL>
0.0422956

>  <SCORE.INTRA.REPUL.0>
0.12705

>  <SCORE.INTRA.SOLV>
-3.83317

>  <SCORE.INTRA.SOLV.lig_0>
-119.383

>  <SCORE.INTRA.VDW>
0.917813

>  <SCORE.INTRA.VDW.0>
-5.10464

>  <SCORE.INTRA.norm>
-0.734362

>  <SCORE.RESTR>
0

>  <SCORE.RESTR.CAVITY>
0

>  <SCORE.RESTR.norm>
0

>  <SCORE.SYSTEM>
0

>  <SCORE.SYSTEM.CONST>
0

>  <SCORE.SYSTEM.DIHEDRAL>
0

>  <SCORE.SYSTEM.SOLV>
0

>  <SCORE.SYSTEM.norm>
0

>  <SCORE.heavy>
32

>  <SCORE.norm>
-1.3811

>  <RMSD>
4.816

$$$$
2au4_lig
 OpenBabel11021811423D
libRbt.so/2013.1/901 2013/11/27
 32 34  0  0  0  0  0  0  0  0999 V2000
   66.4503   11.1588   -0.4414 P   0  0  1  0  0  0  0  0  0  0  0  0
   69.0239   11.9969   -0.6503 P   0  0  1  0  0  0  0  0  0  0  0  0
   70.4086   10.4057    1.0792 P   0  0  2  0  0  0  0  0  0  0  0  0
   67.0204   10.2656    1.9891 C   0  0  0  0  0  0  0  0  0  0  0  0
   66.7609    9.9768    0.6053 O   0  0  0  0  0  0  0  0  0  0  0  0
   66.7378    9.0759    2.8948 C   0  0  0  0  0  0  0  0  0  0  0  0
   66.5530    7.8769    2.1147 O   0  0  0  0  0  0  0  0  0  0  0  0
   67.8926    8.8452    3.8568 C   0  0  0  0  0  0  0  0  0  0  0  0
   67.4750    9.0377    5.2138 O   0  0  0  0  0  0  0  0  0  0  0  0
   68.3637    7.4286    3.6296 C   0  0  0  0  0  0  0  0  0  0  0  0
   68.2751    6.6527    4.8322 O   0  0  0  0  0  0  0  0  0  0  0  0
   67.4701    6.8494    2.5464 C   0  0  0  0  0  0  0  0  0  0  0  0
   67.6143    5.9129   -2.4704 N   0  0  0  0  0  0  0  0  0  0  0  0
   66.7220   10.6632   -1.8057 O   0  5  0  0  0  0  0  0  0  0  0  0
   68.9459   11.9468   -2.1233 O   0  5  0  0  0  0  0  0  0  0  0  0
   70.0409   11.3938    2.1135 O   0  5  0  0  0  0  0  0  0  0  0  0
   66.5909    6.4226   -1.7072 C   0  0  1  0  0  0  0  0  0  0  0  0
   65.4682    6.7157   -2.3496 N   0  0  0  0  0  0  0  0  0  0  0  0
   65.1326   11.7446   -0.1145 O   0  0  0  0  0  0  0  0  0  0  0  0
   69.9351   12.9534    0.0117 O   0  0  0  0  0  0  0  0  0  0  0  0
   71.7687   10.4118    0.5012 O   0  0  0  0  0  0  0  0  0  0  0  0
   66.6750    6.6242   -0.3945 N   0  0  0  0  0  0  0  0  0  0  0  0
   67.5617   12.2342   -0.0828 O   0  0  0  0  0  0  0  0  0  0  0  0
   69.3683   10.5393   -0.1194 O   0  0  0  0  0  0  0  0  0  0  0  0
   70.1036    8.9352    1.6497 O   0  0  0  0  0  0  0  0  0  0  0  0
   67.8833    6.2683    0.0993 C   0  0  2  0  0  0  0  0  0  0  0  0
   68.9645    5.7501   -0.5952 C   0  0  2  0  0  0  0  0  0  0  0  0
   68.8579    5.5413   -1.9921 C   0  0  1  0  0  0  0  0  0  0  0  0
   69.6923    5.0747   -2.7560 O   0  0  0  0  0  0  0  0  0  0  0  0
   70.0393    5.5062    0.2664 N   0  0  0  0  0  0  0  0  0  0  0  0
   69.5488    5.8840    1.4016 C   0  0  0  0  0  0  0  0  0  0  0  0
   68.2761    6.3530    1.4141 N   0  0  0  0  0  0  0  0  0  0  0  0
  1  5  1  1  0  0  0
  1 14  1  0  0  0  0
  1 19  2  0  0  0  0
  2 15  1  6  0  0  0
  2 20  2  0  0  0  0
  2 23  1  0  0  0  0
  3 16  1  1  0  0  0
  3 21  2  0  0  0  0
  3 24  1  0  0  0  0
  3 25  1  0  0  0  0
  4  6  1  0  0  0  0
  5  4  1  0  0  0  0
  6  7  1  0  0  0  0
  6  8  2  0  0  0  0
  7 12  1  0  0  0  0
  8  9  1  0  0  0  0
  8 10  1  0  0  0  0
 10 11  1  0  0  0  0
 10 12  2  0  0  0  0
 12 32  1  0  0  0  0
 13 17  1  0  0  0  0
 17 18  1  1  0  0  0
 17 22  1  0  0  0  0
 23  1  1  0  0  0  0
 24  2  1  0  0  0  0
 26 22  1  1  0  0  0
 27 26  1  0  0  0  0
 27 28  1  0  0  0  0
 27 30  1  1  0  0  0
 28 13  1  0  0  0  0
 28 29  1  1  0  0  0
 31 30  1  0  0  0  0
 32 26  1  0  0  0  0
 32 31  1  0  0  0  0
M  CHG  3  14  -1  15  -1  16  -1
M  END
>  <CHROM.1>
159.14137521,59.23113103,46.45385042,12.17255796,156.89121807,-31.61622277
79.68476565,139.28619635,68.24475723,8.99164031,0.50273598,1.16121099,-1.43938740
-0.41182224

>  <Name>
2au4_lig

>  <RI>
0

>  <Rbt.Current_Directory>
/home/itssahil/PROJECTS/Mol_Feturizer/New_Systems/rnas/2au4

>  <Rbt.Executable>
rbdock ($Id: //depot/dev/client3/rdock/2013.1/src/exe/rbdock.cxx#4 $)

>  <Rbt.Library>
libRbt.so (2013.1, Build901 2013/11/27)

>  <Rbt.Parameter_File>
/export/apps/rDock/src/rDock_2013.1_src/data/scripts/dock_solv.prm

>  <Rbt.Receptor>
prm/pocket_docking_4.prm

>  <SCORE>
-39.0057

>  <SCORE.INTER>
-14.9141

>  <SCORE.INTER.CONST>
1

>  <SCORE.INTER.POLAR>
-1.12125

>  <SCORE.INTER.ROT>
8

>  <SCORE.INTER.SOLV>
25.2712

>  <SCORE.INTER.VDW>
-23.5623

>  <SCORE.INTER.norm>
-0.466066

>  <SCORE.INTRA>
-24.0916

>  <SCORE.INTRA.DIHEDRAL>
-45.4236

>  <SCORE.INTRA.DIHEDRAL.0>
76.3625

>  <SCORE.INTRA.POLAR>
0

>  <SCORE.INTRA.POLAR.0>
0

>  <SCORE.INTRA.REPUL>
0.0585328

>  <SCORE.INTRA.REPUL.0>
0.12705

>  <SCORE.INTRA.SOLV>
-2.38208

>  <SCORE.INTRA.SOLV.lig_0>
-119.383

>  <SCORE.INTRA.VDW>
-0.481453

>  <SCORE.INTRA.VDW.0>
-5.10464

>  <SCORE.INTRA.norm>
-0.752863

>  <SCORE.RESTR>
0

>  <SCORE.RESTR.CAVITY>
0

>  <SCORE.RESTR.norm>
0

>  <SCORE.SYSTEM>
0

>  <SCORE.SYSTEM.CONST>
0

>  <SCORE.SYSTEM.DIHEDRAL>
0

>  <SCORE.SYSTEM.SOLV>
0

>  <SCORE.SYSTEM.norm>
0

>  <SCORE.heavy>
32

>  <SCORE.norm>
-1.21893

>  <RMSD>
4.840

$$$$
2au4_lig
 OpenBabel11021811423D
libRbt.so/2013.1/901 2013/11/27
 32 34  0  0  0  0  0  0  0  0999 V2000
   68.7909   10.6787    0.9530 P   0  0  1  0  0  0  0  0  0  0  0  0
   70.3791   12.6523   -0.0228 P   0  0  1  0  0  0  0  0  0  0  0  0
   72.8370   11.5680    0.4506 P   0  0  2  0  0  0  0  0  0  0  0  0
   66.4224    9.5254    1.2542 C   0  0  0  0  0  0  0  0  0  0  0  0
   67.2676   10.6674    1.4714 O   0  0  0  0  0  0  0  0  0  0  0  0
   66.8210    8.3346    2.1136 C   0  0  0  0  0  0  0  0  0  0  0  0
   66.5482    7.0974    1.4243 O   0  0  0  0  0  0  0  0  0  0  0  0
   68.3052    8.3801    2.4417 C   0  0  0  0  0  0  0  0  0  0  0  0
   68.5137    8.5286    3.8514 O   0  0  0  0  0  0  0  0  0  0  0  0
   68.8955    7.0843    1.9391 C   0  0  0  0  0  0  0  0  0  0  0  0
   69.5140    6.3483    3.0030 O   0  0  0  0  0  0  0  0  0  0  0  0
   67.7457    6.2965    1.3351 C   0  0  0  0  0  0  0  0  0  0  0  0
   65.9805    6.1168   -3.4522 N   0  0  0  0  0  0  0  0  0  0  0  0
   69.6876   10.6278    2.1252 O   0  5  0  0  0  0  0  0  0  0  0  0
   70.4346   13.0047   -1.4549 O   0  5  0  0  0  0  0  0  0  0  0  0
   73.0022   12.4906    1.5920 O   0  5  0  0  0  0  0  0  0  0  0  0
   65.3560    6.5531   -2.3079 C   0  0  1  0  0  0  0  0  0  0  0  0
   64.1119    6.9907   -2.4477 N   0  0  0  0  0  0  0  0  0  0  0  0
   68.9286    9.6808   -0.1293 O   0  0  0  0  0  0  0  0  0  0  0  0
   70.7431   13.6532    1.0016 O   0  0  0  0  0  0  0  0  0  0  0  0
   73.4595   11.8844   -0.8519 O   0  0  0  0  0  0  0  0  0  0  0  0
   65.9267    6.5516   -1.1058 N   0  0  0  0  0  0  0  0  0  0  0  0
   68.9202   12.1210    0.3023 O   0  0  0  0  0  0  0  0  0  0  0  0
   71.2764   11.3613    0.2082 O   0  0  0  0  0  0  0  0  0  0  0  0
   73.3208   10.1052    0.9051 O   0  0  0  0  0  0  0  0  0  0  0  0
   67.1906    6.0703   -1.1423 C   0  0  2  0  0  0  0  0  0  0  0  0
   67.8926    5.6125   -2.2456 C   0  0  2  0  0  0  0  0  0  0  0  0
   67.2702    5.6206   -3.5179 C   0  0  1  0  0  0  0  0  0  0  0  0
   67.7233    5.2357   -4.5875 O   0  0  0  0  0  0  0  0  0  0  0  0
   69.1762    5.1929   -1.8803 N   0  0  0  0  0  0  0  0  0  0  0  0
   69.1671    5.4186   -0.6071 C   0  0  0  0  0  0  0  0  0  0  0  0
   68.0369    5.9388   -0.0668 N   0  0  0  0  0  0  0  0  0  0  0  0
  1  5  1  1  0  0  0
  1 14  1  0  0  0  0
  1 19  2  0  0  0  0
  2 15  1  6  0  0  0
  2 20  2  0  0  0  0
  2 23  1  0  0  0  0
  3 16  1  1  0  0  0
  3 21  2  0  0  0  0
  3 24  1  0  0  0  0
  3 25  1  0  0  0  0
  4  6  1  0  0  0  0
  5  4  1  0  0  0  0
  6  7  1  0  0  0  0
  6  8  2  0  0  0  0
  7 12  1  0  0  0  0
  8  9  1  0  0  0  0
  8 10  1  0  0  0  0
 10 11  1  0  0  0  0
 10 12  2  0  0  0  0
 12 32  1  0  0  0  0
 13 17  1  0  0  0  0
 17 18  1  1  0  0  0
 17 22  1  0  0  0  0
 23  1  1  0  0  0  0
 24  2  1  0  0  0  0
 26 22  1  1  0  0  0
 27 26  1  0  0  0  0
 27 28  1  0  0  0  0
 27 30  1  1  0  0  0
 28 13  1  0  0  0  0
 28 29  1  1  0  0  0
 31 30  1  0  0  0  0
 32 26  1  0  0  0  0
 32 31  1  0  0  0  0
M  CHG  3  14  -1  15  -1  16  -1
M  END
>  <CHROM.1>
-110.58411706,124.15577819,55.40009059,-147.63032800,71.09609616,-13.07465815
165.85112167,85.37119622,69.02157204,9.08280187,0.08212931,0.52810272,0.81764050
1.24806805

>  <Name>
2au4_lig

>  <RI>
0

>  <Rbt.Current_Directory>
/home/itssahil/PROJECTS/Mol_Feturizer/New_Systems/rnas/2au4

>  <Rbt.Executable>
rbdock ($Id: //depot/dev/client3/rdock/2013.1/src/exe/rbdock.cxx#4 $)

>  <Rbt.Library>
libRbt.so (2013.1, Build901 2013/11/27)

>  <Rbt.Parameter_File>
/export/apps/rDock/src/rDock_2013.1_src/data/scripts/dock_solv.prm

>  <Rbt.Receptor>
prm/pocket_docking_2.prm

>  <SCORE>
-22.014

>  <SCORE.INTER>
-11.0808

>  <SCORE.INTER.CONST>
1

>  <SCORE.INTER.POLAR>
0

>  <SCORE.INTER.ROT>
8

>  <SCORE.INTER.SOLV>
26.3792

>  <SCORE.INTER.VDW>
-25.1136

>  <SCORE.INTER.norm>
-0.346275

>  <SCORE.INTRA>
-15.9115

>  <SCORE.INTRA.DIHEDRAL>
-41.4339

>  <SCORE.INTRA.DIHEDRAL.0>
76.3625

>  <SCORE.INTRA.POLAR>
0

>  <SCORE.INTRA.POLAR.0>
0

>  <SCORE.INTRA.REPUL>
0.0235829

>  <SCORE.INTRA.REPUL.0>
0.12705

>  <SCORE.INTRA.SOLV>
2.77586

>  <SCORE.INTRA.SOLV.lig_0>
-119.383

>  <SCORE.INTRA.VDW>
3.29962

>  <SCORE.INTRA.VDW.0>
-5.10464

>  <SCORE.INTRA.norm>
-0.497233

>  <SCORE.RESTR>
4.97826

>  <SCORE.RESTR.CAVITY>
4.97826

>  <SCORE.RESTR.norm>
0.155571

>  <SCORE.SYSTEM>
0

>  <SCORE.SYSTEM.CONST>
0

>  <SCORE.SYSTEM.DIHEDRAL>
0

>  <SCORE.SYSTEM.SOLV>
0

>  <SCORE.SYSTEM.norm>
0

>  <SCORE.heavy>
32

>  <SCORE.norm>
-0.687938

>  <RMSD>
4.880

$$$$
2au4_lig
 OpenBabel11021811423D
libRbt.so/2013.1/901 2013/11/27
 32 34  0  0  0  0  0  0  0  0999 V2000
   71.1359   11.2137    2.9308 P   0  0  1  0  0  0  0  0  0  0  0  0
   73.3170   11.5883    1.3586 P   0  0  1  0  0  0  0  0  0  0  0  0
   72.8361   13.3394   -0.6768 P   0  0  2  0  0  0  0  0  0  0  0  0
   69.3354    9.7583    1.6383 C   0  0  0  0  0  0  0  0  0  0  0  0
   69.6216   10.7632    2.6252 O   0  0  0  0  0  0  0  0  0  0  0  0
   68.3697    8.6992    2.1494 C   0  0  0  0  0  0  0  0  0  0  0  0
   68.3037    7.5878    1.2324 O   0  0  0  0  0  0  0  0  0  0  0  0
   68.8156    8.1730    3.5047 C   0  0  0  0  0  0  0  0  0  0  0  0
   67.8516    8.4852    4.5176 O   0  0  0  0  0  0  0  0  0  0  0  0
   68.9786    6.6795    3.3523 C   0  0  0  0  0  0  0  0  0  0  0  0
   68.1316    5.9689    4.2654 O   0  0  0  0  0  0  0  0  0  0  0  0
   68.6150    6.3541    1.9139 C   0  0  0  0  0  0  0  0  0  0  0  0
   70.7981    5.1507   -2.5416 N   0  0  0  0  0  0  0  0  0  0  0  0
   71.1131   12.5582    3.5411 O   0  5  0  0  0  0  0  0  0  0  0  0
   73.6678   12.7624    2.1810 O   0  5  0  0  0  0  0  0  0  0  0  0
   73.0391   13.4281   -2.1370 O   0  5  0  0  0  0  0  0  0  0  0  0
   69.6700    5.8969   -2.2963 C   0  0  1  0  0  0  0  0  0  0  0  0
   69.0415    6.3792   -3.3600 N   0  0  0  0  0  0  0  0  0  0  0  0
   71.8305   10.1014    3.6140 O   0  0  0  0  0  0  0  0  0  0  0  0
   73.9975   10.2959    1.5830 O   0  0  0  0  0  0  0  0  0  0  0  0
   73.3115   14.4275    0.2031 O   0  0  0  0  0  0  0  0  0  0  0  0
   69.1959    6.1445   -1.0779 N   0  0  0  0  0  0  0  0  0  0  0  0
   71.7530   11.3495    1.4745 O   0  0  0  0  0  0  0  0  0  0  0  0
   73.4943   11.9800   -0.1712 O   0  0  0  0  0  0  0  0  0  0  0  0
   71.2727   13.1016   -0.3945 O   0  0  0  0  0  0  0  0  0  0  0  0
   69.9527    5.5757   -0.1113 C   0  0  2  0  0  0  0  0  0  0  0  0
   71.0984    4.8129   -0.2697 C   0  0  2  0  0  0  0  0  0  0  0  0
   71.5894    4.5585   -1.5737 C   0  0  1  0  0  0  0  0  0  0  0  0
   72.5622    3.8928   -1.9025 O   0  0  0  0  0  0  0  0  0  0  0  0
   71.5972    4.3998    0.9704 N   0  0  0  0  0  0  0  0  0  0  0  0
   70.7388    4.9276    1.7807 C   0  0  0  0  0  0  0  0  0  0  0  0
   69.7222    5.6462    1.2423 N   0  0  0  0  0  0  0  0  0  0  0  0
  1  5  1  6  0  0  0
  1 14  1  0  0  0  0
  1 19  2  0  0  0  0
  2 15  1  1  0  0  0
  2 20  2  0  0  0  0
  2 23  1  0  0  0  0
  3 16  1  6  0  0  0
  3 21  2  0  0  0  0
  3 24  1  0  0  0  0
  3 25  1  0  0  0  0
  4  6  1  0  0  0  0
  5  4  1  0  0  0  0
  6  7  1  0  0  0  0
  6  8  2  0  0  0  0
  7 12  1  0  0  0  0
  8  9  1  0  0  0  0
  8 10  1  0  0  0  0
 10 11  1  0  0  0  0
 10 12  2  0  0  0  0
 12 32  1  0  0  0  0
 13 17  1  0  0  0  0
 17 18  1  6  0  0  0
 17 22  1  0  0  0  0
 23  1  1  0  0  0  0
 24  2  1  0  0  0  0
 26 22  1  6  0  0  0
 27 26  1  0  0  0  0
 27 28  1  0  0  0  0
 27 30  1  6  0  0  0
 28 13  1  0  0  0  0
 28 29  1  6  0  0  0
 31 30  1  0  0  0  0
 32 26  1  0  0  0  0
 32 31  1  0  0  0  0
M  CHG  3  14  -1  15  -1  16  -1
M  END
>  <CHROM.1>
157.90182092,-53.89728440,-175.44528719,-169.29091107,132.13465944,-36.91082965
-171.62402918,-48.86174204,71.00625789,9.10744382,0.96871814,0.90983497,0.96705161
0.65743037

>  <Name>
2au4_lig

>  <RI>
0

>  <Rbt.Current_Directory>
/home/itssahil/PROJECTS/Mol_Feturizer/New_Systems/rnas/2au4

>  <Rbt.Executable>
rbdock ($Id: //depot/dev/client3/rdock/2013.1/src/exe/rbdock.cxx#4 $)

>  <Rbt.Library>
libRbt.so (2013.1, Build901 2013/11/27)

>  <Rbt.Parameter_File>
/export/apps/rDock/src/rDock_2013.1_src/data/scripts/dock_solv.prm

>  <Rbt.Receptor>
prm/pocket_docking_5.prm

>  <SCORE>
-49.9578

>  <SCORE.INTER>
-27.1714

>  <SCORE.INTER.CONST>
1

>  <SCORE.INTER.POLAR>
-2.03497

>  <SCORE.INTER.ROT>
8

>  <SCORE.INTER.SOLV>
37.0923

>  <SCORE.INTER.VDW>
-32.6285

>  <SCORE.INTER.norm>
-0.849105

>  <SCORE.INTRA>
-22.7865

>  <SCORE.INTRA.DIHEDRAL>
-42.9011

>  <SCORE.INTRA.DIHEDRAL.0>
76.3625

>  <SCORE.INTRA.POLAR>
0

>  <SCORE.INTRA.POLAR.0>
0

>  <SCORE.INTRA.REPUL>
0.0336638

>  <SCORE.INTRA.REPUL.0>
0.12705

>  <SCORE.INTRA.SOLV>
-5.4173

>  <SCORE.INTRA.SOLV.lig_0>
-119.383

>  <SCORE.INTRA.VDW>
1.20442

>  <SCORE.INTRA.VDW.0>
-5.10464

>  <SCORE.INTRA.norm>
-0.712077

>  <SCORE.RESTR>
0

>  <SCORE.RESTR.CAVITY>
0

>  <SCORE.RESTR.norm>
0

>  <SCORE.SYSTEM>
0

>  <SCORE.SYSTEM.CONST>
0

>  <SCORE.SYSTEM.DIHEDRAL>
0

>  <SCORE.SYSTEM.SOLV>
0

>  <SCORE.SYSTEM.norm>
0

>  <SCORE.heavy>
32

>  <SCORE.norm>
-1.56118

>  <RMSD>
4.904

$$$$
2au4_lig
 OpenBabel11021811423D
libRbt.so/2013.1/901 2013/11/27
 32 34  0  0  0  0  0  0  0  0999 V2000
   69.1075   11.5586    3.2489 P   0  0  1  0  0  0  0  0  0  0  0  0
   70.8536   11.1413    1.2127 P   0  0  1  0  0  0  0  0  0  0  0  0
   73.5039   11.6045    1.6623 P   0  0  2  0  0  0  0  0  0  0  0  0
   67.4057    9.9264    2.0363 C   0  0  0  0  0  0  0  0  0  0  0  0
   67.6330   10.9609    3.0079 O   0  0  0  0  0  0  0  0  0  0  0  0
   67.3497    8.5412    2.6636 C   0  0  0  0  0  0  0  0  0  0  0  0
   66.4877    7.6728    1.8999 O   0  0  0  0  0  0  0  0  0  0  0  0
   68.7349    7.9155    2.7116 C   0  0  0  0  0  0  0  0  0  0  0  0
   69.1548    7.7043    4.0651 O   0  0  0  0  0  0  0  0  0  0  0  0
   68.6411    6.6079    1.9621 C   0  0  0  0  0  0  0  0  0  0  0  0
   69.0030    5.5020    2.7999 O   0  0  0  0  0  0  0  0  0  0  0  0
   67.2004    6.4840    1.4971 C   0  0  0  0  0  0  0  0  0  0  0  0
   69.5671    4.7085   -2.6638 N   0  0  0  0  0  0  0  0  0  0  0  0
   68.9853   12.8266    3.9958 O   0  5  0  0  0  0  0  0  0  0  0  0
   70.6455    9.6928    1.4048 O   0  5  0  0  0  0  0  0  0  0  0  0
   73.5699   12.4886    0.4811 O   0  5  0  0  0  0  0  0  0  0  0  0
   69.9807    4.6965   -1.3529 C   0  0  1  0  0  0  0  0  0  0  0  0
   71.1667    4.1522   -1.1157 N   0  0  0  0  0  0  0  0  0  0  0  0
   69.9771   10.4778    3.7609 O   0  0  0  0  0  0  0  0  0  0  0  0
   71.1544   11.6751   -0.1320 O   0  0  0  0  0  0  0  0  0  0  0  0
   73.9372   10.1956    1.5563 O   0  0  0  0  0  0  0  0  0  0  0  0
   69.2671    5.1943   -0.3461 N   0  0  0  0  0  0  0  0  0  0  0  0
   69.5816   11.9050    1.7740 O   0  0  0  0  0  0  0  0  0  0  0  0
   72.0049   11.6150    2.2003 O   0  0  0  0  0  0  0  0  0  0  0  0
   74.3151   12.2985    2.8627 O   0  0  0  0  0  0  0  0  0  0  0  0
   68.0895    5.7133   -0.7639 C   0  0  2  0  0  0  0  0  0  0  0  0
   67.5972    5.7662   -2.0580 C   0  0  2  0  0  0  0  0  0  0  0  0
   68.3699    5.2320   -3.1181 C   0  0  1  0  0  0  0  0  0  0  0  0
   68.1088    5.2131   -4.3135 O   0  0  0  0  0  0  0  0  0  0  0  0
   66.3415    6.3822   -2.0883 N   0  0  0  0  0  0  0  0  0  0  0  0
   66.1603    6.6567   -0.8378 C   0  0  0  0  0  0  0  0  0  0  0  0
   67.1373    6.3024    0.0338 N   0  0  0  0  0  0  0  0  0  0  0  0
  1  5  1  6  0  0  0
  1 14  1  0  0  0  0
  1 19  2  0  0  0  0
  2 15  1  6  0  0  0
  2 20  2  0  0  0  0
  2 23  1  0  0  0  0
  3 16  1  6  0  0  0
  3 21  2  0  0  0  0
  3 24  1  0  0  0  0
  3 25  1  0  0  0  0
  4  6  1  0  0  0  0
  5  4  1  0  0  0  0
  6  7  1  0  0  0  0
  6  8  2  0  0  0  0
  7 12  1  0  0  0  0
  8  9  1  0  0  0  0
  8 10  1  0  0  0  0
 10 11  1  0  0  0  0
 10 12  2  0  0  0  0
 12 32  1  0  0  0  0
 13 17  1  0  0  0  0
 17 18  1  6  0  0  0
 17 22  1  0  0  0  0
 23  1  1  0  0  0  0
 24  2  1  0  0  0  0
 26 22  1  6  0  0  0
 27 26  1  0  0  0  0
 27 28  1  0  0  0  0
 27 30  1  6  0  0  0
 28 13  1  0  0  0  0
 28 29  1  6  0  0  0
 31 30  1  0  0  0  0
 32 26  1  0  0  0  0
 32 31  1  0  0  0  0
M  CHG  3  14  -1  15  -1  16  -1
M  END
>  <CHROM.1>
164.33741475,51.63353788,59.10967015,150.29375179,98.24531932,149.25008945
-117.75902167,91.55502694,69.65847911,8.82681515,1.04226518,1.06617738,0.43129702
0.74931872

>  <Name>
2au4_lig

>  <RI>
0

>  <Rbt.Current_Directory>
/home/itssahil/PROJECTS/Mol_Feturizer/New_Systems/rnas/2au4

>  <Rbt.Executable>
rbdock ($Id: //depot/dev/client3/rdock/2013.1/src/exe/rbdock.cxx#4 $)

>  <Rbt.Library>
libRbt.so (2013.1, Build901 2013/11/27)

>  <Rbt.Parameter_File>
/export/apps/rDock/src/rDock_2013.1_src/data/scripts/dock_solv.prm

>  <Rbt.Receptor>
prm/pocket_docking_5.prm

>  <SCORE>
-40.0323

>  <SCORE.INTER>
-19.0029

>  <SCORE.INTER.CONST>
1

>  <SCORE.INTER.POLAR>
-1.96659

>  <SCORE.INTER.ROT>
8

>  <SCORE.INTER.SOLV>
28.6879

>  <SCORE.INTER.VDW>
-24.6092

>  <SCORE.INTER.norm>
-0.593841

>  <SCORE.INTRA>
-21.0293

>  <SCORE.INTRA.DIHEDRAL>
-42.5486

>  <SCORE.INTRA.DIHEDRAL.0>
76.3625

>  <SCORE.INTRA.POLAR>
0

>  <SCORE.INTRA.POLAR.0>
0

>  <SCORE.INTRA.REPUL>
-0.12705

>  <SCORE.INTRA.REPUL.0>
0.12705

>  <SCORE.INTRA.SOLV>
-0.75015

>  <SCORE.INTRA.SOLV.lig_0>
-119.383

>  <SCORE.INTRA.VDW>
1.25526

>  <SCORE.INTRA.VDW.0>
-5.10464

>  <SCORE.INTRA.norm>
-0.657167

>  <SCORE.RESTR>
0

>  <SCORE.RESTR.CAVITY>
0

>  <SCORE.RESTR.norm>
0

>  <SCORE.SYSTEM>
0

>  <SCORE.SYSTEM.CONST>
0

>  <SCORE.SYSTEM.DIHEDRAL>
0

>  <SCORE.SYSTEM.SOLV>
0

>  <SCORE.SYSTEM.norm>
0

>  <SCORE.heavy>
32

>  <SCORE.norm>
-1.25101

>  <RMSD>
4.905

$$$$
2au4_lig
 OpenBabel11021811423D
libRbt.so/2013.1/901 2013/11/27
 32 34  0  0  0  0  0  0  0  0999 V2000
   68.2890   11.0140   -0.5859 P   0  0  1  0  0  0  0  0  0  0  0  0
   69.4212   12.8591    1.0521 P   0  0  1  0  0  0  0  0  0  0  0  0
   72.0488   12.8194    1.7836 P   0  0  2  0  0  0  0  0  0  0  0  0
   67.4996    9.9522    1.7119 C   0  0  0  0  0  0  0  0  0  0  0  0
   68.1415    9.7809    0.4374 O   0  0  0  0  0  0  0  0  0  0  0  0
   67.2658    8.6300    2.4280 C   0  0  0  0  0  0  0  0  0  0  0  0
   66.6580    7.6715    1.5381 O   0  0  0  0  0  0  0  0  0  0  0  0
   68.5790    8.0494    2.9288 C   0  0  0  0  0  0  0  0  0  0  0  0
   68.5940    7.9762    4.3596 O   0  0  0  0  0  0  0  0  0  0  0  0
   68.7030    6.6759    2.3136 C   0  0  0  0  0  0  0  0  0  0  0  0
   68.8095    5.6627    3.3227 O   0  0  0  0  0  0  0  0  0  0  0  0
   67.4555    6.4703    1.4718 C   0  0  0  0  0  0  0  0  0  0  0  0
   66.0560    6.7272   -3.4315 N   0  0  0  0  0  0  0  0  0  0  0  0
   68.5779   10.4776   -1.9311 O   0  5  0  0  0  0  0  0  0  0  0  0
   68.4211   13.8330    0.5732 O   0  5  0  0  0  0  0  0  0  0  0  0
   72.4772   11.7021    0.9180 O   0  5  0  0  0  0  0  0  0  0  0  0
   65.3958    7.1733   -2.3113 C   0  0  1  0  0  0  0  0  0  0  0  0
   64.2207    7.7540   -2.5138 N   0  0  0  0  0  0  0  0  0  0  0  0
   67.1491   11.9339   -0.3840 O   0  0  0  0  0  0  0  0  0  0  0  0
   69.2369   12.1873    2.3553 O   0  0  0  0  0  0  0  0  0  0  0  0
   71.6456   12.5592    3.1814 O   0  0  0  0  0  0  0  0  0  0  0  0
   65.8685    7.0483   -1.0737 N   0  0  0  0  0  0  0  0  0  0  0  0
   69.5983   11.7411   -0.0592 O   0  0  0  0  0  0  0  0  0  0  0  0
   70.8436   13.5675    1.0592 O   0  0  0  0  0  0  0  0  0  0  0  0
   73.2061   13.9335    1.7857 O   0  0  0  0  0  0  0  0  0  0  0  0
   67.0721    6.4308   -1.0478 C   0  0  2  0  0  0  0  0  0  0  0  0
   67.8036    5.9527   -2.1230 C   0  0  2  0  0  0  0  0  0  0  0  0
   67.2857    6.0936   -3.4338 C   0  0  1  0  0  0  0  0  0  0  0  0
   67.7758    5.7139   -4.4888 O   0  0  0  0  0  0  0  0  0  0  0  0
   69.0023    5.3743   -1.6920 N   0  0  0  0  0  0  0  0  0  0  0  0
   68.9194    5.5361   -0.4118 C   0  0  0  0  0  0  0  0  0  0  0  0
   67.8137    6.1521    0.0758 N   0  0  0  0  0  0  0  0  0  0  0  0
  1  5  1  1  0  0  0
  1 14  1  0  0  0  0
  1 19  2  0  0  0  0
  2 15  1  6  0  0  0
  2 20  2  0  0  0  0
  2 23  1  0  0  0  0
  3 16  1  6  0  0  0
  3 21  2  0  0  0  0
  3 24  1  0  0  0  0
  3 25  1  0  0  0  0
  4  6  1  0  0  0  0
  5  4  1  0  0  0  0
  6  7  1  0  0  0  0
  6  8  2  0  0  0  0
  7 12  1  0  0  0  0
  8  9  1  0  0  0  0
  8 10  1  0  0  0  0
 10 11  1  0  0  0  0
 10 12  2  0  0  0  0
 12 32  1  0  0  0  0
 13 17  1  0  0  0  0
 17 18  1  1  0  0  0
 17 22  1  0  0  0  0
 23  1  1  0  0  0  0
 24  2  1  0  0  0  0
 26 22  1  1  0  0  0
 27 26  1  0  0  0  0
 27 28  1  0  0  0  0
 27 30  1  1  0  0  0
 28 13  1  0  0  0  0
 28 29  1  1  0  0  0
 31 30  1  0  0  0  0
 32 26  1  0  0  0  0
 32 31  1  0  0  0  0
M  CHG  3  14  -1  15  -1  16  -1
M  END
>  <CHROM.1>
-162.27690677,-52.74540352,74.44997960,-48.54173679,170.85547152,-30.80935442
-88.97683825,169.04309614,68.64840434,9.49041797,0.31716263,0.34890802,-1.04007875
-0.72257615

>  <Name>
2au4_lig

>  <RI>
0

>  <Rbt.Current_Directory>
/home/itssahil/PROJECTS/Mol_Feturizer/New_Systems/rnas/2au4

>  <Rbt.Executable>
rbdock ($Id: //depot/dev/client3/rdock/2013.1/src/exe/rbdock.cxx#4 $)

>  <Rbt.Library>
libRbt.so (2013.1, Build901 2013/11/27)

>  <Rbt.Parameter_File>
/export/apps/rDock/src/rDock_2013.1_src/data/scripts/dock_solv.prm

>  <Rbt.Receptor>
prm/pocket_docking_4.prm

>  <SCORE>
-42.2617

>  <SCORE.INTER>
-18.5885

>  <SCORE.INTER.CONST>
1

>  <SCORE.INTER.POLAR>
-1.32251

>  <SCORE.INTER.ROT>
8

>  <SCORE.INTER.SOLV>
19.3392

>  <SCORE.INTER.VDW>
-23.3637

>  <SCORE.INTER.norm>
-0.58089

>  <SCORE.INTRA>
-23.6732

>  <SCORE.INTRA.DIHEDRAL>
-47.8099

>  <SCORE.INTRA.DIHEDRAL.0>
76.3625

>  <SCORE.INTRA.POLAR>
0

>  <SCORE.INTRA.POLAR.0>
0

>  <SCORE.INTRA.REPUL>
0.0613546

>  <SCORE.INTRA.REPUL.0>
0.12705

>  <SCORE.INTRA.SOLV>
-3.7496

>  <SCORE.INTRA.SOLV.lig_0>
-119.383

>  <SCORE.INTRA.VDW>
1.79971

>  <SCORE.INTRA.VDW.0>
-5.10464

>  <SCORE.INTRA.norm>
-0.739789

>  <SCORE.RESTR>
0

>  <SCORE.RESTR.CAVITY>
0

>  <SCORE.RESTR.norm>
0

>  <SCORE.SYSTEM>
0

>  <SCORE.SYSTEM.CONST>
0

>  <SCORE.SYSTEM.DIHEDRAL>
0

>  <SCORE.SYSTEM.SOLV>
0

>  <SCORE.SYSTEM.norm>
0

>  <SCORE.heavy>
32

>  <SCORE.norm>
-1.32068

>  <RMSD>
4.944

$$$$
2au4_lig
 OpenBabel11021811423D
libRbt.so/2013.1/901 2013/11/27
 32 34  0  0  0  0  0  0  0  0999 V2000
   68.7914   10.5087    0.5005 P   0  0  1  0  0  0  0  0  0  0  0  0
   70.0714   12.8410   -0.0393 P   0  0  1  0  0  0  0  0  0  0  0  0
   71.9080   13.5012    1.8664 P   0  0  2  0  0  0  0  0  0  0  0  0
   67.0531    9.6465    2.3075 C   0  0  0  0  0  0  0  0  0  0  0  0
   68.2570   10.3741    2.0123 O   0  0  0  0  0  0  0  0  0  0  0  0
   67.3273    8.2014    2.6972 C   0  0  0  0  0  0  0  0  0  0  0  0
   66.5020    7.3030    1.9278 O   0  0  0  0  0  0  0  0  0  0  0  0
   68.7838    7.8432    2.4465 C   0  0  0  0  0  0  0  0  0  0  0  0
   69.4521    7.5274    3.6739 O   0  0  0  0  0  0  0  0  0  0  0  0
   68.7790    6.6582    1.5104 C   0  0  0  0  0  0  0  0  0  0  0  0
   69.4497    5.5330    2.0938 O   0  0  0  0  0  0  0  0  0  0  0  0
   67.3202    6.3350    1.2373 C   0  0  0  0  0  0  0  0  0  0  0  0
   69.0929    5.2700   -3.4307 N   0  0  0  0  0  0  0  0  0  0  0  0
   69.2387    9.1791    0.0390 O   0  5  0  0  0  0  0  0  0  0  0  0
   70.0180   12.6258   -1.4984 O   0  5  0  0  0  0  0  0  0  0  0  0
   72.2367   12.1364    2.3254 O   0  5  0  0  0  0  0  0  0  0  0  0
   69.6989    5.1026   -2.2082 C   0  0  1  0  0  0  0  0  0  0  0  0
   70.9244    4.5958   -2.2242 N   0  0  0  0  0  0  0  0  0  0  0  0
   67.7973   11.2702   -0.2856 O   0  0  0  0  0  0  0  0  0  0  0  0
   69.0547   13.6840    0.6234 O   0  0  0  0  0  0  0  0  0  0  0  0
   70.8682   14.2856    2.5645 O   0  0  0  0  0  0  0  0  0  0  0  0
   69.1284    5.4202   -1.0488 N   0  0  0  0  0  0  0  0  0  0  0  0
   70.0776   11.4233    0.6724 O   0  0  0  0  0  0  0  0  0  0  0  0
   71.5058   13.4181    0.3275 O   0  0  0  0  0  0  0  0  0  0  0  0
   73.2616   14.3657    1.8316 O   0  0  0  0  0  0  0  0  0  0  0  0
   67.8849    5.9270   -1.2145 C   0  0  2  0  0  0  0  0  0  0  0  0
   67.2023    6.1282   -2.4034 C   0  0  2  0  0  0  0  0  0  0  0  0
   67.8244    5.7850   -3.6288 C   0  0  1  0  0  0  0  0  0  0  0  0
   67.3875    5.9143   -4.7645 O   0  0  0  0  0  0  0  0  0  0  0  0
   65.9366    6.6742   -2.1647 N   0  0  0  0  0  0  0  0  0  0  0  0
   65.9362    6.7664   -0.8750 C   0  0  0  0  0  0  0  0  0  0  0  0
   67.0442    6.3503   -0.2125 N   0  0  0  0  0  0  0  0  0  0  0  0
  1  5  1  1  0  0  0
  1 14  1  0  0  0  0
  1 19  2  0  0  0  0
  2 15  1  6  0  0  0
  2 20  2  0  0  0  0
  2 23  1  0  0  0  0
  3 16  1  1  0  0  0
  3 21  2  0  0  0  0
  3 24  1  0  0  0  0
  3 25  1  0  0  0  0
  4  6  1  0  0  0  0
  5  4  1  0  0  0  0
  6  7  1  0  0  0  0
  6  8  2  0  0  0  0
  7 12  1  0  0  0  0
  8  9  1  0  0  0  0
  8 10  1  0  0  0  0
 10 11  1  0  0  0  0
 10 12  2  0  0  0  0
 12 32  1  0  0  0  0
 13 17  1  0  0  0  0
 17 18  1  6  0  0  0
 17 22  1  0  0  0  0
 23  1  1  0  0  0  0
 24  2  1  0  0  0  0
 26 22  1  6  0  0  0
 27 26  1  0  0  0  0
 27 28  1  0  0  0  0
 27 30  1  6  0  0  0
 28 13  1  0  0  0  0
 28 29  1  6  0  0  0
 31 30  1  0  0  0  0
 32 26  1  0  0  0  0
 32 31  1  0  0  0  0
M  CHG  3  14  -1  15  -1  16  -1
M  END
>  <CHROM.1>
-68.23252445,-64.25725609,75.67454507,-129.52511066,94.61626256,156.86960076
-117.16876580,-169.65431527,69.12099729,9.31858201,0.23560767,0.54065425
1.13415703,1.35139403

>  <Name>
2au4_lig

>  <RI>
0

>  <Rbt.Current_Directory>
/home/itssahil/PROJECTS/Mol_Feturizer/New_Systems/rnas/2au4

>  <Rbt.Executable>
rbdock ($Id: //depot/dev/client3/rdock/2013.1/src/exe/rbdock.cxx#4 $)

>  <Rbt.Library>
libRbt.so (2013.1, Build901 2013/11/27)

>  <Rbt.Parameter_File>
/export/apps/rDock/src/rDock_2013.1_src/data/scripts/dock_solv.prm

>  <Rbt.Receptor>
prm/pocket_docking_4.prm

>  <SCORE>
-36.2316

>  <SCORE.INTER>
-14.6723

>  <SCORE.INTER.CONST>
1

>  <SCORE.INTER.POLAR>
-0.978639

>  <SCORE.INTER.ROT>
8

>  <SCORE.INTER.SOLV>
25.2009

>  <SCORE.INTER.VDW>
-23.853

>  <SCORE.INTER.norm>
-0.458508

>  <SCORE.INTRA>
-21.5593

>  <SCORE.INTRA.DIHEDRAL>
-43.7213

>  <SCORE.INTRA.DIHEDRAL.0>
76.3625

>  <SCORE.INTRA.POLAR>
0

>  <SCORE.INTRA.POLAR.0>
0

>  <SCORE.INTRA.REPUL>
-0.12705

>  <SCORE.INTRA.REPUL.0>
0.12705

>  <SCORE.INTRA.SOLV>
0.0254623

>  <SCORE.INTRA.SOLV.lig_0>
-119.383

>  <SCORE.INTRA.VDW>
0.92384

>  <SCORE.INTRA.VDW.0>
-5.10464

>  <SCORE.INTRA.norm>
-0.673729

>  <SCORE.RESTR>
0

>  <SCORE.RESTR.CAVITY>
0

>  <SCORE.RESTR.norm>
0

>  <SCORE.SYSTEM>
0

>  <SCORE.SYSTEM.CONST>
0

>  <SCORE.SYSTEM.DIHEDRAL>
0

>  <SCORE.SYSTEM.SOLV>
0

>  <SCORE.SYSTEM.norm>
0

>  <SCORE.heavy>
32

>  <SCORE.norm>
-1.13224

>  <RMSD>
4.969

$$$$
2au4_lig
 OpenBabel11021811423D
libRbt.so/2013.1/901 2013/11/27
 32 34  0  0  0  0  0  0  0  0999 V2000
   67.9180   11.9176   -0.7142 P   0  0  1  0  0  0  0  0  0  0  0  0
   70.0818   12.2119    0.8985 P   0  0  1  0  0  0  0  0  0  0  0  0
   71.9099   13.1613    2.6866 P   0  0  2  0  0  0  0  0  0  0  0  0
   66.5148   10.4266    0.9706 C   0  0  0  0  0  0  0  0  0  0  0  0
   67.6685   10.5676    0.1251 O   0  0  0  0  0  0  0  0  0  0  0  0
   66.4719    9.0793    1.6766 C   0  0  0  0  0  0  0  0  0  0  0  0
   65.6214    8.1591    0.9624 O   0  0  0  0  0  0  0  0  0  0  0  0
   67.8636    8.4725    1.7637 C   0  0  0  0  0  0  0  0  0  0  0  0
   68.2818    8.3443    3.1281 O   0  0  0  0  0  0  0  0  0  0  0  0
   67.7858    7.1229    1.0907 C   0  0  0  0  0  0  0  0  0  0  0  0
   68.1572    6.0712    1.9917 O   0  0  0  0  0  0  0  0  0  0  0  0
   66.3479    6.9568    0.6304 C   0  0  0  0  0  0  0  0  0  0  0  0
   68.6213    4.7432   -3.3693 N   0  0  0  0  0  0  0  0  0  0  0  0
   68.8052   11.6069   -1.8531 O   0  5  0  0  0  0  0  0  0  0  0  0
   69.7332   11.1454    1.8572 O   0  5  0  0  0  0  0  0  0  0  0  0
   72.5352   11.8868    2.2794 O   0  5  0  0  0  0  0  0  0  0  0  0
   69.0141    4.7794   -2.0525 C   0  0  1  0  0  0  0  0  0  0  0  0
   70.1487    4.1578   -1.7602 N   0  0  0  0  0  0  0  0  0  0  0  0
   66.6147   12.5756   -0.9481 O   0  0  0  0  0  0  0  0  0  0  0  0
   70.9891   11.9251   -0.2320 O   0  0  0  0  0  0  0  0  0  0  0  0
   71.4375   13.3427    4.0751 O   0  0  0  0  0  0  0  0  0  0  0  0
   68.3291    5.3942   -1.0915 N   0  0  0  0  0  0  0  0  0  0  0  0
   68.7358   12.8119    0.3113 O   0  0  0  0  0  0  0  0  0  0  0  0
   70.6805   13.4383    1.7126 O   0  0  0  0  0  0  0  0  0  0  0  0
   72.9193   14.3593    2.3309 O   0  0  0  0  0  0  0  0  0  0  0  0
   67.2034    5.9789   -1.5623 C   0  0  2  0  0  0  0  0  0  0  0  0
   66.7352    5.9906   -2.8663 C   0  0  2  0  0  0  0  0  0  0  0  0
   67.4770    5.3316   -3.8772 C   0  0  1  0  0  0  0  0  0  0  0  0
   67.2321    5.2595   -5.0740 O   0  0  0  0  0  0  0  0  0  0  0  0
   65.5341    6.7020   -2.9579 N   0  0  0  0  0  0  0  0  0  0  0  0
   65.3581    7.0671   -1.7300 C   0  0  0  0  0  0  0  0  0  0  0  0
   66.2909    6.6905   -0.8201 N   0  0  0  0  0  0  0  0  0  0  0  0
  1  5  1  1  0  0  0
  1 14  1  0  0  0  0
  1 19  2  0  0  0  0
  2 15  1  1  0  0  0
  2 20  2  0  0  0  0
  2 23  1  0  0  0  0
  3 16  1  6  0  0  0
  3 21  2  0  0  0  0
  3 24  1  0  0  0  0
  3 25  1  0  0  0  0
  4  6  1  0  0  0  0
  5  4  1  0  0  0  0
  6  7  1  0  0  0  0
  6  8  2  0  0  0  0
  7 12  1  0  0  0  0
  8  9  1  0  0  0  0
  8 10  1  0  0  0  0
 10 11  1  0  0  0  0
 10 12  2  0  0  0  0
 12 32  1  0  0  0  0
 13 17  1  0  0  0  0
 17 18  1  6  0  0  0
 17 22  1  0  0  0  0
 23  1  1  0  0  0  0
 24  2  1  0  0  0  0
 26 22  1  6  0  0  0
 27 26  1  0  0  0  0
 27 28  1  0  0  0  0
 27 30  1  6  0  0  0
 28 13  1  0  0  0  0
 28 29  1  6  0  0  0
 31 30  1  0  0  0  0
 32 26  1  0  0  0  0
 32 31  1  0  0  0  0
M  CHG  3  14  -1  15  -1  16  -1
M  END
>  <CHROM.1>
-157.53800637,-72.41728868,19.28472570,-97.30772450,-179.78750373,154.55129394
56.42016027,54.38250423,68.63249766,9.47243635,0.06992108,0.98208514,-0.75186077
0.08376930

>  <Name>
2au4_lig

>  <RI>
0

>  <Rbt.Current_Directory>
/home/itssahil/PROJECTS/Mol_Feturizer/New_Systems/rnas/2au4

>  <Rbt.Executable>
rbdock ($Id: //depot/dev/client3/rdock/2013.1/src/exe/rbdock.cxx#4 $)

>  <Rbt.Library>
libRbt.so (2013.1, Build901 2013/11/27)

>  <Rbt.Parameter_File>
/export/apps/rDock/src/rDock_2013.1_src/data/scripts/dock_solv.prm

>  <Rbt.Receptor>
prm/pocket_docking_4.prm

>  <SCORE>
-43.919

>  <SCORE.INTER>
-19.0456

>  <SCORE.INTER.CONST>
1

>  <SCORE.INTER.POLAR>
-1.32471

>  <SCORE.INTER.ROT>
8

>  <SCORE.INTER.SOLV>
23.7301

>  <SCORE.INTER.VDW>
-25.1247

>  <SCORE.INTER.norm>
-0.595174

>  <SCORE.INTRA>
-24.8734

>  <SCORE.INTRA.DIHEDRAL>
-47.5483

>  <SCORE.INTRA.DIHEDRAL.0>
76.3625

>  <SCORE.INTRA.POLAR>
0

>  <SCORE.INTRA.POLAR.0>
0

>  <SCORE.INTRA.REPUL>
-0.12705

>  <SCORE.INTRA.REPUL.0>
0.12705

>  <SCORE.INTRA.SOLV>
-3.96474

>  <SCORE.INTRA.SOLV.lig_0>
-119.383

>  <SCORE.INTRA.VDW>
1.51834

>  <SCORE.INTRA.VDW.0>
-5.10464

>  <SCORE.INTRA.norm>
-0.777295

>  <SCORE.RESTR>
0

>  <SCORE.RESTR.CAVITY>
0

>  <SCORE.RESTR.norm>
0

>  <SCORE.SYSTEM>
0

>  <SCORE.SYSTEM.CONST>
0

>  <SCORE.SYSTEM.DIHEDRAL>
0

>  <SCORE.SYSTEM.SOLV>
0

>  <SCORE.SYSTEM.norm>
0

>  <SCORE.heavy>
32

>  <SCORE.norm>
-1.37247

>  <RMSD>
4.971

$$$$
2au4_lig
 OpenBabel11021811423D
libRbt.so/2013.1/901 2013/11/27
 32 34  0  0  0  0  0  0  0  0999 V2000
   69.8635   11.9000    3.6547 P   0  0  1  0  0  0  0  0  0  0  0  0
   71.7499   13.2868    2.2807 P   0  0  1  0  0  0  0  0  0  0  0  0
   73.6701   11.5527    1.4166 P   0  0  2  0  0  0  0  0  0  0  0  0
   69.6110   10.1589    1.6710 C   0  0  0  0  0  0  0  0  0  0  0  0
   69.5030   11.5151    2.1345 O   0  0  0  0  0  0  0  0  0  0  0  0
   68.5514    9.2506    2.2775 C   0  0  0  0  0  0  0  0  0  0  0  0
   68.2649    8.1459    1.3956 O   0  0  0  0  0  0  0  0  0  0  0  0
   69.0229    8.6875    3.6091 C   0  0  0  0  0  0  0  0  0  0  0  0
   68.1903    9.1443    4.6819 O   0  0  0  0  0  0  0  0  0  0  0  0
   68.9685    7.1838    3.4822 C   0  0  0  0  0  0  0  0  0  0  0  0
   68.1042    6.6100    4.4721 O   0  0  0  0  0  0  0  0  0  0  0  0
   68.4557    6.8910    2.0827 C   0  0  0  0  0  0  0  0  0  0  0  0
   70.1058    5.3297   -2.4896 N   0  0  0  0  0  0  0  0  0  0  0  0
   68.6144   12.2485    4.3612 O   0  5  0  0  0  0  0  0  0  0  0  0
   70.9973   13.4725    1.0249 O   0  5  0  0  0  0  0  0  0  0  0  0
   73.4996   12.2287    0.1146 O   0  5  0  0  0  0  0  0  0  0  0  0
   69.1115    6.2273   -2.1808 C   0  0  1  0  0  0  0  0  0  0  0  0
   68.4740    6.7744   -3.2071 N   0  0  0  0  0  0  0  0  0  0  0  0
   70.7609   10.8615    4.2046 O   0  0  0  0  0  0  0  0  0  0  0  0
   72.8247   14.2323    2.6476 O   0  0  0  0  0  0  0  0  0  0  0  0
   73.9577   10.1040    1.4655 O   0  0  0  0  0  0  0  0  0  0  0  0
   68.7706    6.5566   -0.9374 N   0  0  0  0  0  0  0  0  0  0  0  0
   70.7117   13.2304    3.4788 O   0  0  0  0  0  0  0  0  0  0  0  0
   72.3610   11.8200    2.2837 O   0  0  0  0  0  0  0  0  0  0  0  0
   74.8074   12.3266    2.2462 O   0  0  0  0  0  0  0  0  0  0  0  0
   69.5155    5.9048   -0.0151 C   0  0  2  0  0  0  0  0  0  0  0  0
   70.5317    4.9897   -0.2381 C   0  0  2  0  0  0  0  0  0  0  0  0
   70.8818    4.6499   -1.5679 C   0  0  1  0  0  0  0  0  0  0  0  0
   71.7271    3.8521   -1.9504 O   0  0  0  0  0  0  0  0  0  0  0  0
   71.0639    4.5317    0.9719 N   0  0  0  0  0  0  0  0  0  0  0  0
   70.3500    5.1848    1.8296 C   0  0  0  0  0  0  0  0  0  0  0  0
   69.4017    6.0275    1.3495 N   0  0  0  0  0  0  0  0  0  0  0  0
  1  5  1  6  0  0  0
  1 14  1  0  0  0  0
  1 19  2  0  0  0  0
  2 15  1  6  0  0  0
  2 20  2  0  0  0  0
  2 23  1  0  0  0  0
  3 16  1  6  0  0  0
  3 21  2  0  0  0  0
  3 24  1  0  0  0  0
  3 25  1  0  0  0  0
  4  6  1  0  0  0  0
  5  4  1  0  0  0  0
  6  7  1  0  0  0  0
  6  8  2  0  0  0  0
  7 12  1  0  0  0  0
  8  9  1  0  0  0  0
  8 10  1  0  0  0  0
 10 11  1  0  0  0  0
 10 12  2  0  0  0  0
 12 32  1  0  0  0  0
 13 17  1  0  0  0  0
 17 18  1  1  0  0  0
 17 22  1  0  0  0  0
 23  1  1  0  0  0  0
 24  2  1  0  0  0  0
 26 22  1  1  0  0  0
 27 26  1  0  0  0  0
 27 28  1  0  0  0  0
 27 30  1  1  0  0  0
 28 13  1  0  0  0  0
 28 29  1  1  0  0  0
 31 30  1  0  0  0  0
 32 26  1  0  0  0  0
 32 31  1  0  0  0  0
M  CHG  3  14  -1  15  -1  16  -1
M  END
>  <CHROM.1>
-109.89218750,74.99281764,-43.07393485,152.97086036,69.77776196,-37.02174356
-40.48863967,78.26531972,70.58656465,9.37062988,1.59732696,1.24230998,0.68513082
0.61155254

>  <Name>
2au4_lig

>  <RI>
0

>  <Rbt.Current_Directory>
/home/itssahil/PROJECTS/Mol_Feturizer/New_Systems/rnas/2au4

>  <Rbt.Executable>
rbdock ($Id: //depot/dev/client3/rdock/2013.1/src/exe/rbdock.cxx#4 $)

>  <Rbt.Library>
libRbt.so (2013.1, Build901 2013/11/27)

>  <Rbt.Parameter_File>
/export/apps/rDock/src/rDock_2013.1_src/data/scripts/dock_solv.prm

>  <Rbt.Receptor>
prm/pocket_docking_8.prm

>  <SCORE>
-49.113

>  <SCORE.INTER>
-25.8547

>  <SCORE.INTER.CONST>
1

>  <SCORE.INTER.POLAR>
-2.42717

>  <SCORE.INTER.ROT>
8

>  <SCORE.INTER.SOLV>
30.402

>  <SCORE.INTER.VDW>
-28.2133

>  <SCORE.INTER.norm>
-0.807961

>  <SCORE.INTRA>
-23.2583

>  <SCORE.INTRA.DIHEDRAL>
-46.2921

>  <SCORE.INTRA.DIHEDRAL.0>
76.3625

>  <SCORE.INTRA.POLAR>
0

>  <SCORE.INTRA.POLAR.0>
0

>  <SCORE.INTRA.REPUL>
0.0330464

>  <SCORE.INTRA.REPUL.0>
0.12705

>  <SCORE.INTRA.SOLV>
-2.04165

>  <SCORE.INTRA.SOLV.lig_0>
-119.383

>  <SCORE.INTRA.VDW>
0.743365

>  <SCORE.INTRA.VDW.0>
-5.10464

>  <SCORE.INTRA.norm>
-0.726821

>  <SCORE.RESTR>
0

>  <SCORE.RESTR.CAVITY>
0

>  <SCORE.RESTR.norm>
0

>  <SCORE.SYSTEM>
0

>  <SCORE.SYSTEM.CONST>
0

>  <SCORE.SYSTEM.DIHEDRAL>
0

>  <SCORE.SYSTEM.SOLV>
0

>  <SCORE.SYSTEM.norm>
0

>  <SCORE.heavy>
32

>  <SCORE.norm>
-1.53478

>  <RMSD>
4.988

$$$$
2au4_lig
 OpenBabel11021811423D
libRbt.so/2013.1/901 2013/11/27
 32 34  0  0  0  0  0  0  0  0999 V2000
   69.8245   11.0038    3.0330 P   0  0  1  0  0  0  0  0  0  0  0  0
   70.4418   11.7425    0.4947 P   0  0  1  0  0  0  0  0  0  0  0  0
   72.5957   13.2909    1.1304 P   0  0  2  0  0  0  0  0  0  0  0  0
   67.4496    9.9126    2.5860 C   0  0  0  0  0  0  0  0  0  0  0  0
   68.3103   10.6636    3.4583 O   0  0  0  0  0  0  0  0  0  0  0  0
   67.3347    8.4523    2.9978 C   0  0  0  0  0  0  0  0  0  0  0  0
   66.5257    7.7209    2.0539 O   0  0  0  0  0  0  0  0  0  0  0  0
   68.7070    7.7996    3.0556 C   0  0  0  0  0  0  0  0  0  0  0  0
   69.0215    7.3859    4.3909 O   0  0  0  0  0  0  0  0  0  0  0  0
   68.6592    6.6169    2.1179 C   0  0  0  0  0  0  0  0  0  0  0  0
   68.9474    5.3941    2.8093 O   0  0  0  0  0  0  0  0  0  0  0  0
   67.2568    6.5897    1.5350 C   0  0  0  0  0  0  0  0  0  0  0  0
   69.8556    5.2796   -2.6598 N   0  0  0  0  0  0  0  0  0  0  0  0
   70.4697   11.7410    4.1379 O   0  5  0  0  0  0  0  0  0  0  0  0
   70.1854   10.3529    0.0691 O   0  5  0  0  0  0  0  0  0  0  0  0
   72.7236   13.8652   -0.2242 O   0  5  0  0  0  0  0  0  0  0  0  0
   70.1603    5.0533   -1.3386 C   0  0  1  0  0  0  0  0  0  0  0  0
   71.2925    4.4054   -1.0990 N   0  0  0  0  0  0  0  0  0  0  0  0
   70.4507    9.7769    2.4954 O   0  0  0  0  0  0  0  0  0  0  0  0
   70.1903   12.8616   -0.4370 O   0  0  0  0  0  0  0  0  0  0  0  0
   73.7856   13.1731    1.9988 O   0  0  0  0  0  0  0  0  0  0  0  0
   69.3948    5.4468   -0.3237 N   0  0  0  0  0  0  0  0  0  0  0  0
   69.6219   12.0141    1.8253 O   0  0  0  0  0  0  0  0  0  0  0  0
   71.9482   11.8424    0.9905 O   0  0  0  0  0  0  0  0  0  0  0  0
   71.4638   14.1087    1.9245 O   0  0  0  0  0  0  0  0  0  0  0  0
   68.2843    6.0951   -0.7445 C   0  0  2  0  0  0  0  0  0  0  0  0
   67.9020    6.3643   -2.0488 C   0  0  2  0  0  0  0  0  0  0  0  0
   68.7287    5.9388   -3.1173 C   0  0  1  0  0  0  0  0  0  0  0  0
   68.5649    6.1081   -4.3182 O   0  0  0  0  0  0  0  0  0  0  0  0
   66.6875    7.0580   -2.0788 N   0  0  0  0  0  0  0  0  0  0  0  0
   66.4202    7.1617   -0.8179 C   0  0  0  0  0  0  0  0  0  0  0  0
   67.3031    6.6240    0.0603 N   0  0  0  0  0  0  0  0  0  0  0  0
  1  5  1  1  0  0  0
  1 14  1  0  0  0  0
  1 19  2  0  0  0  0
  2 15  1  6  0  0  0
  2 20  2  0  0  0  0
  2 23  1  0  0  0  0
  3 16  1  6  0  0  0
  3 21  2  0  0  0  0
  3 24  1  0  0  0  0
  3 25  1  0  0  0  0
  4  6  1  0  0  0  0
  5  4  1  0  0  0  0
  6  7  1  0  0  0  0
  6  8  2  0  0  0  0
  7 12  1  0  0  0  0
  8  9  1  0  0  0  0
  8 10  1  0  0  0  0
 10 11  1  0  0  0  0
 10 12  2  0  0  0  0
 12 32  1  0  0  0  0
 13 17  1  0  0  0  0
 17 18  1  1  0  0  0
 17 22  1  0  0  0  0
 23  1  1  0  0  0  0
 24  2  1  0  0  0  0
 26 22  1  1  0  0  0
 27 26  1  0  0  0  0
 27 28  1  0  0  0  0
 27 30  1  1  0  0  0
 28 13  1  0  0  0  0
 28 29  1  1  0  0  0
 31 30  1  0  0  0  0
 32 26  1  0  0  0  0
 32 31  1  0  0  0  0
M  CHG  3  14  -1  15  -1  16  -1
M  END
>  <CHROM.1>
-178.20725455,53.30655265,-67.26599328,-176.70529464,100.83646722,151.83843692
-131.37062123,163.78864283,69.61314712,9.26092613,0.86312242,0.83028446,0.95159649
0.99930636

>  <Name>
2au4_lig

>  <RI>
0

>  <Rbt.Current_Directory>
/home/itssahil/PROJECTS/Mol_Feturizer/New_Systems/rnas/2au4

>  <Rbt.Executable>
rbdock ($Id: //depot/dev/client3/rdock/2013.1/src/exe/rbdock.cxx#4 $)

>  <Rbt.Library>
libRbt.so (2013.1, Build901 2013/11/27)

>  <Rbt.Parameter_File>
/export/apps/rDock/src/rDock_2013.1_src/data/scripts/dock_solv.prm

>  <Rbt.Receptor>
prm/pocket_docking_3.prm

>  <SCORE>
-39.9508

>  <SCORE.INTER>
-18.5573

>  <SCORE.INTER.CONST>
1

>  <SCORE.INTER.POLAR>
-1.92135

>  <SCORE.INTER.ROT>
8

>  <SCORE.INTER.SOLV>
25.0256

>  <SCORE.INTER.VDW>
-23.2422

>  <SCORE.INTER.norm>
-0.579915

>  <SCORE.INTRA>
-21.3957

>  <SCORE.INTRA.DIHEDRAL>
-42.1485

>  <SCORE.INTRA.DIHEDRAL.0>
76.3625

>  <SCORE.INTRA.POLAR>
0

>  <SCORE.INTRA.POLAR.0>
0

>  <SCORE.INTRA.REPUL>
-0.12705

>  <SCORE.INTRA.REPUL.0>
0.12705

>  <SCORE.INTRA.SOLV>
-2.15968

>  <SCORE.INTRA.SOLV.lig_0>
-119.383

>  <SCORE.INTRA.VDW>
1.39364

>  <SCORE.INTRA.VDW.0>
-5.10464

>  <SCORE.INTRA.norm>
-0.668615

>  <SCORE.RESTR>
0.00216087

>  <SCORE.RESTR.CAVITY>
0.00216087

>  <SCORE.RESTR.norm>
6.7527e-05

>  <SCORE.SYSTEM>
0

>  <SCORE.SYSTEM.CONST>
0

>  <SCORE.SYSTEM.DIHEDRAL>
0

>  <SCORE.SYSTEM.SOLV>
0

>  <SCORE.SYSTEM.norm>
0

>  <SCORE.heavy>
32

>  <SCORE.norm>
-1.24846

>  <RMSD>
4.989

$$$$
2au4_lig
 OpenBabel11021811423D
libRbt.so/2013.1/901 2013/11/27
 32 34  0  0  0  0  0  0  0  0999 V2000
   67.5647    7.7791    2.8949 P   0  0  1  0  0  0  0  0  0  0  0  0
   66.7866    8.9185    0.5570 P   0  0  1  0  0  0  0  0  0  0  0  0
   64.7039   10.6712    0.3808 P   0  0  2  0  0  0  0  0  0  0  0  0
   69.3471    7.2647    1.0004 C   0  0  0  0  0  0  0  0  0  0  0  0
   69.0428    7.8744    2.2659 O   0  0  0  0  0  0  0  0  0  0  0  0
   69.6684    5.7831    1.1306 C   0  0  0  0  0  0  0  0  0  0  0  0
   68.7315    4.9920    0.3713 O   0  0  0  0  0  0  0  0  0  0  0  0
   71.0685    5.4885    0.6153 C   0  0  0  0  0  0  0  0  0  0  0  0
   71.9121    5.0096    1.6697 O   0  0  0  0  0  0  0  0  0  0  0  0
   70.9160    4.4512   -0.4715 C   0  0  0  0  0  0  0  0  0  0  0  0
   71.6603    3.2645   -0.1648 O   0  0  0  0  0  0  0  0  0  0  0  0
   69.4309    4.1472   -0.5671 C   0  0  0  0  0  0  0  0  0  0  0  0
   65.7504    6.1432   -3.4888 N   0  0  0  0  0  0  0  0  0  0  0  0
   67.4322    6.4840    3.5920 O   0  5  0  0  0  0  0  0  0  0  0  0
   67.3058   10.1027    1.2685 O   0  5  0  0  0  0  0  0  0  0  0  0
   63.2846   10.6751   -0.0276 O   0  5  0  0  0  0  0  0  0  0  0  0
   65.8698    6.1364   -2.1194 C   0  0  1  0  0  0  0  0  0  0  0  0
   64.8941    6.7258   -1.4414 N   0  0  0  0  0  0  0  0  0  0  0  0
   67.2745    9.0395    3.6115 O   0  0  0  0  0  0  0  0  0  0  0  0
   67.4924    8.4003   -0.6333 O   0  0  0  0  0  0  0  0  0  0  0  0
   65.6512   11.6280   -0.2284 O   0  0  0  0  0  0  0  0  0  0  0  0
   66.8869    5.5790   -1.4671 N   0  0  0  0  0  0  0  0  0  0  0  0
   66.6449    7.7333    1.6019 O   0  0  0  0  0  0  0  0  0  0  0  0
   65.2771    9.2031    0.1504 O   0  0  0  0  0  0  0  0  0  0  0  0
   64.7738   10.8312    1.9777 O   0  0  0  0  0  0  0  0  0  0  0  0
   67.7871    5.0203   -2.3085 C   0  0  2  0  0  0  0  0  0  0  0  0
   67.7447    4.9824   -3.6929 C   0  0  2  0  0  0  0  0  0  0  0  0
   66.6546    5.5802   -4.3715 C   0  0  1  0  0  0  0  0  0  0  0  0
   66.4401    5.6215   -5.5756 O   0  0  0  0  0  0  0  0  0  0  0  0
   68.8599    4.3124   -4.2071 N   0  0  0  0  0  0  0  0  0  0  0  0
   69.4904    3.9948   -3.1238 C   0  0  0  0  0  0  0  0  0  0  0  0
   68.9399    4.3672   -1.9414 N   0  0  0  0  0  0  0  0  0  0  0  0
  1  5  1  6  0  0  0
  1 14  1  0  0  0  0
  1 19  2  0  0  0  0
  2 15  1  1  0  0  0
  2 20  2  0  0  0  0
  2 23  1  0  0  0  0
  3 16  1  6  0  0  0
  3 21  2  0  0  0  0
  3 24  1  0  0  0  0
  3 25  1  0  0  0  0
  4  6  1  0  0  0  0
  5  4  1  0  0  0  0
  6  7  1  0  0  0  0
  6  8  2  0  0  0  0
  7 12  1  0  0  0  0
  8  9  1  0  0  0  0
  8 10  1  0  0  0  0
 10 11  1  0  0  0  0
 10 12  2  0  0  0  0
 12 32  1  0  0  0  0
 13 17  1  0  0  0  0
 17 18  1  1  0  0  0
 17 22  1  0  0  0  0
 23  1  1  0  0  0  0
 24  2  1  0  0  0  0
 26 22  1  1  0  0  0
 27 26  1  0  0  0  0
 27 28  1  0  0  0  0
 27 30  1  1  0  0  0
 28 13  1  0  0  0  0
 28 29  1  1  0  0  0
 31 30  1  0  0  0  0
 32 26  1  0  0  0  0
 32 31  1  0  0  0  0
M  CHG  3  14  -1  15  -1  16  -1
M  END
>  <CHROM.1>
82.85425753,-24.67383938,-178.18312977,119.36823701,-83.22860135,-14.58572281
-56.02501804,7.87252439,67.48320583,7.14536550,-0.16088689,-2.30749383,0.70617075
-2.09932514

>  <Name>
2au4_lig

>  <RI>
0

>  <Rbt.Current_Directory>
/home/itssahil/PROJECTS/Mol_Feturizer/New_Systems/rnas/2au4

>  <Rbt.Executable>
rbdock ($Id: //depot/dev/client3/rdock/2013.1/src/exe/rbdock.cxx#4 $)

>  <Rbt.Library>
libRbt.so (2013.1, Build901 2013/11/27)

>  <Rbt.Parameter_File>
/export/apps/rDock/src/rDock_2013.1_src/data/scripts/dock_solv.prm

>  <Rbt.Receptor>
prm/pocket_docking_2.prm

>  <SCORE>
48.7979

>  <SCORE.INTER>
60.9728

>  <SCORE.INTER.CONST>
1

>  <SCORE.INTER.POLAR>
-0.772743

>  <SCORE.INTER.ROT>
8

>  <SCORE.INTER.SOLV>
29.8841

>  <SCORE.INTER.VDW>
24.3297

>  <SCORE.INTER.norm>
1.9054

>  <SCORE.INTRA>
-16.0241

>  <SCORE.INTRA.DIHEDRAL>
-40.4589

>  <SCORE.INTRA.DIHEDRAL.0>
76.3625

>  <SCORE.INTRA.POLAR>
0

>  <SCORE.INTRA.POLAR.0>
0

>  <SCORE.INTRA.REPUL>
0.163073

>  <SCORE.INTRA.REPUL.0>
0.12705

>  <SCORE.INTRA.SOLV>
2.97373

>  <SCORE.INTRA.SOLV.lig_0>
-119.383

>  <SCORE.INTRA.VDW>
1.90312

>  <SCORE.INTRA.VDW.0>
-5.10464

>  <SCORE.INTRA.norm>
-0.500753

>  <SCORE.RESTR>
3.84914

>  <SCORE.RESTR.CAVITY>
3.84914

>  <SCORE.RESTR.norm>
0.120286

>  <SCORE.SYSTEM>
0

>  <SCORE.SYSTEM.CONST>
0

>  <SCORE.SYSTEM.DIHEDRAL>
0

>  <SCORE.SYSTEM.SOLV>
0

>  <SCORE.SYSTEM.norm>
0

>  <SCORE.heavy>
32

>  <SCORE.norm>
1.52493

>  <RMSD>
4.994

$$$$
2au4_lig
 OpenBabel11021811423D
libRbt.so/2013.1/901 2013/11/27
 32 34  0  0  0  0  0  0  0  0999 V2000
   71.3118   11.1278    2.7014 P   0  0  1  0  0  0  0  0  0  0  0  0
   73.9556   11.7434    2.6766 P   0  0  1  0  0  0  0  0  0  0  0  0
   73.5673   13.1197    0.3538 P   0  0  2  0  0  0  0  0  0  0  0  0
   69.2082    9.8288    1.7433 C   0  0  0  0  0  0  0  0  0  0  0  0
   70.4929    9.7790    2.3857 O   0  0  0  0  0  0  0  0  0  0  0  0
   68.2537    8.7662    2.2679 C   0  0  0  0  0  0  0  0  0  0  0  0
   68.1706    7.6594    1.3468 O   0  0  0  0  0  0  0  0  0  0  0  0
   68.7267    8.2336    3.6114 C   0  0  0  0  0  0  0  0  0  0  0  0
   67.7826    8.5398    4.6448 O   0  0  0  0  0  0  0  0  0  0  0  0
   68.8881    6.7410    3.4484 C   0  0  0  0  0  0  0  0  0  0  0  0
   68.0598    6.0250    4.3743 O   0  0  0  0  0  0  0  0  0  0  0  0
   68.4964    6.4226    2.0158 C   0  0  0  0  0  0  0  0  0  0  0  0
   70.5681    5.2077   -2.4896 N   0  0  0  0  0  0  0  0  0  0  0  0
   70.8585   12.1823    1.7722 O   0  5  0  0  0  0  0  0  0  0  0  0
   73.9123   11.9763    4.1333 O   0  5  0  0  0  0  0  0  0  0  0  0
   74.9680   12.8798   -0.0483 O   0  5  0  0  0  0  0  0  0  0  0  0
   69.4410    5.9465   -2.2185 C   0  0  1  0  0  0  0  0  0  0  0  0
   68.7801    6.4169   -3.2678 N   0  0  0  0  0  0  0  0  0  0  0  0
   71.2863   11.3649    4.1606 O   0  0  0  0  0  0  0  0  0  0  0  0
   75.2023   11.2732    2.0378 O   0  0  0  0  0  0  0  0  0  0  0  0
   72.8672   14.3405   -0.0976 O   0  0  0  0  0  0  0  0  0  0  0  0
   68.9980    6.1982   -0.9893 N   0  0  0  0  0  0  0  0  0  0  0  0
   72.7952   10.7292    2.3006 O   0  0  0  0  0  0  0  0  0  0  0  0
   73.4990   13.0778    1.9444 O   0  0  0  0  0  0  0  0  0  0  0  0
   72.6905   11.8425   -0.0713 O   0  0  0  0  0  0  0  0  0  0  0  0
   69.7852    5.6417   -0.0399 C   0  0  2  0  0  0  0  0  0  0  0  0
   70.9324    4.8870   -0.2245 C   0  0  2  0  0  0  0  0  0  0  0  0
   71.3901    4.6281   -1.5397 C   0  0  1  0  0  0  0  0  0  0  0  0
   72.3590    3.9681   -1.8906 O   0  0  0  0  0  0  0  0  0  0  0  0
   71.4678    4.4860    1.0042 N   0  0  0  0  0  0  0  0  0  0  0  0
   70.6274    5.0121    1.8341 C   0  0  0  0  0  0  0  0  0  0  0  0
   69.5908    5.7192    1.3189 N   0  0  0  0  0  0  0  0  0  0  0  0
  1  5  1  6  0  0  0
  1 14  1  0  0  0  0
  1 19  2  0  0  0  0
  2 15  1  1  0  0  0
  2 20  2  0  0  0  0
  2 23  1  0  0  0  0
  3 16  1  6  0  0  0
  3 21  2  0  0  0  0
  3 24  1  0  0  0  0
  3 25  1  0  0  0  0
  4  6  1  0  0  0  0
  5  4  1  0  0  0  0
  6  7  1  0  0  0  0
  6  8  2  0  0  0  0
  7 12  1  0  0  0  0
  8  9  1  0  0  0  0
  8 10  1  0  0  0  0
 10 11  1  0  0  0  0
 10 12  2  0  0  0  0
 12 32  1  0  0  0  0
 13 17  1  0  0  0  0
 17 18  1  6  0  0  0
 17 22  1  0  0  0  0
 23  1  1  0  0  0  0
 24  2  1  0  0  0  0
 26 22  1  6  0  0  0
 27 26  1  0  0  0  0
 27 28  1  0  0  0  0
 27 30  1  6  0  0  0
 28 13  1  0  0  0  0
 28 29  1  6  0  0  0
 31 30  1  0  0  0  0
 32 26  1  0  0  0  0
 32 31  1  0  0  0  0
M  CHG  3  14  -1  15  -1  16  -1
M  END
>  <CHROM.1>
-23.80409650,56.75063464,-59.32949728,-101.72939713,-143.88695407,-37.78770768
-170.99897462,175.40701521,71.19307176,9.09047885,1.32299283,0.85487116,0.80125560
0.78391551

>  <Name>
2au4_lig

>  <RI>
0

>  <Rbt.Current_Directory>
/home/itssahil/PROJECTS/Mol_Feturizer/New_Systems/rnas/2au4

>  <Rbt.Executable>
rbdock ($Id: //depot/dev/client3/rdock/2013.1/src/exe/rbdock.cxx#4 $)

>  <Rbt.Library>
libRbt.so (2013.1, Build901 2013/11/27)

>  <Rbt.Parameter_File>
/export/apps/rDock/src/rDock_2013.1_src/data/scripts/dock_solv.prm

>  <Rbt.Receptor>
prm/pocket_docking_7.prm

>  <SCORE>
-48.7371

>  <SCORE.INTER>
-26.989

>  <SCORE.INTER.CONST>
1

>  <SCORE.INTER.POLAR>
-2.0187

>  <SCORE.INTER.ROT>
8

>  <SCORE.INTER.SOLV>
38.5532

>  <SCORE.INTER.VDW>
-33.0481

>  <SCORE.INTER.norm>
-0.843406

>  <SCORE.INTRA>
-21.7528

>  <SCORE.INTRA.DIHEDRAL>
-43.3804

>  <SCORE.INTRA.DIHEDRAL.0>
76.3625

>  <SCORE.INTRA.POLAR>
0

>  <SCORE.INTRA.POLAR.0>
0

>  <SCORE.INTRA.REPUL>
0.0286985

>  <SCORE.INTRA.REPUL.0>
0.12705

>  <SCORE.INTRA.SOLV>
-3.62645

>  <SCORE.INTRA.SOLV.lig_0>
-119.383

>  <SCORE.INTRA.VDW>
1.60708

>  <SCORE.INTRA.VDW.0>
-5.10464

>  <SCORE.INTRA.norm>
-0.679776

>  <SCORE.RESTR>
0.00470155

>  <SCORE.RESTR.CAVITY>
0.00470155

>  <SCORE.RESTR.norm>
0.000146923

>  <SCORE.SYSTEM>
0

>  <SCORE.SYSTEM.CONST>
0

>  <SCORE.SYSTEM.DIHEDRAL>
0

>  <SCORE.SYSTEM.SOLV>
0

>  <SCORE.SYSTEM.norm>
0

>  <SCORE.heavy>
32

>  <SCORE.norm>
-1.52304

>  <RMSD>
5.012

$$$$
2au4_lig
 OpenBabel11021811423D
libRbt.so/2013.1/901 2013/11/27
 32 34  0  0  0  0  0  0  0  0999 V2000
   69.2890    8.4111    4.1697 P   0  0  1  0  0  0  0  0  0  0  0  0
   70.6294   10.2014    5.7084 P   0  0  1  0  0  0  0  0  0  0  0  0
   72.3554   11.9046    4.4590 P   0  0  2  0  0  0  0  0  0  0  0  0
   69.0652    6.4808    2.3657 C   0  0  0  0  0  0  0  0  0  0  0  0
   69.7383    7.0088    3.5207 O   0  0  0  0  0  0  0  0  0  0  0  0
   69.6908    5.1855    1.8693 C   0  0  0  0  0  0  0  0  0  0  0  0
   68.9541    4.6649    0.7438 O   0  0  0  0  0  0  0  0  0  0  0  0
   71.1292    5.4150    1.4324 C   0  0  0  0  0  0  0  0  0  0  0  0
   72.0388    4.6755    2.2562 O   0  0  0  0  0  0  0  0  0  0  0  0
   71.2162    4.9695   -0.0078 C   0  0  0  0  0  0  0  0  0  0  0  0
   72.1899    3.9298   -0.1718 O   0  0  0  0  0  0  0  0  0  0  0  0
   69.8306    4.4762   -0.3873 C   0  0  0  0  0  0  0  0  0  0  0  0
   65.7824    6.6215   -2.6403 N   0  0  0  0  0  0  0  0  0  0  0  0
   69.3196    9.4478    3.1186 O   0  5  0  0  0  0  0  0  0  0  0  0
   69.7064   11.0610    4.9421 O   0  5  0  0  0  0  0  0  0  0  0  0
   71.3909   11.9317    3.3408 O   0  5  0  0  0  0  0  0  0  0  0  0
   65.8694    5.9868   -1.4241 C   0  0  1  0  0  0  0  0  0  0  0  0
   64.7475    5.9067   -0.7212 N   0  0  0  0  0  0  0  0  0  0  0  0
   68.0583    8.1928    4.9597 O   0  0  0  0  0  0  0  0  0  0  0  0
   70.5691   10.1800    7.1847 O   0  0  0  0  0  0  0  0  0  0  0  0
   73.8038   12.0193    4.1890 O   0  0  0  0  0  0  0  0  0  0  0  0
   66.9931    5.4638   -0.9399 N   0  0  0  0  0  0  0  0  0  0  0  0
   70.4709    8.7120    5.1860 O   0  0  0  0  0  0  0  0  0  0  0  0
   72.1169   10.5611    5.2806 O   0  0  0  0  0  0  0  0  0  0  0  0
   71.9418   13.0426    5.5148 O   0  0  0  0  0  0  0  0  0  0  0  0
   68.0373    5.6291   -1.7842 C   0  0  2  0  0  0  0  0  0  0  0  0
   68.0374    6.2531   -3.0214 C   0  0  2  0  0  0  0  0  0  0  0  0
   66.8325    6.8042   -3.5221 C   0  0  1  0  0  0  0  0  0  0  0  0
   66.6410    7.3640   -4.5932 O   0  0  0  0  0  0  0  0  0  0  0  0
   69.3132    6.2223   -3.5946 N   0  0  0  0  0  0  0  0  0  0  0  0
   69.9870    5.5945   -2.6869 C   0  0  0  0  0  0  0  0  0  0  0  0
   69.3252    5.1977   -1.5715 N   0  0  0  0  0  0  0  0  0  0  0  0
  1  5  1  6  0  0  0
  1 14  1  0  0  0  0
  1 19  2  0  0  0  0
  2 15  1  6  0  0  0
  2 20  2  0  0  0  0
  2 23  1  0  0  0  0
  3 16  1  6  0  0  0
  3 21  2  0  0  0  0
  3 24  1  0  0  0  0
  3 25  1  0  0  0  0
  4  6  1  0  0  0  0
  5  4  1  0  0  0  0
  6  7  1  0  0  0  0
  6  8  2  0  0  0  0
  7 12  1  0  0  0  0
  8  9  1  0  0  0  0
  8 10  1  0  0  0  0
 10 11  1  0  0  0  0
 10 12  2  0  0  0  0
 12 32  1  0  0  0  0
 13 17  1  0  0  0  0
 17 18  1  6  0  0  0
 17 22  1  0  0  0  0
 23  1  1  0  0  0  0
 24  2  1  0  0  0  0
 26 22  1  6  0  0  0
 27 26  1  0  0  0  0
 27 28  1  0  0  0  0
 27 30  1  6  0  0  0
 28 13  1  0  0  0  0
 28 29  1  6  0  0  0
 31 30  1  0  0  0  0
 32 26  1  0  0  0  0
 32 31  1  0  0  0  0
M  CHG  3  14  -1  15  -1  16  -1
M  END
>  <CHROM.1>
-54.86158105,-8.31761551,-49.24348467,177.77546487,176.98169009,-20.24753644
162.04138578,14.06013073,69.71004430,7.86837711,1.82956270,1.09270980,-0.69988410
0.62424573

>  <Name>
2au4_lig

>  <RI>
0

>  <Rbt.Current_Directory>
/home/itssahil/PROJECTS/Mol_Feturizer/New_Systems/rnas/2au4

>  <Rbt.Executable>
rbdock ($Id: //depot/dev/client3/rdock/2013.1/src/exe/rbdock.cxx#4 $)

>  <Rbt.Library>
libRbt.so (2013.1, Build901 2013/11/27)

>  <Rbt.Parameter_File>
/export/apps/rDock/src/rDock_2013.1_src/data/scripts/dock_solv.prm

>  <Rbt.Receptor>
prm/blind_docking_80.prm

>  <SCORE>
1.73306

>  <SCORE.INTER>
21.5683

>  <SCORE.INTER.CONST>
1

>  <SCORE.INTER.POLAR>
-1.11806

>  <SCORE.INTER.ROT>
8

>  <SCORE.INTER.SOLV>
34.2519

>  <SCORE.INTER.VDW>
-2.24495

>  <SCORE.INTER.norm>
0.674008

>  <SCORE.INTRA>
-20.4651

>  <SCORE.INTRA.DIHEDRAL>
-44.2814

>  <SCORE.INTRA.DIHEDRAL.0>
76.3625

>  <SCORE.INTRA.POLAR>
0

>  <SCORE.INTRA.POLAR.0>
0

>  <SCORE.INTRA.REPUL>
0.0645351

>  <SCORE.INTRA.REPUL.0>
0.12705

>  <SCORE.INTRA.SOLV>
-4.11109

>  <SCORE.INTRA.SOLV.lig_0>
-119.383

>  <SCORE.INTRA.VDW>
3.40848

>  <SCORE.INTRA.VDW.0>
-5.10464

>  <SCORE.INTRA.norm>
-0.639534

>  <SCORE.RESTR>
0.629884

>  <SCORE.RESTR.CAVITY>
0.629884

>  <SCORE.RESTR.norm>
0.0196839

>  <SCORE.SYSTEM>
0

>  <SCORE.SYSTEM.CONST>
0

>  <SCORE.SYSTEM.DIHEDRAL>
0

>  <SCORE.SYSTEM.SOLV>
0

>  <SCORE.SYSTEM.norm>
0

>  <SCORE.heavy>
32

>  <SCORE.norm>
0.0541581

>  <RMSD>
5.031

$$$$
2au4_lig
 OpenBabel11021811423D
libRbt.so/2013.1/901 2013/11/27
 32 34  0  0  0  0  0  0  0  0999 V2000
   67.1332    8.9152    3.5035 P   0  0  1  0  0  0  0  0  0  0  0  0
   69.2725    9.8948    4.8575 P   0  0  1  0  0  0  0  0  0  0  0  0
   70.7834   11.9486    3.8880 P   0  0  2  0  0  0  0  0  0  0  0  0
   65.4560   10.5374    2.2441 C   0  0  0  0  0  0  0  0  0  0  0  0
   66.3337    9.4003    2.1940 O   0  0  0  0  0  0  0  0  0  0  0  0
   65.1432   11.0923    0.8622 C   0  0  0  0  0  0  0  0  0  0  0  0
   65.9862   10.4783   -0.1340 O   0  0  0  0  0  0  0  0  0  0  0  0
   63.6932   10.8245    0.4901 C   0  0  0  0  0  0  0  0  0  0  0  0
   62.9687   12.0512    0.3377 O   0  0  0  0  0  0  0  0  0  0  0  0
   63.7192   10.0452   -0.8031 C   0  0  0  0  0  0  0  0  0  0  0  0
   63.0070   10.7346   -1.8392 O   0  0  0  0  0  0  0  0  0  0  0  0
   65.1831    9.8790   -1.1728 C   0  0  0  0  0  0  0  0  0  0  0  0
   68.6454    6.2135   -0.3708 N   0  0  0  0  0  0  0  0  0  0  0  0
   66.2123    8.9503    4.6574 O   0  5  0  0  0  0  0  0  0  0  0  0
   68.5572    9.5240    6.0939 O   0  5  0  0  0  0  0  0  0  0  0  0
   71.1833   13.3161    4.2768 O   0  5  0  0  0  0  0  0  0  0  0  0
   68.6942    7.5470   -0.0405 C   0  0  1  0  0  0  0  0  0  0  0  0
   69.7951    7.9608    0.5727 N   0  0  0  0  0  0  0  0  0  0  0  0
   67.8647    7.6725    3.1767 O   0  0  0  0  0  0  0  0  0  0  0  0
   70.3657    9.0406    4.3488 O   0  0  0  0  0  0  0  0  0  0  0  0
   70.1179   11.7139    2.5895 O   0  0  0  0  0  0  0  0  0  0  0  0
   67.7179    8.4119   -0.3042 N   0  0  0  0  0  0  0  0  0  0  0  0
   68.2037   10.0712    3.6986 O   0  0  0  0  0  0  0  0  0  0  0  0
   69.8391   11.3692    5.0322 O   0  0  0  0  0  0  0  0  0  0  0  0
   72.0740   10.9963    3.9789 O   0  0  0  0  0  0  0  0  0  0  0  0
   66.6744    7.8257   -0.9351 C   0  0  2  0  0  0  0  0  0  0  0  0
   66.5437    6.4962   -1.3030 C   0  0  2  0  0  0  0  0  0  0  0  0
   67.5926    5.5889   -1.0151 C   0  0  1  0  0  0  0  0  0  0  0  0
   67.6612    4.3972   -1.2845 O   0  0  0  0  0  0  0  0  0  0  0  0
   65.3176    6.2737   -1.9388 N   0  0  0  0  0  0  0  0  0  0  0  0
   64.7980    7.4575   -1.9154 C   0  0  0  0  0  0  0  0  0  0  0  0
   65.5205    8.4522   -1.3425 N   0  0  0  0  0  0  0  0  0  0  0  0
  1  5  1  6  0  0  0
  1 14  1  0  0  0  0
  1 19  2  0  0  0  0
  2 15  1  1  0  0  0
  2 20  2  0  0  0  0
  2 23  1  0  0  0  0
  3 16  1  1  0  0  0
  3 21  2  0  0  0  0
  3 24  1  0  0  0  0
  3 25  1  0  0  0  0
  4  6  1  0  0  0  0
  5  4  1  0  0  0  0
  6  7  1  0  0  0  0
  6  8  2  0  0  0  0
  7 12  1  0  0  0  0
  8  9  1  0  0  0  0
  8 10  1  0  0  0  0
 10 11  1  0  0  0  0
 10 12  2  0  0  0  0
 12 32  1  0  0  0  0
 13 17  1  0  0  0  0
 17 18  1  6  0  0  0
 17 22  1  0  0  0  0
 23  1  1  0  0  0  0
 24  2  1  0  0  0  0
 26 22  1  6  0  0  0
 27 26  1  0  0  0  0
 27 28  1  0  0  0  0
 27 30  1  6  0  0  0
 28 13  1  0  0  0  0
 28 29  1  6  0  0  0
 31 30  1  0  0  0  0
 32 26  1  0  0  0  0
 32 31  1  0  0  0  0
M  CHG  3  14  -1  15  -1  16  -1
M  END
>  <CHROM.1>
43.43475489,-49.01560536,-179.69997813,-9.77435716,162.16823433,-19.69771970
-175.64986005,173.80334326,67.50756995,9.36312550,1.70883943,0.78153451,-0.54359460
0.63847834

>  <Name>
2au4_lig

>  <RI>
0

>  <Rbt.Current_Directory>
/home/itssahil/PROJECTS/Mol_Feturizer/New_Systems/rnas/2au4

>  <Rbt.Executable>
rbdock ($Id: //depot/dev/client3/rdock/2013.1/src/exe/rbdock.cxx#4 $)

>  <Rbt.Library>
libRbt.so (2013.1, Build901 2013/11/27)

>  <Rbt.Parameter_File>
/export/apps/rDock/src/rDock_2013.1_src/data/scripts/dock_solv.prm

>  <Rbt.Receptor>
prm/pocket_docking_4.prm

>  <SCORE>
-28.7962

>  <SCORE.INTER>
-5.31313

>  <SCORE.INTER.CONST>
1

>  <SCORE.INTER.POLAR>
-0.632271

>  <SCORE.INTER.ROT>
8

>  <SCORE.INTER.SOLV>
19.7033

>  <SCORE.INTER.VDW>
-16.9356

>  <SCORE.INTER.norm>
-0.166035

>  <SCORE.INTRA>
-23.7223

>  <SCORE.INTRA.DIHEDRAL>
-47.5355

>  <SCORE.INTRA.DIHEDRAL.0>
76.3625

>  <SCORE.INTRA.POLAR>
0

>  <SCORE.INTRA.POLAR.0>
0

>  <SCORE.INTRA.REPUL>
0.0691755

>  <SCORE.INTRA.REPUL.0>
0.12705

>  <SCORE.INTRA.SOLV>
-0.885914

>  <SCORE.INTRA.SOLV.lig_0>
-119.383

>  <SCORE.INTRA.VDW>
0.142535

>  <SCORE.INTRA.VDW.0>
-5.10464

>  <SCORE.INTRA.norm>
-0.741322

>  <SCORE.RESTR>
0.239247

>  <SCORE.RESTR.CAVITY>
0.239247

>  <SCORE.RESTR.norm>
0.00747647

>  <SCORE.SYSTEM>
0

>  <SCORE.SYSTEM.CONST>
0

>  <SCORE.SYSTEM.DIHEDRAL>
0

>  <SCORE.SYSTEM.SOLV>
0

>  <SCORE.SYSTEM.norm>
0

>  <SCORE.heavy>
32

>  <SCORE.norm>
-0.899881

>  <RMSD>
5.061

$$$$
2au4_lig
 OpenBabel11021811423D
libRbt.so/2013.1/901 2013/11/27
 32 34  0  0  0  0  0  0  0  0999 V2000
   71.7955   11.1705    2.8080 P   0  0  1  0  0  0  0  0  0  0  0  0
   73.2382   12.5509    0.9689 P   0  0  1  0  0  0  0  0  0  0  0  0
   72.8925   13.2844   -1.6356 P   0  0  2  0  0  0  0  0  0  0  0  0
   69.7344    9.8588    1.7774 C   0  0  0  0  0  0  0  0  0  0  0  0
   70.8668    9.8644    2.6624 O   0  0  0  0  0  0  0  0  0  0  0  0
   68.6512    8.8881    2.2245 C   0  0  0  0  0  0  0  0  0  0  0  0
   68.4973    7.8224    1.2649 O   0  0  0  0  0  0  0  0  0  0  0  0
   69.0027    8.2712    3.5693 C   0  0  0  0  0  0  0  0  0  0  0  0
   68.0479    8.6458    4.5698 O   0  0  0  0  0  0  0  0  0  0  0  0
   69.0159    6.7752    3.3646 C   0  0  0  0  0  0  0  0  0  0  0  0
   68.0752    6.1244    4.2293 O   0  0  0  0  0  0  0  0  0  0  0  0
   68.6612    6.5400    1.9065 C   0  0  0  0  0  0  0  0  0  0  0  0
   70.6710    5.0728   -2.5516 N   0  0  0  0  0  0  0  0  0  0  0  0
   70.9273   12.3647    2.8371 O   0  5  0  0  0  0  0  0  0  0  0  0
   73.1241   13.5164    2.0792 O   0  5  0  0  0  0  0  0  0  0  0  0
   74.0370   14.2025   -1.4670 O   0  5  0  0  0  0  0  0  0  0  0  0
   69.5964    5.8944   -2.3074 C   0  0  1  0  0  0  0  0  0  0  0  0
   68.9761    6.3833   -3.3729 N   0  0  0  0  0  0  0  0  0  0  0  0
   72.7714   10.9371    3.8940 O   0  0  0  0  0  0  0  0  0  0  0  0
   74.5587   12.2580    0.3738 O   0  0  0  0  0  0  0  0  0  0  0  0
   71.7894   13.6387   -2.5530 O   0  0  0  0  0  0  0  0  0  0  0  0
   69.1643    6.2067   -1.0881 N   0  0  0  0  0  0  0  0  0  0  0  0
   72.5912   11.1793    1.4343 O   0  0  0  0  0  0  0  0  0  0  0  0
   72.2635   13.0146   -0.1974 O   0  0  0  0  0  0  0  0  0  0  0  0
   73.4571   11.8391   -2.0512 O   0  0  0  0  0  0  0  0  0  0  0  0
   69.9052    5.6208   -0.1194 C   0  0  2  0  0  0  0  0  0  0  0  0
   70.9983    4.7840   -0.2765 C   0  0  2  0  0  0  0  0  0  0  0  0
   71.4449    4.4614   -1.5814 C   0  0  1  0  0  0  0  0  0  0  0  0
   72.3677    3.7273   -1.9085 O   0  0  0  0  0  0  0  0  0  0  0  0
   71.4970    4.3775    0.9657 N   0  0  0  0  0  0  0  0  0  0  0  0
   70.6901    4.9812    1.7759 C   0  0  0  0  0  0  0  0  0  0  0  0
   69.7083    5.7453    1.2355 N   0  0  0  0  0  0  0  0  0  0  0  0
  1  5  1  6  0  0  0
  1 14  1  0  0  0  0
  1 19  2  0  0  0  0
  2 15  1  1  0  0  0
  2 20  2  0  0  0  0
  2 23  1  0  0  0  0
  3 16  1  1  0  0  0
  3 21  2  0  0  0  0
  3 24  1  0  0  0  0
  3 25  1  0  0  0  0
  4  6  1  0  0  0  0
  5  4  1  0  0  0  0
  6  7  1  0  0  0  0
  6  8  2  0  0  0  0
  7 12  1  0  0  0  0
  8  9  1  0  0  0  0
  8 10  1  0  0  0  0
 10 11  1  0  0  0  0
 10 12  2  0  0  0  0
 12 32  1  0  0  0  0
 13 17  1  0  0  0  0
 17 18  1  6  0  0  0
 17 22  1  0  0  0  0
 23  1  1  0  0  0  0
 24  2  1  0  0  0  0
 26 22  1  6  0  0  0
 27 26  1  0  0  0  0
 27 28  1  0  0  0  0
 27 30  1  6  0  0  0
 28 13  1  0  0  0  0
 28 29  1  6  0  0  0
 31 30  1  0  0  0  0
 32 26  1  0  0  0  0
 32 31  1  0  0  0  0
M  CHG  3  14  -1  15  -1  16  -1
M  END
>  <CHROM.1>
41.21896724,9.01746294,-51.51169683,-114.75128644,-152.87078281,-42.13860112
159.52652269,122.59723963,71.15490287,9.25209451,0.71549972,0.67225641,1.05346682
0.79912008

>  <Name>
2au4_lig

>  <RI>
0

>  <Rbt.Current_Directory>
/home/itssahil/PROJECTS/Mol_Feturizer/New_Systems/rnas/2au4

>  <Rbt.Executable>
rbdock ($Id: //depot/dev/client3/rdock/2013.1/src/exe/rbdock.cxx#4 $)

>  <Rbt.Library>
libRbt.so (2013.1, Build901 2013/11/27)

>  <Rbt.Parameter_File>
/export/apps/rDock/src/rDock_2013.1_src/data/scripts/dock_solv.prm

>  <Rbt.Receptor>
prm/blind_docking_80.prm

>  <SCORE>
-43.8526

>  <SCORE.INTER>
-24.6871

>  <SCORE.INTER.CONST>
1

>  <SCORE.INTER.POLAR>
-1.59306

>  <SCORE.INTER.ROT>
8

>  <SCORE.INTER.SOLV>
35.3939

>  <SCORE.INTER.VDW>
-31.8792

>  <SCORE.INTER.norm>
-0.771471

>  <SCORE.INTRA>
-20.2396

>  <SCORE.INTRA.DIHEDRAL>
-40.8733

>  <SCORE.INTRA.DIHEDRAL.0>
76.3625

>  <SCORE.INTRA.POLAR>
0

>  <SCORE.INTRA.POLAR.0>
0

>  <SCORE.INTRA.REPUL>
0.00188562

>  <SCORE.INTRA.REPUL.0>
0.12705

>  <SCORE.INTRA.SOLV>
-6.34396

>  <SCORE.INTRA.SOLV.lig_0>
-119.383

>  <SCORE.INTRA.VDW>
3.35957

>  <SCORE.INTRA.VDW.0>
-5.10464

>  <SCORE.INTRA.norm>
-0.632489

>  <SCORE.RESTR>
1.07411

>  <SCORE.RESTR.CAVITY>
1.07411

>  <SCORE.RESTR.norm>
0.0335658

>  <SCORE.SYSTEM>
0

>  <SCORE.SYSTEM.CONST>
0

>  <SCORE.SYSTEM.DIHEDRAL>
0

>  <SCORE.SYSTEM.SOLV>
0

>  <SCORE.SYSTEM.norm>
0

>  <SCORE.heavy>
32

>  <SCORE.norm>
-1.37039

>  <RMSD>
5.068

$$$$
2au4_lig
 OpenBabel11021811423D
libRbt.so/2013.1/901 2013/11/27
 32 34  0  0  0  0  0  0  0  0999 V2000
   68.6904   11.9634    1.4531 P   0  0  1  0  0  0  0  0  0  0  0  0
   70.7944   13.2355    2.6041 P   0  0  1  0  0  0  0  0  0  0  0  0
   73.0556   13.0540    1.0893 P   0  0  2  0  0  0  0  0  0  0  0  0
   66.7624   10.1561    1.2366 C   0  0  0  0  0  0  0  0  0  0  0  0
   67.4402   11.1370    2.0392 O   0  0  0  0  0  0  0  0  0  0  0  0
   66.7226    8.7876    1.9008 C   0  0  0  0  0  0  0  0  0  0  0  0
   65.8166    7.9101    1.2011 O   0  0  0  0  0  0  0  0  0  0  0  0
   68.1022    8.1479    1.8990 C   0  0  0  0  0  0  0  0  0  0  0  0
   68.5840    7.9659    3.2360 O   0  0  0  0  0  0  0  0  0  0  0  0
   67.9598    6.8232    1.1882 C   0  0  0  0  0  0  0  0  0  0  0  0
   68.3503    5.7345    2.0358 O   0  0  0  0  0  0  0  0  0  0  0  0
   66.4974    6.7038    0.7953 C   0  0  0  0  0  0  0  0  0  0  0  0
   68.6515    4.8115   -3.4290 N   0  0  0  0  0  0  0  0  0  0  0  0
   69.5092   11.0548    0.6256 O   0  5  0  0  0  0  0  0  0  0  0  0
   70.3472   14.5607    2.1330 O   0  5  0  0  0  0  0  0  0  0  0  0
   73.5110   12.3793   -0.1430 O   0  5  0  0  0  0  0  0  0  0  0  0
   69.1279    4.8292   -2.1397 C   0  0  1  0  0  0  0  0  0  0  0  0
   70.3212    4.2835   -1.9464 N   0  0  0  0  0  0  0  0  0  0  0  0
   68.1920   13.2348    0.8864 O   0  0  0  0  0  0  0  0  0  0  0  0
   71.6032   13.1205    3.8354 O   0  0  0  0  0  0  0  0  0  0  0  0
   73.8623   12.9616    2.3241 O   0  0  0  0  0  0  0  0  0  0  0  0
   68.4662    5.3561   -1.1125 N   0  0  0  0  0  0  0  0  0  0  0  0
   69.5176   12.3077    2.7637 O   0  0  0  0  0  0  0  0  0  0  0  0
   71.5896   12.5288    1.4237 O   0  0  0  0  0  0  0  0  0  0  0  0
   72.8078   14.6061    0.7572 O   0  0  0  0  0  0  0  0  0  0  0  0
   67.2725    5.8721   -1.4859 C   0  0  2  0  0  0  0  0  0  0  0  0
   66.7185    5.8961   -2.7557 C   0  0  2  0  0  0  0  0  0  0  0  0
   67.4365    5.3311   -3.8381 C   0  0  1  0  0  0  0  0  0  0  0  0
   67.1179    5.2843   -5.0187 O   0  0  0  0  0  0  0  0  0  0  0  0
   65.4660    6.5190   -2.7409 N   0  0  0  0  0  0  0  0  0  0  0  0
   65.3467    6.8254   -1.4904 C   0  0  0  0  0  0  0  0  0  0  0  0
   66.3628    6.4866   -0.6583 N   0  0  0  0  0  0  0  0  0  0  0  0
  1  5  1  1  0  0  0
  1 14  1  0  0  0  0
  1 19  2  0  0  0  0
  2 15  1  6  0  0  0
  2 20  2  0  0  0  0
  2 23  1  0  0  0  0
  3 16  1  6  0  0  0
  3 21  2  0  0  0  0
  3 24  1  0  0  0  0
  3 25  1  0  0  0  0
  4  6  1  0  0  0  0
  5  4  1  0  0  0  0
  6  7  1  0  0  0  0
  6  8  2  0  0  0  0
  7 12  1  0  0  0  0
  8  9  1  0  0  0  0
  8 10  1  0  0  0  0
 10 11  1  0  0  0  0
 10 12  2  0  0  0  0
 12 32  1  0  0  0  0
 13 17  1  0  0  0  0
 17 18  1  6  0  0  0
 17 22  1  0  0  0  0
 23  1  1  0  0  0  0
 24  2  1  0  0  0  0
 26 22  1  6  0  0  0
 27 26  1  0  0  0  0
 27 28  1  0  0  0  0
 27 30  1  6  0  0  0
 28 13  1  0  0  0  0
 28 29  1  6  0  0  0
 31 30  1  0  0  0  0
 32 26  1  0  0  0  0
 32 31  1  0  0  0  0
M  CHG  3  14  -1  15  -1  16  -1
M  END
>  <CHROM.1>
-38.65403089,63.78394372,-172.43717150,168.57378721,124.12175057,148.96612829
-175.27154265,73.95328973,69.10306179,9.58122174,0.47242959,1.04589180,0.45640811
0.71120822

>  <Name>
2au4_lig

>  <RI>
0

>  <Rbt.Current_Directory>
/home/itssahil/PROJECTS/Mol_Feturizer/New_Systems/rnas/2au4

>  <Rbt.Executable>
rbdock ($Id: //depot/dev/client3/rdock/2013.1/src/exe/rbdock.cxx#4 $)

>  <Rbt.Library>
libRbt.so (2013.1, Build901 2013/11/27)

>  <Rbt.Parameter_File>
/export/apps/rDock/src/rDock_2013.1_src/data/scripts/dock_solv.prm

>  <Rbt.Receptor>
prm/pocket_docking_5.prm

>  <SCORE>
-41.1778

>  <SCORE.INTER>
-18.0495

>  <SCORE.INTER.CONST>
1

>  <SCORE.INTER.POLAR>
-1.25

>  <SCORE.INTER.ROT>
8

>  <SCORE.INTER.SOLV>
25.122

>  <SCORE.INTER.VDW>
-25.1737

>  <SCORE.INTER.norm>
-0.564047

>  <SCORE.INTRA>
-23.1344

>  <SCORE.INTRA.DIHEDRAL>
-42.4924

>  <SCORE.INTRA.DIHEDRAL.0>
76.3625

>  <SCORE.INTRA.POLAR>
0

>  <SCORE.INTRA.POLAR.0>
0

>  <SCORE.INTRA.REPUL>
-0.12705

>  <SCORE.INTRA.REPUL.0>
0.12705

>  <SCORE.INTRA.SOLV>
-4.6742

>  <SCORE.INTRA.SOLV.lig_0>
-119.383

>  <SCORE.INTRA.VDW>
1.08415

>  <SCORE.INTRA.VDW.0>
-5.10464

>  <SCORE.INTRA.norm>
-0.722949

>  <SCORE.RESTR>
0.00609371

>  <SCORE.RESTR.CAVITY>
0.00609371

>  <SCORE.RESTR.norm>
0.000190429

>  <SCORE.SYSTEM>
0

>  <SCORE.SYSTEM.CONST>
0

>  <SCORE.SYSTEM.DIHEDRAL>
0

>  <SCORE.SYSTEM.SOLV>
0

>  <SCORE.SYSTEM.norm>
0

>  <SCORE.heavy>
32

>  <SCORE.norm>
-1.28681

>  <RMSD>
5.089

$$$$
2au4_lig
 OpenBabel11021811423D
libRbt.so/2013.1/901 2013/11/27
 32 34  0  0  0  0  0  0  0  0999 V2000
   69.2380   11.2711    0.9297 P   0  0  1  0  0  0  0  0  0  0  0  0
   71.8281   11.6373    1.6554 P   0  0  1  0  0  0  0  0  0  0  0  0
   72.2542   12.7966    4.0875 P   0  0  2  0  0  0  0  0  0  0  0  0
   67.8079    9.9816    2.7525 C   0  0  0  0  0  0  0  0  0  0  0  0
   68.2994   10.0530    1.4038 O   0  0  0  0  0  0  0  0  0  0  0  0
   67.5599    8.5506    3.2064 C   0  0  0  0  0  0  0  0  0  0  0  0
   66.7019    7.8635    2.2726 O   0  0  0  0  0  0  0  0  0  0  0  0
   68.8686    7.7825    3.3051 C   0  0  0  0  0  0  0  0  0  0  0  0
   69.1285    7.3850    4.6569 O   0  0  0  0  0  0  0  0  0  0  0  0
   68.7290    6.5796    2.4029 C   0  0  0  0  0  0  0  0  0  0  0  0
   68.8999    5.3587    3.1351 O   0  0  0  0  0  0  0  0  0  0  0  0
   67.3372    6.6570    1.7995 C   0  0  0  0  0  0  0  0  0  0  0  0
   69.9391    5.1076   -2.3110 N   0  0  0  0  0  0  0  0  0  0  0  0
   69.0170   11.5023   -0.5120 O   0  5  0  0  0  0  0  0  0  0  0  0
   73.1337   10.9762    1.4643 O   0  5  0  0  0  0  0  0  0  0  0  0
   73.5182   13.1465    3.4086 O   0  5  0  0  0  0  0  0  0  0  0  0
   70.2163    4.9131   -0.9788 C   0  0  1  0  0  0  0  0  0  0  0  0
   71.3183    4.2292   -0.7013 N   0  0  0  0  0  0  0  0  0  0  0  0
   69.0873   12.3848    1.8905 O   0  0  0  0  0  0  0  0  0  0  0  0
   71.5905   12.9845    1.0967 O   0  0  0  0  0  0  0  0  0  0  0  0
   72.2726   12.3294    5.4895 O   0  0  0  0  0  0  0  0  0  0  0  0
   69.4532    5.3698    0.0112 N   0  0  0  0  0  0  0  0  0  0  0  0
   70.6961   10.6695    1.1093 O   0  0  0  0  0  0  0  0  0  0  0  0
   71.5178   11.6876    3.2131 O   0  0  0  0  0  0  0  0  0  0  0  0
   71.2559   14.0507    3.9812 O   0  0  0  0  0  0  0  0  0  0  0  0
   68.3754    6.0472   -0.4471 C   0  0  2  0  0  0  0  0  0  0  0  0
   68.0222    6.2882   -1.7651 C   0  0  2  0  0  0  0  0  0  0  0  0
   68.8459    5.7953   -2.8067 C   0  0  1  0  0  0  0  0  0  0  0  0
   68.7055    5.9312   -4.0147 O   0  0  0  0  0  0  0  0  0  0  0  0
   66.8369    7.0279   -1.8358 N   0  0  0  0  0  0  0  0  0  0  0  0
   66.5567    7.1835   -0.5832 C   0  0  0  0  0  0  0  0  0  0  0  0
   67.4052    6.6407    0.3252 N   0  0  0  0  0  0  0  0  0  0  0  0
  1  5  1  1  0  0  0
  1 14  1  0  0  0  0
  1 19  2  0  0  0  0
  2 15  1  6  0  0  0
  2 20  2  0  0  0  0
  2 23  1  0  0  0  0
  3 16  1  6  0  0  0
  3 21  2  0  0  0  0
  3 24  1  0  0  0  0
  3 25  1  0  0  0  0
  4  6  1  0  0  0  0
  5  4  1  0  0  0  0
  6  7  1  0  0  0  0
  6  8  2  0  0  0  0
  7 12  1  0  0  0  0
  8  9  1  0  0  0  0
  8 10  1  0  0  0  0
 10 11  1  0  0  0  0
 10 12  2  0  0  0  0
 12 32  1  0  0  0  0
 13 17  1  0  0  0  0
 17 18  1  1  0  0  0
 17 22  1  0  0  0  0
 23  1  1  0  0  0  0
 24  2  1  0  0  0  0
 26 22  1  1  0  0  0
 27 26  1  0  0  0  0
 27 28  1  0  0  0  0
 27 30  1  1  0  0  0
 28 13  1  0  0  0  0
 28 29  1  1  0  0  0
 31 30  1  0  0  0  0
 32 26  1  0  0  0  0
 32 31  1  0  0  0  0
M  CHG  3  14  -1  15  -1  16  -1
M  END
>  <CHROM.1>
-150.66503793,-167.75143988,-25.94390217,-53.45616162,-151.75878795,149.08360891
-141.44709754,78.05780807,69.73798539,9.20249409,1.32399673,-0.82281521,-0.97572550
-1.94256964

>  <Name>
2au4_lig

>  <RI>
0

>  <Rbt.Current_Directory>
/home/itssahil/PROJECTS/Mol_Feturizer/New_Systems/rnas/2au4

>  <Rbt.Executable>
rbdock ($Id: //depot/dev/client3/rdock/2013.1/src/exe/rbdock.cxx#4 $)

>  <Rbt.Library>
libRbt.so (2013.1, Build901 2013/11/27)

>  <Rbt.Parameter_File>
/export/apps/rDock/src/rDock_2013.1_src/data/scripts/dock_solv.prm

>  <Rbt.Receptor>
prm/pocket_docking_7.prm

>  <SCORE>
-41.0896

>  <SCORE.INTER>
-17.9718

>  <SCORE.INTER.CONST>
1

>  <SCORE.INTER.POLAR>
-1.90534

>  <SCORE.INTER.ROT>
8

>  <SCORE.INTER.SOLV>
23.8119

>  <SCORE.INTER.VDW>
-22.5007

>  <SCORE.INTER.norm>
-0.561619

>  <SCORE.INTRA>
-23.1178

>  <SCORE.INTRA.DIHEDRAL>
-42.6648

>  <SCORE.INTRA.DIHEDRAL.0>
76.3625

>  <SCORE.INTRA.POLAR>
0

>  <SCORE.INTRA.POLAR.0>
0

>  <SCORE.INTRA.REPUL>
-0.12705

>  <SCORE.INTRA.REPUL.0>
0.12705

>  <SCORE.INTRA.SOLV>
-5.01611

>  <SCORE.INTRA.SOLV.lig_0>
-119.383

>  <SCORE.INTRA.VDW>
1.35792

>  <SCORE.INTRA.VDW.0>
-5.10464

>  <SCORE.INTRA.norm>
-0.722431

>  <SCORE.RESTR>
0

>  <SCORE.RESTR.CAVITY>
0

>  <SCORE.RESTR.norm>
0

>  <SCORE.SYSTEM>
0

>  <SCORE.SYSTEM.CONST>
0

>  <SCORE.SYSTEM.DIHEDRAL>
0

>  <SCORE.SYSTEM.SOLV>
0

>  <SCORE.SYSTEM.norm>
0

>  <SCORE.heavy>
32

>  <SCORE.norm>
-1.28405

>  <RMSD>
5.101

$$$$
2au4_lig
 OpenBabel11021811423D
libRbt.so/2013.1/901 2013/11/27
 32 34  0  0  0  0  0  0  0  0999 V2000
   71.4395   10.8732    1.9362 P   0  0  1  0  0  0  0  0  0  0  0  0
   71.8473   13.4767    2.5882 P   0  0  1  0  0  0  0  0  0  0  0  0
   69.7401   14.8458    3.6493 P   0  0  2  0  0  0  0  0  0  0  0  0
   68.9359   10.1631    2.4444 C   0  0  0  0  0  0  0  0  0  0  0  0
   70.3209    9.7917    2.3466 O   0  0  0  0  0  0  0  0  0  0  0  0
   68.0428    8.9875    2.8128 C   0  0  0  0  0  0  0  0  0  0  0  0
   67.5901    8.3029    1.6268 O   0  0  0  0  0  0  0  0  0  0  0  0
   68.7953    7.9908    3.6804 C   0  0  0  0  0  0  0  0  0  0  0  0
   68.2045    7.8967    4.9824 O   0  0  0  0  0  0  0  0  0  0  0  0
   68.7360    6.6648    2.9603 C   0  0  0  0  0  0  0  0  0  0  0  0
   68.1108    5.6610    3.7712 O   0  0  0  0  0  0  0  0  0  0  0  0
   67.9405    6.9041    1.6886 C   0  0  0  0  0  0  0  0  0  0  0  0
   71.9509    4.2754   -0.0646 N   0  0  0  0  0  0  0  0  0  0  0  0
   72.7545   10.3916    2.4048 O   0  5  0  0  0  0  0  0  0  0  0  0
   73.2710   13.2153    2.8760 O   0  5  0  0  0  0  0  0  0  0  0  0
   69.1755   14.7680    5.0118 O   0  5  0  0  0  0  0  0  0  0  0  0
   71.5043    4.4273    1.2266 C   0  0  1  0  0  0  0  0  0  0  0  0
   72.2074    3.8121    2.1680 N   0  0  0  0  0  0  0  0  0  0  0  0
   71.2464   11.2364    0.5160 O   0  0  0  0  0  0  0  0  0  0  0  0
   71.4459   14.0377    1.2814 O   0  0  0  0  0  0  0  0  0  0  0  0
   69.1170   14.0848    2.5463 O   0  0  0  0  0  0  0  0  0  0  0  0
   70.4343    5.1443    1.5610 N   0  0  0  0  0  0  0  0  0  0  0  0
   71.0386   12.1314    2.8174 O   0  0  0  0  0  0  0  0  0  0  0  0
   71.2737   14.4233    3.7285 O   0  0  0  0  0  0  0  0  0  0  0  0
   69.8211   16.3917    3.2201 O   0  0  0  0  0  0  0  0  0  0  0  0
   69.8398    5.7058    0.4831 C   0  0  2  0  0  0  0  0  0  0  0  0
   70.2214    5.6044   -0.8450 C   0  0  2  0  0  0  0  0  0  0  0  0
   71.3631    4.8375   -1.1837 C   0  0  1  0  0  0  0  0  0  0  0  0
   71.8569    4.6580   -2.2889 O   0  0  0  0  0  0  0  0  0  0  0  0
   69.3540    6.3293   -1.6692 N   0  0  0  0  0  0  0  0  0  0  0  0
   68.5226    6.8122   -0.8046 C   0  0  0  0  0  0  0  0  0  0  0  0
   68.7202    6.5034    0.5013 N   0  0  0  0  0  0  0  0  0  0  0  0
  1  5  1  1  0  0  0
  1 14  1  0  0  0  0
  1 19  2  0  0  0  0
  2 15  1  1  0  0  0
  2 20  2  0  0  0  0
  2 23  1  0  0  0  0
  3 16  1  1  0  0  0
  3 21  2  0  0  0  0
  3 24  1  0  0  0  0
  3 25  1  0  0  0  0
  4  6  1  0  0  0  0
  5  4  1  0  0  0  0
  6  7  1  0  0  0  0
  6  8  2  0  0  0  0
  7 12  1  0  0  0  0
  8  9  1  0  0  0  0
  8 10  1  0  0  0  0
 10 11  1  0  0  0  0
 10 12  2  0  0  0  0
 12 32  1  0  0  0  0
 13 17  1  0  0  0  0
 17 18  1  1  0  0  0
 17 22  1  0  0  0  0
 23  1  1  0  0  0  0
 24  2  1  0  0  0  0
 26 22  1  1  0  0  0
 27 26  1  0  0  0  0
 27 28  1  0  0  0  0
 27 30  1  1  0  0  0
 28 13  1  0  0  0  0
 28 29  1  1  0  0  0
 31 30  1  0  0  0  0
 32 26  1  0  0  0  0
 32 31  1  0  0  0  0
M  CHG  3  14  -1  15  -1  16  -1
M  END
>  <CHROM.1>
158.56610317,-59.99257831,137.97175252,-89.29128607,178.65783664,136.83302061
-174.46247413,-179.55292147,70.27044958,9.63611856,1.93788483,-1.51584280
-0.66303459,-2.81300535

>  <Name>
2au4_lig

>  <RI>
0

>  <Rbt.Current_Directory>
/home/itssahil/PROJECTS/Mol_Feturizer/New_Systems/rnas/2au4

>  <Rbt.Executable>
rbdock ($Id: //depot/dev/client3/rdock/2013.1/src/exe/rbdock.cxx#4 $)

>  <Rbt.Library>
libRbt.so (2013.1, Build901 2013/11/27)

>  <Rbt.Parameter_File>
/export/apps/rDock/src/rDock_2013.1_src/data/scripts/dock_solv.prm

>  <Rbt.Receptor>
prm/pocket_docking_7.prm

>  <SCORE>
-61.1605

>  <SCORE.INTER>
-37.4588

>  <SCORE.INTER.CONST>
1

>  <SCORE.INTER.POLAR>
-4.16567

>  <SCORE.INTER.ROT>
8

>  <SCORE.INTER.SOLV>
35.1103

>  <SCORE.INTER.VDW>
-31.7237

>  <SCORE.INTER.norm>
-1.17059

>  <SCORE.INTRA>
-23.7018

>  <SCORE.INTRA.DIHEDRAL>
-45.8812

>  <SCORE.INTRA.DIHEDRAL.0>
76.3625

>  <SCORE.INTRA.POLAR>
0

>  <SCORE.INTRA.POLAR.0>
0

>  <SCORE.INTRA.REPUL>
-0.12705

>  <SCORE.INTRA.REPUL.0>
0.12705

>  <SCORE.INTRA.SOLV>
-4.4143

>  <SCORE.INTRA.SOLV.lig_0>
-119.383

>  <SCORE.INTRA.VDW>
2.08124

>  <SCORE.INTRA.VDW.0>
-5.10464

>  <SCORE.INTRA.norm>
-0.74068

>  <SCORE.RESTR>
0

>  <SCORE.RESTR.CAVITY>
0

>  <SCORE.RESTR.norm>
0

>  <SCORE.SYSTEM>
0

>  <SCORE.SYSTEM.CONST>
0

>  <SCORE.SYSTEM.DIHEDRAL>
0

>  <SCORE.SYSTEM.SOLV>
0

>  <SCORE.SYSTEM.norm>
0

>  <SCORE.heavy>
32

>  <SCORE.norm>
-1.91127

>  <RMSD>
5.103

$$$$
2au4_lig
 OpenBabel11021811423D
libRbt.so/2013.1/901 2013/11/27
 32 34  0  0  0  0  0  0  0  0999 V2000
   70.6795   12.6163   -0.3069 P   0  0  1  0  0  0  0  0  0  0  0  0
   72.3559   13.0811    1.7771 P   0  0  1  0  0  0  0  0  0  0  0  0
   72.7934   11.9916    4.2392 P   0  0  2  0  0  0  0  0  0  0  0  0
   68.4071   12.4837   -1.6668 C   0  0  0  0  0  0  0  0  0  0  0  0
   69.2138   13.1601   -0.6883 O   0  0  0  0  0  0  0  0  0  0  0  0
   67.1625   11.8532   -1.0596 C   0  0  0  0  0  0  0  0  0  0  0  0
   66.8885   10.5775   -1.6741 O   0  0  0  0  0  0  0  0  0  0  0  0
   67.3443   11.6333    0.4341 C   0  0  0  0  0  0  0  0  0  0  0  0
   66.4130   12.4219    1.1850 O   0  0  0  0  0  0  0  0  0  0  0  0
   67.1293   10.1590    0.6799 C   0  0  0  0  0  0  0  0  0  0  0  0
   66.0554    9.9378    1.6040 O   0  0  0  0  0  0  0  0  0  0  0  0
   66.8142    9.5417   -0.6717 C   0  0  0  0  0  0  0  0  0  0  0  0
   69.6252    5.7164    1.2077 N   0  0  0  0  0  0  0  0  0  0  0  0
   70.5676   11.1973    0.0863 O   0  5  0  0  0  0  0  0  0  0  0  0
   72.9060   11.8446    1.1885 O   0  5  0  0  0  0  0  0  0  0  0  0
   74.1238   12.6249    4.1382 O   0  5  0  0  0  0  0  0  0  0  0  0
   68.8047    6.6013    1.8660 C   0  0  1  0  0  0  0  0  0  0  0  0
   68.7220    6.4586    3.1820 N   0  0  0  0  0  0  0  0  0  0  0  0
   71.6238   13.0181   -1.3714 O   0  0  0  0  0  0  0  0  0  0  0  0
   73.1940   14.2946    1.8702 O   0  0  0  0  0  0  0  0  0  0  0  0
   72.6474   10.5384    4.0136 O   0  0  0  0  0  0  0  0  0  0  0  0
   68.1159    7.5649    1.2596 N   0  0  0  0  0  0  0  0  0  0  0  0
   71.0285   13.4568    0.9938 O   0  0  0  0  0  0  0  0  0  0  0  0
   71.8144   12.7427    3.2322 O   0  0  0  0  0  0  0  0  0  0  0  0
   72.1673   12.3503    5.6745 O   0  0  0  0  0  0  0  0  0  0  0  0
   68.3186    7.5716   -0.0781 C   0  0  2  0  0  0  0  0  0  0  0  0
   69.1235    6.7209   -0.8185 C   0  0  2  0  0  0  0  0  0  0  0  0
   69.8503    5.7008   -0.1571 C   0  0  1  0  0  0  0  0  0  0  0  0
   70.6212    4.8823   -0.6403 O   0  0  0  0  0  0  0  0  0  0  0  0
   69.0735    7.0458   -2.1783 N   0  0  0  0  0  0  0  0  0  0  0  0
   68.2597    8.0507   -2.1720 C   0  0  0  0  0  0  0  0  0  0  0  0
   67.7534    8.4449   -0.9770 N   0  0  0  0  0  0  0  0  0  0  0  0
  1  5  1  6  0  0  0
  1 14  1  0  0  0  0
  1 19  2  0  0  0  0
  2 15  1  6  0  0  0
  2 20  2  0  0  0  0
  2 23  1  0  0  0  0
  3 16  1  6  0  0  0
  3 21  2  0  0  0  0
  3 24  1  0  0  0  0
  3 25  1  0  0  0  0
  4  6  1  0  0  0  0
  5  4  1  0  0  0  0
  6  7  1  0  0  0  0
  6  8  2  0  0  0  0
  7 12  1  0  0  0  0
  8  9  1  0  0  0  0
  8 10  1  0  0  0  0
 10 11  1  0  0  0  0
 10 12  2  0  0  0  0
 12 32  1  0  0  0  0
 13 17  1  0  0  0  0
 17 18  1  1  0  0  0
 17 22  1  0  0  0  0
 23  1  1  0  0  0  0
 24  2  1  0  0  0  0
 26 22  1  1  0  0  0
 27 26  1  0  0  0  0
 27 28  1  0  0  0  0
 27 30  1  1  0  0  0
 28 13  1  0  0  0  0
 28 29  1  1  0  0  0
 31 30  1  0  0  0  0
 32 26  1  0  0  0  0
 32 31  1  0  0  0  0
M  CHG  3  14  -1  15  -1  16  -1
M  END
>  <CHROM.1>
-54.07464504,-7.94044357,43.83402018,-141.66435302,113.33287820,154.44767215
173.20081108,51.68688198,69.99708613,10.52665195,0.92186834,0.65725520,-0.75672148
-0.19086536

>  <Name>
2au4_lig

>  <RI>
0

>  <Rbt.Current_Directory>
/home/itssahil/PROJECTS/Mol_Feturizer/New_Systems/rnas/2au4

>  <Rbt.Executable>
rbdock ($Id: //depot/dev/client3/rdock/2013.1/src/exe/rbdock.cxx#4 $)

>  <Rbt.Library>
libRbt.so (2013.1, Build901 2013/11/27)

>  <Rbt.Parameter_File>
/export/apps/rDock/src/rDock_2013.1_src/data/scripts/dock_solv.prm

>  <Rbt.Receptor>
prm/pocket_docking_6.prm

>  <SCORE>
-39.0654

>  <SCORE.INTER>
-18.4615

>  <SCORE.INTER.CONST>
1

>  <SCORE.INTER.POLAR>
-2.44184

>  <SCORE.INTER.ROT>
8

>  <SCORE.INTER.SOLV>
35.1371

>  <SCORE.INTER.VDW>
-24.814

>  <SCORE.INTER.norm>
-0.576923

>  <SCORE.INTRA>
-20.6038

>  <SCORE.INTRA.DIHEDRAL>
-40.4062

>  <SCORE.INTRA.DIHEDRAL.0>
76.3625

>  <SCORE.INTRA.POLAR>
0

>  <SCORE.INTRA.POLAR.0>
0

>  <SCORE.INTRA.REPUL>
-0.12705

>  <SCORE.INTRA.REPUL.0>
0.12705

>  <SCORE.INTRA.SOLV>
-2.35767

>  <SCORE.INTRA.SOLV.lig_0>
-119.383

>  <SCORE.INTRA.VDW>
1.41339

>  <SCORE.INTRA.VDW.0>
-5.10464

>  <SCORE.INTRA.norm>
-0.643869

>  <SCORE.RESTR>
0

>  <SCORE.RESTR.CAVITY>
0

>  <SCORE.RESTR.norm>
0

>  <SCORE.SYSTEM>
0

>  <SCORE.SYSTEM.CONST>
0

>  <SCORE.SYSTEM.DIHEDRAL>
0

>  <SCORE.SYSTEM.SOLV>
0

>  <SCORE.SYSTEM.norm>
0

>  <SCORE.heavy>
32

>  <SCORE.norm>
-1.22079

>  <RMSD>
5.122

$$$$
2au4_lig
 OpenBabel11021811423D
libRbt.so/2013.1/901 2013/11/27
 32 34  0  0  0  0  0  0  0  0999 V2000
   68.3208   12.2575    0.5685 P   0  0  1  0  0  0  0  0  0  0  0  0
   70.3378   12.9313    2.2558 P   0  0  1  0  0  0  0  0  0  0  0  0
   72.9569   12.7329    1.5195 P   0  0  2  0  0  0  0  0  0  0  0  0
   66.9409   10.1573    1.4145 C   0  0  0  0  0  0  0  0  0  0  0  0
   68.1968   10.8525    1.3431 O   0  0  0  0  0  0  0  0  0  0  0  0
   67.0049    8.9309    2.3129 C   0  0  0  0  0  0  0  0  0  0  0  0
   66.4586    7.7789    1.6388 O   0  0  0  0  0  0  0  0  0  0  0  0
   68.4429    8.6201    2.6981 C   0  0  0  0  0  0  0  0  0  0  0  0
   68.6347    8.7541    4.1117 O   0  0  0  0  0  0  0  0  0  0  0  0
   68.7117    7.2047    2.2456 C   0  0  0  0  0  0  0  0  0  0  0  0
   69.0942    6.3710    3.3477 O   0  0  0  0  0  0  0  0  0  0  0  0
   67.4239    6.7062    1.6130 C   0  0  0  0  0  0  0  0  0  0  0  0
   65.4572    6.1021   -3.0597 N   0  0  0  0  0  0  0  0  0  0  0  0
   68.1037   12.0213   -0.8730 O   0  5  0  0  0  0  0  0  0  0  0  0
   70.6193   14.3760    2.3641 O   0  5  0  0  0  0  0  0  0  0  0  0
   72.4846   13.0975    0.1685 O   0  5  0  0  0  0  0  0  0  0  0  0
   64.8704    6.6104   -1.9252 C   0  0  1  0  0  0  0  0  0  0  0  0
   63.6086    7.0022   -2.0411 N   0  0  0  0  0  0  0  0  0  0  0  0
   67.5093   13.2647    1.2848 O   0  0  0  0  0  0  0  0  0  0  0  0
   69.3930   12.2878    3.1922 O   0  0  0  0  0  0  0  0  0  0  0  0
   74.0874   11.7947    1.6794 O   0  0  0  0  0  0  0  0  0  0  0  0
   65.4929    6.7190   -0.7541 N   0  0  0  0  0  0  0  0  0  0  0  0
   69.8500   12.6294    0.7769 O   0  0  0  0  0  0  0  0  0  0  0  0
   71.7180   12.1473    2.3313 O   0  0  0  0  0  0  0  0  0  0  0  0
   73.2977   14.0831    2.3204 O   0  0  0  0  0  0  0  0  0  0  0  0
   66.7680    6.2704   -0.8112 C   0  0  2  0  0  0  0  0  0  0  0  0
   67.4346    5.7460   -1.9069 C   0  0  2  0  0  0  0  0  0  0  0  0
   66.7571    5.6370   -3.1460 C   0  0  1  0  0  0  0  0  0  0  0  0
   67.1745    5.1811   -4.2021 O   0  0  0  0  0  0  0  0  0  0  0  0
   68.7451    5.3910   -1.5695 N   0  0  0  0  0  0  0  0  0  0  0  0
   68.7849    5.7161   -0.3186 C   0  0  0  0  0  0  0  0  0  0  0  0
   67.6642    6.2468    0.2311 N   0  0  0  0  0  0  0  0  0  0  0  0
  1  5  1  1  0  0  0
  1 14  1  0  0  0  0
  1 19  2  0  0  0  0
  2 15  1  1  0  0  0
  2 20  2  0  0  0  0
  2 23  1  0  0  0  0
  3 16  1  6  0  0  0
  3 21  2  0  0  0  0
  3 24  1  0  0  0  0
  3 25  1  0  0  0  0
  4  6  1  0  0  0  0
  5  4  1  0  0  0  0
  6  7  1  0  0  0  0
  6  8  2  0  0  0  0
  7 12  1  0  0  0  0
  8  9  1  0  0  0  0
  8 10  1  0  0  0  0
 10 11  1  0  0  0  0
 10 12  2  0  0  0  0
 12 32  1  0  0  0  0
 13 17  1  0  0  0  0
 17 18  1  1  0  0  0
 17 22  1  0  0  0  0
 23  1  1  0  0  0  0
 24  2  1  0  0  0  0
 26 22  1  1  0  0  0
 27 26  1  0  0  0  0
 27 28  1  0  0  0  0
 27 30  1  1  0  0  0
 28 13  1  0  0  0  0
 28 29  1  1  0  0  0
 31 30  1  0  0  0  0
 32 26  1  0  0  0  0
 32 31  1  0  0  0  0
M  CHG  3  14  -1  15  -1  16  -1
M  END
>  <CHROM.1>
-66.74445629,-109.25036153,-45.57047115,-130.31722900,-173.87774485,-29.91016223
-65.51064074,-42.45398950,68.80396100,9.71777708,0.71055712,0.76906008,-0.70572721
-0.14751034

>  <Name>
2au4_lig

>  <RI>
0

>  <Rbt.Current_Directory>
/home/itssahil/PROJECTS/Mol_Feturizer/New_Systems/rnas/2au4

>  <Rbt.Executable>
rbdock ($Id: //depot/dev/client3/rdock/2013.1/src/exe/rbdock.cxx#4 $)

>  <Rbt.Library>
libRbt.so (2013.1, Build901 2013/11/27)

>  <Rbt.Parameter_File>
/export/apps/rDock/src/rDock_2013.1_src/data/scripts/dock_solv.prm

>  <Rbt.Receptor>
prm/pocket_docking_4.prm

>  <SCORE>
-40.2459

>  <SCORE.INTER>
-15.4275

>  <SCORE.INTER.CONST>
1

>  <SCORE.INTER.POLAR>
-1

>  <SCORE.INTER.ROT>
8

>  <SCORE.INTER.SOLV>
20.9342

>  <SCORE.INTER.VDW>
-22.8631

>  <SCORE.INTER.norm>
-0.48211

>  <SCORE.INTRA>
-24.8184

>  <SCORE.INTRA.DIHEDRAL>
-48.8489

>  <SCORE.INTRA.DIHEDRAL.0>
76.3625

>  <SCORE.INTRA.POLAR>
0

>  <SCORE.INTRA.POLAR.0>
0

>  <SCORE.INTRA.REPUL>
0.0641376

>  <SCORE.INTRA.REPUL.0>
0.12705

>  <SCORE.INTRA.SOLV>
-5.78317

>  <SCORE.INTRA.SOLV.lig_0>
-119.383

>  <SCORE.INTRA.VDW>
2.17694

>  <SCORE.INTRA.VDW.0>
-5.10464

>  <SCORE.INTRA.norm>
-0.775576

>  <SCORE.RESTR>
0

>  <SCORE.RESTR.CAVITY>
0

>  <SCORE.RESTR.norm>
0

>  <SCORE.SYSTEM>
0

>  <SCORE.SYSTEM.CONST>
0

>  <SCORE.SYSTEM.DIHEDRAL>
0

>  <SCORE.SYSTEM.SOLV>
0

>  <SCORE.SYSTEM.norm>
0

>  <SCORE.heavy>
32

>  <SCORE.norm>
-1.25769

>  <RMSD>
5.144

$$$$
2au4_lig
 OpenBabel11021811423D
libRbt.so/2013.1/901 2013/11/27
 32 34  0  0  0  0  0  0  0  0999 V2000
   68.9452   11.5878    0.7675 P   0  0  1  0  0  0  0  0  0  0  0  0
   71.4715   10.5995    0.8692 P   0  0  1  0  0  0  0  0  0  0  0  0
   73.3002   11.6709    2.5864 P   0  0  2  0  0  0  0  0  0  0  0  0
   67.1655    9.9952    1.9194 C   0  0  0  0  0  0  0  0  0  0  0  0
   68.4811   10.1685    1.3672 O   0  0  0  0  0  0  0  0  0  0  0  0
   66.9829    8.6322    2.5709 C   0  0  0  0  0  0  0  0  0  0  0  0
   66.4334    7.6888    1.6284 O   0  0  0  0  0  0  0  0  0  0  0  0
   68.3141    8.0898    3.0670 C   0  0  0  0  0  0  0  0  0  0  0  0
   68.3113    7.9516    4.4931 O   0  0  0  0  0  0  0  0  0  0  0  0
   68.5107    6.7531    2.3924 C   0  0  0  0  0  0  0  0  0  0  0  0
   68.6493    5.7005    3.3562 O   0  0  0  0  0  0  0  0  0  0  0  0
   67.2867    6.5296    1.5212 C   0  0  0  0  0  0  0  0  0  0  0  0
   65.9702    6.9919   -3.3899 N   0  0  0  0  0  0  0  0  0  0  0  0
   67.9581   12.0172   -0.2435 O   0  5  0  0  0  0  0  0  0  0  0  0
   70.8911    9.6552    1.8437 O   0  5  0  0  0  0  0  0  0  0  0  0
   73.6996   12.9993    3.0935 O   0  5  0  0  0  0  0  0  0  0  0  0
   65.2764    7.3616   -2.2623 C   0  0  1  0  0  0  0  0  0  0  0  0
   64.0882    7.9171   -2.4588 N   0  0  0  0  0  0  0  0  0  0  0  0
   69.2932   12.4839    1.8909 O   0  0  0  0  0  0  0  0  0  0  0  0
   72.5296   10.1498   -0.0591 O   0  0  0  0  0  0  0  0  0  0  0  0
   74.2713   10.8403    1.8442 O   0  0  0  0  0  0  0  0  0  0  0  0
   65.7299    7.1883   -1.0233 N   0  0  0  0  0  0  0  0  0  0  0  0
   70.2895   11.2158    0.0094 O   0  0  0  0  0  0  0  0  0  0  0  0
   72.0166   11.8634    1.6634 O   0  0  0  0  0  0  0  0  0  0  0  0
   72.7262   10.8094    3.8148 O   0  0  0  0  0  0  0  0  0  0  0  0
   66.9509    6.6058   -1.0043 C   0  0  2  0  0  0  0  0  0  0  0  0
   67.7161    6.2040   -2.0872 C   0  0  2  0  0  0  0  0  0  0  0  0
   67.2183    6.3955   -3.3994 C   0  0  1  0  0  0  0  0  0  0  0  0
   67.7389    6.0838   -4.4621 O   0  0  0  0  0  0  0  0  0  0  0  0
   68.9237    5.6400   -1.6619 N   0  0  0  0  0  0  0  0  0  0  0  0
   68.8124    5.7347   -0.3771 C   0  0  0  0  0  0  0  0  0  0  0  0
   67.6799    6.2928    0.1185 N   0  0  0  0  0  0  0  0  0  0  0  0
  1  5  1  1  0  0  0
  1 14  1  0  0  0  0
  1 19  2  0  0  0  0
  2 15  1  1  0  0  0
  2 20  2  0  0  0  0
  2 23  1  0  0  0  0
  3 16  1  1  0  0  0
  3 21  2  0  0  0  0
  3 24  1  0  0  0  0
  3 25  1  0  0  0  0
  4  6  1  0  0  0  0
  5  4  1  0  0  0  0
  6  7  1  0  0  0  0
  6  8  2  0  0  0  0
  7 12  1  0  0  0  0
  8  9  1  0  0  0  0
  8 10  1  0  0  0  0
 10 11  1  0  0  0  0
 10 12  2  0  0  0  0
 12 32  1  0  0  0  0
 13 17  1  0  0  0  0
 17 18  1  1  0  0  0
 17 22  1  0  0  0  0
 23  1  1  0  0  0  0
 24  2  1  0  0  0  0
 26 22  1  1  0  0  0
 27 26  1  0  0  0  0
 27 28  1  0  0  0  0
 27 30  1  1  0  0  0
 28 13  1  0  0  0  0
 28 29  1  1  0  0  0
 31 30  1  0  0  0  0
 32 26  1  0  0  0  0
 32 31  1  0  0  0  0
M  CHG  3  14  -1  15  -1  16  -1
M  END
>  <CHROM.1>
-54.04939423,40.12025056,173.83733661,-92.78036142,-173.54540082,-29.82187695
-60.23744830,69.72268431,69.20523697,9.09735313,0.69725176,-0.34541199,-0.76249448
-1.38278836

>  <Name>
2au4_lig

>  <RI>
0

>  <Rbt.Current_Directory>
/home/itssahil/PROJECTS/Mol_Feturizer/New_Systems/rnas/2au4

>  <Rbt.Executable>
rbdock ($Id: //depot/dev/client3/rdock/2013.1/src/exe/rbdock.cxx#4 $)

>  <Rbt.Library>
libRbt.so (2013.1, Build901 2013/11/27)

>  <Rbt.Parameter_File>
/export/apps/rDock/src/rDock_2013.1_src/data/scripts/dock_solv.prm

>  <Rbt.Receptor>
prm/pocket_docking_5.prm

>  <SCORE>
-46.9378

>  <SCORE.INTER>
-21.0963

>  <SCORE.INTER.CONST>
1

>  <SCORE.INTER.POLAR>
-2.08228

>  <SCORE.INTER.ROT>
8

>  <SCORE.INTER.SOLV>
30.6463

>  <SCORE.INTER.VDW>
-26.2721

>  <SCORE.INTER.norm>
-0.659261

>  <SCORE.INTRA>
-25.8414

>  <SCORE.INTRA.DIHEDRAL>
-50.198

>  <SCORE.INTRA.DIHEDRAL.0>
76.3625

>  <SCORE.INTRA.POLAR>
0

>  <SCORE.INTRA.POLAR.0>
0

>  <SCORE.INTRA.REPUL>
0.0643895

>  <SCORE.INTRA.REPUL.0>
0.12705

>  <SCORE.INTRA.SOLV>
-5.04279

>  <SCORE.INTRA.SOLV.lig_0>
-119.383

>  <SCORE.INTRA.VDW>
1.45702

>  <SCORE.INTRA.VDW.0>
-5.10464

>  <SCORE.INTRA.norm>
-0.807544

>  <SCORE.RESTR>
0

>  <SCORE.RESTR.CAVITY>
0

>  <SCORE.RESTR.norm>
0

>  <SCORE.SYSTEM>
0

>  <SCORE.SYSTEM.CONST>
0

>  <SCORE.SYSTEM.DIHEDRAL>
0

>  <SCORE.SYSTEM.SOLV>
0

>  <SCORE.SYSTEM.norm>
0

>  <SCORE.heavy>
32

>  <SCORE.norm>
-1.4668

>  <RMSD>
5.150

$$$$
2au4_lig
 OpenBabel11021811423D
libRbt.so/2013.1/901 2013/11/27
 32 34  0  0  0  0  0  0  0  0999 V2000
   71.5893   12.8038   -0.2042 P   0  0  1  0  0  0  0  0  0  0  0  0
   73.4054   11.7161    1.4952 P   0  0  1  0  0  0  0  0  0  0  0  0
   72.5712   12.3283    4.0190 P   0  0  2  0  0  0  0  0  0  0  0  0
   69.0773   12.2552   -0.8517 C   0  0  0  0  0  0  0  0  0  0  0  0
   70.1612   12.1199    0.0824 O   0  0  0  0  0  0  0  0  0  0  0  0
   67.7951   11.6045   -0.3535 C   0  0  0  0  0  0  0  0  0  0  0  0
   67.4005   10.5267   -1.2269 O   0  0  0  0  0  0  0  0  0  0  0  0
   67.9866   11.0388    1.0450 C   0  0  0  0  0  0  0  0  0  0  0  0
   67.1414   11.7086    1.9884 O   0  0  0  0  0  0  0  0  0  0  0  0
   67.6505    9.5690    0.9629 C   0  0  0  0  0  0  0  0  0  0  0  0
   66.5798    9.2305    1.8546 O   0  0  0  0  0  0  0  0  0  0  0  0
   67.2571    9.3003   -0.4794 C   0  0  0  0  0  0  0  0  0  0  0  0
   69.9510    5.0600    0.4311 N   0  0  0  0  0  0  0  0  0  0  0  0
   71.6906   13.0950   -1.6484 O   0  5  0  0  0  0  0  0  0  0  0  0
   74.1714   10.4657    1.6623 O   0  5  0  0  0  0  0  0  0  0  0  0
   71.5974   13.4016    4.3039 O   0  5  0  0  0  0  0  0  0  0  0  0
   69.2487    5.8524    1.3077 C   0  0  1  0  0  0  0  0  0  0  0  0
   69.2654    5.4791    2.5803 N   0  0  0  0  0  0  0  0  0  0  0  0
   71.8041   13.8809    0.7858 O   0  0  0  0  0  0  0  0  0  0  0  0
   74.0973   13.0210    1.5406 O   0  0  0  0  0  0  0  0  0  0  0  0
   74.0206   12.6118    4.0721 O   0  0  0  0  0  0  0  0  0  0  0  0
   68.5783    6.9435    0.9462 N   0  0  0  0  0  0  0  0  0  0  0  0
   72.6041   11.6293    0.1289 O   0  0  0  0  0  0  0  0  0  0  0  0
   72.2420   11.7367    2.5774 O   0  0  0  0  0  0  0  0  0  0  0  0
   72.2585   11.0873    4.9901 O   0  0  0  0  0  0  0  0  0  0  0  0
   68.6699    7.1810   -0.3827 C   0  0  2  0  0  0  0  0  0  0  0  0
   69.3523    6.4378   -1.3323 C   0  0  2  0  0  0  0  0  0  0  0  0
   70.0612    5.2793   -0.9303 C   0  0  1  0  0  0  0  0  0  0  0  0
   70.7330    4.5230   -1.6190 O   0  0  0  0  0  0  0  0  0  0  0  0
   69.2122    7.0048   -2.6035 N   0  0  0  0  0  0  0  0  0  0  0  0
   68.4708    8.0323   -2.3456 C   0  0  0  0  0  0  0  0  0  0  0  0
   68.0923    8.2299   -1.0582 N   0  0  0  0  0  0  0  0  0  0  0  0
  1  5  1  1  0  0  0
  1 14  1  0  0  0  0
  1 19  2  0  0  0  0
  2 15  1  1  0  0  0
  2 20  2  0  0  0  0
  2 23  1  0  0  0  0
  3 16  1  1  0  0  0
  3 21  2  0  0  0  0
  3 24  1  0  0  0  0
  3 25  1  0  0  0  0
  4  6  1  0  0  0  0
  5  4  1  0  0  0  0
  6  7  1  0  0  0  0
  6  8  2  0  0  0  0
  7 12  1  0  0  0  0
  8  9  1  0  0  0  0
  8 10  1  0  0  0  0
 10 11  1  0  0  0  0
 10 12  2  0  0  0  0
 12 32  1  0  0  0  0
 13 17  1  0  0  0  0
 17 18  1  1  0  0  0
 17 22  1  0  0  0  0
 23  1  1  0  0  0  0
 24  2  1  0  0  0  0
 26 22  1  1  0  0  0
 27 26  1  0  0  0  0
 27 28  1  0  0  0  0
 27 30  1  1  0  0  0
 28 13  1  0  0  0  0
 28 29  1  1  0  0  0
 31 30  1  0  0  0  0
 32 26  1  0  0  0  0
 32 31  1  0  0  0  0
M  CHG  3  14  -1  15  -1  16  -1
M  END
>  <CHROM.1>
-19.59394342,174.11410164,124.74854892,-117.17646390,-176.61298210,149.87746850
-104.61091150,87.08977794,70.48293118,10.19083957,0.83928678,0.85521332,-0.64593813
-0.01918780

>  <Name>
2au4_lig

>  <RI>
0

>  <Rbt.Current_Directory>
/home/itssahil/PROJECTS/Mol_Feturizer/New_Systems/rnas/2au4

>  <Rbt.Executable>
rbdock ($Id: //depot/dev/client3/rdock/2013.1/src/exe/rbdock.cxx#4 $)

>  <Rbt.Library>
libRbt.so (2013.1, Build901 2013/11/27)

>  <Rbt.Parameter_File>
/export/apps/rDock/src/rDock_2013.1_src/data/scripts/dock_solv.prm

>  <Rbt.Receptor>
prm/pocket_docking_5.prm

>  <SCORE>
-40.7217

>  <SCORE.INTER>
-19.7403

>  <SCORE.INTER.CONST>
1

>  <SCORE.INTER.POLAR>
-2.57439

>  <SCORE.INTER.ROT>
8

>  <SCORE.INTER.SOLV>
38.5839

>  <SCORE.INTER.VDW>
-26.3735

>  <SCORE.INTER.norm>
-0.616884

>  <SCORE.INTRA>
-20.9815

>  <SCORE.INTRA.DIHEDRAL>
-44.3108

>  <SCORE.INTRA.DIHEDRAL.0>
76.3625

>  <SCORE.INTRA.POLAR>
0

>  <SCORE.INTRA.POLAR.0>
0

>  <SCORE.INTRA.REPUL>
-0.0879995

>  <SCORE.INTRA.REPUL.0>
0.12705

>  <SCORE.INTRA.SOLV>
-3.79067

>  <SCORE.INTRA.SOLV.lig_0>
-119.383

>  <SCORE.INTRA.VDW>
3.50927

>  <SCORE.INTRA.VDW.0>
-5.10464

>  <SCORE.INTRA.norm>
-0.655671

>  <SCORE.RESTR>
0

>  <SCORE.RESTR.CAVITY>
0

>  <SCORE.RESTR.norm>
0

>  <SCORE.SYSTEM>
0

>  <SCORE.SYSTEM.CONST>
0

>  <SCORE.SYSTEM.DIHEDRAL>
0

>  <SCORE.SYSTEM.SOLV>
0

>  <SCORE.SYSTEM.norm>
0

>  <SCORE.heavy>
32

>  <SCORE.norm>
-1.27255

>  <RMSD>
5.169

$$$$
2au4_lig
 OpenBabel11021811423D
libRbt.so/2013.1/901 2013/11/27
 32 34  0  0  0  0  0  0  0  0999 V2000
   68.4380    7.8681    3.2617 P   0  0  1  0  0  0  0  0  0  0  0  0
   68.4136   10.5328    3.7798 P   0  0  1  0  0  0  0  0  0  0  0  0
   69.1356   12.1155    1.6788 P   0  0  2  0  0  0  0  0  0  0  0  0
   69.0577    5.9498    1.5393 C   0  0  0  0  0  0  0  0  0  0  0  0
   68.1813    7.0251    1.9152 O   0  0  0  0  0  0  0  0  0  0  0  0
   68.9131    5.5665    0.0738 C   0  0  0  0  0  0  0  0  0  0  0  0
   67.5298    5.6201   -0.3306 O   0  0  0  0  0  0  0  0  0  0  0  0
   69.7056    6.5155   -0.8116 C   0  0  0  0  0  0  0  0  0  0  0  0
   70.7551    5.8209   -1.4963 O   0  0  0  0  0  0  0  0  0  0  0  0
   68.7216    7.1122   -1.7893 C   0  0  0  0  0  0  0  0  0  0  0  0
   69.1005    6.8322   -3.1436 O   0  0  0  0  0  0  0  0  0  0  0  0
   67.3715    6.4948   -1.4678 C   0  0  0  0  0  0  0  0  0  0  0  0
   66.3676   11.5005   -1.4337 N   0  0  0  0  0  0  0  0  0  0  0  0
   67.2373    7.7687    4.1156 O   0  5  0  0  0  0  0  0  0  0  0  0
   67.0344   11.0565    3.7406 O   0  5  0  0  0  0  0  0  0  0  0  0
   67.7246   12.5362    1.5629 O   0  5  0  0  0  0  0  0  0  0  0  0
   67.5234   10.8450   -1.7857 C   0  0  1  0  0  0  0  0  0  0  0  0
   68.5377   11.6077   -2.1713 N   0  0  0  0  0  0  0  0  0  0  0  0
   69.7645    7.5016    3.8024 O   0  0  0  0  0  0  0  0  0  0  0  0
   68.9914   10.0607    5.0553 O   0  0  0  0  0  0  0  0  0  0  0  0
   69.6735   11.0756    0.7770 O   0  0  0  0  0  0  0  0  0  0  0  0
   67.6642    9.5221   -1.7537 N   0  0  0  0  0  0  0  0  0  0  0  0
   68.5295    9.3577    2.7204 O   0  0  0  0  0  0  0  0  0  0  0  0
   69.3840   11.6378    3.1777 O   0  0  0  0  0  0  0  0  0  0  0  0
   70.0659   13.4202    1.5649 O   0  0  0  0  0  0  0  0  0  0  0  0
   66.5385    8.8999   -1.3339 C   0  0  2  0  0  0  0  0  0  0  0  0
   65.3366    9.4804   -0.9621 C   0  0  2  0  0  0  0  0  0  0  0  0
   65.2038   10.8901   -1.0017 C   0  0  1  0  0  0  0  0  0  0  0  0
   64.2361   11.5708   -0.6894 O   0  0  0  0  0  0  0  0  0  0  0  0
   64.4075    8.5046   -0.5857 N   0  0  0  0  0  0  0  0  0  0  0  0
   65.0932    7.4208   -0.7500 C   0  0  0  0  0  0  0  0  0  0  0  0
   66.3701    7.5430   -1.1909 N   0  0  0  0  0  0  0  0  0  0  0  0
  1  5  1  6  0  0  0
  1 14  1  0  0  0  0
  1 19  2  0  0  0  0
  2 15  1  1  0  0  0
  2 20  2  0  0  0  0
  2 23  1  0  0  0  0
  3 16  1  6  0  0  0
  3 21  2  0  0  0  0
  3 24  1  0  0  0  0
  3 25  1  0  0  0  0
  4  6  1  0  0  0  0
  5  4  1  0  0  0  0
  6  7  1  0  0  0  0
  6  8  2  0  0  0  0
  7 12  1  0  0  0  0
  8  9  1  0  0  0  0
  8 10  1  0  0  0  0
 10 11  1  0  0  0  0
 10 12  2  0  0  0  0
 12 32  1  0  0  0  0
 13 17  1  0  0  0  0
 17 18  1  1  0  0  0
 17 22  1  0  0  0  0
 23  1  1  0  0  0  0
 24  2  1  0  0  0  0
 26 22  1  1  0  0  0
 27 26  1  0  0  0  0
 27 28  1  0  0  0  0
 27 30  1  1  0  0  0
 28 13  1  0  0  0  0
 28 29  1  1  0  0  0
 31 30  1  0  0  0  0
 32 26  1  0  0  0  0
 32 31  1  0  0  0  0
M  CHG  3  14  -1  15  -1  16  -1
M  END
>  <CHROM.1>
-122.15971166,-99.78390040,53.41664532,-38.82131628,-162.59665021,127.25272025
164.84785077,-59.55539610,67.95731809,9.21309396,0.83750381,-1.16019992,1.11246480
-2.65103912

>  <Name>
2au4_lig

>  <RI>
0

>  <Rbt.Current_Directory>
/home/itssahil/PROJECTS/Mol_Feturizer/New_Systems/rnas/2au4

>  <Rbt.Executable>
rbdock ($Id: //depot/dev/client3/rdock/2013.1/src/exe/rbdock.cxx#4 $)

>  <Rbt.Library>
libRbt.so (2013.1, Build901 2013/11/27)

>  <Rbt.Parameter_File>
/export/apps/rDock/src/rDock_2013.1_src/data/scripts/dock_solv.prm

>  <Rbt.Receptor>
prm/pocket_docking_3.prm

>  <SCORE>
-29.0327

>  <SCORE.INTER>
-10.4914

>  <SCORE.INTER.CONST>
1

>  <SCORE.INTER.POLAR>
-0.704516

>  <SCORE.INTER.ROT>
8

>  <SCORE.INTER.SOLV>
19.4456

>  <SCORE.INTER.VDW>
-20.0611

>  <SCORE.INTER.norm>
-0.327857

>  <SCORE.INTRA>
-18.6097

>  <SCORE.INTRA.DIHEDRAL>
-37.8607

>  <SCORE.INTRA.DIHEDRAL.0>
76.3625

>  <SCORE.INTRA.POLAR>
0

>  <SCORE.INTRA.POLAR.0>
0

>  <SCORE.INTRA.REPUL>
-0.12705

>  <SCORE.INTRA.REPUL.0>
0.12705

>  <SCORE.INTRA.SOLV>
1.30475

>  <SCORE.INTRA.SOLV.lig_0>
-119.383

>  <SCORE.INTRA.VDW>
0.303498

>  <SCORE.INTRA.VDW.0>
-5.10464

>  <SCORE.INTRA.norm>
-0.581554

>  <SCORE.RESTR>
0.0684924

>  <SCORE.RESTR.CAVITY>
0.0684924

>  <SCORE.RESTR.norm>
0.00214039

>  <SCORE.SYSTEM>
0

>  <SCORE.SYSTEM.CONST>
0

>  <SCORE.SYSTEM.DIHEDRAL>
0

>  <SCORE.SYSTEM.SOLV>
0

>  <SCORE.SYSTEM.norm>
0

>  <SCORE.heavy>
32

>  <SCORE.norm>
-0.907271

>  <RMSD>
5.188

$$$$
2au4_lig
 OpenBabel11021811423D
libRbt.so/2013.1/901 2013/11/27
 32 34  0  0  0  0  0  0  0  0999 V2000
   71.4215   10.7747    0.7845 P   0  0  1  0  0  0  0  0  0  0  0  0
   73.5607   12.0790    1.8296 P   0  0  1  0  0  0  0  0  0  0  0  0
   72.8041   12.8283    4.3410 P   0  0  2  0  0  0  0  0  0  0  0  0
   69.7356   10.0644    2.7039 C   0  0  0  0  0  0  0  0  0  0  0  0
   70.5297    9.6874    1.5667 O   0  0  0  0  0  0  0  0  0  0  0  0
   68.6409    9.0529    3.0102 C   0  0  0  0  0  0  0  0  0  0  0  0
   68.0640    8.5443    1.7901 O   0  0  0  0  0  0  0  0  0  0  0  0
   69.1984    7.8786    3.7994 C   0  0  0  0  0  0  0  0  0  0  0  0
   68.6057    7.8094    5.1020 O   0  0  0  0  0  0  0  0  0  0  0  0
   68.8906    6.6374    2.9963 C   0  0  0  0  0  0  0  0  0  0  0  0
   68.0929    5.7152    3.7509 O   0  0  0  0  0  0  0  0  0  0  0  0
   68.1484    7.1038    1.7559 C   0  0  0  0  0  0  0  0  0  0  0  0
   71.8778    4.2057   -0.1830 N   0  0  0  0  0  0  0  0  0  0  0  0
   72.5236   10.0727    0.0966 O   0  5  0  0  0  0  0  0  0  0  0  0
   74.4223   10.8971    2.0265 O   0  5  0  0  0  0  0  0  0  0  0  0
   72.9406   11.4231    4.7745 O   0  5  0  0  0  0  0  0  0  0  0  0
   71.5122    4.3947    1.1286 C   0  0  1  0  0  0  0  0  0  0  0  0
   72.2232    3.7403    2.0371 N   0  0  0  0  0  0  0  0  0  0  0  0
   70.5197   11.6647    0.0224 O   0  0  0  0  0  0  0  0  0  0  0  0
   73.6822   12.8883    0.5993 O   0  0  0  0  0  0  0  0  0  0  0  0
   71.4711   13.3738    4.0102 O   0  0  0  0  0  0  0  0  0  0  0  0
   70.5111    5.1827    1.5126 N   0  0  0  0  0  0  0  0  0  0  0  0
   72.0486   11.6212    1.9722 O   0  0  0  0  0  0  0  0  0  0  0  0
   73.7480   13.0460    3.0766 O   0  0  0  0  0  0  0  0  0  0  0  0
   73.4794   13.7712    5.4525 O   0  0  0  0  0  0  0  0  0  0  0  0
   69.8975    5.7754    0.4625 C   0  0  2  0  0  0  0  0  0  0  0  0
   70.1996    5.6409   -0.8830 C   0  0  2  0  0  0  0  0  0  0  0  0
   71.2687    4.7983   -1.2745 C   0  0  1  0  0  0  0  0  0  0  0  0
   71.6895    4.5799   -2.4027 O   0  0  0  0  0  0  0  0  0  0  0  0
   69.3384    6.4163   -1.6667 N   0  0  0  0  0  0  0  0  0  0  0  0
   68.5882    6.9583   -0.7638 C   0  0  0  0  0  0  0  0  0  0  0  0
   68.8351    6.6453    0.5326 N   0  0  0  0  0  0  0  0  0  0  0  0
  1  5  1  1  0  0  0
  1 14  1  0  0  0  0
  1 19  2  0  0  0  0
  2 15  1  1  0  0  0
  2 20  2  0  0  0  0
  2 23  1  0  0  0  0
  3 16  1  1  0  0  0
  3 21  2  0  0  0  0
  3 24  1  0  0  0  0
  3 25  1  0  0  0  0
  4  6  1  0  0  0  0
  5  4  1  0  0  0  0
  6  7  1  0  0  0  0
  6  8  2  0  0  0  0
  7 12  1  0  0  0  0
  8  9  1  0  0  0  0
  8 10  1  0  0  0  0
 10 11  1  0  0  0  0
 10 12  2  0  0  0  0
 12 32  1  0  0  0  0
 13 17  1  0  0  0  0
 17 18  1  1  0  0  0
 17 22  1  0  0  0  0
 23  1  1  0  0  0  0
 24  2  1  0  0  0  0
 26 22  1  1  0  0  0
 27 26  1  0  0  0  0
 27 28  1  0  0  0  0
 27 30  1  1  0  0  0
 28 13  1  0  0  0  0
 28 29  1  1  0  0  0
 31 30  1  0  0  0  0
 32 26  1  0  0  0  0
 32 31  1  0  0  0  0
M  CHG  3  14  -1  15  -1  16  -1
M  END
>  <CHROM.1>
155.80760667,-73.30771690,54.91996059,-38.66334991,160.93701428,128.33592947
140.43305919,-88.84802484,71.12924125,9.06384775,1.77588874,-1.05491141,-0.78503450
-2.39318671

>  <Name>
2au4_lig

>  <RI>
0

>  <Rbt.Current_Directory>
/home/itssahil/PROJECTS/Mol_Feturizer/New_Systems/rnas/2au4

>  <Rbt.Executable>
rbdock ($Id: //depot/dev/client3/rdock/2013.1/src/exe/rbdock.cxx#4 $)

>  <Rbt.Library>
libRbt.so (2013.1, Build901 2013/11/27)

>  <Rbt.Parameter_File>
/export/apps/rDock/src/rDock_2013.1_src/data/scripts/dock_solv.prm

>  <Rbt.Receptor>
prm/blind_docking_80.prm

>  <SCORE>
-51.6231

>  <SCORE.INTER>
-32.6475

>  <SCORE.INTER.CONST>
1

>  <SCORE.INTER.POLAR>
-3.18369

>  <SCORE.INTER.ROT>
8

>  <SCORE.INTER.SOLV>
45.3421

>  <SCORE.INTER.VDW>
-35.2001

>  <SCORE.INTER.norm>
-1.02024

>  <SCORE.INTRA>
-20.0227

>  <SCORE.INTRA.DIHEDRAL>
-38.6611

>  <SCORE.INTRA.DIHEDRAL.0>
76.3625

>  <SCORE.INTRA.POLAR>
0

>  <SCORE.INTRA.POLAR.0>
0

>  <SCORE.INTRA.REPUL>
-0.12705

>  <SCORE.INTRA.REPUL.0>
0.12705

>  <SCORE.INTRA.SOLV>
-3.58808

>  <SCORE.INTRA.SOLV.lig_0>
-119.383

>  <SCORE.INTRA.VDW>
1.73715

>  <SCORE.INTRA.VDW.0>
-5.10464

>  <SCORE.INTRA.norm>
-0.62571

>  <SCORE.RESTR>
1.04709

>  <SCORE.RESTR.CAVITY>
1.04709

>  <SCORE.RESTR.norm>
0.0327216

>  <SCORE.SYSTEM>
0

>  <SCORE.SYSTEM.CONST>
0

>  <SCORE.SYSTEM.DIHEDRAL>
0

>  <SCORE.SYSTEM.SOLV>
0

>  <SCORE.SYSTEM.norm>
0

>  <SCORE.heavy>
32

>  <SCORE.norm>
-1.61322

>  <RMSD>
5.199

$$$$
2au4_lig
 OpenBabel11021811423D
libRbt.so/2013.1/901 2013/11/27
 32 34  0  0  0  0  0  0  0  0999 V2000
   69.0665    8.4796    3.6965 P   0  0  1  0  0  0  0  0  0  0  0  0
   70.3317   10.8644    3.4103 P   0  0  1  0  0  0  0  0  0  0  0  0
   72.1968   12.8435    3.1977 P   0  0  2  0  0  0  0  0  0  0  0  0
   68.5675    6.2589    2.3363 C   0  0  0  0  0  0  0  0  0  0  0  0
   69.1625    7.5667    2.3749 O   0  0  0  0  0  0  0  0  0  0  0  0
   68.7387    5.5813    0.9847 C   0  0  0  0  0  0  0  0  0  0  0  0
   67.6820    5.9714    0.0839 O   0  0  0  0  0  0  0  0  0  0  0  0
   70.0682    5.9655    0.3543 C   0  0  0  0  0  0  0  0  0  0  0  0
   70.9162    4.8197    0.2091 O   0  0  0  0  0  0  0  0  0  0  0  0
   69.7456    6.5759   -0.9887 C   0  0  0  0  0  0  0  0  0  0  0  0
   70.3779    5.8525   -2.0531 O   0  0  0  0  0  0  0  0  0  0  0  0
   68.2338    6.5290   -1.1276 C   0  0  0  0  0  0  0  0  0  0  0  0
   64.0596    9.4659   -1.2585 N   0  0  0  0  0  0  0  0  0  0  0  0
   67.9541    9.4362    3.5282 O   0  5  0  0  0  0  0  0  0  0  0  0
   69.6997   11.0972    2.0972 O   0  5  0  0  0  0  0  0  0  0  0  0
   73.6292   12.9747    2.8629 O   0  5  0  0  0  0  0  0  0  0  0  0
   64.1783    8.1318   -0.9491 C   0  0  1  0  0  0  0  0  0  0  0  0
   63.0548    7.4976   -0.6413 N   0  0  0  0  0  0  0  0  0  0  0  0
   69.1134    7.5988    4.8831 O   0  0  0  0  0  0  0  0  0  0  0  0
   69.7615   11.4793    4.6270 O   0  0  0  0  0  0  0  0  0  0  0  0
   71.6535   13.5141    4.3974 O   0  0  0  0  0  0  0  0  0  0  0  0
   65.3333    7.4712   -0.9488 N   0  0  0  0  0  0  0  0  0  0  0  0
   70.4256    9.2985    3.6462 O   0  0  0  0  0  0  0  0  0  0  0  0
   71.8592   11.2911    3.3113 O   0  0  0  0  0  0  0  0  0  0  0  0
   71.3328   13.3006    1.9229 O   0  0  0  0  0  0  0  0  0  0  0  0
   66.3746    8.2652   -1.2891 C   0  0  2  0  0  0  0  0  0  0  0  0
   66.3441    9.6119   -1.6135 C   0  0  2  0  0  0  0  0  0  0  0  0
   65.1060   10.3000   -1.6093 C   0  0  1  0  0  0  0  0  0  0  0  0
   64.8869   11.4708   -1.8899 O   0  0  0  0  0  0  0  0  0  0  0  0
   67.6278   10.0820   -1.9104 N   0  0  0  0  0  0  0  0  0  0  0  0
   68.3360    9.0120   -1.7504 C   0  0  0  0  0  0  0  0  0  0  0  0
   67.6904    7.8774   -1.3821 N   0  0  0  0  0  0  0  0  0  0  0  0
  1  5  1  6  0  0  0
  1 14  1  0  0  0  0
  1 19  2  0  0  0  0
  2 15  1  6  0  0  0
  2 20  2  0  0  0  0
  2 23  1  0  0  0  0
  3 16  1  6  0  0  0
  3 21  2  0  0  0  0
  3 24  1  0  0  0  0
  3 25  1  0  0  0  0
  4  6  1  0  0  0  0
  5  4  1  0  0  0  0
  6  7  1  0  0  0  0
  6  8  2  0  0  0  0
  7 12  1  0  0  0  0
  8  9  1  0  0  0  0
  8 10  1  0  0  0  0
 10 11  1  0  0  0  0
 10 12  2  0  0  0  0
 12 32  1  0  0  0  0
 13 17  1  0  0  0  0
 17 18  1  6  0  0  0
 17 22  1  0  0  0  0
 23  1  1  0  0  0  0
 24  2  1  0  0  0  0
 26 22  1  6  0  0  0
 27 26  1  0  0  0  0
 27 28  1  0  0  0  0
 27 30  1  6  0  0  0
 28 13  1  0  0  0  0
 28 29  1  6  0  0  0
 31 30  1  0  0  0  0
 32 26  1  0  0  0  0
 32 31  1  0  0  0  0
M  CHG  3  14  -1  15  -1  16  -1
M  END
>  <CHROM.1>
-97.82299205,-61.45455027,-169.41366427,-85.98407637,178.38376483,-45.21159165
113.25323679,70.91886599,68.82924182,9.21035762,1.24426489,-0.62719625,0.66156634
-2.98669025

>  <Name>
2au4_lig

>  <RI>
0

>  <Rbt.Current_Directory>
/home/itssahil/PROJECTS/Mol_Feturizer/New_Systems/rnas/2au4

>  <Rbt.Executable>
rbdock ($Id: //depot/dev/client3/rdock/2013.1/src/exe/rbdock.cxx#4 $)

>  <Rbt.Library>
libRbt.so (2013.1, Build901 2013/11/27)

>  <Rbt.Parameter_File>
/export/apps/rDock/src/rDock_2013.1_src/data/scripts/dock_solv.prm

>  <Rbt.Receptor>
prm/pocket_docking_5.prm

>  <SCORE>
-44.0519

>  <SCORE.INTER>
-20.9804

>  <SCORE.INTER.CONST>
1

>  <SCORE.INTER.POLAR>
-2.33826

>  <SCORE.INTER.ROT>
8

>  <SCORE.INTER.SOLV>
22.9873

>  <SCORE.INTER.VDW>
-22.7885

>  <SCORE.INTER.norm>
-0.655637

>  <SCORE.INTRA>
-23.0715

>  <SCORE.INTRA.DIHEDRAL>
-43.9519

>  <SCORE.INTRA.DIHEDRAL.0>
76.3625

>  <SCORE.INTRA.POLAR>
0

>  <SCORE.INTRA.POLAR.0>
0

>  <SCORE.INTRA.REPUL>
-0.0181898

>  <SCORE.INTRA.REPUL.0>
0.12705

>  <SCORE.INTRA.SOLV>
-6.33278

>  <SCORE.INTRA.SOLV.lig_0>
-119.383

>  <SCORE.INTRA.VDW>
2.16179

>  <SCORE.INTRA.VDW.0>
-5.10464

>  <SCORE.INTRA.norm>
-0.720984

>  <SCORE.RESTR>
0

>  <SCORE.RESTR.CAVITY>
0

>  <SCORE.RESTR.norm>
0

>  <SCORE.SYSTEM>
0

>  <SCORE.SYSTEM.CONST>
0

>  <SCORE.SYSTEM.DIHEDRAL>
0

>  <SCORE.SYSTEM.SOLV>
0

>  <SCORE.SYSTEM.norm>
0

>  <SCORE.heavy>
32

>  <SCORE.norm>
-1.37662

>  <RMSD>
5.228

$$$$
2au4_lig
 OpenBabel11021811423D
libRbt.so/2013.1/901 2013/11/27
 32 34  0  0  0  0  0  0  0  0999 V2000
   71.7643   10.9292    3.0405 P   0  0  1  0  0  0  0  0  0  0  0  0
   71.8435   13.2469    4.4517 P   0  0  1  0  0  0  0  0  0  0  0  0
   69.8852   14.8393    3.4174 P   0  0  2  0  0  0  0  0  0  0  0  0
   69.2449   10.1735    2.7061 C   0  0  0  0  0  0  0  0  0  0  0  0
   70.6180    9.8064    2.9191 O   0  0  0  0  0  0  0  0  0  0  0  0
   68.2845    9.0309    3.0021 C   0  0  0  0  0  0  0  0  0  0  0  0
   67.8114    8.4354    1.7767 O   0  0  0  0  0  0  0  0  0  0  0  0
   68.9701    7.9502    3.8234 C   0  0  0  0  0  0  0  0  0  0  0  0
   68.3576    7.8205    5.1122 O   0  0  0  0  0  0  0  0  0  0  0  0
   68.8488    6.6692    3.0332 C   0  0  0  0  0  0  0  0  0  0  0  0
   68.1592    5.6599    3.7829 O   0  0  0  0  0  0  0  0  0  0  0  0
   68.0846    7.0181    1.7677 C   0  0  0  0  0  0  0  0  0  0  0  0
   71.9724    4.2724   -0.0796 N   0  0  0  0  0  0  0  0  0  0  0  0
   72.7801   10.4627    4.0056 O   0  5  0  0  0  0  0  0  0  0  0  0
   72.2152   12.7203    5.7793 O   0  5  0  0  0  0  0  0  0  0  0  0
   68.5974   14.1259    3.5353 O   0  5  0  0  0  0  0  0  0  0  0  0
   71.5177    4.3810    1.2131 C   0  0  1  0  0  0  0  0  0  0  0  0
   72.1749    3.6810    2.1281 N   0  0  0  0  0  0  0  0  0  0  0  0
   72.1691   11.3398    1.6790 O   0  0  0  0  0  0  0  0  0  0  0  0
   72.8899   13.7244    3.5240 O   0  0  0  0  0  0  0  0  0  0  0  0
   70.6992   14.6981    2.1920 O   0  0  0  0  0  0  0  0  0  0  0  0
   70.4830    5.1361    1.5736 N   0  0  0  0  0  0  0  0  0  0  0  0
   70.9848   12.1438    3.7019 O   0  0  0  0  0  0  0  0  0  0  0  0
   70.7932   14.4216    4.6574 O   0  0  0  0  0  0  0  0  0  0  0  0
   69.6261   16.4028    3.6800 O   0  0  0  0  0  0  0  0  0  0  0  0
   69.9332    5.7836    0.5206 C   0  0  2  0  0  0  0  0  0  0  0  0
   70.3262    5.7308   -0.8071 C   0  0  2  0  0  0  0  0  0  0  0  0
   71.4298    4.9223   -1.1737 C   0  0  1  0  0  0  0  0  0  0  0  0
   71.9278    4.7741   -2.2817 O   0  0  0  0  0  0  0  0  0  0  0  0
   69.5092    6.5429   -1.6009 N   0  0  0  0  0  0  0  0  0  0  0  0
   68.6934    7.0243   -0.7208 C   0  0  0  0  0  0  0  0  0  0  0  0
   68.8574    6.6382    0.5691 N   0  0  0  0  0  0  0  0  0  0  0  0
  1  5  1  6  0  0  0
  1 14  1  0  0  0  0
  1 19  2  0  0  0  0
  2 15  1  1  0  0  0
  2 20  2  0  0  0  0
  2 23  1  0  0  0  0
  3 16  1  6  0  0  0
  3 21  2  0  0  0  0
  3 24  1  0  0  0  0
  3 25  1  0  0  0  0
  4  6  1  0  0  0  0
  5  4  1  0  0  0  0
  6  7  1  0  0  0  0
  6  8  2  0  0  0  0
  7 12  1  0  0  0  0
  8  9  1  0  0  0  0
  8 10  1  0  0  0  0
 10 11  1  0  0  0  0
 10 12  2  0  0  0  0
 12 32  1  0  0  0  0
 13 17  1  0  0  0  0
 17 18  1  1  0  0  0
 17 22  1  0  0  0  0
 23  1  1  0  0  0  0
 24  2  1  0  0  0  0
 26 22  1  1  0  0  0
 27 26  1  0  0  0  0
 27 28  1  0  0  0  0
 27 30  1  1  0  0  0
 28 13  1  0  0  0  0
 28 29  1  1  0  0  0
 31 30  1  0  0  0  0
 32 26  1  0  0  0  0
 32 31  1  0  0  0  0
M  CHG  3  14  -1  15  -1  16  -1
M  END
>  <CHROM.1>
145.58516450,-78.55020674,95.79032046,-103.31997315,-164.08757571,136.74849180
158.76385322,-160.51341413,70.41786662,9.63177024,2.41393498,-1.50544917
-0.52382090,-2.73274657

>  <Name>
2au4_lig

>  <RI>
0

>  <Rbt.Current_Directory>
/home/itssahil/PROJECTS/Mol_Feturizer/New_Systems/rnas/2au4

>  <Rbt.Executable>
rbdock ($Id: //depot/dev/client3/rdock/2013.1/src/exe/rbdock.cxx#4 $)

>  <Rbt.Library>
libRbt.so (2013.1, Build901 2013/11/27)

>  <Rbt.Parameter_File>
/export/apps/rDock/src/rDock_2013.1_src/data/scripts/dock_solv.prm

>  <Rbt.Receptor>
prm/pocket_docking_7.prm

>  <SCORE>
-61.2788

>  <SCORE.INTER>
-38.8755

>  <SCORE.INTER.CONST>
1

>  <SCORE.INTER.POLAR>
-4.84564

>  <SCORE.INTER.ROT>
8

>  <SCORE.INTER.SOLV>
37.7175

>  <SCORE.INTER.VDW>
-31.2707

>  <SCORE.INTER.norm>
-1.21486

>  <SCORE.INTRA>
-22.4033

>  <SCORE.INTRA.DIHEDRAL>
-44.009

>  <SCORE.INTRA.DIHEDRAL.0>
76.3625

>  <SCORE.INTRA.POLAR>
0

>  <SCORE.INTRA.POLAR.0>
0

>  <SCORE.INTRA.REPUL>
-0.12705

>  <SCORE.INTRA.REPUL.0>
0.12705

>  <SCORE.INTRA.SOLV>
-3.55288

>  <SCORE.INTRA.SOLV.lig_0>
-119.383

>  <SCORE.INTRA.VDW>
2.01286

>  <SCORE.INTRA.VDW.0>
-5.10464

>  <SCORE.INTRA.norm>
-0.700104

>  <SCORE.RESTR>
0

>  <SCORE.RESTR.CAVITY>
0

>  <SCORE.RESTR.norm>
0

>  <SCORE.SYSTEM>
0

>  <SCORE.SYSTEM.CONST>
0

>  <SCORE.SYSTEM.DIHEDRAL>
0

>  <SCORE.SYSTEM.SOLV>
0

>  <SCORE.SYSTEM.norm>
0

>  <SCORE.heavy>
32

>  <SCORE.norm>
-1.91496

>  <RMSD>
5.230

$$$$
2au4_lig
 OpenBabel11021811423D
libRbt.so/2013.1/901 2013/11/27
 32 34  0  0  0  0  0  0  0  0999 V2000
   68.3849   10.4363   -0.5710 P   0  0  1  0  0  0  0  0  0  0  0  0
   68.9473   10.2502    2.0782 P   0  0  1  0  0  0  0  0  0  0  0  0
   68.7771    9.8126    4.7653 P   0  0  2  0  0  0  0  0  0  0  0  0
   65.9050   10.9419   -1.3617 C   0  0  0  0  0  0  0  0  0  0  0  0
   67.0624   10.0917   -1.4206 O   0  0  0  0  0  0  0  0  0  0  0  0
   64.6418   10.2388   -1.8366 C   0  0  0  0  0  0  0  0  0  0  0  0
   64.9732    9.0610   -2.6003 O   0  0  0  0  0  0  0  0  0  0  0  0
   63.7848    9.8146   -0.6542 C   0  0  0  0  0  0  0  0  0  0  0  0
   62.5244   10.4960   -0.6647 O   0  0  0  0  0  0  0  0  0  0  0  0
   63.5956    8.3213   -0.7755 C   0  0  0  0  0  0  0  0  0  0  0  0
   62.2058    7.9793   -0.8623 O   0  0  0  0  0  0  0  0  0  0  0  0
   64.3354    7.8973   -2.0325 C   0  0  0  0  0  0  0  0  0  0  0  0
   68.4578    5.3557   -3.6487 N   0  0  0  0  0  0  0  0  0  0  0  0
   69.3683    9.3529   -0.7706 O   0  5  0  0  0  0  0  0  0  0  0  0
   69.6773    8.9779    1.9164 O   0  5  0  0  0  0  0  0  0  0  0  0
   69.7730   10.8716    5.0260 O   0  5  0  0  0  0  0  0  0  0  0  0
   67.7491    6.3550   -4.2722 C   0  0  1  0  0  0  0  0  0  0  0  0
   68.1820    6.7229   -5.4707 N   0  0  0  0  0  0  0  0  0  0  0  0
   68.7646   11.8402   -0.8375 O   0  0  0  0  0  0  0  0  0  0  0  0
   69.6871   11.5285    2.1263 O   0  0  0  0  0  0  0  0  0  0  0  0
   69.1977    8.3965    4.7221 O   0  0  0  0  0  0  0  0  0  0  0  0
   66.6809    6.9466   -3.7434 N   0  0  0  0  0  0  0  0  0  0  0  0
   67.8621   10.3508    0.9255 O   0  0  0  0  0  0  0  0  0  0  0  0
   68.0523   10.1487    3.3874 O   0  0  0  0  0  0  0  0  0  0  0  0
   67.5876    9.9588    5.8350 O   0  0  0  0  0  0  0  0  0  0  0  0
   66.3747    6.4491   -2.5230 C   0  0  2  0  0  0  0  0  0  0  0  0
   67.0319    5.4484   -1.8255 C   0  0  2  0  0  0  0  0  0  0  0  0
   68.1672    4.8289   -2.4031 C   0  0  1  0  0  0  0  0  0  0  0  0
   68.8507    3.9213   -1.9486 O   0  0  0  0  0  0  0  0  0  0  0  0
   66.4129    5.2109   -0.5936 N   0  0  0  0  0  0  0  0  0  0  0  0
   65.4420    6.0643   -0.6258 C   0  0  0  0  0  0  0  0  0  0  0  0
   65.3283    6.8492   -1.7261 N   0  0  0  0  0  0  0  0  0  0  0  0
  1  5  1  6  0  0  0
  1 14  1  0  0  0  0
  1 19  2  0  0  0  0
  2 15  1  6  0  0  0
  2 20  2  0  0  0  0
  2 23  1  0  0  0  0
  3 16  1  1  0  0  0
  3 21  2  0  0  0  0
  3 24  1  0  0  0  0
  3 25  1  0  0  0  0
  4  6  1  0  0  0  0
  5  4  1  0  0  0  0
  6  7  1  0  0  0  0
  6  8  2  0  0  0  0
  7 12  1  0  0  0  0
  8  9  1  0  0  0  0
  8 10  1  0  0  0  0
 10 11  1  0  0  0  0
 10 12  2  0  0  0  0
 12 32  1  0  0  0  0
 13 17  1  0  0  0  0
 17 18  1  6  0  0  0
 17 22  1  0  0  0  0
 23  1  1  0  0  0  0
 24  2  1  0  0  0  0
 26 22  1  6  0  0  0
 27 26  1  0  0  0  0
 27 28  1  0  0  0  0
 27 30  1  6  0  0  0
 28 13  1  0  0  0  0
 28 29  1  6  0  0  0
 31 30  1  0  0  0  0
 32 26  1  0  0  0  0
 32 31  1  0  0  0  0
M  CHG  3  14  -1  15  -1  16  -1
M  END
>  <CHROM.1>
176.79465093,-64.30015163,59.59392972,-17.63605378,-160.97929452,-43.45469955
164.12257100,56.73982907,67.23426261,8.70147324,-0.03119743,-1.17997249,0.45681927
-2.24498695

>  <Name>
2au4_lig

>  <RI>
0

>  <Rbt.Current_Directory>
/home/itssahil/PROJECTS/Mol_Feturizer/New_Systems/rnas/2au4

>  <Rbt.Executable>
rbdock ($Id: //depot/dev/client3/rdock/2013.1/src/exe/rbdock.cxx#4 $)

>  <Rbt.Library>
libRbt.so (2013.1, Build901 2013/11/27)

>  <Rbt.Parameter_File>
/export/apps/rDock/src/rDock_2013.1_src/data/scripts/dock_solv.prm

>  <Rbt.Receptor>
prm/pocket_docking_4.prm

>  <SCORE>
-37.7751

>  <SCORE.INTER>
-13.497

>  <SCORE.INTER.CONST>
1

>  <SCORE.INTER.POLAR>
-1

>  <SCORE.INTER.ROT>
8

>  <SCORE.INTER.SOLV>
28.0169

>  <SCORE.INTER.VDW>
-23.937

>  <SCORE.INTER.norm>
-0.421782

>  <SCORE.INTRA>
-24.7162

>  <SCORE.INTRA.DIHEDRAL>
-46.3089

>  <SCORE.INTRA.DIHEDRAL.0>
76.3625

>  <SCORE.INTRA.POLAR>
0

>  <SCORE.INTRA.POLAR.0>
0

>  <SCORE.INTRA.REPUL>
-0.00666636

>  <SCORE.INTRA.REPUL.0>
0.12705

>  <SCORE.INTRA.SOLV>
-4.9025

>  <SCORE.INTRA.SOLV.lig_0>
-119.383

>  <SCORE.INTRA.VDW>
0.922861

>  <SCORE.INTRA.VDW.0>
-5.10464

>  <SCORE.INTRA.norm>
-0.77238

>  <SCORE.RESTR>
0.438129

>  <SCORE.RESTR.CAVITY>
0.438129

>  <SCORE.RESTR.norm>
0.0136915

>  <SCORE.SYSTEM>
0

>  <SCORE.SYSTEM.CONST>
0

>  <SCORE.SYSTEM.DIHEDRAL>
0

>  <SCORE.SYSTEM.SOLV>
0

>  <SCORE.SYSTEM.norm>
0

>  <SCORE.heavy>
32

>  <SCORE.norm>
-1.18047

>  <RMSD>
5.236

$$$$
2au4_lig
 OpenBabel11021811423D
libRbt.so/2013.1/901 2013/11/27
 32 34  0  0  0  0  0  0  0  0999 V2000
   68.8842   11.2740    0.6351 P   0  0  1  0  0  0  0  0  0  0  0  0
   70.8807   12.6270    1.8811 P   0  0  1  0  0  0  0  0  0  0  0  0
   73.3457   11.6039    1.3172 P   0  0  2  0  0  0  0  0  0  0  0  0
   67.3973   10.0028    2.4251 C   0  0  0  0  0  0  0  0  0  0  0  0
   68.1635    9.9551    1.2100 O   0  0  0  0  0  0  0  0  0  0  0  0
   67.1058    8.6179    2.9840 C   0  0  0  0  0  0  0  0  0  0  0  0
   66.4888    7.7853    1.9809 O   0  0  0  0  0  0  0  0  0  0  0  0
   68.3884    7.9412    3.4419 C   0  0  0  0  0  0  0  0  0  0  0  0
   68.3683    7.7088    4.8555 O   0  0  0  0  0  0  0  0  0  0  0  0
   68.4832    6.6413    2.6793 C   0  0  0  0  0  0  0  0  0  0  0  0
   68.5349    5.5191    3.5704 O   0  0  0  0  0  0  0  0  0  0  0  0
   67.2495    6.5728    1.7959 C   0  0  0  0  0  0  0  0  0  0  0  0
   65.7668    6.9684   -3.0735 N   0  0  0  0  0  0  0  0  0  0  0  0
   70.0398   10.8594   -0.1855 O   0  5  0  0  0  0  0  0  0  0  0  0
   70.9784   13.3807    0.6160 O   0  5  0  0  0  0  0  0  0  0  0  0
   73.3221   11.9974   -0.1062 O   0  5  0  0  0  0  0  0  0  0  0  0
   65.0671    7.2457   -1.9233 C   0  0  1  0  0  0  0  0  0  0  0  0
   63.8225    7.6758   -2.0816 N   0  0  0  0  0  0  0  0  0  0  0  0
   67.8517   12.1653    0.0644 O   0  0  0  0  0  0  0  0  0  0  0  0
   71.1388   13.3039    3.1691 O   0  0  0  0  0  0  0  0  0  0  0  0
   74.1448   10.4381    1.7488 O   0  0  0  0  0  0  0  0  0  0  0  0
   65.5676    7.1023   -0.6987 N   0  0  0  0  0  0  0  0  0  0  0  0
   69.4431   11.9605    1.9529 O   0  0  0  0  0  0  0  0  0  0  0  0
   71.8422   11.3654    1.7855 O   0  0  0  0  0  0  0  0  0  0  0  0
   73.7897   12.8777    2.1895 O   0  0  0  0  0  0  0  0  0  0  0  0
   66.8432    6.6516   -0.7192 C   0  0  2  0  0  0  0  0  0  0  0  0
   67.6184    6.3491   -1.8270 C   0  0  2  0  0  0  0  0  0  0  0  0
   67.0700    6.5070   -3.1233 C   0  0  1  0  0  0  0  0  0  0  0  0
   67.5931    6.2682   -4.2035 O   0  0  0  0  0  0  0  0  0  0  0  0
   68.8890    5.9091   -1.4406 N   0  0  0  0  0  0  0  0  0  0  0  0
   68.8013    5.9720   -0.1521 C   0  0  0  0  0  0  0  0  0  0  0  0
   67.6294    6.4000    0.3802 N   0  0  0  0  0  0  0  0  0  0  0  0
  1  5  1  1  0  0  0
  1 14  1  0  0  0  0
  1 19  2  0  0  0  0
  2 15  1  6  0  0  0
  2 20  2  0  0  0  0
  2 23  1  0  0  0  0
  3 16  1  6  0  0  0
  3 21  2  0  0  0  0
  3 24  1  0  0  0  0
  3 25  1  0  0  0  0
  4  6  1  0  0  0  0
  5  4  1  0  0  0  0
  6  7  1  0  0  0  0
  6  8  2  0  0  0  0
  7 12  1  0  0  0  0
  8  9  1  0  0  0  0
  8 10  1  0  0  0  0
 10 11  1  0  0  0  0
 10 12  2  0  0  0  0
 12 32  1  0  0  0  0
 13 17  1  0  0  0  0
 17 18  1  1  0  0  0
 17 22  1  0  0  0  0
 23  1  1  0  0  0  0
 24  2  1  0  0  0  0
 26 22  1  1  0  0  0
 27 26  1  0  0  0  0
 27 28  1  0  0  0  0
 27 30  1  1  0  0  0
 28 13  1  0  0  0  0
 28 29  1  1  0  0  0
 31 30  1  0  0  0  0
 32 26  1  0  0  0  0
 32 31  1  0  0  0  0
M  CHG  3  14  -1  15  -1  16  -1
M  END
>  <CHROM.1>
154.25002331,43.28874701,-68.47681572,-53.56599074,-165.22179586,-40.83739032
140.38182057,50.01758062,69.09478004,9.38807570,0.74586662,-0.20133447,-0.82129752
-1.39424453

>  <Name>
2au4_lig

>  <RI>
0

>  <Rbt.Current_Directory>
/home/itssahil/PROJECTS/Mol_Feturizer/New_Systems/rnas/2au4

>  <Rbt.Executable>
rbdock ($Id: //depot/dev/client3/rdock/2013.1/src/exe/rbdock.cxx#4 $)

>  <Rbt.Library>
libRbt.so (2013.1, Build901 2013/11/27)

>  <Rbt.Parameter_File>
/export/apps/rDock/src/rDock_2013.1_src/data/scripts/dock_solv.prm

>  <Rbt.Receptor>
prm/pocket_docking_4.prm

>  <SCORE>
-41.683

>  <SCORE.INTER>
-17.9612

>  <SCORE.INTER.CONST>
1

>  <SCORE.INTER.POLAR>
-1.75716

>  <SCORE.INTER.ROT>
8

>  <SCORE.INTER.SOLV>
22.5495

>  <SCORE.INTER.VDW>
-22.5668

>  <SCORE.INTER.norm>
-0.561288

>  <SCORE.INTRA>
-23.7316

>  <SCORE.INTRA.DIHEDRAL>
-44.91

>  <SCORE.INTRA.DIHEDRAL.0>
76.3625

>  <SCORE.INTRA.POLAR>
0

>  <SCORE.INTRA.POLAR.0>
0

>  <SCORE.INTRA.REPUL>
0.010196

>  <SCORE.INTRA.REPUL.0>
0.12705

>  <SCORE.INTRA.SOLV>
-5.35422

>  <SCORE.INTRA.SOLV.lig_0>
-119.383

>  <SCORE.INTRA.VDW>
1.34958

>  <SCORE.INTRA.VDW.0>
-5.10464

>  <SCORE.INTRA.norm>
-0.741611

>  <SCORE.RESTR>
0.00977984

>  <SCORE.RESTR.CAVITY>
0.00977984

>  <SCORE.RESTR.norm>
0.00030562

>  <SCORE.SYSTEM>
0

>  <SCORE.SYSTEM.CONST>
0

>  <SCORE.SYSTEM.DIHEDRAL>
0

>  <SCORE.SYSTEM.SOLV>
0

>  <SCORE.SYSTEM.norm>
0

>  <SCORE.heavy>
32

>  <SCORE.norm>
-1.30259

>  <RMSD>
5.242

$$$$
2au4_lig
 OpenBabel11021811423D
libRbt.so/2013.1/901 2013/11/27
 32 34  0  0  0  0  0  0  0  0999 V2000
   67.3436   12.5075    2.1209 P   0  0  1  0  0  0  0  0  0  0  0  0
   66.3339   14.1033    0.1707 P   0  0  1  0  0  0  0  0  0  0  0  0
   64.8423   16.3107    0.7564 P   0  0  2  0  0  0  0  0  0  0  0  0
   67.3544    9.8894    1.7014 C   0  0  0  0  0  0  0  0  0  0  0  0
   67.0494   10.9912    2.5724 O   0  0  0  0  0  0  0  0  0  0  0  0
   66.9362    8.5497    2.2895 C   0  0  0  0  0  0  0  0  0  0  0  0
   66.7778    7.5653    1.2473 O   0  0  0  0  0  0  0  0  0  0  0  0
   67.9821    8.0419    3.2697 C   0  0  0  0  0  0  0  0  0  0  0  0
   67.4437    7.9571    4.5947 O   0  0  0  0  0  0  0  0  0  0  0  0
   68.4134    6.6833    2.7710 C   0  0  0  0  0  0  0  0  0  0  0  0
   68.1767    5.6692    3.7567 O   0  0  0  0  0  0  0  0  0  0  0  0
   67.6052    6.4130    1.5136 C   0  0  0  0  0  0  0  0  0  0  0  0
   72.0427    4.3981   -0.0079 N   0  0  0  0  0  0  0  0  0  0  0  0
   66.8263   13.4177    3.1624 O   0  5  0  0  0  0  0  0  0  0  0  0
   67.6862   14.6942    0.1577 O   0  5  0  0  0  0  0  0  0  0  0  0
   64.5003   17.0774    1.9715 O   0  5  0  0  0  0  0  0  0  0  0  0
   71.5127    4.4857    1.2574 C   0  0  1  0  0  0  0  0  0  0  0  0
   72.2489    3.9827    2.2393 N   0  0  0  0  0  0  0  0  0  0  0  0
   68.7530   12.6052    1.6849 O   0  0  0  0  0  0  0  0  0  0  0  0
   65.5663   13.9808   -1.0860 O   0  0  0  0  0  0  0  0  0  0  0  0
   63.8084   16.0454   -0.2657 O   0  0  0  0  0  0  0  0  0  0  0  0
   70.3334    5.0385    1.5301 N   0  0  0  0  0  0  0  0  0  0  0  0
   66.4259   12.6658    0.8352 O   0  0  0  0  0  0  0  0  0  0  0  0
   65.4472   14.9100    1.2137 O   0  0  0  0  0  0  0  0  0  0  0  0
   66.0945   17.0204    0.0430 O   0  0  0  0  0  0  0  0  0  0  0  0
   69.7194    5.5039    0.4179 C   0  0  2  0  0  0  0  0  0  0  0  0
   70.1797    5.4565   -0.8881 C   0  0  2  0  0  0  0  0  0  0  0  0
   71.4374    4.8649   -1.1609 C   0  0  1  0  0  0  0  0  0  0  0  0
   72.0085    4.7573   -2.2378 O   0  0  0  0  0  0  0  0  0  0  0  0
   69.2590    6.0442   -1.7624 N   0  0  0  0  0  0  0  0  0  0  0  0
   68.3223    6.4017   -0.9459 C   0  0  0  0  0  0  0  0  0  0  0  0
   68.4955    6.1284    0.3714 N   0  0  0  0  0  0  0  0  0  0  0  0
  1  5  1  1  0  0  0
  1 14  1  0  0  0  0
  1 19  2  0  0  0  0
  2 15  1  6  0  0  0
  2 20  2  0  0  0  0
  2 23  1  0  0  0  0
  3 16  1  1  0  0  0
  3 21  2  0  0  0  0
  3 24  1  0  0  0  0
  3 25  1  0  0  0  0
  4  6  1  0  0  0  0
  5  4  1  0  0  0  0
  6  7  1  0  0  0  0
  6  8  2  0  0  0  0
  7 12  1  0  0  0  0
  8  9  1  0  0  0  0
  8 10  1  0  0  0  0
 10 11  1  0  0  0  0
 10 12  2  0  0  0  0
 12 32  1  0  0  0  0
 13 17  1  0  0  0  0
 17 18  1  1  0  0  0
 17 22  1  0  0  0  0
 23  1  1  0  0  0  0
 24  2  1  0  0  0  0
 26 22  1  1  0  0  0
 27 26  1  0  0  0  0
 27 28  1  0  0  0  0
 27 30  1  1  0  0  0
 28 13  1  0  0  0  0
 28 29  1  1  0  0  0
 31 30  1  0  0  0  0
 32 26  1  0  0  0  0
 32 31  1  0  0  0  0
M  CHG  3  14  -1  15  -1  16  -1
M  END
>  <CHROM.1>
175.26624816,41.76461786,-159.77145600,158.23671424,-177.14464558,152.79581414
174.16657401,79.40316581,67.76826675,10.18605923,1.03658899,2.57982873,1.05765256
-0.92525328

>  <Name>
2au4_lig

>  <RI>
0

>  <Rbt.Current_Directory>
/home/itssahil/PROJECTS/Mol_Feturizer/New_Systems/rnas/2au4

>  <Rbt.Executable>
rbdock ($Id: //depot/dev/client3/rdock/2013.1/src/exe/rbdock.cxx#4 $)

>  <Rbt.Library>
libRbt.so (2013.1, Build901 2013/11/27)

>  <Rbt.Parameter_File>
/export/apps/rDock/src/rDock_2013.1_src/data/scripts/dock_solv.prm

>  <Rbt.Receptor>
prm/pocket_docking_8.prm

>  <SCORE>
-47.7455

>  <SCORE.INTER>
-20.3117

>  <SCORE.INTER.CONST>
1

>  <SCORE.INTER.POLAR>
-1.249

>  <SCORE.INTER.ROT>
8

>  <SCORE.INTER.SOLV>
28.6137

>  <SCORE.INTER.VDW>
-27.849

>  <SCORE.INTER.norm>
-0.634739

>  <SCORE.INTRA>
-27.4338

>  <SCORE.INTRA.DIHEDRAL>
-49.9854

>  <SCORE.INTRA.DIHEDRAL.0>
76.3625

>  <SCORE.INTRA.POLAR>
0

>  <SCORE.INTRA.POLAR.0>
0

>  <SCORE.INTRA.REPUL>
-0.12705

>  <SCORE.INTRA.REPUL.0>
0.12705

>  <SCORE.INTRA.SOLV>
-6.58247

>  <SCORE.INTRA.SOLV.lig_0>
-119.383

>  <SCORE.INTRA.VDW>
1.48539

>  <SCORE.INTRA.VDW.0>
-5.10464

>  <SCORE.INTRA.norm>
-0.857307

>  <SCORE.RESTR>
0

>  <SCORE.RESTR.CAVITY>
0

>  <SCORE.RESTR.norm>
0

>  <SCORE.SYSTEM>
0

>  <SCORE.SYSTEM.CONST>
0

>  <SCORE.SYSTEM.DIHEDRAL>
0

>  <SCORE.SYSTEM.SOLV>
0

>  <SCORE.SYSTEM.norm>
0

>  <SCORE.heavy>
32

>  <SCORE.norm>
-1.49205

>  <RMSD>
5.253

$$$$
2au4_lig
 OpenBabel11021811423D
libRbt.so/2013.1/901 2013/11/27
 32 34  0  0  0  0  0  0  0  0999 V2000
   69.4112   12.8469    2.3205 P   0  0  1  0  0  0  0  0  0  0  0  0
   71.2289   11.6750    0.6797 P   0  0  1  0  0  0  0  0  0  0  0  0
   73.2745   13.4767    0.5771 P   0  0  2  0  0  0  0  0  0  0  0  0
   68.1674   10.5148    2.1093 C   0  0  0  0  0  0  0  0  0  0  0  0
   68.3860   11.7260    2.8515 O   0  0  0  0  0  0  0  0  0  0  0  0
   67.4941    9.4348    2.9433 C   0  0  0  0  0  0  0  0  0  0  0  0
   67.0331    8.3576    2.1022 O   0  0  0  0  0  0  0  0  0  0  0  0
   68.4636    8.8604    3.9645 C   0  0  0  0  0  0  0  0  0  0  0  0
   68.0213    9.1324    5.3000 O   0  0  0  0  0  0  0  0  0  0  0  0
   68.5280    7.3740    3.7061 C   0  0  0  0  0  0  0  0  0  0  0  0
   68.1363    6.6278    4.8662 O   0  0  0  0  0  0  0  0  0  0  0  0
   67.5871    7.1007    2.5454 C   0  0  0  0  0  0  0  0  0  0  0  0
   67.5983    5.9535   -2.4295 N   0  0  0  0  0  0  0  0  0  0  0  0
   68.9774   13.2839    0.9782 O   0  5  0  0  0  0  0  0  0  0  0  0
   72.3519   10.7214    0.7663 O   0  5  0  0  0  0  0  0  0  0  0  0
   74.2151   12.6127   -0.1646 O   0  5  0  0  0  0  0  0  0  0  0  0
   66.6787    6.6707   -1.7017 C   0  0  1  0  0  0  0  0  0  0  0  0
   65.6333    7.1369   -2.3717 N   0  0  0  0  0  0  0  0  0  0  0  0
   69.6185   13.8432    3.3932 O   0  0  0  0  0  0  0  0  0  0  0  0
   70.0305   11.3387   -0.1167 O   0  0  0  0  0  0  0  0  0  0  0  0
   73.3277   13.5315    2.0529 O   0  0  0  0  0  0  0  0  0  0  0  0
   66.7877    6.9060   -0.3966 N   0  0  0  0  0  0  0  0  0  0  0  0
   70.7597   12.0258    2.1538 O   0  0  0  0  0  0  0  0  0  0  0  0
   71.7943   13.0652    0.1570 O   0  0  0  0  0  0  0  0  0  0  0  0
   73.4007   14.9730    0.0064 O   0  0  0  0  0  0  0  0  0  0  0  0
   67.9070    6.3567    0.1287 C   0  0  2  0  0  0  0  0  0  0  0  0
   68.8812    5.6233   -0.5292 C   0  0  2  0  0  0  0  0  0  0  0  0
   68.7496    5.3816   -1.9187 C   0  0  1  0  0  0  0  0  0  0  0  0
   69.4911    4.7409   -2.6516 O   0  0  0  0  0  0  0  0  0  0  0  0
   69.8868    5.2230    0.3572 N   0  0  0  0  0  0  0  0  0  0  0  0
   69.4642    5.7287    1.4696 C   0  0  0  0  0  0  0  0  0  0  0  0
   68.2982    6.4212    1.4451 N   0  0  0  0  0  0  0  0  0  0  0  0
  1  5  1  1  0  0  0
  1 14  1  0  0  0  0
  1 19  2  0  0  0  0
  2 15  1  6  0  0  0
  2 20  2  0  0  0  0
  2 23  1  0  0  0  0
  3 16  1  6  0  0  0
  3 21  2  0  0  0  0
  3 24  1  0  0  0  0
  3 25  1  0  0  0  0
  4  6  1  0  0  0  0
  5  4  1  0  0  0  0
  6  7  1  0  0  0  0
  6  8  2  0  0  0  0
  7 12  1  0  0  0  0
  8  9  1  0  0  0  0
  8 10  1  0  0  0  0
 10 11  1  0  0  0  0
 10 12  2  0  0  0  0
 12 32  1  0  0  0  0
 13 17  1  0  0  0  0
 17 18  1  1  0  0  0
 17 22  1  0  0  0  0
 23  1  1  0  0  0  0
 24  2  1  0  0  0  0
 26 22  1  1  0  0  0
 27 26  1  0  0  0  0
 27 28  1  0  0  0  0
 27 30  1  1  0  0  0
 28 13  1  0  0  0  0
 28 29  1  1  0  0  0
 31 30  1  0  0  0  0
 32 26  1  0  0  0  0
 32 31  1  0  0  0  0
M  CHG  3  14  -1  15  -1  16  -1
M  END
>  <CHROM.1>
58.21327447,-170.15368060,71.61285885,167.55257827,163.65153343,-39.68866285
106.18756411,-32.96107896,69.64079068,9.80364255,1.09926977,0.73424804,0.84775315
0.84743593

>  <Name>
2au4_lig

>  <RI>
0

>  <Rbt.Current_Directory>
/home/itssahil/PROJECTS/Mol_Feturizer/New_Systems/rnas/2au4

>  <Rbt.Executable>
rbdock ($Id: //depot/dev/client3/rdock/2013.1/src/exe/rbdock.cxx#4 $)

>  <Rbt.Library>
libRbt.so (2013.1, Build901 2013/11/27)

>  <Rbt.Parameter_File>
/export/apps/rDock/src/rDock_2013.1_src/data/scripts/dock_solv.prm

>  <Rbt.Receptor>
prm/pocket_docking_5.prm

>  <SCORE>
-40.158

>  <SCORE.INTER>
-18.237

>  <SCORE.INTER.CONST>
1

>  <SCORE.INTER.POLAR>
-1.25

>  <SCORE.INTER.ROT>
8

>  <SCORE.INTER.SOLV>
22.4394

>  <SCORE.INTER.VDW>
-24.4045

>  <SCORE.INTER.norm>
-0.569907

>  <SCORE.INTRA>
-21.921

>  <SCORE.INTRA.DIHEDRAL>
-45.0873

>  <SCORE.INTRA.DIHEDRAL.0>
76.3625

>  <SCORE.INTRA.POLAR>
0

>  <SCORE.INTRA.POLAR.0>
0

>  <SCORE.INTRA.REPUL>
0.0173557

>  <SCORE.INTRA.REPUL.0>
0.12705

>  <SCORE.INTRA.SOLV>
-3.55083

>  <SCORE.INTRA.SOLV.lig_0>
-119.383

>  <SCORE.INTRA.VDW>
2.31132

>  <SCORE.INTRA.VDW.0>
-5.10464

>  <SCORE.INTRA.norm>
-0.68503

>  <SCORE.RESTR>
0

>  <SCORE.RESTR.CAVITY>
0

>  <SCORE.RESTR.norm>
0

>  <SCORE.SYSTEM>
0

>  <SCORE.SYSTEM.CONST>
0

>  <SCORE.SYSTEM.DIHEDRAL>
0

>  <SCORE.SYSTEM.SOLV>
0

>  <SCORE.SYSTEM.norm>
0

>  <SCORE.heavy>
32

>  <SCORE.norm>
-1.25494

>  <RMSD>
5.262

$$$$
2au4_lig
 OpenBabel11021811423D
libRbt.so/2013.1/901 2013/11/27
 32 34  0  0  0  0  0  0  0  0999 V2000
   71.3090   10.5094    2.8706 P   0  0  1  0  0  0  0  0  0  0  0  0
   73.5126   12.0819    2.6682 P   0  0  1  0  0  0  0  0  0  0  0  0
   72.7556   13.9672    0.8478 P   0  0  2  0  0  0  0  0  0  0  0  0
   68.7728   10.2182    2.1541 C   0  0  0  0  0  0  0  0  0  0  0  0
   69.7379   10.8153    3.0360 O   0  0  0  0  0  0  0  0  0  0  0  0
   67.9176    9.1703    2.8513 C   0  0  0  0  0  0  0  0  0  0  0  0
   67.6169    8.0818    1.9540 O   0  0  0  0  0  0  0  0  0  0  0  0
   68.6416    8.6033    4.0624 C   0  0  0  0  0  0  0  0  0  0  0  0
   67.9385    8.9146    5.2714 O   0  0  0  0  0  0  0  0  0  0  0  0
   68.7251    7.1103    3.8521 C   0  0  0  0  0  0  0  0  0  0  0  0
   68.0853    6.3988    4.9200 O   0  0  0  0  0  0  0  0  0  0  0  0
   68.0391    6.8261    2.5270 C   0  0  0  0  0  0  0  0  0  0  0  0
   69.2358    5.8131   -2.3318 N   0  0  0  0  0  0  0  0  0  0  0  0
   71.7925    9.8505    4.1006 O   0  5  0  0  0  0  0  0  0  0  0  0
   74.1084   12.0654    4.0182 O   0  5  0  0  0  0  0  0  0  0  0  0
   71.3780   14.0978    1.3640 O   0  5  0  0  0  0  0  0  0  0  0  0
   68.2269    6.5988   -1.8275 C   0  0  1  0  0  0  0  0  0  0  0  0
   67.4365    7.1836   -2.7176 N   0  0  0  0  0  0  0  0  0  0  0  0
   71.5302    9.8745    1.5538 O   0  0  0  0  0  0  0  0  0  0  0  0
   73.9509   11.1024    1.6523 O   0  0  0  0  0  0  0  0  0  0  0  0
   73.0376   13.0620   -0.2859 O   0  0  0  0  0  0  0  0  0  0  0  0
   68.0147    6.7882   -0.5275 N   0  0  0  0  0  0  0  0  0  0  0  0
   71.9376   11.9663    2.8184 O   0  0  0  0  0  0  0  0  0  0  0  0
   73.6956   13.5386    2.0600 O   0  0  0  0  0  0  0  0  0  0  0  0
   73.3011   15.4323    0.4784 O   0  0  0  0  0  0  0  0  0  0  0  0
   68.9063    6.1171    0.2375 C   0  0  2  0  0  0  0  0  0  0  0  0
   69.9483    5.3081   -0.1862 C   0  0  2  0  0  0  0  0  0  0  0  0
   70.1600    5.1168   -1.5736 C   0  0  1  0  0  0  0  0  0  0  0  0
   71.0058    4.4250   -2.1245 O   0  0  0  0  0  0  0  0  0  0  0  0
   70.6503    4.7871    0.9060 N   0  0  0  0  0  0  0  0  0  0  0  0
   70.0008    5.3032    1.8979 C   0  0  0  0  0  0  0  0  0  0  0  0
   68.9475    6.1083    1.6116 N   0  0  0  0  0  0  0  0  0  0  0  0
  1  5  1  1  0  0  0
  1 14  1  0  0  0  0
  1 19  2  0  0  0  0
  2 15  1  1  0  0  0
  2 20  2  0  0  0  0
  2 23  1  0  0  0  0
  3 16  1  1  0  0  0
  3 21  2  0  0  0  0
  3 24  1  0  0  0  0
  3 25  1  0  0  0  0
  4  6  1  0  0  0  0
  5  4  1  0  0  0  0
  6  7  1  0  0  0  0
  6  8  2  0  0  0  0
  7 12  1  0  0  0  0
  8  9  1  0  0  0  0
  8 10  1  0  0  0  0
 10 11  1  0  0  0  0
 10 12  2  0  0  0  0
 12 32  1  0  0  0  0
 13 17  1  0  0  0  0
 17 18  1  1  0  0  0
 17 22  1  0  0  0  0
 23  1  1  0  0  0  0
 24  2  1  0  0  0  0
 26 22  1  1  0  0  0
 27 26  1  0  0  0  0
 27 28  1  0  0  0  0
 27 30  1  1  0  0  0
 28 13  1  0  0  0  0
 28 29  1  1  0  0  0
 31 30  1  0  0  0  0
 32 26  1  0  0  0  0
 32 31  1  0  0  0  0
M  CHG  3  14  -1  15  -1  16  -1
M  END
>  <CHROM.1>
-117.99615787,-88.25685146,68.70300250,-144.11030504,109.79723721,-33.41855035
179.52193656,-160.51075803,70.63517410,9.42666212,1.59361917,0.59535571,0.94577087
1.08954116

>  <Name>
2au4_lig

>  <RI>
0

>  <Rbt.Current_Directory>
/home/itssahil/PROJECTS/Mol_Feturizer/New_Systems/rnas/2au4

>  <Rbt.Executable>
rbdock ($Id: //depot/dev/client3/rdock/2013.1/src/exe/rbdock.cxx#4 $)

>  <Rbt.Library>
libRbt.so (2013.1, Build901 2013/11/27)

>  <Rbt.Parameter_File>
/export/apps/rDock/src/rDock_2013.1_src/data/scripts/dock_solv.prm

>  <Rbt.Receptor>
prm/blind_docking_80.prm

>  <SCORE>
-40.3235

>  <SCORE.INTER>
-23.0158

>  <SCORE.INTER.CONST>
1

>  <SCORE.INTER.POLAR>
-1.66758

>  <SCORE.INTER.ROT>
8

>  <SCORE.INTER.SOLV>
32.8022

>  <SCORE.INTER.VDW>
-29.6527

>  <SCORE.INTER.norm>
-0.719243

>  <SCORE.INTRA>
-19.7497

>  <SCORE.INTRA.DIHEDRAL>
-41.062

>  <SCORE.INTRA.DIHEDRAL.0>
76.3625

>  <SCORE.INTRA.POLAR>
0

>  <SCORE.INTRA.POLAR.0>
0

>  <SCORE.INTRA.REPUL>
0.0512114

>  <SCORE.INTRA.REPUL.0>
0.12705

>  <SCORE.INTRA.SOLV>
-1.22806

>  <SCORE.INTRA.SOLV.lig_0>
-119.383

>  <SCORE.INTRA.VDW>
1.13928

>  <SCORE.INTRA.VDW.0>
-5.10464

>  <SCORE.INTRA.norm>
-0.617178

>  <SCORE.RESTR>
2.44197

>  <SCORE.RESTR.CAVITY>
2.44197

>  <SCORE.RESTR.norm>
0.0763115

>  <SCORE.SYSTEM>
0

>  <SCORE.SYSTEM.CONST>
0

>  <SCORE.SYSTEM.DIHEDRAL>
0

>  <SCORE.SYSTEM.SOLV>
0

>  <SCORE.SYSTEM.norm>
0

>  <SCORE.heavy>
32

>  <SCORE.norm>
-1.26011

>  <RMSD>
5.277

$$$$
2au4_lig
 OpenBabel11021811423D
libRbt.so/2013.1/901 2013/11/27
 32 34  0  0  0  0  0  0  0  0999 V2000
   69.4470   12.3987    0.9165 P   0  0  1  0  0  0  0  0  0  0  0  0
   67.2643   14.0021    1.1017 P   0  0  1  0  0  0  0  0  0  0  0  0
   65.6095   16.1186    1.5737 P   0  0  2  0  0  0  0  0  0  0  0  0
   68.7499    9.8426    1.0227 C   0  0  0  0  0  0  0  0  0  0  0  0
   68.5816   11.1819    1.5165 O   0  0  0  0  0  0  0  0  0  0  0  0
   67.9313    8.8266    1.8056 C   0  0  0  0  0  0  0  0  0  0  0  0
   67.8457    7.5802    1.0849 O   0  0  0  0  0  0  0  0  0  0  0  0
   68.5666    8.5515    3.1595 C   0  0  0  0  0  0  0  0  0  0  0  0
   67.7031    8.9676    4.2245 O   0  0  0  0  0  0  0  0  0  0  0  0
   68.8237    7.0647    3.2185 C   0  0  0  0  0  0  0  0  0  0  0  0
   68.1418    6.4634    4.3275 O   0  0  0  0  0  0  0  0  0  0  0  0
   68.3246    6.4920    1.9032 C   0  0  0  0  0  0  0  0  0  0  0  0
   70.1689    4.8728   -2.5738 N   0  0  0  0  0  0  0  0  0  0  0  0
   70.8180   12.3137    1.4586 O   0  5  0  0  0  0  0  0  0  0  0  0
   67.2965   14.3769   -0.3253 O   0  5  0  0  0  0  0  0  0  0  0  0
   65.3806   17.1254    2.6297 O   0  5  0  0  0  0  0  0  0  0  0  0
   69.0364    5.6061   -2.3107 C   0  0  1  0  0  0  0  0  0  0  0  0
   68.3008    5.9483   -3.3599 N   0  0  0  0  0  0  0  0  0  0  0  0
   69.2302   12.4565   -0.5450 O   0  0  0  0  0  0  0  0  0  0  0  0
   66.3825   12.9091    1.5614 O   0  0  0  0  0  0  0  0  0  0  0  0
   64.5501   15.1439    1.2394 O   0  0  0  0  0  0  0  0  0  0  0  0
   68.6576    5.9717   -1.0886 N   0  0  0  0  0  0  0  0  0  0  0  0
   68.7453   13.6682    1.5616 O   0  0  0  0  0  0  0  0  0  0  0  0
   66.9233   15.3012    1.9510 O   0  0  0  0  0  0  0  0  0  0  0  0
   66.0426   16.8823    0.2284 O   0  0  0  0  0  0  0  0  0  0  0  0
   69.5162    5.5369   -0.1376 C   0  0  2  0  0  0  0  0  0  0  0  0
   70.6744    4.7972   -0.3144 C   0  0  2  0  0  0  0  0  0  0  0  0
   71.0629    4.4159   -1.6220 C   0  0  1  0  0  0  0  0  0  0  0  0
   72.0305    3.7487   -1.9626 O   0  0  0  0  0  0  0  0  0  0  0  0
   71.2929    4.5392    0.9136 N   0  0  0  0  0  0  0  0  0  0  0  0
   70.4856    5.1262    1.7357 C   0  0  0  0  0  0  0  0  0  0  0  0
   69.3987    5.7490    1.2157 N   0  0  0  0  0  0  0  0  0  0  0  0
  1  5  1  1  0  0  0
  1 14  1  0  0  0  0
  1 19  2  0  0  0  0
  2 15  1  6  0  0  0
  2 20  2  0  0  0  0
  2 23  1  0  0  0  0
  3 16  1  1  0  0  0
  3 21  2  0  0  0  0
  3 24  1  0  0  0  0
  3 25  1  0  0  0  0
  4  6  1  0  0  0  0
  5  4  1  0  0  0  0
  6  7  1  0  0  0  0
  6  8  2  0  0  0  0
  7 12  1  0  0  0  0
  8  9  1  0  0  0  0
  8 10  1  0  0  0  0
 10 11  1  0  0  0  0
 10 12  2  0  0  0  0
 12 32  1  0  0  0  0
 13 17  1  0  0  0  0
 17 18  1  1  0  0  0
 17 22  1  0  0  0  0
 23  1  1  0  0  0  0
 24  2  1  0  0  0  0
 26 22  1  1  0  0  0
 27 26  1  0  0  0  0
 27 28  1  0  0  0  0
 27 30  1  1  0  0  0
 28 13  1  0  0  0  0
 28 29  1  1  0  0  0
 31 30  1  0  0  0  0
 32 26  1  0  0  0  0
 32 31  1  0  0  0  0
M  CHG  3  14  -1  15  -1  16  -1
M  END
>  <CHROM.1>
-75.76443175,-65.82914052,170.34852096,164.99149537,174.87002569,-33.11150464
-67.25030932,54.31313704,68.37532011,10.15813357,0.87101490,-2.70109078,-1.20865894
2.19523295

>  <Name>
2au4_lig

>  <RI>
0

>  <Rbt.Current_Directory>
/home/itssahil/PROJECTS/Mol_Feturizer/New_Systems/rnas/2au4

>  <Rbt.Executable>
rbdock ($Id: //depot/dev/client3/rdock/2013.1/src/exe/rbdock.cxx#4 $)

>  <Rbt.Library>
libRbt.so (2013.1, Build901 2013/11/27)

>  <Rbt.Parameter_File>
/export/apps/rDock/src/rDock_2013.1_src/data/scripts/dock_solv.prm

>  <Rbt.Receptor>
prm/pocket_docking_8.prm

>  <SCORE>
-42.1244

>  <SCORE.INTER>
-15.7298

>  <SCORE.INTER.CONST>
1

>  <SCORE.INTER.POLAR>
0

>  <SCORE.INTER.ROT>
8

>  <SCORE.INTER.SOLV>
22.6857

>  <SCORE.INTER.VDW>
-26.9817

>  <SCORE.INTER.norm>
-0.491555

>  <SCORE.INTRA>
-26.3946

>  <SCORE.INTRA.DIHEDRAL>
-49.8744

>  <SCORE.INTRA.DIHEDRAL.0>
76.3625

>  <SCORE.INTRA.POLAR>
0

>  <SCORE.INTRA.POLAR.0>
0

>  <SCORE.INTRA.REPUL>
0.0525522

>  <SCORE.INTRA.REPUL.0>
0.12705

>  <SCORE.INTRA.SOLV>
-6.12496

>  <SCORE.INTRA.SOLV.lig_0>
-119.383

>  <SCORE.INTRA.VDW>
1.34229

>  <SCORE.INTRA.VDW.0>
-5.10464

>  <SCORE.INTRA.norm>
-0.824833

>  <SCORE.RESTR>
0

>  <SCORE.RESTR.CAVITY>
0

>  <SCORE.RESTR.norm>
0

>  <SCORE.SYSTEM>
0

>  <SCORE.SYSTEM.CONST>
0

>  <SCORE.SYSTEM.DIHEDRAL>
0

>  <SCORE.SYSTEM.SOLV>
0

>  <SCORE.SYSTEM.norm>
0

>  <SCORE.heavy>
32

>  <SCORE.norm>
-1.31639

>  <RMSD>
5.278

$$$$
2au4_lig
 OpenBabel11021811423D
libRbt.so/2013.1/901 2013/11/27
 32 34  0  0  0  0  0  0  0  0999 V2000
   68.5332    7.1521    2.4750 P   0  0  1  0  0  0  0  0  0  0  0  0
   66.9871    9.2274    3.2948 P   0  0  1  0  0  0  0  0  0  0  0  0
   67.8370   11.6419    4.2377 P   0  0  2  0  0  0  0  0  0  0  0  0
   69.4222    5.3438    0.7515 C   0  0  0  0  0  0  0  0  0  0  0  0
   69.0829    6.7129    1.0278 O   0  0  0  0  0  0  0  0  0  0  0  0
   69.2367    4.9830   -0.7151 C   0  0  0  0  0  0  0  0  0  0  0  0
   67.8348    4.9091   -1.0462 O   0  0  0  0  0  0  0  0  0  0  0  0
   69.8839    6.0264   -1.6123 C   0  0  0  0  0  0  0  0  0  0  0  0
   70.9576    5.4554   -2.3699 O   0  0  0  0  0  0  0  0  0  0  0  0
   68.7950    6.5459   -2.5205 C   0  0  0  0  0  0  0  0  0  0  0  0
   69.1257    6.3368   -3.9000 O   0  0  0  0  0  0  0  0  0  0  0  0
   67.5309    5.7905   -2.1480 C   0  0  0  0  0  0  0  0  0  0  0  0
   66.1860   10.6740   -1.5076 N   0  0  0  0  0  0  0  0  0  0  0  0
   67.7767    6.0236    3.0537 O   0  5  0  0  0  0  0  0  0  0  0  0
   65.7431    9.8905    2.8578 O   0  5  0  0  0  0  0  0  0  0  0  0
   66.9614   12.5167    3.4319 O   0  5  0  0  0  0  0  0  0  0  0  0
   67.3989   10.1447   -1.8799 C   0  0  1  0  0  0  0  0  0  0  0  0
   68.3750   11.0138   -2.1058 N   0  0  0  0  0  0  0  0  0  0  0  0
   69.6424    7.7677    3.2344 O   0  0  0  0  0  0  0  0  0  0  0  0
   67.0065    8.4362    4.5427 O   0  0  0  0  0  0  0  0  0  0  0  0
   69.1280   12.1524    4.7440 O   0  0  0  0  0  0  0  0  0  0  0  0
   67.6282    8.8410   -2.0152 N   0  0  0  0  0  0  0  0  0  0  0  0
   67.4971    8.2994    2.1137 O   0  0  0  0  0  0  0  0  0  0  0  0
   68.1312   10.3262    3.3896 O   0  0  0  0  0  0  0  0  0  0  0  0
   66.9885   11.0790    5.4802 O   0  0  0  0  0  0  0  0  0  0  0  0
   66.5299    8.0993   -1.7429 C   0  0  2  0  0  0  0  0  0  0  0  0
   65.2754    8.5488   -1.3635 C   0  0  2  0  0  0  0  0  0  0  0  0
   65.0484    9.9400   -1.2237 C   0  0  1  0  0  0  0  0  0  0  0  0
   64.0230   10.5110   -0.8772 O   0  0  0  0  0  0  0  0  0  0  0  0
   64.3992    7.4755   -1.1702 N   0  0  0  0  0  0  0  0  0  0  0  0
   65.1643    6.4683   -1.4387 C   0  0  0  0  0  0  0  0  0  0  0  0
   66.4485    6.7277   -1.7898 N   0  0  0  0  0  0  0  0  0  0  0  0
  1  5  1  6  0  0  0
  1 14  1  0  0  0  0
  1 19  2  0  0  0  0
  2 15  1  6  0  0  0
  2 20  2  0  0  0  0
  2 23  1  0  0  0  0
  3 16  1  6  0  0  0
  3 21  2  0  0  0  0
  3 24  1  0  0  0  0
  3 25  1  0  0  0  0
  4  6  1  0  0  0  0
  5  4  1  0  0  0  0
  6  7  1  0  0  0  0
  6  8  2  0  0  0  0
  7 12  1  0  0  0  0
  8  9  1  0  0  0  0
  8 10  1  0  0  0  0
 10 11  1  0  0  0  0
 10 12  2  0  0  0  0
 12 32  1  0  0  0  0
 13 17  1  0  0  0  0
 17 18  1  1  0  0  0
 17 22  1  0  0  0  0
 23  1  1  0  0  0  0
 24  2  1  0  0  0  0
 26 22  1  1  0  0  0
 27 26  1  0  0  0  0
 27 28  1  0  0  0  0
 27 30  1  1  0  0  0
 28 13  1  0  0  0  0
 28 29  1  1  0  0  0
 31 30  1  0  0  0  0
 32 26  1  0  0  0  0
 32 31  1  0  0  0  0
M  CHG  3  14  -1  15  -1  16  -1
M  END
>  <CHROM.1>
-31.23358037,-161.26357421,-76.59456865,-71.73617151,151.00653346,118.50856511
-165.88178087,51.94190089,67.55282568,8.43569695,0.82712509,-1.68673479,0.89399701
-2.08557675

>  <Name>
2au4_lig

>  <RI>
0

>  <Rbt.Current_Directory>
/home/itssahil/PROJECTS/Mol_Feturizer/New_Systems/rnas/2au4

>  <Rbt.Executable>
rbdock ($Id: //depot/dev/client3/rdock/2013.1/src/exe/rbdock.cxx#4 $)

>  <Rbt.Library>
libRbt.so (2013.1, Build901 2013/11/27)

>  <Rbt.Parameter_File>
/export/apps/rDock/src/rDock_2013.1_src/data/scripts/dock_solv.prm

>  <Rbt.Receptor>
prm/pocket_docking_3.prm

>  <SCORE>
-32.2101

>  <SCORE.INTER>
-14.7139

>  <SCORE.INTER.CONST>
1

>  <SCORE.INTER.POLAR>
-0.981701

>  <SCORE.INTER.ROT>
8

>  <SCORE.INTER.SOLV>
26.6577

>  <SCORE.INTER.VDW>
-24.3562

>  <SCORE.INTER.norm>
-0.45981

>  <SCORE.INTRA>
-17.5046

>  <SCORE.INTRA.DIHEDRAL>
-30.4605

>  <SCORE.INTRA.DIHEDRAL.0>
76.3625

>  <SCORE.INTRA.POLAR>
0

>  <SCORE.INTRA.POLAR.0>
0

>  <SCORE.INTRA.REPUL>
-0.12705

>  <SCORE.INTRA.REPUL.0>
0.12705

>  <SCORE.INTRA.SOLV>
-5.27035

>  <SCORE.INTRA.SOLV.lig_0>
-119.383

>  <SCORE.INTRA.VDW>
0.996055

>  <SCORE.INTRA.VDW.0>
-5.10464

>  <SCORE.INTRA.norm>
-0.547019

>  <SCORE.RESTR>
0.00837465

>  <SCORE.RESTR.CAVITY>
0.00837465

>  <SCORE.RESTR.norm>
0.000261708

>  <SCORE.SYSTEM>
0

>  <SCORE.SYSTEM.CONST>
0

>  <SCORE.SYSTEM.DIHEDRAL>
0

>  <SCORE.SYSTEM.SOLV>
0

>  <SCORE.SYSTEM.norm>
0

>  <SCORE.heavy>
32

>  <SCORE.norm>
-1.00657

>  <RMSD>
5.286

$$$$
2au4_lig
 OpenBabel11021811423D
libRbt.so/2013.1/901 2013/11/27
 32 34  0  0  0  0  0  0  0  0999 V2000
   68.4028   11.9714    0.4622 P   0  0  1  0  0  0  0  0  0  0  0  0
   70.0270   13.0419    2.3557 P   0  0  1  0  0  0  0  0  0  0  0  0
   69.2087   15.3837    3.4903 P   0  0  2  0  0  0  0  0  0  0  0  0
   66.8877   10.0089    1.4020 C   0  0  0  0  0  0  0  0  0  0  0  0
   68.1834   10.6247    1.3153 O   0  0  0  0  0  0  0  0  0  0  0  0
   66.8927    8.7635    2.2763 C   0  0  0  0  0  0  0  0  0  0  0  0
   66.4196    7.6207    1.5344 O   0  0  0  0  0  0  0  0  0  0  0  0
   68.2974    8.4605    2.7737 C   0  0  0  0  0  0  0  0  0  0  0  0
   68.3690    8.5650    4.2009 O   0  0  0  0  0  0  0  0  0  0  0  0
   68.6216    7.0587    2.3152 C   0  0  0  0  0  0  0  0  0  0  0  0
   68.9218    6.2049    3.4274 O   0  0  0  0  0  0  0  0  0  0  0  0
   67.3977    6.5599    1.5666 C   0  0  0  0  0  0  0  0  0  0  0  0
   65.8427    6.0588   -3.2705 N   0  0  0  0  0  0  0  0  0  0  0  0
   68.4534   11.6181   -0.9708 O   0  5  0  0  0  0  0  0  0  0  0  0
   69.1613   12.2878    3.2831 O   0  5  0  0  0  0  0  0  0  0  0  0
   68.1912   14.7185    4.3289 O   0  5  0  0  0  0  0  0  0  0  0  0
   65.1578    6.5379   -2.1791 C   0  0  1  0  0  0  0  0  0  0  0  0
   63.9083    6.9274   -2.3939 N   0  0  0  0  0  0  0  0  0  0  0  0
   67.4477   12.9939    0.9401 O   0  0  0  0  0  0  0  0  0  0  0  0
   71.4720   13.1761    2.6340 O   0  0  0  0  0  0  0  0  0  0  0  0
   69.0141   16.7852    3.0638 O   0  0  0  0  0  0  0  0  0  0  0  0
   65.6769    6.6212   -0.9567 N   0  0  0  0  0  0  0  0  0  0  0  0
   69.8589   12.4233    0.9047 O   0  0  0  0  0  0  0  0  0  0  0  0
   69.4206   14.5004    2.1820 O   0  0  0  0  0  0  0  0  0  0  0  0
   70.6307   15.2682    4.2287 O   0  0  0  0  0  0  0  0  0  0  0  0
   66.9548    6.1789   -0.9144 C   0  0  2  0  0  0  0  0  0  0  0  0
   67.7160    5.6832   -1.9606 C   0  0  2  0  0  0  0  0  0  0  0  0
   67.1480    5.6009   -3.2555 C   0  0  1  0  0  0  0  0  0  0  0  0
   67.6571    5.1717   -4.2823 O   0  0  0  0  0  0  0  0  0  0  0  0
   68.9948    5.3254   -1.5203 N   0  0  0  0  0  0  0  0  0  0  0  0
   68.9252    5.6210   -0.2634 C   0  0  0  0  0  0  0  0  0  0  0  0
   67.7584    6.1342    0.2002 N   0  0  0  0  0  0  0  0  0  0  0  0
  1  5  1  1  0  0  0
  1 14  1  0  0  0  0
  1 19  2  0  0  0  0
  2 15  1  1  0  0  0
  2 20  2  0  0  0  0
  2 23  1  0  0  0  0
  3 16  1  1  0  0  0
  3 21  2  0  0  0  0
  3 24  1  0  0  0  0
  3 25  1  0  0  0  0
  4  6  1  0  0  0  0
  5  4  1  0  0  0  0
  6  7  1  0  0  0  0
  6  8  2  0  0  0  0
  7 12  1  0  0  0  0
  8  9  1  0  0  0  0
  8 10  1  0  0  0  0
 10 11  1  0  0  0  0
 10 12  2  0  0  0  0
 12 32  1  0  0  0  0
 13 17  1  0  0  0  0
 17 18  1  1  0  0  0
 17 22  1  0  0  0  0
 23  1  1  0  0  0  0
 24  2  1  0  0  0  0
 26 22  1  1  0  0  0
 27 26  1  0  0  0  0
 27 28  1  0  0  0  0
 27 30  1  1  0  0  0
 28 13  1  0  0  0  0
 28 29  1  1  0  0  0
 31 30  1  0  0  0  0
 32 26  1  0  0  0  0
 32 31  1  0  0  0  0
M  CHG  3  14  -1  15  -1  16  -1
M  END
>  <CHROM.1>
-77.44299636,39.06625956,-64.80305432,-122.88589202,-178.92171463,-29.45750023
-73.62769145,56.84948878,68.20359091,10.05551989,1.02472701,0.77204323,-1.20647909
-0.27768499

>  <Name>
2au4_lig

>  <RI>
0

>  <Rbt.Current_Directory>
/home/itssahil/PROJECTS/Mol_Feturizer/New_Systems/rnas/2au4

>  <Rbt.Executable>
rbdock ($Id: //depot/dev/client3/rdock/2013.1/src/exe/rbdock.cxx#4 $)

>  <Rbt.Library>
libRbt.so (2013.1, Build901 2013/11/27)

>  <Rbt.Parameter_File>
/export/apps/rDock/src/rDock_2013.1_src/data/scripts/dock_solv.prm

>  <Rbt.Receptor>
prm/pocket_docking_6.prm

>  <SCORE>
-42.6183

>  <SCORE.INTER>
-17.1638

>  <SCORE.INTER.CONST>
1

>  <SCORE.INTER.POLAR>
-1.41421

>  <SCORE.INTER.ROT>
8

>  <SCORE.INTER.SOLV>
20.7447

>  <SCORE.INTER.VDW>
-22.5767

>  <SCORE.INTER.norm>
-0.536369

>  <SCORE.INTRA>
-25.6907

>  <SCORE.INTRA.DIHEDRAL>
-50.2411

>  <SCORE.INTRA.DIHEDRAL.0>
76.3625

>  <SCORE.INTRA.POLAR>
0

>  <SCORE.INTRA.POLAR.0>
0

>  <SCORE.INTRA.REPUL>
0.0653873

>  <SCORE.INTRA.REPUL.0>
0.12705

>  <SCORE.INTRA.SOLV>
-5.1894

>  <SCORE.INTRA.SOLV.lig_0>
-119.383

>  <SCORE.INTRA.VDW>
1.69762

>  <SCORE.INTRA.VDW.0>
-5.10464

>  <SCORE.INTRA.norm>
-0.802834

>  <SCORE.RESTR>
0.236223

>  <SCORE.RESTR.CAVITY>
0.236223

>  <SCORE.RESTR.norm>
0.00738197

>  <SCORE.SYSTEM>
0

>  <SCORE.SYSTEM.CONST>
0

>  <SCORE.SYSTEM.DIHEDRAL>
0

>  <SCORE.SYSTEM.SOLV>
0

>  <SCORE.SYSTEM.norm>
0

>  <SCORE.heavy>
32

>  <SCORE.norm>
-1.33182

>  <RMSD>
5.288

$$$$
2au4_lig
 OpenBabel11021811423D
libRbt.so/2013.1/901 2013/11/27
 32 34  0  0  0  0  0  0  0  0999 V2000
   63.2854    8.3740   -2.4035 P   0  0  1  0  0  0  0  0  0  0  0  0
   62.4835   10.7073   -1.2711 P   0  0  1  0  0  0  0  0  0  0  0  0
   62.1034   12.6212    0.6350 P   0  0  2  0  0  0  0  0  0  0  0  0
   65.6071    7.1993   -1.8932 C   0  0  0  0  0  0  0  0  0  0  0  0
   64.7387    7.8403   -2.8423 O   0  0  0  0  0  0  0  0  0  0  0  0
   67.0371    7.0818   -2.3999 C   0  0  0  0  0  0  0  0  0  0  0  0
   67.9602    7.6551   -1.4515 O   0  0  0  0  0  0  0  0  0  0  0  0
   67.4153    5.6242   -2.6116 C   0  0  0  0  0  0  0  0  0  0  0  0
   67.6857    5.3609   -3.9938 O   0  0  0  0  0  0  0  0  0  0  0  0
   68.6372    5.3703   -1.7614 C   0  0  0  0  0  0  0  0  0  0  0  0
   69.7424    4.9267   -2.5601 O   0  0  0  0  0  0  0  0  0  0  0  0
   68.9611    6.6858   -1.0746 C   0  0  0  0  0  0  0  0  0  0  0  0
   67.7183    8.6622    3.4659 N   0  0  0  0  0  0  0  0  0  0  0  0
   62.5680    8.8324   -3.6101 O   0  5  0  0  0  0  0  0  0  0  0  0
   62.3691   11.5713   -2.4621 O   0  5  0  0  0  0  0  0  0  0  0  0
   61.0807   11.8585    1.3791 O   0  5  0  0  0  0  0  0  0  0  0  0
   67.4921    9.1620    2.2055 C   0  0  1  0  0  0  0  0  0  0  0  0
   66.8645   10.3285    2.1396 N   0  0  0  0  0  0  0  0  0  0  0  0
   62.6657    7.3737   -1.5081 O   0  0  0  0  0  0  0  0  0  0  0  0
   61.3008    9.9787   -0.7674 O   0  0  0  0  0  0  0  0  0  0  0  0
   61.6922   13.6200   -0.3736 O   0  0  0  0  0  0  0  0  0  0  0  0
   67.8667    8.5472    1.0863 N   0  0  0  0  0  0  0  0  0  0  0  0
   63.6394    9.6524   -1.5314 O   0  0  0  0  0  0  0  0  0  0  0  0
   63.0718   11.5772   -0.0785 O   0  0  0  0  0  0  0  0  0  0  0  0
   63.0750   13.3371    1.6951 O   0  0  0  0  0  0  0  0  0  0  0  0
   68.4958    7.3754    1.3347 C   0  0  2  0  0  0  0  0  0  0  0  0
   68.7635    6.8006    2.5667 C   0  0  2  0  0  0  0  0  0  0  0  0
   68.3582    7.4686    3.7481 C   0  0  1  0  0  0  0  0  0  0  0  0
   68.5296    7.1268    4.9106 O   0  0  0  0  0  0  0  0  0  0  0  0
   69.4343    5.5827    2.4128 N   0  0  0  0  0  0  0  0  0  0  0  0
   69.5274    5.5020    1.1257 C   0  0  0  0  0  0  0  0  0  0  0  0
   69.0027    6.5140    0.3906 N   0  0  0  0  0  0  0  0  0  0  0  0
  1  5  1  6  0  0  0
  1 14  1  0  0  0  0
  1 19  2  0  0  0  0
  2 15  1  6  0  0  0
  2 20  2  0  0  0  0
  2 23  1  0  0  0  0
  3 16  1  1  0  0  0
  3 21  2  0  0  0  0
  3 24  1  0  0  0  0
  3 25  1  0  0  0  0
  4  6  1  0  0  0  0
  5  4  1  0  0  0  0
  6  7  1  0  0  0  0
  6  8  2  0  0  0  0
  7 12  1  0  0  0  0
  8  9  1  0  0  0  0
  8 10  1  0  0  0  0
 10 11  1  0  0  0  0
 10 12  2  0  0  0  0
 12 32  1  0  0  0  0
 13 17  1  0  0  0  0
 17 18  1  1  0  0  0
 17 22  1  0  0  0  0
 23  1  1  0  0  0  0
 24  2  1  0  0  0  0
 26 22  1  1  0  0  0
 27 26  1  0  0  0  0
 27 28  1  0  0  0  0
 27 30  1  1  0  0  0
 28 13  1  0  0  0  0
 28 29  1  1  0  0  0
 31 30  1  0  0  0  0
 32 26  1  0  0  0  0
 32 31  1  0  0  0  0
M  CHG  3  14  -1  15  -1  16  -1
M  END
>  <CHROM.1>
-173.32561759,-80.81859332,68.64556158,126.06090106,-165.83891693,-18.27073850
162.09060968,75.00594733,65.44861701,8.74562887,-0.28920561,2.94599297,-0.64461390
1.05891607

>  <Name>
2au4_lig

>  <RI>
0

>  <Rbt.Current_Directory>
/home/itssahil/PROJECTS/Mol_Feturizer/New_Systems/rnas/2au4

>  <Rbt.Executable>
rbdock ($Id: //depot/dev/client3/rdock/2013.1/src/exe/rbdock.cxx#4 $)

>  <Rbt.Library>
libRbt.so (2013.1, Build901 2013/11/27)

>  <Rbt.Parameter_File>
/export/apps/rDock/src/rDock_2013.1_src/data/scripts/dock_solv.prm

>  <Rbt.Receptor>
prm/pocket_docking_7.prm

>  <SCORE>
-43.9648

>  <SCORE.INTER>
-19.4788

>  <SCORE.INTER.CONST>
1

>  <SCORE.INTER.POLAR>
-0.968246

>  <SCORE.INTER.ROT>
8

>  <SCORE.INTER.SOLV>
21.4461

>  <SCORE.INTER.VDW>
-25.8404

>  <SCORE.INTER.norm>
-0.608713

>  <SCORE.INTRA>
-24.486

>  <SCORE.INTRA.DIHEDRAL>
-47.2912

>  <SCORE.INTRA.DIHEDRAL.0>
76.3625

>  <SCORE.INTRA.POLAR>
0

>  <SCORE.INTRA.POLAR.0>
0

>  <SCORE.INTRA.REPUL>
0.0569416

>  <SCORE.INTRA.REPUL.0>
0.12705

>  <SCORE.INTRA.SOLV>
-4.86728

>  <SCORE.INTRA.SOLV.lig_0>
-119.383

>  <SCORE.INTRA.VDW>
1.30857

>  <SCORE.INTRA.VDW.0>
-5.10464

>  <SCORE.INTRA.norm>
-0.765186

>  <SCORE.RESTR>
0

>  <SCORE.RESTR.CAVITY>
0

>  <SCORE.RESTR.norm>
0

>  <SCORE.SYSTEM>
0

>  <SCORE.SYSTEM.CONST>
0

>  <SCORE.SYSTEM.DIHEDRAL>
0

>  <SCORE.SYSTEM.SOLV>
0

>  <SCORE.SYSTEM.norm>
0

>  <SCORE.heavy>
32

>  <SCORE.norm>
-1.3739

>  <RMSD>
5.289

$$$$
2au4_lig
 OpenBabel11021811423D
libRbt.so/2013.1/901 2013/11/27
 32 34  0  0  0  0  0  0  0  0999 V2000
   69.8646   10.4462    1.0500 P   0  0  1  0  0  0  0  0  0  0  0  0
   71.7616   10.7655    2.9655 P   0  0  1  0  0  0  0  0  0  0  0  0
   71.7411   13.1312    4.3233 P   0  0  2  0  0  0  0  0  0  0  0  0
   67.9148   10.1882    2.8283 C   0  0  0  0  0  0  0  0  0  0  0  0
   68.3186   10.2487    1.4502 O   0  0  0  0  0  0  0  0  0  0  0  0
   67.6734    8.7624    3.3018 C   0  0  0  0  0  0  0  0  0  0  0  0
   66.6449    8.1323    2.5110 O   0  0  0  0  0  0  0  0  0  0  0  0
   68.9423    7.9329    3.1815 C   0  0  0  0  0  0  0  0  0  0  0  0
   69.3953    7.5002    4.4701 O   0  0  0  0  0  0  0  0  0  0  0  0
   68.6022    6.7539    2.3015 C   0  0  0  0  0  0  0  0  0  0  0  0
   68.8284    5.5137    2.9846 O   0  0  0  0  0  0  0  0  0  0  0  0
   67.1373    6.9061    1.9300 C   0  0  0  0  0  0  0  0  0  0  0  0
   68.8975    5.2091   -2.5520 N   0  0  0  0  0  0  0  0  0  0  0  0
   70.1696    9.5689   -0.0981 O   0  5  0  0  0  0  0  0  0  0  0  0
   72.3034   10.0512    4.1378 O   0  5  0  0  0  0  0  0  0  0  0  0
   70.7890   14.2037    4.6763 O   0  5  0  0  0  0  0  0  0  0  0  0
   69.3641    4.9644   -1.2823 C   0  0  1  0  0  0  0  0  0  0  0  0
   70.4284    4.1785   -1.1885 N   0  0  0  0  0  0  0  0  0  0  0  0
   70.1508   11.8948    0.9724 O   0  0  0  0  0  0  0  0  0  0  0  0
   72.6661   11.2096    1.8847 O   0  0  0  0  0  0  0  0  0  0  0  0
   72.9828   13.4565    3.5909 O   0  0  0  0  0  0  0  0  0  0  0  0
   68.8137    5.4685   -0.1806 N   0  0  0  0  0  0  0  0  0  0  0  0
   70.6231    9.8693    2.3197 O   0  0  0  0  0  0  0  0  0  0  0  0
   70.9527   12.0316    3.4831 O   0  0  0  0  0  0  0  0  0  0  0  0
   72.1329   12.3378    5.6640 O   0  0  0  0  0  0  0  0  0  0  0  0
   67.7439    6.2494   -0.4569 C   0  0  2  0  0  0  0  0  0  0  0  0
   67.2092    6.5470   -1.7000 C   0  0  2  0  0  0  0  0  0  0  0  0
   67.8075    6.0023   -2.8626 C   0  0  1  0  0  0  0  0  0  0  0  0
   67.4898    6.1739   -4.0318 O   0  0  0  0  0  0  0  0  0  0  0  0
   66.1011    7.3919   -1.5762 N   0  0  0  0  0  0  0  0  0  0  0  0
   66.0394    7.5476   -0.2941 C   0  0  0  0  0  0  0  0  0  0  0  0
   66.9679    6.9127    0.4639 N   0  0  0  0  0  0  0  0  0  0  0  0
  1  5  1  1  0  0  0
  1 14  1  0  0  0  0
  1 19  2  0  0  0  0
  2 15  1  1  0  0  0
  2 20  2  0  0  0  0
  2 23  1  0  0  0  0
  3 16  1  1  0  0  0
  3 21  2  0  0  0  0
  3 24  1  0  0  0  0
  3 25  1  0  0  0  0
  4  6  1  0  0  0  0
  5  4  1  0  0  0  0
  6  7  1  0  0  0  0
  6  8  2  0  0  0  0
  7 12  1  0  0  0  0
  8  9  1  0  0  0  0
  8 10  1  0  0  0  0
 10 11  1  0  0  0  0
 10 12  2  0  0  0  0
 12 32  1  0  0  0  0
 13 17  1  0  0  0  0
 17 18  1  6  0  0  0
 17 22  1  0  0  0  0
 23  1  1  0  0  0  0
 24  2  1  0  0  0  0
 26 22  1  6  0  0  0
 27 26  1  0  0  0  0
 27 28  1  0  0  0  0
 27 30  1  6  0  0  0
 28 13  1  0  0  0  0
 28 29  1  6  0  0  0
 31 30  1  0  0  0  0
 32 26  1  0  0  0  0
 32 31  1  0  0  0  0
M  CHG  3  14  -1  15  -1  16  -1
M  END
>  <CHROM.1>
139.09566052,178.79626688,179.46293935,-59.30132539,-100.79306005,151.61296741
-130.12898274,60.39555743,69.52858347,9.06568762,1.58062281,-0.78301625,-0.92799561
-1.78839647

>  <Name>
2au4_lig

>  <RI>
0

>  <Rbt.Current_Directory>
/home/itssahil/PROJECTS/Mol_Feturizer/New_Systems/rnas/2au4

>  <Rbt.Executable>
rbdock ($Id: //depot/dev/client3/rdock/2013.1/src/exe/rbdock.cxx#4 $)

>  <Rbt.Library>
libRbt.so (2013.1, Build901 2013/11/27)

>  <Rbt.Parameter_File>
/export/apps/rDock/src/rDock_2013.1_src/data/scripts/dock_solv.prm

>  <Rbt.Receptor>
prm/pocket_docking_8.prm

>  <SCORE>
-41.7697

>  <SCORE.INTER>
-19.6671

>  <SCORE.INTER.CONST>
1

>  <SCORE.INTER.POLAR>
-2.38701

>  <SCORE.INTER.ROT>
8

>  <SCORE.INTER.SOLV>
26.2655

>  <SCORE.INTER.VDW>
-22.8432

>  <SCORE.INTER.norm>
-0.614595

>  <SCORE.INTRA>
-22.1026

>  <SCORE.INTRA.DIHEDRAL>
-41.5728

>  <SCORE.INTRA.DIHEDRAL.0>
76.3625

>  <SCORE.INTRA.POLAR>
0

>  <SCORE.INTRA.POLAR.0>
0

>  <SCORE.INTRA.REPUL>
-0.12705

>  <SCORE.INTRA.REPUL.0>
0.12705

>  <SCORE.INTRA.SOLV>
-2.39477

>  <SCORE.INTRA.SOLV.lig_0>
-119.383

>  <SCORE.INTRA.VDW>
0.516429

>  <SCORE.INTRA.VDW.0>
-5.10464

>  <SCORE.INTRA.norm>
-0.690706

>  <SCORE.RESTR>
0

>  <SCORE.RESTR.CAVITY>
0

>  <SCORE.RESTR.norm>
0

>  <SCORE.SYSTEM>
0

>  <SCORE.SYSTEM.CONST>
0

>  <SCORE.SYSTEM.DIHEDRAL>
0

>  <SCORE.SYSTEM.SOLV>
0

>  <SCORE.SYSTEM.norm>
0

>  <SCORE.heavy>
32

>  <SCORE.norm>
-1.3053

>  <RMSD>
5.293

$$$$
2au4_lig
 OpenBabel11021811423D
libRbt.so/2013.1/901 2013/11/27
 32 34  0  0  0  0  0  0  0  0999 V2000
   64.3854   11.3093    1.8357 P   0  0  1  0  0  0  0  0  0  0  0  0
   65.5793   10.4835    4.1297 P   0  0  1  0  0  0  0  0  0  0  0  0
   67.5189   12.0622    5.2187 P   0  0  2  0  0  0  0  0  0  0  0  0
   63.6156   11.3875   -0.7004 C   0  0  0  0  0  0  0  0  0  0  0  0
   64.1701   10.6343    0.3909 O   0  0  0  0  0  0  0  0  0  0  0  0
   63.5434   10.5795   -1.9878 C   0  0  0  0  0  0  0  0  0  0  0  0
   64.7266    9.7701   -2.1460 O   0  0  0  0  0  0  0  0  0  0  0  0
   62.3336    9.6581   -1.9781 C   0  0  0  0  0  0  0  0  0  0  0  0
   61.4122   10.0118   -3.0168 O   0  0  0  0  0  0  0  0  0  0  0  0
   62.8604    8.2565   -2.1738 C   0  0  0  0  0  0  0  0  0  0  0  0
   62.2949    7.6478   -3.3425 O   0  0  0  0  0  0  0  0  0  0  0  0
   64.3684    8.3811   -2.3060 C   0  0  0  0  0  0  0  0  0  0  0  0
   68.3206    7.9719    0.9001 N   0  0  0  0  0  0  0  0  0  0  0  0
   65.3006   12.4587    1.6867 O   0  5  0  0  0  0  0  0  0  0  0  0
   64.4072   11.0348    4.8371 O   0  5  0  0  0  0  0  0  0  0  0  0
   68.5020   10.9883    5.4669 O   0  5  0  0  0  0  0  0  0  0  0  0
   67.9902    9.0000    0.0495 C   0  0  1  0  0  0  0  0  0  0  0  0
   68.8077   10.0443    0.0441 N   0  0  0  0  0  0  0  0  0  0  0  0
   63.0639   11.4919    2.4731 O   0  0  0  0  0  0  0  0  0  0  0  0
   66.2782    9.2970    4.6656 O   0  0  0  0  0  0  0  0  0  0  0  0
   66.5905   12.4770    6.2911 O   0  0  0  0  0  0  0  0  0  0  0  0
   66.9225    8.9904   -0.7447 N   0  0  0  0  0  0  0  0  0  0  0  0
   65.1556   10.1728    2.6329 O   0  0  0  0  0  0  0  0  0  0  0  0
   66.6472   11.6468    3.9521 O   0  0  0  0  0  0  0  0  0  0  0  0
   68.3061   13.3610    4.6953 O   0  0  0  0  0  0  0  0  0  0  0  0
   66.2027    7.8518   -0.6172 C   0  0  2  0  0  0  0  0  0  0  0  0
   66.4626    6.7721    0.2113 C   0  0  2  0  0  0  0  0  0  0  0  0
   67.6037    6.7984    1.0501 C   0  0  1  0  0  0  0  0  0  0  0  0
   67.9999    5.9341    1.8205 O   0  0  0  0  0  0  0  0  0  0  0  0
   65.4873    5.7809    0.0584 N   0  0  0  0  0  0  0  0  0  0  0  0
   64.7180    6.3137   -0.8339 C   0  0  0  0  0  0  0  0  0  0  0  0
   65.0520    7.5418   -1.3027 N   0  0  0  0  0  0  0  0  0  0  0  0
  1  5  1  6  0  0  0
  1 14  1  0  0  0  0
  1 19  2  0  0  0  0
  2 15  1  1  0  0  0
  2 20  2  0  0  0  0
  2 23  1  0  0  0  0
  3 16  1  1  0  0  0
  3 21  2  0  0  0  0
  3 24  1  0  0  0  0
  3 25  1  0  0  0  0
  4  6  1  0  0  0  0
  5  4  1  0  0  0  0
  6  7  1  0  0  0  0
  6  8  2  0  0  0  0
  7 12  1  0  0  0  0
  8  9  1  0  0  0  0
  8 10  1  0  0  0  0
 10 11  1  0  0  0  0
 10 12  2  0  0  0  0
 12 32  1  0  0  0  0
 13 17  1  0  0  0  0
 17 18  1  6  0  0  0
 17 22  1  0  0  0  0
 23  1  1  0  0  0  0
 24  2  1  0  0  0  0
 26 22  1  6  0  0  0
 27 26  1  0  0  0  0
 27 28  1  0  0  0  0
 27 30  1  6  0  0  0
 28 13  1  0  0  0  0
 28 29  1  6  0  0  0
 31 30  1  0  0  0  0
 32 26  1  0  0  0  0
 32 31  1  0  0  0  0
M  CHG  3  14  -1  15  -1  16  -1
M  END
>  <CHROM.1>
-59.79376432,48.54904644,72.78187820,-40.07120900,177.91500257,-22.06778501
178.83280639,76.79313257,65.56351071,9.80645881,1.36734232,1.08638469,-0.64825363
0.81432041

>  <Name>
2au4_lig

>  <RI>
0

>  <Rbt.Current_Directory>
/home/itssahil/PROJECTS/Mol_Feturizer/New_Systems/rnas/2au4

>  <Rbt.Executable>
rbdock ($Id: //depot/dev/client3/rdock/2013.1/src/exe/rbdock.cxx#4 $)

>  <Rbt.Library>
libRbt.so (2013.1, Build901 2013/11/27)

>  <Rbt.Parameter_File>
/export/apps/rDock/src/rDock_2013.1_src/data/scripts/dock_solv.prm

>  <Rbt.Receptor>
prm/pocket_docking_6.prm

>  <SCORE>
-34.5449

>  <SCORE.INTER>
-7.70263

>  <SCORE.INTER.CONST>
1

>  <SCORE.INTER.POLAR>
0

>  <SCORE.INTER.ROT>
8

>  <SCORE.INTER.SOLV>
12.9342

>  <SCORE.INTER.VDW>
-18.3798

>  <SCORE.INTER.norm>
-0.240707

>  <SCORE.INTRA>
-26.8451

>  <SCORE.INTRA.DIHEDRAL>
-49.742

>  <SCORE.INTRA.DIHEDRAL.0>
76.3625

>  <SCORE.INTRA.POLAR>
0

>  <SCORE.INTRA.POLAR.0>
0

>  <SCORE.INTRA.REPUL>
0.069078

>  <SCORE.INTRA.REPUL.0>
0.12705

>  <SCORE.INTRA.SOLV>
-4.18133

>  <SCORE.INTRA.SOLV.lig_0>
-119.383

>  <SCORE.INTRA.VDW>
-0.228814

>  <SCORE.INTRA.VDW.0>
-5.10464

>  <SCORE.INTRA.norm>
-0.838909

>  <SCORE.RESTR>
0.00283857

>  <SCORE.RESTR.CAVITY>
0.00283857

>  <SCORE.RESTR.norm>
8.87053e-05

>  <SCORE.SYSTEM>
0

>  <SCORE.SYSTEM.CONST>
0

>  <SCORE.SYSTEM.DIHEDRAL>
0

>  <SCORE.SYSTEM.SOLV>
0

>  <SCORE.SYSTEM.norm>
0

>  <SCORE.heavy>
32

>  <SCORE.norm>
-1.07953

>  <RMSD>
5.338

$$$$
2au4_lig
 OpenBabel11021811423D
libRbt.so/2013.1/901 2013/11/27
 32 34  0  0  0  0  0  0  0  0999 V2000
   71.6460   11.3907    0.6833 P   0  0  1  0  0  0  0  0  0  0  0  0
   72.0835   13.7302    1.9890 P   0  0  1  0  0  0  0  0  0  0  0  0
   72.7570   13.0264    4.5370 P   0  0  2  0  0  0  0  0  0  0  0  0
   70.3228   10.3037    2.7077 C   0  0  0  0  0  0  0  0  0  0  0  0
   70.3447   10.6945    1.3248 O   0  0  0  0  0  0  0  0  0  0  0  0
   69.0983    9.4709    3.0577 C   0  0  0  0  0  0  0  0  0  0  0  0
   68.4664    8.9702    1.8618 O   0  0  0  0  0  0  0  0  0  0  0  0
   69.4849    8.2834    3.9253 C   0  0  0  0  0  0  0  0  0  0  0  0
   68.8787    8.3764    5.2203 O   0  0  0  0  0  0  0  0  0  0  0  0
   69.0167    7.0477    3.1943 C   0  0  0  0  0  0  0  0  0  0  0  0
   68.0953    6.2910    3.9909 O   0  0  0  0  0  0  0  0  0  0  0  0
   68.3540    7.5323    1.9164 C   0  0  0  0  0  0  0  0  0  0  0  0
   71.7350    4.1045    0.2176 N   0  0  0  0  0  0  0  0  0  0  0  0
   72.5939   10.3335    0.2776 O   0  5  0  0  0  0  0  0  0  0  0  0
   72.8661   14.3343    0.8933 O   0  5  0  0  0  0  0  0  0  0  0  0
   73.8253   12.0421    4.2708 O   0  5  0  0  0  0  0  0  0  0  0  0
   71.3984    4.4315    1.5097 C   0  0  1  0  0  0  0  0  0  0  0  0
   72.0377    3.7743    2.4680 N   0  0  0  0  0  0  0  0  0  0  0  0
   71.2037   12.4054   -0.2969 O   0  0  0  0  0  0  0  0  0  0  0  0
   70.6391   14.0161    2.1136 O   0  0  0  0  0  0  0  0  0  0  0  0
   71.3604   12.5740    4.7068 O   0  0  0  0  0  0  0  0  0  0  0  0
   70.4913    5.3513    1.8289 N   0  0  0  0  0  0  0  0  0  0  0  0
   72.2717   12.1563    1.9253 O   0  0  0  0  0  0  0  0  0  0  0  0
   72.7813   14.1061    3.3663 O   0  0  0  0  0  0  0  0  0  0  0  0
   73.1727   13.8920    5.8248 O   0  0  0  0  0  0  0  0  0  0  0  0
   69.9413    5.9260    0.7344 C   0  0  2  0  0  0  0  0  0  0  0  0
   70.2207    5.6573   -0.5958 C   0  0  2  0  0  0  0  0  0  0  0  0
   71.1894    4.6755   -0.9181 C   0  0  1  0  0  0  0  0  0  0  0  0
   71.5785    4.3271   -2.0248 O   0  0  0  0  0  0  0  0  0  0  0  0
   69.4459    6.4604   -1.4395 N   0  0  0  0  0  0  0  0  0  0  0  0
   68.7636    7.1484   -0.5833 C   0  0  0  0  0  0  0  0  0  0  0  0
   68.9808    6.9097    0.7341 N   0  0  0  0  0  0  0  0  0  0  0  0
  1  5  1  1  0  0  0
  1 14  1  0  0  0  0
  1 19  2  0  0  0  0
  2 15  1  6  0  0  0
  2 20  2  0  0  0  0
  2 23  1  0  0  0  0
  3 16  1  6  0  0  0
  3 21  2  0  0  0  0
  3 24  1  0  0  0  0
  3 25  1  0  0  0  0
  4  6  1  0  0  0  0
  5  4  1  0  0  0  0
  6  7  1  0  0  0  0
  6  8  2  0  0  0  0
  7 12  1  0  0  0  0
  8  9  1  0  0  0  0
  8 10  1  0  0  0  0
 10 11  1  0  0  0  0
 10 12  2  0  0  0  0
 12 32  1  0  0  0  0
 13 17  1  0  0  0  0
 17 18  1  1  0  0  0
 17 22  1  0  0  0  0
 23  1  1  0  0  0  0
 24  2  1  0  0  0  0
 26 22  1  1  0  0  0
 27 26  1  0  0  0  0
 27 28  1  0  0  0  0
 27 30  1  1  0  0  0
 28 13  1  0  0  0  0
 28 29  1  1  0  0  0
 31 30  1  0  0  0  0
 32 26  1  0  0  0  0
 32 31  1  0  0  0  0
M  CHG  3  14  -1  15  -1  16  -1
M  END
>  <CHROM.1>
84.05338422,-67.68280417,80.32490602,16.02395229,-170.87773295,126.46676143
-104.55342044,-144.67920661,70.97496111,9.56844797,1.93444185,-0.90054762
-1.16651775,-2.21016521

>  <Name>
2au4_lig

>  <RI>
0

>  <Rbt.Current_Directory>
/home/itssahil/PROJECTS/Mol_Feturizer/New_Systems/rnas/2au4

>  <Rbt.Executable>
rbdock ($Id: //depot/dev/client3/rdock/2013.1/src/exe/rbdock.cxx#4 $)

>  <Rbt.Library>
libRbt.so (2013.1, Build901 2013/11/27)

>  <Rbt.Parameter_File>
/export/apps/rDock/src/rDock_2013.1_src/data/scripts/dock_solv.prm

>  <Rbt.Receptor>
prm/blind_docking_80.prm

>  <SCORE>
-45.9792

>  <SCORE.INTER>
-27.8658

>  <SCORE.INTER.CONST>
1

>  <SCORE.INTER.POLAR>
-2.57179

>  <SCORE.INTER.ROT>
8

>  <SCORE.INTER.SOLV>
43.6385

>  <SCORE.INTER.VDW>
-33.4841

>  <SCORE.INTER.norm>
-0.870807

>  <SCORE.INTRA>
-18.9571

>  <SCORE.INTRA.DIHEDRAL>
-38.3433

>  <SCORE.INTRA.DIHEDRAL.0>
76.3625

>  <SCORE.INTRA.POLAR>
0

>  <SCORE.INTRA.POLAR.0>
0

>  <SCORE.INTRA.REPUL>
-0.12705

>  <SCORE.INTRA.REPUL.0>
0.12705

>  <SCORE.INTRA.SOLV>
-2.83629

>  <SCORE.INTRA.SOLV.lig_0>
-119.383

>  <SCORE.INTRA.VDW>
2.26791

>  <SCORE.INTRA.VDW.0>
-5.10464

>  <SCORE.INTRA.norm>
-0.59241

>  <SCORE.RESTR>
0.843783

>  <SCORE.RESTR.CAVITY>
0.843783

>  <SCORE.RESTR.norm>
0.0263682

>  <SCORE.SYSTEM>
0

>  <SCORE.SYSTEM.CONST>
0

>  <SCORE.SYSTEM.DIHEDRAL>
0

>  <SCORE.SYSTEM.SOLV>
0

>  <SCORE.SYSTEM.norm>
0

>  <SCORE.heavy>
32

>  <SCORE.norm>
-1.43685

>  <RMSD>
5.343

$$$$
2au4_lig
 OpenBabel11021811423D
libRbt.so/2013.1/901 2013/11/27
 32 34  0  0  0  0  0  0  0  0999 V2000
   69.8187   11.4317    1.2956 P   0  0  1  0  0  0  0  0  0  0  0  0
   68.5612   11.9637   -1.0507 P   0  0  1  0  0  0  0  0  0  0  0  0
   65.8347   11.9807   -0.9700 P   0  0  2  0  0  0  0  0  0  0  0  0
   67.7998    9.8376    1.9386 C   0  0  0  0  0  0  0  0  0  0  0  0
   69.2147   10.0899    1.9469 O   0  0  0  0  0  0  0  0  0  0  0  0
   67.4439    8.4980    2.5665 C   0  0  0  0  0  0  0  0  0  0  0  0
   66.7959    7.6423    1.6031 O   0  0  0  0  0  0  0  0  0  0  0  0
   68.6926    7.7900    3.0687 C   0  0  0  0  0  0  0  0  0  0  0  0
   68.6545    7.6328    4.4924 O   0  0  0  0  0  0  0  0  0  0  0  0
   68.7336    6.4492    2.3754 C   0  0  0  0  0  0  0  0  0  0  0  0
   68.7303    5.3738    3.3240 O   0  0  0  0  0  0  0  0  0  0  0  0
   67.5028    6.3892    1.4872 C   0  0  0  0  0  0  0  0  0  0  0  0
   66.1713    6.8261   -3.4222 N   0  0  0  0  0  0  0  0  0  0  0  0
   68.9328   12.5620    1.6393 O   0  5  0  0  0  0  0  0  0  0  0  0
   68.7218   13.3963   -0.7345 O   0  5  0  0  0  0  0  0  0  0  0  0
   65.2435   10.8979   -1.7820 O   0  5  0  0  0  0  0  0  0  0  0  0
   65.4930    7.2261   -2.2954 C   0  0  1  0  0  0  0  0  0  0  0  0
   64.3178    7.8085   -2.4924 N   0  0  0  0  0  0  0  0  0  0  0  0
   71.2623   11.4998    1.6082 O   0  0  0  0  0  0  0  0  0  0  0  0
   68.5726   11.5090   -2.4566 O   0  0  0  0  0  0  0  0  0  0  0  0
   66.0786   13.3079   -1.5726 O   0  0  0  0  0  0  0  0  0  0  0  0
   65.9488    7.0563   -1.0568 N   0  0  0  0  0  0  0  0  0  0  0  0
   69.6720   11.1527   -0.2604 O   0  0  0  0  0  0  0  0  0  0  0  0
   67.2155   11.4523   -0.3778 O   0  0  0  0  0  0  0  0  0  0  0  0
   64.9368   12.1762    0.3476 O   0  0  0  0  0  0  0  0  0  0  0  0
   67.1552    6.4440   -1.0372 C   0  0  2  0  0  0  0  0  0  0  0  0
   67.9043    6.0106   -2.1193 C   0  0  2  0  0  0  0  0  0  0  0  0
   67.4042    6.1989   -3.4310 C   0  0  1  0  0  0  0  0  0  0  0  0
   67.9111    5.8620   -4.4926 O   0  0  0  0  0  0  0  0  0  0  0  0
   69.0999    5.4220   -1.6935 N   0  0  0  0  0  0  0  0  0  0  0  0
   68.9980    5.5345   -0.4094 C   0  0  0  0  0  0  0  0  0  0  0  0
   67.8824    6.1262    0.0854 N   0  0  0  0  0  0  0  0  0  0  0  0
  1  5  1  1  0  0  0
  1 14  1  0  0  0  0
  1 19  2  0  0  0  0
  2 15  1  1  0  0  0
  2 20  2  0  0  0  0
  2 23  1  0  0  0  0
  3 16  1  6  0  0  0
  3 21  2  0  0  0  0
  3 24  1  0  0  0  0
  3 25  1  0  0  0  0
  4  6  1  0  0  0  0
  5  4  1  0  0  0  0
  6  7  1  0  0  0  0
  6  8  2  0  0  0  0
  7 12  1  0  0  0  0
  8  9  1  0  0  0  0
  8 10  1  0  0  0  0
 10 11  1  0  0  0  0
 10 12  2  0  0  0  0
 12 32  1  0  0  0  0
 13 17  1  0  0  0  0
 17 18  1  1  0  0  0
 17 22  1  0  0  0  0
 23  1  1  0  0  0  0
 24  2  1  0  0  0  0
 26 22  1  1  0  0  0
 27 26  1  0  0  0  0
 27 28  1  0  0  0  0
 27 30  1  1  0  0  0
 28 13  1  0  0  0  0
 28 29  1  1  0  0  0
 31 30  1  0  0  0  0
 32 26  1  0  0  0  0
 32 31  1  0  0  0  0
M  CHG  3  14  -1  15  -1  16  -1
M  END
>  <CHROM.1>
40.47692672,50.46243780,103.58561856,-118.73337792,178.30028315,-35.70622102
107.85444606,69.35228039,67.76043506,9.27256966,-0.13626992,-1.40617216,1.07220223
3.11802652

>  <Name>
2au4_lig

>  <RI>
0

>  <Rbt.Current_Directory>
/home/itssahil/PROJECTS/Mol_Feturizer/New_Systems/rnas/2au4

>  <Rbt.Executable>
rbdock ($Id: //depot/dev/client3/rdock/2013.1/src/exe/rbdock.cxx#4 $)

>  <Rbt.Library>
libRbt.so (2013.1, Build901 2013/11/27)

>  <Rbt.Parameter_File>
/export/apps/rDock/src/rDock_2013.1_src/data/scripts/dock_solv.prm

>  <Rbt.Receptor>
prm/pocket_docking_4.prm

>  <SCORE>
-36.222

>  <SCORE.INTER>
-14.1089

>  <SCORE.INTER.CONST>
1

>  <SCORE.INTER.POLAR>
-0.525961

>  <SCORE.INTER.ROT>
8

>  <SCORE.INTER.SOLV>
23.4546

>  <SCORE.INTER.VDW>
-24.4043

>  <SCORE.INTER.norm>
-0.440904

>  <SCORE.INTRA>
-22.113

>  <SCORE.INTRA.DIHEDRAL>
-46.7585

>  <SCORE.INTRA.DIHEDRAL.0>
76.3625

>  <SCORE.INTRA.POLAR>
0

>  <SCORE.INTRA.POLAR.0>
0

>  <SCORE.INTRA.REPUL>
0.0401524

>  <SCORE.INTRA.REPUL.0>
0.12705

>  <SCORE.INTRA.SOLV>
-2.67989

>  <SCORE.INTRA.SOLV.lig_0>
-119.383

>  <SCORE.INTRA.VDW>
2.40541

>  <SCORE.INTRA.VDW.0>
-5.10464

>  <SCORE.INTRA.norm>
-0.691032

>  <SCORE.RESTR>
0

>  <SCORE.RESTR.CAVITY>
0

>  <SCORE.RESTR.norm>
0

>  <SCORE.SYSTEM>
0

>  <SCORE.SYSTEM.CONST>
0

>  <SCORE.SYSTEM.DIHEDRAL>
0

>  <SCORE.SYSTEM.SOLV>
0

>  <SCORE.SYSTEM.norm>
0

>  <SCORE.heavy>
32

>  <SCORE.norm>
-1.13194

>  <RMSD>
5.345

$$$$
2au4_lig
 OpenBabel11021811423D
libRbt.so/2013.1/901 2013/11/27
 32 34  0  0  0  0  0  0  0  0999 V2000
   68.4516    8.6119    3.5017 P   0  0  1  0  0  0  0  0  0  0  0  0
   68.8512   11.2722    3.8657 P   0  0  1  0  0  0  0  0  0  0  0  0
   70.7553   11.6052    5.7903 P   0  0  2  0  0  0  0  0  0  0  0  0
   68.8131    6.1740    2.5234 C   0  0  0  0  0  0  0  0  0  0  0  0
   69.0750    7.5843    2.4317 O   0  0  0  0  0  0  0  0  0  0  0  0
   69.0047    5.4589    1.1940 C   0  0  0  0  0  0  0  0  0  0  0  0
   67.9507    5.8079    0.2735 O   0  0  0  0  0  0  0  0  0  0  0  0
   70.3344    5.8420    0.5633 C   0  0  0  0  0  0  0  0  0  0  0  0
   71.1986    4.7039    0.4592 O   0  0  0  0  0  0  0  0  0  0  0  0
   70.0152    6.4078   -0.7999 C   0  0  0  0  0  0  0  0  0  0  0  0
   70.6660    5.6617   -1.8371 O   0  0  0  0  0  0  0  0  0  0  0  0
   68.5054    6.3366   -0.9496 C   0  0  0  0  0  0  0  0  0  0  0  0
   64.2924    9.2083   -1.2157 N   0  0  0  0  0  0  0  0  0  0  0  0
   67.1035    9.0061    3.0457 O   0  5  0  0  0  0  0  0  0  0  0  0
   68.3226   12.0104    2.7022 O   0  5  0  0  0  0  0  0  0  0  0  0
   71.9265   12.4640    6.0590 O   0  5  0  0  0  0  0  0  0  0  0  0
   64.4257    7.8852   -0.8676 C   0  0  1  0  0  0  0  0  0  0  0  0
   63.3074    7.2436   -0.5565 N   0  0  0  0  0  0  0  0  0  0  0  0
   68.6416    8.0543    4.8578 O   0  0  0  0  0  0  0  0  0  0  0  0
   67.9906   11.0274    5.0417 O   0  0  0  0  0  0  0  0  0  0  0  0
   70.8930   10.1343    5.8275 O   0  0  0  0  0  0  0  0  0  0  0  0
   65.5899    7.2415   -0.8342 N   0  0  0  0  0  0  0  0  0  0  0  0
   69.4034    9.8743    3.3584 O   0  0  0  0  0  0  0  0  0  0  0  0
   70.1705   12.0047    4.3637 O   0  0  0  0  0  0  0  0  0  0  0  0
   69.5721   12.0320    6.7895 O   0  0  0  0  0  0  0  0  0  0  0  0
   66.6243    8.0407   -1.1833 C   0  0  2  0  0  0  0  0  0  0  0  0
   66.5791    9.3773   -1.5455 C   0  0  2  0  0  0  0  0  0  0  0  0
   65.3315   10.0473   -1.5763 C   0  0  1  0  0  0  0  0  0  0  0  0
   65.0997   11.2066   -1.8923 O   0  0  0  0  0  0  0  0  0  0  0  0
   67.8599    9.8574   -1.8390 N   0  0  0  0  0  0  0  0  0  0  0  0
   68.5809    8.8026   -1.6402 C   0  0  0  0  0  0  0  0  0  0  0  0
   67.9465    7.6695   -1.2486 N   0  0  0  0  0  0  0  0  0  0  0  0
  1  5  1  6  0  0  0
  1 14  1  0  0  0  0
  1 19  2  0  0  0  0
  2 15  1  6  0  0  0
  2 20  2  0  0  0  0
  2 23  1  0  0  0  0
  3 16  1  1  0  0  0
  3 21  2  0  0  0  0
  3 24  1  0  0  0  0
  3 25  1  0  0  0  0
  4  6  1  0  0  0  0
  5  4  1  0  0  0  0
  6  7  1  0  0  0  0
  6  8  2  0  0  0  0
  7 12  1  0  0  0  0
  8  9  1  0  0  0  0
  8 10  1  0  0  0  0
 10 11  1  0  0  0  0
 10 12  2  0  0  0  0
 12 32  1  0  0  0  0
 13 17  1  0  0  0  0
 17 18  1  6  0  0  0
 17 22  1  0  0  0  0
 23  1  1  0  0  0  0
 24  2  1  0  0  0  0
 26 22  1  6  0  0  0
 27 26  1  0  0  0  0
 27 28  1  0  0  0  0
 27 30  1  6  0  0  0
 28 13  1  0  0  0  0
 28 29  1  6  0  0  0
 31 30  1  0  0  0  0
 32 26  1  0  0  0  0
 32 31  1  0  0  0  0
M  CHG  3  14  -1  15  -1  16  -1
M  END
>  <CHROM.1>
-86.58944658,-97.44199099,-176.97260446,-71.14196880,157.67690663,-45.50383522
159.45658524,166.70019155,68.38830954,8.96273237,1.81821738,-1.05242693,0.67012677
-2.42385594

>  <Name>
2au4_lig

>  <RI>
0

>  <Rbt.Current_Directory>
/home/itssahil/PROJECTS/Mol_Feturizer/New_Systems/rnas/2au4

>  <Rbt.Executable>
rbdock ($Id: //depot/dev/client3/rdock/2013.1/src/exe/rbdock.cxx#4 $)

>  <Rbt.Library>
libRbt.so (2013.1, Build901 2013/11/27)

>  <Rbt.Parameter_File>
/export/apps/rDock/src/rDock_2013.1_src/data/scripts/dock_solv.prm

>  <Rbt.Receptor>
prm/pocket_docking_6.prm

>  <SCORE>
-38.2078

>  <SCORE.INTER>
-16.1188

>  <SCORE.INTER.CONST>
1

>  <SCORE.INTER.POLAR>
-1.87971

>  <SCORE.INTER.ROT>
8

>  <SCORE.INTER.SOLV>
21.473

>  <SCORE.INTER.VDW>
-20.5712

>  <SCORE.INTER.norm>
-0.503713

>  <SCORE.INTRA>
-22.089

>  <SCORE.INTRA.DIHEDRAL>
-42.1031

>  <SCORE.INTRA.DIHEDRAL.0>
76.3625

>  <SCORE.INTRA.POLAR>
0

>  <SCORE.INTRA.POLAR.0>
0

>  <SCORE.INTRA.REPUL>
-0.0201084

>  <SCORE.INTRA.REPUL.0>
0.12705

>  <SCORE.INTRA.SOLV>
-4.14817

>  <SCORE.INTRA.SOLV.lig_0>
-119.383

>  <SCORE.INTRA.VDW>
1.13717

>  <SCORE.INTRA.VDW.0>
-5.10464

>  <SCORE.INTRA.norm>
-0.690281

>  <SCORE.RESTR>
0

>  <SCORE.RESTR.CAVITY>
0

>  <SCORE.RESTR.norm>
0

>  <SCORE.SYSTEM>
0

>  <SCORE.SYSTEM.CONST>
0

>  <SCORE.SYSTEM.DIHEDRAL>
0

>  <SCORE.SYSTEM.SOLV>
0

>  <SCORE.SYSTEM.norm>
0

>  <SCORE.heavy>
32

>  <SCORE.norm>
-1.19399

>  <RMSD>
5.349

$$$$
2au4_lig
 OpenBabel11021811423D
libRbt.so/2013.1/901 2013/11/27
 32 34  0  0  0  0  0  0  0  0999 V2000
   67.5093   12.7646    1.7957 P   0  0  1  0  0  0  0  0  0  0  0  0
   68.9916   14.5707    3.1779 P   0  0  1  0  0  0  0  0  0  0  0  0
   71.5742   13.7989    2.7592 P   0  0  2  0  0  0  0  0  0  0  0  0
   68.3004   10.4637    2.8495 C   0  0  0  0  0  0  0  0  0  0  0  0
   67.2205   11.3136    2.4286 O   0  0  0  0  0  0  0  0  0  0  0  0
   67.8130    9.1247    3.3833 C   0  0  0  0  0  0  0  0  0  0  0  0
   66.7108    8.6342    2.5929 O   0  0  0  0  0  0  0  0  0  0  0  0
   68.9270    8.0905    3.3413 C   0  0  0  0  0  0  0  0  0  0  0  0
   69.2728    7.6563    4.6622 O   0  0  0  0  0  0  0  0  0  0  0  0
   68.4131    6.9402    2.5088 C   0  0  0  0  0  0  0  0  0  0  0  0
   68.4132    5.7170    3.2571 O   0  0  0  0  0  0  0  0  0  0  0  0
   67.0029    7.3145    2.0865 C   0  0  0  0  0  0  0  0  0  0  0  0
   68.7925    5.3731   -2.2833 N   0  0  0  0  0  0  0  0  0  0  0  0
   67.7313   12.6095    0.3440 O   0  5  0  0  0  0  0  0  0  0  0  0
   68.7511   15.6191    2.1674 O   0  5  0  0  0  0  0  0  0  0  0  0
   72.9195   14.0760    3.3021 O   0  5  0  0  0  0  0  0  0  0  0  0
   69.2174    5.1569   -0.9940 C   0  0  1  0  0  0  0  0  0  0  0  0
   70.2433    4.3298   -0.8441 N   0  0  0  0  0  0  0  0  0  0  0  0
   66.4852   13.7085    2.2922 O   0  0  0  0  0  0  0  0  0  0  0  0
   68.1696   14.5210    4.4048 O   0  0  0  0  0  0  0  0  0  0  0  0
   71.2913   14.0353    1.3281 O   0  0  0  0  0  0  0  0  0  0  0  0
   68.6638    5.7261    0.0739 N   0  0  0  0  0  0  0  0  0  0  0  0
   68.8956   13.1586    2.4616 O   0  0  0  0  0  0  0  0  0  0  0  0
   70.5195   14.6357    3.6100 O   0  0  0  0  0  0  0  0  0  0  0  0
   71.1869   12.2801    3.1114 O   0  0  0  0  0  0  0  0  0  0  0  0
   67.6365    6.5415   -0.2583 C   0  0  2  0  0  0  0  0  0  0  0  0
   67.1453    6.8145   -1.5248 C   0  0  2  0  0  0  0  0  0  0  0  0
   67.7464    6.2004   -2.6507 C   0  0  1  0  0  0  0  0  0  0  0  0
   67.4645    6.3410   -3.8332 O   0  0  0  0  0  0  0  0  0  0  0  0
   66.0731    7.7108   -1.4606 N   0  0  0  0  0  0  0  0  0  0  0  0
   65.9878    7.9178   -0.1871 C   0  0  0  0  0  0  0  0  0  0  0  0
   66.8690    7.2726    0.6173 N   0  0  0  0  0  0  0  0  0  0  0  0
  1  5  1  1  0  0  0
  1 14  1  0  0  0  0
  1 19  2  0  0  0  0
  2 15  1  6  0  0  0
  2 20  2  0  0  0  0
  2 23  1  0  0  0  0
  3 16  1  1  0  0  0
  3 21  2  0  0  0  0
  3 24  1  0  0  0  0
  3 25  1  0  0  0  0
  4  6  1  0  0  0  0
  5  4  1  0  0  0  0
  6  7  1  0  0  0  0
  6  8  2  0  0  0  0
  7 12  1  0  0  0  0
  8  9  1  0  0  0  0
  8 10  1  0  0  0  0
 10 11  1  0  0  0  0
 10 12  2  0  0  0  0
 12 32  1  0  0  0  0
 13 17  1  0  0  0  0
 17 18  1  6  0  0  0
 17 22  1  0  0  0  0
 23  1  1  0  0  0  0
 24  2  1  0  0  0  0
 26 22  1  6  0  0  0
 27 26  1  0  0  0  0
 27 28  1  0  0  0  0
 27 30  1  6  0  0  0
 28 13  1  0  0  0  0
 28 29  1  6  0  0  0
 31 30  1  0  0  0  0
 32 26  1  0  0  0  0
 32 31  1  0  0  0  0
M  CHG  3  14  -1  15  -1  16  -1
M  END
>  <CHROM.1>
86.41484376,-61.74712036,176.94331270,39.42493694,-178.46287959,144.46425466
-128.28360334,-87.81243495,68.61784818,10.26251610,1.55620504,1.22353287
-0.93542516,0.12898190

>  <Name>
2au4_lig

>  <RI>
0

>  <Rbt.Current_Directory>
/home/itssahil/PROJECTS/Mol_Feturizer/New_Systems/rnas/2au4

>  <Rbt.Executable>
rbdock ($Id: //depot/dev/client3/rdock/2013.1/src/exe/rbdock.cxx#4 $)

>  <Rbt.Library>
libRbt.so (2013.1, Build901 2013/11/27)

>  <Rbt.Parameter_File>
/export/apps/rDock/src/rDock_2013.1_src/data/scripts/dock_solv.prm

>  <Rbt.Receptor>
prm/pocket_docking_6.prm

>  <SCORE>
-36.7446

>  <SCORE.INTER>
-13.2896

>  <SCORE.INTER.CONST>
1

>  <SCORE.INTER.POLAR>
-1.25

>  <SCORE.INTER.ROT>
8

>  <SCORE.INTER.SOLV>
19.0439

>  <SCORE.INTER.VDW>
-19.9744

>  <SCORE.INTER.norm>
-0.4153

>  <SCORE.INTRA>
-23.455

>  <SCORE.INTRA.DIHEDRAL>
-45.4436

>  <SCORE.INTRA.DIHEDRAL.0>
76.3625

>  <SCORE.INTRA.POLAR>
0

>  <SCORE.INTRA.POLAR.0>
0

>  <SCORE.INTRA.REPUL>
-0.12705

>  <SCORE.INTRA.REPUL.0>
0.12705

>  <SCORE.INTRA.SOLV>
-5.61736

>  <SCORE.INTRA.SOLV.lig_0>
-119.383

>  <SCORE.INTRA.VDW>
2.7107

>  <SCORE.INTRA.VDW.0>
-5.10464

>  <SCORE.INTRA.norm>
-0.73297

>  <SCORE.RESTR>
0

>  <SCORE.RESTR.CAVITY>
0

>  <SCORE.RESTR.norm>
0

>  <SCORE.SYSTEM>
0

>  <SCORE.SYSTEM.CONST>
0

>  <SCORE.SYSTEM.DIHEDRAL>
0

>  <SCORE.SYSTEM.SOLV>
0

>  <SCORE.SYSTEM.norm>
0

>  <SCORE.heavy>
32

>  <SCORE.norm>
-1.14827

>  <RMSD>
5.351

$$$$
2au4_lig
 OpenBabel11021811423D
libRbt.so/2013.1/901 2013/11/27
 32 34  0  0  0  0  0  0  0  0999 V2000
   68.6029   11.5261    0.5258 P   0  0  1  0  0  0  0  0  0  0  0  0
   66.6569   12.8871   -0.7896 P   0  0  1  0  0  0  0  0  0  0  0  0
   64.5366   11.4176    0.0969 P   0  0  2  0  0  0  0  0  0  0  0  0
   67.7061   10.0446    2.5337 C   0  0  0  0  0  0  0  0  0  0  0  0
   68.1641   10.1198    1.1734 O   0  0  0  0  0  0  0  0  0  0  0  0
   67.5010    8.6108    3.0001 C   0  0  0  0  0  0  0  0  0  0  0  0
   66.6281    7.9030    2.0960 O   0  0  0  0  0  0  0  0  0  0  0  0
   68.8273    7.8692    3.0604 C   0  0  0  0  0  0  0  0  0  0  0  0
   69.1371    7.4825    4.4048 O   0  0  0  0  0  0  0  0  0  0  0  0
   68.6836    6.6602    2.1672 C   0  0  0  0  0  0  0  0  0  0  0  0
   68.9015    5.4458    2.8980 O   0  0  0  0  0  0  0  0  0  0  0  0
   67.2723    6.7074    1.6074 C   0  0  0  0  0  0  0  0  0  0  0  0
   69.7391    5.1346   -2.5769 N   0  0  0  0  0  0  0  0  0  0  0  0
   68.2534   12.6080    1.4682 O   0  5  0  0  0  0  0  0  0  0  0  0
   67.4154   14.0918   -0.4005 O   0  5  0  0  0  0  0  0  0  0  0  0
   63.6914   11.8424   -1.0373 O   0  5  0  0  0  0  0  0  0  0  0  0
   70.0566    4.9429   -1.2532 C   0  0  1  0  0  0  0  0  0  0  0  0
   71.1638    4.2552   -1.0079 N   0  0  0  0  0  0  0  0  0  0  0  0
   69.9869   11.4017    0.0206 O   0  0  0  0  0  0  0  0  0  0  0  0
   65.9413   12.8468   -2.0818 O   0  0  0  0  0  0  0  0  0  0  0  0
   63.9157   11.0698    1.3921 O   0  0  0  0  0  0  0  0  0  0  0  0
   69.3265    5.4058   -0.2416 N   0  0  0  0  0  0  0  0  0  0  0  0
   67.6370   11.6412   -0.7288 O   0  0  0  0  0  0  0  0  0  0  0  0
   65.6124   12.5615    0.3630 O   0  0  0  0  0  0  0  0  0  0  0  0
   65.4453   10.1821   -0.3810 O   0  0  0  0  0  0  0  0  0  0  0  0
   68.2378    6.0865   -0.6684 C   0  0  2  0  0  0  0  0  0  0  0  0
   67.8450    6.3250   -1.9755 C   0  0  2  0  0  0  0  0  0  0  0  0
   68.6339    5.8255   -3.0406 C   0  0  1  0  0  0  0  0  0  0  0  0
   68.4567    5.9584   -4.2441 O   0  0  0  0  0  0  0  0  0  0  0  0
   66.6612    7.0696   -2.0118 N   0  0  0  0  0  0  0  0  0  0  0  0
   66.4206    7.2302   -0.7516 C   0  0  0  0  0  0  0  0  0  0  0  0
   67.2945    6.6864    0.1318 N   0  0  0  0  0  0  0  0  0  0  0  0
  1  5  1  1  0  0  0
  1 14  1  0  0  0  0
  1 19  2  0  0  0  0
  2 15  1  1  0  0  0
  2 20  2  0  0  0  0
  2 23  1  0  0  0  0
  3 16  1  6  0  0  0
  3 21  2  0  0  0  0
  3 24  1  0  0  0  0
  3 25  1  0  0  0  0
  4  6  1  0  0  0  0
  5  4  1  0  0  0  0
  6  7  1  0  0  0  0
  6  8  2  0  0  0  0
  7 12  1  0  0  0  0
  8  9  1  0  0  0  0
  8 10  1  0  0  0  0
 10 11  1  0  0  0  0
 10 12  2  0  0  0  0
 12 32  1  0  0  0  0
 13 17  1  0  0  0  0
 17 18  1  6  0  0  0
 17 22  1  0  0  0  0
 23  1  1  0  0  0  0
 24  2  1  0  0  0  0
 26 22  1  6  0  0  0
 27 26  1  0  0  0  0
 27 28  1  0  0  0  0
 27 30  1  6  0  0  0
 28 13  1  0  0  0  0
 28 29  1  6  0  0  0
 31 30  1  0  0  0  0
 32 26  1  0  0  0  0
 32 31  1  0  0  0  0
M  CHG  3  14  -1  15  -1  16  -1
M  END
>  <CHROM.1>
-8.29432571,43.84303645,-62.74017020,-53.92684209,-173.14045620,150.46745032
120.05187711,172.03094749,67.48874789,9.19147844,0.09082074,-2.70524696,1.12035511
-1.98770601

>  <Name>
2au4_lig

>  <RI>
0

>  <Rbt.Current_Directory>
/home/itssahil/PROJECTS/Mol_Feturizer/New_Systems/rnas/2au4

>  <Rbt.Executable>
rbdock ($Id: //depot/dev/client3/rdock/2013.1/src/exe/rbdock.cxx#4 $)

>  <Rbt.Library>
libRbt.so (2013.1, Build901 2013/11/27)

>  <Rbt.Parameter_File>
/export/apps/rDock/src/rDock_2013.1_src/data/scripts/dock_solv.prm

>  <Rbt.Receptor>
prm/pocket_docking_4.prm

>  <SCORE>
-32.8464

>  <SCORE.INTER>
-7.81187

>  <SCORE.INTER.CONST>
1

>  <SCORE.INTER.POLAR>
0

>  <SCORE.INTER.ROT>
8

>  <SCORE.INTER.SOLV>
19.444

>  <SCORE.INTER.VDW>
-20.6226

>  <SCORE.INTER.norm>
-0.244121

>  <SCORE.INTRA>
-25.0345

>  <SCORE.INTRA.DIHEDRAL>
-45.4596

>  <SCORE.INTRA.DIHEDRAL.0>
76.3625

>  <SCORE.INTRA.POLAR>
0

>  <SCORE.INTRA.POLAR.0>
0

>  <SCORE.INTRA.REPUL>
-0.12705

>  <SCORE.INTRA.REPUL.0>
0.12705

>  <SCORE.INTRA.SOLV>
-5.43093

>  <SCORE.INTRA.SOLV.lig_0>
-119.383

>  <SCORE.INTRA.VDW>
1.04598

>  <SCORE.INTRA.VDW.0>
-5.10464

>  <SCORE.INTRA.norm>
-0.782329

>  <SCORE.RESTR>
0

>  <SCORE.RESTR.CAVITY>
0

>  <SCORE.RESTR.norm>
0

>  <SCORE.SYSTEM>
0

>  <SCORE.SYSTEM.CONST>
0

>  <SCORE.SYSTEM.DIHEDRAL>
0

>  <SCORE.SYSTEM.SOLV>
0

>  <SCORE.SYSTEM.norm>
0

>  <SCORE.heavy>
32

>  <SCORE.norm>
-1.02645

>  <RMSD>
5.354

$$$$
2au4_lig
 OpenBabel11021811423D
libRbt.so/2013.1/901 2013/11/27
 32 34  0  0  0  0  0  0  0  0999 V2000
   69.2671   12.1961   -0.4577 P   0  0  1  0  0  0  0  0  0  0  0  0
   67.0394   13.7472   -0.4269 P   0  0  1  0  0  0  0  0  0  0  0  0
   65.3342   15.8760   -0.4637 P   0  0  2  0  0  0  0  0  0  0  0  0
   69.1773   10.0918    1.1530 C   0  0  0  0  0  0  0  0  0  0  0  0
   68.4957   11.2014    0.5448 O   0  0  0  0  0  0  0  0  0  0  0  0
   68.2281    9.1608    1.8932 C   0  0  0  0  0  0  0  0  0  0  0  0
   68.0307    7.9411    1.1492 O   0  0  0  0  0  0  0  0  0  0  0  0
   68.7858    8.7996    3.2610 C   0  0  0  0  0  0  0  0  0  0  0  0
   67.9388    9.2931    4.3060 O   0  0  0  0  0  0  0  0  0  0  0  0
   68.8776    7.2929    3.3026 C   0  0  0  0  0  0  0  0  0  0  0  0
   68.0990    6.7548    4.3798 O   0  0  0  0  0  0  0  0  0  0  0  0
   68.3618    6.7960    1.9631 C   0  0  0  0  0  0  0  0  0  0  0  0
   70.2105    5.1060   -2.4858 N   0  0  0  0  0  0  0  0  0  0  0  0
   70.6840   12.2715   -0.0485 O   0  5  0  0  0  0  0  0  0  0  0  0
   66.8061   13.4636   -1.8563 O   0  5  0  0  0  0  0  0  0  0  0  0
   64.9467   15.4802   -1.8328 O   0  5  0  0  0  0  0  0  0  0  0  0
   69.1632    5.9634   -2.2456 C   0  0  1  0  0  0  0  0  0  0  0  0
   68.5255    6.4259   -3.3126 N   0  0  0  0  0  0  0  0  0  0  0  0
   68.9153   11.8324   -1.8470 O   0  0  0  0  0  0  0  0  0  0  0  0
   66.3029   12.9927    0.6084 O   0  0  0  0  0  0  0  0  0  0  0  0
   65.3305   17.3024   -0.0774 O   0  0  0  0  0  0  0  0  0  0  0  0
   68.7731    6.3337   -1.0284 N   0  0  0  0  0  0  0  0  0  0  0  0
   68.5917   13.5966   -0.1371 O   0  0  0  0  0  0  0  0  0  0  0  0
   66.7903   15.2969   -0.1788 O   0  0  0  0  0  0  0  0  0  0  0  0
   64.4206   15.0632    0.5782 O   0  0  0  0  0  0  0  0  0  0  0  0
   69.5262    5.7675   -0.0575 C   0  0  2  0  0  0  0  0  0  0  0  0
   70.5940    4.8979   -0.2108 C   0  0  2  0  0  0  0  0  0  0  0  0
   70.9961    4.5135   -1.5134 C   0  0  1  0  0  0  0  0  0  0  0  0
   71.8914    3.7442   -1.8358 O   0  0  0  0  0  0  0  0  0  0  0  0
   71.1172    4.5276    1.0328 N   0  0  0  0  0  0  0  0  0  0  0  0
   70.3480    5.1826    1.8398 C   0  0  0  0  0  0  0  0  0  0  0  0
   69.3703    5.9496    1.2962 N   0  0  0  0  0  0  0  0  0  0  0  0
  1  5  1  1  0  0  0
  1 14  1  0  0  0  0
  1 19  2  0  0  0  0
  2 15  1  6  0  0  0
  2 20  2  0  0  0  0
  2 23  1  0  0  0  0
  3 16  1  6  0  0  0
  3 21  2  0  0  0  0
  3 24  1  0  0  0  0
  3 25  1  0  0  0  0
  4  6  1  0  0  0  0
  5  4  1  0  0  0  0
  6  7  1  0  0  0  0
  6  8  2  0  0  0  0
  7 12  1  0  0  0  0
  8  9  1  0  0  0  0
  8 10  1  0  0  0  0
 10 11  1  0  0  0  0
 10 12  2  0  0  0  0
 12 32  1  0  0  0  0
 13 17  1  0  0  0  0
 17 18  1  1  0  0  0
 17 22  1  0  0  0  0
 23  1  1  0  0  0  0
 24  2  1  0  0  0  0
 26 22  1  1  0  0  0
 27 26  1  0  0  0  0
 27 28  1  0  0  0  0
 27 30  1  1  0  0  0
 28 13  1  0  0  0  0
 28 29  1  1  0  0  0
 31 30  1  0  0  0  0
 32 26  1  0  0  0  0
 32 31  1  0  0  0  0
M  CHG  3  14  -1  15  -1  16  -1
M  END
>  <CHROM.1>
-31.07069811,-58.23662678,-52.62138737,105.77596608,-171.35857996,-31.55565457
-62.73937628,61.85243435,68.28563328,10.14597019,0.13585827,-2.69223888,-1.15014456
2.00108263

>  <Name>
2au4_lig

>  <RI>
0

>  <Rbt.Current_Directory>
/home/itssahil/PROJECTS/Mol_Feturizer/New_Systems/rnas/2au4

>  <Rbt.Executable>
rbdock ($Id: //depot/dev/client3/rdock/2013.1/src/exe/rbdock.cxx#4 $)

>  <Rbt.Library>
libRbt.so (2013.1, Build901 2013/11/27)

>  <Rbt.Parameter_File>
/export/apps/rDock/src/rDock_2013.1_src/data/scripts/dock_solv.prm

>  <Rbt.Receptor>
prm/pocket_docking_8.prm

>  <SCORE>
-43.1406

>  <SCORE.INTER>
-17.2122

>  <SCORE.INTER.CONST>
1

>  <SCORE.INTER.POLAR>
-0.266419

>  <SCORE.INTER.ROT>
8

>  <SCORE.INTER.SOLV>
27.4101

>  <SCORE.INTER.VDW>
-28.6568

>  <SCORE.INTER.norm>
-0.537882

>  <SCORE.INTRA>
-25.9284

>  <SCORE.INTRA.DIHEDRAL>
-49.3063

>  <SCORE.INTRA.DIHEDRAL.0>
76.3625

>  <SCORE.INTRA.POLAR>
0

>  <SCORE.INTRA.POLAR.0>
0

>  <SCORE.INTRA.REPUL>
0.0587549

>  <SCORE.INTRA.REPUL.0>
0.12705

>  <SCORE.INTRA.SOLV>
-6.49583

>  <SCORE.INTRA.SOLV.lig_0>
-119.383

>  <SCORE.INTRA.VDW>
1.6789

>  <SCORE.INTRA.VDW.0>
-5.10464

>  <SCORE.INTRA.norm>
-0.810262

>  <SCORE.RESTR>
0

>  <SCORE.RESTR.CAVITY>
0

>  <SCORE.RESTR.norm>
0

>  <SCORE.SYSTEM>
0

>  <SCORE.SYSTEM.CONST>
0

>  <SCORE.SYSTEM.DIHEDRAL>
0

>  <SCORE.SYSTEM.SOLV>
0

>  <SCORE.SYSTEM.norm>
0

>  <SCORE.heavy>
32

>  <SCORE.norm>
-1.34814

>  <RMSD>
5.366

$$$$
2au4_lig
 OpenBabel11021811423D
libRbt.so/2013.1/901 2013/11/27
 32 34  0  0  0  0  0  0  0  0999 V2000
   70.8518   10.3392    0.5815 P   0  0  1  0  0  0  0  0  0  0  0  0
   73.2603   11.4881    1.0803 P   0  0  1  0  0  0  0  0  0  0  0  0
   73.4750   13.5927   -0.6417 P   0  0  2  0  0  0  0  0  0  0  0  0
   70.7133   10.1355    3.2215 C   0  0  0  0  0  0  0  0  0  0  0  0
   71.2215    9.6278    1.9767 O   0  0  0  0  0  0  0  0  0  0  0  0
   69.3797    9.5103    3.6039 C   0  0  0  0  0  0  0  0  0  0  0  0
   68.7950    8.8313    2.4738 O   0  0  0  0  0  0  0  0  0  0  0  0
   69.5608    8.4997    4.7257 C   0  0  0  0  0  0  0  0  0  0  0  0
   68.8660    8.9163    5.9074 O   0  0  0  0  0  0  0  0  0  0  0  0
   69.0192    7.1870    4.2118 C   0  0  0  0  0  0  0  0  0  0  0  0
   67.9582    6.7012    5.0452 O   0  0  0  0  0  0  0  0  0  0  0  0
   68.5198    7.4529    2.8022 C   0  0  0  0  0  0  0  0  0  0  0  0
   69.2403    6.2997   -2.1189 N   0  0  0  0  0  0  0  0  0  0  0  0
   70.3287    9.3152   -0.3451 O   0  5  0  0  0  0  0  0  0  0  0  0
   72.4696   12.3762    1.9545 O   0  5  0  0  0  0  0  0  0  0  0  0
   72.2326   13.0789   -1.2531 O   0  5  0  0  0  0  0  0  0  0  0  0
   68.5019    7.3157   -1.5600 C   0  0  1  0  0  0  0  0  0  0  0  0
   67.8750    8.1212   -2.4068 N   0  0  0  0  0  0  0  0  0  0  0  0
   70.0595   11.5546    0.8667 O   0  0  0  0  0  0  0  0  0  0  0  0
   74.1138   10.4357    1.6697 O   0  0  0  0  0  0  0  0  0  0  0  0
   74.5026   14.2373   -1.4858 O   0  0  0  0  0  0  0  0  0  0  0  0
   68.3906    7.5162   -0.2493 N   0  0  0  0  0  0  0  0  0  0  0  0
   72.2730   10.8013    0.0459 O   0  0  0  0  0  0  0  0  0  0  0  0
   74.1694   12.3926    0.1419 O   0  0  0  0  0  0  0  0  0  0  0  0
   73.0786   14.6047    0.5413 O   0  0  0  0  0  0  0  0  0  0  0  0
   69.0873    6.6039    0.4669 C   0  0  2  0  0  0  0  0  0  0  0  0
   69.8535    5.5540   -0.0132 C   0  0  2  0  0  0  0  0  0  0  0  0
   69.9611    5.3545   -1.4114 C   0  0  1  0  0  0  0  0  0  0  0  0
   70.5670    4.4748   -2.0086 O   0  0  0  0  0  0  0  0  0  0  0  0
   70.4193    4.8279    1.0402 N   0  0  0  0  0  0  0  0  0  0  0  0
   69.9677    5.4714    2.0668 C   0  0  0  0  0  0  0  0  0  0  0  0
   69.1673    6.5423    1.8380 N   0  0  0  0  0  0  0  0  0  0  0  0
  1  5  1  1  0  0  0
  1 14  1  0  0  0  0
  1 19  2  0  0  0  0
  2 15  1  1  0  0  0
  2 20  2  0  0  0  0
  2 23  1  0  0  0  0
  3 16  1  6  0  0  0
  3 21  2  0  0  0  0
  3 24  1  0  0  0  0
  3 25  1  0  0  0  0
  4  6  1  0  0  0  0
  5  4  1  0  0  0  0
  6  7  1  0  0  0  0
  6  8  2  0  0  0  0
  7 12  1  0  0  0  0
  8  9  1  0  0  0  0
  8 10  1  0  0  0  0
 10 11  1  0  0  0  0
 10 12  2  0  0  0  0
 12 32  1  0  0  0  0
 13 17  1  0  0  0  0
 17 18  1  1  0  0  0
 17 22  1  0  0  0  0
 23  1  1  0  0  0  0
 24  2  1  0  0  0  0
 26 22  1  1  0  0  0
 27 26  1  0  0  0  0
 27 28  1  0  0  0  0
 27 30  1  1  0  0  0
 28 13  1  0  0  0  0
 28 29  1  1  0  0  0
 31 30  1  0  0  0  0
 32 26  1  0  0  0  0
 32 31  1  0  0  0  0
M  CHG  3  14  -1  15  -1  16  -1
M  END
>  <CHROM.1>
-127.88581013,-39.49287713,-46.33909698,-14.81365383,90.12885101,-50.88578038
-44.54795076,-49.61060458,70.83453661,9.42578853,0.93026294,-0.16498905,-1.00366145
-1.96307108

>  <Name>
2au4_lig

>  <RI>
0

>  <Rbt.Current_Directory>
/home/itssahil/PROJECTS/Mol_Feturizer/New_Systems/rnas/2au4

>  <Rbt.Executable>
rbdock ($Id: //depot/dev/client3/rdock/2013.1/src/exe/rbdock.cxx#4 $)

>  <Rbt.Library>
libRbt.so (2013.1, Build901 2013/11/27)

>  <Rbt.Parameter_File>
/export/apps/rDock/src/rDock_2013.1_src/data/scripts/dock_solv.prm

>  <Rbt.Receptor>
prm/blind_docking_80.prm

>  <SCORE>
-33.191

>  <SCORE.INTER>
-17.5049

>  <SCORE.INTER.CONST>
1

>  <SCORE.INTER.POLAR>
-0.955286

>  <SCORE.INTER.ROT>
8

>  <SCORE.INTER.SOLV>
31.6683

>  <SCORE.INTER.VDW>
-27.9751

>  <SCORE.INTER.norm>
-0.547028

>  <SCORE.INTRA>
-17.0777

>  <SCORE.INTRA.DIHEDRAL>
-37.5854

>  <SCORE.INTRA.DIHEDRAL.0>
76.3625

>  <SCORE.INTRA.POLAR>
0

>  <SCORE.INTRA.POLAR.0>
0

>  <SCORE.INTRA.REPUL>
-0.0545063

>  <SCORE.INTRA.REPUL.0>
0.12705

>  <SCORE.INTRA.SOLV>
3.8206

>  <SCORE.INTRA.SOLV.lig_0>
-119.383

>  <SCORE.INTRA.VDW>
0.0772826

>  <SCORE.INTRA.VDW.0>
-5.10464

>  <SCORE.INTRA.norm>
-0.533677

>  <SCORE.RESTR>
1.39153

>  <SCORE.RESTR.CAVITY>
1.39153

>  <SCORE.RESTR.norm>
0.0434854

>  <SCORE.SYSTEM>
0

>  <SCORE.SYSTEM.CONST>
0

>  <SCORE.SYSTEM.DIHEDRAL>
0

>  <SCORE.SYSTEM.SOLV>
0

>  <SCORE.SYSTEM.norm>
0

>  <SCORE.heavy>
32

>  <SCORE.norm>
-1.03722

>  <RMSD>
5.384

$$$$
2au4_lig
 OpenBabel11021811423D
libRbt.so/2013.1/901 2013/11/27
 32 34  0  0  0  0  0  0  0  0999 V2000
   69.7568    9.0030    4.4349 P   0  0  1  0  0  0  0  0  0  0  0  0
   71.1715   10.8558    3.0440 P   0  0  1  0  0  0  0  0  0  0  0  0
   73.1504   12.2278    1.7624 P   0  0  2  0  0  0  0  0  0  0  0  0
   68.1233    7.4048    3.0903 C   0  0  0  0  0  0  0  0  0  0  0  0
   69.3564    8.1418    3.1359 O   0  0  0  0  0  0  0  0  0  0  0  0
   68.0705    6.4307    1.9225 C   0  0  0  0  0  0  0  0  0  0  0  0
   67.2026    6.9297    0.8842 O   0  0  0  0  0  0  0  0  0  0  0  0
   69.4555    6.2265    1.3286 C   0  0  0  0  0  0  0  0  0  0  0  0
   69.8844    4.8683    1.4847 O   0  0  0  0  0  0  0  0  0  0  0  0
   69.3554    6.5998   -0.1312 C   0  0  0  0  0  0  0  0  0  0  0  0
   69.7222    5.4998   -0.9747 O   0  0  0  0  0  0  0  0  0  0  0  0
   67.9115    7.0057   -0.3708 C   0  0  0  0  0  0  0  0  0  0  0  0
   65.4689   11.4889   -0.3331 N   0  0  0  0  0  0  0  0  0  0  0  0
   68.8038   10.1231    4.5694 O   0  5  0  0  0  0  0  0  0  0  0  0
   70.4402   10.4843    1.8171 O   0  5  0  0  0  0  0  0  0  0  0  0
   73.1671   13.4432    2.6012 O   0  5  0  0  0  0  0  0  0  0  0  0
   65.2208   10.3540    0.4018 C   0  0  1  0  0  0  0  0  0  0  0  0
   64.1994   10.4120    1.2459 N   0  0  0  0  0  0  0  0  0  0  0  0
   69.9759    8.0766    5.5663 O   0  0  0  0  0  0  0  0  0  0  0  0
   70.7661   12.0486    3.8162 O   0  0  0  0  0  0  0  0  0  0  0  0
   72.3302   12.1887    0.5337 O   0  0  0  0  0  0  0  0  0  0  0  0
   65.9358    9.2361    0.3030 N   0  0  0  0  0  0  0  0  0  0  0  0
   71.1656    9.6080    4.0234 O   0  0  0  0  0  0  0  0  0  0  0  0
   72.7116   11.0031    2.6812 O   0  0  0  0  0  0  0  0  0  0  0  0
   74.6647   11.8555    1.3767 O   0  0  0  0  0  0  0  0  0  0  0  0
   66.9329    9.3475   -0.6047 C   0  0  2  0  0  0  0  0  0  0  0  0
   67.2517   10.4479   -1.3840 C   0  0  2  0  0  0  0  0  0  0  0  0
   66.4801   11.6299   -1.2666 C   0  0  1  0  0  0  0  0  0  0  0  0
   66.5991   12.6791   -1.8851 O   0  0  0  0  0  0  0  0  0  0  0  0
   68.3511   10.1751   -2.2051 N   0  0  0  0  0  0  0  0  0  0  0  0
   68.6194    8.9536   -1.8767 C   0  0  0  0  0  0  0  0  0  0  0  0
   67.8382    8.3672   -0.9356 N   0  0  0  0  0  0  0  0  0  0  0  0
  1  5  1  6  0  0  0
  1 14  1  0  0  0  0
  1 19  2  0  0  0  0
  2 15  1  6  0  0  0
  2 20  2  0  0  0  0
  2 23  1  0  0  0  0
  3 16  1  1  0  0  0
  3 21  2  0  0  0  0
  3 24  1  0  0  0  0
  3 25  1  0  0  0  0
  4  6  1  0  0  0  0
  5  4  1  0  0  0  0
  6  7  1  0  0  0  0
  6  8  2  0  0  0  0
  7 12  1  0  0  0  0
  8  9  1  0  0  0  0
  8 10  1  0  0  0  0
 10 11  1  0  0  0  0
 10 12  2  0  0  0  0
 12 32  1  0  0  0  0
 13 17  1  0  0  0  0
 17 18  1  6  0  0  0
 17 22  1  0  0  0  0
 23  1  1  0  0  0  0
 24  2  1  0  0  0  0
 26 22  1  6  0  0  0
 27 26  1  0  0  0  0
 27 28  1  0  0  0  0
 27 30  1  6  0  0  0
 28 13  1  0  0  0  0
 28 29  1  6  0  0  0
 31 30  1  0  0  0  0
 32 26  1  0  0  0  0
 32 31  1  0  0  0  0
M  CHG  3  14  -1  15  -1  16  -1
M  END
>  <CHROM.1>
-66.40494677,-56.43161989,77.11017949,-105.22286375,-167.61537406,-18.74471406
78.24396869,69.24964328,69.39426377,9.64750606,1.44866992,-0.11315678,0.63120227
2.64564956

>  <Name>
2au4_lig

>  <RI>
0

>  <Rbt.Current_Directory>
/home/itssahil/PROJECTS/Mol_Feturizer/New_Systems/rnas/2au4

>  <Rbt.Executable>
rbdock ($Id: //depot/dev/client3/rdock/2013.1/src/exe/rbdock.cxx#4 $)

>  <Rbt.Library>
libRbt.so (2013.1, Build901 2013/11/27)

>  <Rbt.Parameter_File>
/export/apps/rDock/src/rDock_2013.1_src/data/scripts/dock_solv.prm

>  <Rbt.Receptor>
prm/pocket_docking_4.prm

>  <SCORE>
-47.7964

>  <SCORE.INTER>
-23.1894

>  <SCORE.INTER.CONST>
1

>  <SCORE.INTER.POLAR>
-2.35799

>  <SCORE.INTER.ROT>
8

>  <SCORE.INTER.SOLV>
21.0836

>  <SCORE.INTER.VDW>
-23.5608

>  <SCORE.INTER.norm>
-0.724668

>  <SCORE.INTRA>
-24.6429

>  <SCORE.INTRA.DIHEDRAL>
-47.9629

>  <SCORE.INTRA.DIHEDRAL.0>
76.3625

>  <SCORE.INTRA.POLAR>
0

>  <SCORE.INTRA.POLAR.0>
0

>  <SCORE.INTRA.REPUL>
0.0590178

>  <SCORE.INTRA.REPUL.0>
0.12705

>  <SCORE.INTRA.SOLV>
-4.25603

>  <SCORE.INTRA.SOLV.lig_0>
-119.383

>  <SCORE.INTRA.VDW>
1.17144

>  <SCORE.INTRA.VDW.0>
-5.10464

>  <SCORE.INTRA.norm>
-0.770091

>  <SCORE.RESTR>
0.035864

>  <SCORE.RESTR.CAVITY>
0.035864

>  <SCORE.RESTR.norm>
0.00112075

>  <SCORE.SYSTEM>
0

>  <SCORE.SYSTEM.CONST>
0

>  <SCORE.SYSTEM.DIHEDRAL>
0

>  <SCORE.SYSTEM.SOLV>
0

>  <SCORE.SYSTEM.norm>
0

>  <SCORE.heavy>
32

>  <SCORE.norm>
-1.49364

>  <RMSD>
5.396

$$$$
2au4_lig
 OpenBabel11021811423D
libRbt.so/2013.1/901 2013/11/27
 32 34  0  0  0  0  0  0  0  0999 V2000
   65.5653   14.0727   -0.3191 P   0  0  1  0  0  0  0  0  0  0  0  0
   67.6207   14.7801    1.3070 P   0  0  1  0  0  0  0  0  0  0  0  0
   69.1812   15.3511    3.4703 P   0  0  2  0  0  0  0  0  0  0  0  0
   64.3670   11.7463    0.1082 C   0  0  0  0  0  0  0  0  0  0  0  0
   64.2547   13.1619   -0.1138 O   0  0  0  0  0  0  0  0  0  0  0  0
   64.7423   10.9871   -1.1560 C   0  0  0  0  0  0  0  0  0  0  0  0
   66.0195   10.3362   -0.9968 O   0  0  0  0  0  0  0  0  0  0  0  0
   63.7023    9.9243   -1.4746 C   0  0  0  0  0  0  0  0  0  0  0  0
   63.0503   10.2028   -2.7197 O   0  0  0  0  0  0  0  0  0  0  0  0
   64.4383    8.6070   -1.5299 C   0  0  0  0  0  0  0  0  0  0  0  0
   64.2851    7.9799   -2.8103 O   0  0  0  0  0  0  0  0  0  0  0  0
   65.8986    8.9211   -1.2540 C   0  0  0  0  0  0  0  0  0  0  0  0
   69.2730    8.6550    2.5681 N   0  0  0  0  0  0  0  0  0  0  0  0
   66.4929   13.3657   -1.2248 O   0  5  0  0  0  0  0  0  0  0  0  0
   68.6397   13.9425    0.6451 O   0  5  0  0  0  0  0  0  0  0  0  0
   70.3354   14.7319    2.7878 O   0  5  0  0  0  0  0  0  0  0  0  0
   69.1037    9.6364    1.6206 C   0  0  1  0  0  0  0  0  0  0  0  0
   69.9311   10.6706    1.6912 N   0  0  0  0  0  0  0  0  0  0  0  0
   65.1368   15.4538   -0.6278 O   0  0  0  0  0  0  0  0  0  0  0  0
   67.4754   16.2030    0.9357 O   0  0  0  0  0  0  0  0  0  0  0  0
   69.0853   15.3110    4.9445 O   0  0  0  0  0  0  0  0  0  0  0  0
   68.1782    9.5925    0.6655 N   0  0  0  0  0  0  0  0  0  0  0  0
   66.2093   14.0775    1.1319 O   0  0  0  0  0  0  0  0  0  0  0  0
   67.8535   14.7014    2.8770 O   0  0  0  0  0  0  0  0  0  0  0  0
   69.0695   16.8810    2.9935 O   0  0  0  0  0  0  0  0  0  0  0  0
   67.4259    8.4702    0.7362 C   0  0  2  0  0  0  0  0  0  0  0  0
   67.5281    7.4366    1.6532 C   0  0  2  0  0  0  0  0  0  0  0  0
   68.5192    7.4990    2.6633 C   0  0  1  0  0  0  0  0  0  0  0  0
   68.7694    6.6759    3.5336 O   0  0  0  0  0  0  0  0  0  0  0  0
   66.5717    6.4480    1.3982 N   0  0  0  0  0  0  0  0  0  0  0  0
   65.9667    6.9370    0.3653 C   0  0  0  0  0  0  0  0  0  0  0  0
   66.3953    8.1332   -0.1091 N   0  0  0  0  0  0  0  0  0  0  0  0
  1  5  1  1  0  0  0
  1 14  1  0  0  0  0
  1 19  2  0  0  0  0
  2 15  1  6  0  0  0
  2 20  2  0  0  0  0
  2 23  1  0  0  0  0
  3 16  1  6  0  0  0
  3 21  2  0  0  0  0
  3 24  1  0  0  0  0
  3 25  1  0  0  0  0
  4  6  1  0  0  0  0
  5  4  1  0  0  0  0
  6  7  1  0  0  0  0
  6  8  2  0  0  0  0
  7 12  1  0  0  0  0
  8  9  1  0  0  0  0
  8 10  1  0  0  0  0
 10 11  1  0  0  0  0
 10 12  2  0  0  0  0
 12 32  1  0  0  0  0
 13 17  1  0  0  0  0
 17 18  1  6  0  0  0
 17 22  1  0  0  0  0
 23  1  1  0  0  0  0
 24  2  1  0  0  0  0
 26 22  1  6  0  0  0
 27 26  1  0  0  0  0
 27 28  1  0  0  0  0
 27 30  1  6  0  0  0
 28 13  1  0  0  0  0
 28 29  1  6  0  0  0
 31 30  1  0  0  0  0
 32 26  1  0  0  0  0
 32 31  1  0  0  0  0
M  CHG  3  14  -1  15  -1  16  -1
M  END
>  <CHROM.1>
43.52619955,-70.80389988,-56.28322854,117.26152052,-73.82955145,-33.20753808
174.50128741,67.23001271,66.98745308,11.76555998,0.84505119,1.16180020,-0.75623088
0.03986293

>  <Name>
2au4_lig

>  <RI>
0

>  <Rbt.Current_Directory>
/home/itssahil/PROJECTS/Mol_Feturizer/New_Systems/rnas/2au4

>  <Rbt.Executable>
rbdock ($Id: //depot/dev/client3/rdock/2013.1/src/exe/rbdock.cxx#4 $)

>  <Rbt.Library>
libRbt.so (2013.1, Build901 2013/11/27)

>  <Rbt.Parameter_File>
/export/apps/rDock/src/rDock_2013.1_src/data/scripts/dock_solv.prm

>  <Rbt.Receptor>
prm/pocket_docking_7.prm

>  <SCORE>
-40.8126

>  <SCORE.INTER>
-15.3173

>  <SCORE.INTER.CONST>
1

>  <SCORE.INTER.POLAR>
-1.92721

>  <SCORE.INTER.ROT>
8

>  <SCORE.INTER.SOLV>
16.9791

>  <SCORE.INTER.VDW>
-18.3805

>  <SCORE.INTER.norm>
-0.478665

>  <SCORE.INTRA>
-25.4953

>  <SCORE.INTRA.DIHEDRAL>
-50.0215

>  <SCORE.INTRA.DIHEDRAL.0>
76.3625

>  <SCORE.INTRA.POLAR>
0

>  <SCORE.INTRA.POLAR.0>
0

>  <SCORE.INTRA.REPUL>
0.0521368

>  <SCORE.INTRA.REPUL.0>
0.12705

>  <SCORE.INTRA.SOLV>
-3.10334

>  <SCORE.INTRA.SOLV.lig_0>
-119.383

>  <SCORE.INTRA.VDW>
0.806472

>  <SCORE.INTRA.VDW.0>
-5.10464

>  <SCORE.INTRA.norm>
-0.796727

>  <SCORE.RESTR>
0

>  <SCORE.RESTR.CAVITY>
0

>  <SCORE.RESTR.norm>
0

>  <SCORE.SYSTEM>
0

>  <SCORE.SYSTEM.CONST>
0

>  <SCORE.SYSTEM.DIHEDRAL>
0

>  <SCORE.SYSTEM.SOLV>
0

>  <SCORE.SYSTEM.norm>
0

>  <SCORE.heavy>
32

>  <SCORE.norm>
-1.27539

>  <RMSD>
5.399

$$$$
2au4_lig
 OpenBabel11021811423D
libRbt.so/2013.1/901 2013/11/27
 32 34  0  0  0  0  0  0  0  0999 V2000
   70.3438   10.0846    0.4808 P   0  0  1  0  0  0  0  0  0  0  0  0
   72.7271   10.9698    1.4326 P   0  0  1  0  0  0  0  0  0  0  0  0
   72.5746   13.6838    1.2055 P   0  0  2  0  0  0  0  0  0  0  0  0
   68.7496    9.9110    2.5924 C   0  0  0  0  0  0  0  0  0  0  0  0
   69.9901    9.5563    1.9591 O   0  0  0  0  0  0  0  0  0  0  0  0
   68.0238    8.7035    3.1675 C   0  0  0  0  0  0  0  0  0  0  0  0
   67.1002    8.1596    2.2025 O   0  0  0  0  0  0  0  0  0  0  0  0
   69.0121    7.6125    3.5488 C   0  0  0  0  0  0  0  0  0  0  0  0
   68.9902    7.3724    4.9611 O   0  0  0  0  0  0  0  0  0  0  0  0
   68.6042    6.3773    2.7818 C   0  0  0  0  0  0  0  0  0  0  0  0
   68.3095    5.2894    3.6683 O   0  0  0  0  0  0  0  0  0  0  0  0
   67.3775    6.7619    1.9728 C   0  0  0  0  0  0  0  0  0  0  0  0
   65.7557    7.6191   -2.7918 N   0  0  0  0  0  0  0  0  0  0  0  0
   69.8269    9.1122   -0.5030 O   0  5  0  0  0  0  0  0  0  0  0  0
   71.8503   11.3064    2.5710 O   0  5  0  0  0  0  0  0  0  0  0  0
   73.3621   13.8076    2.4489 O   0  5  0  0  0  0  0  0  0  0  0  0
   65.2474    8.0808   -1.6009 C   0  0  1  0  0  0  0  0  0  0  0  0
   64.1775    8.8603   -1.6813 N   0  0  0  0  0  0  0  0  0  0  0  0
   69.9622   11.5098    0.3850 O   0  0  0  0  0  0  0  0  0  0  0  0
   74.0609   10.3809    1.6729 O   0  0  0  0  0  0  0  0  0  0  0  0
   71.1036   13.8201    1.2454 O   0  0  0  0  0  0  0  0  0  0  0  0
   65.7641    7.7856   -0.4107 N   0  0  0  0  0  0  0  0  0  0  0  0
   71.9292   10.0044    0.4591 O   0  0  0  0  0  0  0  0  0  0  0  0
   72.9166   12.2749    0.5461 O   0  0  0  0  0  0  0  0  0  0  0  0
   73.1544   14.7272    0.1305 O   0  0  0  0  0  0  0  0  0  0  0  0
   66.8455    6.9786   -0.5105 C   0  0  2  0  0  0  0  0  0  0  0  0
   67.4212    6.4703   -1.6637 C   0  0  2  0  0  0  0  0  0  0  0  0
   66.8584    6.7941   -2.9225 C   0  0  1  0  0  0  0  0  0  0  0  0
   67.2144    6.4207   -4.0322 O   0  0  0  0  0  0  0  0  0  0  0  0
   68.5282    5.6717   -1.3574 N   0  0  0  0  0  0  0  0  0  0  0  0
   68.5492    5.7466   -0.0667 C   0  0  0  0  0  0  0  0  0  0  0  0
   67.5941    6.4969    0.5372 N   0  0  0  0  0  0  0  0  0  0  0  0
  1  5  1  1  0  0  0
  1 14  1  0  0  0  0
  1 19  2  0  0  0  0
  2 15  1  1  0  0  0
  2 20  2  0  0  0  0
  2 23  1  0  0  0  0
  3 16  1  1  0  0  0
  3 21  2  0  0  0  0
  3 24  1  0  0  0  0
  3 25  1  0  0  0  0
  4  6  1  0  0  0  0
  5  4  1  0  0  0  0
  6  7  1  0  0  0  0
  6  8  2  0  0  0  0
  7 12  1  0  0  0  0
  8  9  1  0  0  0  0
  8 10  1  0  0  0  0
 10 11  1  0  0  0  0
 10 12  2  0  0  0  0
 12 32  1  0  0  0  0
 13 17  1  0  0  0  0
 17 18  1  1  0  0  0
 17 22  1  0  0  0  0
 23  1  1  0  0  0  0
 24  2  1  0  0  0  0
 26 22  1  1  0  0  0
 27 26  1  0  0  0  0
 27 28  1  0  0  0  0
 27 30  1  1  0  0  0
 28 13  1  0  0  0  0
 28 29  1  1  0  0  0
 31 30  1  0  0  0  0
 32 26  1  0  0  0  0
 32 31  1  0  0  0  0
M  CHG  3  14  -1  15  -1  16  -1
M  END
>  <CHROM.1>
-89.31200453,25.36343998,54.96469692,-92.00307953,130.61962407,-44.22918355
-65.91318879,18.19914340,69.56782146,9.37302700,0.74961876,0.12725228,-0.80471585
-1.06438752

>  <Name>
2au4_lig

>  <RI>
0

>  <Rbt.Current_Directory>
/home/itssahil/PROJECTS/Mol_Feturizer/New_Systems/rnas/2au4

>  <Rbt.Executable>
rbdock ($Id: //depot/dev/client3/rdock/2013.1/src/exe/rbdock.cxx#4 $)

>  <Rbt.Library>
libRbt.so (2013.1, Build901 2013/11/27)

>  <Rbt.Parameter_File>
/export/apps/rDock/src/rDock_2013.1_src/data/scripts/dock_solv.prm

>  <Rbt.Receptor>
prm/pocket_docking_4.prm

>  <SCORE>
-44.8502

>  <SCORE.INTER>
-27.3375

>  <SCORE.INTER.CONST>
1

>  <SCORE.INTER.POLAR>
-2.78777

>  <SCORE.INTER.ROT>
8

>  <SCORE.INTER.SOLV>
28.8392

>  <SCORE.INTER.VDW>
-27.4789

>  <SCORE.INTER.norm>
-0.854297

>  <SCORE.INTRA>
-17.5921

>  <SCORE.INTRA.DIHEDRAL>
-37.2689

>  <SCORE.INTRA.DIHEDRAL.0>
76.3625

>  <SCORE.INTRA.POLAR>
0

>  <SCORE.INTRA.POLAR.0>
0

>  <SCORE.INTRA.REPUL>
-0.0117391

>  <SCORE.INTRA.REPUL.0>
0.12705

>  <SCORE.INTRA.SOLV>
0.792159

>  <SCORE.INTRA.SOLV.lig_0>
-119.383

>  <SCORE.INTRA.VDW>
0.704991

>  <SCORE.INTRA.VDW.0>
-5.10464

>  <SCORE.INTRA.norm>
-0.549752

>  <SCORE.RESTR>
0.0794223

>  <SCORE.RESTR.CAVITY>
0.0794223

>  <SCORE.RESTR.norm>
0.00248195

>  <SCORE.SYSTEM>
0

>  <SCORE.SYSTEM.CONST>
0

>  <SCORE.SYSTEM.DIHEDRAL>
0

>  <SCORE.SYSTEM.SOLV>
0

>  <SCORE.SYSTEM.norm>
0

>  <SCORE.heavy>
32

>  <SCORE.norm>
-1.40157

>  <RMSD>
5.406

$$$$
2au4_lig
 OpenBabel11021811423D
libRbt.so/2013.1/901 2013/11/27
 32 34  0  0  0  0  0  0  0  0999 V2000
   67.6980   13.2802    3.9762 P   0  0  1  0  0  0  0  0  0  0  0  0
   70.2473   12.3553    4.0995 P   0  0  1  0  0  0  0  0  0  0  0  0
   71.7709   13.8125    2.3686 P   0  0  2  0  0  0  0  0  0  0  0  0
   67.8677   13.9148    1.4074 C   0  0  0  0  0  0  0  0  0  0  0  0
   67.4967   12.9570    2.4128 O   0  0  0  0  0  0  0  0  0  0  0  0
   67.5120   13.4509    0.0025 C   0  0  0  0  0  0  0  0  0  0  0  0
   68.4437   12.4481   -0.4519 O   0  0  0  0  0  0  0  0  0  0  0  0
   66.1145   12.8522   -0.0293 C   0  0  0  0  0  0  0  0  0  0  0  0
   65.2435   13.6286   -0.8608 O   0  0  0  0  0  0  0  0  0  0  0  0
   66.2621   11.4465   -0.5609 C   0  0  0  0  0  0  0  0  0  0  0  0
   65.4872   11.2580   -1.7526 O   0  0  0  0  0  0  0  0  0  0  0  0
   67.7416   11.2489   -0.8422 C   0  0  0  0  0  0  0  0  0  0  0  0
   66.7362    6.5597    0.9090 N   0  0  0  0  0  0  0  0  0  0  0  0
   66.9685   14.5233    4.2979 O   0  5  0  0  0  0  0  0  0  0  0  0
   70.3109   11.8522    5.4855 O   0  5  0  0  0  0  0  0  0  0  0  0
   70.7939   14.9200    2.3841 O   0  5  0  0  0  0  0  0  0  0  0  0
   65.9245    7.4236    0.2131 C   0  0  1  0  0  0  0  0  0  0  0  0
   64.6963    6.9957   -0.0468 N   0  0  0  0  0  0  0  0  0  0  0  0
   67.4388   12.0474    4.7503 O   0  0  0  0  0  0  0  0  0  0  0  0
   69.8864   11.4422    2.9952 O   0  0  0  0  0  0  0  0  0  0  0  0
   71.7432   12.8175    1.2763 O   0  0  0  0  0  0  0  0  0  0  0  0
   66.3049    8.6320   -0.1941 N   0  0  0  0  0  0  0  0  0  0  0  0
   69.2525   13.5904    4.0641 O   0  0  0  0  0  0  0  0  0  0  0  0
   71.6441   13.0266    3.7481 O   0  0  0  0  0  0  0  0  0  0  0  0
   73.2486   14.4370    2.4522 O   0  0  0  0  0  0  0  0  0  0  0  0
   67.5815    8.9098    0.1576 C   0  0  2  0  0  0  0  0  0  0  0  0
   68.4646    8.1011    0.8547 C   0  0  2  0  0  0  0  0  0  0  0  0
   68.0433    6.8177    1.2812 C   0  0  1  0  0  0  0  0  0  0  0  0
   68.6720    5.9861    1.9220 O   0  0  0  0  0  0  0  0  0  0  0  0
   69.6965    8.7414    1.0270 N   0  0  0  0  0  0  0  0  0  0  0  0
   69.4828    9.8716    0.4364 C   0  0  0  0  0  0  0  0  0  0  0  0
   68.2597   10.0745   -0.1138 N   0  0  0  0  0  0  0  0  0  0  0  0
  1  5  1  6  0  0  0
  1 14  1  0  0  0  0
  1 19  2  0  0  0  0
  2 15  1  1  0  0  0
  2 20  2  0  0  0  0
  2 23  1  0  0  0  0
  3 16  1  6  0  0  0
  3 21  2  0  0  0  0
  3 24  1  0  0  0  0
  3 25  1  0  0  0  0
  4  6  1  0  0  0  0
  5  4  1  0  0  0  0
  6  7  1  0  0  0  0
  6  8  2  0  0  0  0
  7 12  1  0  0  0  0
  8  9  1  0  0  0  0
  8 10  1  0  0  0  0
 10 11  1  0  0  0  0
 10 12  2  0  0  0  0
 12 32  1  0  0  0  0
 13 17  1  0  0  0  0
 17 18  1  1  0  0  0
 17 22  1  0  0  0  0
 23  1  1  0  0  0  0
 24  2  1  0  0  0  0
 26 22  1  1  0  0  0
 27 26  1  0  0  0  0
 27 28  1  0  0  0  0
 27 30  1  1  0  0  0
 28 13  1  0  0  0  0
 28 29  1  1  0  0  0
 31 30  1  0  0  0  0
 32 26  1  0  0  0  0
 32 31  1  0  0  0  0
M  CHG  3  14  -1  15  -1  16  -1
M  END
>  <CHROM.1>
56.84297785,-81.96878746,60.62262013,-75.89718064,-176.24288963,154.73233737
-79.61065289,-172.37588311,68.56570179,11.50036794,1.76760052,0.86276354
-0.64428439,0.07143354

>  <Name>
2au4_lig

>  <RI>
0

>  <Rbt.Current_Directory>
/home/itssahil/PROJECTS/Mol_Feturizer/New_Systems/rnas/2au4

>  <Rbt.Executable>
rbdock ($Id: //depot/dev/client3/rdock/2013.1/src/exe/rbdock.cxx#4 $)

>  <Rbt.Library>
libRbt.so (2013.1, Build901 2013/11/27)

>  <Rbt.Parameter_File>
/export/apps/rDock/src/rDock_2013.1_src/data/scripts/dock_solv.prm

>  <Rbt.Receptor>
prm/pocket_docking_5.prm

>  <SCORE>
-35.504

>  <SCORE.INTER>
-9.55596

>  <SCORE.INTER.CONST>
1

>  <SCORE.INTER.POLAR>
-1.79193

>  <SCORE.INTER.ROT>
8

>  <SCORE.INTER.SOLV>
13.6101

>  <SCORE.INTER.VDW>
-13.8676

>  <SCORE.INTER.norm>
-0.298624

>  <SCORE.INTRA>
-25.9481

>  <SCORE.INTRA.DIHEDRAL>
-49.5909

>  <SCORE.INTRA.DIHEDRAL.0>
76.3625

>  <SCORE.INTRA.POLAR>
0

>  <SCORE.INTRA.POLAR.0>
0

>  <SCORE.INTRA.REPUL>
-0.12705

>  <SCORE.INTRA.REPUL.0>
0.12705

>  <SCORE.INTRA.SOLV>
0.0152051

>  <SCORE.INTRA.SOLV.lig_0>
-119.383

>  <SCORE.INTRA.VDW>
-0.524978

>  <SCORE.INTRA.VDW.0>
-5.10464

>  <SCORE.INTRA.norm>
-0.810877

>  <SCORE.RESTR>
0

>  <SCORE.RESTR.CAVITY>
0

>  <SCORE.RESTR.norm>
0

>  <SCORE.SYSTEM>
0

>  <SCORE.SYSTEM.CONST>
0

>  <SCORE.SYSTEM.DIHEDRAL>
0

>  <SCORE.SYSTEM.SOLV>
0

>  <SCORE.SYSTEM.norm>
0

>  <SCORE.heavy>
32

>  <SCORE.norm>
-1.1095

>  <RMSD>
5.414

$$$$
2au4_lig
 OpenBabel11021811423D
libRbt.so/2013.1/901 2013/11/27
 32 34  0  0  0  0  0  0  0  0999 V2000
   71.2653   12.4290    1.2162 P   0  0  1  0  0  0  0  0  0  0  0  0
   71.8831   13.4566    3.6518 P   0  0  1  0  0  0  0  0  0  0  0  0
   71.6690   11.3446    5.3647 P   0  0  2  0  0  0  0  0  0  0  0  0
   70.3982   10.1519    2.2619 C   0  0  0  0  0  0  0  0  0  0  0  0
   70.1160   11.5010    1.8546 O   0  0  0  0  0  0  0  0  0  0  0  0
   69.1455    9.3966    2.6812 C   0  0  0  0  0  0  0  0  0  0  0  0
   68.7416    8.4720    1.6506 O   0  0  0  0  0  0  0  0  0  0  0  0
   69.3940    8.6084    3.9578 C   0  0  0  0  0  0  0  0  0  0  0  0
   68.5687    9.0897    5.0256 O   0  0  0  0  0  0  0  0  0  0  0  0
   69.0821    7.1658    3.6386 C   0  0  0  0  0  0  0  0  0  0  0  0
   68.0483    6.6569    4.4920 O   0  0  0  0  0  0  0  0  0  0  0  0
   68.6457    7.1343    2.1841 C   0  0  0  0  0  0  0  0  0  0  0  0
   70.1249    5.6170   -2.4610 N   0  0  0  0  0  0  0  0  0  0  0  0
   72.5600   11.7304    1.3447 O   0  5  0  0  0  0  0  0  0  0  0  0
   73.2912   13.0370    3.5129 O   0  5  0  0  0  0  0  0  0  0  0  0
   70.6283   10.4110    5.8405 O   0  5  0  0  0  0  0  0  0  0  0  0
   69.2504    6.6170   -2.1072 C   0  0  1  0  0  0  0  0  0  0  0  0
   68.6974    7.2943   -3.1044 N   0  0  0  0  0  0  0  0  0  0  0  0
   70.8076   12.9041   -0.1070 O   0  0  0  0  0  0  0  0  0  0  0  0
   71.5383   14.6351    4.4739 O   0  0  0  0  0  0  0  0  0  0  0  0
   72.3250   12.2671    6.3148 O   0  0  0  0  0  0  0  0  0  0  0  0
   68.9430    6.9215   -0.8488 N   0  0  0  0  0  0  0  0  0  0  0  0
   71.2840   13.6754    2.1993 O   0  0  0  0  0  0  0  0  0  0  0  0
   71.0444   12.2182    4.1886 O   0  0  0  0  0  0  0  0  0  0  0  0
   72.8058   10.4968    4.6099 O   0  0  0  0  0  0  0  0  0  0  0  0
   69.5902    6.1322    0.0392 C   0  0  2  0  0  0  0  0  0  0  0  0
   70.4833    5.1076   -0.2298 C   0  0  2  0  0  0  0  0  0  0  0  0
   70.7992    4.7962   -1.5750 C   0  0  1  0  0  0  0  0  0  0  0  0
   71.5394    3.9180   -1.9975 O   0  0  0  0  0  0  0  0  0  0  0  0
   70.9416    4.5224    0.9554 N   0  0  0  0  0  0  0  0  0  0  0  0
   70.3090    5.2155    1.8449 C   0  0  0  0  0  0  0  0  0  0  0  0
   69.4805    6.1966    1.4081 N   0  0  0  0  0  0  0  0  0  0  0  0
  1  5  1  1  0  0  0
  1 14  1  0  0  0  0
  1 19  2  0  0  0  0
  2 15  1  6  0  0  0
  2 20  2  0  0  0  0
  2 23  1  0  0  0  0
  3 16  1  1  0  0  0
  3 21  2  0  0  0  0
  3 24  1  0  0  0  0
  3 25  1  0  0  0  0
  4  6  1  0  0  0  0
  5  4  1  0  0  0  0
  6  7  1  0  0  0  0
  6  8  2  0  0  0  0
  7 12  1  0  0  0  0
  8  9  1  0  0  0  0
  8 10  1  0  0  0  0
 10 11  1  0  0  0  0
 10 12  2  0  0  0  0
 12 32  1  0  0  0  0
 13 17  1  0  0  0  0
 17 18  1  6  0  0  0
 17 22  1  0  0  0  0
 23  1  1  0  0  0  0
 24  2  1  0  0  0  0
 26 22  1  6  0  0  0
 27 26  1  0  0  0  0
 27 28  1  0  0  0  0
 27 30  1  6  0  0  0
 28 13  1  0  0  0  0
 28 29  1  6  0  0  0
 31 30  1  0  0  0  0
 32 26  1  0  0  0  0
 32 31  1  0  0  0  0
M  CHG  3  14  -1  15  -1  16  -1
M  END
>  <CHROM.1>
-8.39681050,60.42881740,170.63957734,104.03140356,-173.10050459,-43.43309449
71.62184256,43.48512390,70.58876703,9.50398995,2.15773648,-0.81930571,-1.25575363
-1.83751524

>  <Name>
2au4_lig

>  <RI>
0

>  <Rbt.Current_Directory>
/home/itssahil/PROJECTS/Mol_Feturizer/New_Systems/rnas/2au4

>  <Rbt.Executable>
rbdock ($Id: //depot/dev/client3/rdock/2013.1/src/exe/rbdock.cxx#4 $)

>  <Rbt.Library>
libRbt.so (2013.1, Build901 2013/11/27)

>  <Rbt.Parameter_File>
/export/apps/rDock/src/rDock_2013.1_src/data/scripts/dock_solv.prm

>  <Rbt.Receptor>
prm/blind_docking_80.prm

>  <SCORE>
-45.0515

>  <SCORE.INTER>
-23.403

>  <SCORE.INTER.CONST>
1

>  <SCORE.INTER.POLAR>
-2.3627

>  <SCORE.INTER.ROT>
8

>  <SCORE.INTER.SOLV>
30.1631

>  <SCORE.INTER.VDW>
-26.7141

>  <SCORE.INTER.norm>
-0.731345

>  <SCORE.INTRA>
-22.6525

>  <SCORE.INTRA.DIHEDRAL>
-44.7011

>  <SCORE.INTRA.DIHEDRAL.0>
76.3625

>  <SCORE.INTRA.POLAR>
0

>  <SCORE.INTRA.POLAR.0>
0

>  <SCORE.INTRA.REPUL>
-0.00652516

>  <SCORE.INTRA.REPUL.0>
0.12705

>  <SCORE.INTRA.SOLV>
-2.44411

>  <SCORE.INTRA.SOLV.lig_0>
-119.383

>  <SCORE.INTRA.VDW>
0.952689

>  <SCORE.INTRA.VDW.0>
-5.10464

>  <SCORE.INTRA.norm>
-0.707892

>  <SCORE.RESTR>
1.00408

>  <SCORE.RESTR.CAVITY>
1.00408

>  <SCORE.RESTR.norm>
0.0313776

>  <SCORE.SYSTEM>
0

>  <SCORE.SYSTEM.CONST>
0

>  <SCORE.SYSTEM.DIHEDRAL>
0

>  <SCORE.SYSTEM.SOLV>
0

>  <SCORE.SYSTEM.norm>
0

>  <SCORE.heavy>
32

>  <SCORE.norm>
-1.40786

>  <RMSD>
5.536

$$$$
2au4_lig
 OpenBabel11021811423D
libRbt.so/2013.1/901 2013/11/27
 32 34  0  0  0  0  0  0  0  0999 V2000
   68.0322    7.9773    2.8557 P   0  0  1  0  0  0  0  0  0  0  0  0
   69.5700   10.0280    3.7496 P   0  0  1  0  0  0  0  0  0  0  0  0
   67.5076   11.1853    5.1089 P   0  0  2  0  0  0  0  0  0  0  0  0
   66.7627    6.5292    1.0331 C   0  0  0  0  0  0  0  0  0  0  0  0
   67.0016    7.8144    1.6307 O   0  0  0  0  0  0  0  0  0  0  0  0
   66.1433    6.6380   -0.3526 C   0  0  0  0  0  0  0  0  0  0  0  0
   65.6750    7.9804   -0.5952 O   0  0  0  0  0  0  0  0  0  0  0  0
   67.1612    6.2870   -1.4264 C   0  0  0  0  0  0  0  0  0  0  0  0
   66.7621    5.1145   -2.1468 O   0  0  0  0  0  0  0  0  0  0  0  0
   67.2478    7.4840   -2.3429 C   0  0  0  0  0  0  0  0  0  0  0  0
   66.9145    7.1303   -3.6920 O   0  0  0  0  0  0  0  0  0  0  0  0
   66.2713    8.5117   -1.7974 C   0  0  0  0  0  0  0  0  0  0  0  0
   66.3214   12.7881    0.9913 N   0  0  0  0  0  0  0  0  0  0  0  0
   67.2818    7.8556    4.1217 O   0  5  0  0  0  0  0  0  0  0  0  0
   70.5932    8.9830    3.9471 O   0  5  0  0  0  0  0  0  0  0  0  0
   68.0373   12.5169    4.7520 O   0  5  0  0  0  0  0  0  0  0  0  0
   65.4410   11.7329    1.0279 C   0  0  1  0  0  0  0  0  0  0  0  0
   64.4516   11.8231    1.9066 N   0  0  0  0  0  0  0  0  0  0  0  0
   69.2055    7.1135    2.6036 O   0  0  0  0  0  0  0  0  0  0  0  0
   69.9702   11.3879    3.3323 O   0  0  0  0  0  0  0  0  0  0  0  0
   66.7756   10.9968    6.3788 O   0  0  0  0  0  0  0  0  0  0  0  0
   65.5344   10.6624    0.2431 N   0  0  0  0  0  0  0  0  0  0  0  0
   68.5011    9.4870    2.7099 O   0  0  0  0  0  0  0  0  0  0  0  0
   68.7198   10.1524    5.0863 O   0  0  0  0  0  0  0  0  0  0  0  0
   66.5798   10.6677    3.9039 O   0  0  0  0  0  0  0  0  0  0  0  0
   66.5949   10.7352   -0.5940 C   0  0  2  0  0  0  0  0  0  0  0  0
   67.5267   11.7555   -0.6961 C   0  0  2  0  0  0  0  0  0  0  0  0
   67.4124   12.8882    0.1467 C   0  0  1  0  0  0  0  0  0  0  0  0
   68.1212   13.8852    0.1793 O   0  0  0  0  0  0  0  0  0  0  0  0
   68.4760   11.4663   -1.6822 N   0  0  0  0  0  0  0  0  0  0  0  0
   68.0651   10.3150   -2.1038 C   0  0  0  0  0  0  0  0  0  0  0  0
   66.9563    9.7903   -1.5250 N   0  0  0  0  0  0  0  0  0  0  0  0
  1  5  1  6  0  0  0
  1 14  1  0  0  0  0
  1 19  2  0  0  0  0
  2 15  1  1  0  0  0
  2 20  2  0  0  0  0
  2 23  1  0  0  0  0
  3 16  1  6  0  0  0
  3 21  2  0  0  0  0
  3 24  1  0  0  0  0
  3 25  1  0  0  0  0
  4  6  1  0  0  0  0
  5  4  1  0  0  0  0
  6  7  1  0  0  0  0
  6  8  2  0  0  0  0
  7 12  1  0  0  0  0
  8  9  1  0  0  0  0
  8 10  1  0  0  0  0
 10 11  1  0  0  0  0
 10 12  2  0  0  0  0
 12 32  1  0  0  0  0
 13 17  1  0  0  0  0
 17 18  1  6  0  0  0
 17 22  1  0  0  0  0
 23  1  1  0  0  0  0
 24  2  1  0  0  0  0
 26 22  1  6  0  0  0
 27 26  1  0  0  0  0
 27 28  1  0  0  0  0
 27 30  1  6  0  0  0
 28 13  1  0  0  0  0
 28 29  1  6  0  0  0
 31 30  1  0  0  0  0
 32 26  1  0  0  0  0
 32 31  1  0  0  0  0
M  CHG  3  14  -1  15  -1  16  -1
M  END
>  <CHROM.1>
-92.43426853,41.93460991,-56.00845354,-12.97206563,-161.14805758,-32.21317651
-178.82236091,-177.80534849,67.50470740,9.68748497,1.53295841,-0.79061535
1.29424930,-2.77590745

>  <Name>
2au4_lig

>  <RI>
0

>  <Rbt.Current_Directory>
/home/itssahil/PROJECTS/Mol_Feturizer/New_Systems/rnas/2au4

>  <Rbt.Executable>
rbdock ($Id: //depot/dev/client3/rdock/2013.1/src/exe/rbdock.cxx#4 $)

>  <Rbt.Library>
libRbt.so (2013.1, Build901 2013/11/27)

>  <Rbt.Parameter_File>
/export/apps/rDock/src/rDock_2013.1_src/data/scripts/dock_solv.prm

>  <Rbt.Receptor>
prm/pocket_docking_3.prm

>  <SCORE>
-30.3791

>  <SCORE.INTER>
-5.59422

>  <SCORE.INTER.CONST>
1

>  <SCORE.INTER.POLAR>
-1.07969

>  <SCORE.INTER.ROT>
8

>  <SCORE.INTER.SOLV>
15.826

>  <SCORE.INTER.VDW>
-14.3392

>  <SCORE.INTER.norm>
-0.174819

>  <SCORE.INTRA>
-25.9039

>  <SCORE.INTRA.DIHEDRAL>
-48.4111

>  <SCORE.INTRA.DIHEDRAL.0>
76.3625

>  <SCORE.INTRA.POLAR>
0

>  <SCORE.INTRA.POLAR.0>
0

>  <SCORE.INTRA.REPUL>
0.056258

>  <SCORE.INTRA.REPUL.0>
0.12705

>  <SCORE.INTRA.SOLV>
-2.96368

>  <SCORE.INTRA.SOLV.lig_0>
-119.383

>  <SCORE.INTRA.VDW>
-0.497842

>  <SCORE.INTRA.VDW.0>
-5.10464

>  <SCORE.INTRA.norm>
-0.809498

>  <SCORE.RESTR>
1.11902

>  <SCORE.RESTR.CAVITY>
1.11902

>  <SCORE.RESTR.norm>
0.0349693

>  <SCORE.SYSTEM>
0

>  <SCORE.SYSTEM.CONST>
0

>  <SCORE.SYSTEM.DIHEDRAL>
0

>  <SCORE.SYSTEM.SOLV>
0

>  <SCORE.SYSTEM.norm>
0

>  <SCORE.heavy>
32

>  <SCORE.norm>
-0.949348

>  <RMSD>
5.589

$$$$
2au4_lig
 OpenBabel11021811423D
libRbt.so/2013.1/901 2013/11/27
 32 34  0  0  0  0  0  0  0  0999 V2000
   70.4075   10.5019    1.5202 P   0  0  1  0  0  0  0  0  0  0  0  0
   70.2462   12.7236   -0.0314 P   0  0  1  0  0  0  0  0  0  0  0  0
   68.2987   12.3358   -1.9015 P   0  0  2  0  0  0  0  0  0  0  0  0
   69.2828    8.4763    0.2309 C   0  0  0  0  0  0  0  0  0  0  0  0
   70.2055    8.9313    1.2345 O   0  0  0  0  0  0  0  0  0  0  0  0
   68.9058    7.0127    0.4076 C   0  0  0  0  0  0  0  0  0  0  0  0
   67.4953    6.8811    0.6788 O   0  0  0  0  0  0  0  0  0  0  0  0
   69.2255    6.2188   -0.8494 C   0  0  0  0  0  0  0  0  0  0  0  0
   70.2275    5.2284   -0.5885 O   0  0  0  0  0  0  0  0  0  0  0  0
   67.9318    5.5785   -1.2928 C   0  0  0  0  0  0  0  0  0  0  0  0
   68.0495    4.1503   -1.3422 O   0  0  0  0  0  0  0  0  0  0  0  0
   66.8784    5.9987   -0.2824 C   0  0  0  0  0  0  0  0  0  0  0  0
   63.6609    9.9628   -0.2573 N   0  0  0  0  0  0  0  0  0  0  0  0
   69.3547   10.9499    2.4539 O   0  5  0  0  0  0  0  0  0  0  0  0
   69.3279   13.3516    0.9384 O   0  5  0  0  0  0  0  0  0  0  0  0
   67.4034   12.4000   -0.7286 O   0  5  0  0  0  0  0  0  0  0  0  0
   64.6766    9.6580    0.6175 C   0  0  1  0  0  0  0  0  0  0  0  0
   64.8597   10.5031    1.6231 N   0  0  0  0  0  0  0  0  0  0  0  0
   71.8312   10.7449    1.8368 O   0  0  0  0  0  0  0  0  0  0  0  0
   71.6844   13.0626   -0.0172 O   0  0  0  0  0  0  0  0  0  0  0  0
   68.5856   11.0354   -2.5423 O   0  0  0  0  0  0  0  0  0  0  0  0
   65.4555    8.5851    0.5037 N   0  0  0  0  0  0  0  0  0  0  0  0
   70.1087   11.1489    0.1016 O   0  0  0  0  0  0  0  0  0  0  0  0
   69.6894   12.9968   -1.4945 O   0  0  0  0  0  0  0  0  0  0  0  0
   67.7424   13.3443   -3.0214 O   0  0  0  0  0  0  0  0  0  0  0  0
   65.1300    7.8308   -0.5713 C   0  0  2  0  0  0  0  0  0  0  0  0
   64.1275    8.0636   -1.4989 C   0  0  2  0  0  0  0  0  0  0  0  0
   63.3071    9.2103   -1.3628 C   0  0  1  0  0  0  0  0  0  0  0  0
   62.3680    9.5599   -2.0652 O   0  0  0  0  0  0  0  0  0  0  0  0
   64.1010    7.0546   -2.4675 N   0  0  0  0  0  0  0  0  0  0  0  0
   65.0679    6.2931   -2.0710 C   0  0  0  0  0  0  0  0  0  0  0  0
   65.7446    6.6624   -0.9550 N   0  0  0  0  0  0  0  0  0  0  0  0
  1  5  1  6  0  0  0
  1 14  1  0  0  0  0
  1 19  2  0  0  0  0
  2 15  1  1  0  0  0
  2 20  2  0  0  0  0
  2 23  1  0  0  0  0
  3 16  1  1  0  0  0
  3 21  2  0  0  0  0
  3 24  1  0  0  0  0
  3 25  1  0  0  0  0
  4  6  1  0  0  0  0
  5  4  1  0  0  0  0
  6  7  1  0  0  0  0
  6  8  2  0  0  0  0
  7 12  1  0  0  0  0
  8  9  1  0  0  0  0
  8 10  1  0  0  0  0
 10 11  1  0  0  0  0
 10 12  2  0  0  0  0
 12 32  1  0  0  0  0
 13 17  1  0  0  0  0
 17 18  1  1  0  0  0
 17 22  1  0  0  0  0
 23  1  1  0  0  0  0
 24  2  1  0  0  0  0
 26 22  1  1  0  0  0
 27 26  1  0  0  0  0
 27 28  1  0  0  0  0
 27 30  1  1  0  0  0
 28 13  1  0  0  0  0
 28 29  1  1  0  0  0
 31 30  1  0  0  0  0
 32 26  1  0  0  0  0
 32 31  1  0  0  0  0
M  CHG  3  14  -1  15  -1  16  -1
M  END
>  <CHROM.1>
84.07986609,-58.33378718,38.60737054,116.86676561,-161.74014743,-13.43064788
-178.45330671,-65.59631712,67.83691344,9.62632590,-0.37683653,-0.77910440
0.30669358,3.07665388

>  <Name>
2au4_lig

>  <RI>
0

>  <Rbt.Current_Directory>
/home/itssahil/PROJECTS/Mol_Feturizer/New_Systems/rnas/2au4

>  <Rbt.Executable>
rbdock ($Id: //depot/dev/client3/rdock/2013.1/src/exe/rbdock.cxx#4 $)

>  <Rbt.Library>
libRbt.so (2013.1, Build901 2013/11/27)

>  <Rbt.Parameter_File>
/export/apps/rDock/src/rDock_2013.1_src/data/scripts/dock_solv.prm

>  <Rbt.Receptor>
prm/pocket_docking_6.prm

>  <SCORE>
-43.9814

>  <SCORE.INTER>
-21.909

>  <SCORE.INTER.CONST>
1

>  <SCORE.INTER.POLAR>
-1.64718

>  <SCORE.INTER.ROT>
8

>  <SCORE.INTER.SOLV>
24.368

>  <SCORE.INTER.VDW>
-26.1714

>  <SCORE.INTER.norm>
-0.684656

>  <SCORE.INTRA>
-22.0724

>  <SCORE.INTRA.DIHEDRAL>
-43.5962

>  <SCORE.INTRA.DIHEDRAL.0>
76.3625

>  <SCORE.INTRA.POLAR>
0

>  <SCORE.INTRA.POLAR.0>
0

>  <SCORE.INTRA.REPUL>
0.0264806

>  <SCORE.INTRA.REPUL.0>
0.12705

>  <SCORE.INTRA.SOLV>
-2.92877

>  <SCORE.INTRA.SOLV.lig_0>
-119.383

>  <SCORE.INTRA.VDW>
1.05767

>  <SCORE.INTRA.VDW.0>
-5.10464

>  <SCORE.INTRA.norm>
-0.689763

>  <SCORE.RESTR>
0

>  <SCORE.RESTR.CAVITY>
0

>  <SCORE.RESTR.norm>
0

>  <SCORE.SYSTEM>
0

>  <SCORE.SYSTEM.CONST>
0

>  <SCORE.SYSTEM.DIHEDRAL>
0

>  <SCORE.SYSTEM.SOLV>
0

>  <SCORE.SYSTEM.norm>
0

>  <SCORE.heavy>
32

>  <SCORE.norm>
-1.37442

>  <RMSD>
5.590

$$$$
2au4_lig
 OpenBabel11021811423D
libRbt.so/2013.1/901 2013/11/27
 32 34  0  0  0  0  0  0  0  0999 V2000
   71.7696   11.3987    2.2603 P   0  0  1  0  0  0  0  0  0  0  0  0
   72.2212   13.6987    3.6297 P   0  0  1  0  0  0  0  0  0  0  0  0
   71.8046   13.7325    6.3253 P   0  0  2  0  0  0  0  0  0  0  0  0
   69.6238    9.9635    1.6552 C   0  0  0  0  0  0  0  0  0  0  0  0
   70.6134   10.3412    2.6266 O   0  0  0  0  0  0  0  0  0  0  0  0
   68.5855    9.0073    2.2236 C   0  0  0  0  0  0  0  0  0  0  0  0
   68.3816    7.8915    1.3328 O   0  0  0  0  0  0  0  0  0  0  0  0
   69.0339    8.4650    3.5718 C   0  0  0  0  0  0  0  0  0  0  0  0
   68.1432    8.8824    4.6136 O   0  0  0  0  0  0  0  0  0  0  0  0
   69.0528    6.9605    3.4441 C   0  0  0  0  0  0  0  0  0  0  0  0
   68.1804    6.3470    4.4026 O   0  0  0  0  0  0  0  0  0  0  0  0
   68.6046    6.6459    2.0273 C   0  0  0  0  0  0  0  0  0  0  0  0
   70.4613    5.1332   -2.4817 N   0  0  0  0  0  0  0  0  0  0  0  0
   72.9953   10.6535    1.9093 O   0  5  0  0  0  0  0  0  0  0  0  0
   73.2847   14.0180    2.6576 O   0  5  0  0  0  0  0  0  0  0  0  0
   72.5654   12.9921    7.3521 O   0  5  0  0  0  0  0  0  0  0  0  0
   69.4130    5.9797   -2.2096 C   0  0  1  0  0  0  0  0  0  0  0  0
   68.7765    6.4831   -3.2586 N   0  0  0  0  0  0  0  0  0  0  0  0
   71.2154   12.3978    1.3218 O   0  0  0  0  0  0  0  0  0  0  0  0
   70.8907   14.3297    3.5068 O   0  0  0  0  0  0  0  0  0  0  0  0
   70.5402   13.1776    5.7987 O   0  0  0  0  0  0  0  0  0  0  0  0
   69.0207    6.3017   -0.9795 N   0  0  0  0  0  0  0  0  0  0  0  0
   72.0215   12.1251    3.6492 O   0  0  0  0  0  0  0  0  0  0  0  0
   72.7746   13.9949    5.0896 O   0  0  0  0  0  0  0  0  0  0  0  0
   71.5214   15.2157    6.8734 O   0  0  0  0  0  0  0  0  0  0  0  0
   69.7729    5.6984   -0.0304 C   0  0  2  0  0  0  0  0  0  0  0  0
   70.8416    4.8363   -0.2159 C   0  0  2  0  0  0  0  0  0  0  0  0
   71.2460    4.5037   -1.5320 C   0  0  1  0  0  0  0  0  0  0  0  0
   72.1424    3.7482   -1.8830 O   0  0  0  0  0  0  0  0  0  0  0  0
   71.3632    4.4179    1.0129 N   0  0  0  0  0  0  0  0  0  0  0  0
   70.5923    5.0401    1.8439 C   0  0  0  0  0  0  0  0  0  0  0  0
   69.6148    5.8271    1.3292 N   0  0  0  0  0  0  0  0  0  0  0  0
  1  5  1  1  0  0  0
  1 14  1  0  0  0  0
  1 19  2  0  0  0  0
  2 15  1  6  0  0  0
  2 20  2  0  0  0  0
  2 23  1  0  0  0  0
  3 16  1  1  0  0  0
  3 21  2  0  0  0  0
  3 24  1  0  0  0  0
  3 25  1  0  0  0  0
  4  6  1  0  0  0  0
  5  4  1  0  0  0  0
  6  7  1  0  0  0  0
  6  8  2  0  0  0  0
  7 12  1  0  0  0  0
  8  9  1  0  0  0  0
  8 10  1  0  0  0  0
 10 11  1  0  0  0  0
 10 12  2  0  0  0  0
 12 32  1  0  0  0  0
 13 17  1  0  0  0  0
 17 18  1  1  0  0  0
 17 22  1  0  0  0  0
 23  1  1  0  0  0  0
 24  2  1  0  0  0  0
 26 22  1  1  0  0  0
 27 26  1  0  0  0  0
 27 28  1  0  0  0  0
 27 30  1  1  0  0  0
 28 13  1  0  0  0  0
 28 29  1  1  0  0  0
 31 30  1  0  0  0  0
 32 26  1  0  0  0  0
 32 31  1  0  0  0  0
M  CHG  3  14  -1  15  -1  16  -1
M  END
>  <CHROM.1>
-98.08845726,-52.86124919,133.66770494,-132.43374088,-177.20023766,-37.86778604
-138.21478734,179.78266844,70.72994830,9.61387300,2.40238941,-1.23935484
-0.96398958,-2.27836354

>  <Name>
2au4_lig

>  <RI>
0

>  <Rbt.Current_Directory>
/home/itssahil/PROJECTS/Mol_Feturizer/New_Systems/rnas/2au4

>  <Rbt.Executable>
rbdock ($Id: //depot/dev/client3/rdock/2013.1/src/exe/rbdock.cxx#4 $)

>  <Rbt.Library>
libRbt.so (2013.1, Build901 2013/11/27)

>  <Rbt.Parameter_File>
/export/apps/rDock/src/rDock_2013.1_src/data/scripts/dock_solv.prm

>  <Rbt.Receptor>
prm/blind_docking_80.prm

>  <SCORE>
-46.761

>  <SCORE.INTER>
-26.6654

>  <SCORE.INTER.CONST>
1

>  <SCORE.INTER.POLAR>
-2.4226

>  <SCORE.INTER.ROT>
8

>  <SCORE.INTER.SOLV>
31.7961

>  <SCORE.INTER.VDW>
-29.2336

>  <SCORE.INTER.norm>
-0.833295

>  <SCORE.INTRA>
-21.8095

>  <SCORE.INTRA.DIHEDRAL>
-44.6408

>  <SCORE.INTRA.DIHEDRAL.0>
76.3625

>  <SCORE.INTRA.POLAR>
0

>  <SCORE.INTRA.POLAR.0>
0

>  <SCORE.INTRA.REPUL>
0.0282358

>  <SCORE.INTRA.REPUL.0>
0.12705

>  <SCORE.INTRA.SOLV>
-5.47735

>  <SCORE.INTRA.SOLV.lig_0>
-119.383

>  <SCORE.INTRA.VDW>
3.10836

>  <SCORE.INTRA.VDW.0>
-5.10464

>  <SCORE.INTRA.norm>
-0.681548

>  <SCORE.RESTR>
1.71394

>  <SCORE.RESTR.CAVITY>
1.71394

>  <SCORE.RESTR.norm>
0.0535608

>  <SCORE.SYSTEM>
0

>  <SCORE.SYSTEM.CONST>
0

>  <SCORE.SYSTEM.DIHEDRAL>
0

>  <SCORE.SYSTEM.SOLV>
0

>  <SCORE.SYSTEM.norm>
0

>  <SCORE.heavy>
32

>  <SCORE.norm>
-1.46128

>  <RMSD>
5.631

$$$$
2au4_lig
 OpenBabel11021811423D
libRbt.so/2013.1/901 2013/11/27
 32 34  0  0  0  0  0  0  0  0999 V2000
   68.5986   11.2623   -0.3176 P   0  0  1  0  0  0  0  0  0  0  0  0
   70.5322   12.7965    0.8123 P   0  0  1  0  0  0  0  0  0  0  0  0
   73.1294   13.3119    0.1569 P   0  0  2  0  0  0  0  0  0  0  0  0
   69.3147    8.7412   -0.7202 C   0  0  0  0  0  0  0  0  0  0  0  0
   68.6803    9.9310   -1.2179 O   0  0  0  0  0  0  0  0  0  0  0  0
   68.5112    7.4843   -1.0204 C   0  0  0  0  0  0  0  0  0  0  0  0
   67.2309    7.5301   -0.3579 O   0  0  0  0  0  0  0  0  0  0  0  0
   68.2695    7.3440   -2.5152 C   0  0  0  0  0  0  0  0  0  0  0  0
   68.9083    6.1691   -3.0292 O   0  0  0  0  0  0  0  0  0  0  0  0
   66.7727    7.2744   -2.7029 C   0  0  0  0  0  0  0  0  0  0  0  0
   66.3869    6.0551   -3.3514 O   0  0  0  0  0  0  0  0  0  0  0  0
   66.1631    7.3638   -1.3146 C   0  0  0  0  0  0  0  0  0  0  0  0
   64.0934   10.9751    1.6420 N   0  0  0  0  0  0  0  0  0  0  0  0
   67.7845   12.2653   -1.0331 O   0  5  0  0  0  0  0  0  0  0  0  0
   69.3596   13.6262    1.1509 O   0  5  0  0  0  0  0  0  0  0  0  0
   73.5613   13.4978    1.5570 O   0  5  0  0  0  0  0  0  0  0  0  0
   65.0414   10.0297    1.9539 C   0  0  1  0  0  0  0  0  0  0  0  0
   65.4928   10.0391    3.2009 N   0  0  0  0  0  0  0  0  0  0  0  0
   68.2502   10.8756    1.0663 O   0  0  0  0  0  0  0  0  0  0  0  0
   71.2422   12.0493    1.8712 O   0  0  0  0  0  0  0  0  0  0  0  0
   73.8464   14.0019   -0.9357 O   0  0  0  0  0  0  0  0  0  0  0  0
   65.5070    9.1334    1.0875 N   0  0  0  0  0  0  0  0  0  0  0  0
   70.1037   11.7670   -0.3159 O   0  0  0  0  0  0  0  0  0  0  0  0
   71.5909   13.7125    0.0604 O   0  0  0  0  0  0  0  0  0  0  0  0
   73.1055   11.7379   -0.1630 O   0  0  0  0  0  0  0  0  0  0  0  0
   64.9381    9.2613   -0.1333 C   0  0  2  0  0  0  0  0  0  0  0  0
   63.9811   10.1810   -0.5312 C   0  0  2  0  0  0  0  0  0  0  0  0
   63.4959   11.1279    0.4037 C   0  0  1  0  0  0  0  0  0  0  0  0
   62.6429   11.9896    0.2388 O   0  0  0  0  0  0  0  0  0  0  0  0
   63.6400    9.9950   -1.8752 N   0  0  0  0  0  0  0  0  0  0  0  0
   64.3960    8.9960   -2.1957 C   0  0  0  0  0  0  0  0  0  0  0  0
   65.2056    8.4842   -1.2354 N   0  0  0  0  0  0  0  0  0  0  0  0
  1  5  1  6  0  0  0
  1 14  1  0  0  0  0
  1 19  2  0  0  0  0
  2 15  1  1  0  0  0
  2 20  2  0  0  0  0
  2 23  1  0  0  0  0
  3 16  1  1  0  0  0
  3 21  2  0  0  0  0
  3 24  1  0  0  0  0
  3 25  1  0  0  0  0
  4  6  1  0  0  0  0
  5  4  1  0  0  0  0
  6  7  1  0  0  0  0
  6  8  2  0  0  0  0
  7 12  1  0  0  0  0
  8  9  1  0  0  0  0
  8 10  1  0  0  0  0
 10 11  1  0  0  0  0
 10 12  2  0  0  0  0
 12 32  1  0  0  0  0
 13 17  1  0  0  0  0
 17 18  1  1  0  0  0
 17 22  1  0  0  0  0
 23  1  1  0  0  0  0
 24  2  1  0  0  0  0
 26 22  1  1  0  0  0
 27 26  1  0  0  0  0
 27 28  1  0  0  0  0
 27 30  1  1  0  0  0
 28 13  1  0  0  0  0
 28 29  1  1  0  0  0
 31 30  1  0  0  0  0
 32 26  1  0  0  0  0
 32 31  1  0  0  0  0
M  CHG  3  14  -1  15  -1  16  -1
M  END
>  <CHROM.1>
-174.56794175,-31.25702872,-67.14940025,-62.93356052,136.02543085,-27.13372078
-161.61685832,153.11313683,68.21956092,10.58616367,-0.23536736,0.51475863
0.17788931,0.58324114

>  <Name>
2au4_lig

>  <RI>
0

>  <Rbt.Current_Directory>
/home/itssahil/PROJECTS/Mol_Feturizer/New_Systems/rnas/2au4

>  <Rbt.Executable>
rbdock ($Id: //depot/dev/client3/rdock/2013.1/src/exe/rbdock.cxx#4 $)

>  <Rbt.Library>
libRbt.so (2013.1, Build901 2013/11/27)

>  <Rbt.Parameter_File>
/export/apps/rDock/src/rDock_2013.1_src/data/scripts/dock_solv.prm

>  <Rbt.Receptor>
prm/pocket_docking_4.prm

>  <SCORE>
-36.9888

>  <SCORE.INTER>
-15.7995

>  <SCORE.INTER.CONST>
1

>  <SCORE.INTER.POLAR>
-1.25

>  <SCORE.INTER.ROT>
8

>  <SCORE.INTER.SOLV>
17.6913

>  <SCORE.INTER.VDW>
-21.1968

>  <SCORE.INTER.norm>
-0.493735

>  <SCORE.INTRA>
-21.1893

>  <SCORE.INTRA.DIHEDRAL>
-41.0757

>  <SCORE.INTRA.DIHEDRAL.0>
76.3625

>  <SCORE.INTRA.POLAR>
0

>  <SCORE.INTRA.POLAR.0>
0

>  <SCORE.INTRA.REPUL>
0.0700874

>  <SCORE.INTRA.REPUL.0>
0.12705

>  <SCORE.INTRA.SOLV>
-2.33582

>  <SCORE.INTRA.SOLV.lig_0>
-119.383

>  <SCORE.INTRA.VDW>
0.166063

>  <SCORE.INTRA.VDW.0>
-5.10464

>  <SCORE.INTRA.norm>
-0.662165

>  <SCORE.RESTR>
0

>  <SCORE.RESTR.CAVITY>
0

>  <SCORE.RESTR.norm>
0

>  <SCORE.SYSTEM>
0

>  <SCORE.SYSTEM.CONST>
0

>  <SCORE.SYSTEM.DIHEDRAL>
0

>  <SCORE.SYSTEM.SOLV>
0

>  <SCORE.SYSTEM.norm>
0

>  <SCORE.heavy>
32

>  <SCORE.norm>
-1.1559

>  <RMSD>
5.666

$$$$
2au4_lig
 OpenBabel11021811423D
libRbt.so/2013.1/901 2013/11/27
 32 34  0  0  0  0  0  0  0  0999 V2000
   68.5610    9.4554    3.0513 P   0  0  1  0  0  0  0  0  0  0  0  0
   70.8865   10.8545    3.1145 P   0  0  1  0  0  0  0  0  0  0  0  0
   73.5356   11.4933    2.9911 P   0  0  2  0  0  0  0  0  0  0  0  0
   67.3705   11.5813    2.0056 C   0  0  0  0  0  0  0  0  0  0  0  0
   67.8916   10.2541    1.8252 O   0  0  0  0  0  0  0  0  0  0  0  0
   66.8227   12.1718    0.7146 C   0  0  0  0  0  0  0  0  0  0  0  0
   67.5356   11.6492   -0.4251 O   0  0  0  0  0  0  0  0  0  0  0  0
   65.3490   11.8340    0.5507 C   0  0  0  0  0  0  0  0  0  0  0  0
   64.5466   13.0209    0.5682 O   0  0  0  0  0  0  0  0  0  0  0  0
   65.2190   11.1102   -0.7681 C   0  0  0  0  0  0  0  0  0  0  0  0
   64.3226   11.7974   -1.6515 O   0  0  0  0  0  0  0  0  0  0  0  0
   66.6164   11.0457   -1.3601 C   0  0  0  0  0  0  0  0  0  0  0  0
   64.9740    6.3395   -2.4649 N   0  0  0  0  0  0  0  0  0  0  0  0
   68.3337   10.2220    4.2928 O   0  5  0  0  0  0  0  0  0  0  0  0
   70.2290   12.0004    2.4568 O   0  5  0  0  0  0  0  0  0  0  0  0
   73.7562   11.1133    4.4011 O   0  5  0  0  0  0  0  0  0  0  0  0
   64.2498    7.4873   -2.2460 C   0  0  1  0  0  0  0  0  0  0  0  0
   62.9307    7.3741   -2.3251 N   0  0  0  0  0  0  0  0  0  0  0  0
   68.1513    8.0370    2.9706 O   0  0  0  0  0  0  0  0  0  0  0  0
   71.0692   10.8462    4.5808 O   0  0  0  0  0  0  0  0  0  0  0  0
   73.3004   12.9082    2.6349 O   0  0  0  0  0  0  0  0  0  0  0  0
   64.7978    8.6667   -1.9642 N   0  0  0  0  0  0  0  0  0  0  0  0
   70.1087    9.5336    2.7063 O   0  0  0  0  0  0  0  0  0  0  0  0
   72.3089   10.6406    2.4390 O   0  0  0  0  0  0  0  0  0  0  0  0
   74.7680   10.9457    2.1182 O   0  0  0  0  0  0  0  0  0  0  0  0
   66.1485    8.6030   -1.9176 C   0  0  2  0  0  0  0  0  0  0  0  0
   66.9532    7.4943   -2.1247 C   0  0  2  0  0  0  0  0  0  0  0  0
   66.3536    6.2462   -2.4234 C   0  0  1  0  0  0  0  0  0  0  0  0
   66.8992    5.1670   -2.6104 O   0  0  0  0  0  0  0  0  0  0  0  0
   68.3051    7.8278   -1.9895 N   0  0  0  0  0  0  0  0  0  0  0  0
   68.2317    9.0891   -1.7145 C   0  0  0  0  0  0  0  0  0  0  0  0
   66.9983    9.6494   -1.6475 N   0  0  0  0  0  0  0  0  0  0  0  0
  1  5  1  6  0  0  0
  1 14  1  0  0  0  0
  1 19  2  0  0  0  0
  2 15  1  6  0  0  0
  2 20  2  0  0  0  0
  2 23  1  0  0  0  0
  3 16  1  1  0  0  0
  3 21  2  0  0  0  0
  3 24  1  0  0  0  0
  3 25  1  0  0  0  0
  4  6  1  0  0  0  0
  5  4  1  0  0  0  0
  6  7  1  0  0  0  0
  6  8  2  0  0  0  0
  7 12  1  0  0  0  0
  8  9  1  0  0  0  0
  8 10  1  0  0  0  0
 10 11  1  0  0  0  0
 10 12  2  0  0  0  0
 12 32  1  0  0  0  0
 13 17  1  0  0  0  0
 17 18  1  1  0  0  0
 17 22  1  0  0  0  0
 23  1  1  0  0  0  0
 24  2  1  0  0  0  0
 26 22  1  1  0  0  0
 27 26  1  0  0  0  0
 27 28  1  0  0  0  0
 27 30  1  1  0  0  0
 28 13  1  0  0  0  0
 28 29  1  1  0  0  0
 31 30  1  0  0  0  0
 32 26  1  0  0  0  0
 32 31  1  0  0  0  0
M  CHG  3  14  -1  15  -1  16  -1
M  END
>  <CHROM.1>
8.41871561,-58.13168797,62.91086755,-30.19491069,178.19268196,146.70469705
82.49650945,85.51481798,68.46629639,9.99025067,0.85277626,0.58848783,-0.39105162
0.55830234

>  <Name>
2au4_lig

>  <RI>
0

>  <Rbt.Current_Directory>
/home/itssahil/PROJECTS/Mol_Feturizer/New_Systems/rnas/2au4

>  <Rbt.Executable>
rbdock ($Id: //depot/dev/client3/rdock/2013.1/src/exe/rbdock.cxx#4 $)

>  <Rbt.Library>
libRbt.so (2013.1, Build901 2013/11/27)

>  <Rbt.Parameter_File>
/export/apps/rDock/src/rDock_2013.1_src/data/scripts/dock_solv.prm

>  <Rbt.Receptor>
prm/pocket_docking_6.prm

>  <SCORE>
-41.8136

>  <SCORE.INTER>
-17.1335

>  <SCORE.INTER.CONST>
1

>  <SCORE.INTER.POLAR>
-2.27907

>  <SCORE.INTER.ROT>
8

>  <SCORE.INTER.SOLV>
24.7246

>  <SCORE.INTER.VDW>
-21.0003

>  <SCORE.INTER.norm>
-0.53542

>  <SCORE.INTRA>
-24.6801

>  <SCORE.INTRA.DIHEDRAL>
-47.5283

>  <SCORE.INTRA.DIHEDRAL.0>
76.3625

>  <SCORE.INTRA.POLAR>
0

>  <SCORE.INTRA.POLAR.0>
0

>  <SCORE.INTRA.REPUL>
-0.109993

>  <SCORE.INTRA.REPUL.0>
0.12705

>  <SCORE.INTRA.SOLV>
-3.66141

>  <SCORE.INTRA.SOLV.lig_0>
-119.383

>  <SCORE.INTRA.VDW>
1.46469

>  <SCORE.INTRA.VDW.0>
-5.10464

>  <SCORE.INTRA.norm>
-0.771254

>  <SCORE.RESTR>
0

>  <SCORE.RESTR.CAVITY>
0

>  <SCORE.RESTR.norm>
0

>  <SCORE.SYSTEM>
0

>  <SCORE.SYSTEM.CONST>
0

>  <SCORE.SYSTEM.DIHEDRAL>
0

>  <SCORE.SYSTEM.SOLV>
0

>  <SCORE.SYSTEM.norm>
0

>  <SCORE.heavy>
32

>  <SCORE.norm>
-1.30667

>  <RMSD>
5.666

$$$$
2au4_lig
 OpenBabel11021811423D
libRbt.so/2013.1/901 2013/11/27
 32 34  0  0  0  0  0  0  0  0999 V2000
   72.1926   12.0290    3.0512 P   0  0  1  0  0  0  0  0  0  0  0  0
   72.6752   13.5380    0.8467 P   0  0  1  0  0  0  0  0  0  0  0  0
   74.6001   13.1750   -1.0516 P   0  0  2  0  0  0  0  0  0  0  0  0
   70.3892   10.2139    2.3558 C   0  0  0  0  0  0  0  0  0  0  0  0
   71.1176   10.8831    3.3986 O   0  0  0  0  0  0  0  0  0  0  0  0
   69.1726    9.4671    2.8829 C   0  0  0  0  0  0  0  0  0  0  0  0
   68.6618    8.5605    1.8842 O   0  0  0  0  0  0  0  0  0  0  0  0
   69.5310    8.6598    4.1208 C   0  0  0  0  0  0  0  0  0  0  0  0
   68.8164    9.1363    5.2675 O   0  0  0  0  0  0  0  0  0  0  0  0
   69.1728    7.2249    3.8155 C   0  0  0  0  0  0  0  0  0  0  0  0
   68.2181    6.7165    4.7569 O   0  0  0  0  0  0  0  0  0  0  0  0
   68.6004    7.2171    2.4086 C   0  0  0  0  0  0  0  0  0  0  0  0
   69.6349    5.7605   -2.3742 N   0  0  0  0  0  0  0  0  0  0  0  0
   71.9026   13.2145    3.8827 O   0  5  0  0  0  0  0  0  0  0  0  0
   71.9305   13.9968   -0.3419 O   0  5  0  0  0  0  0  0  0  0  0  0
   75.9904   12.6783   -1.0925 O   0  5  0  0  0  0  0  0  0  0  0  0
   68.8130    6.7678   -1.9275 C   0  0  1  0  0  0  0  0  0  0  0  0
   68.1857    7.4717   -2.8602 N   0  0  0  0  0  0  0  0  0  0  0  0
   73.5435   11.4281    3.0629 O   0  0  0  0  0  0  0  0  0  0  0  0
   73.0841   14.5067    1.8849 O   0  0  0  0  0  0  0  0  0  0  0  0
   74.3208   14.6095   -1.2711 O   0  0  0  0  0  0  0  0  0  0  0  0
   68.6237    7.0544   -0.6419 N   0  0  0  0  0  0  0  0  0  0  0  0
   71.8349   12.3891    1.5470 O   0  0  0  0  0  0  0  0  0  0  0  0
   73.9735   12.7654    0.3542 O   0  0  0  0  0  0  0  0  0  0  0  0
   73.7239   12.3199   -2.0917 O   0  0  0  0  0  0  0  0  0  0  0  0
   69.3332    6.2389    0.1719 C   0  0  2  0  0  0  0  0  0  0  0  0
   70.1808    5.2052   -0.1925 C   0  0  2  0  0  0  0  0  0  0  0  0
   70.3708    4.9131   -1.5654 C   0  0  1  0  0  0  0  0  0  0  0  0
   71.0550    4.0310   -2.0665 O   0  0  0  0  0  0  0  0  0  0  0  0
   70.7321    4.5915    0.9374 N   0  0  0  0  0  0  0  0  0  0  0  0
   70.1932    5.2785    1.8910 C   0  0  0  0  0  0  0  0  0  0  0  0
   69.3465    6.2804    1.5460 N   0  0  0  0  0  0  0  0  0  0  0  0
  1  5  1  1  0  0  0
  1 14  1  0  0  0  0
  1 19  2  0  0  0  0
  2 15  1  6  0  0  0
  2 20  2  0  0  0  0
  2 23  1  0  0  0  0
  3 16  1  6  0  0  0
  3 21  2  0  0  0  0
  3 24  1  0  0  0  0
  3 25  1  0  0  0  0
  4  6  1  0  0  0  0
  5  4  1  0  0  0  0
  6  7  1  0  0  0  0
  6  8  2  0  0  0  0
  7 12  1  0  0  0  0
  8  9  1  0  0  0  0
  8 10  1  0  0  0  0
 10 11  1  0  0  0  0
 10 12  2  0  0  0  0
 12 32  1  0  0  0  0
 13 17  1  0  0  0  0
 17 18  1  1  0  0  0
 17 22  1  0  0  0  0
 23  1  1  0  0  0  0
 24  2  1  0  0  0  0
 26 22  1  1  0  0  0
 27 26  1  0  0  0  0
 27 28  1  0  0  0  0
 27 30  1  1  0  0  0
 28 13  1  0  0  0  0
 28 29  1  1  0  0  0
 31 30  1  0  0  0  0
 32 26  1  0  0  0  0
 32 31  1  0  0  0  0
M  CHG  3  14  -1  15  -1  16  -1
M  END
>  <CHROM.1>
129.65657586,-162.39540318,161.50664565,-166.21177477,-163.95880955,-42.90739231
178.37485985,28.02708774,71.25061000,9.82616937,1.00974108,0.51887822,0.96271978
0.94520948

>  <Name>
2au4_lig

>  <RI>
0

>  <Rbt.Current_Directory>
/home/itssahil/PROJECTS/Mol_Feturizer/New_Systems/rnas/2au4

>  <Rbt.Executable>
rbdock ($Id: //depot/dev/client3/rdock/2013.1/src/exe/rbdock.cxx#4 $)

>  <Rbt.Library>
libRbt.so (2013.1, Build901 2013/11/27)

>  <Rbt.Parameter_File>
/export/apps/rDock/src/rDock_2013.1_src/data/scripts/dock_solv.prm

>  <Rbt.Receptor>
prm/blind_docking_80.prm

>  <SCORE>
-40.8496

>  <SCORE.INTER>
-19.9055

>  <SCORE.INTER.CONST>
1

>  <SCORE.INTER.POLAR>
-1.20425

>  <SCORE.INTER.ROT>
8

>  <SCORE.INTER.SOLV>
34.6324

>  <SCORE.INTER.VDW>
-29.7337

>  <SCORE.INTER.norm>
-0.622047

>  <SCORE.INTRA>
-21.2845

>  <SCORE.INTRA.DIHEDRAL>
-42.0663

>  <SCORE.INTRA.DIHEDRAL.0>
76.3625

>  <SCORE.INTRA.POLAR>
0

>  <SCORE.INTRA.POLAR.0>
0

>  <SCORE.INTRA.REPUL>
-0.00309668

>  <SCORE.INTRA.REPUL.0>
0.12705

>  <SCORE.INTRA.SOLV>
-6.58511

>  <SCORE.INTRA.SOLV.lig_0>
-119.383

>  <SCORE.INTRA.VDW>
3.05667

>  <SCORE.INTRA.VDW.0>
-5.10464

>  <SCORE.INTRA.norm>
-0.665142

>  <SCORE.RESTR>
0.340451

>  <SCORE.RESTR.CAVITY>
0.340451

>  <SCORE.RESTR.norm>
0.0106391

>  <SCORE.SYSTEM>
0

>  <SCORE.SYSTEM.CONST>
0

>  <SCORE.SYSTEM.DIHEDRAL>
0

>  <SCORE.SYSTEM.SOLV>
0

>  <SCORE.SYSTEM.norm>
0

>  <SCORE.heavy>
32

>  <SCORE.norm>
-1.27655

>  <RMSD>
5.670

$$$$
2au4_lig
 OpenBabel11021811423D
libRbt.so/2013.1/901 2013/11/27
 32 34  0  0  0  0  0  0  0  0999 V2000
   70.1946    9.8067    4.3038 P   0  0  1  0  0  0  0  0  0  0  0  0
   72.4578   11.3026    4.2059 P   0  0  1  0  0  0  0  0  0  0  0  0
   71.7532   12.3001    1.7668 P   0  0  2  0  0  0  0  0  0  0  0  0
   68.2767    8.1684    3.4863 C   0  0  0  0  0  0  0  0  0  0  0  0
   69.6096    8.6787    3.3164 O   0  0  0  0  0  0  0  0  0  0  0  0
   67.9459    7.0633    2.4939 C   0  0  0  0  0  0  0  0  0  0  0  0
   67.0636    7.5537    1.4638 O   0  0  0  0  0  0  0  0  0  0  0  0
   69.2098    6.5402    1.8296 C   0  0  0  0  0  0  0  0  0  0  0  0
   69.4310    5.1641    2.1617 O   0  0  0  0  0  0  0  0  0  0  0  0
   69.0165    6.7153    0.3422 C   0  0  0  0  0  0  0  0  0  0  0  0
   69.1118    5.4604   -0.3451 O   0  0  0  0  0  0  0  0  0  0  0  0
   67.6385    7.3276    0.1593 C   0  0  0  0  0  0  0  0  0  0  0  0
   65.7585   12.0295   -0.4921 N   0  0  0  0  0  0  0  0  0  0  0  0
   69.4662   11.0682    4.0616 O   0  5  0  0  0  0  0  0  0  0  0  0
   72.1829   11.5523    5.6343 O   0  5  0  0  0  0  0  0  0  0  0  0
   70.8818   11.1675    1.3937 O   0  5  0  0  0  0  0  0  0  0  0  0
   65.3840   11.0566    0.4039 C   0  0  1  0  0  0  0  0  0  0  0  0
   64.3880   11.3646    1.2239 N   0  0  0  0  0  0  0  0  0  0  0  0
   70.2706    9.2452    5.6695 O   0  0  0  0  0  0  0  0  0  0  0  0
   73.8515   11.1896    3.7280 O   0  0  0  0  0  0  0  0  0  0  0  0
   73.1639   12.3236    1.3273 O   0  0  0  0  0  0  0  0  0  0  0  0
   65.9568    9.8578    0.4785 N   0  0  0  0  0  0  0  0  0  0  0  0
   71.6790    9.9907    3.7716 O   0  0  0  0  0  0  0  0  0  0  0  0
   71.7342   12.4321    3.3540 O   0  0  0  0  0  0  0  0  0  0  0  0
   71.0479   13.6625    1.2905 O   0  0  0  0  0  0  0  0  0  0  0  0
   66.9483    9.7094   -0.4300 C   0  0  2  0  0  0  0  0  0  0  0  0
   67.3882   10.6332   -1.3642 C   0  0  2  0  0  0  0  0  0  0  0  0
   66.7672   11.9045   -1.4305 C   0  0  1  0  0  0  0  0  0  0  0  0
   67.0047   12.8266   -2.1992 O   0  0  0  0  0  0  0  0  0  0  0  0
   68.4357   10.1083   -2.1287 N   0  0  0  0  0  0  0  0  0  0  0  0
   68.5581    8.9264   -1.6187 C   0  0  0  0  0  0  0  0  0  0  0  0
   67.7237    8.5876   -0.6045 N   0  0  0  0  0  0  0  0  0  0  0  0
  1  5  1  6  0  0  0
  1 14  1  0  0  0  0
  1 19  2  0  0  0  0
  2 15  1  1  0  0  0
  2 20  2  0  0  0  0
  2 23  1  0  0  0  0
  3 16  1  6  0  0  0
  3 21  2  0  0  0  0
  3 24  1  0  0  0  0
  3 25  1  0  0  0  0
  4  6  1  0  0  0  0
  5  4  1  0  0  0  0
  6  7  1  0  0  0  0
  6  8  2  0  0  0  0
  7 12  1  0  0  0  0
  8  9  1  0  0  0  0
  8 10  1  0  0  0  0
 10 11  1  0  0  0  0
 10 12  2  0  0  0  0
 12 32  1  0  0  0  0
 13 17  1  0  0  0  0
 17 18  1  6  0  0  0
 17 22  1  0  0  0  0
 23  1  1  0  0  0  0
 24  2  1  0  0  0  0
 26 22  1  6  0  0  0
 27 26  1  0  0  0  0
 27 28  1  0  0  0  0
 27 30  1  6  0  0  0
 28 13  1  0  0  0  0
 28 29  1  6  0  0  0
 31 30  1  0  0  0  0
 32 26  1  0  0  0  0
 32 31  1  0  0  0  0
M  CHG  3  14  -1  15  -1  16  -1
M  END
>  <CHROM.1>
-68.46837277,42.13137906,70.10127903,-105.25992153,-177.15510372,-24.55575713
162.71971107,-173.78581788,69.41246718,10.04622401,1.74412213,-0.01589638
0.73766325,2.76626791

>  <Name>
2au4_lig

>  <RI>
0

>  <Rbt.Current_Directory>
/home/itssahil/PROJECTS/Mol_Feturizer/New_Systems/rnas/2au4

>  <Rbt.Executable>
rbdock ($Id: //depot/dev/client3/rdock/2013.1/src/exe/rbdock.cxx#4 $)

>  <Rbt.Library>
libRbt.so (2013.1, Build901 2013/11/27)

>  <Rbt.Parameter_File>
/export/apps/rDock/src/rDock_2013.1_src/data/scripts/dock_solv.prm

>  <Rbt.Receptor>
prm/pocket_docking_6.prm

>  <SCORE>
-41.0617

>  <SCORE.INTER>
-16.2929

>  <SCORE.INTER.CONST>
1

>  <SCORE.INTER.POLAR>
-1.67572

>  <SCORE.INTER.ROT>
8

>  <SCORE.INTER.SOLV>
19.8422

>  <SCORE.INTER.VDW>
-20.8236

>  <SCORE.INTER.norm>
-0.509154

>  <SCORE.INTRA>
-24.7688

>  <SCORE.INTRA.DIHEDRAL>
-50.1592

>  <SCORE.INTRA.DIHEDRAL.0>
76.3625

>  <SCORE.INTRA.POLAR>
0

>  <SCORE.INTRA.POLAR.0>
0

>  <SCORE.INTRA.REPUL>
0.0716277

>  <SCORE.INTRA.REPUL.0>
0.12705

>  <SCORE.INTRA.SOLV>
-1.43164

>  <SCORE.INTRA.SOLV.lig_0>
-119.383

>  <SCORE.INTRA.VDW>
0.668527

>  <SCORE.INTRA.VDW.0>
-5.10464

>  <SCORE.INTRA.norm>
-0.774024

>  <SCORE.RESTR>
0

>  <SCORE.RESTR.CAVITY>
0

>  <SCORE.RESTR.norm>
0

>  <SCORE.SYSTEM>
0

>  <SCORE.SYSTEM.CONST>
0

>  <SCORE.SYSTEM.DIHEDRAL>
0

>  <SCORE.SYSTEM.SOLV>
0

>  <SCORE.SYSTEM.norm>
0

>  <SCORE.heavy>
32

>  <SCORE.norm>
-1.28318

>  <RMSD>
5.677

$$$$
2au4_lig
 OpenBabel11021811423D
libRbt.so/2013.1/901 2013/11/27
 32 34  0  0  0  0  0  0  0  0999 V2000
   70.5114   10.4477    1.4199 P   0  0  1  0  0  0  0  0  0  0  0  0
   71.5343   10.6301    3.9279 P   0  0  1  0  0  0  0  0  0  0  0  0
   71.8890   13.2903    4.4163 P   0  0  2  0  0  0  0  0  0  0  0  0
   69.4904    8.3445    0.1691 C   0  0  0  0  0  0  0  0  0  0  0  0
   70.1457    8.8833    1.3293 O   0  0  0  0  0  0  0  0  0  0  0  0
   69.0710    6.8941    0.3587 C   0  0  0  0  0  0  0  0  0  0  0  0
   67.6581    6.8064    0.6352 O   0  0  0  0  0  0  0  0  0  0  0  0
   69.3630    6.0812   -0.8929 C   0  0  0  0  0  0  0  0  0  0  0  0
   70.3362    5.0637   -0.6271 O   0  0  0  0  0  0  0  0  0  0  0  0
   68.0495    5.4759   -1.3273 C   0  0  0  0  0  0  0  0  0  0  0  0
   68.1249    4.0445   -1.3656 O   0  0  0  0  0  0  0  0  0  0  0  0
   67.0123    5.9350   -0.3171 C   0  0  0  0  0  0  0  0  0  0  0  0
   63.8391    9.9341   -0.2509 N   0  0  0  0  0  0  0  0  0  0  0  0
   70.9445   10.9081    0.0853 O   0  5  0  0  0  0  0  0  0  0  0  0
   70.4969    9.6678    4.3472 O   0  5  0  0  0  0  0  0  0  0  0  0
   71.0832   14.5262    4.4822 O   0  5  0  0  0  0  0  0  0  0  0  0
   64.8378    9.5982    0.6320 C   0  0  1  0  0  0  0  0  0  0  0  0
   65.0147   10.4184    1.6591 N   0  0  0  0  0  0  0  0  0  0  0  0
   69.4177   11.1480    2.1266 O   0  0  0  0  0  0  0  0  0  0  0  0
   72.8481   10.6455    4.6041 O   0  0  0  0  0  0  0  0  0  0  0  0
   73.0771   13.2281    3.5396 O   0  0  0  0  0  0  0  0  0  0  0  0
   65.6063    8.5193    0.5057 N   0  0  0  0  0  0  0  0  0  0  0  0
   71.7820   10.4475    2.3717 O   0  0  0  0  0  0  0  0  0  0  0  0
   70.9198   12.0933    4.0106 O   0  0  0  0  0  0  0  0  0  0  0  0
   72.3348   12.8939    5.9079 O   0  0  0  0  0  0  0  0  0  0  0  0
   65.2890    7.7930   -0.5908 C   0  0  2  0  0  0  0  0  0  0  0  0
   64.3034    8.0581   -1.5279 C   0  0  2  0  0  0  0  0  0  0  0  0
   63.4939    9.2107   -1.3783 C   0  0  1  0  0  0  0  0  0  0  0  0
   62.5696    9.5867   -2.0867 O   0  0  0  0  0  0  0  0  0  0  0  0
   64.2806    7.0714   -2.5194 N   0  0  0  0  0  0  0  0  0  0  0  0
   65.2328    6.2901   -2.1256 C   0  0  0  0  0  0  0  0  0  0  0  0
   65.8963    6.6265   -0.9915 N   0  0  0  0  0  0  0  0  0  0  0  0
  1  5  1  6  0  0  0
  1 14  1  0  0  0  0
  1 19  2  0  0  0  0
  2 15  1  1  0  0  0
  2 20  2  0  0  0  0
  2 23  1  0  0  0  0
  3 16  1  6  0  0  0
  3 21  2  0  0  0  0
  3 24  1  0  0  0  0
  3 25  1  0  0  0  0
  4  6  1  0  0  0  0
  5  4  1  0  0  0  0
  6  7  1  0  0  0  0
  6  8  2  0  0  0  0
  7 12  1  0  0  0  0
  8  9  1  0  0  0  0
  8 10  1  0  0  0  0
 10 11  1  0  0  0  0
 10 12  2  0  0  0  0
 12 32  1  0  0  0  0
 13 17  1  0  0  0  0
 17 18  1  1  0  0  0
 17 22  1  0  0  0  0
 23  1  1  0  0  0  0
 24  2  1  0  0  0  0
 26 22  1  1  0  0  0
 27 26  1  0  0  0  0
 27 28  1  0  0  0  0
 27 30  1  1  0  0  0
 28 13  1  0  0  0  0
 28 29  1  1  0  0  0
 31 30  1  0  0  0  0
 32 26  1  0  0  0  0
 32 31  1  0  0  0  0
M  CHG  3  14  -1  15  -1  16  -1
M  END
>  <CHROM.1>
-37.79175160,50.33000413,-177.56537094,102.02355981,-172.41144817,-15.72015758
-92.11226560,146.38247790,68.74767674,9.41372690,1.27913499,-0.78626259,0.34704129
-2.65042379

>  <Name>
2au4_lig

>  <RI>
0

>  <Rbt.Current_Directory>
/home/itssahil/PROJECTS/Mol_Feturizer/New_Systems/rnas/2au4

>  <Rbt.Executable>
rbdock ($Id: //depot/dev/client3/rdock/2013.1/src/exe/rbdock.cxx#4 $)

>  <Rbt.Library>
libRbt.so (2013.1, Build901 2013/11/27)

>  <Rbt.Parameter_File>
/export/apps/rDock/src/rDock_2013.1_src/data/scripts/dock_solv.prm

>  <Rbt.Receptor>
prm/pocket_docking_7.prm

>  <SCORE>
-46.9108

>  <SCORE.INTER>
-24.57

>  <SCORE.INTER.CONST>
1

>  <SCORE.INTER.POLAR>
-3.02289

>  <SCORE.INTER.ROT>
8

>  <SCORE.INTER.SOLV>
25.9529

>  <SCORE.INTER.VDW>
-23.888

>  <SCORE.INTER.norm>
-0.767814

>  <SCORE.INTRA>
-22.3408

>  <SCORE.INTRA.DIHEDRAL>
-44.0565

>  <SCORE.INTRA.DIHEDRAL.0>
76.3625

>  <SCORE.INTRA.POLAR>
0

>  <SCORE.INTRA.POLAR.0>
0

>  <SCORE.INTRA.REPUL>
0.0429837

>  <SCORE.INTRA.REPUL.0>
0.12705

>  <SCORE.INTRA.SOLV>
-5.69731

>  <SCORE.INTRA.SOLV.lig_0>
-119.383

>  <SCORE.INTRA.VDW>
2.32119

>  <SCORE.INTRA.VDW.0>
-5.10464

>  <SCORE.INTRA.norm>
-0.698149

>  <SCORE.RESTR>
0

>  <SCORE.RESTR.CAVITY>
0

>  <SCORE.RESTR.norm>
0

>  <SCORE.SYSTEM>
0

>  <SCORE.SYSTEM.CONST>
0

>  <SCORE.SYSTEM.DIHEDRAL>
0

>  <SCORE.SYSTEM.SOLV>
0

>  <SCORE.SYSTEM.norm>
0

>  <SCORE.heavy>
32

>  <SCORE.norm>
-1.46596

>  <RMSD>
5.677

$$$$
2au4_lig
 OpenBabel11021811423D
libRbt.so/2013.1/901 2013/11/27
 32 34  0  0  0  0  0  0  0  0999 V2000
   71.1283   11.7928    4.7548 P   0  0  1  0  0  0  0  0  0  0  0  0
   73.0599   11.9087    2.8508 P   0  0  1  0  0  0  0  0  0  0  0  0
   72.8416   13.3582    0.5503 P   0  0  2  0  0  0  0  0  0  0  0  0
   68.9952   10.4977    3.8587 C   0  0  0  0  0  0  0  0  0  0  0  0
   69.8959   10.7754    4.9437 O   0  0  0  0  0  0  0  0  0  0  0  0
   68.1741    9.2379    4.0920 C   0  0  0  0  0  0  0  0  0  0  0  0
   67.2136    9.0546    3.0318 O   0  0  0  0  0  0  0  0  0  0  0  0
   69.0717    8.0113    4.1392 C   0  0  0  0  0  0  0  0  0  0  0  0
   69.0261    7.3928    5.4308 O   0  0  0  0  0  0  0  0  0  0  0  0
   68.5700    7.0713    3.0692 C   0  0  0  0  0  0  0  0  0  0  0  0
   68.1871    5.8069    3.6266 O   0  0  0  0  0  0  0  0  0  0  0  0
   67.3803    7.7577    2.4205 C   0  0  0  0  0  0  0  0  0  0  0  0
   69.8359    5.9937   -1.6934 N   0  0  0  0  0  0  0  0  0  0  0  0
   70.6253   13.0298    4.1243 O   0  5  0  0  0  0  0  0  0  0  0  0
   73.3912   13.1165    3.6315 O   0  5  0  0  0  0  0  0  0  0  0  0
   71.7564   13.9144   -0.2828 O   0  5  0  0  0  0  0  0  0  0  0  0
   69.9223    5.5847   -0.3839 C   0  0  1  0  0  0  0  0  0  0  0  0
   70.7642    4.5912   -0.1327 N   0  0  0  0  0  0  0  0  0  0  0  0
   71.8823   11.8619    6.0248 O   0  0  0  0  0  0  0  0  0  0  0  0
   74.1365   11.0169    2.3721 O   0  0  0  0  0  0  0  0  0  0  0  0
   73.9859   12.6736   -0.0867 O   0  0  0  0  0  0  0  0  0  0  0  0
   69.2231    6.1278    0.6096 N   0  0  0  0  0  0  0  0  0  0  0  0
   72.0353   11.0381    3.6926 O   0  0  0  0  0  0  0  0  0  0  0  0
   72.1898   12.3491    1.5961 O   0  0  0  0  0  0  0  0  0  0  0  0
   73.4084   14.5280    1.4942 O   0  0  0  0  0  0  0  0  0  0  0  0
   68.4198    7.1281    0.1800 C   0  0  2  0  0  0  0  0  0  0  0  0
   68.2720    7.6013   -1.1138 C   0  0  2  0  0  0  0  0  0  0  0  0
   69.0242    7.0123   -2.1595 C   0  0  1  0  0  0  0  0  0  0  0  0
   69.0410    7.3132   -3.3456 O   0  0  0  0  0  0  0  0  0  0  0  0
   67.3461    8.6491   -1.1582 N   0  0  0  0  0  0  0  0  0  0  0  0
   67.0021    8.7401    0.0849 C   0  0  0  0  0  0  0  0  0  0  0  0
   67.5802    7.8838    0.9637 N   0  0  0  0  0  0  0  0  0  0  0  0
  1  5  1  1  0  0  0
  1 14  1  0  0  0  0
  1 19  2  0  0  0  0
  2 15  1  1  0  0  0
  2 20  2  0  0  0  0
  2 23  1  0  0  0  0
  3 16  1  6  0  0  0
  3 21  2  0  0  0  0
  3 24  1  0  0  0  0
  3 25  1  0  0  0  0
  4  6  1  0  0  0  0
  5  4  1  0  0  0  0
  6  7  1  0  0  0  0
  6  8  2  0  0  0  0
  7 12  1  0  0  0  0
  8  9  1  0  0  0  0
  8 10  1  0  0  0  0
 10 11  1  0  0  0  0
 10 12  2  0  0  0  0
 12 32  1  0  0  0  0
 13 17  1  0  0  0  0
 17 18  1  1  0  0  0
 17 22  1  0  0  0  0
 23  1  1  0  0  0  0
 24  2  1  0  0  0  0
 26 22  1  1  0  0  0
 27 26  1  0  0  0  0
 27 28  1  0  0  0  0
 27 30  1  1  0  0  0
 28 13  1  0  0  0  0
 28 29  1  1  0  0  0
 31 30  1  0  0  0  0
 32 26  1  0  0  0  0
 32 31  1  0  0  0  0
M  CHG  3  14  -1  15  -1  16  -1
M  END
>  <CHROM.1>
48.62043576,25.46130053,-164.01072641,175.54554356,163.00812133,142.30750573
158.29876176,60.67444434,70.42307862,9.87398757,1.91748603,0.54573425,0.89686145
1.29952443

>  <Name>
2au4_lig

>  <RI>
0

>  <Rbt.Current_Directory>
/home/itssahil/PROJECTS/Mol_Feturizer/New_Systems/rnas/2au4

>  <Rbt.Executable>
rbdock ($Id: //depot/dev/client3/rdock/2013.1/src/exe/rbdock.cxx#4 $)

>  <Rbt.Library>
libRbt.so (2013.1, Build901 2013/11/27)

>  <Rbt.Parameter_File>
/export/apps/rDock/src/rDock_2013.1_src/data/scripts/dock_solv.prm

>  <Rbt.Receptor>
prm/pocket_docking_8.prm

>  <SCORE>
-49.0118

>  <SCORE.INTER>
-23.9758

>  <SCORE.INTER.CONST>
1

>  <SCORE.INTER.POLAR>
-2.94604

>  <SCORE.INTER.ROT>
8

>  <SCORE.INTER.SOLV>
27.4095

>  <SCORE.INTER.VDW>
-24.2336

>  <SCORE.INTER.norm>
-0.749243

>  <SCORE.INTRA>
-25.036

>  <SCORE.INTRA.DIHEDRAL>
-46.5991

>  <SCORE.INTRA.DIHEDRAL.0>
76.3625

>  <SCORE.INTRA.POLAR>
0

>  <SCORE.INTRA.POLAR.0>
0

>  <SCORE.INTRA.REPUL>
-0.12705

>  <SCORE.INTRA.REPUL.0>
0.12705

>  <SCORE.INTRA.SOLV>
-6.15434

>  <SCORE.INTRA.SOLV.lig_0>
-119.383

>  <SCORE.INTRA.VDW>
1.97598

>  <SCORE.INTRA.VDW.0>
-5.10464

>  <SCORE.INTRA.norm>
-0.782375

>  <SCORE.RESTR>
0

>  <SCORE.RESTR.CAVITY>
0

>  <SCORE.RESTR.norm>
0

>  <SCORE.SYSTEM>
0

>  <SCORE.SYSTEM.CONST>
0

>  <SCORE.SYSTEM.DIHEDRAL>
0

>  <SCORE.SYSTEM.SOLV>
0

>  <SCORE.SYSTEM.norm>
0

>  <SCORE.heavy>
32

>  <SCORE.norm>
-1.53162

>  <RMSD>
5.724

$$$$
2au4_lig
 OpenBabel11021811423D
libRbt.so/2013.1/901 2013/11/27
 32 34  0  0  0  0  0  0  0  0999 V2000
   69.8472   12.5486    0.2380 P   0  0  1  0  0  0  0  0  0  0  0  0
   71.7552   13.1641    2.0684 P   0  0  1  0  0  0  0  0  0  0  0  0
   72.0189   11.6625    4.3303 P   0  0  2  0  0  0  0  0  0  0  0  0
   68.1956   10.9850   -1.1250 C   0  0  0  0  0  0  0  0  0  0  0  0
   69.0460   11.1704    0.0187 O   0  0  0  0  0  0  0  0  0  0  0  0
   66.8640   10.3442   -0.7623 C   0  0  0  0  0  0  0  0  0  0  0  0
   67.0658    9.0140   -0.2425 O   0  0  0  0  0  0  0  0  0  0  0  0
   66.1420   11.1645    0.2952 C   0  0  0  0  0  0  0  0  0  0  0  0
   64.9106   11.6892   -0.2162 O   0  0  0  0  0  0  0  0  0  0  0  0
   65.8944   10.2380    1.4616 C   0  0  0  0  0  0  0  0  0  0  0  0
   64.4945   10.1333    1.7536 O   0  0  0  0  0  0  0  0  0  0  0  0
   66.4654    8.8879    1.0640 C   0  0  0  0  0  0  0  0  0  0  0  0
   68.1907    9.3137    5.8502 N   0  0  0  0  0  0  0  0  0  0  0  0
   70.9889   12.5835   -0.6980 O   0  5  0  0  0  0  0  0  0  0  0  0
   72.9028   12.3964    1.5472 O   0  5  0  0  0  0  0  0  0  0  0  0
   73.3543   11.1815    3.9220 O   0  5  0  0  0  0  0  0  0  0  0  0
   67.1521    9.9717    5.2355 C   0  0  1  0  0  0  0  0  0  0  0  0
   66.4932   10.8523    5.9769 N   0  0  0  0  0  0  0  0  0  0  0  0
   68.8742   13.6616    0.2620 O   0  0  0  0  0  0  0  0  0  0  0  0
   71.5727   14.5788    1.6823 O   0  0  0  0  0  0  0  0  0  0  0  0
   70.8233   10.8335    4.0708 O   0  0  0  0  0  0  0  0  0  0  0  0
   66.7940    9.7718    3.9696 N   0  0  0  0  0  0  0  0  0  0  0  0
   70.4256   12.3781    1.7066 O   0  0  0  0  0  0  0  0  0  0  0  0
   71.7820   13.0855    3.6553 O   0  0  0  0  0  0  0  0  0  0  0  0
   72.0633   12.0172    5.8965 O   0  0  0  0  0  0  0  0  0  0  0  0
   67.5715    8.8475    3.3600 C   0  0  2  0  0  0  0  0  0  0  0  0
   68.6324    8.1403    3.9023 C   0  0  2  0  0  0  0  0  0  0  0  0
   69.0007    8.3655    5.2514 C   0  0  1  0  0  0  0  0  0  0  0  0
   69.9160    7.8560    5.8839 O   0  0  0  0  0  0  0  0  0  0  0  0
   69.1897    7.2742    2.9555 N   0  0  0  0  0  0  0  0  0  0  0  0
   68.4461    7.5093    1.9241 C   0  0  0  0  0  0  0  0  0  0  0  0
   67.4556    8.4264    2.0564 N   0  0  0  0  0  0  0  0  0  0  0  0
  1  5  1  6  0  0  0
  1 14  1  0  0  0  0
  1 19  2  0  0  0  0
  2 15  1  6  0  0  0
  2 20  2  0  0  0  0
  2 23  1  0  0  0  0
  3 16  1  6  0  0  0
  3 21  2  0  0  0  0
  3 24  1  0  0  0  0
  3 25  1  0  0  0  0
  4  6  1  0  0  0  0
  5  4  1  0  0  0  0
  6  7  1  0  0  0  0
  6  8  2  0  0  0  0
  7 12  1  0  0  0  0
  8  9  1  0  0  0  0
  8 10  1  0  0  0  0
 10 11  1  0  0  0  0
 10 12  2  0  0  0  0
 12 32  1  0  0  0  0
 13 17  1  0  0  0  0
 17 18  1  6  0  0  0
 17 22  1  0  0  0  0
 23  1  1  0  0  0  0
 24  2  1  0  0  0  0
 26 22  1  6  0  0  0
 27 26  1  0  0  0  0
 27 28  1  0  0  0  0
 27 30  1  6  0  0  0
 28 13  1  0  0  0  0
 28 29  1  6  0  0  0
 31 30  1  0  0  0  0
 32 26  1  0  0  0  0
 32 31  1  0  0  0  0
M  CHG  3  14  -1  15  -1  16  -1
M  END
>  <CHROM.1>
-75.20630066,-80.92786255,62.36241598,-63.55597686,-135.71264215,141.14781765
153.27148171,-46.37918176,69.21367711,10.88180910,2.39146463,0.08989856,-0.52339344
-1.01612901

>  <Name>
2au4_lig

>  <RI>
0

>  <Rbt.Current_Directory>
/home/itssahil/PROJECTS/Mol_Feturizer/New_Systems/rnas/2au4

>  <Rbt.Executable>
rbdock ($Id: //depot/dev/client3/rdock/2013.1/src/exe/rbdock.cxx#4 $)

>  <Rbt.Library>
libRbt.so (2013.1, Build901 2013/11/27)

>  <Rbt.Parameter_File>
/export/apps/rDock/src/rDock_2013.1_src/data/scripts/dock_solv.prm

>  <Rbt.Receptor>
prm/pocket_docking_8.prm

>  <SCORE>
-33.2897

>  <SCORE.INTER>
-11.0681

>  <SCORE.INTER.CONST>
1

>  <SCORE.INTER.POLAR>
-1.33652

>  <SCORE.INTER.ROT>
8

>  <SCORE.INTER.SOLV>
22.5125

>  <SCORE.INTER.VDW>
-19.3611

>  <SCORE.INTER.norm>
-0.345877

>  <SCORE.INTRA>
-22.2216

>  <SCORE.INTRA.DIHEDRAL>
-42.0527

>  <SCORE.INTRA.DIHEDRAL.0>
76.3625

>  <SCORE.INTRA.POLAR>
0

>  <SCORE.INTRA.POLAR.0>
0

>  <SCORE.INTRA.REPUL>
-0.12705

>  <SCORE.INTRA.REPUL.0>
0.12705

>  <SCORE.INTRA.SOLV>
-0.981875

>  <SCORE.INTRA.SOLV.lig_0>
-119.383

>  <SCORE.INTRA.VDW>
-0.0690834

>  <SCORE.INTRA.VDW.0>
-5.10464

>  <SCORE.INTRA.norm>
-0.694426

>  <SCORE.RESTR>
0

>  <SCORE.RESTR.CAVITY>
0

>  <SCORE.RESTR.norm>
0

>  <SCORE.SYSTEM>
0

>  <SCORE.SYSTEM.CONST>
0

>  <SCORE.SYSTEM.DIHEDRAL>
0

>  <SCORE.SYSTEM.SOLV>
0

>  <SCORE.SYSTEM.norm>
0

>  <SCORE.heavy>
32

>  <SCORE.norm>
-1.0403

>  <RMSD>
5.730

$$$$
2au4_lig
 OpenBabel11021811423D
libRbt.so/2013.1/901 2013/11/27
 32 34  0  0  0  0  0  0  0  0999 V2000
   68.4373   11.8089   -1.1220 P   0  0  1  0  0  0  0  0  0  0  0  0
   70.0667   11.8500    1.0489 P   0  0  1  0  0  0  0  0  0  0  0  0
   71.4811   11.0884    3.2535 P   0  0  2  0  0  0  0  0  0  0  0  0
   65.7897   11.7887   -0.9809 C   0  0  0  0  0  0  0  0  0  0  0  0
   67.0481   11.2914   -0.4963 O   0  0  0  0  0  0  0  0  0  0  0  0
   64.6168   11.3398   -0.1216 C   0  0  0  0  0  0  0  0  0  0  0  0
   64.7801    9.9647    0.2817 O   0  0  0  0  0  0  0  0  0  0  0  0
   64.5094   12.1944    1.1317 C   0  0  0  0  0  0  0  0  0  0  0  0
   63.2821   12.9337    1.1437 O   0  0  0  0  0  0  0  0  0  0  0  0
   64.5837   11.2465    2.3048 C   0  0  0  0  0  0  0  0  0  0  0  0
   63.4106   11.3412    3.1240 O   0  0  0  0  0  0  0  0  0  0  0  0
   64.7221    9.8517    1.7194 C   0  0  0  0  0  0  0  0  0  0  0  0
   68.3230    6.3303    0.8831 N   0  0  0  0  0  0  0  0  0  0  0  0
   68.5603   11.2818   -2.4960 O   0  5  0  0  0  0  0  0  0  0  0  0
   71.0797   12.8207    0.5911 O   0  5  0  0  0  0  0  0  0  0  0  0
   70.4160   11.5630    4.1599 O   0  5  0  0  0  0  0  0  0  0  0  0
   67.2657    6.7028    0.0876 C   0  0  1  0  0  0  0  0  0  0  0  0
   67.1447    6.0621   -1.0674 N   0  0  0  0  0  0  0  0  0  0  0  0
   68.5556   13.2615   -0.8723 O   0  0  0  0  0  0  0  0  0  0  0  0
   68.9103   12.3063    1.8477 O   0  0  0  0  0  0  0  0  0  0  0  0
   72.6474   11.9500    2.9681 O   0  0  0  0  0  0  0  0  0  0  0  0
   66.3858    7.6449    0.4178 N   0  0  0  0  0  0  0  0  0  0  0  0
   69.5150   11.0721   -0.2187 O   0  0  0  0  0  0  0  0  0  0  0  0
   70.8069   10.7033    1.8628 O   0  0  0  0  0  0  0  0  0  0  0  0
   72.0134    9.6718    3.7924 O   0  0  0  0  0  0  0  0  0  0  0  0
   66.6534    8.1909    1.6264 C   0  0  2  0  0  0  0  0  0  0  0  0
   67.6919    7.8768    2.4882 C   0  0  2  0  0  0  0  0  0  0  0  0
   68.6195    6.8711    2.1213 C   0  0  1  0  0  0  0  0  0  0  0  0
   69.5742    6.4492    2.7600 O   0  0  0  0  0  0  0  0  0  0  0  0
   67.6326    8.6598    3.6460 N   0  0  0  0  0  0  0  0  0  0  0  0
   66.5843    9.3805    3.4146 C   0  0  0  0  0  0  0  0  0  0  0  0
   65.9281    9.1820    2.2443 N   0  0  0  0  0  0  0  0  0  0  0  0
  1  5  1  1  0  0  0
  1 14  1  0  0  0  0
  1 19  2  0  0  0  0
  2 15  1  6  0  0  0
  2 20  2  0  0  0  0
  2 23  1  0  0  0  0
  3 16  1  1  0  0  0
  3 21  2  0  0  0  0
  3 24  1  0  0  0  0
  3 25  1  0  0  0  0
  4  6  1  0  0  0  0
  5  4  1  0  0  0  0
  6  7  1  0  0  0  0
  6  8  2  0  0  0  0
  7 12  1  0  0  0  0
  8  9  1  0  0  0  0
  8 10  1  0  0  0  0
 10 11  1  0  0  0  0
 10 12  2  0  0  0  0
 12 32  1  0  0  0  0
 13 17  1  0  0  0  0
 17 18  1  1  0  0  0
 17 22  1  0  0  0  0
 23  1  1  0  0  0  0
 24  2  1  0  0  0  0
 26 22  1  1  0  0  0
 27 26  1  0  0  0  0
 27 28  1  0  0  0  0
 27 30  1  1  0  0  0
 28 13  1  0  0  0  0
 28 29  1  1  0  0  0
 31 30  1  0  0  0  0
 32 26  1  0  0  0  0
 32 31  1  0  0  0  0
M  CHG  3  14  -1  15  -1  16  -1
M  END
>  <CHROM.1>
-69.78169175,-78.96917579,61.68353988,-40.48647555,-171.20189744,-33.23601335
-93.14039267,67.09392002,68.04247445,10.34986026,1.27420670,3.12301136,0.26774873
2.79494312

>  <Name>
2au4_lig

>  <RI>
0

>  <Rbt.Current_Directory>
/home/itssahil/PROJECTS/Mol_Feturizer/New_Systems/rnas/2au4

>  <Rbt.Executable>
rbdock ($Id: //depot/dev/client3/rdock/2013.1/src/exe/rbdock.cxx#4 $)

>  <Rbt.Library>
libRbt.so (2013.1, Build901 2013/11/27)

>  <Rbt.Parameter_File>
/export/apps/rDock/src/rDock_2013.1_src/data/scripts/dock_solv.prm

>  <Rbt.Receptor>
prm/pocket_docking_6.prm

>  <SCORE>
-32.6133

>  <SCORE.INTER>
-6.24369

>  <SCORE.INTER.CONST>
1

>  <SCORE.INTER.POLAR>
-0.593091

>  <SCORE.INTER.ROT>
8

>  <SCORE.INTER.SOLV>
18.5079

>  <SCORE.INTER.VDW>
-17.2881

>  <SCORE.INTER.norm>
-0.195115

>  <SCORE.INTRA>
-26.3697

>  <SCORE.INTRA.DIHEDRAL>
-48.7695

>  <SCORE.INTRA.DIHEDRAL.0>
76.3625

>  <SCORE.INTRA.POLAR>
0

>  <SCORE.INTRA.POLAR.0>
0

>  <SCORE.INTRA.REPUL>
0.0520129

>  <SCORE.INTRA.REPUL.0>
0.12705

>  <SCORE.INTRA.SOLV>
-3.8402

>  <SCORE.INTRA.SOLV.lig_0>
-119.383

>  <SCORE.INTRA.VDW>
-0.324867

>  <SCORE.INTRA.VDW.0>
-5.10464

>  <SCORE.INTRA.norm>
-0.824052

>  <SCORE.RESTR>
0

>  <SCORE.RESTR.CAVITY>
0

>  <SCORE.RESTR.norm>
0

>  <SCORE.SYSTEM>
0

>  <SCORE.SYSTEM.CONST>
0

>  <SCORE.SYSTEM.DIHEDRAL>
0

>  <SCORE.SYSTEM.SOLV>
0

>  <SCORE.SYSTEM.norm>
0

>  <SCORE.heavy>
32

>  <SCORE.norm>
-1.01917

>  <RMSD>
5.732

$$$$
2au4_lig
 OpenBabel11021811423D
libRbt.so/2013.1/901 2013/11/27
 32 34  0  0  0  0  0  0  0  0999 V2000
   70.4409    9.9465    3.7516 P   0  0  1  0  0  0  0  0  0  0  0  0
   72.5773   11.4971    3.1185 P   0  0  1  0  0  0  0  0  0  0  0  0
   72.2579   13.5276    1.3253 P   0  0  2  0  0  0  0  0  0  0  0  0
   68.8902    7.7962    3.7099 C   0  0  0  0  0  0  0  0  0  0  0  0
   69.9578    8.5508    3.1129 O   0  0  0  0  0  0  0  0  0  0  0  0
   68.6859    6.4459    3.0388 C   0  0  0  0  0  0  0  0  0  0  0  0
   67.3232    6.3042    2.5879 O   0  0  0  0  0  0  0  0  0  0  0  0
   69.6038    6.2984    1.8353 C   0  0  0  0  0  0  0  0  0  0  0  0
   70.5391    5.2311    2.0324 O   0  0  0  0  0  0  0  0  0  0  0  0
   68.7126    6.0268    0.6469 C   0  0  0  0  0  0  0  0  0  0  0  0
   69.0417    4.7769    0.0260 O   0  0  0  0  0  0  0  0  0  0  0  0
   67.2887    6.0085    1.1756 C   0  0  0  0  0  0  0  0  0  0  0  0
   65.6255    7.6297   -3.3711 N   0  0  0  0  0  0  0  0  0  0  0  0
   69.6782   11.0423    3.1205 O   0  5  0  0  0  0  0  0  0  0  0  0
   72.0847   12.3227    4.2383 O   0  5  0  0  0  0  0  0  0  0  0  0
   71.8501   13.6799   -0.0860 O   0  5  0  0  0  0  0  0  0  0  0  0
   66.4785    6.5938   -3.0729 C   0  0  1  0  0  0  0  0  0  0  0  0
   66.9519    5.9068   -4.1039 N   0  0  0  0  0  0  0  0  0  0  0  0
   70.4615    9.8099    5.2238 O   0  0  0  0  0  0  0  0  0  0  0  0
   74.0297   11.3454    2.8922 O   0  0  0  0  0  0  0  0  0  0  0  0
   73.6492   13.8200    1.7285 O   0  0  0  0  0  0  0  0  0  0  0  0
   66.8401    6.2646   -1.8353 N   0  0  0  0  0  0  0  0  0  0  0  0
   71.9446   10.0486    3.2529 O   0  0  0  0  0  0  0  0  0  0  0  0
   71.9224   12.0370    1.7751 O   0  0  0  0  0  0  0  0  0  0  0  0
   71.2677   14.4034    2.2380 O   0  0  0  0  0  0  0  0  0  0  0  0
   66.2713    7.0683   -0.9073 C   0  0  2  0  0  0  0  0  0  0  0  0
   65.4050    8.1285   -1.1197 C   0  0  2  0  0  0  0  0  0  0  0  0
   65.0306    8.4659   -2.4434 C   0  0  1  0  0  0  0  0  0  0  0  0
   64.3033    9.3758   -2.8184 O   0  0  0  0  0  0  0  0  0  0  0  0
   65.0325    8.7180    0.0931 N   0  0  0  0  0  0  0  0  0  0  0  0
   65.6842    7.9920    0.9418 C   0  0  0  0  0  0  0  0  0  0  0  0
   66.4505    6.9852    0.4532 N   0  0  0  0  0  0  0  0  0  0  0  0
  1  5  1  6  0  0  0
  1 14  1  0  0  0  0
  1 19  2  0  0  0  0
  2 15  1  1  0  0  0
  2 20  2  0  0  0  0
  2 23  1  0  0  0  0
  3 16  1  6  0  0  0
  3 21  2  0  0  0  0
  3 24  1  0  0  0  0
  3 25  1  0  0  0  0
  4  6  1  0  0  0  0
  5  4  1  0  0  0  0
  6  7  1  0  0  0  0
  6  8  2  0  0  0  0
  7 12  1  0  0  0  0
  8  9  1  0  0  0  0
  8 10  1  0  0  0  0
 10 11  1  0  0  0  0
 10 12  2  0  0  0  0
 12 32  1  0  0  0  0
 13 17  1  0  0  0  0
 17 18  1  6  0  0  0
 17 22  1  0  0  0  0
 23  1  1  0  0  0  0
 24  2  1  0  0  0  0
 26 22  1  6  0  0  0
 27 26  1  0  0  0  0
 27 28  1  0  0  0  0
 27 30  1  6  0  0  0
 28 13  1  0  0  0  0
 28 29  1  6  0  0  0
 31 30  1  0  0  0  0
 32 26  1  0  0  0  0
 32 31  1  0  0  0  0
M  CHG  3  14  -1  15  -1  16  -1
M  END
>  <CHROM.1>
-91.39030593,37.95071061,165.19359733,-124.42507705,-174.10923088,174.92793709
154.06325685,62.54481166,69.34223923,9.27428967,1.25744533,-0.24698438,0.81432821
2.53929920

>  <Name>
2au4_lig

>  <RI>
0

>  <Rbt.Current_Directory>
/home/itssahil/PROJECTS/Mol_Feturizer/New_Systems/rnas/2au4

>  <Rbt.Executable>
rbdock ($Id: //depot/dev/client3/rdock/2013.1/src/exe/rbdock.cxx#4 $)

>  <Rbt.Library>
libRbt.so (2013.1, Build901 2013/11/27)

>  <Rbt.Parameter_File>
/export/apps/rDock/src/rDock_2013.1_src/data/scripts/dock_solv.prm

>  <Rbt.Receptor>
prm/blind_docking_80.prm

>  <SCORE>
-29.8409

>  <SCORE.INTER>
-10.1488

>  <SCORE.INTER.CONST>
1

>  <SCORE.INTER.POLAR>
-1.94947

>  <SCORE.INTER.ROT>
8

>  <SCORE.INTER.SOLV>
31.9373

>  <SCORE.INTER.VDW>
-19.8467

>  <SCORE.INTER.norm>
-0.317149

>  <SCORE.INTRA>
-21.5931

>  <SCORE.INTRA.DIHEDRAL>
-39.9473

>  <SCORE.INTRA.DIHEDRAL.0>
76.3625

>  <SCORE.INTRA.POLAR>
0

>  <SCORE.INTRA.POLAR.0>
0

>  <SCORE.INTRA.REPUL>
-0.12705

>  <SCORE.INTRA.REPUL.0>
0.12705

>  <SCORE.INTRA.SOLV>
-5.63894

>  <SCORE.INTRA.SOLV.lig_0>
-119.383

>  <SCORE.INTRA.VDW>
1.83522

>  <SCORE.INTRA.VDW.0>
-5.10464

>  <SCORE.INTRA.norm>
-0.674786

>  <SCORE.RESTR>
1.90104

>  <SCORE.RESTR.CAVITY>
1.90104

>  <SCORE.RESTR.norm>
0.0594075

>  <SCORE.SYSTEM>
0

>  <SCORE.SYSTEM.CONST>
0

>  <SCORE.SYSTEM.DIHEDRAL>
0

>  <SCORE.SYSTEM.SOLV>
0

>  <SCORE.SYSTEM.norm>
0

>  <SCORE.heavy>
32

>  <SCORE.norm>
-0.932527

>  <RMSD>
5.736

$$$$
2au4_lig
 OpenBabel11021811423D
libRbt.so/2013.1/901 2013/11/27
 32 34  0  0  0  0  0  0  0  0999 V2000
   69.2162   11.9511    0.2711 P   0  0  1  0  0  0  0  0  0  0  0  0
   71.4885   13.3000    0.8926 P   0  0  1  0  0  0  0  0  0  0  0  0
   73.7406   12.0024    1.7201 P   0  0  2  0  0  0  0  0  0  0  0  0
   66.8490   12.6000    1.2740 C   0  0  0  0  0  0  0  0  0  0  0  0
   67.8858   11.6178    1.1128 O   0  0  0  0  0  0  0  0  0  0  0  0
   65.8048   12.5305    0.1693 C   0  0  0  0  0  0  0  0  0  0  0  0
   66.3795   11.9922   -1.0390 O   0  0  0  0  0  0  0  0  0  0  0  0
   64.6429   11.6404    0.5820 C   0  0  0  0  0  0  0  0  0  0  0  0
   63.4274   12.3937    0.6715 O   0  0  0  0  0  0  0  0  0  0  0  0
   64.5361   10.5604   -0.4679 C   0  0  0  0  0  0  0  0  0  0  0  0
   63.2455   10.5694   -1.0928 O   0  0  0  0  0  0  0  0  0  0  0  0
   65.6297   10.8419   -1.4838 C   0  0  0  0  0  0  0  0  0  0  0  0
   65.9060    5.7513   -1.7593 N   0  0  0  0  0  0  0  0  0  0  0  0
   70.0408   10.7287    0.1903 O   0  5  0  0  0  0  0  0  0  0  0  0
   71.6223   13.5005   -0.5635 O   0  5  0  0  0  0  0  0  0  0  0  0
   74.2467   10.6179    1.8108 O   0  5  0  0  0  0  0  0  0  0  0  0
   64.8053    6.5574   -1.5910 C   0  0  1  0  0  0  0  0  0  0  0  0
   63.6367    5.9404   -1.4776 N   0  0  0  0  0  0  0  0  0  0  0  0
   68.8270   12.6654   -0.9636 O   0  0  0  0  0  0  0  0  0  0  0  0
   71.9492   14.3451    1.8302 O   0  0  0  0  0  0  0  0  0  0  0  0
   73.8363   12.9025    2.8883 O   0  0  0  0  0  0  0  0  0  0  0  0
   64.8612    7.8857   -1.5354 N   0  0  0  0  0  0  0  0  0  0  0  0
   69.9673   12.9847    1.2132 O   0  0  0  0  0  0  0  0  0  0  0  0
   72.2121   11.9385    1.2771 O   0  0  0  0  0  0  0  0  0  0  0  0
   74.4426   12.7191    0.4654 O   0  0  0  0  0  0  0  0  0  0  0  0
   66.1263    8.3483   -1.6627 C   0  0  2  0  0  0  0  0  0  0  0  0
   67.2862    7.6102   -1.8352 C   0  0  2  0  0  0  0  0  0  0  0  0
   67.2089    6.1970   -1.8918 C   0  0  1  0  0  0  0  0  0  0  0  0
   68.1214    5.3908   -2.0135 O   0  0  0  0  0  0  0  0  0  0  0  0
   68.4018    8.4494   -1.9253 N   0  0  0  0  0  0  0  0  0  0  0  0
   67.8561    9.6153   -1.8034 C   0  0  0  0  0  0  0  0  0  0  0  0
   66.5104    9.6682   -1.6424 N   0  0  0  0  0  0  0  0  0  0  0  0
  1  5  1  1  0  0  0
  1 14  1  0  0  0  0
  1 19  2  0  0  0  0
  2 15  1  6  0  0  0
  2 20  2  0  0  0  0
  2 23  1  0  0  0  0
  3 16  1  1  0  0  0
  3 21  2  0  0  0  0
  3 24  1  0  0  0  0
  3 25  1  0  0  0  0
  4  6  1  0  0  0  0
  5  4  1  0  0  0  0
  6  7  1  0  0  0  0
  6  8  2  0  0  0  0
  7 12  1  0  0  0  0
  8  9  1  0  0  0  0
  8 10  1  0  0  0  0
 10 11  1  0  0  0  0
 10 12  2  0  0  0  0
 12 32  1  0  0  0  0
 13 17  1  0  0  0  0
 17 18  1  1  0  0  0
 17 22  1  0  0  0  0
 23  1  1  0  0  0  0
 24  2  1  0  0  0  0
 26 22  1  1  0  0  0
 27 26  1  0  0  0  0
 27 28  1  0  0  0  0
 27 30  1  1  0  0  0
 28 13  1  0  0  0  0
 28 29  1  1  0  0  0
 31 30  1  0  0  0  0
 32 26  1  0  0  0  0
 32 31  1  0  0  0  0
M  CHG  3  14  -1  15  -1  16  -1
M  END
>  <CHROM.1>
-175.62126102,44.59387556,-170.93056506,-26.94916761,90.04577302,159.55017106
166.04194417,92.35710896,68.62245311,10.76338737,-0.09246199,0.58443237,-0.14241193
0.34015301

>  <Name>
2au4_lig

>  <RI>
0

>  <Rbt.Current_Directory>
/home/itssahil/PROJECTS/Mol_Feturizer/New_Systems/rnas/2au4

>  <Rbt.Executable>
rbdock ($Id: //depot/dev/client3/rdock/2013.1/src/exe/rbdock.cxx#4 $)

>  <Rbt.Library>
libRbt.so (2013.1, Build901 2013/11/27)

>  <Rbt.Parameter_File>
/export/apps/rDock/src/rDock_2013.1_src/data/scripts/dock_solv.prm

>  <Rbt.Receptor>
prm/pocket_docking_5.prm

>  <SCORE>
-35.9119

>  <SCORE.INTER>
-13.0297

>  <SCORE.INTER.CONST>
1

>  <SCORE.INTER.POLAR>
-1.86852

>  <SCORE.INTER.ROT>
8

>  <SCORE.INTER.SOLV>
32.3086

>  <SCORE.INTER.VDW>
-22.1609

>  <SCORE.INTER.norm>
-0.407177

>  <SCORE.INTRA>
-22.8822

>  <SCORE.INTRA.DIHEDRAL>
-44.7156

>  <SCORE.INTRA.DIHEDRAL.0>
76.3625

>  <SCORE.INTRA.POLAR>
0

>  <SCORE.INTRA.POLAR.0>
0

>  <SCORE.INTRA.REPUL>
-0.12705

>  <SCORE.INTRA.REPUL.0>
0.12705

>  <SCORE.INTRA.SOLV>
-0.612335

>  <SCORE.INTRA.SOLV.lig_0>
-119.383

>  <SCORE.INTRA.VDW>
0.416964

>  <SCORE.INTRA.VDW.0>
-5.10464

>  <SCORE.INTRA.norm>
-0.71507

>  <SCORE.RESTR>
0

>  <SCORE.RESTR.CAVITY>
0

>  <SCORE.RESTR.norm>
0

>  <SCORE.SYSTEM>
0

>  <SCORE.SYSTEM.CONST>
0

>  <SCORE.SYSTEM.DIHEDRAL>
0

>  <SCORE.SYSTEM.SOLV>
0

>  <SCORE.SYSTEM.norm>
0

>  <SCORE.heavy>
32

>  <SCORE.norm>
-1.12225

>  <RMSD>
5.756

$$$$
2au4_lig
 OpenBabel11021811423D
libRbt.so/2013.1/901 2013/11/27
 32 34  0  0  0  0  0  0  0  0999 V2000
   71.2722   10.5648    2.2130 P   0  0  1  0  0  0  0  0  0  0  0  0
   73.5316   11.8250    1.3907 P   0  0  1  0  0  0  0  0  0  0  0  0
   72.7426   13.1370   -0.8670 P   0  0  2  0  0  0  0  0  0  0  0  0
   68.6586   10.1816    2.4435 C   0  0  0  0  0  0  0  0  0  0  0  0
   69.7749   11.0859    2.4887 O   0  0  0  0  0  0  0  0  0  0  0  0
   67.4361   10.7990    1.7805 C   0  0  0  0  0  0  0  0  0  0  0  0
   67.6185   10.8768    0.3519 O   0  0  0  0  0  0  0  0  0  0  0  0
   66.1947    9.9656    2.0577 C   0  0  0  0  0  0  0  0  0  0  0  0
   65.2396   10.7089    2.8248 O   0  0  0  0  0  0  0  0  0  0  0  0
   65.6280    9.5796    0.7123 C   0  0  0  0  0  0  0  0  0  0  0  0
   64.2829   10.0524    0.5603 O   0  0  0  0  0  0  0  0  0  0  0  0
   66.5402   10.2023   -0.3305 C   0  0  0  0  0  0  0  0  0  0  0  0
   65.5969    5.8090   -2.7544 N   0  0  0  0  0  0  0  0  0  0  0  0
   71.7790    9.9179    3.4399 O   0  5  0  0  0  0  0  0  0  0  0  0
   74.2493   13.0759    1.7043 O   0  5  0  0  0  0  0  0  0  0  0  0
   73.8546   14.1084   -0.8337 O   0  5  0  0  0  0  0  0  0  0  0  0
   64.7911    6.5254   -1.9017 C   0  0  1  0  0  0  0  0  0  0  0  0
   63.5917    6.0142   -1.6581 N   0  0  0  0  0  0  0  0  0  0  0  0
   71.2882    9.8328    0.9284 O   0  0  0  0  0  0  0  0  0  0  0  0
   74.1109   10.5214    1.7759 O   0  0  0  0  0  0  0  0  0  0  0  0
   71.4337   13.4911   -0.2793 O   0  0  0  0  0  0  0  0  0  0  0  0
   65.1526    7.6698   -1.3270 N   0  0  0  0  0  0  0  0  0  0  0  0
   72.0739   11.9197    2.0092 O   0  0  0  0  0  0  0  0  0  0  0  0
   73.2427   11.7942   -0.1716 O   0  0  0  0  0  0  0  0  0  0  0  0
   72.5112   12.6812   -2.3900 O   0  0  0  0  0  0  0  0  0  0  0  0
   66.4043    8.0438   -1.6792 C   0  0  2  0  0  0  0  0  0  0  0  0
   67.2794    7.3850   -2.5277 C   0  0  2  0  0  0  0  0  0  0  0  0
   66.8788    6.1677   -3.1309 C   0  0  1  0  0  0  0  0  0  0  0  0
   67.5213    5.4436   -3.8795 O   0  0  0  0  0  0  0  0  0  0  0  0
   68.4847    8.0859   -2.6420 N   0  0  0  0  0  0  0  0  0  0  0  0
   68.2653    9.1007   -1.8712 C   0  0  0  0  0  0  0  0  0  0  0  0
   67.0614    9.1728   -1.2506 N   0  0  0  0  0  0  0  0  0  0  0  0
  1  5  1  1  0  0  0
  1 14  1  0  0  0  0
  1 19  2  0  0  0  0
  2 15  1  1  0  0  0
  2 20  2  0  0  0  0
  2 23  1  0  0  0  0
  3 16  1  1  0  0  0
  3 21  2  0  0  0  0
  3 24  1  0  0  0  0
  3 25  1  0  0  0  0
  4  6  1  0  0  0  0
  5  4  1  0  0  0  0
  6  7  1  0  0  0  0
  6  8  2  0  0  0  0
  7 12  1  0  0  0  0
  8  9  1  0  0  0  0
  8 10  1  0  0  0  0
 10 11  1  0  0  0  0
 10 12  2  0  0  0  0
 12 32  1  0  0  0  0
 13 17  1  0  0  0  0
 17 18  1  1  0  0  0
 17 22  1  0  0  0  0
 23  1  1  0  0  0  0
 24  2  1  0  0  0  0
 26 22  1  1  0  0  0
 27 26  1  0  0  0  0
 27 28  1  0  0  0  0
 27 30  1  1  0  0  0
 28 13  1  0  0  0  0
 28 29  1  1  0  0  0
 31 30  1  0  0  0  0
 32 26  1  0  0  0  0
 32 31  1  0  0  0  0
M  CHG  3  14  -1  15  -1  16  -1
M  END
>  <CHROM.1>
-79.61171672,-161.16428517,67.84067265,74.19566571,-140.06299442,154.34402680
-166.44784568,-42.63539423,69.40076782,10.14682465,0.04803490,0.48761589
0.40494822,1.09183813

>  <Name>
2au4_lig

>  <RI>
0

>  <Rbt.Current_Directory>
/home/itssahil/PROJECTS/Mol_Feturizer/New_Systems/rnas/2au4

>  <Rbt.Executable>
rbdock ($Id: //depot/dev/client3/rdock/2013.1/src/exe/rbdock.cxx#4 $)

>  <Rbt.Library>
libRbt.so (2013.1, Build901 2013/11/27)

>  <Rbt.Parameter_File>
/export/apps/rDock/src/rDock_2013.1_src/data/scripts/dock_solv.prm

>  <Rbt.Receptor>
prm/pocket_docking_5.prm

>  <SCORE>
-37.4875

>  <SCORE.INTER>
-14.3599

>  <SCORE.INTER.CONST>
1

>  <SCORE.INTER.POLAR>
-1.56081

>  <SCORE.INTER.ROT>
8

>  <SCORE.INTER.SOLV>
38.5119

>  <SCORE.INTER.VDW>
-26.1412

>  <SCORE.INTER.norm>
-0.448748

>  <SCORE.INTRA>
-23.1276

>  <SCORE.INTRA.DIHEDRAL>
-43.7034

>  <SCORE.INTRA.DIHEDRAL.0>
76.3625

>  <SCORE.INTRA.POLAR>
0

>  <SCORE.INTRA.POLAR.0>
0

>  <SCORE.INTRA.REPUL>
-0.12705

>  <SCORE.INTRA.REPUL.0>
0.12705

>  <SCORE.INTRA.SOLV>
-3.00116

>  <SCORE.INTRA.SOLV.lig_0>
-119.383

>  <SCORE.INTRA.VDW>
0.859908

>  <SCORE.INTRA.VDW.0>
-5.10464

>  <SCORE.INTRA.norm>
-0.722738

>  <SCORE.RESTR>
0

>  <SCORE.RESTR.CAVITY>
0

>  <SCORE.RESTR.norm>
0

>  <SCORE.SYSTEM>
0

>  <SCORE.SYSTEM.CONST>
0

>  <SCORE.SYSTEM.DIHEDRAL>
0

>  <SCORE.SYSTEM.SOLV>
0

>  <SCORE.SYSTEM.norm>
0

>  <SCORE.heavy>
32

>  <SCORE.norm>
-1.17149

>  <RMSD>
5.760

$$$$
2au4_lig
 OpenBabel11021811423D
libRbt.so/2013.1/901 2013/11/27
 32 34  0  0  0  0  0  0  0  0999 V2000
   62.4732    8.2877   -2.8187 P   0  0  1  0  0  0  0  0  0  0  0  0
   61.0052   10.4585   -2.1101 P   0  0  1  0  0  0  0  0  0  0  0  0
   62.1469   12.8360   -2.8062 P   0  0  2  0  0  0  0  0  0  0  0  0
   65.0599    7.8079   -2.4881 C   0  0  0  0  0  0  0  0  0  0  0  0
   63.9735    8.7486   -2.4639 O   0  0  0  0  0  0  0  0  0  0  0  0
   65.1145    6.9496   -1.2328 C   0  0  0  0  0  0  0  0  0  0  0  0
   65.7713    5.6946   -1.5043 O   0  0  0  0  0  0  0  0  0  0  0  0
   65.8814    7.6596   -0.1281 C   0  0  0  0  0  0  0  0  0  0  0  0
   65.0293    7.9377    0.9897 O   0  0  0  0  0  0  0  0  0  0  0  0
   67.0129    6.7410    0.2672 C   0  0  0  0  0  0  0  0  0  0  0  0
   66.9398    6.3953    1.6569 O   0  0  0  0  0  0  0  0  0  0  0  0
   66.8835    5.5037   -0.6044 C   0  0  0  0  0  0  0  0  0  0  0  0
   71.8997    4.5988   -0.3123 N   0  0  0  0  0  0  0  0  0  0  0  0
   62.1109    8.8399   -4.1395 O   0  5  0  0  0  0  0  0  0  0  0  0
   60.1052   10.2719   -3.2648 O   0  5  0  0  0  0  0  0  0  0  0  0
   62.0936   13.4669   -1.4719 O   0  5  0  0  0  0  0  0  0  0  0  0
   70.9874    4.7897    0.6981 C   0  0  1  0  0  0  0  0  0  0  0  0
   71.4618    4.7393    1.9356 N   0  0  0  0  0  0  0  0  0  0  0  0
   62.3525    6.8363   -2.5639 O   0  0  0  0  0  0  0  0  0  0  0  0
   60.5050   11.1000   -0.8764 O   0  0  0  0  0  0  0  0  0  0  0  0
   61.0599   13.0716   -3.7793 O   0  0  0  0  0  0  0  0  0  0  0  0
   69.6927    5.0190    0.4938 N   0  0  0  0  0  0  0  0  0  0  0  0
   61.6135    9.0462   -1.7206 O   0  0  0  0  0  0  0  0  0  0  0  0
   62.2851   11.2627   -2.6002 O   0  0  0  0  0  0  0  0  0  0  0  0
   63.5435   13.2259   -3.4975 O   0  0  0  0  0  0  0  0  0  0  0  0
   69.3809    5.0428   -0.8226 C   0  0  2  0  0  0  0  0  0  0  0  0
   70.2331    4.8606   -1.8997 C   0  0  2  0  0  0  0  0  0  0  0  0
   71.6086    4.6180   -1.6645 C   0  0  1  0  0  0  0  0  0  0  0  0
   72.5029    4.4597   -2.4847 O   0  0  0  0  0  0  0  0  0  0  0  0
   69.5359    4.9588   -3.1086 N   0  0  0  0  0  0  0  0  0  0  0  0
   68.3334    5.1897   -2.6931 C   0  0  0  0  0  0  0  0  0  0  0  0
   68.1314    5.2595   -1.3537 N   0  0  0  0  0  0  0  0  0  0  0  0
  1  5  1  1  0  0  0
  1 14  1  0  0  0  0
  1 19  2  0  0  0  0
  2 15  1  6  0  0  0
  2 20  2  0  0  0  0
  2 23  1  0  0  0  0
  3 16  1  1  0  0  0
  3 21  2  0  0  0  0
  3 24  1  0  0  0  0
  3 25  1  0  0  0  0
  4  6  1  0  0  0  0
  5  4  1  0  0  0  0
  6  7  1  0  0  0  0
  6  8  2  0  0  0  0
  7 12  1  0  0  0  0
  8  9  1  0  0  0  0
  8 10  1  0  0  0  0
 10 11  1  0  0  0  0
 10 12  2  0  0  0  0
 12 32  1  0  0  0  0
 13 17  1  0  0  0  0
 17 18  1  6  0  0  0
 17 22  1  0  0  0  0
 23  1  1  0  0  0  0
 24  2  1  0  0  0  0
 26 22  1  6  0  0  0
 27 26  1  0  0  0  0
 27 28  1  0  0  0  0
 27 30  1  6  0  0  0
 28 13  1  0  0  0  0
 28 29  1  6  0  0  0
 31 30  1  0  0  0  0
 32 26  1  0  0  0  0
 32 31  1  0  0  0  0
M  CHG  3  14  -1  15  -1  16  -1
M  END
>  <CHROM.1>
-108.00367714,60.33131246,73.65114325,154.76610425,-79.64365416,179.69772857
93.76882771,77.83287644,65.27875618,8.08424195,-1.66376601,2.51082652,-0.19591597
-0.03465890

>  <Name>
2au4_lig

>  <RI>
0

>  <Rbt.Current_Directory>
/home/itssahil/PROJECTS/Mol_Feturizer/New_Systems/rnas/2au4

>  <Rbt.Executable>
rbdock ($Id: //depot/dev/client3/rdock/2013.1/src/exe/rbdock.cxx#4 $)

>  <Rbt.Library>
libRbt.so (2013.1, Build901 2013/11/27)

>  <Rbt.Parameter_File>
/export/apps/rDock/src/rDock_2013.1_src/data/scripts/dock_solv.prm

>  <Rbt.Receptor>
prm/blind_docking_80.prm

>  <SCORE>
-31.1371

>  <SCORE.INTER>
-15.9042

>  <SCORE.INTER.CONST>
1

>  <SCORE.INTER.POLAR>
-0.968246

>  <SCORE.INTER.ROT>
8

>  <SCORE.INTER.SOLV>
37.1796

>  <SCORE.INTER.VDW>
-28.7018

>  <SCORE.INTER.norm>
-0.497005

>  <SCORE.INTRA>
-17.3562

>  <SCORE.INTRA.DIHEDRAL>
-34.002

>  <SCORE.INTRA.DIHEDRAL.0>
76.3625

>  <SCORE.INTRA.POLAR>
0

>  <SCORE.INTRA.POLAR.0>
0

>  <SCORE.INTRA.REPUL>
0.113831

>  <SCORE.INTRA.REPUL.0>
0.12705

>  <SCORE.INTRA.SOLV>
-4.34688

>  <SCORE.INTRA.SOLV.lig_0>
-119.383

>  <SCORE.INTRA.VDW>
1.24905

>  <SCORE.INTRA.VDW.0>
-5.10464

>  <SCORE.INTRA.norm>
-0.542382

>  <SCORE.RESTR>
2.12331

>  <SCORE.RESTR.CAVITY>
2.12331

>  <SCORE.RESTR.norm>
0.0663533

>  <SCORE.SYSTEM>
0

>  <SCORE.SYSTEM.CONST>
0

>  <SCORE.SYSTEM.DIHEDRAL>
0

>  <SCORE.SYSTEM.SOLV>
0

>  <SCORE.SYSTEM.norm>
0

>  <SCORE.heavy>
32

>  <SCORE.norm>
-0.973034

>  <RMSD>
5.822

$$$$
2au4_lig
 OpenBabel11021811423D
libRbt.so/2013.1/901 2013/11/27
 32 34  0  0  0  0  0  0  0  0999 V2000
   72.1911   12.7357   -0.3224 P   0  0  1  0  0  0  0  0  0  0  0  0
   73.8735   12.0365    1.6901 P   0  0  1  0  0  0  0  0  0  0  0  0
   72.3965   12.2213    3.9760 P   0  0  2  0  0  0  0  0  0  0  0  0
   70.0202   12.9093   -1.8347 C   0  0  0  0  0  0  0  0  0  0  0  0
   70.6422   12.4283   -0.6317 O   0  0  0  0  0  0  0  0  0  0  0  0
   68.5523   12.5192   -1.9270 C   0  0  0  0  0  0  0  0  0  0  0  0
   68.4175   11.1023   -2.1605 O   0  0  0  0  0  0  0  0  0  0  0  0
   67.8222   12.8611   -0.6375 C   0  0  0  0  0  0  0  0  0  0  0  0
   66.8121   13.8508   -0.8680 O   0  0  0  0  0  0  0  0  0  0  0  0
   67.2156   11.5734   -0.1336 C   0  0  0  0  0  0  0  0  0  0  0  0
   65.7910   11.6829   -0.0125 O   0  0  0  0  0  0  0  0  0  0  0  0
   67.5908   10.5008   -1.1416 C   0  0  0  0  0  0  0  0  0  0  0  0
   69.6948    5.8829   -1.7025 N   0  0  0  0  0  0  0  0  0  0  0  0
   73.0151   12.1085   -1.3752 O   0  5  0  0  0  0  0  0  0  0  0  0
   74.3353   10.6692    1.9991 O   0  5  0  0  0  0  0  0  0  0  0  0
   71.1185   12.4697    3.2786 O   0  5  0  0  0  0  0  0  0  0  0  0
   69.0740    6.6780   -2.6364 C   0  0  1  0  0  0  0  0  0  0  0  0
   68.9973    6.1891   -3.8669 N   0  0  0  0  0  0  0  0  0  0  0  0
   72.3366   14.1774   -0.0279 O   0  0  0  0  0  0  0  0  0  0  0  0
   74.7041   12.9285    0.8548 O   0  0  0  0  0  0  0  0  0  0  0  0
   72.6036   12.7361    5.3456 O   0  0  0  0  0  0  0  0  0  0  0  0
   68.5609    7.8757   -2.3663 N   0  0  0  0  0  0  0  0  0  0  0  0
   72.4353   11.9377    1.0281 O   0  0  0  0  0  0  0  0  0  0  0  0
   73.5726   12.7828    3.0604 O   0  0  0  0  0  0  0  0  0  0  0  0
   72.6751   10.6392    3.9783 O   0  0  0  0  0  0  0  0  0  0  0  0
   68.7209    8.2174   -1.0670 C   0  0  2  0  0  0  0  0  0  0  0  0
   69.3311    7.4804   -0.0648 C   0  0  2  0  0  0  0  0  0  0  0  0
   69.8718    6.2071   -0.3694 C   0  0  1  0  0  0  0  0  0  0  0  0
   70.4189    5.4142    0.3852 O   0  0  0  0  0  0  0  0  0  0  0  0
   69.2990    8.1711    1.1513 N   0  0  0  0  0  0  0  0  0  0  0  0
   68.6841    9.2571    0.8132 C   0  0  0  0  0  0  0  0  0  0  0  0
   68.2970    9.3863   -0.4803 N   0  0  0  0  0  0  0  0  0  0  0  0
  1  5  1  6  0  0  0
  1 14  1  0  0  0  0
  1 19  2  0  0  0  0
  2 15  1  1  0  0  0
  2 20  2  0  0  0  0
  2 23  1  0  0  0  0
  3 16  1  6  0  0  0
  3 21  2  0  0  0  0
  3 24  1  0  0  0  0
  3 25  1  0  0  0  0
  4  6  1  0  0  0  0
  5  4  1  0  0  0  0
  6  7  1  0  0  0  0
  6  8  2  0  0  0  0
  7 12  1  0  0  0  0
  8  9  1  0  0  0  0
  8 10  1  0  0  0  0
 10 11  1  0  0  0  0
 10 12  2  0  0  0  0
 12 32  1  0  0  0  0
 13 17  1  0  0  0  0
 17 18  1  1  0  0  0
 17 22  1  0  0  0  0
 23  1  1  0  0  0  0
 24  2  1  0  0  0  0
 26 22  1  1  0  0  0
 27 26  1  0  0  0  0
 27 28  1  0  0  0  0
 27 30  1  1  0  0  0
 28 13  1  0  0  0  0
 28 29  1  1  0  0  0
 31 30  1  0  0  0  0
 32 26  1  0  0  0  0
 32 31  1  0  0  0  0
M  CHG  3  14  -1  15  -1  16  -1
M  END
>  <CHROM.1>
-62.38672785,-130.51442835,-68.39710633,-70.59716874,-179.52802827,-63.22752181
-178.11867070,-64.31076274,70.63824433,10.79926143,0.36323952,0.68141296
-0.65284433,0.09968619

>  <Name>
2au4_lig

>  <RI>
0

>  <Rbt.Current_Directory>
/home/itssahil/PROJECTS/Mol_Feturizer/New_Systems/rnas/2au4

>  <Rbt.Executable>
rbdock ($Id: //depot/dev/client3/rdock/2013.1/src/exe/rbdock.cxx#4 $)

>  <Rbt.Library>
libRbt.so (2013.1, Build901 2013/11/27)

>  <Rbt.Parameter_File>
/export/apps/rDock/src/rDock_2013.1_src/data/scripts/dock_solv.prm

>  <Rbt.Receptor>
prm/pocket_docking_5.prm

>  <SCORE>
-40.4574

>  <SCORE.INTER>
-22.4608

>  <SCORE.INTER.CONST>
1

>  <SCORE.INTER.POLAR>
-3.35795

>  <SCORE.INTER.ROT>
8

>  <SCORE.INTER.SOLV>
35.3132

>  <SCORE.INTER.VDW>
-24.4851

>  <SCORE.INTER.norm>
-0.701901

>  <SCORE.INTRA>
-18.2713

>  <SCORE.INTRA.DIHEDRAL>
-33.3296

>  <SCORE.INTRA.DIHEDRAL.0>
76.3625

>  <SCORE.INTRA.POLAR>
0

>  <SCORE.INTRA.POLAR.0>
0

>  <SCORE.INTRA.REPUL>
-0.111131

>  <SCORE.INTRA.REPUL.0>
0.12705

>  <SCORE.INTRA.SOLV>
-5.70854

>  <SCORE.INTRA.SOLV.lig_0>
-119.383

>  <SCORE.INTRA.VDW>
1.8034

>  <SCORE.INTRA.VDW.0>
-5.10464

>  <SCORE.INTRA.norm>
-0.570979

>  <SCORE.RESTR>
0.274744

>  <SCORE.RESTR.CAVITY>
0.274744

>  <SCORE.RESTR.norm>
0.00858575

>  <SCORE.SYSTEM>
0

>  <SCORE.SYSTEM.CONST>
0

>  <SCORE.SYSTEM.DIHEDRAL>
0

>  <SCORE.SYSTEM.SOLV>
0

>  <SCORE.SYSTEM.norm>
0

>  <SCORE.heavy>
32

>  <SCORE.norm>
-1.26429

>  <RMSD>
5.822

$$$$
2au4_lig
 OpenBabel11021811423D
libRbt.so/2013.1/901 2013/11/27
 32 34  0  0  0  0  0  0  0  0999 V2000
   68.6343    9.3355    3.1548 P   0  0  1  0  0  0  0  0  0  0  0  0
   70.8331   10.8010    3.7769 P   0  0  1  0  0  0  0  0  0  0  0  0
   72.8510   12.6363    3.7937 P   0  0  2  0  0  0  0  0  0  0  0  0
   66.5406   10.9404    2.8886 C   0  0  0  0  0  0  0  0  0  0  0  0
   67.2725    9.7920    2.4292 O   0  0  0  0  0  0  0  0  0  0  0  0
   65.5929   11.4876    1.8313 C   0  0  0  0  0  0  0  0  0  0  0  0
   66.2440   11.5421    0.5455 O   0  0  0  0  0  0  0  0  0  0  0  0
   64.3606   10.6056    1.7044 C   0  0  0  0  0  0  0  0  0  0  0  0
   63.1774   11.3219    2.0783 O   0  0  0  0  0  0  0  0  0  0  0  0
   64.2953   10.1650    0.2615 C   0  0  0  0  0  0  0  0  0  0  0  0
   63.0648   10.5736   -0.3510 O   0  0  0  0  0  0  0  0  0  0  0  0
   65.4836   10.8050   -0.4352 C   0  0  0  0  0  0  0  0  0  0  0  0
   65.6213    6.1672   -2.5655 N   0  0  0  0  0  0  0  0  0  0  0  0
   68.4226    9.3665    4.6160 O   0  5  0  0  0  0  0  0  0  0  0  0
   70.2761   11.3601    5.0240 O   0  5  0  0  0  0  0  0  0  0  0  0
   73.2968   13.7957    2.9947 O   0  5  0  0  0  0  0  0  0  0  0  0
   64.5581    6.8438   -2.0163 C   0  0  1  0  0  0  0  0  0  0  0  0
   63.3909    6.2141   -2.0290 N   0  0  0  0  0  0  0  0  0  0  0  0
   69.1260    8.1026    2.5032 O   0  0  0  0  0  0  0  0  0  0  0  0
   71.6920    9.5994    3.8219 O   0  0  0  0  0  0  0  0  0  0  0  0
   73.8127   11.5744    4.1560 O   0  0  0  0  0  0  0  0  0  0  0  0
   64.6482    8.0614   -1.4872 N   0  0  0  0  0  0  0  0  0  0  0  0
   69.6321   10.5125    2.7816 O   0  0  0  0  0  0  0  0  0  0  0  0
   71.6334   11.9518    3.0284 O   0  0  0  0  0  0  0  0  0  0  0  0
   72.1617   13.1807    5.1387 O   0  0  0  0  0  0  0  0  0  0  0  0
   65.9069    8.5535   -1.5523 C   0  0  2  0  0  0  0  0  0  0  0  0
   67.0301    7.9425   -2.0860 C   0  0  2  0  0  0  0  0  0  0  0  0
   66.9167    6.6459   -2.6450 C   0  0  1  0  0  0  0  0  0  0  0  0
   67.7967    5.9501   -3.1338 O   0  0  0  0  0  0  0  0  0  0  0  0
   68.1516    8.7701   -1.9662 N   0  0  0  0  0  0  0  0  0  0  0  0
   67.6449    9.8052   -1.3799 C   0  0  0  0  0  0  0  0  0  0  0  0
   66.3204    9.7800   -1.0889 N   0  0  0  0  0  0  0  0  0  0  0  0
  1  5  1  6  0  0  0
  1 14  1  0  0  0  0
  1 19  2  0  0  0  0
  2 15  1  1  0  0  0
  2 20  2  0  0  0  0
  2 23  1  0  0  0  0
  3 16  1  6  0  0  0
  3 21  2  0  0  0  0
  3 24  1  0  0  0  0
  3 25  1  0  0  0  0
  4  6  1  0  0  0  0
  5  4  1  0  0  0  0
  6  7  1  0  0  0  0
  6  8  2  0  0  0  0
  7 12  1  0  0  0  0
  8  9  1  0  0  0  0
  8 10  1  0  0  0  0
 10 11  1  0  0  0  0
 10 12  2  0  0  0  0
 12 32  1  0  0  0  0
 13 17  1  0  0  0  0
 17 18  1  1  0  0  0
 17 22  1  0  0  0  0
 23  1  1  0  0  0  0
 24  2  1  0  0  0  0
 26 22  1  1  0  0  0
 27 26  1  0  0  0  0
 27 28  1  0  0  0  0
 27 30  1  1  0  0  0
 28 13  1  0  0  0  0
 28 29  1  1  0  0  0
 31 30  1  0  0  0  0
 32 26  1  0  0  0  0
 32 31  1  0  0  0  0
M  CHG  3  14  -1  15  -1  16  -1
M  END
>  <CHROM.1>
45.52044220,-69.10556957,-171.49780341,-44.27612503,160.20916197,147.25767633
153.16287910,59.30607931,68.13506662,9.97390151,1.41293270,0.76156575,-0.12649503
0.85155241

>  <Name>
2au4_lig

>  <RI>
0

>  <Rbt.Current_Directory>
/home/itssahil/PROJECTS/Mol_Feturizer/New_Systems/rnas/2au4

>  <Rbt.Executable>
rbdock ($Id: //depot/dev/client3/rdock/2013.1/src/exe/rbdock.cxx#4 $)

>  <Rbt.Library>
libRbt.so (2013.1, Build901 2013/11/27)

>  <Rbt.Parameter_File>
/export/apps/rDock/src/rDock_2013.1_src/data/scripts/dock_solv.prm

>  <Rbt.Receptor>
prm/pocket_docking_5.prm

>  <SCORE>
-40.5487

>  <SCORE.INTER>
-14.4679

>  <SCORE.INTER.CONST>
1

>  <SCORE.INTER.POLAR>
-2.49567

>  <SCORE.INTER.ROT>
8

>  <SCORE.INTER.SOLV>
30.4682

>  <SCORE.INTER.VDW>
-20.4158

>  <SCORE.INTER.norm>
-0.452122

>  <SCORE.INTRA>
-26.1196

>  <SCORE.INTRA.DIHEDRAL>
-47.879

>  <SCORE.INTRA.DIHEDRAL.0>
76.3625

>  <SCORE.INTRA.POLAR>
0

>  <SCORE.INTRA.POLAR.0>
0

>  <SCORE.INTRA.REPUL>
-0.12705

>  <SCORE.INTRA.REPUL.0>
0.12705

>  <SCORE.INTRA.SOLV>
-5.49045

>  <SCORE.INTRA.SOLV.lig_0>
-119.383

>  <SCORE.INTRA.VDW>
1.20041

>  <SCORE.INTRA.VDW.0>
-5.10464

>  <SCORE.INTRA.norm>
-0.816236

>  <SCORE.RESTR>
0.0387356

>  <SCORE.RESTR.CAVITY>
0.0387356

>  <SCORE.RESTR.norm>
0.00121049

>  <SCORE.SYSTEM>
0

>  <SCORE.SYSTEM.CONST>
0

>  <SCORE.SYSTEM.DIHEDRAL>
0

>  <SCORE.SYSTEM.SOLV>
0

>  <SCORE.SYSTEM.norm>
0

>  <SCORE.heavy>
32

>  <SCORE.norm>
-1.26715

>  <RMSD>
5.825

$$$$
2au4_lig
 OpenBabel11021811423D
libRbt.so/2013.1/901 2013/11/27
 32 34  0  0  0  0  0  0  0  0999 V2000
   66.6321   13.3368   -1.5270 P   0  0  1  0  0  0  0  0  0  0  0  0
   65.6738   15.3676   -0.0015 P   0  0  1  0  0  0  0  0  0  0  0  0
   65.2888   15.1880    2.6929 P   0  0  2  0  0  0  0  0  0  0  0  0
   66.5803   10.7214   -1.0941 C   0  0  0  0  0  0  0  0  0  0  0  0
   66.0769   11.8551   -1.8199 O   0  0  0  0  0  0  0  0  0  0  0  0
   65.5958   10.2147   -0.0504 C   0  0  0  0  0  0  0  0  0  0  0  0
   65.7727    8.8004    0.1699 O   0  0  0  0  0  0  0  0  0  0  0  0
   65.7991   10.9325    1.2748 C   0  0  0  0  0  0  0  0  0  0  0  0
   64.6404   11.6991    1.6250 O   0  0  0  0  0  0  0  0  0  0  0  0
   66.0736    9.8624    2.3044 C   0  0  0  0  0  0  0  0  0  0  0  0
   65.1072    9.9004    3.3630 O   0  0  0  0  0  0  0  0  0  0  0  0
   66.0155    8.5353    1.5677 C   0  0  0  0  0  0  0  0  0  0  0  0
   69.2361    5.1112   -0.4247 N   0  0  0  0  0  0  0  0  0  0  0  0
   68.0169   13.2301   -1.0252 O   0  5  0  0  0  0  0  0  0  0  0  0
   67.0165   15.7800    0.4516 O   0  5  0  0  0  0  0  0  0  0  0  0
   66.2165   14.0419    2.6095 O   0  5  0  0  0  0  0  0  0  0  0  0
   68.0618    5.6070   -0.9394 C   0  0  1  0  0  0  0  0  0  0  0  0
   67.6936    5.1357   -2.1232 N   0  0  0  0  0  0  0  0  0  0  0  0
   66.3307   14.1932   -2.6940 O   0  0  0  0  0  0  0  0  0  0  0  0
   65.0310   16.0576   -1.1392 O   0  0  0  0  0  0  0  0  0  0  0  0
   64.1649   15.1612    3.6521 O   0  0  0  0  0  0  0  0  0  0  0  0
   67.3026    6.5069   -0.3193 N   0  0  0  0  0  0  0  0  0  0  0  0
   65.7131   13.8149   -0.3241 O   0  0  0  0  0  0  0  0  0  0  0  0
   64.6850   15.4377    1.2404 O   0  0  0  0  0  0  0  0  0  0  0  0
   66.1485   16.5201    2.9520 O   0  0  0  0  0  0  0  0  0  0  0  0
   67.8209    6.8748    0.8750 C   0  0  2  0  0  0  0  0  0  0  0  0
   68.9920    6.4278    1.4656 C   0  0  2  0  0  0  0  0  0  0  0  0
   69.7882    5.4693    0.7921 C   0  0  1  0  0  0  0  0  0  0  0  0
   70.8295    4.9480    1.1681 O   0  0  0  0  0  0  0  0  0  0  0  0
   69.1900    7.0424    2.7066 N   0  0  0  0  0  0  0  0  0  0  0  0
   68.1480    7.8041    2.7848 C   0  0  0  0  0  0  0  0  0  0  0  0
   67.2707    7.7808    1.7506 N   0  0  0  0  0  0  0  0  0  0  0  0
  1  5  1  6  0  0  0
  1 14  1  0  0  0  0
  1 19  2  0  0  0  0
  2 15  1  1  0  0  0
  2 20  2  0  0  0  0
  2 23  1  0  0  0  0
  3 16  1  1  0  0  0
  3 21  2  0  0  0  0
  3 24  1  0  0  0  0
  3 25  1  0  0  0  0
  4  6  1  0  0  0  0
  5  4  1  0  0  0  0
  6  7  1  0  0  0  0
  6  8  2  0  0  0  0
  7 12  1  0  0  0  0
  8  9  1  0  0  0  0
  8 10  1  0  0  0  0
 10 11  1  0  0  0  0
 10 12  2  0  0  0  0
 12 32  1  0  0  0  0
 13 17  1  0  0  0  0
 17 18  1  1  0  0  0
 17 22  1  0  0  0  0
 23  1  1  0  0  0  0
 24  2  1  0  0  0  0
 26 22  1  1  0  0  0
 27 26  1  0  0  0  0
 27 28  1  0  0  0  0
 27 30  1  1  0  0  0
 28 13  1  0  0  0  0
 28 29  1  1  0  0  0
 31 30  1  0  0  0  0
 32 26  1  0  0  0  0
 32 31  1  0  0  0  0
M  CHG  3  14  -1  15  -1  16  -1
M  END
>  <CHROM.1>
27.58902761,-65.04916775,-43.00215347,151.36154132,105.24967249,-30.93038492
-163.52255987,-29.61656604,66.65248592,11.17594739,0.65127686,-2.74728632
-1.23204218,2.01733991

>  <Name>
2au4_lig

>  <RI>
0

>  <Rbt.Current_Directory>
/home/itssahil/PROJECTS/Mol_Feturizer/New_Systems/rnas/2au4

>  <Rbt.Executable>
rbdock ($Id: //depot/dev/client3/rdock/2013.1/src/exe/rbdock.cxx#4 $)

>  <Rbt.Library>
libRbt.so (2013.1, Build901 2013/11/27)

>  <Rbt.Parameter_File>
/export/apps/rDock/src/rDock_2013.1_src/data/scripts/dock_solv.prm

>  <Rbt.Receptor>
prm/pocket_docking_7.prm

>  <SCORE>
-32.4875

>  <SCORE.INTER>
-10.1632

>  <SCORE.INTER.CONST>
1

>  <SCORE.INTER.POLAR>
-0.511173

>  <SCORE.INTER.ROT>
8

>  <SCORE.INTER.SOLV>
20.9647

>  <SCORE.INTER.VDW>
-20.9931

>  <SCORE.INTER.norm>
-0.317599

>  <SCORE.INTRA>
-22.3243

>  <SCORE.INTRA.DIHEDRAL>
-42.5191

>  <SCORE.INTRA.DIHEDRAL.0>
76.3625

>  <SCORE.INTRA.POLAR>
0

>  <SCORE.INTRA.POLAR.0>
0

>  <SCORE.INTRA.REPUL>
0.0609504

>  <SCORE.INTRA.REPUL.0>
0.12705

>  <SCORE.INTRA.SOLV>
-3.23254

>  <SCORE.INTRA.SOLV.lig_0>
-119.383

>  <SCORE.INTRA.VDW>
0.24673

>  <SCORE.INTRA.VDW.0>
-5.10464

>  <SCORE.INTRA.norm>
-0.697635

>  <SCORE.RESTR>
0

>  <SCORE.RESTR.CAVITY>
0

>  <SCORE.RESTR.norm>
0

>  <SCORE.SYSTEM>
0

>  <SCORE.SYSTEM.CONST>
0

>  <SCORE.SYSTEM.DIHEDRAL>
0

>  <SCORE.SYSTEM.SOLV>
0

>  <SCORE.SYSTEM.norm>
0

>  <SCORE.heavy>
32

>  <SCORE.norm>
-1.01523

>  <RMSD>
5.859

$$$$
2au4_lig
 OpenBabel11021811423D
libRbt.so/2013.1/901 2013/11/27
 32 34  0  0  0  0  0  0  0  0999 V2000
   68.9377    8.8590    4.2100 P   0  0  1  0  0  0  0  0  0  0  0  0
   70.9438   10.3447    3.1435 P   0  0  1  0  0  0  0  0  0  0  0  0
   72.6960   12.2943    3.8982 P   0  0  2  0  0  0  0  0  0  0  0  0
   68.6897    6.6165    2.8170 C   0  0  0  0  0  0  0  0  0  0  0  0
   69.1591    7.9733    2.8849 O   0  0  0  0  0  0  0  0  0  0  0  0
   68.4576    6.1519    1.3867 C   0  0  0  0  0  0  0  0  0  0  0  0
   67.1219    6.4842    0.9557 O   0  0  0  0  0  0  0  0  0  0  0  0
   69.4435    6.8160    0.4382 C   0  0  0  0  0  0  0  0  0  0  0  0
   70.3049    5.8446   -0.1677 O   0  0  0  0  0  0  0  0  0  0  0  0
   68.6190    7.5349   -0.6029 C   0  0  0  0  0  0  0  0  0  0  0  0
   68.9205    7.0608   -1.9221 O   0  0  0  0  0  0  0  0  0  0  0  0
   67.1646    7.2710   -0.2536 C   0  0  0  0  0  0  0  0  0  0  0  0
   66.8973   12.2184   -1.4856 N   0  0  0  0  0  0  0  0  0  0  0  0
   67.4869    8.9881    4.4532 O   0  5  0  0  0  0  0  0  0  0  0  0
   71.8583    9.5975    4.0286 O   0  5  0  0  0  0  0  0  0  0  0  0
   72.9584   13.7097    3.5682 O   0  5  0  0  0  0  0  0  0  0  0  0
   67.8119   11.2700   -1.8776 C   0  0  1  0  0  0  0  0  0  0  0  0
   68.7748   11.6827   -2.6909 N   0  0  0  0  0  0  0  0  0  0  0  0
   69.8247    8.3445    5.2753 O   0  0  0  0  0  0  0  0  0  0  0  0
   70.8474    9.9943    1.7112 O   0  0  0  0  0  0  0  0  0  0  0  0
   73.6815   11.2552    3.5336 O   0  0  0  0  0  0  0  0  0  0  0  0
   67.7752    9.9988   -1.4858 N   0  0  0  0  0  0  0  0  0  0  0  0
   69.4864   10.2811    3.7666 O   0  0  0  0  0  0  0  0  0  0  0  0
   71.2982   11.8901    3.2505 O   0  0  0  0  0  0  0  0  0  0  0  0
   72.4001   12.1860    5.4735 O   0  0  0  0  0  0  0  0  0  0  0  0
   66.7346    9.7506   -0.6574 C   0  0  2  0  0  0  0  0  0  0  0  0
   65.7715   10.6427   -0.2144 C   0  0  2  0  0  0  0  0  0  0  0  0
   65.8254   11.9924   -0.6407 C   0  0  1  0  0  0  0  0  0  0  0  0
   65.0824   12.9155   -0.3355 O   0  0  0  0  0  0  0  0  0  0  0  0
   64.8582   10.0086    0.6347 N   0  0  0  0  0  0  0  0  0  0  0  0
   65.3188    8.8005    0.6503 C   0  0  0  0  0  0  0  0  0  0  0  0
   66.4296    8.5394   -0.0830 N   0  0  0  0  0  0  0  0  0  0  0  0
  1  5  1  6  0  0  0
  1 14  1  0  0  0  0
  1 19  2  0  0  0  0
  2 15  1  1  0  0  0
  2 20  2  0  0  0  0
  2 23  1  0  0  0  0
  3 16  1  6  0  0  0
  3 21  2  0  0  0  0
  3 24  1  0  0  0  0
  3 25  1  0  0  0  0
  4  6  1  0  0  0  0
  5  4  1  0  0  0  0
  6  7  1  0  0  0  0
  6  8  2  0  0  0  0
  7 12  1  0  0  0  0
  8  9  1  0  0  0  0
  8 10  1  0  0  0  0
 10 11  1  0  0  0  0
 10 12  2  0  0  0  0
 12 32  1  0  0  0  0
 13 17  1  0  0  0  0
 17 18  1  1  0  0  0
 17 22  1  0  0  0  0
 23  1  1  0  0  0  0
 24  2  1  0  0  0  0
 26 22  1  1  0  0  0
 27 26  1  0  0  0  0
 27 28  1  0  0  0  0
 27 30  1  1  0  0  0
 28 13  1  0  0  0  0
 28 29  1  1  0  0  0
 31 30  1  0  0  0  0
 32 26  1  0  0  0  0
 32 31  1  0  0  0  0
M  CHG  3  14  -1  15  -1  16  -1
M  END
>  <CHROM.1>
-61.00591713,-49.00516930,165.16585238,-87.64897055,156.07613191,146.39144947
-52.43621328,15.74621085,69.09268736,9.73122455,1.70185314,-0.08916363,0.77458243
2.87812665

>  <Name>
2au4_lig

>  <RI>
0

>  <Rbt.Current_Directory>
/home/itssahil/PROJECTS/Mol_Feturizer/New_Systems/rnas/2au4

>  <Rbt.Executable>
rbdock ($Id: //depot/dev/client3/rdock/2013.1/src/exe/rbdock.cxx#4 $)

>  <Rbt.Library>
libRbt.so (2013.1, Build901 2013/11/27)

>  <Rbt.Parameter_File>
/export/apps/rDock/src/rDock_2013.1_src/data/scripts/dock_solv.prm

>  <Rbt.Receptor>
prm/pocket_docking_7.prm

>  <SCORE>
-45.0727

>  <SCORE.INTER>
-21.3561

>  <SCORE.INTER.CONST>
1

>  <SCORE.INTER.POLAR>
-3.24141

>  <SCORE.INTER.ROT>
8

>  <SCORE.INTER.SOLV>
34.6637

>  <SCORE.INTER.VDW>
-23.9206

>  <SCORE.INTER.norm>
-0.66738

>  <SCORE.INTRA>
-23.7166

>  <SCORE.INTRA.DIHEDRAL>
-45.0756

>  <SCORE.INTRA.DIHEDRAL.0>
76.3625

>  <SCORE.INTRA.POLAR>
0

>  <SCORE.INTRA.POLAR.0>
0

>  <SCORE.INTRA.REPUL>
-0.12705

>  <SCORE.INTRA.REPUL.0>
0.12705

>  <SCORE.INTRA.SOLV>
-5.00708

>  <SCORE.INTRA.SOLV.lig_0>
-119.383

>  <SCORE.INTRA.VDW>
1.96005

>  <SCORE.INTRA.VDW.0>
-5.10464

>  <SCORE.INTRA.norm>
-0.741142

>  <SCORE.RESTR>
0

>  <SCORE.RESTR.CAVITY>
0

>  <SCORE.RESTR.norm>
0

>  <SCORE.SYSTEM>
0

>  <SCORE.SYSTEM.CONST>
0

>  <SCORE.SYSTEM.DIHEDRAL>
0

>  <SCORE.SYSTEM.SOLV>
0

>  <SCORE.SYSTEM.norm>
0

>  <SCORE.heavy>
32

>  <SCORE.norm>
-1.40852

>  <RMSD>
5.872

$$$$
2au4_lig
 OpenBabel11021811423D
libRbt.so/2013.1/901 2013/11/27
 32 34  0  0  0  0  0  0  0  0999 V2000
   68.9545    9.5604    3.6978 P   0  0  1  0  0  0  0  0  0  0  0  0
   68.7057   12.2514    3.4404 P   0  0  1  0  0  0  0  0  0  0  0  0
   68.2475   14.7457    2.4357 P   0  0  2  0  0  0  0  0  0  0  0  0
   66.5208    9.1429    2.7317 C   0  0  0  0  0  0  0  0  0  0  0  0
   67.3688    9.3500    3.8734 O   0  0  0  0  0  0  0  0  0  0  0  0
   66.4146   10.3811    1.8535 C   0  0  0  0  0  0  0  0  0  0  0  0
   66.9107   10.1067    0.5273 O   0  0  0  0  0  0  0  0  0  0  0  0
   64.9681   10.8358    1.7365 C   0  0  0  0  0  0  0  0  0  0  0  0
   64.7911   12.1343    2.3157 O   0  0  0  0  0  0  0  0  0  0  0  0
   64.6408   10.8496    0.2624 C   0  0  0  0  0  0  0  0  0  0  0  0
   64.2332   12.1557   -0.1667 O   0  0  0  0  0  0  0  0  0  0  0  0
   65.9038   10.4137   -0.4602 C   0  0  0  0  0  0  0  0  0  0  0  0
   67.7839    6.1267   -2.4981 N   0  0  0  0  0  0  0  0  0  0  0  0
   69.5313    9.9109    5.0112 O   0  5  0  0  0  0  0  0  0  0  0  0
   67.4223   12.1369    4.1602 O   0  5  0  0  0  0  0  0  0  0  0  0
   67.7215   15.3376    1.1891 O   0  5  0  0  0  0  0  0  0  0  0  0
   68.3936    7.0398   -1.6709 C   0  0  1  0  0  0  0  0  0  0  0  0
   69.6553    6.7896   -1.3478 N   0  0  0  0  0  0  0  0  0  0  0  0
   69.4996    8.4210    2.9292 O   0  0  0  0  0  0  0  0  0  0  0  0
   69.9162   12.7116    4.1519 O   0  0  0  0  0  0  0  0  0  0  0  0
   69.4702   15.2961    3.0571 O   0  0  0  0  0  0  0  0  0  0  0  0
   67.7926    8.1294   -1.1994 N   0  0  0  0  0  0  0  0  0  0  0  0
   69.0283   10.8488    2.7732 O   0  0  0  0  0  0  0  0  0  0  0  0
   68.4875   13.1923    2.1785 O   0  0  0  0  0  0  0  0  0  0  0  0
   67.0740   14.7450    3.5328 O   0  0  0  0  0  0  0  0  0  0  0  0
   66.5141    8.2329   -1.6299 C   0  0  2  0  0  0  0  0  0  0  0  0
   65.8252    7.3629   -2.4595 C   0  0  2  0  0  0  0  0  0  0  0  0
   66.4800    6.2079   -2.9530 C   0  0  1  0  0  0  0  0  0  0  0  0
   66.0415    5.3505   -3.7080 O   0  0  0  0  0  0  0  0  0  0  0  0
   64.5189    7.8131   -2.6788 N   0  0  0  0  0  0  0  0  0  0  0  0
   64.5032    8.9030   -1.9831 C   0  0  0  0  0  0  0  0  0  0  0  0
   65.6364    9.2450   -1.3209 N   0  0  0  0  0  0  0  0  0  0  0  0
  1  5  1  1  0  0  0
  1 14  1  0  0  0  0
  1 19  2  0  0  0  0
  2 15  1  1  0  0  0
  2 20  2  0  0  0  0
  2 23  1  0  0  0  0
  3 16  1  6  0  0  0
  3 21  2  0  0  0  0
  3 24  1  0  0  0  0
  3 25  1  0  0  0  0
  4  6  1  0  0  0  0
  5  4  1  0  0  0  0
  6  7  1  0  0  0  0
  6  8  2  0  0  0  0
  7 12  1  0  0  0  0
  8  9  1  0  0  0  0
  8 10  1  0  0  0  0
 10 11  1  0  0  0  0
 10 12  2  0  0  0  0
 12 32  1  0  0  0  0
 13 17  1  0  0  0  0
 17 18  1  6  0  0  0
 17 22  1  0  0  0  0
 23  1  1  0  0  0  0
 24  2  1  0  0  0  0
 26 22  1  6  0  0  0
 27 26  1  0  0  0  0
 27 28  1  0  0  0  0
 27 30  1  6  0  0  0
 28 13  1  0  0  0  0
 28 29  1  6  0  0  0
 31 30  1  0  0  0  0
 32 26  1  0  0  0  0
 32 31  1  0  0  0  0
M  CHG  3  14  -1  15  -1  16  -1
M  END
>  <CHROM.1>
173.17130207,-50.74327497,-165.14145099,119.07777412,-68.00152962,-27.84697157
74.55040779,70.36474846,67.35804793,10.46738940,1.19747153,-1.23009422,0.78641855
-2.64606180

>  <Name>
2au4_lig

>  <RI>
0

>  <Rbt.Current_Directory>
/home/itssahil/PROJECTS/Mol_Feturizer/New_Systems/rnas/2au4

>  <Rbt.Executable>
rbdock ($Id: //depot/dev/client3/rdock/2013.1/src/exe/rbdock.cxx#4 $)

>  <Rbt.Library>
libRbt.so (2013.1, Build901 2013/11/27)

>  <Rbt.Parameter_File>
/export/apps/rDock/src/rDock_2013.1_src/data/scripts/dock_solv.prm

>  <Rbt.Receptor>
prm/pocket_docking_5.prm

>  <SCORE>
-33.721

>  <SCORE.INTER>
-7.08115

>  <SCORE.INTER.CONST>
1

>  <SCORE.INTER.POLAR>
-1

>  <SCORE.INTER.ROT>
8

>  <SCORE.INTER.SOLV>
18.8043

>  <SCORE.INTER.VDW>
-16.5889

>  <SCORE.INTER.norm>
-0.221286

>  <SCORE.INTRA>
-26.6399

>  <SCORE.INTRA.DIHEDRAL>
-50.1771

>  <SCORE.INTRA.DIHEDRAL.0>
76.3625

>  <SCORE.INTRA.POLAR>
0

>  <SCORE.INTRA.POLAR.0>
0

>  <SCORE.INTRA.REPUL>
0.0689618

>  <SCORE.INTRA.REPUL.0>
0.12705

>  <SCORE.INTRA.SOLV>
-3.10982

>  <SCORE.INTRA.SOLV.lig_0>
-119.383

>  <SCORE.INTRA.VDW>
-0.341259

>  <SCORE.INTRA.VDW.0>
-5.10464

>  <SCORE.INTRA.norm>
-0.832497

>  <SCORE.RESTR>
0

>  <SCORE.RESTR.CAVITY>
0

>  <SCORE.RESTR.norm>
0

>  <SCORE.SYSTEM>
0

>  <SCORE.SYSTEM.CONST>
0

>  <SCORE.SYSTEM.DIHEDRAL>
0

>  <SCORE.SYSTEM.SOLV>
0

>  <SCORE.SYSTEM.norm>
0

>  <SCORE.heavy>
32

>  <SCORE.norm>
-1.05378

>  <RMSD>
5.881

$$$$
2au4_lig
 OpenBabel11021811423D
libRbt.so/2013.1/901 2013/11/27
 32 34  0  0  0  0  0  0  0  0999 V2000
   69.7335    9.5501    5.3262 P   0  0  1  0  0  0  0  0  0  0  0  0
   71.8114   11.2250    4.8300 P   0  0  1  0  0  0  0  0  0  0  0  0
   73.2118   11.3780    2.4941 P   0  0  2  0  0  0  0  0  0  0  0  0
   67.8379    8.2347    4.0198 C   0  0  0  0  0  0  0  0  0  0  0  0
   69.1656    8.2481    4.5701 O   0  0  0  0  0  0  0  0  0  0  0  0
   67.6233    7.0853    3.0460 C   0  0  0  0  0  0  0  0  0  0  0  0
   66.8495    7.5209    1.9094 O   0  0  0  0  0  0  0  0  0  0  0  0
   68.9547    6.5524    2.5401 C   0  0  0  0  0  0  0  0  0  0  0  0
   69.1524    5.1943    2.9515 O   0  0  0  0  0  0  0  0  0  0  0  0
   68.9169    6.6635    1.0346 C   0  0  0  0  0  0  0  0  0  0  0  0
   69.0955    5.3829    0.4148 O   0  0  0  0  0  0  0  0  0  0  0  0
   67.5602    7.2490    0.6829 C   0  0  0  0  0  0  0  0  0  0  0  0
   65.6817   11.8707   -0.4024 N   0  0  0  0  0  0  0  0  0  0  0  0
   68.7981   10.6705    5.1019 O   0  5  0  0  0  0  0  0  0  0  0  0
   71.0538   12.3194    4.1925 O   0  5  0  0  0  0  0  0  0  0  0  0
   71.9108   10.9743    1.9235 O   0  5  0  0  0  0  0  0  0  0  0  0
   65.2193   10.9272    0.4839 C   0  0  1  0  0  0  0  0  0  0  0  0
   64.1243   11.2442    1.1618 N   0  0  0  0  0  0  0  0  0  0  0  0
   70.1153    9.1677    6.7025 O   0  0  0  0  0  0  0  0  0  0  0  0
   72.1052   11.2718    6.2774 O   0  0  0  0  0  0  0  0  0  0  0  0
   74.4657   10.8293    1.9368 O   0  0  0  0  0  0  0  0  0  0  0  0
   65.8022    9.7474    0.6813 N   0  0  0  0  0  0  0  0  0  0  0  0
   71.0665    9.8590    4.5211 O   0  0  0  0  0  0  0  0  0  0  0  0
   73.1867   11.0520    4.0529 O   0  0  0  0  0  0  0  0  0  0  0  0
   73.3019   12.9817    2.4699 O   0  0  0  0  0  0  0  0  0  0  0  0
   66.9006    9.5859   -0.0921 C   0  0  2  0  0  0  0  0  0  0  0  0
   67.4335   10.4805   -1.0062 C   0  0  2  0  0  0  0  0  0  0  0  0
   66.8003   11.7318   -1.2044 C   0  0  1  0  0  0  0  0  0  0  0  0
   67.1120   12.6265   -1.9790 O   0  0  0  0  0  0  0  0  0  0  0  0
   68.5771    9.9504   -1.6131 N   0  0  0  0  0  0  0  0  0  0  0  0
   68.6594    8.7944   -1.0396 C   0  0  0  0  0  0  0  0  0  0  0  0
   67.7136    8.4776   -0.1204 N   0  0  0  0  0  0  0  0  0  0  0  0
  1  5  1  6  0  0  0
  1 14  1  0  0  0  0
  1 19  2  0  0  0  0
  2 15  1  6  0  0  0
  2 20  2  0  0  0  0
  2 23  1  0  0  0  0
  3 16  1  6  0  0  0
  3 21  2  0  0  0  0
  3 24  1  0  0  0  0
  3 25  1  0  0  0  0
  4  6  1  0  0  0  0
  5  4  1  0  0  0  0
  6  7  1  0  0  0  0
  6  8  2  0  0  0  0
  7 12  1  0  0  0  0
  8  9  1  0  0  0  0
  8 10  1  0  0  0  0
 10 11  1  0  0  0  0
 10 12  2  0  0  0  0
 12 32  1  0  0  0  0
 13 17  1  0  0  0  0
 17 18  1  6  0  0  0
 17 22  1  0  0  0  0
 23  1  1  0  0  0  0
 24  2  1  0  0  0  0
 26 22  1  6  0  0  0
 27 26  1  0  0  0  0
 27 28  1  0  0  0  0
 27 30  1  6  0  0  0
 28 13  1  0  0  0  0
 28 29  1  6  0  0  0
 31 30  1  0  0  0  0
 32 26  1  0  0  0  0
 32 31  1  0  0  0  0
M  CHG  3  14  -1  15  -1  16  -1
M  END
>  <CHROM.1>
-10.36591327,-75.35403844,-34.91408666,-139.72938420,164.84096022,-25.75662542
170.73324905,-31.58683506,69.42082625,9.80317818,2.35726575,0.27701016,0.65891616
2.39841946

>  <Name>
2au4_lig

>  <RI>
0

>  <Rbt.Current_Directory>
/home/itssahil/PROJECTS/Mol_Feturizer/New_Systems/rnas/2au4

>  <Rbt.Executable>
rbdock ($Id: //depot/dev/client3/rdock/2013.1/src/exe/rbdock.cxx#4 $)

>  <Rbt.Library>
libRbt.so (2013.1, Build901 2013/11/27)

>  <Rbt.Parameter_File>
/export/apps/rDock/src/rDock_2013.1_src/data/scripts/dock_solv.prm

>  <Rbt.Receptor>
prm/pocket_docking_8.prm

>  <SCORE>
-48.3554

>  <SCORE.INTER>
-25.0878

>  <SCORE.INTER.CONST>
1

>  <SCORE.INTER.POLAR>
-2.50544

>  <SCORE.INTER.ROT>
8

>  <SCORE.INTER.SOLV>
23.051

>  <SCORE.INTER.VDW>
-24.9907

>  <SCORE.INTER.norm>
-0.783993

>  <SCORE.INTRA>
-23.3461

>  <SCORE.INTRA.DIHEDRAL>
-46.0943

>  <SCORE.INTRA.DIHEDRAL.0>
76.3625

>  <SCORE.INTRA.POLAR>
0

>  <SCORE.INTRA.POLAR.0>
0

>  <SCORE.INTRA.REPUL>
0.0714174

>  <SCORE.INTRA.REPUL.0>
0.12705

>  <SCORE.INTRA.SOLV>
-5.5672

>  <SCORE.INTRA.SOLV.lig_0>
-119.383

>  <SCORE.INTRA.VDW>
2.12761

>  <SCORE.INTRA.VDW.0>
-5.10464

>  <SCORE.INTRA.norm>
-0.729565

>  <SCORE.RESTR>
0.0784212

>  <SCORE.RESTR.CAVITY>
0.0784212

>  <SCORE.RESTR.norm>
0.00245066

>  <SCORE.SYSTEM>
0

>  <SCORE.SYSTEM.CONST>
0

>  <SCORE.SYSTEM.DIHEDRAL>
0

>  <SCORE.SYSTEM.SOLV>
0

>  <SCORE.SYSTEM.norm>
0

>  <SCORE.heavy>
32

>  <SCORE.norm>
-1.51111

>  <RMSD>
5.896

$$$$
2au4_lig
 OpenBabel11021811423D
libRbt.so/2013.1/901 2013/11/27
 32 34  0  0  0  0  0  0  0  0999 V2000
   69.7626    8.8837    4.4045 P   0  0  1  0  0  0  0  0  0  0  0  0
   71.6621   10.7656    4.8735 P   0  0  1  0  0  0  0  0  0  0  0  0
   72.0834   12.1848    2.5824 P   0  0  2  0  0  0  0  0  0  0  0  0
   68.7903    6.7854    3.1074 C   0  0  0  0  0  0  0  0  0  0  0  0
   69.4759    8.0477    3.0597 O   0  0  0  0  0  0  0  0  0  0  0  0
   68.3843    6.2912    1.7267 C   0  0  0  0  0  0  0  0  0  0  0  0
   67.0586    6.7508    1.3927 O   0  0  0  0  0  0  0  0  0  0  0  0
   69.3473    6.8032    0.6669 C   0  0  0  0  0  0  0  0  0  0  0  0
   70.0434    5.7187    0.0407 O   0  0  0  0  0  0  0  0  0  0  0  0
   68.5150    7.5655   -0.3364 C   0  0  0  0  0  0  0  0  0  0  0  0
   68.6463    7.0075   -1.6508 O   0  0  0  0  0  0  0  0  0  0  0  0
   67.0774    7.4781    0.1461 C   0  0  0  0  0  0  0  0  0  0  0  0
   67.0980   12.3306   -1.4411 N   0  0  0  0  0  0  0  0  0  0  0  0
   68.8679   10.0582    4.4285 O   0  5  0  0  0  0  0  0  0  0  0  0
   70.8765   10.9080    6.1147 O   0  5  0  0  0  0  0  0  0  0  0  0
   73.3032   12.8515    3.0813 O   0  5  0  0  0  0  0  0  0  0  0  0
   67.8498   11.2663   -1.8789 C   0  0  1  0  0  0  0  0  0  0  0  0
   68.7150   11.5186   -2.8520 N   0  0  0  0  0  0  0  0  0  0  0  0
   69.7855    7.9459    5.5474 O   0  0  0  0  0  0  0  0  0  0  0  0
   73.1378   10.8255    4.9192 O   0  0  0  0  0  0  0  0  0  0  0  0
   71.2458   12.8449    1.5593 O   0  0  0  0  0  0  0  0  0  0  0  0
   67.7521   10.0358   -1.3820 N   0  0  0  0  0  0  0  0  0  0  0  0
   71.2446    9.4042    4.1743 O   0  0  0  0  0  0  0  0  0  0  0  0
   71.1560   11.8567    3.8350 O   0  0  0  0  0  0  0  0  0  0  0  0
   72.4849   10.7241    2.0477 O   0  0  0  0  0  0  0  0  0  0  0  0
   66.8284    9.9560   -0.3966 C   0  0  2  0  0  0  0  0  0  0  0  0
   66.0310   10.9730    0.1032 C   0  0  2  0  0  0  0  0  0  0  0  0
   66.1481   12.2772   -0.4369 C   0  0  1  0  0  0  0  0  0  0  0  0
   65.5497   13.2923   -0.1068 O   0  0  0  0  0  0  0  0  0  0  0  0
   65.1992   10.4982    1.1228 N   0  0  0  0  0  0  0  0  0  0  0  0
   65.5406    9.2521    1.1729 C   0  0  0  0  0  0  0  0  0  0  0  0
   66.4995    8.8257    0.3136 N   0  0  0  0  0  0  0  0  0  0  0  0
  1  5  1  6  0  0  0
  1 14  1  0  0  0  0
  1 19  2  0  0  0  0
  2 15  1  1  0  0  0
  2 20  2  0  0  0  0
  2 23  1  0  0  0  0
  3 16  1  1  0  0  0
  3 21  2  0  0  0  0
  3 24  1  0  0  0  0
  3 25  1  0  0  0  0
  4  6  1  0  0  0  0
  5  4  1  0  0  0  0
  6  7  1  0  0  0  0
  6  8  2  0  0  0  0
  7 12  1  0  0  0  0
  8  9  1  0  0  0  0
  8 10  1  0  0  0  0
 10 11  1  0  0  0  0
 10 12  2  0  0  0  0
 12 32  1  0  0  0  0
 13 17  1  0  0  0  0
 17 18  1  1  0  0  0
 17 22  1  0  0  0  0
 23  1  1  0  0  0  0
 24  2  1  0  0  0  0
 26 22  1  1  0  0  0
 27 26  1  0  0  0  0
 27 28  1  0  0  0  0
 27 30  1  1  0  0  0
 28 13  1  0  0  0  0
 28 29  1  1  0  0  0
 31 30  1  0  0  0  0
 32 26  1  0  0  0  0
 32 31  1  0  0  0  0
M  CHG  3  14  -1  15  -1  16  -1
M  END
>  <CHROM.1>
-107.55204313,29.51974841,-67.69566027,-91.08192771,168.95541480,150.27815385
151.58950034,163.60677270,69.25738802,9.87129845,1.89390722,0.10994891,0.80623286
2.76574726

>  <Name>
2au4_lig

>  <RI>
0

>  <Rbt.Current_Directory>
/home/itssahil/PROJECTS/Mol_Feturizer/New_Systems/rnas/2au4

>  <Rbt.Executable>
rbdock ($Id: //depot/dev/client3/rdock/2013.1/src/exe/rbdock.cxx#4 $)

>  <Rbt.Library>
libRbt.so (2013.1, Build901 2013/11/27)

>  <Rbt.Parameter_File>
/export/apps/rDock/src/rDock_2013.1_src/data/scripts/dock_solv.prm

>  <Rbt.Receptor>
prm/pocket_docking_6.prm

>  <SCORE>
-44.7911

>  <SCORE.INTER>
-20.0676

>  <SCORE.INTER.CONST>
1

>  <SCORE.INTER.POLAR>
-2.72422

>  <SCORE.INTER.ROT>
8

>  <SCORE.INTER.SOLV>
28.663

>  <SCORE.INTER.VDW>
-22.7853

>  <SCORE.INTER.norm>
-0.627112

>  <SCORE.INTRA>
-24.7235

>  <SCORE.INTRA.DIHEDRAL>
-45.8588

>  <SCORE.INTRA.DIHEDRAL.0>
76.3625

>  <SCORE.INTRA.POLAR>
0

>  <SCORE.INTRA.POLAR.0>
0

>  <SCORE.INTRA.REPUL>
-0.12705

>  <SCORE.INTRA.REPUL.0>
0.12705

>  <SCORE.INTRA.SOLV>
-6.38715

>  <SCORE.INTRA.SOLV.lig_0>
-119.383

>  <SCORE.INTRA.VDW>
2.03469

>  <SCORE.INTRA.VDW.0>
-5.10464

>  <SCORE.INTRA.norm>
-0.772611

>  <SCORE.RESTR>
0

>  <SCORE.RESTR.CAVITY>
0

>  <SCORE.RESTR.norm>
0

>  <SCORE.SYSTEM>
0

>  <SCORE.SYSTEM.CONST>
0

>  <SCORE.SYSTEM.DIHEDRAL>
0

>  <SCORE.SYSTEM.SOLV>
0

>  <SCORE.SYSTEM.norm>
0

>  <SCORE.heavy>
32

>  <SCORE.norm>
-1.39972

>  <RMSD>
5.907

$$$$
2au4_lig
 OpenBabel11021811423D
libRbt.so/2013.1/901 2013/11/27
 32 34  0  0  0  0  0  0  0  0999 V2000
   72.7863   11.9512    2.6159 P   0  0  1  0  0  0  0  0  0  0  0  0
   73.2176   11.6607   -0.0485 P   0  0  1  0  0  0  0  0  0  0  0  0
   71.7179   13.6104   -1.2276 P   0  0  2  0  0  0  0  0  0  0  0  0
   70.6053   10.4532    2.4431 C   0  0  0  0  0  0  0  0  0  0  0  0
   71.4817   11.2559    3.2514 O   0  0  0  0  0  0  0  0  0  0  0  0
   69.4435    9.8776    3.2396 C   0  0  0  0  0  0  0  0  0  0  0  0
   68.5184    9.1964    2.3676 O   0  0  0  0  0  0  0  0  0  0  0  0
   69.9419    8.8827    4.2762 C   0  0  0  0  0  0  0  0  0  0  0  0
   69.6619    9.3429    5.6038 O   0  0  0  0  0  0  0  0  0  0  0  0
   69.2352    7.5785    3.9933 C   0  0  0  0  0  0  0  0  0  0  0  0
   68.4767    7.1419    5.1292 O   0  0  0  0  0  0  0  0  0  0  0  0
   68.3266    7.8338    2.8032 C   0  0  0  0  0  0  0  0  0  0  0  0
   67.4017    6.5360   -2.0472 N   0  0  0  0  0  0  0  0  0  0  0  0
   73.0033   13.2481    3.2880 O   0  5  0  0  0  0  0  0  0  0  0  0
   74.5570   12.2744    0.0388 O   0  5  0  0  0  0  0  0  0  0  0  0
   72.5810   14.5542   -0.4891 O   0  5  0  0  0  0  0  0  0  0  0  0
   66.8942    7.5805   -1.3117 C   0  0  1  0  0  0  0  0  0  0  0  0
   66.0343    8.3751   -1.9348 N   0  0  0  0  0  0  0  0  0  0  0  0
   73.8752   10.9524    2.5632 O   0  0  0  0  0  0  0  0  0  0  0  0
   73.0745   10.1900   -0.0463 O   0  0  0  0  0  0  0  0  0  0  0  0
   70.3515   13.3238   -0.7429 O   0  0  0  0  0  0  0  0  0  0  0  0
   67.2157    7.8181   -0.0425 N   0  0  0  0  0  0  0  0  0  0  0  0
   72.3254   12.2455    1.1255 O   0  0  0  0  0  0  0  0  0  0  0  0
   72.4943   12.2248   -1.3461 O   0  0  0  0  0  0  0  0  0  0  0  0
   71.6253   14.0955   -2.7562 O   0  0  0  0  0  0  0  0  0  0  0  0
   68.0982    6.9120    0.4379 C   0  0  2  0  0  0  0  0  0  0  0  0
   68.6573    5.8351   -0.2311 C   0  0  2  0  0  0  0  0  0  0  0  0
   68.3039    5.5963   -1.5817 C   0  0  1  0  0  0  0  0  0  0  0  0
   68.6751    4.6895   -2.3149 O   0  0  0  0  0  0  0  0  0  0  0  0
   69.5271    5.1266    0.6048 N   0  0  0  0  0  0  0  0  0  0  0  0
   69.4389    5.8059    1.7015 C   0  0  0  0  0  0  0  0  0  0  0  0
   68.6178    6.8855    1.7105 N   0  0  0  0  0  0  0  0  0  0  0  0
  1  5  1  1  0  0  0
  1 14  1  0  0  0  0
  1 19  2  0  0  0  0
  2 15  1  1  0  0  0
  2 20  2  0  0  0  0
  2 23  1  0  0  0  0
  3 16  1  1  0  0  0
  3 21  2  0  0  0  0
  3 24  1  0  0  0  0
  3 25  1  0  0  0  0
  4  6  1  0  0  0  0
  5  4  1  0  0  0  0
  6  7  1  0  0  0  0
  6  8  2  0  0  0  0
  7 12  1  0  0  0  0
  8  9  1  0  0  0  0
  8 10  1  0  0  0  0
 10 11  1  0  0  0  0
 10 12  2  0  0  0  0
 12 32  1  0  0  0  0
 13 17  1  0  0  0  0
 17 18  1  1  0  0  0
 17 22  1  0  0  0  0
 23  1  1  0  0  0  0
 24  2  1  0  0  0  0
 26 22  1  1  0  0  0
 27 26  1  0  0  0  0
 27 28  1  0  0  0  0
 27 30  1  1  0  0  0
 28 13  1  0  0  0  0
 28 29  1  1  0  0  0
 31 30  1  0  0  0  0
 32 26  1  0  0  0  0
 32 31  1  0  0  0  0
M  CHG  3  14  -1  15  -1  16  -1
M  END
>  <CHROM.1>
145.75705773,-62.61675600,45.13623916,174.10989263,179.36851500,-51.98928121
-124.42270858,-85.12561062,70.52931495,9.88356281,0.89952529,-0.21462651
0.92828564,1.80481144

>  <Name>
2au4_lig

>  <RI>
0

>  <Rbt.Current_Directory>
/home/itssahil/PROJECTS/Mol_Feturizer/New_Systems/rnas/2au4

>  <Rbt.Executable>
rbdock ($Id: //depot/dev/client3/rdock/2013.1/src/exe/rbdock.cxx#4 $)

>  <Rbt.Library>
libRbt.so (2013.1, Build901 2013/11/27)

>  <Rbt.Parameter_File>
/export/apps/rDock/src/rDock_2013.1_src/data/scripts/dock_solv.prm

>  <Rbt.Receptor>
prm/blind_docking_80.prm

>  <SCORE>
-30.1493

>  <SCORE.INTER>
-11.4193

>  <SCORE.INTER.CONST>
1

>  <SCORE.INTER.POLAR>
-1.22662

>  <SCORE.INTER.ROT>
8

>  <SCORE.INTER.SOLV>
35.0971

>  <SCORE.INTER.VDW>
-24.1565

>  <SCORE.INTER.norm>
-0.356852

>  <SCORE.INTRA>
-19.5058

>  <SCORE.INTRA.DIHEDRAL>
-38.7191

>  <SCORE.INTRA.DIHEDRAL.0>
76.3625

>  <SCORE.INTRA.POLAR>
0

>  <SCORE.INTRA.POLAR.0>
0

>  <SCORE.INTRA.REPUL>
-0.0611416

>  <SCORE.INTRA.REPUL.0>
0.12705

>  <SCORE.INTRA.SOLV>
-4.28232

>  <SCORE.INTRA.SOLV.lig_0>
-119.383

>  <SCORE.INTRA.VDW>
2.30058

>  <SCORE.INTRA.VDW.0>
-5.10464

>  <SCORE.INTRA.norm>
-0.609558

>  <SCORE.RESTR>
0.775798

>  <SCORE.RESTR.CAVITY>
0.775798

>  <SCORE.RESTR.norm>
0.0242437

>  <SCORE.SYSTEM>
0

>  <SCORE.SYSTEM.CONST>
0

>  <SCORE.SYSTEM.DIHEDRAL>
0

>  <SCORE.SYSTEM.SOLV>
0

>  <SCORE.SYSTEM.norm>
0

>  <SCORE.heavy>
32

>  <SCORE.norm>
-0.942166

>  <RMSD>
5.918

$$$$
2au4_lig
 OpenBabel11021811423D
libRbt.so/2013.1/901 2013/11/27
 32 34  0  0  0  0  0  0  0  0999 V2000
   69.2783    9.4996    3.8550 P   0  0  1  0  0  0  0  0  0  0  0  0
   71.5830   10.5186    2.8453 P   0  0  1  0  0  0  0  0  0  0  0  0
   71.8247   13.1641    2.2258 P   0  0  2  0  0  0  0  0  0  0  0  0
   68.4384    7.0884    3.1399 C   0  0  0  0  0  0  0  0  0  0  0  0
   68.1635    8.4923    3.2787 O   0  0  0  0  0  0  0  0  0  0  0  0
   68.1382    6.5722    1.7403 C   0  0  0  0  0  0  0  0  0  0  0  0
   66.8386    7.0191    1.3026 O   0  0  0  0  0  0  0  0  0  0  0  0
   69.1744    7.0749    0.7473 C   0  0  0  0  0  0  0  0  0  0  0  0
   69.9203    5.9858    0.1902 O   0  0  0  0  0  0  0  0  0  0  0  0
   68.4150    7.8178   -0.3258 C   0  0  0  0  0  0  0  0  0  0  0  0
   68.6459    7.2420   -1.6186 O   0  0  0  0  0  0  0  0  0  0  0  0
   66.9460    7.7287    0.0503 C   0  0  0  0  0  0  0  0  0  0  0  0
   67.0516   12.5551   -1.6112 N   0  0  0  0  0  0  0  0  0  0  0  0
   68.6716   10.8376    4.0046 O   0  5  0  0  0  0  0  0  0  0  0  0
   72.1267   10.3114    4.2016 O   0  5  0  0  0  0  0  0  0  0  0  0
   71.1665   14.4333    2.5961 O   0  5  0  0  0  0  0  0  0  0  0  0
   67.8378   11.4889   -1.9780 C   0  0  1  0  0  0  0  0  0  0  0  0
   68.7674   11.7311   -2.8925 N   0  0  0  0  0  0  0  0  0  0  0  0
   69.9462    8.8559    5.0063 O   0  0  0  0  0  0  0  0  0  0  0  0
   72.4558   10.3569    1.6640 O   0  0  0  0  0  0  0  0  0  0  0  0
   72.1322   12.8766    0.8092 O   0  0  0  0  0  0  0  0  0  0  0  0
   67.7122   10.2658   -1.4689 N   0  0  0  0  0  0  0  0  0  0  0  0
   70.3252    9.5693    2.6636 O   0  0  0  0  0  0  0  0  0  0  0  0
   70.9338   11.9678    2.7843 O   0  0  0  0  0  0  0  0  0  0  0  0
   73.1782   13.0253    3.0797 O   0  0  0  0  0  0  0  0  0  0  0  0
   66.7223   10.1959   -0.5492 C   0  0  2  0  0  0  0  0  0  0  0  0
   65.8867   11.2156   -0.1230 C   0  0  2  0  0  0  0  0  0  0  0  0
   66.0342   12.5117   -0.6749 C   0  0  1  0  0  0  0  0  0  0  0  0
   65.4088   13.5281   -0.4041 O   0  0  0  0  0  0  0  0  0  0  0  0
   64.9882   10.7519    0.8439 N   0  0  0  0  0  0  0  0  0  0  0  0
   65.3319    9.5090    0.9382 C   0  0  0  0  0  0  0  0  0  0  0  0
   66.3507    9.0751    0.1549 N   0  0  0  0  0  0  0  0  0  0  0  0
  1  5  1  6  0  0  0
  1 14  1  0  0  0  0
  1 19  2  0  0  0  0
  2 15  1  1  0  0  0
  2 20  2  0  0  0  0
  2 23  1  0  0  0  0
  3 16  1  1  0  0  0
  3 21  2  0  0  0  0
  3 24  1  0  0  0  0
  3 25  1  0  0  0  0
  4  6  1  0  0  0  0
  5  4  1  0  0  0  0
  6  7  1  0  0  0  0
  6  8  2  0  0  0  0
  7 12  1  0  0  0  0
  8  9  1  0  0  0  0
  8 10  1  0  0  0  0
 10 11  1  0  0  0  0
 10 12  2  0  0  0  0
 12 32  1  0  0  0  0
 13 17  1  0  0  0  0
 17 18  1  1  0  0  0
 17 22  1  0  0  0  0
 23  1  1  0  0  0  0
 24  2  1  0  0  0  0
 26 22  1  1  0  0  0
 27 26  1  0  0  0  0
 27 28  1  0  0  0  0
 27 30  1  1  0  0  0
 28 13  1  0  0  0  0
 28 29  1  1  0  0  0
 31 30  1  0  0  0  0
 32 26  1  0  0  0  0
 32 31  1  0  0  0  0
M  CHG  3  14  -1  15  -1  16  -1
M  END
>  <CHROM.1>
-174.57420296,44.71886606,-165.04441093,-47.86740173,-127.44527548,150.54342906
178.43159592,95.08071473,69.06528627,10.24239894,1.39813360,-0.14404685,0.66919306
2.76724640

>  <Name>
2au4_lig

>  <RI>
0

>  <Rbt.Current_Directory>
/home/itssahil/PROJECTS/Mol_Feturizer/New_Systems/rnas/2au4

>  <Rbt.Executable>
rbdock ($Id: //depot/dev/client3/rdock/2013.1/src/exe/rbdock.cxx#4 $)

>  <Rbt.Library>
libRbt.so (2013.1, Build901 2013/11/27)

>  <Rbt.Parameter_File>
/export/apps/rDock/src/rDock_2013.1_src/data/scripts/dock_solv.prm

>  <Rbt.Receptor>
prm/pocket_docking_6.prm

>  <SCORE>
-40.5754

>  <SCORE.INTER>
-16.3922

>  <SCORE.INTER.CONST>
1

>  <SCORE.INTER.POLAR>
-2.28959

>  <SCORE.INTER.ROT>
8

>  <SCORE.INTER.SOLV>
26.4354

>  <SCORE.INTER.VDW>
-21.0413

>  <SCORE.INTER.norm>
-0.512257

>  <SCORE.INTRA>
-24.1832

>  <SCORE.INTRA.DIHEDRAL>
-42.3924

>  <SCORE.INTRA.DIHEDRAL.0>
76.3625

>  <SCORE.INTRA.POLAR>
0

>  <SCORE.INTRA.POLAR.0>
0

>  <SCORE.INTRA.REPUL>
-0.12705

>  <SCORE.INTRA.REPUL.0>
0.12705

>  <SCORE.INTRA.SOLV>
-5.84991

>  <SCORE.INTRA.SOLV.lig_0>
-119.383

>  <SCORE.INTRA.VDW>
0.573226

>  <SCORE.INTRA.VDW.0>
-5.10464

>  <SCORE.INTRA.norm>
-0.755724

>  <SCORE.RESTR>
0

>  <SCORE.RESTR.CAVITY>
0

>  <SCORE.RESTR.norm>
0

>  <SCORE.SYSTEM>
0

>  <SCORE.SYSTEM.CONST>
0

>  <SCORE.SYSTEM.DIHEDRAL>
0

>  <SCORE.SYSTEM.SOLV>
0

>  <SCORE.SYSTEM.norm>
0

>  <SCORE.heavy>
32

>  <SCORE.norm>
-1.26798

>  <RMSD>
5.945

$$$$
2au4_lig
 OpenBabel11021811423D
libRbt.so/2013.1/901 2013/11/27
 32 34  0  0  0  0  0  0  0  0999 V2000
   68.9218    5.4783   -2.4002 P   0  0  1  0  0  0  0  0  0  0  0  0
   71.2976    4.7940   -1.2792 P   0  0  1  0  0  0  0  0  0  0  0  0
   71.0796    4.8054    1.4398 P   0  0  2  0  0  0  0  0  0  0  0  0
   66.3229    5.9522   -2.1732 C   0  0  0  0  0  0  0  0  0  0  0  0
   67.6700    6.3043   -1.8169 O   0  0  0  0  0  0  0  0  0  0  0  0
   65.2883    6.7934   -1.4402 C   0  0  0  0  0  0  0  0  0  0  0  0
   65.3811    6.5846   -0.0161 O   0  0  0  0  0  0  0  0  0  0  0  0
   65.5014    8.2730   -1.7197 C   0  0  0  0  0  0  0  0  0  0  0  0
   64.3796    8.8293   -2.4163 O   0  0  0  0  0  0  0  0  0  0  0  0
   65.6925    8.9397   -0.3784 C   0  0  0  0  0  0  0  0  0  0  0  0
   64.7061    9.9570   -0.1589 O   0  0  0  0  0  0  0  0  0  0  0  0
   65.5772    7.8419    0.6651 C   0  0  0  0  0  0  0  0  0  0  0  0
   69.2040   10.5522    3.0245 N   0  0  0  0  0  0  0  0  0  0  0  0
   68.6091    4.0368   -2.3291 O   0  5  0  0  0  0  0  0  0  0  0  0
   70.7834    3.4111   -1.2445 O   0  5  0  0  0  0  0  0  0  0  0  0
   69.6869    4.5553    1.0169 O   0  5  0  0  0  0  0  0  0  0  0  0
   68.1511   10.9874    2.2553 C   0  0  1  0  0  0  0  0  0  0  0  0
   68.0488   12.2990    2.0870 N   0  0  0  0  0  0  0  0  0  0  0  0
   69.3306    6.0854   -3.6849 O   0  0  0  0  0  0  0  0  0  0  0  0
   72.2597    5.2012   -2.3242 O   0  0  0  0  0  0  0  0  0  0  0  0
   71.3715    5.8521    2.4414 O   0  0  0  0  0  0  0  0  0  0  0  0
   67.2622   10.1755    1.6886 N   0  0  0  0  0  0  0  0  0  0  0  0
   70.0591    5.7837   -1.3356 O   0  0  0  0  0  0  0  0  0  0  0  0
   71.9389    5.1233    0.1370 O   0  0  0  0  0  0  0  0  0  0  0  0
   71.7122    3.4200    1.9510 O   0  0  0  0  0  0  0  0  0  0  0  0
   67.5167    8.8741    1.9572 C   0  0  2  0  0  0  0  0  0  0  0  0
   68.5494    8.3512    2.7188 C   0  0  2  0  0  0  0  0  0  0  0  0
   69.4873    9.2296    3.3147 C   0  0  1  0  0  0  0  0  0  0  0  0
   70.4669    8.9486    3.9921 O   0  0  0  0  0  0  0  0  0  0  0  0
   68.4779    6.9548    2.7632 N   0  0  0  0  0  0  0  0  0  0  0  0
   67.4297    6.7286    2.0406 C   0  0  0  0  0  0  0  0  0  0  0  0
   66.7839    7.7987    1.5137 N   0  0  0  0  0  0  0  0  0  0  0  0
  1  5  1  1  0  0  0
  1 14  1  0  0  0  0
  1 19  2  0  0  0  0
  2 15  1  6  0  0  0
  2 20  2  0  0  0  0
  2 23  1  0  0  0  0
  3 16  1  6  0  0  0
  3 21  2  0  0  0  0
  3 24  1  0  0  0  0
  3 25  1  0  0  0  0
  4  6  1  0  0  0  0
  5  4  1  0  0  0  0
  6  7  1  0  0  0  0
  6  8  2  0  0  0  0
  7 12  1  0  0  0  0
  8  9  1  0  0  0  0
  8 10  1  0  0  0  0
 10 11  1  0  0  0  0
 10 12  2  0  0  0  0
 12 32  1  0  0  0  0
 13 17  1  0  0  0  0
 17 18  1  6  0  0  0
 17 22  1  0  0  0  0
 23  1  1  0  0  0  0
 24  2  1  0  0  0  0
 26 22  1  6  0  0  0
 27 26  1  0  0  0  0
 27 28  1  0  0  0  0
 27 30  1  6  0  0  0
 28 13  1  0  0  0  0
 28 29  1  6  0  0  0
 31 30  1  0  0  0  0
 32 26  1  0  0  0  0
 32 31  1  0  0  0  0
M  CHG  3  14  -1  15  -1  16  -1
M  END
>  <CHROM.1>
-43.55163687,-48.35499889,-13.72686897,-62.14127031,176.00158507,157.69944781
160.31327247,-49.73133757,68.69089933,6.85188325,0.17510298,0.73104030,0.57555114
-2.24548777

>  <Name>
2au4_lig

>  <RI>
0

>  <Rbt.Current_Directory>
/home/itssahil/PROJECTS/Mol_Feturizer/New_Systems/rnas/2au4

>  <Rbt.Executable>
rbdock ($Id: //depot/dev/client3/rdock/2013.1/src/exe/rbdock.cxx#4 $)

>  <Rbt.Library>
libRbt.so (2013.1, Build901 2013/11/27)

>  <Rbt.Parameter_File>
/export/apps/rDock/src/rDock_2013.1_src/data/scripts/dock_solv.prm

>  <Rbt.Receptor>
prm/pocket_docking_2.prm

>  <SCORE>
1.64911

>  <SCORE.INTER>
21.3898

>  <SCORE.INTER.CONST>
1

>  <SCORE.INTER.POLAR>
-1.28461

>  <SCORE.INTER.ROT>
8

>  <SCORE.INTER.SOLV>
44.1172

>  <SCORE.INTER.VDW>
-5.09719

>  <SCORE.INTER.norm>
0.66843

>  <SCORE.INTRA>
-22.9262

>  <SCORE.INTRA.DIHEDRAL>
-46.4478

>  <SCORE.INTRA.DIHEDRAL.0>
76.3625

>  <SCORE.INTRA.POLAR>
0

>  <SCORE.INTRA.POLAR.0>
0

>  <SCORE.INTRA.REPUL>
-0.12705

>  <SCORE.INTRA.REPUL.0>
0.12705

>  <SCORE.INTRA.SOLV>
0.890895

>  <SCORE.INTRA.SOLV.lig_0>
-119.383

>  <SCORE.INTRA.VDW>
0.487562

>  <SCORE.INTRA.VDW.0>
-5.10464

>  <SCORE.INTRA.norm>
-0.716442

>  <SCORE.RESTR>
3.1855

>  <SCORE.RESTR.CAVITY>
3.1855

>  <SCORE.RESTR.norm>
0.099547

>  <SCORE.SYSTEM>
0

>  <SCORE.SYSTEM.CONST>
0

>  <SCORE.SYSTEM.DIHEDRAL>
0

>  <SCORE.SYSTEM.SOLV>
0

>  <SCORE.SYSTEM.norm>
0

>  <SCORE.heavy>
32

>  <SCORE.norm>
0.0515346

>  <RMSD>
5.948

$$$$
2au4_lig
 OpenBabel11021811423D
libRbt.so/2013.1/901 2013/11/27
 32 34  0  0  0  0  0  0  0  0999 V2000
   70.1844   12.0126    2.3780 P   0  0  1  0  0  0  0  0  0  0  0  0
   71.7805   13.7860    3.6730 P   0  0  1  0  0  0  0  0  0  0  0  0
   71.5729   13.7697    6.3928 P   0  0  2  0  0  0  0  0  0  0  0  0
   68.4981   10.0031    1.9925 C   0  0  0  0  0  0  0  0  0  0  0  0
   69.4022   10.6951    2.8696 O   0  0  0  0  0  0  0  0  0  0  0  0
   67.8331    8.8110    2.6650 C   0  0  0  0  0  0  0  0  0  0  0  0
   67.0303    8.0768    1.7181 O   0  0  0  0  0  0  0  0  0  0  0  0
   68.8766    7.8655    3.2393 C   0  0  0  0  0  0  0  0  0  0  0  0
   68.7708    7.7918    4.6662 O   0  0  0  0  0  0  0  0  0  0  0  0
   68.6284    6.5173    2.6061 C   0  0  0  0  0  0  0  0  0  0  0  0
   68.3593    5.5188    3.5994 O   0  0  0  0  0  0  0  0  0  0  0  0
   67.4371    6.6925    1.6802 C   0  0  0  0  0  0  0  0  0  0  0  0
   66.1335    6.8802   -3.2525 N   0  0  0  0  0  0  0  0  0  0  0  0
   71.0692   11.6433    1.2548 O   0  5  0  0  0  0  0  0  0  0  0  0
   72.8243   13.8349    2.6308 O   0  5  0  0  0  0  0  0  0  0  0  0
   70.3942   12.9277    6.1050 O   0  5  0  0  0  0  0  0  0  0  0  0
   65.5071    7.4369   -2.1629 C   0  0  1  0  0  0  0  0  0  0  0  0
   64.3989    8.1228   -2.4088 N   0  0  0  0  0  0  0  0  0  0  0  0
   69.2070   13.1109    2.2212 O   0  0  0  0  0  0  0  0  0  0  0  0
   70.7089   14.8032    3.6974 O   0  0  0  0  0  0  0  0  0  0  0  0
   71.3923   15.1673    6.8378 O   0  0  0  0  0  0  0  0  0  0  0  0
   65.9488    7.3178   -0.9133 N   0  0  0  0  0  0  0  0  0  0  0  0
   71.1006   12.3535    3.6288 O   0  0  0  0  0  0  0  0  0  0  0  0
   72.4935   13.7865    5.0932 O   0  0  0  0  0  0  0  0  0  0  0  0
   72.4922   13.0073    7.4672 O   0  0  0  0  0  0  0  0  0  0  0  0
   67.0840    6.5850   -0.8418 C   0  0  2  0  0  0  0  0  0  0  0  0
   67.7776    5.9912   -1.8840 C   0  0  2  0  0  0  0  0  0  0  0  0
   67.2933    6.1275   -3.2081 C   0  0  1  0  0  0  0  0  0  0  0  0
   67.7563    5.6565   -4.2383 O   0  0  0  0  0  0  0  0  0  0  0  0
   68.9066    5.3150   -1.4095 N   0  0  0  0  0  0  0  0  0  0  0  0
   68.8238    5.5382   -0.1386 C   0  0  0  0  0  0  0  0  0  0  0  0
   67.7794    6.2815    0.3046 N   0  0  0  0  0  0  0  0  0  0  0  0
  1  5  1  1  0  0  0
  1 14  1  0  0  0  0
  1 19  2  0  0  0  0
  2 15  1  6  0  0  0
  2 20  2  0  0  0  0
  2 23  1  0  0  0  0
  3 16  1  6  0  0  0
  3 21  2  0  0  0  0
  3 24  1  0  0  0  0
  3 25  1  0  0  0  0
  4  6  1  0  0  0  0
  5  4  1  0  0  0  0
  6  7  1  0  0  0  0
  6  8  2  0  0  0  0
  7 12  1  0  0  0  0
  8  9  1  0  0  0  0
  8 10  1  0  0  0  0
 10 11  1  0  0  0  0
 10 12  2  0  0  0  0
 12 32  1  0  0  0  0
 13 17  1  0  0  0  0
 17 18  1  1  0  0  0
 17 22  1  0  0  0  0
 23  1  1  0  0  0  0
 24  2  1  0  0  0  0
 26 22  1  1  0  0  0
 27 26  1  0  0  0  0
 27 28  1  0  0  0  0
 27 30  1  1  0  0  0
 28 13  1  0  0  0  0
 28 29  1  1  0  0  0
 31 30  1  0  0  0  0
 32 26  1  0  0  0  0
 32 31  1  0  0  0  0
M  CHG  3  14  -1  15  -1  16  -1
M  END
>  <CHROM.1>
-62.82719250,-70.10975626,36.23958385,-174.81717846,-178.27224798,-43.15490439
-165.90787457,178.68538516,69.29503244,10.00121197,2.09980970,-0.12431470
-1.13714549,-0.98066580

>  <Name>
2au4_lig

>  <RI>
0

>  <Rbt.Current_Directory>
/home/itssahil/PROJECTS/Mol_Feturizer/New_Systems/rnas/2au4

>  <Rbt.Executable>
rbdock ($Id: //depot/dev/client3/rdock/2013.1/src/exe/rbdock.cxx#4 $)

>  <Rbt.Library>
libRbt.so (2013.1, Build901 2013/11/27)

>  <Rbt.Parameter_File>
/export/apps/rDock/src/rDock_2013.1_src/data/scripts/dock_solv.prm

>  <Rbt.Receptor>
prm/pocket_docking_8.prm

>  <SCORE>
-46.4913

>  <SCORE.INTER>
-22.5

>  <SCORE.INTER.CONST>
1

>  <SCORE.INTER.POLAR>
-2.18724

>  <SCORE.INTER.ROT>
8

>  <SCORE.INTER.SOLV>
18.64

>  <SCORE.INTER.VDW>
-22.8559

>  <SCORE.INTER.norm>
-0.703125

>  <SCORE.INTRA>
-23.9913

>  <SCORE.INTRA.DIHEDRAL>
-46.6982

>  <SCORE.INTRA.DIHEDRAL.0>
76.3625

>  <SCORE.INTRA.POLAR>
0

>  <SCORE.INTRA.POLAR.0>
0

>  <SCORE.INTRA.REPUL>
0.00191005

>  <SCORE.INTRA.REPUL.0>
0.12705

>  <SCORE.INTRA.SOLV>
-4.55655

>  <SCORE.INTRA.SOLV.lig_0>
-119.383

>  <SCORE.INTRA.VDW>
1.6265

>  <SCORE.INTRA.VDW.0>
-5.10464

>  <SCORE.INTRA.norm>
-0.749729

>  <SCORE.RESTR>
0

>  <SCORE.RESTR.CAVITY>
0

>  <SCORE.RESTR.norm>
0

>  <SCORE.SYSTEM>
0

>  <SCORE.SYSTEM.CONST>
0

>  <SCORE.SYSTEM.DIHEDRAL>
0

>  <SCORE.SYSTEM.SOLV>
0

>  <SCORE.SYSTEM.norm>
0

>  <SCORE.heavy>
32

>  <SCORE.norm>
-1.45285

>  <RMSD>
5.955

$$$$
2au4_lig
 OpenBabel11021811423D
libRbt.so/2013.1/901 2013/11/27
 32 34  0  0  0  0  0  0  0  0999 V2000
   70.0585    9.7418    4.1205 P   0  0  1  0  0  0  0  0  0  0  0  0
   72.4122   11.0638    4.4069 P   0  0  1  0  0  0  0  0  0  0  0  0
   72.1104   13.7480    4.7871 P   0  0  2  0  0  0  0  0  0  0  0  0
   68.2720    7.9567    3.3129 C   0  0  0  0  0  0  0  0  0  0  0  0
   69.5436    8.5966    3.1142 O   0  0  0  0  0  0  0  0  0  0  0  0
   67.9832    6.8968    2.2599 C   0  0  0  0  0  0  0  0  0  0  0  0
   67.0673    7.4036    1.2677 O   0  0  0  0  0  0  0  0  0  0  0  0
   69.2631    6.4747    1.5555 C   0  0  0  0  0  0  0  0  0  0  0  0
   69.5530    5.0938    1.8043 O   0  0  0  0  0  0  0  0  0  0  0  0
   69.0453    6.7269    0.0827 C   0  0  0  0  0  0  0  0  0  0  0  0
   69.1925    5.5204   -0.6781 O   0  0  0  0  0  0  0  0  0  0  0  0
   67.6378    7.2819   -0.0525 C   0  0  0  0  0  0  0  0  0  0  0  0
   65.5836   11.9461   -0.3560 N   0  0  0  0  0  0  0  0  0  0  0  0
   69.3069   10.9829    3.8457 O   0  5  0  0  0  0  0  0  0  0  0  0
   72.4146   10.7350    5.8457 O   0  5  0  0  0  0  0  0  0  0  0  0
   73.0619   14.3086    3.8065 O   0  5  0  0  0  0  0  0  0  0  0  0
   65.2731   10.9096    0.4918 C   0  0  1  0  0  0  0  0  0  0  0  0
   64.2974   11.1339    1.3618 N   0  0  0  0  0  0  0  0  0  0  0  0
   70.0951    9.1854    5.4899 O   0  0  0  0  0  0  0  0  0  0  0  0
   73.6892   11.2347    3.6834 O   0  0  0  0  0  0  0  0  0  0  0  0
   72.5434   13.4977    6.1777 O   0  0  0  0  0  0  0  0  0  0  0  0
   65.8869    9.7291    0.4748 N   0  0  0  0  0  0  0  0  0  0  0  0
   71.5574    9.9645    3.6472 O   0  0  0  0  0  0  0  0  0  0  0  0
   71.5467   12.3800    4.1976 O   0  0  0  0  0  0  0  0  0  0  0  0
   70.8046   14.6832    4.8203 O   0  0  0  0  0  0  0  0  0  0  0  0
   66.8498    9.6690   -0.4738 C   0  0  2  0  0  0  0  0  0  0  0  0
   67.2259   10.6611   -1.3649 C   0  0  2  0  0  0  0  0  0  0  0  0
   66.5618   11.9118   -1.3335 C   0  0  1  0  0  0  0  0  0  0  0  0
   66.7416   12.8854   -2.0528 O   0  0  0  0  0  0  0  0  0  0  0  0
   68.2621   10.2190   -2.1943 N   0  0  0  0  0  0  0  0  0  0  0  0
   68.4410    9.0140   -1.7608 C   0  0  0  0  0  0  0  0  0  0  0  0
   67.6547    8.5871   -0.7414 N   0  0  0  0  0  0  0  0  0  0  0  0
  1  5  1  6  0  0  0
  1 14  1  0  0  0  0
  1 19  2  0  0  0  0
  2 15  1  1  0  0  0
  2 20  2  0  0  0  0
  2 23  1  0  0  0  0
  3 16  1  6  0  0  0
  3 21  2  0  0  0  0
  3 24  1  0  0  0  0
  3 25  1  0  0  0  0
  4  6  1  0  0  0  0
  5  4  1  0  0  0  0
  6  7  1  0  0  0  0
  6  8  2  0  0  0  0
  7 12  1  0  0  0  0
  8  9  1  0  0  0  0
  8 10  1  0  0  0  0
 10 11  1  0  0  0  0
 10 12  2  0  0  0  0
 12 32  1  0  0  0  0
 13 17  1  0  0  0  0
 17 18  1  6  0  0  0
 17 22  1  0  0  0  0
 23  1  1  0  0  0  0
 24  2  1  0  0  0  0
 26 22  1  6  0  0  0
 27 26  1  0  0  0  0
 27 28  1  0  0  0  0
 27 30  1  6  0  0  0
 28 13  1  0  0  0  0
 28 29  1  6  0  0  0
 31 30  1  0  0  0  0
 32 26  1  0  0  0  0
 32 31  1  0  0  0  0
M  CHG  3  14  -1  15  -1  16  -1
M  END
>  <CHROM.1>
-74.73667556,56.42192935,83.57551021,-101.72138667,-179.45357270,-22.90958718
179.11232506,67.73810592,69.41139479,10.22164101,2.22195034,-0.47502231,0.79174453
-3.10213285

>  <Name>
2au4_lig

>  <RI>
0

>  <Rbt.Current_Directory>
/home/itssahil/PROJECTS/Mol_Feturizer/New_Systems/rnas/2au4

>  <Rbt.Executable>
rbdock ($Id: //depot/dev/client3/rdock/2013.1/src/exe/rbdock.cxx#4 $)

>  <Rbt.Library>
libRbt.so (2013.1, Build901 2013/11/27)

>  <Rbt.Parameter_File>
/export/apps/rDock/src/rDock_2013.1_src/data/scripts/dock_solv.prm

>  <Rbt.Receptor>
prm/pocket_docking_8.prm

>  <SCORE>
-48.6002

>  <SCORE.INTER>
-23.345

>  <SCORE.INTER.CONST>
1

>  <SCORE.INTER.POLAR>
-3.06113

>  <SCORE.INTER.ROT>
8

>  <SCORE.INTER.SOLV>
28.8172

>  <SCORE.INTER.VDW>
-23.8986

>  <SCORE.INTER.norm>
-0.72953

>  <SCORE.INTRA>
-25.4174

>  <SCORE.INTRA.DIHEDRAL>
-49.974

>  <SCORE.INTRA.DIHEDRAL.0>
76.3625

>  <SCORE.INTRA.POLAR>
0

>  <SCORE.INTRA.POLAR.0>
0

>  <SCORE.INTRA.REPUL>
0.0704042

>  <SCORE.INTRA.REPUL.0>
0.12705

>  <SCORE.INTRA.SOLV>
-4.54048

>  <SCORE.INTRA.SOLV.lig_0>
-119.383

>  <SCORE.INTRA.VDW>
1.48788

>  <SCORE.INTRA.VDW.0>
-5.10464

>  <SCORE.INTRA.norm>
-0.794292

>  <SCORE.RESTR>
0.162089

>  <SCORE.RESTR.CAVITY>
0.162089

>  <SCORE.RESTR.norm>
0.00506527

>  <SCORE.SYSTEM>
0

>  <SCORE.SYSTEM.CONST>
0

>  <SCORE.SYSTEM.DIHEDRAL>
0

>  <SCORE.SYSTEM.SOLV>
0

>  <SCORE.SYSTEM.norm>
0

>  <SCORE.heavy>
32

>  <SCORE.norm>
-1.51876

>  <RMSD>
5.962

$$$$
2au4_lig
 OpenBabel11021811423D
libRbt.so/2013.1/901 2013/11/27
 32 34  0  0  0  0  0  0  0  0999 V2000
   72.7472   12.6662    1.9642 P   0  0  1  0  0  0  0  0  0  0  0  0
   72.2164   13.4350    4.5131 P   0  0  1  0  0  0  0  0  0  0  0  0
   71.7531   13.4944    7.2006 P   0  0  2  0  0  0  0  0  0  0  0  0
   71.9667   10.7903    0.2606 C   0  0  0  0  0  0  0  0  0  0  0  0
   72.9121   11.2348    1.2477 O   0  0  0  0  0  0  0  0  0  0  0  0
   70.5339   10.8206    0.7721 C   0  0  0  0  0  0  0  0  0  0  0  0
   69.6203   10.3746   -0.2510 O   0  0  0  0  0  0  0  0  0  0  0  0
   70.3747    9.9129    1.9817 C   0  0  0  0  0  0  0  0  0  0  0  0
   70.0265   10.6696    3.1475 O   0  0  0  0  0  0  0  0  0  0  0  0
   69.2899    8.9215    1.6342 C   0  0  0  0  0  0  0  0  0  0  0  0
   68.2020    8.9944    2.5655 O   0  0  0  0  0  0  0  0  0  0  0  0
   68.8241    9.2716    0.2315 C   0  0  0  0  0  0  0  0  0  0  0  0
   70.2450    4.3878   -0.2110 N   0  0  0  0  0  0  0  0  0  0  0  0
   74.0474   13.3652    1.9247 O   0  5  0  0  0  0  0  0  0  0  0  0
   73.4352   14.2658    4.5628 O   0  5  0  0  0  0  0  0  0  0  0  0
   71.2921   12.5526    8.2406 O   0  5  0  0  0  0  0  0  0  0  0  0
   70.2928    5.2143    0.8864 C   0  0  1  0  0  0  0  0  0  0  0  0
   70.7799    4.6845    2.0005 N   0  0  0  0  0  0  0  0  0  0  0  0
   71.5355   13.3244    1.4307 O   0  0  0  0  0  0  0  0  0  0  0  0
   70.9085   14.0547    4.2151 O   0  0  0  0  0  0  0  0  0  0  0  0
   70.8979   14.6316    6.8013 O   0  0  0  0  0  0  0  0  0  0  0  0
   69.8879    6.4818    0.8776 N   0  0  0  0  0  0  0  0  0  0  0  0
   72.4561   12.2626    3.4718 O   0  0  0  0  0  0  0  0  0  0  0  0
   72.0894   12.6531    5.8906 O   0  0  0  0  0  0  0  0  0  0  0  0
   73.1912   14.0650    7.6329 O   0  0  0  0  0  0  0  0  0  0  0  0
   69.4256    6.8607   -0.3362 C   0  0  2  0  0  0  0  0  0  0  0  0
   69.3422    6.0962   -1.4888 C   0  0  2  0  0  0  0  0  0  0  0  0
   69.7780    4.7487   -1.4621 C   0  0  1  0  0  0  0  0  0  0  0  0
   69.8015    3.9399   -2.3801 O   0  0  0  0  0  0  0  0  0  0  0  0
   68.8096    6.8435   -2.5447 N   0  0  0  0  0  0  0  0  0  0  0  0
   68.6104    7.9869   -1.9747 C   0  0  0  0  0  0  0  0  0  0  0  0
   68.9421    8.1050   -0.6648 N   0  0  0  0  0  0  0  0  0  0  0  0
  1  5  1  6  0  0  0
  1 14  1  0  0  0  0
  1 19  2  0  0  0  0
  2 15  1  1  0  0  0
  2 20  2  0  0  0  0
  2 23  1  0  0  0  0
  3 16  1  1  0  0  0
  3 21  2  0  0  0  0
  3 24  1  0  0  0  0
  3 25  1  0  0  0  0
  4  6  1  0  0  0  0
  5  4  1  0  0  0  0
  6  7  1  0  0  0  0
  6  8  2  0  0  0  0
  7 12  1  0  0  0  0
  8  9  1  0  0  0  0
  8 10  1  0  0  0  0
 10 11  1  0  0  0  0
 10 12  2  0  0  0  0
 12 32  1  0  0  0  0
 13 17  1  0  0  0  0
 17 18  1  6  0  0  0
 17 22  1  0  0  0  0
 23  1  1  0  0  0  0
 24  2  1  0  0  0  0
 26 22  1  6  0  0  0
 27 26  1  0  0  0  0
 27 28  1  0  0  0  0
 27 30  1  6  0  0  0
 28 13  1  0  0  0  0
 28 29  1  6  0  0  0
 31 30  1  0  0  0  0
 32 26  1  0  0  0  0
 32 31  1  0  0  0  0
M  CHG  3  14  -1  15  -1  16  -1
M  END
>  <CHROM.1>
-131.93134093,-61.02486190,163.31036304,179.68477158,-54.51192655,119.08926534
-179.40741785,69.16126087,70.96525056,10.37644633,2.31445593,-0.81207985
-1.18517334,-1.71055766

>  <Name>
2au4_lig

>  <RI>
0

>  <Rbt.Current_Directory>
/home/itssahil/PROJECTS/Mol_Feturizer/New_Systems/rnas/2au4

>  <Rbt.Executable>
rbdock ($Id: //depot/dev/client3/rdock/2013.1/src/exe/rbdock.cxx#4 $)

>  <Rbt.Library>
libRbt.so (2013.1, Build901 2013/11/27)

>  <Rbt.Parameter_File>
/export/apps/rDock/src/rDock_2013.1_src/data/scripts/dock_solv.prm

>  <Rbt.Receptor>
prm/blind_docking_80.prm

>  <SCORE>
-27.7098

>  <SCORE.INTER>
-13.7331

>  <SCORE.INTER.CONST>
1

>  <SCORE.INTER.POLAR>
-2.33446

>  <SCORE.INTER.ROT>
8

>  <SCORE.INTER.SOLV>
35.2075

>  <SCORE.INTER.VDW>
-22.0431

>  <SCORE.INTER.norm>
-0.429161

>  <SCORE.INTRA>
-17.8417

>  <SCORE.INTRA.DIHEDRAL>
-34.6709

>  <SCORE.INTRA.DIHEDRAL.0>
76.3625

>  <SCORE.INTRA.POLAR>
0

>  <SCORE.INTRA.POLAR.0>
0

>  <SCORE.INTRA.REPUL>
-0.12705

>  <SCORE.INTRA.REPUL.0>
0.12705

>  <SCORE.INTRA.SOLV>
-2.62821

>  <SCORE.INTRA.SOLV.lig_0>
-119.383

>  <SCORE.INTRA.VDW>
1.44314

>  <SCORE.INTRA.VDW.0>
-5.10464

>  <SCORE.INTRA.norm>
-0.557552

>  <SCORE.RESTR>
3.86505

>  <SCORE.RESTR.CAVITY>
3.86505

>  <SCORE.RESTR.norm>
0.120783

>  <SCORE.SYSTEM>
0

>  <SCORE.SYSTEM.CONST>
0

>  <SCORE.SYSTEM.DIHEDRAL>
0

>  <SCORE.SYSTEM.SOLV>
0

>  <SCORE.SYSTEM.norm>
0

>  <SCORE.heavy>
32

>  <SCORE.norm>
-0.86593

>  <RMSD>
5.978

$$$$
2au4_lig
 OpenBabel11021811423D
libRbt.so/2013.1/901 2013/11/27
 32 34  0  0  0  0  0  0  0  0999 V2000
   68.2816    4.7944   -2.5542 P   0  0  1  0  0  0  0  0  0  0  0  0
   69.4926    5.9498   -0.4169 P   0  0  1  0  0  0  0  0  0  0  0  0
   71.7310    4.5523   -1.1078 P   0  0  2  0  0  0  0  0  0  0  0  0
   66.7794    6.9655   -2.3088 C   0  0  0  0  0  0  0  0  0  0  0  0
   66.9111    5.5417   -2.1633 O   0  0  0  0  0  0  0  0  0  0  0  0
   65.6107    7.5262   -1.5118 C   0  0  0  0  0  0  0  0  0  0  0  0
   65.7851    7.2657   -0.1040 O   0  0  0  0  0  0  0  0  0  0  0  0
   65.4975    9.0300   -1.7077 C   0  0  0  0  0  0  0  0  0  0  0  0
   64.2645    9.3710   -2.3529 O   0  0  0  0  0  0  0  0  0  0  0  0
   65.5801    9.6490   -0.3328 C   0  0  0  0  0  0  0  0  0  0  0  0
   64.4069   10.4194   -0.0389 O   0  0  0  0  0  0  0  0  0  0  0  0
   65.7291    8.4974    0.6464 C   0  0  0  0  0  0  0  0  0  0  0  0
   69.7832   11.4231    1.6809 N   0  0  0  0  0  0  0  0  0  0  0  0
   68.3680    3.5367   -1.7851 O   0  5  0  0  0  0  0  0  0  0  0  0
   70.0283    7.2939   -0.1264 O   0  5  0  0  0  0  0  0  0  0  0  0
   72.9861    4.2776   -0.3795 O   0  5  0  0  0  0  0  0  0  0  0  0
   68.7839   11.6126    0.7562 C   0  0  1  0  0  0  0  0  0  0  0  0
   68.8711   12.7072    0.0124 N   0  0  0  0  0  0  0  0  0  0  0  0
   68.4034    4.7719   -4.0276 O   0  0  0  0  0  0  0  0  0  0  0  0
   68.2111    5.5179    0.1787 O   0  0  0  0  0  0  0  0  0  0  0  0
   71.6915    5.6085   -2.1407 O   0  0  0  0  0  0  0  0  0  0  0  0
   67.7688   10.7706    0.5793 N   0  0  0  0  0  0  0  0  0  0  0  0
   69.3852    5.7871   -1.9912 O   0  0  0  0  0  0  0  0  0  0  0  0
   70.6010    4.8776   -0.0336 O   0  0  0  0  0  0  0  0  0  0  0  0
   71.2120    3.1799   -1.7620 O   0  0  0  0  0  0  0  0  0  0  0  0
   67.8365    9.7081    1.4142 C   0  0  2  0  0  0  0  0  0  0  0  0
   68.8028    9.4410    2.3707 C   0  0  2  0  0  0  0  0  0  0  0  0
   69.8769   10.3475    2.5458 C   0  0  1  0  0  0  0  0  0  0  0  0
   70.8238   10.2633    3.3163 O   0  0  0  0  0  0  0  0  0  0  0  0
   68.5276    8.2409    3.0350 N   0  0  0  0  0  0  0  0  0  0  0  0
   67.4368    7.8679    2.4493 C   0  0  0  0  0  0  0  0  0  0  0  0
   66.9406    8.6669    1.4720 N   0  0  0  0  0  0  0  0  0  0  0  0
  1  5  1  1  0  0  0
  1 14  1  0  0  0  0
  1 19  2  0  0  0  0
  2 15  1  1  0  0  0
  2 20  2  0  0  0  0
  2 23  1  0  0  0  0
  3 16  1  1  0  0  0
  3 21  2  0  0  0  0
  3 24  1  0  0  0  0
  3 25  1  0  0  0  0
  4  6  1  0  0  0  0
  5  4  1  0  0  0  0
  6  7  1  0  0  0  0
  6  8  2  0  0  0  0
  7 12  1  0  0  0  0
  8  9  1  0  0  0  0
  8 10  1  0  0  0  0
 10 11  1  0  0  0  0
 10 12  2  0  0  0  0
 12 32  1  0  0  0  0
 13 17  1  0  0  0  0
 17 18  1  6  0  0  0
 17 22  1  0  0  0  0
 23  1  1  0  0  0  0
 24  2  1  0  0  0  0
 26 22  1  6  0  0  0
 27 26  1  0  0  0  0
 27 28  1  0  0  0  0
 27 30  1  6  0  0  0
 28 13  1  0  0  0  0
 28 29  1  6  0  0  0
 31 30  1  0  0  0  0
 32 26  1  0  0  0  0
 32 31  1  0  0  0  0
M  CHG  3  14  -1  15  -1  16  -1
M  END
>  <CHROM.1>
155.15728311,-152.49505622,145.54058921,60.69377139,-162.47811779,121.00648365
67.52645852,-84.09636234,68.53792027,7.30484597,-0.36225572,1.09701126,0.40484005
-2.52102460

>  <Name>
2au4_lig

>  <RI>
0

>  <Rbt.Current_Directory>
/home/itssahil/PROJECTS/Mol_Feturizer/New_Systems/rnas/2au4

>  <Rbt.Executable>
rbdock ($Id: //depot/dev/client3/rdock/2013.1/src/exe/rbdock.cxx#4 $)

>  <Rbt.Library>
libRbt.so (2013.1, Build901 2013/11/27)

>  <Rbt.Parameter_File>
/export/apps/rDock/src/rDock_2013.1_src/data/scripts/dock_solv.prm

>  <Rbt.Receptor>
prm/pocket_docking_2.prm

>  <SCORE>
-24.66

>  <SCORE.INTER>
-15.9275

>  <SCORE.INTER.CONST>
1

>  <SCORE.INTER.POLAR>
-1.93153

>  <SCORE.INTER.ROT>
8

>  <SCORE.INTER.SOLV>
40.5238

>  <SCORE.INTER.VDW>
-26.6211

>  <SCORE.INTER.norm>
-0.497733

>  <SCORE.INTRA>
-13.0124

>  <SCORE.INTRA.DIHEDRAL>
-32.9747

>  <SCORE.INTRA.DIHEDRAL.0>
76.3625

>  <SCORE.INTRA.POLAR>
0

>  <SCORE.INTRA.POLAR.0>
0

>  <SCORE.INTRA.REPUL>
-0.12705

>  <SCORE.INTRA.REPUL.0>
0.12705

>  <SCORE.INTRA.SOLV>
4.00098

>  <SCORE.INTRA.SOLV.lig_0>
-119.383

>  <SCORE.INTRA.VDW>
2.1097

>  <SCORE.INTRA.VDW.0>
-5.10464

>  <SCORE.INTRA.norm>
-0.406638

>  <SCORE.RESTR>
4.27984

>  <SCORE.RESTR.CAVITY>
4.27984

>  <SCORE.RESTR.norm>
0.133745

>  <SCORE.SYSTEM>
0

>  <SCORE.SYSTEM.CONST>
0

>  <SCORE.SYSTEM.DIHEDRAL>
0

>  <SCORE.SYSTEM.SOLV>
0

>  <SCORE.SYSTEM.norm>
0

>  <SCORE.heavy>
32

>  <SCORE.norm>
-0.770626

>  <RMSD>
6.002

$$$$
2au4_lig
 OpenBabel11021811423D
libRbt.so/2013.1/901 2013/11/27
 32 34  0  0  0  0  0  0  0  0999 V2000
   72.1798   12.3622    0.0297 P   0  0  1  0  0  0  0  0  0  0  0  0
   71.9026   13.8340    2.2939 P   0  0  1  0  0  0  0  0  0  0  0  0
   72.6613   12.2964    4.4154 P   0  0  2  0  0  0  0  0  0  0  0  0
   69.5297   12.3502    0.1154 C   0  0  0  0  0  0  0  0  0  0  0  0
   70.7424   11.7997   -0.4251 O   0  0  0  0  0  0  0  0  0  0  0  0
   68.4312   12.4758   -0.9301 C   0  0  0  0  0  0  0  0  0  0  0  0
   68.5814   11.4651   -1.9480 O   0  0  0  0  0  0  0  0  0  0  0  0
   67.0602   12.3105   -0.2931 C   0  0  0  0  0  0  0  0  0  0  0  0
   66.2923   13.5144   -0.4109 O   0  0  0  0  0  0  0  0  0  0  0  0
   66.3883   11.1654   -1.0125 C   0  0  0  0  0  0  0  0  0  0  0  0
   65.1571   11.5831   -1.6173 O   0  0  0  0  0  0  0  0  0  0  0  0
   67.3719   10.6862   -2.0660 C   0  0  0  0  0  0  0  0  0  0  0  0
   65.4117    6.0476   -1.2252 N   0  0  0  0  0  0  0  0  0  0  0  0
   73.2072   11.3565   -0.3077 O   0  5  0  0  0  0  0  0  0  0  0  0
   73.1743   14.5612    2.1148 O   0  5  0  0  0  0  0  0  0  0  0  0
   74.0729   12.6481    4.1606 O   0  5  0  0  0  0  0  0  0  0  0  0
   64.7724    7.2609   -1.3189 C   0  0  1  0  0  0  0  0  0  0  0  0
   63.4549    7.2445   -1.1673 N   0  0  0  0  0  0  0  0  0  0  0  0
   72.3170   13.7528   -0.4537 O   0  0  0  0  0  0  0  0  0  0  0  0
   70.6329   14.4380    1.8393 O   0  0  0  0  0  0  0  0  0  0  0  0
   72.1189   11.0126    3.9240 O   0  0  0  0  0  0  0  0  0  0  0  0
   65.3989    8.4131   -1.5442 N   0  0  0  0  0  0  0  0  0  0  0  0
   72.0442   12.4093    1.6107 O   0  0  0  0  0  0  0  0  0  0  0  0
   71.7509   13.4660    3.8323 O   0  0  0  0  0  0  0  0  0  0  0  0
   72.3908   12.3926    5.9960 O   0  0  0  0  0  0  0  0  0  0  0  0
   66.7363    8.2501   -1.6690 C   0  0  2  0  0  0  0  0  0  0  0  0
   67.4582    7.0701   -1.5893 C   0  0  2  0  0  0  0  0  0  0  0  0
   66.7757    5.8525   -1.3485 C   0  0  1  0  0  0  0  0  0  0  0  0
   67.2464    4.7299   -1.2240 O   0  0  0  0  0  0  0  0  0  0  0  0
   68.8247    7.3091   -1.7699 N   0  0  0  0  0  0  0  0  0  0  0  0
   68.8402    8.5905   -1.9426 C   0  0  0  0  0  0  0  0  0  0  0  0
   67.6540    9.2470   -1.9014 N   0  0  0  0  0  0  0  0  0  0  0  0
  1  5  1  6  0  0  0
  1 14  1  0  0  0  0
  1 19  2  0  0  0  0
  2 15  1  6  0  0  0
  2 20  2  0  0  0  0
  2 23  1  0  0  0  0
  3 16  1  6  0  0  0
  3 21  2  0  0  0  0
  3 24  1  0  0  0  0
  3 25  1  0  0  0  0
  4  6  1  0  0  0  0
  5  4  1  0  0  0  0
  6  7  1  0  0  0  0
  6  8  2  0  0  0  0
  7 12  1  0  0  0  0
  8  9  1  0  0  0  0
  8 10  1  0  0  0  0
 10 11  1  0  0  0  0
 10 12  2  0  0  0  0
 12 32  1  0  0  0  0
 13 17  1  0  0  0  0
 17 18  1  1  0  0  0
 17 22  1  0  0  0  0
 23  1  1  0  0  0  0
 24  2  1  0  0  0  0
 26 22  1  1  0  0  0
 27 26  1  0  0  0  0
 27 28  1  0  0  0  0
 27 30  1  1  0  0  0
 28 13  1  0  0  0  0
 28 29  1  1  0  0  0
 31 30  1  0  0  0  0
 32 26  1  0  0  0  0
 32 31  1  0  0  0  0
M  CHG  3  14  -1  15  -1  16  -1
M  END
>  <CHROM.1>
161.22920231,-67.28622205,56.92345117,29.03651432,140.73085005,165.08850119
-107.21340514,-73.80742116,69.52873860,10.98428859,0.42937034,0.49472568
-0.68683549,-0.16034831

>  <Name>
2au4_lig

>  <RI>
0

>  <Rbt.Current_Directory>
/home/itssahil/PROJECTS/Mol_Feturizer/New_Systems/rnas/2au4

>  <Rbt.Executable>
rbdock ($Id: //depot/dev/client3/rdock/2013.1/src/exe/rbdock.cxx#4 $)

>  <Rbt.Library>
libRbt.so (2013.1, Build901 2013/11/27)

>  <Rbt.Parameter_File>
/export/apps/rDock/src/rDock_2013.1_src/data/scripts/dock_solv.prm

>  <Rbt.Receptor>
prm/pocket_docking_5.prm

>  <SCORE>
-37.6971

>  <SCORE.INTER>
-17.8869

>  <SCORE.INTER.CONST>
1

>  <SCORE.INTER.POLAR>
-2.94631

>  <SCORE.INTER.ROT>
8

>  <SCORE.INTER.SOLV>
33.9254

>  <SCORE.INTER.VDW>
-22.3453

>  <SCORE.INTER.norm>
-0.558964

>  <SCORE.INTRA>
-20.7034

>  <SCORE.INTRA.DIHEDRAL>
-39.6896

>  <SCORE.INTRA.DIHEDRAL.0>
76.3625

>  <SCORE.INTRA.POLAR>
0

>  <SCORE.INTRA.POLAR.0>
0

>  <SCORE.INTRA.REPUL>
-0.12705

>  <SCORE.INTRA.REPUL.0>
0.12705

>  <SCORE.INTRA.SOLV>
-3.79499

>  <SCORE.INTRA.SOLV.lig_0>
-119.383

>  <SCORE.INTRA.VDW>
1.67417

>  <SCORE.INTRA.VDW.0>
-5.10464

>  <SCORE.INTRA.norm>
-0.64698

>  <SCORE.RESTR>
0.893087

>  <SCORE.RESTR.CAVITY>
0.893087

>  <SCORE.RESTR.norm>
0.027909

>  <SCORE.SYSTEM>
0

>  <SCORE.SYSTEM.CONST>
0

>  <SCORE.SYSTEM.DIHEDRAL>
0

>  <SCORE.SYSTEM.SOLV>
0

>  <SCORE.SYSTEM.norm>
0

>  <SCORE.heavy>
32

>  <SCORE.norm>
-1.17804

>  <RMSD>
6.002

$$$$
2au4_lig
 OpenBabel11021811423D
libRbt.so/2013.1/901 2013/11/27
 32 34  0  0  0  0  0  0  0  0999 V2000
   68.6619    8.7716   -0.7516 P   0  0  1  0  0  0  0  0  0  0  0  0
   70.1289   10.1639    1.0592 P   0  0  1  0  0  0  0  0  0  0  0  0
   72.8017   10.7014    0.9699 P   0  0  2  0  0  0  0  0  0  0  0  0
   67.2846    6.8402    0.4330 C   0  0  0  0  0  0  0  0  0  0  0  0
   67.8054    8.1791    0.4751 O   0  0  0  0  0  0  0  0  0  0  0  0
   65.8632    6.7855   -0.1074 C   0  0  0  0  0  0  0  0  0  0  0  0
   65.0373    7.7777    0.5357 O   0  0  0  0  0  0  0  0  0  0  0  0
   65.8460    7.0490   -1.6050 C   0  0  0  0  0  0  0  0  0  0  0  0
   65.3761    5.9007   -2.3217 O   0  0  0  0  0  0  0  0  0  0  0  0
   64.9354    8.2341   -1.8214 C   0  0  0  0  0  0  0  0  0  0  0  0
   63.8458    7.8996   -2.6915 O   0  0  0  0  0  0  0  0  0  0  0  0
   64.4257    8.6380   -0.4488 C   0  0  0  0  0  0  0  0  0  0  0  0
   65.3703   12.1574    3.1272 N   0  0  0  0  0  0  0  0  0  0  0  0
   68.8485    7.7040   -1.7546 O   0  5  0  0  0  0  0  0  0  0  0  0
   70.0832   11.4919    0.4170 O   0  5  0  0  0  0  0  0  0  0  0  0
   72.7201   10.4452   -0.4823 O   0  5  0  0  0  0  0  0  0  0  0  0
   65.1036   10.8166    3.2717 C   0  0  1  0  0  0  0  0  0  0  0  0
   65.0799   10.3525    4.5139 N   0  0  0  0  0  0  0  0  0  0  0  0
   68.0784   10.0701   -1.1511 O   0  0  0  0  0  0  0  0  0  0  0  0
   69.1394    9.8081    2.0974 O   0  0  0  0  0  0  0  0  0  0  0  0
   74.0308   10.3551    1.7138 O   0  0  0  0  0  0  0  0  0  0  0  0
   64.8724    9.9931    2.2524 N   0  0  0  0  0  0  0  0  0  0  0  0
   70.0703    9.0595   -0.0779 O   0  0  0  0  0  0  0  0  0  0  0  0
   71.5811    9.9548    1.6696 O   0  0  0  0  0  0  0  0  0  0  0  0
   72.4660   12.2502    1.2325 O   0  0  0  0  0  0  0  0  0  0  0  0
   64.9298   10.6296    1.0598 C   0  0  2  0  0  0  0  0  0  0  0  0
   65.1913   11.9699    0.8253 C   0  0  2  0  0  0  0  0  0  0  0  0
   65.4348   12.8329    1.9217 C   0  0  1  0  0  0  0  0  0  0  0  0
   65.6565   14.0363    1.9064 O   0  0  0  0  0  0  0  0  0  0  0  0
   65.1629   12.2505   -0.5450 N   0  0  0  0  0  0  0  0  0  0  0  0
   64.8911   11.0871   -1.0394 C   0  0  0  0  0  0  0  0  0  0  0  0
   64.7327   10.0551   -0.1735 N   0  0  0  0  0  0  0  0  0  0  0  0
  1  5  1  1  0  0  0
  1 14  1  0  0  0  0
  1 19  2  0  0  0  0
  2 15  1  6  0  0  0
  2 20  2  0  0  0  0
  2 23  1  0  0  0  0
  3 16  1  6  0  0  0
  3 21  2  0  0  0  0
  3 24  1  0  0  0  0
  3 25  1  0  0  0  0
  4  6  1  0  0  0  0
  5  4  1  0  0  0  0
  6  7  1  0  0  0  0
  6  8  2  0  0  0  0
  7 12  1  0  0  0  0
  8  9  1  0  0  0  0
  8 10  1  0  0  0  0
 10 11  1  0  0  0  0
 10 12  2  0  0  0  0
 12 32  1  0  0  0  0
 13 17  1  0  0  0  0
 17 18  1  1  0  0  0
 17 22  1  0  0  0  0
 23  1  1  0  0  0  0
 24  2  1  0  0  0  0
 26 22  1  1  0  0  0
 27 26  1  0  0  0  0
 27 28  1  0  0  0  0
 27 30  1  1  0  0  0
 28 13  1  0  0  0  0
 28 29  1  1  0  0  0
 31 30  1  0  0  0  0
 32 26  1  0  0  0  0
 32 31  1  0  0  0  0
M  CHG  3  14  -1  15  -1  16  -1
M  END
>  <CHROM.1>
-3.94045174,-76.66659330,-49.06256541,-47.79679583,-93.13571738,-31.64952985
-64.66905672,-28.47326520,67.80467034,9.83632238,0.44453694,-0.21394394,-0.00380788
-2.48247666

>  <Name>
2au4_lig

>  <RI>
0

>  <Rbt.Current_Directory>
/home/itssahil/PROJECTS/Mol_Feturizer/New_Systems/rnas/2au4

>  <Rbt.Executable>
rbdock ($Id: //depot/dev/client3/rdock/2013.1/src/exe/rbdock.cxx#4 $)

>  <Rbt.Library>
libRbt.so (2013.1, Build901 2013/11/27)

>  <Rbt.Parameter_File>
/export/apps/rDock/src/rDock_2013.1_src/data/scripts/dock_solv.prm

>  <Rbt.Receptor>
prm/pocket_docking_5.prm

>  <SCORE>
-31.3156

>  <SCORE.INTER>
-9.7486

>  <SCORE.INTER.CONST>
1

>  <SCORE.INTER.POLAR>
-0.864462

>  <SCORE.INTER.ROT>
8

>  <SCORE.INTER.SOLV>
27.478

>  <SCORE.INTER.VDW>
-21.7102

>  <SCORE.INTER.norm>
-0.304644

>  <SCORE.INTRA>
-21.567

>  <SCORE.INTRA.DIHEDRAL>
-43.2039

>  <SCORE.INTRA.DIHEDRAL.0>
76.3625

>  <SCORE.INTRA.POLAR>
0

>  <SCORE.INTRA.POLAR.0>
0

>  <SCORE.INTRA.REPUL>
0.05841

>  <SCORE.INTRA.REPUL.0>
0.12705

>  <SCORE.INTRA.SOLV>
0.262227

>  <SCORE.INTRA.SOLV.lig_0>
-119.383

>  <SCORE.INTRA.VDW>
-0.388207

>  <SCORE.INTRA.VDW.0>
-5.10464

>  <SCORE.INTRA.norm>
-0.673969

>  <SCORE.RESTR>
0

>  <SCORE.RESTR.CAVITY>
0

>  <SCORE.RESTR.norm>
0

>  <SCORE.SYSTEM>
0

>  <SCORE.SYSTEM.CONST>
0

>  <SCORE.SYSTEM.DIHEDRAL>
0

>  <SCORE.SYSTEM.SOLV>
0

>  <SCORE.SYSTEM.norm>
0

>  <SCORE.heavy>
32

>  <SCORE.norm>
-0.978613

>  <RMSD>
6.007

$$$$
2au4_lig
 OpenBabel11021811423D
libRbt.so/2013.1/901 2013/11/27
 32 34  0  0  0  0  0  0  0  0999 V2000
   71.3873   12.4535    0.0862 P   0  0  1  0  0  0  0  0  0  0  0  0
   72.8615   12.7446    2.3470 P   0  0  1  0  0  0  0  0  0  0  0  0
   71.7162   13.6192    4.6630 P   0  0  2  0  0  0  0  0  0  0  0  0
   68.9518   12.4294   -0.9618 C   0  0  0  0  0  0  0  0  0  0  0  0
   70.0698   13.1889   -0.4729 O   0  0  0  0  0  0  0  0  0  0  0  0
   67.8187   12.3445    0.0503 C   0  0  0  0  0  0  0  0  0  0  0  0
   67.2268   11.0293    0.0402 O   0  0  0  0  0  0  0  0  0  0  0  0
   68.3290   12.6266    1.4547 C   0  0  0  0  0  0  0  0  0  0  0  0
   67.7301   13.8138    1.9883 O   0  0  0  0  0  0  0  0  0  0  0  0
   67.9770   11.4186    2.2897 C   0  0  0  0  0  0  0  0  0  0  0  0
   67.1427   11.7792    3.3987 O   0  0  0  0  0  0  0  0  0  0  0  0
   67.2568   10.4539    1.3635 C   0  0  0  0  0  0  0  0  0  0  0  0
   68.4007    6.2976   -1.3720 N   0  0  0  0  0  0  0  0  0  0  0  0
   71.0209   11.0860    0.5063 O   0  5  0  0  0  0  0  0  0  0  0  0
   72.4381   11.4302    2.8680 O   0  5  0  0  0  0  0  0  0  0  0  0
   72.2609   12.7559    5.7304 O   0  5  0  0  0  0  0  0  0  0  0  0
   67.6889    7.4148   -1.7390 C   0  0  1  0  0  0  0  0  0  0  0  0
   67.2195    7.4316   -2.9793 N   0  0  0  0  0  0  0  0  0  0  0  0
   72.4893   12.6625   -0.8772 O   0  0  0  0  0  0  0  0  0  0  0  0
   74.1538   12.8820    1.6437 O   0  0  0  0  0  0  0  0  0  0  0  0
   70.4554   13.2511    3.9857 O   0  0  0  0  0  0  0  0  0  0  0  0
   67.4557    8.4442   -0.9285 N   0  0  0  0  0  0  0  0  0  0  0  0
   71.7192   13.2924    1.3924 O   0  0  0  0  0  0  0  0  0  0  0  0
   72.8393   13.7870    3.5462 O   0  0  0  0  0  0  0  0  0  0  0  0
   71.5676   15.1105    5.2416 O   0  0  0  0  0  0  0  0  0  0  0  0
   67.9997    8.2615    0.2967 C   0  0  2  0  0  0  0  0  0  0  0  0
   68.7281    7.1726    0.7478 C   0  0  2  0  0  0  0  0  0  0  0  0
   68.9669    6.0851   -0.1278 C   0  0  1  0  0  0  0  0  0  0  0  0
   69.5621    5.0410    0.1027 O   0  0  0  0  0  0  0  0  0  0  0  0
   69.1213    7.3529    2.0782 N   0  0  0  0  0  0  0  0  0  0  0  0
   68.6154    8.5137    2.3400 C   0  0  0  0  0  0  0  0  0  0  0  0
   67.9295    9.1403    1.3516 N   0  0  0  0  0  0  0  0  0  0  0  0
  1  5  1  6  0  0  0
  1 14  1  0  0  0  0
  1 19  2  0  0  0  0
  2 15  1  1  0  0  0
  2 20  2  0  0  0  0
  2 23  1  0  0  0  0
  3 16  1  1  0  0  0
  3 21  2  0  0  0  0
  3 24  1  0  0  0  0
  3 25  1  0  0  0  0
  4  6  1  0  0  0  0
  5  4  1  0  0  0  0
  6  7  1  0  0  0  0
  6  8  2  0  0  0  0
  7 12  1  0  0  0  0
  8  9  1  0  0  0  0
  8 10  1  0  0  0  0
 10 11  1  0  0  0  0
 10 12  2  0  0  0  0
 12 32  1  0  0  0  0
 13 17  1  0  0  0  0
 17 18  1  1  0  0  0
 17 22  1  0  0  0  0
 23  1  1  0  0  0  0
 24  2  1  0  0  0  0
 26 22  1  1  0  0  0
 27 26  1  0  0  0  0
 27 28  1  0  0  0  0
 27 30  1  1  0  0  0
 28 13  1  0  0  0  0
 28 29  1  1  0  0  0
 31 30  1  0  0  0  0
 32 26  1  0  0  0  0
 32 31  1  0  0  0  0
M  CHG  3  14  -1  15  -1  16  -1
M  END
>  <CHROM.1>
-22.86646346,-62.75283007,90.80994908,-140.66392641,101.40112397,-27.93803248
171.86714929,-34.45421150,69.98737996,11.09385427,1.41705723,-1.06429063
-0.14186524,-2.49332570

>  <Name>
2au4_lig

>  <RI>
0

>  <Rbt.Current_Directory>
/home/itssahil/PROJECTS/Mol_Feturizer/New_Systems/rnas/2au4

>  <Rbt.Executable>
rbdock ($Id: //depot/dev/client3/rdock/2013.1/src/exe/rbdock.cxx#4 $)

>  <Rbt.Library>
libRbt.so (2013.1, Build901 2013/11/27)

>  <Rbt.Parameter_File>
/export/apps/rDock/src/rDock_2013.1_src/data/scripts/dock_solv.prm

>  <Rbt.Receptor>
prm/pocket_docking_7.prm

>  <SCORE>
-36.4921

>  <SCORE.INTER>
-15.9402

>  <SCORE.INTER.CONST>
1

>  <SCORE.INTER.POLAR>
-2.73423

>  <SCORE.INTER.ROT>
8

>  <SCORE.INTER.SOLV>
19.0872

>  <SCORE.INTER.VDW>
-16.8084

>  <SCORE.INTER.norm>
-0.498131

>  <SCORE.INTRA>
-20.5552

>  <SCORE.INTRA.DIHEDRAL>
-42.106

>  <SCORE.INTRA.DIHEDRAL.0>
76.3625

>  <SCORE.INTRA.POLAR>
0

>  <SCORE.INTRA.POLAR.0>
0

>  <SCORE.INTRA.REPUL>
0.0687973

>  <SCORE.INTRA.REPUL.0>
0.12705

>  <SCORE.INTRA.SOLV>
0.374162

>  <SCORE.INTRA.SOLV.lig_0>
-119.383

>  <SCORE.INTRA.VDW>
-0.0332142

>  <SCORE.INTRA.VDW.0>
-5.10464

>  <SCORE.INTRA.norm>
-0.642349

>  <SCORE.RESTR>
0.00327301

>  <SCORE.RESTR.CAVITY>
0.00327301

>  <SCORE.RESTR.norm>
0.000102281

>  <SCORE.SYSTEM>
0

>  <SCORE.SYSTEM.CONST>
0

>  <SCORE.SYSTEM.DIHEDRAL>
0

>  <SCORE.SYSTEM.SOLV>
0

>  <SCORE.SYSTEM.norm>
0

>  <SCORE.heavy>
32

>  <SCORE.norm>
-1.14038

>  <RMSD>
6.018

$$$$
2au4_lig
 OpenBabel11021811423D
libRbt.so/2013.1/901 2013/11/27
 32 34  0  0  0  0  0  0  0  0999 V2000
   69.2867   12.1983   -0.4624 P   0  0  1  0  0  0  0  0  0  0  0  0
   71.2834   13.3306    0.9869 P   0  0  1  0  0  0  0  0  0  0  0  0
   72.8814   11.7614    2.5440 P   0  0  2  0  0  0  0  0  0  0  0  0
   66.8574   11.3249   -1.0674 C   0  0  0  0  0  0  0  0  0  0  0  0
   67.6999   12.1118   -0.2092 O   0  0  0  0  0  0  0  0  0  0  0  0
   65.5819   10.8705   -0.3730 C   0  0  0  0  0  0  0  0  0  0  0  0
   65.7253    9.5228    0.1204 O   0  0  0  0  0  0  0  0  0  0  0  0
   65.2574   11.7769    0.8041 C   0  0  0  0  0  0  0  0  0  0  0  0
   64.0199   12.4674    0.5927 O   0  0  0  0  0  0  0  0  0  0  0  0
   65.1818   10.8876    2.0221 C   0  0  0  0  0  0  0  0  0  0  0  0
   63.8950   10.9739    2.6489 O   0  0  0  0  0  0  0  0  0  0  0  0
   65.4521    9.4739    1.5369 C   0  0  0  0  0  0  0  0  0  0  0  0
   68.2167    9.5099    5.8289 N   0  0  0  0  0  0  0  0  0  0  0  0
   69.8947   10.9062   -0.0863 O   0  5  0  0  0  0  0  0  0  0  0  0
   72.0731   13.1607   -0.2482 O   0  5  0  0  0  0  0  0  0  0  0  0
   73.2412   12.9559    3.3346 O   0  5  0  0  0  0  0  0  0  0  0  0
   67.1395   10.2887    5.4785 C   0  0  1  0  0  0  0  0  0  0  0  0
   66.7500   11.1891    6.3711 N   0  0  0  0  0  0  0  0  0  0  0  0
   69.5197   12.7630   -1.8089 O   0  0  0  0  0  0  0  0  0  0  0  0
   71.5046   14.5078    1.8523 O   0  0  0  0  0  0  0  0  0  0  0  0
   73.7935   11.2700    1.4902 O   0  0  0  0  0  0  0  0  0  0  0  0
   66.4950   10.1834    4.3191 N   0  0  0  0  0  0  0  0  0  0  0  0
   69.7448   13.2816    0.6039 O   0  0  0  0  0  0  0  0  0  0  0  0
   71.4601   12.0250    1.8754 O   0  0  0  0  0  0  0  0  0  0  0  0
   72.5763   10.5536    3.5582 O   0  0  0  0  0  0  0  0  0  0  0  0
   67.0242    9.2224    3.5273 C   0  0  2  0  0  0  0  0  0  0  0  0
   68.1022    8.3961    3.8010 C   0  0  2  0  0  0  0  0  0  0  0  0
   68.7773    8.5216    5.0398 C   0  0  1  0  0  0  0  0  0  0  0  0
   69.7534    7.9009    5.4391 O   0  0  0  0  0  0  0  0  0  0  0  0
   68.3496    7.5293    2.7311 N   0  0  0  0  0  0  0  0  0  0  0  0
   67.4255    7.8806    1.8976 C   0  0  0  0  0  0  0  0  0  0  0  0
   66.5844    8.8768    2.2714 N   0  0  0  0  0  0  0  0  0  0  0  0
  1  5  1  1  0  0  0
  1 14  1  0  0  0  0
  1 19  2  0  0  0  0
  2 15  1  6  0  0  0
  2 20  2  0  0  0  0
  2 23  1  0  0  0  0
  3 16  1  1  0  0  0
  3 21  2  0  0  0  0
  3 24  1  0  0  0  0
  3 25  1  0  0  0  0
  4  6  1  0  0  0  0
  5  4  1  0  0  0  0
  6  7  1  0  0  0  0
  6  8  2  0  0  0  0
  7 12  1  0  0  0  0
  8  9  1  0  0  0  0
  8 10  1  0  0  0  0
 10 11  1  0  0  0  0
 10 12  2  0  0  0  0
 12 32  1  0  0  0  0
 13 17  1  0  0  0  0
 17 18  1  6  0  0  0
 17 22  1  0  0  0  0
 23  1  1  0  0  0  0
 24  2  1  0  0  0  0
 26 22  1  6  0  0  0
 27 26  1  0  0  0  0
 27 28  1  0  0  0  0
 27 30  1  6  0  0  0
 28 13  1  0  0  0  0
 28 29  1  6  0  0  0
 31 30  1  0  0  0  0
 32 26  1  0  0  0  0
 32 31  1  0  0  0  0
M  CHG  3  14  -1  15  -1  16  -1
M  END
>  <CHROM.1>
-72.14330719,41.39124551,54.88689831,-97.60551147,154.90713774,145.09671779
161.40130729,69.55575317,68.86523658,11.08078206,1.93159713,0.35151907,-0.24633617
-1.00457299

>  <Name>
2au4_lig

>  <RI>
0

>  <Rbt.Current_Directory>
/home/itssahil/PROJECTS/Mol_Feturizer/New_Systems/rnas/2au4

>  <Rbt.Executable>
rbdock ($Id: //depot/dev/client3/rdock/2013.1/src/exe/rbdock.cxx#4 $)

>  <Rbt.Library>
libRbt.so (2013.1, Build901 2013/11/27)

>  <Rbt.Parameter_File>
/export/apps/rDock/src/rDock_2013.1_src/data/scripts/dock_solv.prm

>  <Rbt.Receptor>
prm/pocket_docking_6.prm

>  <SCORE>
-36.9382

>  <SCORE.INTER>
-11.9558

>  <SCORE.INTER.CONST>
1

>  <SCORE.INTER.POLAR>
-1.25

>  <SCORE.INTER.ROT>
8

>  <SCORE.INTER.SOLV>
23.5208

>  <SCORE.INTER.VDW>
-20.5775

>  <SCORE.INTER.norm>
-0.373619

>  <SCORE.INTRA>
-24.9824

>  <SCORE.INTRA.DIHEDRAL>
-47.1171

>  <SCORE.INTRA.DIHEDRAL.0>
76.3625

>  <SCORE.INTRA.POLAR>
0

>  <SCORE.INTRA.POLAR.0>
0

>  <SCORE.INTRA.REPUL>
-0.12705

>  <SCORE.INTRA.REPUL.0>
0.12705

>  <SCORE.INTRA.SOLV>
-4.11239

>  <SCORE.INTRA.SOLV.lig_0>
-119.383

>  <SCORE.INTRA.VDW>
1.26765

>  <SCORE.INTRA.VDW.0>
-5.10464

>  <SCORE.INTRA.norm>
-0.780699

>  <SCORE.RESTR>
0

>  <SCORE.RESTR.CAVITY>
0

>  <SCORE.RESTR.norm>
0

>  <SCORE.SYSTEM>
0

>  <SCORE.SYSTEM.CONST>
0

>  <SCORE.SYSTEM.DIHEDRAL>
0

>  <SCORE.SYSTEM.SOLV>
0

>  <SCORE.SYSTEM.norm>
0

>  <SCORE.heavy>
32

>  <SCORE.norm>
-1.15432

>  <RMSD>
6.036

$$$$
2au4_lig
 OpenBabel11021811423D
libRbt.so/2013.1/901 2013/11/27
 32 34  0  0  0  0  0  0  0  0999 V2000
   68.1029    5.5435   -4.3826 P   0  0  1  0  0  0  0  0  0  0  0  0
   69.5634    5.7601   -2.1045 P   0  0  1  0  0  0  0  0  0  0  0  0
   71.7708    4.4545   -1.1752 P   0  0  2  0  0  0  0  0  0  0  0  0
   66.6327    7.0296   -2.7514 C   0  0  0  0  0  0  0  0  0  0  0  0
   66.8136    5.7872   -3.4511 O   0  0  0  0  0  0  0  0  0  0  0  0
   65.3127    7.0854   -1.9965 C   0  0  0  0  0  0  0  0  0  0  0  0
   65.5406    7.0540   -0.5727 O   0  0  0  0  0  0  0  0  0  0  0  0
   64.5553    8.3613   -2.3299 C   0  0  0  0  0  0  0  0  0  0  0  0
   63.3185    8.0651   -2.9898 O   0  0  0  0  0  0  0  0  0  0  0  0
   64.3148    9.0721   -1.0194 C   0  0  0  0  0  0  0  0  0  0  0  0
   62.9140    9.2687   -0.7849 O   0  0  0  0  0  0  0  0  0  0  0  0
   64.9252    8.1957    0.0606 C   0  0  0  0  0  0  0  0  0  0  0  0
   69.1330    7.9629    2.9428 N   0  0  0  0  0  0  0  0  0  0  0  0
   67.7659    4.5232   -5.3956 O   0  5  0  0  0  0  0  0  0  0  0  0
   69.2450    7.1745   -2.3804 O   0  5  0  0  0  0  0  0  0  0  0  0
   71.4601    4.7752    0.2325 O   0  5  0  0  0  0  0  0  0  0  0  0
   68.4435    6.9485    2.3222 C   0  0  1  0  0  0  0  0  0  0  0  0
   68.9239    5.7235    2.4886 N   0  0  0  0  0  0  0  0  0  0  0  0
   68.6368    6.8568   -4.8026 O   0  0  0  0  0  0  0  0  0  0  0  0
   69.0232    5.1003   -0.8977 O   0  0  0  0  0  0  0  0  0  0  0  0
   73.1735    4.2561   -1.5961 O   0  0  0  0  0  0  0  0  0  0  0  0
   67.3490    7.1368    1.5891 N   0  0  0  0  0  0  0  0  0  0  0  0
   69.1409    4.8997   -3.3685 O   0  0  0  0  0  0  0  0  0  0  0  0
   71.1442    5.5985   -2.0893 O   0  0  0  0  0  0  0  0  0  0  0  0
   70.9227    3.1582   -1.6004 O   0  0  0  0  0  0  0  0  0  0  0  0
   66.9952    8.4413    1.5275 C   0  0  2  0  0  0  0  0  0  0  0  0
   67.6302    9.5214    2.1191 C   0  0  2  0  0  0  0  0  0  0  0  0
   68.7939    9.3032    2.8965 C   0  0  1  0  0  0  0  0  0  0  0  0
   69.4647   10.1249    3.5066 O   0  0  0  0  0  0  0  0  0  0  0  0
   66.9612   10.7144    1.8253 N   0  0  0  0  0  0  0  0  0  0  0  0
   65.9857   10.2875    1.0918 C   0  0  0  0  0  0  0  0  0  0  0  0
   65.9126    8.9543    0.8531 N   0  0  0  0  0  0  0  0  0  0  0  0
  1  5  1  1  0  0  0
  1 14  1  0  0  0  0
  1 19  2  0  0  0  0
  2 15  1  6  0  0  0
  2 20  2  0  0  0  0
  2 23  1  0  0  0  0
  3 16  1  1  0  0  0
  3 21  2  0  0  0  0
  3 24  1  0  0  0  0
  3 25  1  0  0  0  0
  4  6  1  0  0  0  0
  5  4  1  0  0  0  0
  6  7  1  0  0  0  0
  6  8  2  0  0  0  0
  7 12  1  0  0  0  0
  8  9  1  0  0  0  0
  8 10  1  0  0  0  0
 10 11  1  0  0  0  0
 10 12  2  0  0  0  0
 12 32  1  0  0  0  0
 13 17  1  0  0  0  0
 17 18  1  1  0  0  0
 17 22  1  0  0  0  0
 23  1  1  0  0  0  0
 24  2  1  0  0  0  0
 26 22  1  1  0  0  0
 27 26  1  0  0  0  0
 27 28  1  0  0  0  0
 27 30  1  1  0  0  0
 28 13  1  0  0  0  0
 28 29  1  1  0  0  0
 31 30  1  0  0  0  0
 32 26  1  0  0  0  0
 32 31  1  0  0  0  0
M  CHG  3  14  -1  15  -1  16  -1
M  END
>  <CHROM.1>
-155.26953245,-19.31014841,-64.07858569,110.81343577,176.55604273,-32.78613987
-60.22222188,151.00087346,68.08786513,6.83868430,-0.95483527,0.75860214,0.47839299
-2.04951243

>  <Name>
2au4_lig

>  <RI>
0

>  <Rbt.Current_Directory>
/home/itssahil/PROJECTS/Mol_Feturizer/New_Systems/rnas/2au4

>  <Rbt.Executable>
rbdock ($Id: //depot/dev/client3/rdock/2013.1/src/exe/rbdock.cxx#4 $)

>  <Rbt.Library>
libRbt.so (2013.1, Build901 2013/11/27)

>  <Rbt.Parameter_File>
/export/apps/rDock/src/rDock_2013.1_src/data/scripts/dock_solv.prm

>  <Rbt.Receptor>
prm/pocket_docking_4.prm

>  <SCORE>
-42.6563

>  <SCORE.INTER>
-22.2304

>  <SCORE.INTER.CONST>
1

>  <SCORE.INTER.POLAR>
-0.795603

>  <SCORE.INTER.ROT>
8

>  <SCORE.INTER.SOLV>
46.1926

>  <SCORE.INTER.VDW>
-36.4991

>  <SCORE.INTER.norm>
-0.694699

>  <SCORE.INTRA>
-20.5113

>  <SCORE.INTRA.DIHEDRAL>
-46.2987

>  <SCORE.INTRA.DIHEDRAL.0>
76.3625

>  <SCORE.INTRA.POLAR>
0

>  <SCORE.INTRA.POLAR.0>
0

>  <SCORE.INTRA.REPUL>
0.0539324

>  <SCORE.INTRA.REPUL.0>
0.12705

>  <SCORE.INTRA.SOLV>
-2.28612

>  <SCORE.INTRA.SOLV.lig_0>
-119.383

>  <SCORE.INTRA.VDW>
3.51147

>  <SCORE.INTRA.VDW.0>
-5.10464

>  <SCORE.INTRA.norm>
-0.640977

>  <SCORE.RESTR>
0.0853198

>  <SCORE.RESTR.CAVITY>
0.0853198

>  <SCORE.RESTR.norm>
0.00266624

>  <SCORE.SYSTEM>
0

>  <SCORE.SYSTEM.CONST>
0

>  <SCORE.SYSTEM.DIHEDRAL>
0

>  <SCORE.SYSTEM.SOLV>
0

>  <SCORE.SYSTEM.norm>
0

>  <SCORE.heavy>
32

>  <SCORE.norm>
-1.33301

>  <RMSD>
6.081

$$$$
2au4_lig
 OpenBabel11021811423D
libRbt.so/2013.1/901 2013/11/27
 32 34  0  0  0  0  0  0  0  0999 V2000
   68.8639    9.1936    0.6879 P   0  0  1  0  0  0  0  0  0  0  0  0
   69.0616   11.6653    1.7929 P   0  0  1  0  0  0  0  0  0  0  0  0
   68.6890   14.2860    2.4515 P   0  0  2  0  0  0  0  0  0  0  0  0
   67.4468    7.1522    1.6127 C   0  0  0  0  0  0  0  0  0  0  0  0
   67.6461    8.5736    1.5376 O   0  0  0  0  0  0  0  0  0  0  0  0
   66.3222    6.6737    0.7062 C   0  0  0  0  0  0  0  0  0  0  0  0
   65.2091    7.5897    0.7516 O   0  0  0  0  0  0  0  0  0  0  0  0
   66.7980    6.5730   -0.7347 C   0  0  0  0  0  0  0  0  0  0  0  0
   66.7524    5.2171   -1.1955 O   0  0  0  0  0  0  0  0  0  0  0  0
   65.8834    7.4549   -1.5509 C   0  0  0  0  0  0  0  0  0  0  0  0
   65.2165    6.7046   -2.5749 O   0  0  0  0  0  0  0  0  0  0  0  0
   64.8805    8.0485   -0.5768 C   0  0  0  0  0  0  0  0  0  0  0  0
   64.4455   12.4191    2.0262 N   0  0  0  0  0  0  0  0  0  0  0  0
   70.1068    9.0491    1.4721 O   0  5  0  0  0  0  0  0  0  0  0  0
   68.5294   11.1782    3.0804 O   0  5  0  0  0  0  0  0  0  0  0  0
   68.3873   13.8489    3.8296 O   0  5  0  0  0  0  0  0  0  0  0  0
   64.3622   11.1232    2.4771 C   0  0  1  0  0  0  0  0  0  0  0  0
   64.1314   10.9656    3.7736 N   0  0  0  0  0  0  0  0  0  0  0  0
   68.7928    8.6672   -0.6920 O   0  0  0  0  0  0  0  0  0  0  0  0
   70.5198   11.8041    1.5983 O   0  0  0  0  0  0  0  0  0  0  0  0
   68.0315   15.4875    1.8963 O   0  0  0  0  0  0  0  0  0  0  0  0
   64.4953   10.0560    1.6934 N   0  0  0  0  0  0  0  0  0  0  0  0
   68.4954   10.7370    0.6379 O   0  0  0  0  0  0  0  0  0  0  0  0
   68.3855   13.0672    1.4722 O   0  0  0  0  0  0  0  0  0  0  0  0
   70.2793   14.4643    2.3113 O   0  0  0  0  0  0  0  0  0  0  0  0
   64.7207   10.3959    0.4034 C   0  0  2  0  0  0  0  0  0  0  0  0
   64.8193   11.6694   -0.1336 C   0  0  2  0  0  0  0  0  0  0  0  0
   64.6748   12.7945    0.7146 C   0  0  1  0  0  0  0  0  0  0  0  0
   64.7068   13.9806    0.4150 O   0  0  0  0  0  0  0  0  0  0  0  0
   65.0568   11.6121   -1.5110 N   0  0  0  0  0  0  0  0  0  0  0  0
   65.0851   10.3353   -1.7135 C   0  0  0  0  0  0  0  0  0  0  0  0
   64.8965    9.5228   -0.6439 N   0  0  0  0  0  0  0  0  0  0  0  0
  1  5  1  1  0  0  0
  1 14  1  0  0  0  0
  1 19  2  0  0  0  0
  2 15  1  1  0  0  0
  2 20  2  0  0  0  0
  2 23  1  0  0  0  0
  3 16  1  1  0  0  0
  3 21  2  0  0  0  0
  3 24  1  0  0  0  0
  3 25  1  0  0  0  0
  4  6  1  0  0  0  0
  5  4  1  0  0  0  0
  6  7  1  0  0  0  0
  6  8  2  0  0  0  0
  7 12  1  0  0  0  0
  8  9  1  0  0  0  0
  8 10  1  0  0  0  0
 10 11  1  0  0  0  0
 10 12  2  0  0  0  0
 12 32  1  0  0  0  0
 13 17  1  0  0  0  0
 17 18  1  6  0  0  0
 17 22  1  0  0  0  0
 23  1  1  0  0  0  0
 24  2  1  0  0  0  0
 26 22  1  6  0  0  0
 27 26  1  0  0  0  0
 27 28  1  0  0  0  0
 27 30  1  6  0  0  0
 28 13  1  0  0  0  0
 28 29  1  6  0  0  0
 31 30  1  0  0  0  0
 32 26  1  0  0  0  0
 32 31  1  0  0  0  0
M  CHG  3  14  -1  15  -1  16  -1
M  END
>  <CHROM.1>
-77.82515274,-60.86481957,-52.82264875,-40.87801967,-102.34307766,-24.00840027
90.74451646,64.36536756,67.04350301,10.57632233,0.92779934,-1.91226743,-0.23220970
0.35006845

>  <Name>
2au4_lig

>  <RI>
0

>  <Rbt.Current_Directory>
/home/itssahil/PROJECTS/Mol_Feturizer/New_Systems/rnas/2au4

>  <Rbt.Executable>
rbdock ($Id: //depot/dev/client3/rdock/2013.1/src/exe/rbdock.cxx#4 $)

>  <Rbt.Library>
libRbt.so (2013.1, Build901 2013/11/27)

>  <Rbt.Parameter_File>
/export/apps/rDock/src/rDock_2013.1_src/data/scripts/dock_solv.prm

>  <Rbt.Receptor>
prm/pocket_docking_5.prm

>  <SCORE>
-30.8308

>  <SCORE.INTER>
-7.2724

>  <SCORE.INTER.CONST>
1

>  <SCORE.INTER.POLAR>
-0.978871

>  <SCORE.INTER.ROT>
8

>  <SCORE.INTER.SOLV>
12.8367

>  <SCORE.INTER.VDW>
-14.7976

>  <SCORE.INTER.norm>
-0.227262

>  <SCORE.INTRA>
-23.5584

>  <SCORE.INTRA.DIHEDRAL>
-43.2831

>  <SCORE.INTRA.DIHEDRAL.0>
76.3625

>  <SCORE.INTRA.POLAR>
0

>  <SCORE.INTRA.POLAR.0>
0

>  <SCORE.INTRA.REPUL>
0.0714185

>  <SCORE.INTRA.REPUL.0>
0.12705

>  <SCORE.INTRA.SOLV>
-0.729211

>  <SCORE.INTRA.SOLV.lig_0>
-119.383

>  <SCORE.INTRA.VDW>
-1.90931

>  <SCORE.INTRA.VDW.0>
-5.10464

>  <SCORE.INTRA.norm>
-0.736199

>  <SCORE.RESTR>
0

>  <SCORE.RESTR.CAVITY>
0

>  <SCORE.RESTR.norm>
0

>  <SCORE.SYSTEM>
0

>  <SCORE.SYSTEM.CONST>
0

>  <SCORE.SYSTEM.DIHEDRAL>
0

>  <SCORE.SYSTEM.SOLV>
0

>  <SCORE.SYSTEM.norm>
0

>  <SCORE.heavy>
32

>  <SCORE.norm>
-0.963461

>  <RMSD>
6.090

$$$$
2au4_lig
 OpenBabel11021811423D
libRbt.so/2013.1/901 2013/11/27
 32 34  0  0  0  0  0  0  0  0999 V2000
   71.6221   10.8778    4.4390 P   0  0  1  0  0  0  0  0  0  0  0  0
   73.4257   12.1663    2.8718 P   0  0  1  0  0  0  0  0  0  0  0  0
   73.1211   13.2631    0.3928 P   0  0  2  0  0  0  0  0  0  0  0  0
   69.2935   10.0203    3.5047 C   0  0  0  0  0  0  0  0  0  0  0  0
   70.0139   10.8236    4.4541 O   0  0  0  0  0  0  0  0  0  0  0  0
   69.7405   10.2717    2.0720 C   0  0  0  0  0  0  0  0  0  0  0  0
   69.7444    9.0420    1.3184 O   0  0  0  0  0  0  0  0  0  0  0  0
   68.8055   11.2515    1.3804 C   0  0  0  0  0  0  0  0  0  0  0  0
   69.4962   12.4560    1.0269 O   0  0  0  0  0  0  0  0  0  0  0  0
   68.2786   10.5476    0.1527 C   0  0  0  0  0  0  0  0  0  0  0  0
   68.6025   11.2732   -1.0410 O   0  0  0  0  0  0  0  0  0  0  0  0
   68.9220    9.1717    0.1394 C   0  0  0  0  0  0  0  0  0  0  0  0
   64.2156    7.8907   -1.3689 N   0  0  0  0  0  0  0  0  0  0  0  0
   72.0872   11.4213    5.7309 O   0  5  0  0  0  0  0  0  0  0  0  0
   74.2230   12.4942    4.0697 O   0  5  0  0  0  0  0  0  0  0  0  0
   72.9056   14.5938   -0.2104 O   0  5  0  0  0  0  0  0  0  0  0  0
   64.8872    9.0804   -1.5219 C   0  0  1  0  0  0  0  0  0  0  0  0
   64.2313   10.0496   -2.1461 N   0  0  0  0  0  0  0  0  0  0  0  0
   72.1337    9.5779    3.9545 O   0  0  0  0  0  0  0  0  0  0  0  0
   73.8094   11.0248    2.0155 O   0  0  0  0  0  0  0  0  0  0  0  0
   72.1136   12.1972    0.2114 O   0  0  0  0  0  0  0  0  0  0  0  0
   66.1245    9.2946   -1.0818 N   0  0  0  0  0  0  0  0  0  0  0  0
   71.9173   11.9633    3.3187 O   0  0  0  0  0  0  0  0  0  0  0  0
   73.3435   13.4633    1.9572 O   0  0  0  0  0  0  0  0  0  0  0  0
   74.5459   12.7069   -0.0984 O   0  0  0  0  0  0  0  0  0  0  0  0
   66.6422    8.2064   -0.4667 C   0  0  2  0  0  0  0  0  0  0  0  0
   66.0380    6.9750   -0.2706 C   0  0  2  0  0  0  0  0  0  0  0  0
   64.7202    6.7639   -0.7451 C   0  0  1  0  0  0  0  0  0  0  0  0
   64.0274    5.7605   -0.6414 O   0  0  0  0  0  0  0  0  0  0  0  0
   66.8944    6.1027    0.4096 N   0  0  0  0  0  0  0  0  0  0  0  0
   67.9381    6.8473    0.5779 C   0  0  0  0  0  0  0  0  0  0  0  0
   67.8934    8.1142    0.0956 N   0  0  0  0  0  0  0  0  0  0  0  0
  1  5  1  1  0  0  0
  1 14  1  0  0  0  0
  1 19  2  0  0  0  0
  2 15  1  1  0  0  0
  2 20  2  0  0  0  0
  2 23  1  0  0  0  0
  3 16  1  6  0  0  0
  3 21  2  0  0  0  0
  3 24  1  0  0  0  0
  3 25  1  0  0  0  0
  4  6  1  0  0  0  0
  5  4  1  0  0  0  0
  6  7  1  0  0  0  0
  6  8  2  0  0  0  0
  7 12  1  0  0  0  0
  8  9  1  0  0  0  0
  8 10  1  0  0  0  0
 10 11  1  0  0  0  0
 10 12  2  0  0  0  0
 12 32  1  0  0  0  0
 13 17  1  0  0  0  0
 17 18  1  1  0  0  0
 17 22  1  0  0  0  0
 23  1  1  0  0  0  0
 24  2  1  0  0  0  0
 26 22  1  1  0  0  0
 27 26  1  0  0  0  0
 27 28  1  0  0  0  0
 27 30  1  1  0  0  0
 28 13  1  0  0  0  0
 28 29  1  1  0  0  0
 31 30  1  0  0  0  0
 32 26  1  0  0  0  0
 32 31  1  0  0  0  0
M  CHG  3  14  -1  15  -1  16  -1
M  END
>  <CHROM.1>
-162.99374400,-56.41270505,172.82099601,142.45770741,-50.49505786,149.52612977
-172.21592474,153.97492275,69.89674671,10.44753729,1.28411510,0.04476841
0.63908729,2.10916122

>  <Name>
2au4_lig

>  <RI>
0

>  <Rbt.Current_Directory>
/home/itssahil/PROJECTS/Mol_Feturizer/New_Systems/rnas/2au4

>  <Rbt.Executable>
rbdock ($Id: //depot/dev/client3/rdock/2013.1/src/exe/rbdock.cxx#4 $)

>  <Rbt.Library>
libRbt.so (2013.1, Build901 2013/11/27)

>  <Rbt.Parameter_File>
/export/apps/rDock/src/rDock_2013.1_src/data/scripts/dock_solv.prm

>  <Rbt.Receptor>
prm/pocket_docking_8.prm

>  <SCORE>
-44.238

>  <SCORE.INTER>
-18.9595

>  <SCORE.INTER.CONST>
1

>  <SCORE.INTER.POLAR>
-3.28734

>  <SCORE.INTER.ROT>
8

>  <SCORE.INTER.SOLV>
33.619

>  <SCORE.INTER.VDW>
-21.8215

>  <SCORE.INTER.norm>
-0.592483

>  <SCORE.INTRA>
-25.2915

>  <SCORE.INTRA.DIHEDRAL>
-48.2768

>  <SCORE.INTRA.DIHEDRAL.0>
76.3625

>  <SCORE.INTRA.POLAR>
0

>  <SCORE.INTRA.POLAR.0>
0

>  <SCORE.INTRA.REPUL>
-0.12705

>  <SCORE.INTRA.REPUL.0>
0.12705

>  <SCORE.INTRA.SOLV>
-1.91653

>  <SCORE.INTRA.SOLV.lig_0>
-119.383

>  <SCORE.INTRA.VDW>
0.440452

>  <SCORE.INTRA.VDW.0>
-5.10464

>  <SCORE.INTRA.norm>
-0.790358

>  <SCORE.RESTR>
0.0128946

>  <SCORE.RESTR.CAVITY>
0.0128946

>  <SCORE.RESTR.norm>
0.000402955

>  <SCORE.SYSTEM>
0

>  <SCORE.SYSTEM.CONST>
0

>  <SCORE.SYSTEM.DIHEDRAL>
0

>  <SCORE.SYSTEM.SOLV>
0

>  <SCORE.SYSTEM.norm>
0

>  <SCORE.heavy>
32

>  <SCORE.norm>
-1.38244

>  <RMSD>
6.096

$$$$
2au4_lig
 OpenBabel11021811423D
libRbt.so/2013.1/901 2013/11/27
 32 34  0  0  0  0  0  0  0  0999 V2000
   68.3021    6.0729   -2.9664 P   0  0  1  0  0  0  0  0  0  0  0  0
   70.7432    5.1948   -2.1669 P   0  0  1  0  0  0  0  0  0  0  0  0
   71.3474    4.5872    0.4228 P   0  0  2  0  0  0  0  0  0  0  0  0
   66.2857    7.7479   -2.5674 C   0  0  0  0  0  0  0  0  0  0  0  0
   67.6721    7.5517   -2.8916 O   0  0  0  0  0  0  0  0  0  0  0  0
   65.9919    7.5009   -1.0949 C   0  0  0  0  0  0  0  0  0  0  0  0
   67.2144    7.2689   -0.3655 O   0  0  0  0  0  0  0  0  0  0  0  0
   65.2890    8.6998   -0.4776 C   0  0  0  0  0  0  0  0  0  0  0  0
   63.9700    8.3507   -0.0401 O   0  0  0  0  0  0  0  0  0  0  0  0
   66.1450    9.1482    0.6828 C   0  0  0  0  0  0  0  0  0  0  0  0
   65.4107    9.1128    1.9139 O   0  0  0  0  0  0  0  0  0  0  0  0
   67.3290    8.1982    0.7329 C   0  0  0  0  0  0  0  0  0  0  0  0
   69.9522   12.2755    2.3333 N   0  0  0  0  0  0  0  0  0  0  0  0
   67.8414    5.3049   -1.7922 O   0  5  0  0  0  0  0  0  0  0  0  0
   69.9440    3.9541   -2.1554 O   0  5  0  0  0  0  0  0  0  0  0  0
   70.8347    3.2778   -0.0285 O   0  5  0  0  0  0  0  0  0  0  0  0
   68.6732   11.8823    2.6484 C   0  0  1  0  0  0  0  0  0  0  0  0
   68.0066   12.6660    3.4853 N   0  0  0  0  0  0  0  0  0  0  0  0
   68.0933    5.5392   -4.3294 O   0  0  0  0  0  0  0  0  0  0  0  0
   72.0625    5.2207   -2.8319 O   0  0  0  0  0  0  0  0  0  0  0  0
   70.9695    5.1108    1.7521 O   0  0  0  0  0  0  0  0  0  0  0  0
   68.0939   10.7872    2.1627 N   0  0  0  0  0  0  0  0  0  0  0  0
   69.8545    6.3529   -2.7876 O   0  0  0  0  0  0  0  0  0  0  0  0
   70.9383    5.6762   -0.6651 O   0  0  0  0  0  0  0  0  0  0  0  0
   72.9504    4.5688    0.3190 O   0  0  0  0  0  0  0  0  0  0  0  0
   68.9098   10.1085    1.3235 C   0  0  2  0  0  0  0  0  0  0  0  0
   70.2052   10.4320    0.9536 C   0  0  2  0  0  0  0  0  0  0  0  0
   70.8068   11.6015    1.4795 C   0  0  1  0  0  0  0  0  0  0  0  0
   71.9207   12.0524    1.2481 O   0  0  0  0  0  0  0  0  0  0  0  0
   70.7209    9.4832    0.0642 N   0  0  0  0  0  0  0  0  0  0  0  0
   69.7251    8.6656   -0.0443 C   0  0  0  0  0  0  0  0  0  0  0  0
   68.6007    8.9438    0.6616 N   0  0  0  0  0  0  0  0  0  0  0  0
  1  5  1  1  0  0  0
  1 14  1  0  0  0  0
  1 19  2  0  0  0  0
  2 15  1  6  0  0  0
  2 20  2  0  0  0  0
  2 23  1  0  0  0  0
  3 16  1  6  0  0  0
  3 21  2  0  0  0  0
  3 24  1  0  0  0  0
  3 25  1  0  0  0  0
  4  6  1  0  0  0  0
  5  4  1  0  0  0  0
  6  7  1  0  0  0  0
  6  8  2  0  0  0  0
  7 12  1  0  0  0  0
  8  9  1  0  0  0  0
  8 10  1  0  0  0  0
 10 11  1  0  0  0  0
 10 12  2  0  0  0  0
 12 32  1  0  0  0  0
 13 17  1  0  0  0  0
 17 18  1  6  0  0  0
 17 22  1  0  0  0  0
 23  1  1  0  0  0  0
 24  2  1  0  0  0  0
 26 22  1  6  0  0  0
 27 26  1  0  0  0  0
 27 28  1  0  0  0  0
 27 30  1  6  0  0  0
 28 13  1  0  0  0  0
 28 29  1  6  0  0  0
 31 30  1  0  0  0  0
 32 26  1  0  0  0  0
 32 31  1  0  0  0  0
M  CHG  3  14  -1  15  -1  16  -1
M  END
>  <CHROM.1>
-45.19822089,12.37984270,-27.48696409,6.12627665,73.51309352,163.10313104
153.16868645,45.40091246,69.07758692,7.54262488,-0.35241557,1.27917196,0.30273737
-2.53497512

>  <Name>
2au4_lig

>  <RI>
0

>  <Rbt.Current_Directory>
/home/itssahil/PROJECTS/Mol_Feturizer/New_Systems/rnas/2au4

>  <Rbt.Executable>
rbdock ($Id: //depot/dev/client3/rdock/2013.1/src/exe/rbdock.cxx#4 $)

>  <Rbt.Library>
libRbt.so (2013.1, Build901 2013/11/27)

>  <Rbt.Parameter_File>
/export/apps/rDock/src/rDock_2013.1_src/data/scripts/dock_solv.prm

>  <Rbt.Receptor>
prm/pocket_docking_2.prm

>  <SCORE>
-1.85751

>  <SCORE.INTER>
16.0189

>  <SCORE.INTER.CONST>
1

>  <SCORE.INTER.POLAR>
-1.16619

>  <SCORE.INTER.ROT>
8

>  <SCORE.INTER.SOLV>
41.4827

>  <SCORE.INTER.VDW>
-8.19434

>  <SCORE.INTER.norm>
0.50059

>  <SCORE.INTRA>
-20.1842

>  <SCORE.INTRA.DIHEDRAL>
-43.0874

>  <SCORE.INTRA.DIHEDRAL.0>
76.3625

>  <SCORE.INTRA.POLAR>
0

>  <SCORE.INTRA.POLAR.0>
0

>  <SCORE.INTRA.REPUL>
-0.114347

>  <SCORE.INTRA.REPUL.0>
0.12705

>  <SCORE.INTRA.SOLV>
-1.28771

>  <SCORE.INTRA.SOLV.lig_0>
-119.383

>  <SCORE.INTRA.VDW>
2.57505

>  <SCORE.INTRA.VDW.0>
-5.10464

>  <SCORE.INTRA.norm>
-0.630757

>  <SCORE.RESTR>
2.30783

>  <SCORE.RESTR.CAVITY>
2.30783

>  <SCORE.RESTR.norm>
0.0721198

>  <SCORE.SYSTEM>
0

>  <SCORE.SYSTEM.CONST>
0

>  <SCORE.SYSTEM.DIHEDRAL>
0

>  <SCORE.SYSTEM.SOLV>
0

>  <SCORE.SYSTEM.norm>
0

>  <SCORE.heavy>
32

>  <SCORE.norm>
-0.0580472

>  <RMSD>
6.101

$$$$
2au4_lig
 OpenBabel11021811423D
libRbt.so/2013.1/901 2013/11/27
 32 34  0  0  0  0  0  0  0  0999 V2000
   72.5677   10.9152    2.7439 P   0  0  1  0  0  0  0  0  0  0  0  0
   72.7146   13.1332    1.1855 P   0  0  1  0  0  0  0  0  0  0  0  0
   73.7866   12.9448   -1.3157 P   0  0  2  0  0  0  0  0  0  0  0  0
   70.4954   10.6091    4.3694 C   0  0  0  0  0  0  0  0  0  0  0  0
   71.3368   10.0662    3.3384 O   0  0  0  0  0  0  0  0  0  0  0  0
   69.3173    9.7033    4.6961 C   0  0  0  0  0  0  0  0  0  0  0  0
   68.2542    9.8884    3.7391 O   0  0  0  0  0  0  0  0  0  0  0  0
   69.7369    8.2419    4.6654 C   0  0  0  0  0  0  0  0  0  0  0  0
   69.6067    7.6444    5.9611 O   0  0  0  0  0  0  0  0  0  0  0  0
   68.8403    7.5593    3.6602 C   0  0  0  0  0  0  0  0  0  0  0  0
   68.1011    6.4901    4.2657 O   0  0  0  0  0  0  0  0  0  0  0  0
   67.9032    8.6292    3.1271 C   0  0  0  0  0  0  0  0  0  0  0  0
   69.3897    6.3202   -1.1770 N   0  0  0  0  0  0  0  0  0  0  0  0
   73.3768   11.4233    3.8700 O   0  5  0  0  0  0  0  0  0  0  0  0
   71.8685   14.2715    0.7774 O   0  5  0  0  0  0  0  0  0  0  0  0
   75.1329   13.3294   -0.8458 O   0  5  0  0  0  0  0  0  0  0  0  0
   69.4850    5.8858    0.1238 C   0  0  1  0  0  0  0  0  0  0  0  0
   70.0458    4.6981    0.3073 N   0  0  0  0  0  0  0  0  0  0  0  0
   73.2072   10.1290    1.6673 O   0  0  0  0  0  0  0  0  0  0  0  0
   73.9901   13.3733    1.8920 O   0  0  0  0  0  0  0  0  0  0  0  0
   72.8873   13.9636   -1.8964 O   0  0  0  0  0  0  0  0  0  0  0  0
   69.0560    6.5849    1.1717 N   0  0  0  0  0  0  0  0  0  0  0  0
   71.8362   12.1533    2.0713 O   0  0  0  0  0  0  0  0  0  0  0  0
   73.0218   12.2535   -0.1018 O   0  0  0  0  0  0  0  0  0  0  0  0
   73.9403   11.7410   -2.3682 O   0  0  0  0  0  0  0  0  0  0  0  0
   68.5171    7.7711    0.8069 C   0  0  2  0  0  0  0  0  0  0  0  0
   68.3819    8.2836   -0.4733 C   0  0  2  0  0  0  0  0  0  0  0  0
   68.8442    7.5267   -1.5776 C   0  0  1  0  0  0  0  0  0  0  0  0
   68.8302    7.8274   -2.7637 O   0  0  0  0  0  0  0  0  0  0  0  0
   67.7748    9.5437   -0.4437 N   0  0  0  0  0  0  0  0  0  0  0  0
   67.5870    9.7081    0.8250 C   0  0  0  0  0  0  0  0  0  0  0  0
   67.9915    8.7156    1.6564 N   0  0  0  0  0  0  0  0  0  0  0  0
  1  5  1  1  0  0  0
  1 14  1  0  0  0  0
  1 19  2  0  0  0  0
  2 15  1  6  0  0  0
  2 20  2  0  0  0  0
  2 23  1  0  0  0  0
  3 16  1  1  0  0  0
  3 21  2  0  0  0  0
  3 24  1  0  0  0  0
  3 25  1  0  0  0  0
  4  6  1  0  0  0  0
  5  4  1  0  0  0  0
  6  7  1  0  0  0  0
  6  8  2  0  0  0  0
  7 12  1  0  0  0  0
  8  9  1  0  0  0  0
  8 10  1  0  0  0  0
 10 11  1  0  0  0  0
 10 12  2  0  0  0  0
 12 32  1  0  0  0  0
 13 17  1  0  0  0  0
 17 18  1  1  0  0  0
 17 22  1  0  0  0  0
 23  1  1  0  0  0  0
 24  2  1  0  0  0  0
 26 22  1  1  0  0  0
 27 26  1  0  0  0  0
 27 28  1  0  0  0  0
 27 30  1  1  0  0  0
 28 13  1  0  0  0  0
 28 29  1  1  0  0  0
 31 30  1  0  0  0  0
 32 26  1  0  0  0  0
 32 31  1  0  0  0  0
M  CHG  3  14  -1  15  -1  16  -1
M  END
>  <CHROM.1>
50.25116860,-174.43300272,63.81135941,-81.31825911,174.58352079,137.84580752
-171.50649901,60.10630896,70.90698854,10.09379603,1.29698634,-0.18757254
0.87335882,1.47318181

>  <Name>
2au4_lig

>  <RI>
0

>  <Rbt.Current_Directory>
/home/itssahil/PROJECTS/Mol_Feturizer/New_Systems/rnas/2au4

>  <Rbt.Executable>
rbdock ($Id: //depot/dev/client3/rdock/2013.1/src/exe/rbdock.cxx#4 $)

>  <Rbt.Library>
libRbt.so (2013.1, Build901 2013/11/27)

>  <Rbt.Parameter_File>
/export/apps/rDock/src/rDock_2013.1_src/data/scripts/dock_solv.prm

>  <Rbt.Receptor>
prm/pocket_docking_5.prm

>  <SCORE>
-39.5972

>  <SCORE.INTER>
-13.7657

>  <SCORE.INTER.CONST>
1

>  <SCORE.INTER.POLAR>
-1.15643

>  <SCORE.INTER.ROT>
8

>  <SCORE.INTER.SOLV>
33.3785

>  <SCORE.INTER.VDW>
-25.3819

>  <SCORE.INTER.norm>
-0.430177

>  <SCORE.INTRA>
-25.8315

>  <SCORE.INTRA.DIHEDRAL>
-48.2308

>  <SCORE.INTRA.DIHEDRAL.0>
76.3625

>  <SCORE.INTRA.POLAR>
0

>  <SCORE.INTRA.POLAR.0>
0

>  <SCORE.INTRA.REPUL>
-0.12705

>  <SCORE.INTRA.REPUL.0>
0.12705

>  <SCORE.INTRA.SOLV>
-4.68454

>  <SCORE.INTRA.SOLV.lig_0>
-119.383

>  <SCORE.INTRA.VDW>
1.26141

>  <SCORE.INTRA.VDW.0>
-5.10464

>  <SCORE.INTRA.norm>
-0.807235

>  <SCORE.RESTR>
0

>  <SCORE.RESTR.CAVITY>
0

>  <SCORE.RESTR.norm>
0

>  <SCORE.SYSTEM>
0

>  <SCORE.SYSTEM.CONST>
0

>  <SCORE.SYSTEM.DIHEDRAL>
0

>  <SCORE.SYSTEM.SOLV>
0

>  <SCORE.SYSTEM.norm>
0

>  <SCORE.heavy>
32

>  <SCORE.norm>
-1.23741

>  <RMSD>
6.107

$$$$
2au4_lig
 OpenBabel11021811423D
libRbt.so/2013.1/901 2013/11/27
 32 34  0  0  0  0  0  0  0  0999 V2000
   68.7265    8.6258    4.2374 P   0  0  1  0  0  0  0  0  0  0  0  0
   69.0357   10.7207    5.9359 P   0  0  1  0  0  0  0  0  0  0  0  0
   71.0967   12.3778    5.2674 P   0  0  2  0  0  0  0  0  0  0  0  0
   68.6519    7.2422    1.9767 C   0  0  0  0  0  0  0  0  0  0  0  0
   69.1806    8.3544    2.7177 O   0  0  0  0  0  0  0  0  0  0  0  0
   68.9914    7.3157    0.4953 C   0  0  0  0  0  0  0  0  0  0  0  0
   68.0782    6.5081   -0.2754 O   0  0  0  0  0  0  0  0  0  0  0  0
   68.9013    8.7482   -0.0073 C   0  0  0  0  0  0  0  0  0  0  0  0
   70.1819    9.2188   -0.4450 O   0  0  0  0  0  0  0  0  0  0  0  0
   67.9075    8.7421   -1.1443 C   0  0  0  0  0  0  0  0  0  0  0  0
   68.5053    9.2147   -2.3589 O   0  0  0  0  0  0  0  0  0  0  0  0
   67.4404    7.3048   -1.2962 C   0  0  0  0  0  0  0  0  0  0  0  0
   63.0087    9.8185   -1.6250 N   0  0  0  0  0  0  0  0  0  0  0  0
   67.2564    8.7612    4.2725 O   0  5  0  0  0  0  0  0  0  0  0  0
   67.5699   10.7916    6.0916 O   0  5  0  0  0  0  0  0  0  0  0  0
   71.9446   11.4831    6.0809 O   0  5  0  0  0  0  0  0  0  0  0  0
   64.2901   10.2818   -1.8069 C   0  0  1  0  0  0  0  0  0  0  0  0
   64.4130   11.5676   -2.1082 N   0  0  0  0  0  0  0  0  0  0  0  0
   69.4015    7.6449    5.1141 O   0  0  0  0  0  0  0  0  0  0  0  0
   69.8587   10.0485    6.9627 O   0  0  0  0  0  0  0  0  0  0  0  0
   71.3866   13.8261    5.2159 O   0  0  0  0  0  0  0  0  0  0  0  0
   65.3761    9.5212   -1.6938 N   0  0  0  0  0  0  0  0  0  0  0  0
   69.3549   10.0534    4.5326 O   0  0  0  0  0  0  0  0  0  0  0  0
   69.5894   12.1985    5.7497 O   0  0  0  0  0  0  0  0  0  0  0  0
   71.0565   11.8122    3.7643 O   0  0  0  0  0  0  0  0  0  0  0  0
   65.0713    8.2413   -1.3785 C   0  0  2  0  0  0  0  0  0  0  0  0
   63.8146    7.6930   -1.1787 C   0  0  2  0  0  0  0  0  0  0  0  0
   62.6690    8.5168   -1.3025 C   0  0  1  0  0  0  0  0  0  0  0  0
   61.4947    8.2141   -1.1392 O   0  0  0  0  0  0  0  0  0  0  0  0
   63.9087    6.3327   -0.8661 N   0  0  0  0  0  0  0  0  0  0  0  0
   65.1885    6.1507   -0.8958 C   0  0  0  0  0  0  0  0  0  0  0  0
   65.9708    7.2189   -1.1899 N   0  0  0  0  0  0  0  0  0  0  0  0
  1  5  1  6  0  0  0
  1 14  1  0  0  0  0
  1 19  2  0  0  0  0
  2 15  1  1  0  0  0
  2 20  2  0  0  0  0
  2 23  1  0  0  0  0
  3 16  1  1  0  0  0
  3 21  2  0  0  0  0
  3 24  1  0  0  0  0
  3 25  1  0  0  0  0
  4  6  1  0  0  0  0
  5  4  1  0  0  0  0
  6  7  1  0  0  0  0
  6  8  2  0  0  0  0
  7 12  1  0  0  0  0
  8  9  1  0  0  0  0
  8 10  1  0  0  0  0
 10 11  1  0  0  0  0
 10 12  2  0  0  0  0
 12 32  1  0  0  0  0
 13 17  1  0  0  0  0
 17 18  1  1  0  0  0
 17 22  1  0  0  0  0
 23  1  1  0  0  0  0
 24  2  1  0  0  0  0
 26 22  1  1  0  0  0
 27 26  1  0  0  0  0
 27 28  1  0  0  0  0
 27 30  1  1  0  0  0
 28 13  1  0  0  0  0
 28 29  1  1  0  0  0
 31 30  1  0  0  0  0
 32 26  1  0  0  0  0
 32 31  1  0  0  0  0
M  CHG  3  14  -1  15  -1  16  -1
M  END
>  <CHROM.1>
-56.67964736,-55.59565668,-46.98962768,-158.95010833,168.86260955,141.16900917
176.00092136,-167.76487475,67.78236813,9.39794294,2.00321157,-0.90647447
0.28361796,-2.18060130

>  <Name>
2au4_lig

>  <RI>
0

>  <Rbt.Current_Directory>
/home/itssahil/PROJECTS/Mol_Feturizer/New_Systems/rnas/2au4

>  <Rbt.Executable>
rbdock ($Id: //depot/dev/client3/rdock/2013.1/src/exe/rbdock.cxx#4 $)

>  <Rbt.Library>
libRbt.so (2013.1, Build901 2013/11/27)

>  <Rbt.Parameter_File>
/export/apps/rDock/src/rDock_2013.1_src/data/scripts/dock_solv.prm

>  <Rbt.Receptor>
prm/pocket_docking_6.prm

>  <SCORE>
-42.5298

>  <SCORE.INTER>
-16.4258

>  <SCORE.INTER.CONST>
1

>  <SCORE.INTER.POLAR>
-1.80411

>  <SCORE.INTER.ROT>
8

>  <SCORE.INTER.SOLV>
24.6918

>  <SCORE.INTER.VDW>
-22.1008

>  <SCORE.INTER.norm>
-0.513306

>  <SCORE.INTRA>
-26.104

>  <SCORE.INTRA.DIHEDRAL>
-48.7239

>  <SCORE.INTRA.DIHEDRAL.0>
76.3625

>  <SCORE.INTRA.POLAR>
0

>  <SCORE.INTRA.POLAR.0>
0

>  <SCORE.INTRA.REPUL>
-0.11246

>  <SCORE.INTRA.REPUL.0>
0.12705

>  <SCORE.INTRA.SOLV>
-6.23663

>  <SCORE.INTRA.SOLV.lig_0>
-119.383

>  <SCORE.INTRA.VDW>
1.9386

>  <SCORE.INTRA.VDW.0>
-5.10464

>  <SCORE.INTRA.norm>
-0.815749

>  <SCORE.RESTR>
0

>  <SCORE.RESTR.CAVITY>
0

>  <SCORE.RESTR.norm>
0

>  <SCORE.SYSTEM>
0

>  <SCORE.SYSTEM.CONST>
0

>  <SCORE.SYSTEM.DIHEDRAL>
0

>  <SCORE.SYSTEM.SOLV>
0

>  <SCORE.SYSTEM.norm>
0

>  <SCORE.heavy>
32

>  <SCORE.norm>
-1.32906

>  <RMSD>
6.113

$$$$
2au4_lig
 OpenBabel11021811423D
libRbt.so/2013.1/901 2013/11/27
 32 34  0  0  0  0  0  0  0  0999 V2000
   64.3577    7.0546   -1.1333 P   0  0  1  0  0  0  0  0  0  0  0  0
   62.7061    8.7569   -2.4539 P   0  0  1  0  0  0  0  0  0  0  0  0
   60.2161    8.6472   -1.3457 P   0  0  2  0  0  0  0  0  0  0  0  0
   66.4802    5.8391   -2.1571 C   0  0  0  0  0  0  0  0  0  0  0  0
   65.9462    6.8788   -1.3207 O   0  0  0  0  0  0  0  0  0  0  0  0
   68.0008    5.8583   -2.2099 C   0  0  0  0  0  0  0  0  0  0  0  0
   68.5287    6.8274   -1.2813 O   0  0  0  0  0  0  0  0  0  0  0  0
   68.5693    4.4945   -1.8499 C   0  0  0  0  0  0  0  0  0  0  0  0
   69.2731    3.9239   -2.9598 O   0  0  0  0  0  0  0  0  0  0  0  0
   69.4928    4.7114   -0.6750 C   0  0  0  0  0  0  0  0  0  0  0  0
   70.8274    4.2833   -0.9777 O   0  0  0  0  0  0  0  0  0  0  0  0
   69.4587    6.1997   -0.3734 C   0  0  0  0  0  0  0  0  0  0  0  0
   67.1890    9.3782    2.9148 N   0  0  0  0  0  0  0  0  0  0  0  0
   63.7379    5.7149   -1.0870 O   0  5  0  0  0  0  0  0  0  0  0  0
   63.1406    9.9752   -1.7432 O   0  5  0  0  0  0  0  0  0  0  0  0
   59.6083    8.0612   -0.1339 O   0  5  0  0  0  0  0  0  0  0  0  0
   67.3776    9.5133    1.5599 C   0  0  1  0  0  0  0  0  0  0  0  0
   66.9126   10.6270    1.0098 N   0  0  0  0  0  0  0  0  0  0  0  0
   64.1152    8.0214   -0.0413 O   0  0  0  0  0  0  0  0  0  0  0  0
   62.1418    8.8547   -3.8161 O   0  0  0  0  0  0  0  0  0  0  0  0
   59.5067    8.5699   -2.6399 O   0  0  0  0  0  0  0  0  0  0  0  0
   67.9895    8.6060    0.8029 N   0  0  0  0  0  0  0  0  0  0  0  0
   63.9266    7.7444   -2.4966 O   0  0  0  0  0  0  0  0  0  0  0  0
   61.6555    7.9933   -1.5383 O   0  0  0  0  0  0  0  0  0  0  0  0
   60.5644   10.1865   -1.0462 O   0  0  0  0  0  0  0  0  0  0  0  0
   68.4041    7.5378    1.5224 C   0  0  2  0  0  0  0  0  0  0  0  0
   68.2556    7.3221    2.8830 C   0  0  2  0  0  0  0  0  0  0  0  0
   67.6021    8.2983    3.6743 C   0  0  1  0  0  0  0  0  0  0  0  0
   67.4043    8.2889    4.8819 O   0  0  0  0  0  0  0  0  0  0  0  0
   68.8187    6.0974    3.2575 N   0  0  0  0  0  0  0  0  0  0  0  0
   69.2622    5.6618    2.1237 C   0  0  0  0  0  0  0  0  0  0  0  0
   69.0686    6.4398    1.0296 N   0  0  0  0  0  0  0  0  0  0  0  0
  1  5  1  6  0  0  0
  1 14  1  0  0  0  0
  1 19  2  0  0  0  0
  2 15  1  1  0  0  0
  2 20  2  0  0  0  0
  2 23  1  0  0  0  0
  3 16  1  1  0  0  0
  3 21  2  0  0  0  0
  3 24  1  0  0  0  0
  3 25  1  0  0  0  0
  4  6  1  0  0  0  0
  5  4  1  0  0  0  0
  6  7  1  0  0  0  0
  6  8  2  0  0  0  0
  7 12  1  0  0  0  0
  8  9  1  0  0  0  0
  8 10  1  0  0  0  0
 10 11  1  0  0  0  0
 10 12  2  0  0  0  0
 12 32  1  0  0  0  0
 13 17  1  0  0  0  0
 17 18  1  1  0  0  0
 17 22  1  0  0  0  0
 23  1  1  0  0  0  0
 24  2  1  0  0  0  0
 26 22  1  1  0  0  0
 27 26  1  0  0  0  0
 27 28  1  0  0  0  0
 27 30  1  1  0  0  0
 28 13  1  0  0  0  0
 28 29  1  1  0  0  0
 31 30  1  0  0  0  0
 32 26  1  0  0  0  0
 32 31  1  0  0  0  0
M  CHG  3  14  -1  15  -1  16  -1
M  END
>  <CHROM.1>
37.43439882,70.57645658,-160.31135463,6.51849624,179.32096866,-30.19580874
-147.81975463,70.58562174,65.45661873,7.49557973,-0.43106081,-3.01572261
-0.40772271,1.04476161

>  <Name>
2au4_lig

>  <RI>
0

>  <Rbt.Current_Directory>
/home/itssahil/PROJECTS/Mol_Feturizer/New_Systems/rnas/2au4

>  <Rbt.Executable>
rbdock ($Id: //depot/dev/client3/rdock/2013.1/src/exe/rbdock.cxx#4 $)

>  <Rbt.Library>
libRbt.so (2013.1, Build901 2013/11/27)

>  <Rbt.Parameter_File>
/export/apps/rDock/src/rDock_2013.1_src/data/scripts/dock_solv.prm

>  <Rbt.Receptor>
prm/pocket_docking_8.prm

>  <SCORE>
-51.8053

>  <SCORE.INTER>
-26.4872

>  <SCORE.INTER.CONST>
1

>  <SCORE.INTER.POLAR>
-0.965192

>  <SCORE.INTER.ROT>
8

>  <SCORE.INTER.SOLV>
34.6242

>  <SCORE.INTER.VDW>
-34.9156

>  <SCORE.INTER.norm>
-0.827725

>  <SCORE.INTRA>
-25.3181

>  <SCORE.INTRA.DIHEDRAL>
-48.9049

>  <SCORE.INTRA.DIHEDRAL.0>
76.3625

>  <SCORE.INTRA.POLAR>
0

>  <SCORE.INTRA.POLAR.0>
0

>  <SCORE.INTRA.REPUL>
0.0632962

>  <SCORE.INTRA.REPUL.0>
0.12705

>  <SCORE.INTRA.SOLV>
-4.93236

>  <SCORE.INTRA.SOLV.lig_0>
-119.383

>  <SCORE.INTRA.VDW>
1.28402

>  <SCORE.INTRA.VDW.0>
-5.10464

>  <SCORE.INTRA.norm>
-0.791192

>  <SCORE.RESTR>
0

>  <SCORE.RESTR.CAVITY>
0

>  <SCORE.RESTR.norm>
0

>  <SCORE.SYSTEM>
0

>  <SCORE.SYSTEM.CONST>
0

>  <SCORE.SYSTEM.DIHEDRAL>
0

>  <SCORE.SYSTEM.SOLV>
0

>  <SCORE.SYSTEM.norm>
0

>  <SCORE.heavy>
32

>  <SCORE.norm>
-1.61892

>  <RMSD>
6.116

$$$$
2au4_lig
 OpenBabel11021811423D
libRbt.so/2013.1/901 2013/11/27
 32 34  0  0  0  0  0  0  0  0999 V2000
   70.6361   10.9679    5.3680 P   0  0  1  0  0  0  0  0  0  0  0  0
   72.5180   12.6008    4.2902 P   0  0  1  0  0  0  0  0  0  0  0  0
   71.9184   13.7959    1.9126 P   0  0  2  0  0  0  0  0  0  0  0  0
   69.3379    9.1909    3.8889 C   0  0  0  0  0  0  0  0  0  0  0  0
   70.3480    9.4636    4.8744 O   0  0  0  0  0  0  0  0  0  0  0  0
   69.6764    9.7840    2.5291 C   0  0  0  0  0  0  0  0  0  0  0  0
   69.6580    8.7625    1.5111 O   0  0  0  0  0  0  0  0  0  0  0  0
   68.6707   10.8580    2.1447 C   0  0  0  0  0  0  0  0  0  0  0  0
   69.3045   12.1387    2.0390 O   0  0  0  0  0  0  0  0  0  0  0  0
   68.0765   10.4355    0.8224 C   0  0  0  0  0  0  0  0  0  0  0  0
   68.2972   11.4295   -0.1873 O   0  0  0  0  0  0  0  0  0  0  0  0
   68.7516    9.1272    0.4487 C   0  0  0  0  0  0  0  0  0  0  0  0
   63.9889    8.0368   -1.0326 N   0  0  0  0  0  0  0  0  0  0  0  0
   69.7864   11.8902    4.5882 O   0  5  0  0  0  0  0  0  0  0  0  0
   71.7450   13.6425    4.9941 O   0  5  0  0  0  0  0  0  0  0  0  0
   73.3032   14.2880    1.7664 O   0  5  0  0  0  0  0  0  0  0  0  0
   64.6187    9.2558   -0.9481 C   0  0  1  0  0  0  0  0  0  0  0  0
   63.8986   10.3147   -1.2935 N   0  0  0  0  0  0  0  0  0  0  0  0
   70.5975   10.9953    6.8458 O   0  0  0  0  0  0  0  0  0  0  0  0
   73.9910   12.6927    4.2171 O   0  0  0  0  0  0  0  0  0  0  0  0
   70.8718   14.6848    2.4590 O   0  0  0  0  0  0  0  0  0  0  0  0
   65.8769    9.4133   -0.5444 N   0  0  0  0  0  0  0  0  0  0  0  0
   72.1416   11.1933    4.9177 O   0  0  0  0  0  0  0  0  0  0  0  0
   71.9572   12.4795    2.8083 O   0  0  0  0  0  0  0  0  0  0  0  0
   71.4233   13.2403    0.4890 O   0  0  0  0  0  0  0  0  0  0  0  0
   66.4615    8.2352   -0.2269 C   0  0  2  0  0  0  0  0  0  0  0  0
   65.9028    6.9685   -0.2832 C   0  0  2  0  0  0  0  0  0  0  0  0
   64.5621    6.8186   -0.7147 C   0  0  1  0  0  0  0  0  0  0  0  0
   63.9031    5.7913   -0.8032 O   0  0  0  0  0  0  0  0  0  0  0  0
   66.8243    5.9991    0.1271 N   0  0  0  0  0  0  0  0  0  0  0  0
   67.8578    6.7268    0.3997 C   0  0  0  0  0  0  0  0  0  0  0  0
   67.7493    8.0674    0.2243 N   0  0  0  0  0  0  0  0  0  0  0  0
  1  5  1  6  0  0  0
  1 14  1  0  0  0  0
  1 19  2  0  0  0  0
  2 15  1  1  0  0  0
  2 20  2  0  0  0  0
  2 23  1  0  0  0  0
  3 16  1  6  0  0  0
  3 21  2  0  0  0  0
  3 24  1  0  0  0  0
  3 25  1  0  0  0  0
  4  6  1  0  0  0  0
  5  4  1  0  0  0  0
  6  7  1  0  0  0  0
  6  8  2  0  0  0  0
  7 12  1  0  0  0  0
  8  9  1  0  0  0  0
  8 10  1  0  0  0  0
 10 11  1  0  0  0  0
 10 12  2  0  0  0  0
 12 32  1  0  0  0  0
 13 17  1  0  0  0  0
 17 18  1  1  0  0  0
 17 22  1  0  0  0  0
 23  1  1  0  0  0  0
 24  2  1  0  0  0  0
 26 22  1  1  0  0  0
 27 26  1  0  0  0  0
 27 28  1  0  0  0  0
 27 30  1  1  0  0  0
 28 13  1  0  0  0  0
 28 29  1  1  0  0  0
 31 30  1  0  0  0  0
 32 26  1  0  0  0  0
 32 31  1  0  0  0  0
M  CHG  3  14  -1  15  -1  16  -1
M  END
>  <CHROM.1>
-3.64278428,36.46167078,60.86575715,124.73153205,65.68475171,149.82919107
138.75609220,55.43987973,69.28831582,10.59870783,2.08624295,-0.02165379,0.79500794
2.32340031

>  <Name>
2au4_lig

>  <RI>
0

>  <Rbt.Current_Directory>
/home/itssahil/PROJECTS/Mol_Feturizer/New_Systems/rnas/2au4

>  <Rbt.Executable>
rbdock ($Id: //depot/dev/client3/rdock/2013.1/src/exe/rbdock.cxx#4 $)

>  <Rbt.Library>
libRbt.so (2013.1, Build901 2013/11/27)

>  <Rbt.Parameter_File>
/export/apps/rDock/src/rDock_2013.1_src/data/scripts/dock_solv.prm

>  <Rbt.Receptor>
prm/pocket_docking_5.prm

>  <SCORE>
-44.3392

>  <SCORE.INTER>
-20.5472

>  <SCORE.INTER.CONST>
1

>  <SCORE.INTER.POLAR>
-2.92881

>  <SCORE.INTER.ROT>
8

>  <SCORE.INTER.SOLV>
22.8671

>  <SCORE.INTER.VDW>
-20.4912

>  <SCORE.INTER.norm>
-0.642101

>  <SCORE.INTRA>
-23.7924

>  <SCORE.INTRA.DIHEDRAL>
-46.4109

>  <SCORE.INTRA.DIHEDRAL.0>
76.3625

>  <SCORE.INTRA.POLAR>
0

>  <SCORE.INTRA.POLAR.0>
0

>  <SCORE.INTRA.REPUL>
-0.126516

>  <SCORE.INTRA.REPUL.0>
0.12705

>  <SCORE.INTRA.SOLV>
-0.728776

>  <SCORE.INTRA.SOLV.lig_0>
-119.383

>  <SCORE.INTRA.VDW>
0.410025

>  <SCORE.INTRA.VDW.0>
-5.10464

>  <SCORE.INTRA.norm>
-0.743512

>  <SCORE.RESTR>
0.000433119

>  <SCORE.RESTR.CAVITY>
0.000433119

>  <SCORE.RESTR.norm>
1.3535e-05

>  <SCORE.SYSTEM>
0

>  <SCORE.SYSTEM.CONST>
0

>  <SCORE.SYSTEM.DIHEDRAL>
0

>  <SCORE.SYSTEM.SOLV>
0

>  <SCORE.SYSTEM.norm>
0

>  <SCORE.heavy>
32

>  <SCORE.norm>
-1.3856

>  <RMSD>
6.138

$$$$
2au4_lig
 OpenBabel11021811423D
libRbt.so/2013.1/901 2013/11/27
 32 34  0  0  0  0  0  0  0  0999 V2000
   71.1308   11.2196    3.1209 P   0  0  1  0  0  0  0  0  0  0  0  0
   72.1294   12.9747    4.9352 P   0  0  1  0  0  0  0  0  0  0  0  0
   71.8453   14.3308    7.2849 P   0  0  2  0  0  0  0  0  0  0  0  0
   68.7050   10.2153    3.4916 C   0  0  0  0  0  0  0  0  0  0  0  0
   70.1009   10.2094    3.8338 O   0  0  0  0  0  0  0  0  0  0  0  0
   68.0145    8.9052    3.8413 C   0  0  0  0  0  0  0  0  0  0  0  0
   67.0616    8.5454    2.8201 O   0  0  0  0  0  0  0  0  0  0  0  0
   69.0284    7.7786    3.9652 C   0  0  0  0  0  0  0  0  0  0  0  0
   69.0618    7.2645    5.3022 O   0  0  0  0  0  0  0  0  0  0  0  0
   68.6059    6.7116    2.9837 C   0  0  0  0  0  0  0  0  0  0  0  0
   68.3565    5.4651    3.6473 O   0  0  0  0  0  0  0  0  0  0  0  0
   67.3458    7.2257    2.3093 C   0  0  0  0  0  0  0  0  0  0  0  0
   70.0134    5.5092   -1.6911 N   0  0  0  0  0  0  0  0  0  0  0  0
   72.5048   10.7265    3.3442 O   0  5  0  0  0  0  0  0  0  0  0  0
   72.3689   11.8709    5.8851 O   0  5  0  0  0  0  0  0  0  0  0  0
   71.3858   15.6591    7.7384 O   0  5  0  0  0  0  0  0  0  0  0  0
   70.1733    5.2351   -0.3536 C   0  0  1  0  0  0  0  0  0  0  0  0
   71.1620    4.4099   -0.0367 N   0  0  0  0  0  0  0  0  0  0  0  0
   70.6540   11.4883    1.7473 O   0  0  0  0  0  0  0  0  0  0  0  0
   73.2376   13.4936    4.1068 O   0  0  0  0  0  0  0  0  0  0  0  0
   73.2565   13.9335    7.4706 O   0  0  0  0  0  0  0  0  0  0  0  0
   69.4059    5.7483    0.6048 N   0  0  0  0  0  0  0  0  0  0  0  0
   70.9465   12.5499    3.9674 O   0  0  0  0  0  0  0  0  0  0  0  0
   71.4995   14.1941    5.7362 O   0  0  0  0  0  0  0  0  0  0  0  0
   70.9080   13.2121    7.9563 O   0  0  0  0  0  0  0  0  0  0  0  0
   68.4526    6.5705    0.1088 C   0  0  2  0  0  0  0  0  0  0  0  0
   68.2222    6.8996   -1.2172 C   0  0  2  0  0  0  0  0  0  0  0  0
   69.0487    6.3447   -2.2249 C   0  0  1  0  0  0  0  0  0  0  0  0
   69.0087    6.5393   -3.4324 O   0  0  0  0  0  0  0  0  0  0  0  0
   67.1437    7.7833   -1.3310 N   0  0  0  0  0  0  0  0  0  0  0  0
   66.7997    7.9287   -0.0930 C   0  0  0  0  0  0  0  0  0  0  0  0
   67.5116    7.2528    0.8430 N   0  0  0  0  0  0  0  0  0  0  0  0
  1  5  1  1  0  0  0
  1 14  1  0  0  0  0
  1 19  2  0  0  0  0
  2 15  1  1  0  0  0
  2 20  2  0  0  0  0
  2 23  1  0  0  0  0
  3 16  1  1  0  0  0
  3 21  2  0  0  0  0
  3 24  1  0  0  0  0
  3 25  1  0  0  0  0
  4  6  1  0  0  0  0
  5  4  1  0  0  0  0
  6  7  1  0  0  0  0
  6  8  2  0  0  0  0
  7 12  1  0  0  0  0
  8  9  1  0  0  0  0
  8 10  1  0  0  0  0
 10 11  1  0  0  0  0
 10 12  2  0  0  0  0
 12 32  1  0  0  0  0
 13 17  1  0  0  0  0
 17 18  1  1  0  0  0
 17 22  1  0  0  0  0
 23  1  1  0  0  0  0
 24  2  1  0  0  0  0
 26 22  1  1  0  0  0
 27 26  1  0  0  0  0
 27 28  1  0  0  0  0
 27 30  1  1  0  0  0
 28 13  1  0  0  0  0
 28 29  1  1  0  0  0
 31 30  1  0  0  0  0
 32 26  1  0  0  0  0
 32 31  1  0  0  0  0
M  CHG  3  14  -1  15  -1  16  -1
M  END
>  <CHROM.1>
-162.88829497,-57.87495189,168.68185653,-141.26283645,158.23815798,138.89351857
108.54715195,27.35931137,70.10952236,9.81146450,3.05084472,-1.05801599,-0.87546728
-2.00295940

>  <Name>
2au4_lig

>  <RI>
0

>  <Rbt.Current_Directory>
/home/itssahil/PROJECTS/Mol_Feturizer/New_Systems/rnas/2au4

>  <Rbt.Executable>
rbdock ($Id: //depot/dev/client3/rdock/2013.1/src/exe/rbdock.cxx#4 $)

>  <Rbt.Library>
libRbt.so (2013.1, Build901 2013/11/27)

>  <Rbt.Parameter_File>
/export/apps/rDock/src/rDock_2013.1_src/data/scripts/dock_solv.prm

>  <Rbt.Receptor>
prm/blind_docking_80.prm

>  <SCORE>
-36.2792

>  <SCORE.INTER>
-15.6881

>  <SCORE.INTER.CONST>
1

>  <SCORE.INTER.POLAR>
-2.02856

>  <SCORE.INTER.ROT>
8

>  <SCORE.INTER.SOLV>
30.4934

>  <SCORE.INTER.VDW>
-22.7947

>  <SCORE.INTER.norm>
-0.490253

>  <SCORE.INTRA>
-21.5921

>  <SCORE.INTRA.DIHEDRAL>
-42.1778

>  <SCORE.INTRA.DIHEDRAL.0>
76.3625

>  <SCORE.INTRA.POLAR>
0

>  <SCORE.INTRA.POLAR.0>
0

>  <SCORE.INTRA.REPUL>
-0.12705

>  <SCORE.INTRA.REPUL.0>
0.12705

>  <SCORE.INTRA.SOLV>
-5.76806

>  <SCORE.INTRA.SOLV.lig_0>
-119.383

>  <SCORE.INTRA.VDW>
3.01607

>  <SCORE.INTRA.VDW.0>
-5.10464

>  <SCORE.INTRA.norm>
-0.674754

>  <SCORE.RESTR>
1.00102

>  <SCORE.RESTR.CAVITY>
1.00102

>  <SCORE.RESTR.norm>
0.0312819

>  <SCORE.SYSTEM>
0

>  <SCORE.SYSTEM.CONST>
0

>  <SCORE.SYSTEM.DIHEDRAL>
0

>  <SCORE.SYSTEM.SOLV>
0

>  <SCORE.SYSTEM.norm>
0

>  <SCORE.heavy>
32

>  <SCORE.norm>
-1.13373

>  <RMSD>
6.155

$$$$
2au4_lig
 OpenBabel11021811423D
libRbt.so/2013.1/901 2013/11/27
 32 34  0  0  0  0  0  0  0  0999 V2000
   68.5411    9.6379    2.0105 P   0  0  1  0  0  0  0  0  0  0  0  0
   70.2598   10.5369    3.9098 P   0  0  1  0  0  0  0  0  0  0  0  0
   72.2494   11.9652    2.7089 P   0  0  2  0  0  0  0  0  0  0  0  0
   67.2895   11.6716    0.8582 C   0  0  0  0  0  0  0  0  0  0  0  0
   67.8419   10.3493    0.7478 O   0  0  0  0  0  0  0  0  0  0  0  0
   66.7812   12.2029   -0.4741 C   0  0  0  0  0  0  0  0  0  0  0  0
   66.5240   11.1175   -1.3884 O   0  0  0  0  0  0  0  0  0  0  0  0
   65.4897   12.9831   -0.2852 C   0  0  0  0  0  0  0  0  0  0  0  0
   65.6658   14.3594   -0.6427 O   0  0  0  0  0  0  0  0  0  0  0  0
   64.4563   12.3216   -1.1654 C   0  0  0  0  0  0  0  0  0  0  0  0
   63.9199   13.2461   -2.1213 O   0  0  0  0  0  0  0  0  0  0  0  0
   65.1622   11.1720   -1.8637 C   0  0  0  0  0  0  0  0  0  0  0  0
   65.5593    6.0869   -1.6405 N   0  0  0  0  0  0  0  0  0  0  0  0
   67.5322    9.4723    3.0761 O   0  5  0  0  0  0  0  0  0  0  0  0
   69.2355   10.7622    4.9482 O   0  5  0  0  0  0  0  0  0  0  0  0
   73.3749   12.8204    3.1366 O   0  5  0  0  0  0  0  0  0  0  0  0
   66.5184    7.0244   -1.9416 C   0  0  1  0  0  0  0  0  0  0  0  0
   67.7282    6.5586   -2.2219 N   0  0  0  0  0  0  0  0  0  0  0  0
   69.3087    8.4696    1.5288 O   0  0  0  0  0  0  0  0  0  0  0  0
   71.0204    9.2703    3.8813 O   0  0  0  0  0  0  0  0  0  0  0  0
   71.4005   12.3749    1.5706 O   0  0  0  0  0  0  0  0  0  0  0  0
   66.2912    8.3353   -1.9665 N   0  0  0  0  0  0  0  0  0  0  0  0
   69.5810   10.7373    2.4901 O   0  0  0  0  0  0  0  0  0  0  0  0
   71.3007   11.7362    3.9676 O   0  0  0  0  0  0  0  0  0  0  0  0
   72.8139   10.4894    2.4187 O   0  0  0  0  0  0  0  0  0  0  0  0
   65.0076    8.6358   -1.6622 C   0  0  2  0  0  0  0  0  0  0  0  0
   63.9824    7.7584   -1.3477 C   0  0  2  0  0  0  0  0  0  0  0  0
   64.2414    6.3660   -1.3261 C   0  0  1  0  0  0  0  0  0  0  0  0
   63.4609    5.4519   -1.0965 O   0  0  0  0  0  0  0  0  0  0  0  0
   62.7940    8.4513   -1.0938 N   0  0  0  0  0  0  0  0  0  0  0  0
   63.1692    9.6764   -1.2682 C   0  0  0  0  0  0  0  0  0  0  0  0
   64.4636    9.8973   -1.6080 N   0  0  0  0  0  0  0  0  0  0  0  0
  1  5  1  6  0  0  0
  1 14  1  0  0  0  0
  1 19  2  0  0  0  0
  2 15  1  1  0  0  0
  2 20  2  0  0  0  0
  2 23  1  0  0  0  0
  3 16  1  1  0  0  0
  3 21  2  0  0  0  0
  3 24  1  0  0  0  0
  3 25  1  0  0  0  0
  4  6  1  0  0  0  0
  5  4  1  0  0  0  0
  6  7  1  0  0  0  0
  6  8  2  0  0  0  0
  7 12  1  0  0  0  0
  8  9  1  0  0  0  0
  8 10  1  0  0  0  0
 10 11  1  0  0  0  0
 10 12  2  0  0  0  0
 12 32  1  0  0  0  0
 13 17  1  0  0  0  0
 17 18  1  6  0  0  0
 17 22  1  0  0  0  0
 23  1  1  0  0  0  0
 24  2  1  0  0  0  0
 26 22  1  6  0  0  0
 27 26  1  0  0  0  0
 27 28  1  0  0  0  0
 27 30  1  6  0  0  0
 28 13  1  0  0  0  0
 28 29  1  6  0  0  0
 31 30  1  0  0  0  0
 32 26  1  0  0  0  0
 32 31  1  0  0  0  0
M  CHG  3  14  -1  15  -1  16  -1
M  END
>  <CHROM.1>
62.25978061,-70.46216399,-162.73983682,21.08946230,175.24425446,-35.59824250
167.28615755,-162.65079568,67.71080560,10.15043010,0.72812390,-0.27926470
0.61016336,3.12520288

>  <Name>
2au4_lig

>  <RI>
0

>  <Rbt.Current_Directory>
/home/itssahil/PROJECTS/Mol_Feturizer/New_Systems/rnas/2au4

>  <Rbt.Executable>
rbdock ($Id: //depot/dev/client3/rdock/2013.1/src/exe/rbdock.cxx#4 $)

>  <Rbt.Library>
libRbt.so (2013.1, Build901 2013/11/27)

>  <Rbt.Parameter_File>
/export/apps/rDock/src/rDock_2013.1_src/data/scripts/dock_solv.prm

>  <Rbt.Receptor>
prm/pocket_docking_6.prm

>  <SCORE>
-41.874

>  <SCORE.INTER>
-15.6661

>  <SCORE.INTER.CONST>
1

>  <SCORE.INTER.POLAR>
-2.35759

>  <SCORE.INTER.ROT>
8

>  <SCORE.INTER.SOLV>
17.3118

>  <SCORE.INTER.VDW>
-17.2893

>  <SCORE.INTER.norm>
-0.489564

>  <SCORE.INTRA>
-26.2079

>  <SCORE.INTRA.DIHEDRAL>
-49.8014

>  <SCORE.INTRA.DIHEDRAL.0>
76.3625

>  <SCORE.INTRA.POLAR>
0

>  <SCORE.INTRA.POLAR.0>
0

>  <SCORE.INTRA.REPUL>
0.0407134

>  <SCORE.INTRA.REPUL.0>
0.12705

>  <SCORE.INTRA.SOLV>
-5.80405

>  <SCORE.INTRA.SOLV.lig_0>
-119.383

>  <SCORE.INTRA.VDW>
1.39122

>  <SCORE.INTRA.VDW.0>
-5.10464

>  <SCORE.INTRA.norm>
-0.818998

>  <SCORE.RESTR>
0

>  <SCORE.RESTR.CAVITY>
0

>  <SCORE.RESTR.norm>
0

>  <SCORE.SYSTEM>
0

>  <SCORE.SYSTEM.CONST>
0

>  <SCORE.SYSTEM.DIHEDRAL>
0

>  <SCORE.SYSTEM.SOLV>
0

>  <SCORE.SYSTEM.norm>
0

>  <SCORE.heavy>
32

>  <SCORE.norm>
-1.30856

>  <RMSD>
6.161

$$$$
2au4_lig
 OpenBabel11021811423D
libRbt.so/2013.1/901 2013/11/27
 32 34  0  0  0  0  0  0  0  0999 V2000
   67.3714    7.6449   -1.5032 P   0  0  1  0  0  0  0  0  0  0  0  0
   69.0182    5.9524   -2.8423 P   0  0  1  0  0  0  0  0  0  0  0  0
   71.0307    4.7870   -1.4167 P   0  0  2  0  0  0  0  0  0  0  0  0
   66.0297    7.3799    0.7684 C   0  0  0  0  0  0  0  0  0  0  0  0
   67.2933    7.5288    0.0999 O   0  0  0  0  0  0  0  0  0  0  0  0
   65.3111    8.7078    0.9570 C   0  0  0  0  0  0  0  0  0  0  0  0
   66.1959    9.6851    1.5420 O   0  0  0  0  0  0  0  0  0  0  0  0
   64.8193    9.2481   -0.3767 C   0  0  0  0  0  0  0  0  0  0  0  0
   63.3885    9.3195   -0.4041 O   0  0  0  0  0  0  0  0  0  0  0  0
   65.4344   10.6178   -0.5376 C   0  0  0  0  0  0  0  0  0  0  0  0
   64.4255   11.6264   -0.6820 O   0  0  0  0  0  0  0  0  0  0  0  0
   66.2671   10.8617    0.7091 C   0  0  0  0  0  0  0  0  0  0  0  0
   71.1750   10.4847    2.0643 N   0  0  0  0  0  0  0  0  0  0  0  0
   66.4306    6.6709   -2.0922 O   0  5  0  0  0  0  0  0  0  0  0  0
   68.2324    4.8024   -2.3542 O   0  5  0  0  0  0  0  0  0  0  0  0
   70.4678    3.4244   -1.5046 O   0  5  0  0  0  0  0  0  0  0  0  0
   70.0525   10.0343    2.7176 C   0  0  1  0  0  0  0  0  0  0  0  0
   70.2538    9.4125    3.8717 N   0  0  0  0  0  0  0  0  0  0  0  0
   67.2906    9.0730   -1.8777 O   0  0  0  0  0  0  0  0  0  0  0  0
   68.7889    6.4834   -4.2021 O   0  0  0  0  0  0  0  0  0  0  0  0
   70.7567    5.6250   -0.2307 O   0  0  0  0  0  0  0  0  0  0  0  0
   68.8139   10.1935    2.2582 N   0  0  0  0  0  0  0  0  0  0  0  0
   68.8466    7.1454   -1.8109 O   0  0  0  0  0  0  0  0  0  0  0  0
   70.5608    5.5965   -2.7054 O   0  0  0  0  0  0  0  0  0  0  0  0
   72.6217    4.6938   -1.6186 O   0  0  0  0  0  0  0  0  0  0  0  0
   68.7895   10.8503    1.0755 C   0  0  2  0  0  0  0  0  0  0  0  0
   69.8670   11.3358    0.3523 C   0  0  2  0  0  0  0  0  0  0  0  0
   71.1789   11.1581    0.8559 C   0  0  1  0  0  0  0  0  0  0  0  0
   72.2364   11.5376    0.3710 O   0  0  0  0  0  0  0  0  0  0  0  0
   69.4370   11.9595   -0.8238 N   0  0  0  0  0  0  0  0  0  0  0  0
   68.1551   11.8145   -0.7370 C   0  0  0  0  0  0  0  0  0  0  0  0
   67.6654   11.1701    0.3515 N   0  0  0  0  0  0  0  0  0  0  0  0
  1  5  1  1  0  0  0
  1 14  1  0  0  0  0
  1 19  2  0  0  0  0
  2 15  1  1  0  0  0
  2 20  2  0  0  0  0
  2 23  1  0  0  0  0
  3 16  1  1  0  0  0
  3 21  2  0  0  0  0
  3 24  1  0  0  0  0
  3 25  1  0  0  0  0
  4  6  1  0  0  0  0
  5  4  1  0  0  0  0
  6  7  1  0  0  0  0
  6  8  2  0  0  0  0
  7 12  1  0  0  0  0
  8  9  1  0  0  0  0
  8 10  1  0  0  0  0
 10 11  1  0  0  0  0
 10 12  2  0  0  0  0
 12 32  1  0  0  0  0
 13 17  1  0  0  0  0
 17 18  1  1  0  0  0
 17 22  1  0  0  0  0
 23  1  1  0  0  0  0
 24  2  1  0  0  0  0
 26 22  1  1  0  0  0
 27 26  1  0  0  0  0
 27 28  1  0  0  0  0
 27 30  1  1  0  0  0
 28 13  1  0  0  0  0
 28 29  1  1  0  0  0
 31 30  1  0  0  0  0
 32 26  1  0  0  0  0
 32 31  1  0  0  0  0
M  CHG  3  14  -1  15  -1  16  -1
M  END
>  <CHROM.1>
-41.75394256,-56.96692324,68.08800186,-50.03909703,-81.81576532,-27.00586635
125.20465359,-38.70768524,68.49015849,8.29677062,-0.53433928,1.11715353,0.21487742
-2.59193230

>  <Name>
2au4_lig

>  <RI>
0

>  <Rbt.Current_Directory>
/home/itssahil/PROJECTS/Mol_Feturizer/New_Systems/rnas/2au4

>  <Rbt.Executable>
rbdock ($Id: //depot/dev/client3/rdock/2013.1/src/exe/rbdock.cxx#4 $)

>  <Rbt.Library>
libRbt.so (2013.1, Build901 2013/11/27)

>  <Rbt.Parameter_File>
/export/apps/rDock/src/rDock_2013.1_src/data/scripts/dock_solv.prm

>  <Rbt.Receptor>
prm/pocket_docking_2.prm

>  <SCORE>
-22.8067

>  <SCORE.INTER>
-5.62723

>  <SCORE.INTER.CONST>
1

>  <SCORE.INTER.POLAR>
0

>  <SCORE.INTER.ROT>
8

>  <SCORE.INTER.SOLV>
32.5559

>  <SCORE.INTER.VDW>
-23.5368

>  <SCORE.INTER.norm>
-0.175851

>  <SCORE.INTRA>
-20.8054

>  <SCORE.INTRA.DIHEDRAL>
-45.1017

>  <SCORE.INTRA.DIHEDRAL.0>
76.3625

>  <SCORE.INTRA.POLAR>
0

>  <SCORE.INTRA.POLAR.0>
0

>  <SCORE.INTRA.REPUL>
0.0706716

>  <SCORE.INTRA.REPUL.0>
0.12705

>  <SCORE.INTRA.SOLV>
3.17054

>  <SCORE.INTRA.SOLV.lig_0>
-119.383

>  <SCORE.INTRA.VDW>
-0.193164

>  <SCORE.INTRA.VDW.0>
-5.10464

>  <SCORE.INTRA.norm>
-0.650169

>  <SCORE.RESTR>
3.6259

>  <SCORE.RESTR.CAVITY>
3.6259

>  <SCORE.RESTR.norm>
0.113309

>  <SCORE.SYSTEM>
0

>  <SCORE.SYSTEM.CONST>
0

>  <SCORE.SYSTEM.DIHEDRAL>
0

>  <SCORE.SYSTEM.SOLV>
0

>  <SCORE.SYSTEM.norm>
0

>  <SCORE.heavy>
32

>  <SCORE.norm>
-0.71271

>  <RMSD>
6.176

$$$$
2au4_lig
 OpenBabel11021811423D
libRbt.so/2013.1/901 2013/11/27
 32 34  0  0  0  0  0  0  0  0999 V2000
   67.6832    6.2601   -1.0074 P   0  0  1  0  0  0  0  0  0  0  0  0
   69.4966    5.7698    0.9524 P   0  0  1  0  0  0  0  0  0  0  0  0
   71.1849    4.6066   -0.8469 P   0  0  2  0  0  0  0  0  0  0  0  0
   65.5356    7.3491    0.1026 C   0  0  0  0  0  0  0  0  0  0  0  0
   66.9596    7.1551    0.1173 O   0  0  0  0  0  0  0  0  0  0  0  0
   65.1071    8.5746    0.8964 C   0  0  0  0  0  0  0  0  0  0  0  0
   65.9580    8.7572    2.0466 O   0  0  0  0  0  0  0  0  0  0  0  0
   65.1897    9.8276    0.0388 C   0  0  0  0  0  0  0  0  0  0  0  0
   63.8927   10.4071   -0.1476 O   0  0  0  0  0  0  0  0  0  0  0  0
   66.1118   10.7813    0.7604 C   0  0  0  0  0  0  0  0  0  0  0  0
   65.4486   12.0162    1.0624 O   0  0  0  0  0  0  0  0  0  0  0  0
   66.5451   10.0758    2.0339 C   0  0  0  0  0  0  0  0  0  0  0  0
   70.9897   11.8866    0.2923 N   0  0  0  0  0  0  0  0  0  0  0  0
   66.6483    5.5262   -1.7630 O   0  5  0  0  0  0  0  0  0  0  0  0
   69.7678    7.1871    0.6428 O   0  5  0  0  0  0  0  0  0  0  0  0
   70.1932    3.6371   -1.3548 O   0  5  0  0  0  0  0  0  0  0  0  0
   69.7075   12.2395   -0.0555 C   0  0  1  0  0  0  0  0  0  0  0  0
   69.5878   13.1833   -0.9796 N   0  0  0  0  0  0  0  0  0  0  0  0
   68.6647    7.1037   -1.7225 O   0  0  0  0  0  0  0  0  0  0  0  0
   68.9903    5.3860    2.2865 O   0  0  0  0  0  0  0  0  0  0  0  0
   72.6269    4.2886   -0.9056 O   0  0  0  0  0  0  0  0  0  0  0  0
   68.6179   11.6903    0.4753 N   0  0  0  0  0  0  0  0  0  0  0  0
   68.4917    5.2062   -0.1380 O   0  0  0  0  0  0  0  0  0  0  0  0
   70.8188    4.9354    0.6679 O   0  0  0  0  0  0  0  0  0  0  0  0
   70.9428    6.0140   -1.5825 O   0  0  0  0  0  0  0  0  0  0  0  0
   68.9201   10.7450    1.3949 C   0  0  2  0  0  0  0  0  0  0  0  0
   70.1773   10.3300    1.8035 C   0  0  2  0  0  0  0  0  0  0  0  0
   71.3267   10.9249    1.2279 C   0  0  1  0  0  0  0  0  0  0  0  0
   72.5036   10.6702    1.4460 O   0  0  0  0  0  0  0  0  0  0  0  0
   70.0799    9.3278    2.7746 N   0  0  0  0  0  0  0  0  0  0  0  0
   68.7977    9.2039    2.8874 C   0  0  0  0  0  0  0  0  0  0  0  0
   68.0168    9.9980    2.1134 N   0  0  0  0  0  0  0  0  0  0  0  0
  1  5  1  1  0  0  0
  1 14  1  0  0  0  0
  1 19  2  0  0  0  0
  2 15  1  6  0  0  0
  2 20  2  0  0  0  0
  2 23  1  0  0  0  0
  3 16  1  6  0  0  0
  3 21  2  0  0  0  0
  3 24  1  0  0  0  0
  3 25  1  0  0  0  0
  4  6  1  0  0  0  0
  5  4  1  0  0  0  0
  6  7  1  0  0  0  0
  6  8  2  0  0  0  0
  7 12  1  0  0  0  0
  8  9  1  0  0  0  0
  8 10  1  0  0  0  0
 10 11  1  0  0  0  0
 10 12  2  0  0  0  0
 12 32  1  0  0  0  0
 13 17  1  0  0  0  0
 17 18  1  6  0  0  0
 17 22  1  0  0  0  0
 23  1  1  0  0  0  0
 24  2  1  0  0  0  0
 26 22  1  6  0  0  0
 27 26  1  0  0  0  0
 27 28  1  0  0  0  0
 27 30  1  6  0  0  0
 28 13  1  0  0  0  0
 28 29  1  6  0  0  0
 31 30  1  0  0  0  0
 32 26  1  0  0  0  0
 32 31  1  0  0  0  0
M  CHG  3  14  -1  15  -1  16  -1
M  END
>  <CHROM.1>
-11.75300475,-17.19297833,-69.26647039,-34.81030755,-159.51833256,137.81786412
-55.27950339,-76.83323711,68.71763018,8.06245094,0.37211755,1.15649918,0.04085765
-2.89768841

>  <Name>
2au4_lig

>  <RI>
0

>  <Rbt.Current_Directory>
/home/itssahil/PROJECTS/Mol_Feturizer/New_Systems/rnas/2au4

>  <Rbt.Executable>
rbdock ($Id: //depot/dev/client3/rdock/2013.1/src/exe/rbdock.cxx#4 $)

>  <Rbt.Library>
libRbt.so (2013.1, Build901 2013/11/27)

>  <Rbt.Parameter_File>
/export/apps/rDock/src/rDock_2013.1_src/data/scripts/dock_solv.prm

>  <Rbt.Receptor>
prm/pocket_docking_2.prm

>  <SCORE>
-29.071

>  <SCORE.INTER>
-11.2119

>  <SCORE.INTER.CONST>
1

>  <SCORE.INTER.POLAR>
-0.908343

>  <SCORE.INTER.ROT>
8

>  <SCORE.INTER.SOLV>
38.5011

>  <SCORE.INTER.VDW>
-26.2138

>  <SCORE.INTER.norm>
-0.350372

>  <SCORE.INTRA>
-20.2791

>  <SCORE.INTRA.DIHEDRAL>
-41.4371

>  <SCORE.INTRA.DIHEDRAL.0>
76.3625

>  <SCORE.INTRA.POLAR>
0

>  <SCORE.INTRA.POLAR.0>
0

>  <SCORE.INTRA.REPUL>
-0.12705

>  <SCORE.INTRA.REPUL.0>
0.12705

>  <SCORE.INTRA.SOLV>
0.165297

>  <SCORE.INTRA.SOLV.lig_0>
-119.383

>  <SCORE.INTRA.VDW>
0.992091

>  <SCORE.INTRA.VDW.0>
-5.10464

>  <SCORE.INTRA.norm>
-0.633721

>  <SCORE.RESTR>
2.42002

>  <SCORE.RESTR.CAVITY>
2.42002

>  <SCORE.RESTR.norm>
0.0756257

>  <SCORE.SYSTEM>
0

>  <SCORE.SYSTEM.CONST>
0

>  <SCORE.SYSTEM.DIHEDRAL>
0

>  <SCORE.SYSTEM.SOLV>
0

>  <SCORE.SYSTEM.norm>
0

>  <SCORE.heavy>
32

>  <SCORE.norm>
-0.908467

>  <RMSD>
6.179

$$$$
2au4_lig
 OpenBabel11021811423D
libRbt.so/2013.1/901 2013/11/27
 32 34  0  0  0  0  0  0  0  0999 V2000
   72.3082   12.4242    2.1465 P   0  0  1  0  0  0  0  0  0  0  0  0
   72.5214   13.4374    4.6560 P   0  0  1  0  0  0  0  0  0  0  0  0
   71.3145   12.2585    6.7994 P   0  0  2  0  0  0  0  0  0  0  0  0
   70.5575   10.4346    2.0627 C   0  0  0  0  0  0  0  0  0  0  0  0
   71.2750   11.4056    2.8425 O   0  0  0  0  0  0  0  0  0  0  0  0
   69.4108    9.7998    2.8357 C   0  0  0  0  0  0  0  0  0  0  0  0
   68.6867    8.8738    2.0000 O   0  0  0  0  0  0  0  0  0  0  0  0
   69.9323    9.0415    4.0464 C   0  0  0  0  0  0  0  0  0  0  0  0
   69.4531    9.6274    5.2629 O   0  0  0  0  0  0  0  0  0  0  0  0
   69.4487    7.6183    3.9020 C   0  0  0  0  0  0  0  0  0  0  0  0
   68.6440    7.2271    5.0225 O   0  0  0  0  0  0  0  0  0  0  0  0
   68.6429    7.5689    2.6154 C   0  0  0  0  0  0  0  0  0  0  0  0
   68.9856    5.9403   -2.2113 N   0  0  0  0  0  0  0  0  0  0  0  0
   73.1415   11.6690    1.1895 O   0  5  0  0  0  0  0  0  0  0  0  0
   73.5619   13.9745    5.5543 O   0  5  0  0  0  0  0  0  0  0  0  0
   72.4253   12.6012    7.7104 O   0  5  0  0  0  0  0  0  0  0  0  0
   68.3413    7.0449   -1.7070 C   0  0  1  0  0  0  0  0  0  0  0  0
   67.7073    7.8084   -2.5869 N   0  0  0  0  0  0  0  0  0  0  0  0
   71.5626   13.6195    1.6976 O   0  0  0  0  0  0  0  0  0  0  0  0
   71.4028   14.2983    4.2190 O   0  0  0  0  0  0  0  0  0  0  0  0
   70.4892   11.0602    7.0580 O   0  0  0  0  0  0  0  0  0  0  0  0
   68.3244    7.3678   -0.4162 N   0  0  0  0  0  0  0  0  0  0  0  0
   73.2328   12.8574    3.3622 O   0  0  0  0  0  0  0  0  0  0  0  0
   71.9079   12.1340    5.3267 O   0  0  0  0  0  0  0  0  0  0  0  0
   70.3421   13.5318    6.6821 O   0  0  0  0  0  0  0  0  0  0  0  0
   69.0136    6.4823    0.3397 C   0  0  2  0  0  0  0  0  0  0  0  0
   69.6888    5.3493   -0.0847 C   0  0  2  0  0  0  0  0  0  0  0  0
   69.6965    5.0198   -1.4623 C   0  0  1  0  0  0  0  0  0  0  0  0
   70.2139    4.0554   -2.0096 O   0  0  0  0  0  0  0  0  0  0  0  0
   70.2793    4.6869    0.9968 N   0  0  0  0  0  0  0  0  0  0  0  0
   69.9298    5.4456    1.9839 C   0  0  0  0  0  0  0  0  0  0  0  0
   69.1768    6.5384    1.7036 N   0  0  0  0  0  0  0  0  0  0  0  0
  1  5  1  1  0  0  0
  1 14  1  0  0  0  0
  1 19  2  0  0  0  0
  2 15  1  1  0  0  0
  2 20  2  0  0  0  0
  2 23  1  0  0  0  0
  3 16  1  1  0  0  0
  3 21  2  0  0  0  0
  3 24  1  0  0  0  0
  3 25  1  0  0  0  0
  4  6  1  0  0  0  0
  5  4  1  0  0  0  0
  6  7  1  0  0  0  0
  6  8  2  0  0  0  0
  7 12  1  0  0  0  0
  8  9  1  0  0  0  0
  8 10  1  0  0  0  0
 10 11  1  0  0  0  0
 10 12  2  0  0  0  0
 12 32  1  0  0  0  0
 13 17  1  0  0  0  0
 17 18  1  1  0  0  0
 17 22  1  0  0  0  0
 23  1  1  0  0  0  0
 24  2  1  0  0  0  0
 26 22  1  1  0  0  0
 27 26  1  0  0  0  0
 27 28  1  0  0  0  0
 27 30  1  1  0  0  0
 28 13  1  0  0  0  0
 28 29  1  1  0  0  0
 31 30  1  0  0  0  0
 32 26  1  0  0  0  0
 32 31  1  0  0  0  0
M  CHG  3  14  -1  15  -1  16  -1
M  END
>  <CHROM.1>
-44.58475280,-170.82490281,-64.21428685,177.67954772,-166.59921933,-37.21002903
-53.97175270,55.38185694,70.59771252,9.87571867,2.83528801,-0.87654277,-1.09157028
-1.81547608

>  <Name>
2au4_lig

>  <RI>
0

>  <Rbt.Current_Directory>
/home/itssahil/PROJECTS/Mol_Feturizer/New_Systems/rnas/2au4

>  <Rbt.Executable>
rbdock ($Id: //depot/dev/client3/rdock/2013.1/src/exe/rbdock.cxx#4 $)

>  <Rbt.Library>
libRbt.so (2013.1, Build901 2013/11/27)

>  <Rbt.Parameter_File>
/export/apps/rDock/src/rDock_2013.1_src/data/scripts/dock_solv.prm

>  <Rbt.Receptor>
prm/blind_docking_80.prm

>  <SCORE>
-36.3044

>  <SCORE.INTER>
-14.4446

>  <SCORE.INTER.CONST>
1

>  <SCORE.INTER.POLAR>
-1.53213

>  <SCORE.INTER.ROT>
8

>  <SCORE.INTER.SOLV>
27.6961

>  <SCORE.INTER.VDW>
-22.688

>  <SCORE.INTER.norm>
-0.451392

>  <SCORE.INTRA>
-22.758

>  <SCORE.INTRA.DIHEDRAL>
-47.8366

>  <SCORE.INTRA.DIHEDRAL.0>
76.3625

>  <SCORE.INTRA.POLAR>
0

>  <SCORE.INTRA.POLAR.0>
0

>  <SCORE.INTRA.REPUL>
0.572802

>  <SCORE.INTRA.REPUL.0>
0.12705

>  <SCORE.INTRA.SOLV>
-6.14864

>  <SCORE.INTRA.SOLV.lig_0>
-119.383

>  <SCORE.INTRA.VDW>
1.37059

>  <SCORE.INTRA.VDW.0>
-5.10464

>  <SCORE.INTRA.norm>
-0.711188

>  <SCORE.RESTR>
0.898201

>  <SCORE.RESTR.CAVITY>
0.898201

>  <SCORE.RESTR.norm>
0.0280688

>  <SCORE.SYSTEM>
0

>  <SCORE.SYSTEM.CONST>
0

>  <SCORE.SYSTEM.DIHEDRAL>
0

>  <SCORE.SYSTEM.SOLV>
0

>  <SCORE.SYSTEM.norm>
0

>  <SCORE.heavy>
32

>  <SCORE.norm>
-1.13451

>  <RMSD>
6.181

$$$$
2au4_lig
 OpenBabel11021811423D
libRbt.so/2013.1/901 2013/11/27
 32 34  0  0  0  0  0  0  0  0999 V2000
   70.1835   10.6338    2.7699 P   0  0  1  0  0  0  0  0  0  0  0  0
   72.6478   11.6675    2.2921 P   0  0  1  0  0  0  0  0  0  0  0  0
   72.4362   13.1536    0.0145 P   0  0  2  0  0  0  0  0  0  0  0  0
   68.0205   10.0863    4.2024 C   0  0  0  0  0  0  0  0  0  0  0  0
   69.4532   10.0711    4.0887 O   0  0  0  0  0  0  0  0  0  0  0  0
   67.3746    8.8551    3.5840 C   0  0  0  0  0  0  0  0  0  0  0  0
   66.6534    9.2080    2.3859 O   0  0  0  0  0  0  0  0  0  0  0  0
   68.4277    7.8205    3.2190 C   0  0  0  0  0  0  0  0  0  0  0  0
   68.2531    6.6207    3.9825 O   0  0  0  0  0  0  0  0  0  0  0  0
   68.2705    7.5515    1.7414 C   0  0  0  0  0  0  0  0  0  0  0  0
   67.9950    6.1665    1.4923 O   0  0  0  0  0  0  0  0  0  0  0  0
   67.1212    8.4243    1.2678 C   0  0  0  0  0  0  0  0  0  0  0  0
   66.6035   12.9664   -1.0054 N   0  0  0  0  0  0  0  0  0  0  0  0
   70.4192    9.5068    1.8450 O   0  5  0  0  0  0  0  0  0  0  0  0
   73.4846   12.6706    2.9788 O   0  5  0  0  0  0  0  0  0  0  0  0
   73.2304   12.1474   -0.7190 O   0  5  0  0  0  0  0  0  0  0  0  0
   65.9746   12.4741    0.1135 C   0  0  1  0  0  0  0  0  0  0  0  0
   65.0994   13.2807    0.6987 N   0  0  0  0  0  0  0  0  0  0  0  0
   69.4578   11.8350    2.3045 O   0  0  0  0  0  0  0  0  0  0  0  0
   73.2779   10.5182    1.6098 O   0  0  0  0  0  0  0  0  0  0  0  0
   73.0871   14.3754    0.5317 O   0  0  0  0  0  0  0  0  0  0  0  0
   66.1967   11.2618    0.6152 N   0  0  0  0  0  0  0  0  0  0  0  0
   71.5910   11.1050    3.3329 O   0  0  0  0  0  0  0  0  0  0  0  0
   71.7276   12.4223    1.2391 O   0  0  0  0  0  0  0  0  0  0  0  0
   71.1928   13.5885   -0.9050 O   0  0  0  0  0  0  0  0  0  0  0  0
   67.1116   10.5722   -0.1045 C   0  0  2  0  0  0  0  0  0  0  0  0
   67.7900   10.9905   -1.2378 C   0  0  2  0  0  0  0  0  0  0  0  0
   67.5414   12.2839   -1.7591 C   0  0  1  0  0  0  0  0  0  0  0  0
   68.0243   12.8073   -2.7542 O   0  0  0  0  0  0  0  0  0  0  0  0
   68.6552    9.9918   -1.6974 N   0  0  0  0  0  0  0  0  0  0  0  0
   68.4478    9.0544   -0.8314 C   0  0  0  0  0  0  0  0  0  0  0  0
   67.5502    9.2956    0.1565 N   0  0  0  0  0  0  0  0  0  0  0  0
  1  5  1  1  0  0  0
  1 14  1  0  0  0  0
  1 19  2  0  0  0  0
  2 15  1  1  0  0  0
  2 20  2  0  0  0  0
  2 23  1  0  0  0  0
  3 16  1  6  0  0  0
  3 21  2  0  0  0  0
  3 24  1  0  0  0  0
  3 25  1  0  0  0  0
  4  6  1  0  0  0  0
  5  4  1  0  0  0  0
  6  7  1  0  0  0  0
  6  8  2  0  0  0  0
  7 12  1  0  0  0  0
  8  9  1  0  0  0  0
  8 10  1  0  0  0  0
 10 11  1  0  0  0  0
 10 12  2  0  0  0  0
 12 32  1  0  0  0  0
 13 17  1  0  0  0  0
 17 18  1  6  0  0  0
 17 22  1  0  0  0  0
 23  1  1  0  0  0  0
 24  2  1  0  0  0  0
 26 22  1  6  0  0  0
 27 26  1  0  0  0  0
 27 28  1  0  0  0  0
 27 30  1  6  0  0  0
 28 13  1  0  0  0  0
 28 29  1  6  0  0  0
 31 30  1  0  0  0  0
 32 26  1  0  0  0  0
 32 31  1  0  0  0  0
M  CHG  3  14  -1  15  -1  16  -1
M  END
>  <CHROM.1>
-93.73087012,149.39356057,57.53130952,-110.35106836,86.10482440,-25.75014958
177.02035306,65.01035792,69.53405968,10.88290090,1.18187768,-0.47854706,0.36699203
2.36309707

>  <Name>
2au4_lig

>  <RI>
0

>  <Rbt.Current_Directory>
/home/itssahil/PROJECTS/Mol_Feturizer/New_Systems/rnas/2au4

>  <Rbt.Executable>
rbdock ($Id: //depot/dev/client3/rdock/2013.1/src/exe/rbdock.cxx#4 $)

>  <Rbt.Library>
libRbt.so (2013.1, Build901 2013/11/27)

>  <Rbt.Parameter_File>
/export/apps/rDock/src/rDock_2013.1_src/data/scripts/dock_solv.prm

>  <Rbt.Receptor>
prm/pocket_docking_6.prm

>  <SCORE>
-38.5285

>  <SCORE.INTER>
-17.0279

>  <SCORE.INTER.CONST>
1

>  <SCORE.INTER.POLAR>
-2.11017

>  <SCORE.INTER.ROT>
8

>  <SCORE.INTER.SOLV>
20.002

>  <SCORE.INTER.VDW>
-19.9187

>  <SCORE.INTER.norm>
-0.532121

>  <SCORE.INTRA>
-21.5007

>  <SCORE.INTRA.DIHEDRAL>
-46.2545

>  <SCORE.INTRA.DIHEDRAL.0>
76.3625

>  <SCORE.INTRA.POLAR>
0

>  <SCORE.INTRA.POLAR.0>
0

>  <SCORE.INTRA.REPUL>
0.071421

>  <SCORE.INTRA.REPUL.0>
0.12705

>  <SCORE.INTRA.SOLV>
3.82003

>  <SCORE.INTRA.SOLV.lig_0>
-119.383

>  <SCORE.INTRA.VDW>
-0.640541

>  <SCORE.INTRA.VDW.0>
-5.10464

>  <SCORE.INTRA.norm>
-0.671896

>  <SCORE.RESTR>
0

>  <SCORE.RESTR.CAVITY>
0

>  <SCORE.RESTR.norm>
0

>  <SCORE.SYSTEM>
0

>  <SCORE.SYSTEM.CONST>
0

>  <SCORE.SYSTEM.DIHEDRAL>
0

>  <SCORE.SYSTEM.SOLV>
0

>  <SCORE.SYSTEM.norm>
0

>  <SCORE.heavy>
32

>  <SCORE.norm>
-1.20402

>  <RMSD>
6.203

$$$$
2au4_lig
 OpenBabel11021811423D
libRbt.so/2013.1/901 2013/11/27
 32 34  0  0  0  0  0  0  0  0999 V2000
   67.4793    5.7714   -3.6946 P   0  0  1  0  0  0  0  0  0  0  0  0
   69.2981    4.9801   -1.8411 P   0  0  1  0  0  0  0  0  0  0  0  0
   70.0280    5.4576    0.7434 P   0  0  2  0  0  0  0  0  0  0  0  0
   67.2817    7.4050   -1.6155 C   0  0  0  0  0  0  0  0  0  0  0  0
   67.0148    7.1488   -3.0043 O   0  0  0  0  0  0  0  0  0  0  0  0
   66.0182    7.7226   -0.8291 C   0  0  0  0  0  0  0  0  0  0  0  0
   66.3447    8.1063    0.5223 O   0  0  0  0  0  0  0  0  0  0  0  0
   65.2535    8.8659   -1.4776 C   0  0  0  0  0  0  0  0  0  0  0  0
   63.9705    8.4266   -1.9400 O   0  0  0  0  0  0  0  0  0  0  0  0
   65.1129    9.9394   -0.4249 C   0  0  0  0  0  0  0  0  0  0  0  0
   63.7340   10.2401   -0.1710 O   0  0  0  0  0  0  0  0  0  0  0  0
   65.7875    9.4028    0.8258 C   0  0  0  0  0  0  0  0  0  0  0  0
   70.0114    9.9624    3.6386 N   0  0  0  0  0  0  0  0  0  0  0  0
   66.3150    5.1698   -4.3752 O   0  5  0  0  0  0  0  0  0  0  0  0
   70.1043    3.8615   -2.3672 O   0  5  0  0  0  0  0  0  0  0  0  0
   69.7129    4.9527    2.0951 O   0  5  0  0  0  0  0  0  0  0  0  0
   69.2450    8.8406    3.4293 C   0  0  1  0  0  0  0  0  0  0  0  0
   69.6428    7.7340    4.0426 N   0  0  0  0  0  0  0  0  0  0  0  0
   68.7302    6.0171   -4.4436 O   0  0  0  0  0  0  0  0  0  0  0  0
   69.7583    6.3731   -2.0182 O   0  0  0  0  0  0  0  0  0  0  0  0
   69.9834    6.9088    0.4673 O   0  0  0  0  0  0  0  0  0  0  0  0
   68.1553    8.8196    2.6658 N   0  0  0  0  0  0  0  0  0  0  0  0
   67.8345    4.8635   -2.4416 O   0  0  0  0  0  0  0  0  0  0  0  0
   69.0558    4.7340   -0.2900 O   0  0  0  0  0  0  0  0  0  0  0  0
   71.4737    4.9017    0.3173 O   0  0  0  0  0  0  0  0  0  0  0  0
   67.8907   10.0299    2.1219 C   0  0  2  0  0  0  0  0  0  0  0  0
   68.6068   11.2056    2.2793 C   0  0  2  0  0  0  0  0  0  0  0  0
   69.7642   11.2105    3.0959 C   0  0  1  0  0  0  0  0  0  0  0  0
   70.4985   12.1512    3.3666 O   0  0  0  0  0  0  0  0  0  0  0  0
   68.0168   12.2485    1.5573 N   0  0  0  0  0  0  0  0  0  0  0  0
   67.0037   11.6490    1.0223 C   0  0  0  0  0  0  0  0  0  0  0  0
   66.8360   10.3305    1.2929 N   0  0  0  0  0  0  0  0  0  0  0  0
  1  5  1  1  0  0  0
  1 14  1  0  0  0  0
  1 19  2  0  0  0  0
  2 15  1  6  0  0  0
  2 20  2  0  0  0  0
  2 23  1  0  0  0  0
  3 16  1  1  0  0  0
  3 21  2  0  0  0  0
  3 24  1  0  0  0  0
  3 25  1  0  0  0  0
  4  6  1  0  0  0  0
  5  4  1  0  0  0  0
  6  7  1  0  0  0  0
  6  8  2  0  0  0  0
  7 12  1  0  0  0  0
  8  9  1  0  0  0  0
  8 10  1  0  0  0  0
 10 11  1  0  0  0  0
 10 12  2  0  0  0  0
 12 32  1  0  0  0  0
 13 17  1  0  0  0  0
 17 18  1  1  0  0  0
 17 22  1  0  0  0  0
 23  1  1  0  0  0  0
 24  2  1  0  0  0  0
 26 22  1  1  0  0  0
 27 26  1  0  0  0  0
 27 28  1  0  0  0  0
 27 30  1  1  0  0  0
 28 13  1  0  0  0  0
 28 29  1  1  0  0  0
 31 30  1  0  0  0  0
 32 26  1  0  0  0  0
 32 31  1  0  0  0  0
M  CHG  3  14  -1  15  -1  16  -1
M  END
>  <CHROM.1>
127.99476173,-98.83176253,-173.27551569,-174.10939798,-124.02060602,-39.27335554
-86.10315090,96.49062846,68.13245620,7.62478211,-0.15736161,1.56536062,0.63868163
-2.37435716

>  <Name>
2au4_lig

>  <RI>
0

>  <Rbt.Current_Directory>
/home/itssahil/PROJECTS/Mol_Feturizer/New_Systems/rnas/2au4

>  <Rbt.Executable>
rbdock ($Id: //depot/dev/client3/rdock/2013.1/src/exe/rbdock.cxx#4 $)

>  <Rbt.Library>
libRbt.so (2013.1, Build901 2013/11/27)

>  <Rbt.Parameter_File>
/export/apps/rDock/src/rDock_2013.1_src/data/scripts/dock_solv.prm

>  <Rbt.Receptor>
prm/pocket_docking_2.prm

>  <SCORE>
-18.9644

>  <SCORE.INTER>
-7.9066

>  <SCORE.INTER.CONST>
1

>  <SCORE.INTER.POLAR>
-0.0708355

>  <SCORE.INTER.ROT>
8

>  <SCORE.INTER.SOLV>
40.0655

>  <SCORE.INTER.VDW>
-27.3234

>  <SCORE.INTER.norm>
-0.247081

>  <SCORE.INTRA>
-15.3242

>  <SCORE.INTRA.DIHEDRAL>
-36.9239

>  <SCORE.INTRA.DIHEDRAL.0>
76.3625

>  <SCORE.INTRA.POLAR>
0

>  <SCORE.INTRA.POLAR.0>
0

>  <SCORE.INTRA.REPUL>
0.019893

>  <SCORE.INTRA.REPUL.0>
0.12705

>  <SCORE.INTRA.SOLV>
0.278671

>  <SCORE.INTRA.SOLV.lig_0>
-119.383

>  <SCORE.INTRA.VDW>
2.89893

>  <SCORE.INTRA.VDW.0>
-5.10464

>  <SCORE.INTRA.norm>
-0.478882

>  <SCORE.RESTR>
4.26644

>  <SCORE.RESTR.CAVITY>
4.26644

>  <SCORE.RESTR.norm>
0.133326

>  <SCORE.SYSTEM>
0

>  <SCORE.SYSTEM.CONST>
0

>  <SCORE.SYSTEM.DIHEDRAL>
0

>  <SCORE.SYSTEM.SOLV>
0

>  <SCORE.SYSTEM.norm>
0

>  <SCORE.heavy>
32

>  <SCORE.norm>
-0.592637

>  <RMSD>
6.217

$$$$
2au4_lig
 OpenBabel11021811423D
libRbt.so/2013.1/901 2013/11/27
 32 34  0  0  0  0  0  0  0  0999 V2000
   68.8680    6.1347    0.2360 P   0  0  1  0  0  0  0  0  0  0  0  0
   69.7815    4.9733   -2.0413 P   0  0  1  0  0  0  0  0  0  0  0  0
   68.0354    6.3809   -3.5939 P   0  0  2  0  0  0  0  0  0  0  0  0
   66.2469    6.5264    0.1531 C   0  0  0  0  0  0  0  0  0  0  0  0
   67.4100    6.1653    0.9163 O   0  0  0  0  0  0  0  0  0  0  0  0
   65.5908    7.8021    0.6607 C   0  0  0  0  0  0  0  0  0  0  0  0
   66.2807    8.2986    1.8259 O   0  0  0  0  0  0  0  0  0  0  0  0
   65.6199    8.8842   -0.4074 C   0  0  0  0  0  0  0  0  0  0  0  0
   64.2923    9.2392   -0.8129 O   0  0  0  0  0  0  0  0  0  0  0  0
   66.3366   10.0667    0.1996 C   0  0  0  0  0  0  0  0  0  0  0  0
   65.5026   11.2332    0.2037 O   0  0  0  0  0  0  0  0  0  0  0  0
   66.7056    9.6620    1.6163 C   0  0  0  0  0  0  0  0  0  0  0  0
   71.0133   11.9929    0.1752 N   0  0  0  0  0  0  0  0  0  0  0  0
   69.0977    7.4255   -0.4436 O   0  5  0  0  0  0  0  0  0  0  0  0
   71.1180    5.1312   -1.4356 O   0  5  0  0  0  0  0  0  0  0  0  0
   68.2374    6.1030   -5.0302 O   0  5  0  0  0  0  0  0  0  0  0  0
   69.7371   12.1379   -0.3145 C   0  0  1  0  0  0  0  0  0  0  0  0
   69.5838   13.0016   -1.3093 N   0  0  0  0  0  0  0  0  0  0  0  0
   69.8425    5.6370    1.2303 O   0  0  0  0  0  0  0  0  0  0  0  0
   69.4887    3.8046   -2.8969 O   0  0  0  0  0  0  0  0  0  0  0  0
   67.3922    7.6414   -3.1680 O   0  0  0  0  0  0  0  0  0  0  0  0
   68.6849   11.4682    0.1493 N   0  0  0  0  0  0  0  0  0  0  0  0
   68.7012    5.0186   -0.8806 O   0  0  0  0  0  0  0  0  0  0  0  0
   69.4519    6.2874   -2.8717 O   0  0  0  0  0  0  0  0  0  0  0  0
   67.2273    5.1523   -2.9472 O   0  0  0  0  0  0  0  0  0  0  0  0
   69.0187   10.6290    1.1567 C   0  0  2  0  0  0  0  0  0  0  0  0
   70.2727   10.4226    1.7087 C   0  0  2  0  0  0  0  0  0  0  0  0
   71.3820   11.1434    1.2029 C   0  0  1  0  0  0  0  0  0  0  0  0
   72.5542   11.0732    1.5471 O   0  0  0  0  0  0  0  0  0  0  0  0
   70.2153    9.4725    2.7341 N   0  0  0  0  0  0  0  0  0  0  0  0
   68.9576    9.1720    2.7350 C   0  0  0  0  0  0  0  0  0  0  0  0
   68.1581    9.8011    1.8380 N   0  0  0  0  0  0  0  0  0  0  0  0
  1  5  1  1  0  0  0
  1 14  1  0  0  0  0
  1 19  2  0  0  0  0
  2 15  1  1  0  0  0
  2 20  2  0  0  0  0
  2 23  1  0  0  0  0
  3 16  1  6  0  0  0
  3 21  2  0  0  0  0
  3 24  1  0  0  0  0
  3 25  1  0  0  0  0
  4  6  1  0  0  0  0
  5  4  1  0  0  0  0
  6  7  1  0  0  0  0
  6  8  2  0  0  0  0
  7 12  1  0  0  0  0
  8  9  1  0  0  0  0
  8 10  1  0  0  0  0
 10 11  1  0  0  0  0
 10 12  2  0  0  0  0
 12 32  1  0  0  0  0
 13 17  1  0  0  0  0
 17 18  1  6  0  0  0
 17 22  1  0  0  0  0
 23  1  1  0  0  0  0
 24  2  1  0  0  0  0
 26 22  1  6  0  0  0
 27 26  1  0  0  0  0
 27 28  1  0  0  0  0
 27 30  1  6  0  0  0
 28 13  1  0  0  0  0
 28 29  1  6  0  0  0
 31 30  1  0  0  0  0
 32 26  1  0  0  0  0
 32 31  1  0  0  0  0
M  CHG  3  14  -1  15  -1  16  -1
M  END
>  <CHROM.1>
51.89883746,44.12197935,-102.33238725,-2.37899314,-116.29276302,144.78047066
162.87894017,-178.31272794,68.52262364,8.01450545,-0.46389301,-1.64515255
-0.11124554,0.55065798

>  <Name>
2au4_lig

>  <RI>
0

>  <Rbt.Current_Directory>
/home/itssahil/PROJECTS/Mol_Feturizer/New_Systems/rnas/2au4

>  <Rbt.Executable>
rbdock ($Id: //depot/dev/client3/rdock/2013.1/src/exe/rbdock.cxx#4 $)

>  <Rbt.Library>
libRbt.so (2013.1, Build901 2013/11/27)

>  <Rbt.Parameter_File>
/export/apps/rDock/src/rDock_2013.1_src/data/scripts/dock_solv.prm

>  <Rbt.Receptor>
prm/pocket_docking_2.prm

>  <SCORE>
-30.5513

>  <SCORE.INTER>
-11.9778

>  <SCORE.INTER.CONST>
1

>  <SCORE.INTER.POLAR>
-0.735073

>  <SCORE.INTER.ROT>
8

>  <SCORE.INTER.SOLV>
35.3261

>  <SCORE.INTER.VDW>
-26.2437

>  <SCORE.INTER.norm>
-0.374308

>  <SCORE.INTRA>
-20.286

>  <SCORE.INTRA.DIHEDRAL>
-41.0539

>  <SCORE.INTRA.DIHEDRAL.0>
76.3625

>  <SCORE.INTRA.POLAR>
0

>  <SCORE.INTRA.POLAR.0>
0

>  <SCORE.INTRA.REPUL>
-0.12705

>  <SCORE.INTRA.REPUL.0>
0.12705

>  <SCORE.INTRA.SOLV>
1.78879

>  <SCORE.INTRA.SOLV.lig_0>
-119.383

>  <SCORE.INTRA.VDW>
-0.0181957

>  <SCORE.INTRA.VDW.0>
-5.10464

>  <SCORE.INTRA.norm>
-0.633938

>  <SCORE.RESTR>
1.71256

>  <SCORE.RESTR.CAVITY>
1.71256

>  <SCORE.RESTR.norm>
0.0535175

>  <SCORE.SYSTEM>
0

>  <SCORE.SYSTEM.CONST>
0

>  <SCORE.SYSTEM.DIHEDRAL>
0

>  <SCORE.SYSTEM.SOLV>
0

>  <SCORE.SYSTEM.norm>
0

>  <SCORE.heavy>
32

>  <SCORE.norm>
-0.954728

>  <RMSD>
6.229

$$$$
2au4_lig
 OpenBabel11021811423D
libRbt.so/2013.1/901 2013/11/27
 32 34  0  0  0  0  0  0  0  0999 V2000
   67.7630    7.8092   -1.5113 P   0  0  1  0  0  0  0  0  0  0  0  0
   69.6403    5.8636   -1.7551 P   0  0  1  0  0  0  0  0  0  0  0  0
   71.6226    4.4170   -0.5639 P   0  0  2  0  0  0  0  0  0  0  0  0
   65.7466    6.8927   -0.0536 C   0  0  0  0  0  0  0  0  0  0  0  0
   67.1649    6.9765   -0.2711 O   0  0  0  0  0  0  0  0  0  0  0  0
   65.2144    8.0571    0.7688 C   0  0  0  0  0  0  0  0  0  0  0  0
   66.0531    8.2917    1.9185 O   0  0  0  0  0  0  0  0  0  0  0  0
   65.1773    9.3304   -0.0618 C   0  0  0  0  0  0  0  0  0  0  0  0
   63.8318    9.7937   -0.2291 O   0  0  0  0  0  0  0  0  0  0  0  0
   66.0140   10.3482    0.6760 C   0  0  0  0  0  0  0  0  0  0  0  0
   65.2438   11.5112    1.0080 O   0  0  0  0  0  0  0  0  0  0  0  0
   66.5181    9.6580    1.9317 C   0  0  0  0  0  0  0  0  0  0  0  0
   70.7545   12.0503    0.3836 N   0  0  0  0  0  0  0  0  0  0  0  0
   67.1623    7.2938   -2.7580 O   0  5  0  0  0  0  0  0  0  0  0  0
   68.8086    5.0427   -0.8537 O   0  5  0  0  0  0  0  0  0  0  0  0
   71.2060    3.2865   -1.4181 O   0  5  0  0  0  0  0  0  0  0  0  0
   69.4413   12.3138    0.0742 C   0  0  1  0  0  0  0  0  0  0  0  0
   69.2240   13.3313   -0.7482 N   0  0  0  0  0  0  0  0  0  0  0  0
   67.6864    9.2510   -1.1927 O   0  0  0  0  0  0  0  0  0  0  0  0
   69.6118    5.6245   -3.2130 O   0  0  0  0  0  0  0  0  0  0  0  0
   71.1964    4.4715    0.8501 O   0  0  0  0  0  0  0  0  0  0  0  0
   68.4138   11.6124    0.5463 N   0  0  0  0  0  0  0  0  0  0  0  0
   69.2941    7.3902   -1.4982 O   0  0  0  0  0  0  0  0  0  0  0  0
   71.1499    5.7650   -1.2684 O   0  0  0  0  0  0  0  0  0  0  0  0
   73.2239    4.5325   -0.6187 O   0  0  0  0  0  0  0  0  0  0  0  0
   68.8129   10.6111    1.3640 C   0  0  2  0  0  0  0  0  0  0  0  0
   70.1077   10.2777    1.7274 C   0  0  2  0  0  0  0  0  0  0  0  0
   71.1901   11.0344    1.2155 C   0  0  1  0  0  0  0  0  0  0  0  0
   72.3879   10.8716    1.4060 O   0  0  0  0  0  0  0  0  0  0  0  0
   70.1150    9.1769    2.5907 N   0  0  0  0  0  0  0  0  0  0  0  0
   68.8514    8.9211    2.6906 C   0  0  0  0  0  0  0  0  0  0  0  0
   67.9913    9.7124    2.0023 N   0  0  0  0  0  0  0  0  0  0  0  0
  1  5  1  1  0  0  0
  1 14  1  0  0  0  0
  1 19  2  0  0  0  0
  2 15  1  1  0  0  0
  2 20  2  0  0  0  0
  2 23  1  0  0  0  0
  3 16  1  6  0  0  0
  3 21  2  0  0  0  0
  3 24  1  0  0  0  0
  3 25  1  0  0  0  0
  4  6  1  0  0  0  0
  5  4  1  0  0  0  0
  6  7  1  0  0  0  0
  6  8  2  0  0  0  0
  7 12  1  0  0  0  0
  8  9  1  0  0  0  0
  8 10  1  0  0  0  0
 10 11  1  0  0  0  0
 10 12  2  0  0  0  0
 12 32  1  0  0  0  0
 13 17  1  0  0  0  0
 17 18  1  6  0  0  0
 17 22  1  0  0  0  0
 23  1  1  0  0  0  0
 24  2  1  0  0  0  0
 26 22  1  6  0  0  0
 27 26  1  0  0  0  0
 27 28  1  0  0  0  0
 27 30  1  6  0  0  0
 28 13  1  0  0  0  0
 28 29  1  6  0  0  0
 31 30  1  0  0  0  0
 32 26  1  0  0  0  0
 32 31  1  0  0  0  0
M  CHG  3  14  -1  15  -1  16  -1
M  END
>  <CHROM.1>
-55.75098464,-50.36393089,49.76394800,-46.33302394,-86.68660744,142.46885481
63.07103484,30.64227187,68.79333846,8.13693283,-0.09344012,1.03597719,0.11945918
-2.76583312

>  <Name>
2au4_lig

>  <RI>
0

>  <Rbt.Current_Directory>
/home/itssahil/PROJECTS/Mol_Feturizer/New_Systems/rnas/2au4

>  <Rbt.Executable>
rbdock ($Id: //depot/dev/client3/rdock/2013.1/src/exe/rbdock.cxx#4 $)

>  <Rbt.Library>
libRbt.so (2013.1, Build901 2013/11/27)

>  <Rbt.Parameter_File>
/export/apps/rDock/src/rDock_2013.1_src/data/scripts/dock_solv.prm

>  <Rbt.Receptor>
prm/pocket_docking_2.prm

>  <SCORE>
-32.303

>  <SCORE.INTER>
-12.5612

>  <SCORE.INTER.CONST>
1

>  <SCORE.INTER.POLAR>
-1.93723

>  <SCORE.INTER.ROT>
8

>  <SCORE.INTER.SOLV>
34.5669

>  <SCORE.INTER.VDW>
-22.3723

>  <SCORE.INTER.norm>
-0.392536

>  <SCORE.INTRA>
-21.816

>  <SCORE.INTRA.DIHEDRAL>
-44.6812

>  <SCORE.INTRA.DIHEDRAL.0>
76.3625

>  <SCORE.INTRA.POLAR>
0

>  <SCORE.INTRA.POLAR.0>
0

>  <SCORE.INTRA.REPUL>
-0.12705

>  <SCORE.INTRA.REPUL.0>
0.12705

>  <SCORE.INTRA.SOLV>
3.26966

>  <SCORE.INTRA.SOLV.lig_0>
-119.383

>  <SCORE.INTRA.VDW>
-0.474991

>  <SCORE.INTRA.VDW.0>
-5.10464

>  <SCORE.INTRA.norm>
-0.681751

>  <SCORE.RESTR>
2.0742

>  <SCORE.RESTR.CAVITY>
2.0742

>  <SCORE.RESTR.norm>
0.0648189

>  <SCORE.SYSTEM>
0

>  <SCORE.SYSTEM.CONST>
0

>  <SCORE.SYSTEM.DIHEDRAL>
0

>  <SCORE.SYSTEM.SOLV>
0

>  <SCORE.SYSTEM.norm>
0

>  <SCORE.heavy>
32

>  <SCORE.norm>
-1.00947

>  <RMSD>
6.232

$$$$
2au4_lig
 OpenBabel11021811423D
libRbt.so/2013.1/901 2013/11/27
 32 34  0  0  0  0  0  0  0  0999 V2000
   67.3253    6.0129   -2.5881 P   0  0  1  0  0  0  0  0  0  0  0  0
   69.6353    5.1538   -1.4499 P   0  0  1  0  0  0  0  0  0  0  0  0
   68.9920    5.9488    1.0789 P   0  0  2  0  0  0  0  0  0  0  0  0
   66.0928    8.0770   -1.4697 C   0  0  0  0  0  0  0  0  0  0  0  0
   66.8718    6.8797   -1.3105 O   0  0  0  0  0  0  0  0  0  0  0  0
   65.4174    8.5081   -0.1761 C   0  0  0  0  0  0  0  0  0  0  0  0
   66.2342    8.1644    0.9618 O   0  0  0  0  0  0  0  0  0  0  0  0
   65.1897   10.0116   -0.1626 C   0  0  0  0  0  0  0  0  0  0  0  0
   63.7903   10.3173   -0.1311 O   0  0  0  0  0  0  0  0  0  0  0  0
   65.8888   10.5402    1.0671 C   0  0  0  0  0  0  0  0  0  0  0  0
   64.9697   11.2137    1.9376 O   0  0  0  0  0  0  0  0  0  0  0  0
   66.5047    9.3367    1.7593 C   0  0  0  0  0  0  0  0  0  0  0  0
   70.6543   11.9528    0.3441 N   0  0  0  0  0  0  0  0  0  0  0  0
   66.1215    5.4256   -3.2100 O   0  5  0  0  0  0  0  0  0  0  0  0
   70.5459    4.1843   -2.0893 O   0  5  0  0  0  0  0  0  0  0  0  0
   67.5216    5.9497    0.9398 O   0  5  0  0  0  0  0  0  0  0  0  0
   69.3563   12.0734   -0.0919 C   0  0  1  0  0  0  0  0  0  0  0  0
   69.1306   12.9955   -1.0181 N   0  0  0  0  0  0  0  0  0  0  0  0
   68.2592    6.8219   -3.4002 O   0  0  0  0  0  0  0  0  0  0  0  0
   69.8660    6.6046   -1.6098 O   0  0  0  0  0  0  0  0  0  0  0  0
   69.7568    7.1928    0.8523 O   0  0  0  0  0  0  0  0  0  0  0  0
   68.3511   11.3266    0.3582 N   0  0  0  0  0  0  0  0  0  0  0  0
   68.1558    4.8339   -1.9244 O   0  0  0  0  0  0  0  0  0  0  0  0
   69.5766    4.8322    0.1052 O   0  0  0  0  0  0  0  0  0  0  0  0
   69.3646    5.3790    2.5340 O   0  0  0  0  0  0  0  0  0  0  0  0
   68.7564   10.4362    1.2928 C   0  0  2  0  0  0  0  0  0  0  0  0
   70.0371   10.2492    1.7874 C   0  0  2  0  0  0  0  0  0  0  0  0
   71.0958   11.0524    1.2970 C   0  0  1  0  0  0  0  0  0  0  0  0
   72.2815   11.0116    1.5967 O   0  0  0  0  0  0  0  0  0  0  0  0
   70.0573    9.2295    2.7449 N   0  0  0  0  0  0  0  0  0  0  0  0
   68.8145    8.8732    2.7662 C   0  0  0  0  0  0  0  0  0  0  0  0
   67.9570    9.5256    1.9423 N   0  0  0  0  0  0  0  0  0  0  0  0
  1  5  1  1  0  0  0
  1 14  1  0  0  0  0
  1 19  2  0  0  0  0
  2 15  1  6  0  0  0
  2 20  2  0  0  0  0
  2 23  1  0  0  0  0
  3 16  1  6  0  0  0
  3 21  2  0  0  0  0
  3 24  1  0  0  0  0
  3 25  1  0  0  0  0
  4  6  1  0  0  0  0
  5  4  1  0  0  0  0
  6  7  1  0  0  0  0
  6  8  2  0  0  0  0
  7 12  1  0  0  0  0
  8  9  1  0  0  0  0
  8 10  1  0  0  0  0
 10 11  1  0  0  0  0
 10 12  2  0  0  0  0
 12 32  1  0  0  0  0
 13 17  1  0  0  0  0
 17 18  1  6  0  0  0
 17 22  1  0  0  0  0
 23  1  1  0  0  0  0
 24  2  1  0  0  0  0
 26 22  1  6  0  0  0
 27 26  1  0  0  0  0
 27 28  1  0  0  0  0
 27 30  1  6  0  0  0
 28 13  1  0  0  0  0
 28 29  1  6  0  0  0
 31 30  1  0  0  0  0
 32 26  1  0  0  0  0
 32 31  1  0  0  0  0
M  CHG  3  14  -1  15  -1  16  -1
M  END
>  <CHROM.1>
-66.75610097,-125.13401524,76.19190679,32.75608244,162.53292342,103.30656338
-77.78288389,163.70529012,68.26902708,8.05860361,-0.00492359,1.55665779,0.31198344
-2.70327730

>  <Name>
2au4_lig

>  <RI>
0

>  <Rbt.Current_Directory>
/home/itssahil/PROJECTS/Mol_Feturizer/New_Systems/rnas/2au4

>  <Rbt.Executable>
rbdock ($Id: //depot/dev/client3/rdock/2013.1/src/exe/rbdock.cxx#4 $)

>  <Rbt.Library>
libRbt.so (2013.1, Build901 2013/11/27)

>  <Rbt.Parameter_File>
/export/apps/rDock/src/rDock_2013.1_src/data/scripts/dock_solv.prm

>  <Rbt.Receptor>
prm/pocket_docking_2.prm

>  <SCORE>
-19.2925

>  <SCORE.INTER>
-15.4224

>  <SCORE.INTER.CONST>
1

>  <SCORE.INTER.POLAR>
-1.22908

>  <SCORE.INTER.ROT>
8

>  <SCORE.INTER.SOLV>
31.2424

>  <SCORE.INTER.VDW>
-25.5321

>  <SCORE.INTER.norm>
-0.481951

>  <SCORE.INTRA>
-5.27871

>  <SCORE.INTRA.DIHEDRAL>
-20.0472

>  <SCORE.INTRA.DIHEDRAL.0>
76.3625

>  <SCORE.INTRA.POLAR>
0

>  <SCORE.INTRA.POLAR.0>
0

>  <SCORE.INTRA.REPUL>
-0.126916

>  <SCORE.INTRA.REPUL.0>
0.12705

>  <SCORE.INTRA.SOLV>
6.76336

>  <SCORE.INTRA.SOLV.lig_0>
-119.383

>  <SCORE.INTRA.VDW>
1.9978

>  <SCORE.INTRA.VDW.0>
-5.10464

>  <SCORE.INTRA.norm>
-0.16496

>  <SCORE.RESTR>
1.40868

>  <SCORE.RESTR.CAVITY>
1.40868

>  <SCORE.RESTR.norm>
0.0440213

>  <SCORE.SYSTEM>
0

>  <SCORE.SYSTEM.CONST>
0

>  <SCORE.SYSTEM.DIHEDRAL>
0

>  <SCORE.SYSTEM.SOLV>
0

>  <SCORE.SYSTEM.norm>
0

>  <SCORE.heavy>
32

>  <SCORE.norm>
-0.602889

>  <RMSD>
6.236

$$$$
2au4_lig
 OpenBabel11021811423D
libRbt.so/2013.1/901 2013/11/27
 32 34  0  0  0  0  0  0  0  0999 V2000
   67.5158    7.0598   -2.1892 P   0  0  1  0  0  0  0  0  0  0  0  0
   69.0437    5.3195   -0.7727 P   0  0  1  0  0  0  0  0  0  0  0  0
   71.5636    4.5925   -1.5223 P   0  0  2  0  0  0  0  0  0  0  0  0
   65.8703    9.0682   -1.6513 C   0  0  0  0  0  0  0  0  0  0  0  0
   67.1911    8.6251   -2.0046 O   0  0  0  0  0  0  0  0  0  0  0  0
   65.8657   10.4702   -1.0598 C   0  0  0  0  0  0  0  0  0  0  0  0
   65.5915   10.4231    0.3554 O   0  0  0  0  0  0  0  0  0  0  0  0
   67.2139   11.1442   -1.2618 C   0  0  0  0  0  0  0  0  0  0  0  0
   67.0892   12.2965   -2.1041 O   0  0  0  0  0  0  0  0  0  0  0  0
   67.7121   11.5269    0.1114 C   0  0  0  0  0  0  0  0  0  0  0  0
   67.9350   12.9401    0.2077 O   0  0  0  0  0  0  0  0  0  0  0  0
   66.6429   11.0809    1.0938 C   0  0  0  0  0  0  0  0  0  0  0  0
   70.8357    9.6765    3.6460 N   0  0  0  0  0  0  0  0  0  0  0  0
   66.2421    6.3125   -2.1976 O   0  5  0  0  0  0  0  0  0  0  0  0
   69.4857    5.1044    0.6189 O   0  5  0  0  0  0  0  0  0  0  0  0
   72.0571    4.6800   -0.1331 O   0  5  0  0  0  0  0  0  0  0  0  0
   70.6845   10.6449    2.6822 C   0  0  1  0  0  0  0  0  0  0  0  0
   71.7769   11.3203    2.3511 N   0  0  0  0  0  0  0  0  0  0  0  0
   68.4735    6.9047   -3.3050 O   0  0  0  0  0  0  0  0  0  0  0  0
   68.2145    4.3029   -1.4527 O   0  0  0  0  0  0  0  0  0  0  0  0
   72.4839    4.8441   -2.6510 O   0  0  0  0  0  0  0  0  0  0  0  0
   69.5281   10.9217    2.0849 N   0  0  0  0  0  0  0  0  0  0  0  0
   68.2789    6.7076   -0.8424 O   0  0  0  0  0  0  0  0  0  0  0  0
   70.3287    5.5876   -1.6683 O   0  0  0  0  0  0  0  0  0  0  0  0
   70.8834    3.1522   -1.7304 O   0  0  0  0  0  0  0  0  0  0  0  0
   68.5212   10.1387    2.5363 C   0  0  2  0  0  0  0  0  0  0  0  0
   68.5858    9.1450    3.4997 C   0  0  2  0  0  0  0  0  0  0  0  0
   69.8248    8.8629    4.1253 C   0  0  1  0  0  0  0  0  0  0  0  0
   70.0728    8.0132    4.9703 O   0  0  0  0  0  0  0  0  0  0  0  0
   67.3316    8.5561    3.6926 N   0  0  0  0  0  0  0  0  0  0  0  0
   66.6057    9.2171    2.8512 C   0  0  0  0  0  0  0  0  0  0  0  0
   67.2136   10.1797    2.1138 N   0  0  0  0  0  0  0  0  0  0  0  0
  1  5  1  1  0  0  0
  1 14  1  0  0  0  0
  1 19  2  0  0  0  0
  2 15  1  1  0  0  0
  2 20  2  0  0  0  0
  2 23  1  0  0  0  0
  3 16  1  1  0  0  0
  3 21  2  0  0  0  0
  3 24  1  0  0  0  0
  3 25  1  0  0  0  0
  4  6  1  0  0  0  0
  5  4  1  0  0  0  0
  6  7  1  0  0  0  0
  6  8  2  0  0  0  0
  7 12  1  0  0  0  0
  8  9  1  0  0  0  0
  8 10  1  0  0  0  0
 10 11  1  0  0  0  0
 10 12  2  0  0  0  0
 12 32  1  0  0  0  0
 13 17  1  0  0  0  0
 17 18  1  6  0  0  0
 17 22  1  0  0  0  0
 23  1  1  0  0  0  0
 24  2  1  0  0  0  0
 26 22  1  6  0  0  0
 27 26  1  0  0  0  0
 27 28  1  0  0  0  0
 27 30  1  6  0  0  0
 28 13  1  0  0  0  0
 28 29  1  6  0  0  0
 31 30  1  0  0  0  0
 32 26  1  0  0  0  0
 32 31  1  0  0  0  0
M  CHG  3  14  -1  15  -1  16  -1
M  END
>  <CHROM.1>
10.79154309,-170.91691373,-61.95011025,-108.28024112,159.99394551,146.32848527
-167.08115085,48.32746550,68.75214285,8.00995178,0.06848227,1.11775324,0.78370077
-2.31212163

>  <Name>
2au4_lig

>  <RI>
0

>  <Rbt.Current_Directory>
/home/itssahil/PROJECTS/Mol_Feturizer/New_Systems/rnas/2au4

>  <Rbt.Executable>
rbdock ($Id: //depot/dev/client3/rdock/2013.1/src/exe/rbdock.cxx#4 $)

>  <Rbt.Library>
libRbt.so (2013.1, Build901 2013/11/27)

>  <Rbt.Parameter_File>
/export/apps/rDock/src/rDock_2013.1_src/data/scripts/dock_solv.prm

>  <Rbt.Receptor>
prm/pocket_docking_3.prm

>  <SCORE>
-34.3963

>  <SCORE.INTER>
-10.171

>  <SCORE.INTER.CONST>
1

>  <SCORE.INTER.POLAR>
-0.155599

>  <SCORE.INTER.ROT>
8

>  <SCORE.INTER.SOLV>
36.433

>  <SCORE.INTER.VDW>
-27.3397

>  <SCORE.INTER.norm>
-0.317843

>  <SCORE.INTRA>
-24.6316

>  <SCORE.INTRA.DIHEDRAL>
-46.2684

>  <SCORE.INTRA.DIHEDRAL.0>
76.3625

>  <SCORE.INTRA.POLAR>
0

>  <SCORE.INTRA.POLAR.0>
0

>  <SCORE.INTRA.REPUL>
-0.12705

>  <SCORE.INTRA.REPUL.0>
0.12705

>  <SCORE.INTRA.SOLV>
-6.10765

>  <SCORE.INTRA.SOLV.lig_0>
-119.383

>  <SCORE.INTRA.VDW>
2.19166

>  <SCORE.INTRA.VDW.0>
-5.10464

>  <SCORE.INTRA.norm>
-0.769739

>  <SCORE.RESTR>
0.406292

>  <SCORE.RESTR.CAVITY>
0.406292

>  <SCORE.RESTR.norm>
0.0126966

>  <SCORE.SYSTEM>
0

>  <SCORE.SYSTEM.CONST>
0

>  <SCORE.SYSTEM.DIHEDRAL>
0

>  <SCORE.SYSTEM.SOLV>
0

>  <SCORE.SYSTEM.norm>
0

>  <SCORE.heavy>
32

>  <SCORE.norm>
-1.07489

>  <RMSD>
6.244

$$$$
2au4_lig
 OpenBabel11021811423D
libRbt.so/2013.1/901 2013/11/27
 32 34  0  0  0  0  0  0  0  0999 V2000
   67.1344    6.5001   -2.8391 P   0  0  1  0  0  0  0  0  0  0  0  0
   69.2568    5.3330   -1.6131 P   0  0  1  0  0  0  0  0  0  0  0  0
   71.8171    4.4309   -1.3460 P   0  0  2  0  0  0  0  0  0  0  0  0
   65.0629    7.2244   -1.3508 C   0  0  0  0  0  0  0  0  0  0  0  0
   66.3623    7.5362   -1.8800 O   0  0  0  0  0  0  0  0  0  0  0  0
   64.6087    8.2236   -0.2970 C   0  0  0  0  0  0  0  0  0  0  0  0
   65.4227    8.1159    0.8887 O   0  0  0  0  0  0  0  0  0  0  0  0
   64.7175    9.6467   -0.8220 C   0  0  0  0  0  0  0  0  0  0  0  0
   63.4265   10.2630   -0.9021 O   0  0  0  0  0  0  0  0  0  0  0  0
   65.6155   10.3904    0.1375 C   0  0  0  0  0  0  0  0  0  0  0  0
   64.9422   11.5198    0.7096 O   0  0  0  0  0  0  0  0  0  0  0  0
   66.0088    9.3941    1.2145 C   0  0  0  0  0  0  0  0  0  0  0  0
   70.4889   11.7466    0.5359 N   0  0  0  0  0  0  0  0  0  0  0  0
   66.6496    5.1363   -2.5462 O   0  5  0  0  0  0  0  0  0  0  0  0
   68.8628    5.3562   -0.1910 O   0  5  0  0  0  0  0  0  0  0  0  0
   71.2168    3.1702   -1.8271 O   0  5  0  0  0  0  0  0  0  0  0  0
   69.2159   12.2112    0.3052 C   0  0  1  0  0  0  0  0  0  0  0  0
   69.1175   13.4469   -0.1663 N   0  0  0  0  0  0  0  0  0  0  0  0
   67.0956    7.0192   -4.2231 O   0  0  0  0  0  0  0  0  0  0  0  0
   68.9581    4.1495   -2.4460 O   0  0  0  0  0  0  0  0  0  0  0  0
   72.1999    4.5727    0.0743 O   0  0  0  0  0  0  0  0  0  0  0  0
   68.1152   11.4962    0.5244 N   0  0  0  0  0  0  0  0  0  0  0  0
   68.6319    6.6067   -2.3228 O   0  0  0  0  0  0  0  0  0  0  0  0
   70.8174    5.6183   -1.7030 O   0  0  0  0  0  0  0  0  0  0  0  0
   73.0992    4.7629   -2.2553 O   0  0  0  0  0  0  0  0  0  0  0  0
   68.3961   10.2607    0.9989 C   0  0  2  0  0  0  0  0  0  0  0  0
   69.6429    9.7151    1.2591 C   0  0  2  0  0  0  0  0  0  0  0  0
   70.8043   10.4897    1.0199 C   0  0  1  0  0  0  0  0  0  0  0  0
   71.9757   10.1674    1.1669 O   0  0  0  0  0  0  0  0  0  0  0  0
   69.5234    8.4072    1.7411 N   0  0  0  0  0  0  0  0  0  0  0  0
   68.2399    8.2499    1.7404 C   0  0  0  0  0  0  0  0  0  0  0  0
   67.4773    9.2891    1.3181 N   0  0  0  0  0  0  0  0  0  0  0  0
  1  5  1  1  0  0  0
  1 14  1  0  0  0  0
  1 19  2  0  0  0  0
  2 15  1  1  0  0  0
  2 20  2  0  0  0  0
  2 23  1  0  0  0  0
  3 16  1  6  0  0  0
  3 21  2  0  0  0  0
  3 24  1  0  0  0  0
  3 25  1  0  0  0  0
  4  6  1  0  0  0  0
  5  4  1  0  0  0  0
  6  7  1  0  0  0  0
  6  8  2  0  0  0  0
  7 12  1  0  0  0  0
  8  9  1  0  0  0  0
  8 10  1  0  0  0  0
 10 11  1  0  0  0  0
 10 12  2  0  0  0  0
 12 32  1  0  0  0  0
 13 17  1  0  0  0  0
 17 18  1  6  0  0  0
 17 22  1  0  0  0  0
 23  1  1  0  0  0  0
 24  2  1  0  0  0  0
 26 22  1  6  0  0  0
 27 26  1  0  0  0  0
 27 28  1  0  0  0  0
 27 30  1  6  0  0  0
 28 13  1  0  0  0  0
 28 29  1  6  0  0  0
 31 30  1  0  0  0  0
 32 26  1  0  0  0  0
 32 31  1  0  0  0  0
M  CHG  3  14  -1  15  -1  16  -1
M  END
>  <CHROM.1>
-25.51219700,-84.37541328,36.05191174,-67.86578072,170.70791925,147.50352077
113.09567520,77.30282457,68.44144707,7.75413040,-0.67677467,0.99087177,0.21563254
-2.66928565

>  <Name>
2au4_lig

>  <RI>
0

>  <Rbt.Current_Directory>
/home/itssahil/PROJECTS/Mol_Feturizer/New_Systems/rnas/2au4

>  <Rbt.Executable>
rbdock ($Id: //depot/dev/client3/rdock/2013.1/src/exe/rbdock.cxx#4 $)

>  <Rbt.Library>
libRbt.so (2013.1, Build901 2013/11/27)

>  <Rbt.Parameter_File>
/export/apps/rDock/src/rDock_2013.1_src/data/scripts/dock_solv.prm

>  <Rbt.Receptor>
prm/pocket_docking_3.prm

>  <SCORE>
-36.184

>  <SCORE.INTER>
-13.9746

>  <SCORE.INTER.CONST>
1

>  <SCORE.INTER.POLAR>
-0.8

>  <SCORE.INTER.ROT>
8

>  <SCORE.INTER.SOLV>
43.5146

>  <SCORE.INTER.VDW>
-30.0879

>  <SCORE.INTER.norm>
-0.436706

>  <SCORE.INTRA>
-22.2094

>  <SCORE.INTRA.DIHEDRAL>
-44.4947

>  <SCORE.INTRA.DIHEDRAL.0>
76.3625

>  <SCORE.INTRA.POLAR>
0

>  <SCORE.INTRA.POLAR.0>
0

>  <SCORE.INTRA.REPUL>
-0.12705

>  <SCORE.INTRA.REPUL.0>
0.12705

>  <SCORE.INTRA.SOLV>
-3.4875

>  <SCORE.INTRA.SOLV.lig_0>
-119.383

>  <SCORE.INTRA.VDW>
2.41697

>  <SCORE.INTRA.VDW.0>
-5.10464

>  <SCORE.INTRA.norm>
-0.694043

>  <SCORE.RESTR>
0

>  <SCORE.RESTR.CAVITY>
0

>  <SCORE.RESTR.norm>
0

>  <SCORE.SYSTEM>
0

>  <SCORE.SYSTEM.CONST>
0

>  <SCORE.SYSTEM.DIHEDRAL>
0

>  <SCORE.SYSTEM.SOLV>
0

>  <SCORE.SYSTEM.norm>
0

>  <SCORE.heavy>
32

>  <SCORE.norm>
-1.13075

>  <RMSD>
6.247

$$$$
2au4_lig
 OpenBabel11021811423D
libRbt.so/2013.1/901 2013/11/27
 32 34  0  0  0  0  0  0  0  0999 V2000
   68.5003    6.6660    1.5335 P   0  0  1  0  0  0  0  0  0  0  0  0
   69.5223    6.2962   -0.9541 P   0  0  1  0  0  0  0  0  0  0  0  0
   71.5042    4.4263   -1.0801 P   0  0  2  0  0  0  0  0  0  0  0  0
   66.6752    7.1510   -0.3278 C   0  0  0  0  0  0  0  0  0  0  0  0
   67.1033    6.3623    0.7949 O   0  0  0  0  0  0  0  0  0  0  0  0
   65.5501    8.1107    0.0305 C   0  0  0  0  0  0  0  0  0  0  0  0
   66.0069    9.0971    0.9784 O   0  0  0  0  0  0  0  0  0  0  0  0
   65.0470    8.8367   -1.2075 C   0  0  0  0  0  0  0  0  0  0  0  0
   63.6807    8.5008   -1.4783 O   0  0  0  0  0  0  0  0  0  0  0  0
   65.1982   10.3133   -0.9299 C   0  0  0  0  0  0  0  0  0  0  0  0
   63.9370   10.9899   -1.0170 O   0  0  0  0  0  0  0  0  0  0  0  0
   65.7768   10.4281    0.4699 C   0  0  0  0  0  0  0  0  0  0  0  0
   70.0911   11.5763    2.9468 N   0  0  0  0  0  0  0  0  0  0  0  0
   68.7615    8.1180    1.4683 O   0  5  0  0  0  0  0  0  0  0  0  0
   68.5539    5.4020   -1.6179 O   0  5  0  0  0  0  0  0  0  0  0  0
   70.5319    3.4555   -1.6217 O   0  5  0  0  0  0  0  0  0  0  0  0
   69.0747   10.7263    3.3130 C   0  0  1  0  0  0  0  0  0  0  0  0
   69.2159   10.1088    4.4782 N   0  0  0  0  0  0  0  0  0  0  0  0
   68.5058    5.9699    2.8379 O   0  0  0  0  0  0  0  0  0  0  0  0
   69.3882    7.7620   -1.0848 O   0  0  0  0  0  0  0  0  0  0  0  0
   71.8529    4.4006    0.3558 O   0  0  0  0  0  0  0  0  0  0  0  0
   67.9899   10.5069    2.5742 N   0  0  0  0  0  0  0  0  0  0  0  0
   69.5507    5.9388    0.5911 O   0  0  0  0  0  0  0  0  0  0  0  0
   70.9832    5.8902   -1.4297 O   0  0  0  0  0  0  0  0  0  0  0  0
   72.8595    4.3198   -1.9359 O   0  0  0  0  0  0  0  0  0  0  0  0
   68.0047   11.2181    1.4233 C   0  0  2  0  0  0  0  0  0  0  0  0
   68.9835   12.0922    0.9787 C   0  0  2  0  0  0  0  0  0  0  0  0
   70.1317   12.3147    1.7777 C   0  0  1  0  0  0  0  0  0  0  0  0
   71.0758   13.0621    1.5592 O   0  0  0  0  0  0  0  0  0  0  0  0
   68.6376   12.6380   -0.2621 N   0  0  0  0  0  0  0  0  0  0  0  0
   67.4964   12.0713   -0.4823 C   0  0  0  0  0  0  0  0  0  0  0  0
   67.0284   11.2102    0.4554 N   0  0  0  0  0  0  0  0  0  0  0  0
  1  5  1  6  0  0  0
  1 14  1  0  0  0  0
  1 19  2  0  0  0  0
  2 15  1  6  0  0  0
  2 20  2  0  0  0  0
  2 23  1  0  0  0  0
  3 16  1  6  0  0  0
  3 21  2  0  0  0  0
  3 24  1  0  0  0  0
  3 25  1  0  0  0  0
  4  6  1  0  0  0  0
  5  4  1  0  0  0  0
  6  7  1  0  0  0  0
  6  8  2  0  0  0  0
  7 12  1  0  0  0  0
  8  9  1  0  0  0  0
  8 10  1  0  0  0  0
 10 11  1  0  0  0  0
 10 12  2  0  0  0  0
 12 32  1  0  0  0  0
 13 17  1  0  0  0  0
 17 18  1  1  0  0  0
 17 22  1  0  0  0  0
 23  1  1  0  0  0  0
 24  2  1  0  0  0  0
 26 22  1  1  0  0  0
 27 26  1  0  0  0  0
 27 28  1  0  0  0  0
 27 30  1  1  0  0  0
 28 13  1  0  0  0  0
 28 29  1  1  0  0  0
 31 30  1  0  0  0  0
 32 26  1  0  0  0  0
 32 31  1  0  0  0  0
M  CHG  3  14  -1  15  -1  16  -1
M  END
>  <CHROM.1>
32.60960050,-87.63269306,55.76851472,64.88894269,-105.99659197,-40.44535647
53.07299329,-62.19347897,68.56114581,8.22627039,0.32649078,-1.07564339,-0.32216330
0.43005157

>  <Name>
2au4_lig

>  <RI>
0

>  <Rbt.Current_Directory>
/home/itssahil/PROJECTS/Mol_Feturizer/New_Systems/rnas/2au4

>  <Rbt.Executable>
rbdock ($Id: //depot/dev/client3/rdock/2013.1/src/exe/rbdock.cxx#4 $)

>  <Rbt.Library>
libRbt.so (2013.1, Build901 2013/11/27)

>  <Rbt.Parameter_File>
/export/apps/rDock/src/rDock_2013.1_src/data/scripts/dock_solv.prm

>  <Rbt.Receptor>
prm/pocket_docking_3.prm

>  <SCORE>
-29.83

>  <SCORE.INTER>
-11.7374

>  <SCORE.INTER.CONST>
1

>  <SCORE.INTER.POLAR>
0

>  <SCORE.INTER.ROT>
8

>  <SCORE.INTER.SOLV>
29.8502

>  <SCORE.INTER.VDW>
-26.7083

>  <SCORE.INTER.norm>
-0.366794

>  <SCORE.INTRA>
-18.3202

>  <SCORE.INTRA.DIHEDRAL>
-41.2723

>  <SCORE.INTRA.DIHEDRAL.0>
76.3625

>  <SCORE.INTRA.POLAR>
0

>  <SCORE.INTRA.POLAR.0>
0

>  <SCORE.INTRA.REPUL>
0.0126609

>  <SCORE.INTRA.REPUL.0>
0.12705

>  <SCORE.INTRA.SOLV>
2.05952

>  <SCORE.INTRA.SOLV.lig_0>
-119.383

>  <SCORE.INTRA.VDW>
1.22288

>  <SCORE.INTRA.VDW.0>
-5.10464

>  <SCORE.INTRA.norm>
-0.572506

>  <SCORE.RESTR>
0.227621

>  <SCORE.RESTR.CAVITY>
0.227621

>  <SCORE.RESTR.norm>
0.00711316

>  <SCORE.SYSTEM>
0

>  <SCORE.SYSTEM.CONST>
0

>  <SCORE.SYSTEM.DIHEDRAL>
0

>  <SCORE.SYSTEM.SOLV>
0

>  <SCORE.SYSTEM.norm>
0

>  <SCORE.heavy>
32

>  <SCORE.norm>
-0.932187

>  <RMSD>
6.263

$$$$
2au4_lig
 OpenBabel11021811423D
libRbt.so/2013.1/901 2013/11/27
 32 34  0  0  0  0  0  0  0  0999 V2000
   66.2002    6.5782   -0.7328 P   0  0  1  0  0  0  0  0  0  0  0  0
   68.8722    6.4014   -0.2874 P   0  0  1  0  0  0  0  0  0  0  0  0
   69.4356    4.2741   -1.8992 P   0  0  2  0  0  0  0  0  0  0  0  0
   65.8457    8.3910    1.1694 C   0  0  0  0  0  0  0  0  0  0  0  0
   66.1672    8.0963   -0.2000 O   0  0  0  0  0  0  0  0  0  0  0  0
   65.4792    9.8529    1.3794 C   0  0  0  0  0  0  0  0  0  0  0  0
   66.5810   10.5725    1.9696 O   0  0  0  0  0  0  0  0  0  0  0  0
   65.1310   10.5161    0.0561 C   0  0  0  0  0  0  0  0  0  0  0  0
   63.7624   10.9401    0.0402 O   0  0  0  0  0  0  0  0  0  0  0  0
   66.0656   11.6929   -0.0929 C   0  0  0  0  0  0  0  0  0  0  0  0
   65.3373   12.9218   -0.2175 O   0  0  0  0  0  0  0  0  0  0  0  0
   66.9380   11.7061    1.1505 C   0  0  0  0  0  0  0  0  0  0  0  0
   71.6361   10.2934    2.5641 N   0  0  0  0  0  0  0  0  0  0  0  0
   64.9561    5.9038   -0.3107 O   0  5  0  0  0  0  0  0  0  0  0  0
   68.8968    7.8743   -0.3757 O   0  5  0  0  0  0  0  0  0  0  0  0
   68.4606    3.4799   -1.1247 O   0  5  0  0  0  0  0  0  0  0  0  0
   70.4441   10.1523    3.2340 C   0  0  1  0  0  0  0  0  0  0  0  0
   70.5041    9.5706    4.4244 N   0  0  0  0  0  0  0  0  0  0  0  0
   66.5914    6.5868   -2.1587 O   0  0  0  0  0  0  0  0  0  0  0  0
   69.8159    5.6963    0.6048 O   0  0  0  0  0  0  0  0  0  0  0  0
   70.8812    4.1465   -1.6199 O   0  0  0  0  0  0  0  0  0  0  0  0
   69.2724   10.5642    2.7563 N   0  0  0  0  0  0  0  0  0  0  0  0
   67.4003    5.9508    0.0957 O   0  0  0  0  0  0  0  0  0  0  0  0
   69.0440    5.8109   -1.7527 O   0  0  0  0  0  0  0  0  0  0  0  0
   69.1917    3.9947   -3.4622 O   0  0  0  0  0  0  0  0  0  0  0  0
   69.3924   11.1376    1.5368 C   0  0  2  0  0  0  0  0  0  0  0  0
   70.5483   11.3189    0.7946 C   0  0  2  0  0  0  0  0  0  0  0  0
   71.7873   10.8750    1.3181 C   0  0  1  0  0  0  0  0  0  0  0  0
   72.9008   10.9721    0.8198 O   0  0  0  0  0  0  0  0  0  0  0  0
   70.2661   11.9537   -0.4197 N   0  0  0  0  0  0  0  0  0  0  0  0
   68.9856   12.1124   -0.3345 C   0  0  0  0  0  0  0  0  0  0  0  0
   68.3676   11.6634    0.7862 N   0  0  0  0  0  0  0  0  0  0  0  0
  1  5  1  1  0  0  0
  1 14  1  0  0  0  0
  1 19  2  0  0  0  0
  2 15  1  1  0  0  0
  2 20  2  0  0  0  0
  2 23  1  0  0  0  0
  3 16  1  1  0  0  0
  3 21  2  0  0  0  0
  3 24  1  0  0  0  0
  3 25  1  0  0  0  0
  4  6  1  0  0  0  0
  5  4  1  0  0  0  0
  6  7  1  0  0  0  0
  6  8  2  0  0  0  0
  7 12  1  0  0  0  0
  8  9  1  0  0  0  0
  8 10  1  0  0  0  0
 10 11  1  0  0  0  0
 10 12  2  0  0  0  0
 12 32  1  0  0  0  0
 13 17  1  0  0  0  0
 17 18  1  1  0  0  0
 17 22  1  0  0  0  0
 23  1  1  0  0  0  0
 24  2  1  0  0  0  0
 26 22  1  1  0  0  0
 27 26  1  0  0  0  0
 27 28  1  0  0  0  0
 27 30  1  1  0  0  0
 28 13  1  0  0  0  0
 28 29  1  1  0  0  0
 31 30  1  0  0  0  0
 32 26  1  0  0  0  0
 32 31  1  0  0  0  0
M  CHG  3  14  -1  15  -1  16  -1
M  END
>  <CHROM.1>
49.24337265,48.44955433,53.45873294,-102.46973944,-163.59037620,-31.31530769
-71.90751953,164.08230997,68.27090446,8.38231963,0.11531835,1.56272013,0.18522813
-2.74243267

>  <Name>
2au4_lig

>  <RI>
0

>  <Rbt.Current_Directory>
/home/itssahil/PROJECTS/Mol_Feturizer/New_Systems/rnas/2au4

>  <Rbt.Executable>
rbdock ($Id: //depot/dev/client3/rdock/2013.1/src/exe/rbdock.cxx#4 $)

>  <Rbt.Library>
libRbt.so (2013.1, Build901 2013/11/27)

>  <Rbt.Parameter_File>
/export/apps/rDock/src/rDock_2013.1_src/data/scripts/dock_solv.prm

>  <Rbt.Receptor>
prm/pocket_docking_3.prm

>  <SCORE>
-31.8252

>  <SCORE.INTER>
-8.06517

>  <SCORE.INTER.CONST>
1

>  <SCORE.INTER.POLAR>
-0.867699

>  <SCORE.INTER.ROT>
8

>  <SCORE.INTER.SOLV>
34.0905

>  <SCORE.INTER.VDW>
-22.7813

>  <SCORE.INTER.norm>
-0.252037

>  <SCORE.INTRA>
-24.2028

>  <SCORE.INTRA.DIHEDRAL>
-48.7851

>  <SCORE.INTRA.DIHEDRAL.0>
76.3625

>  <SCORE.INTRA.POLAR>
0

>  <SCORE.INTRA.POLAR.0>
0

>  <SCORE.INTRA.REPUL>
0.0596199

>  <SCORE.INTRA.REPUL.0>
0.12705

>  <SCORE.INTRA.SOLV>
-1.69673

>  <SCORE.INTRA.SOLV.lig_0>
-119.383

>  <SCORE.INTRA.VDW>
0.740037

>  <SCORE.INTRA.VDW.0>
-5.10464

>  <SCORE.INTRA.norm>
-0.756337

>  <SCORE.RESTR>
0.442726

>  <SCORE.RESTR.CAVITY>
0.442726

>  <SCORE.RESTR.norm>
0.0138352

>  <SCORE.SYSTEM>
0

>  <SCORE.SYSTEM.CONST>
0

>  <SCORE.SYSTEM.DIHEDRAL>
0

>  <SCORE.SYSTEM.SOLV>
0

>  <SCORE.SYSTEM.norm>
0

>  <SCORE.heavy>
32

>  <SCORE.norm>
-0.994538

>  <RMSD>
6.267

$$$$
2au4_lig
 OpenBabel11021811423D
libRbt.so/2013.1/901 2013/11/27
 32 34  0  0  0  0  0  0  0  0999 V2000
   68.1797   12.7730    0.5359 P   0  0  1  0  0  0  0  0  0  0  0  0
   70.8245   12.5894    1.1196 P   0  0  1  0  0  0  0  0  0  0  0  0
   73.3572   11.6848    1.5758 P   0  0  2  0  0  0  0  0  0  0  0  0
   65.6746   12.0863    0.0033 C   0  0  0  0  0  0  0  0  0  0  0  0
   66.9834   11.6998    0.4544 O   0  0  0  0  0  0  0  0  0  0  0  0
   64.5659   11.3192    0.7088 C   0  0  0  0  0  0  0  0  0  0  0  0
   65.0772   10.0959    1.2766 O   0  0  0  0  0  0  0  0  0  0  0  0
   63.9656   12.1512    1.8313 C   0  0  0  0  0  0  0  0  0  0  0  0
   62.5878   12.4451    1.5703 O   0  0  0  0  0  0  0  0  0  0  0  0
   64.1174   11.3391    3.0954 C   0  0  0  0  0  0  0  0  0  0  0  0
   62.8446   11.0826    3.7038 O   0  0  0  0  0  0  0  0  0  0  0  0
   64.7939   10.0407    2.6908 C   0  0  0  0  0  0  0  0  0  0  0  0
   69.4622    7.9747    2.7614 N   0  0  0  0  0  0  0  0  0  0  0  0
   68.4217   13.3121   -0.8174 O   0  5  0  0  0  0  0  0  0  0  0  0
   71.1933   13.2267   -0.1595 O   0  5  0  0  0  0  0  0  0  0  0  0
   74.0670   10.4001    1.7400 O   0  5  0  0  0  0  0  0  0  0  0  0
   68.5143    7.9546    1.7661 C   0  0  1  0  0  0  0  0  0  0  0  0
   68.8404    7.3050    0.6567 N   0  0  0  0  0  0  0  0  0  0  0  0
   67.9133   13.6921    1.6631 O   0  0  0  0  0  0  0  0  0  0  0  0
   70.7652   13.3929    2.3582 O   0  0  0  0  0  0  0  0  0  0  0  0
   73.4716   12.7306    2.6137 O   0  0  0  0  0  0  0  0  0  0  0  0
   67.3219    8.5367    1.8666 N   0  0  0  0  0  0  0  0  0  0  0  0
   69.4238   11.8692    0.9305 O   0  0  0  0  0  0  0  0  0  0  0  0
   71.8098   11.3681    1.3705 O   0  0  0  0  0  0  0  0  0  0  0  0
   73.7782   12.3212    0.1621 O   0  0  0  0  0  0  0  0  0  0  0  0
   67.1525    9.1485    3.0614 C   0  0  2  0  0  0  0  0  0  0  0  0
   68.0507    9.2172    4.1142 C   0  0  2  0  0  0  0  0  0  0  0  0
   69.3155    8.5917    3.9908 C   0  0  1  0  0  0  0  0  0  0  0  0
   70.2156    8.5290    4.8175 O   0  0  0  0  0  0  0  0  0  0  0  0
   67.5098    9.9382    5.1842 N   0  0  0  0  0  0  0  0  0  0  0  0
   66.3445   10.2512    4.7193 C   0  0  0  0  0  0  0  0  0  0  0  0
   66.0309    9.8316    3.4681 N   0  0  0  0  0  0  0  0  0  0  0  0
  1  5  1  6  0  0  0
  1 14  1  0  0  0  0
  1 19  2  0  0  0  0
  2 15  1  6  0  0  0
  2 20  2  0  0  0  0
  2 23  1  0  0  0  0
  3 16  1  1  0  0  0
  3 21  2  0  0  0  0
  3 24  1  0  0  0  0
  3 25  1  0  0  0  0
  4  6  1  0  0  0  0
  5  4  1  0  0  0  0
  6  7  1  0  0  0  0
  6  8  2  0  0  0  0
  7 12  1  0  0  0  0
  8  9  1  0  0  0  0
  8 10  1  0  0  0  0
 10 11  1  0  0  0  0
 10 12  2  0  0  0  0
 12 32  1  0  0  0  0
 13 17  1  0  0  0  0
 17 18  1  1  0  0  0
 17 22  1  0  0  0  0
 23  1  1  0  0  0  0
 24  2  1  0  0  0  0
 26 22  1  1  0  0  0
 27 26  1  0  0  0  0
 27 28  1  0  0  0  0
 27 30  1  1  0  0  0
 28 13  1  0  0  0  0
 28 29  1  1  0  0  0
 31 30  1  0  0  0  0
 32 26  1  0  0  0  0
 32 31  1  0  0  0  0
M  CHG  3  14  -1  15  -1  16  -1
M  END
>  <CHROM.1>
-60.51485624,-60.79873934,-177.95753277,-20.72510152,-146.08989607,-30.54599251
-179.55479694,64.22927031,68.57246814,11.11019104,1.89634381,2.96453563,-0.03036126
2.52147252

>  <Name>
2au4_lig

>  <RI>
0

>  <Rbt.Current_Directory>
/home/itssahil/PROJECTS/Mol_Feturizer/New_Systems/rnas/2au4

>  <Rbt.Executable>
rbdock ($Id: //depot/dev/client3/rdock/2013.1/src/exe/rbdock.cxx#4 $)

>  <Rbt.Library>
libRbt.so (2013.1, Build901 2013/11/27)

>  <Rbt.Parameter_File>
/export/apps/rDock/src/rDock_2013.1_src/data/scripts/dock_solv.prm

>  <Rbt.Receptor>
prm/pocket_docking_6.prm

>  <SCORE>
-40.3448

>  <SCORE.INTER>
-14.8003

>  <SCORE.INTER.CONST>
1

>  <SCORE.INTER.POLAR>
-2.83798

>  <SCORE.INTER.ROT>
8

>  <SCORE.INTER.SOLV>
22.6869

>  <SCORE.INTER.VDW>
-16.9026

>  <SCORE.INTER.norm>
-0.46251

>  <SCORE.INTRA>
-25.5444

>  <SCORE.INTRA.DIHEDRAL>
-46.791

>  <SCORE.INTRA.DIHEDRAL.0>
76.3625

>  <SCORE.INTRA.POLAR>
0

>  <SCORE.INTRA.POLAR.0>
0

>  <SCORE.INTRA.REPUL>
0.0622101

>  <SCORE.INTRA.REPUL.0>
0.12705

>  <SCORE.INTRA.SOLV>
-5.03384

>  <SCORE.INTRA.SOLV.lig_0>
-119.383

>  <SCORE.INTRA.VDW>
0.0569186

>  <SCORE.INTRA.VDW.0>
-5.10464

>  <SCORE.INTRA.norm>
-0.798263

>  <SCORE.RESTR>
0

>  <SCORE.RESTR.CAVITY>
0

>  <SCORE.RESTR.norm>
0

>  <SCORE.SYSTEM>
0

>  <SCORE.SYSTEM.CONST>
0

>  <SCORE.SYSTEM.DIHEDRAL>
0

>  <SCORE.SYSTEM.SOLV>
0

>  <SCORE.SYSTEM.norm>
0

>  <SCORE.heavy>
32

>  <SCORE.norm>
-1.26077

>  <RMSD>
6.271

$$$$
2au4_lig
 OpenBabel11021811423D
libRbt.so/2013.1/901 2013/11/27
 32 34  0  0  0  0  0  0  0  0999 V2000
   65.4755    6.4212   -1.3396 P   0  0  1  0  0  0  0  0  0  0  0  0
   68.1405    6.5867   -0.8495 P   0  0  1  0  0  0  0  0  0  0  0  0
   69.2370    4.5076   -2.2334 P   0  0  2  0  0  0  0  0  0  0  0  0
   64.3550    8.6211   -0.3724 C   0  0  0  0  0  0  0  0  0  0  0  0
   65.4742    7.9995   -1.0256 O   0  0  0  0  0  0  0  0  0  0  0  0
   64.5815   10.1036   -0.1150 C   0  0  0  0  0  0  0  0  0  0  0  0
   64.7408   10.3551    1.2963 O   0  0  0  0  0  0  0  0  0  0  0  0
   65.8327   10.5893   -0.8298 C   0  0  0  0  0  0  0  0  0  0  0  0
   65.5068   11.5661   -1.8261 O   0  0  0  0  0  0  0  0  0  0  0  0
   66.7327   11.1757    0.2315 C   0  0  0  0  0  0  0  0  0  0  0  0
   67.0286   12.5520   -0.0411 O   0  0  0  0  0  0  0  0  0  0  0  0
   65.9893   11.0341    1.5485 C   0  0  0  0  0  0  0  0  0  0  0  0
   70.6965    9.7559    3.0566 N   0  0  0  0  0  0  0  0  0  0  0  0
   65.2864    5.6886   -0.0714 O   0  5  0  0  0  0  0  0  0  0  0  0
   68.2907    8.0539   -0.9032 O   0  5  0  0  0  0  0  0  0  0  0  0
   68.7065    4.7286   -3.5939 O   0  5  0  0  0  0  0  0  0  0  0  0
   70.3021   10.5357    1.9955 C   0  0  1  0  0  0  0  0  0  0  0  0
   71.2714   11.0338    1.2397 N   0  0  0  0  0  0  0  0  0  0  0  0
   64.5744    6.1668   -2.4839 O   0  0  0  0  0  0  0  0  0  0  0  0
   67.9197    5.9111    0.4460 O   0  0  0  0  0  0  0  0  0  0  0  0
   68.5128    3.6291   -1.2911 O   0  0  0  0  0  0  0  0  0  0  0  0
   69.0313   10.8001    1.7024 N   0  0  0  0  0  0  0  0  0  0  0  0
   66.9646    6.1712   -1.8299 O   0  0  0  0  0  0  0  0  0  0  0  0
   69.4130    5.9296   -1.5380 O   0  0  0  0  0  0  0  0  0  0  0  0
   70.7510    3.9848   -2.3569 O   0  0  0  0  0  0  0  0  0  0  0  0
   68.1752   10.2116    2.5692 C   0  0  2  0  0  0  0  0  0  0  0  0
   68.4860    9.4149    3.6594 C   0  0  2  0  0  0  0  0  0  0  0  0
   69.8438    9.1430    3.9571 C   0  0  1  0  0  0  0  0  0  0  0  0
   70.3000    8.4480    4.8552 O   0  0  0  0  0  0  0  0  0  0  0  0
   67.3244    8.9902    4.3132 N   0  0  0  0  0  0  0  0  0  0  0  0
   66.4064    9.5451    3.5912 C   0  0  0  0  0  0  0  0  0  0  0  0
   66.8033   10.2921    2.5309 N   0  0  0  0  0  0  0  0  0  0  0  0
  1  5  1  1  0  0  0
  1 14  1  0  0  0  0
  1 19  2  0  0  0  0
  2 15  1  1  0  0  0
  2 20  2  0  0  0  0
  2 23  1  0  0  0  0
  3 16  1  6  0  0  0
  3 21  2  0  0  0  0
  3 24  1  0  0  0  0
  3 25  1  0  0  0  0
  4  6  1  0  0  0  0
  5  4  1  0  0  0  0
  6  7  1  0  0  0  0
  6  8  2  0  0  0  0
  7 12  1  0  0  0  0
  8  9  1  0  0  0  0
  8 10  1  0  0  0  0
 10 11  1  0  0  0  0
 10 12  2  0  0  0  0
 12 32  1  0  0  0  0
 13 17  1  0  0  0  0
 17 18  1  6  0  0  0
 17 22  1  0  0  0  0
 23  1  1  0  0  0  0
 24  2  1  0  0  0  0
 26 22  1  6  0  0  0
 27 26  1  0  0  0  0
 27 28  1  0  0  0  0
 27 30  1  6  0  0  0
 28 13  1  0  0  0  0
 28 29  1  6  0  0  0
 31 30  1  0  0  0  0
 32 26  1  0  0  0  0
 32 31  1  0  0  0  0
M  CHG  3  14  -1  15  -1  16  -1
M  END
>  <CHROM.1>
-57.30850113,-76.60211943,83.48332972,-110.26481326,177.45302643,146.88594621
56.57444945,-151.34707712,67.57765134,8.06761823,0.17637059,1.56266162,0.49312576
-2.45588070

>  <Name>
2au4_lig

>  <RI>
0

>  <Rbt.Current_Directory>
/home/itssahil/PROJECTS/Mol_Feturizer/New_Systems/rnas/2au4

>  <Rbt.Executable>
rbdock ($Id: //depot/dev/client3/rdock/2013.1/src/exe/rbdock.cxx#4 $)

>  <Rbt.Library>
libRbt.so (2013.1, Build901 2013/11/27)

>  <Rbt.Parameter_File>
/export/apps/rDock/src/rDock_2013.1_src/data/scripts/dock_solv.prm

>  <Rbt.Receptor>
prm/pocket_docking_3.prm

>  <SCORE>
-37.2363

>  <SCORE.INTER>
-12.0054

>  <SCORE.INTER.CONST>
1

>  <SCORE.INTER.POLAR>
-0.984974

>  <SCORE.INTER.ROT>
8

>  <SCORE.INTER.SOLV>
33.3946

>  <SCORE.INTER.VDW>
-24.7852

>  <SCORE.INTER.norm>
-0.375168

>  <SCORE.INTRA>
-25.8042

>  <SCORE.INTRA.DIHEDRAL>
-49.5981

>  <SCORE.INTRA.DIHEDRAL.0>
76.3625

>  <SCORE.INTRA.POLAR>
0

>  <SCORE.INTRA.POLAR.0>
0

>  <SCORE.INTRA.REPUL>
-0.12705

>  <SCORE.INTRA.REPUL.0>
0.12705

>  <SCORE.INTRA.SOLV>
-2.53104

>  <SCORE.INTRA.SOLV.lig_0>
-119.383

>  <SCORE.INTRA.VDW>
0.895676

>  <SCORE.INTRA.VDW.0>
-5.10464

>  <SCORE.INTRA.norm>
-0.80638

>  <SCORE.RESTR>
0.573287

>  <SCORE.RESTR.CAVITY>
0.573287

>  <SCORE.RESTR.norm>
0.0179152

>  <SCORE.SYSTEM>
0

>  <SCORE.SYSTEM.CONST>
0

>  <SCORE.SYSTEM.DIHEDRAL>
0

>  <SCORE.SYSTEM.SOLV>
0

>  <SCORE.SYSTEM.norm>
0

>  <SCORE.heavy>
32

>  <SCORE.norm>
-1.16363

>  <RMSD>
6.275

$$$$
2au4_lig
 OpenBabel11021811423D
libRbt.so/2013.1/901 2013/11/27
 32 34  0  0  0  0  0  0  0  0999 V2000
   69.2750   11.9374    0.1782 P   0  0  1  0  0  0  0  0  0  0  0  0
   70.4829   13.2025    2.2542 P   0  0  1  0  0  0  0  0  0  0  0  0
   71.9442   13.2037    4.5575 P   0  0  2  0  0  0  0  0  0  0  0  0
   67.3585   10.8692   -1.3105 C   0  0  0  0  0  0  0  0  0  0  0  0
   67.8115   11.2970   -0.0154 O   0  0  0  0  0  0  0  0  0  0  0  0
   65.9973   10.1911   -1.2561 C   0  0  0  0  0  0  0  0  0  0  0  0
   65.8959    9.3495   -0.0893 O   0  0  0  0  0  0  0  0  0  0  0  0
   64.8831   11.2244   -1.1968 C   0  0  0  0  0  0  0  0  0  0  0  0
   64.0526   11.1494   -2.3619 O   0  0  0  0  0  0  0  0  0  0  0  0
   64.0909   10.9293    0.0545 C   0  0  0  0  0  0  0  0  0  0  0  0
   62.7166   10.6589   -0.2527 O   0  0  0  0  0  0  0  0  0  0  0  0
   64.7471    9.7218    0.7013 C   0  0  0  0  0  0  0  0  0  0  0  0
   68.1848    8.9606    4.3986 N   0  0  0  0  0  0  0  0  0  0  0  0
   70.2837   10.8806   -0.0372 O   0  5  0  0  0  0  0  0  0  0  0  0
   71.6509   12.9759    1.3810 O   0  5  0  0  0  0  0  0  0  0  0  0
   73.1228   13.4040    3.6903 O   0  5  0  0  0  0  0  0  0  0  0  0
   68.1571    8.4634    3.1173 C   0  0  1  0  0  0  0  0  0  0  0  0
   69.1588    7.6644    2.7751 N   0  0  0  0  0  0  0  0  0  0  0  0
   69.3450   13.1969   -0.5932 O   0  0  0  0  0  0  0  0  0  0  0  0
   69.9763   14.5731    2.4739 O   0  0  0  0  0  0  0  0  0  0  0  0
   72.0653   12.4086    5.7974 O   0  0  0  0  0  0  0  0  0  0  0  0
   67.1980    8.7378    2.2366 N   0  0  0  0  0  0  0  0  0  0  0  0
   69.2832   12.3122    1.7208 O   0  0  0  0  0  0  0  0  0  0  0  0
   70.7884   12.5562    3.6735 O   0  0  0  0  0  0  0  0  0  0  0  0
   71.3381   14.6434    4.9322 O   0  0  0  0  0  0  0  0  0  0  0  0
   66.2551    9.5612    2.7500 C   0  0  2  0  0  0  0  0  0  0  0  0
   66.2064   10.1057    4.0231 C   0  0  2  0  0  0  0  0  0  0  0  0
   67.2352    9.8030    4.9485 C   0  0  1  0  0  0  0  0  0  0  0  0
   67.3429   10.1695    6.1110 O   0  0  0  0  0  0  0  0  0  0  0  0
   65.0714   10.9087    4.1783 N   0  0  0  0  0  0  0  0  0  0  0  0
   64.5189   10.7994    3.0143 C   0  0  0  0  0  0  0  0  0  0  0  0
   65.1397   10.0227    2.0919 N   0  0  0  0  0  0  0  0  0  0  0  0
  1  5  1  6  0  0  0
  1 14  1  0  0  0  0
  1 19  2  0  0  0  0
  2 15  1  6  0  0  0
  2 20  2  0  0  0  0
  2 23  1  0  0  0  0
  3 16  1  6  0  0  0
  3 21  2  0  0  0  0
  3 24  1  0  0  0  0
  3 25  1  0  0  0  0
  4  6  1  0  0  0  0
  5  4  1  0  0  0  0
  6  7  1  0  0  0  0
  6  8  2  0  0  0  0
  7 12  1  0  0  0  0
  8  9  1  0  0  0  0
  8 10  1  0  0  0  0
 10 11  1  0  0  0  0
 10 12  2  0  0  0  0
 12 32  1  0  0  0  0
 13 17  1  0  0  0  0
 17 18  1  1  0  0  0
 17 22  1  0  0  0  0
 23  1  1  0  0  0  0
 24  2  1  0  0  0  0
 26 22  1  1  0  0  0
 27 26  1  0  0  0  0
 27 28  1  0  0  0  0
 27 30  1  1  0  0  0
 28 13  1  0  0  0  0
 28 29  1  1  0  0  0
 31 30  1  0  0  0  0
 32 26  1  0  0  0  0
 32 31  1  0  0  0  0
M  CHG  3  14  -1  15  -1  16  -1
M  END
>  <CHROM.1>
-68.88768519,-26.64495902,-47.14981959,-39.46681891,175.31756405,-24.01040329
-169.80524007,66.74023037,68.24172191,11.36092655,2.04944467,-0.31456212
-0.52754385,-1.25137034

>  <Name>
2au4_lig

>  <RI>
0

>  <Rbt.Current_Directory>
/home/itssahil/PROJECTS/Mol_Feturizer/New_Systems/rnas/2au4

>  <Rbt.Executable>
rbdock ($Id: //depot/dev/client3/rdock/2013.1/src/exe/rbdock.cxx#4 $)

>  <Rbt.Library>
libRbt.so (2013.1, Build901 2013/11/27)

>  <Rbt.Parameter_File>
/export/apps/rDock/src/rDock_2013.1_src/data/scripts/dock_solv.prm

>  <Rbt.Receptor>
prm/pocket_docking_6.prm

>  <SCORE>
-40.6849

>  <SCORE.INTER>
-14.6887

>  <SCORE.INTER.CONST>
1

>  <SCORE.INTER.POLAR>
-2.83926

>  <SCORE.INTER.ROT>
8

>  <SCORE.INTER.SOLV>
20.1591

>  <SCORE.INTER.VDW>
-15.9813

>  <SCORE.INTER.norm>
-0.459021

>  <SCORE.INTRA>
-25.9962

>  <SCORE.INTRA.DIHEDRAL>
-48.4711

>  <SCORE.INTRA.DIHEDRAL.0>
76.3625

>  <SCORE.INTRA.POLAR>
0

>  <SCORE.INTRA.POLAR.0>
0

>  <SCORE.INTRA.REPUL>
0.0714196

>  <SCORE.INTRA.REPUL.0>
0.12705

>  <SCORE.INTRA.SOLV>
-5.11242

>  <SCORE.INTRA.SOLV.lig_0>
-119.383

>  <SCORE.INTRA.VDW>
0.43843

>  <SCORE.INTRA.VDW.0>
-5.10464

>  <SCORE.INTRA.norm>
-0.812382

>  <SCORE.RESTR>
0

>  <SCORE.RESTR.CAVITY>
0

>  <SCORE.RESTR.norm>
0

>  <SCORE.SYSTEM>
0

>  <SCORE.SYSTEM.CONST>
0

>  <SCORE.SYSTEM.DIHEDRAL>
0

>  <SCORE.SYSTEM.SOLV>
0

>  <SCORE.SYSTEM.norm>
0

>  <SCORE.heavy>
32

>  <SCORE.norm>
-1.2714

>  <RMSD>
6.308

$$$$
2au4_lig
 OpenBabel11021811423D
libRbt.so/2013.1/901 2013/11/27
 32 34  0  0  0  0  0  0  0  0999 V2000
   70.8902   11.8565    3.7157 P   0  0  1  0  0  0  0  0  0  0  0  0
   73.2695   11.6703    2.4220 P   0  0  1  0  0  0  0  0  0  0  0  0
   73.2593   12.3459   -0.2208 P   0  0  2  0  0  0  0  0  0  0  0  0
   69.6865    9.4943    3.6726 C   0  0  0  0  0  0  0  0  0  0  0  0
   69.5768   10.9273    3.6846 O   0  0  0  0  0  0  0  0  0  0  0  0
   68.3571    8.8113    3.3870 C   0  0  0  0  0  0  0  0  0  0  0  0
   67.5679    9.5992    2.4724 O   0  0  0  0  0  0  0  0  0  0  0  0
   68.5784    7.4406    2.7667 C   0  0  0  0  0  0  0  0  0  0  0  0
   68.0854    6.4045    3.6248 O   0  0  0  0  0  0  0  0  0  0  0  0
   67.8473    7.4447    1.4454 C   0  0  0  0  0  0  0  0  0  0  0  0
   66.8584    6.4075    1.3958 O   0  0  0  0  0  0  0  0  0  0  0  0
   67.2009    8.8134    1.3187 C   0  0  0  0  0  0  0  0  0  0  0  0
   67.8439   13.2558   -1.1141 N   0  0  0  0  0  0  0  0  0  0  0  0
   70.6430   13.0494    2.8812 O   0  5  0  0  0  0  0  0  0  0  0  0
   73.7938   12.5541    3.4812 O   0  5  0  0  0  0  0  0  0  0  0  0
   74.7180   12.5755   -0.1933 O   0  5  0  0  0  0  0  0  0  0  0  0
   67.3826   13.0169    0.1587 C   0  0  1  0  0  0  0  0  0  0  0  0
   67.0469   14.0834    0.8721 N   0  0  0  0  0  0  0  0  0  0  0  0
   71.3254   12.0118    5.1203 O   0  0  0  0  0  0  0  0  0  0  0  0
   74.1395   10.6394    1.8187 O   0  0  0  0  0  0  0  0  0  0  0  0
   72.4082   13.1096   -1.1569 O   0  0  0  0  0  0  0  0  0  0  0  0
   67.2595   11.8015    0.6862 N   0  0  0  0  0  0  0  0  0  0  0  0
   71.9647   10.9551    2.9719 O   0  0  0  0  0  0  0  0  0  0  0  0
   72.6977   12.5799    1.2511 O   0  0  0  0  0  0  0  0  0  0  0  0
   72.9957   10.7786   -0.4547 O   0  0  0  0  0  0  0  0  0  0  0  0
   67.6400   10.8308   -0.1760 C   0  0  2  0  0  0  0  0  0  0  0  0
   68.1144   10.9827   -1.4690 C   0  0  2  0  0  0  0  0  0  0  0  0
   68.2389   12.2835   -2.0153 C   0  0  1  0  0  0  0  0  0  0  0  0
   68.6124   12.6041   -3.1357 O   0  0  0  0  0  0  0  0  0  0  0  0
   68.4019    9.7398   -2.0432 N   0  0  0  0  0  0  0  0  0  0  0  0
   68.0888    8.9344   -1.0814 C   0  0  0  0  0  0  0  0  0  0  0  0
   67.6257    9.4785    0.0715 N   0  0  0  0  0  0  0  0  0  0  0  0
  1  5  1  1  0  0  0
  1 14  1  0  0  0  0
  1 19  2  0  0  0  0
  2 15  1  1  0  0  0
  2 20  2  0  0  0  0
  2 23  1  0  0  0  0
  3 16  1  6  0  0  0
  3 21  2  0  0  0  0
  3 24  1  0  0  0  0
  3 25  1  0  0  0  0
  4  6  1  0  0  0  0
  5  4  1  0  0  0  0
  6  7  1  0  0  0  0
  6  8  2  0  0  0  0
  7 12  1  0  0  0  0
  8  9  1  0  0  0  0
  8 10  1  0  0  0  0
 10 11  1  0  0  0  0
 10 12  2  0  0  0  0
 12 32  1  0  0  0  0
 13 17  1  0  0  0  0
 17 18  1  6  0  0  0
 17 22  1  0  0  0  0
 23  1  1  0  0  0  0
 24  2  1  0  0  0  0
 26 22  1  6  0  0  0
 27 26  1  0  0  0  0
 27 28  1  0  0  0  0
 27 30  1  6  0  0  0
 28 13  1  0  0  0  0
 28 29  1  6  0  0  0
 31 30  1  0  0  0  0
 32 26  1  0  0  0  0
 32 31  1  0  0  0  0
M  CHG  3  14  -1  15  -1  16  -1
M  END
>  <CHROM.1>
143.03289551,46.33494916,-59.59376057,34.15243391,-169.48771291,-35.69561722
162.45152012,124.81739349,70.13710875,10.98369670,1.24225362,-0.15933419
0.47922279,2.13514498

>  <Name>
2au4_lig

>  <RI>
0

>  <Rbt.Current_Directory>
/home/itssahil/PROJECTS/Mol_Feturizer/New_Systems/rnas/2au4

>  <Rbt.Executable>
rbdock ($Id: //depot/dev/client3/rdock/2013.1/src/exe/rbdock.cxx#4 $)

>  <Rbt.Library>
libRbt.so (2013.1, Build901 2013/11/27)

>  <Rbt.Parameter_File>
/export/apps/rDock/src/rDock_2013.1_src/data/scripts/dock_solv.prm

>  <Rbt.Receptor>
prm/pocket_docking_5.prm

>  <SCORE>
-37.5351

>  <SCORE.INTER>
-14.4468

>  <SCORE.INTER.CONST>
1

>  <SCORE.INTER.POLAR>
-1.54137

>  <SCORE.INTER.ROT>
8

>  <SCORE.INTER.SOLV>
23.6896

>  <SCORE.INTER.VDW>
-21.3232

>  <SCORE.INTER.norm>
-0.451462

>  <SCORE.INTRA>
-23.1076

>  <SCORE.INTRA.DIHEDRAL>
-45.8764

>  <SCORE.INTRA.DIHEDRAL.0>
76.3625

>  <SCORE.INTRA.POLAR>
0

>  <SCORE.INTRA.POLAR.0>
0

>  <SCORE.INTRA.REPUL>
0.06639

>  <SCORE.INTRA.REPUL.0>
0.12705

>  <SCORE.INTRA.SOLV>
-5.60117

>  <SCORE.INTRA.SOLV.lig_0>
-119.383

>  <SCORE.INTRA.VDW>
2.29927

>  <SCORE.INTRA.VDW.0>
-5.10464

>  <SCORE.INTRA.norm>
-0.722112

>  <SCORE.RESTR>
0.0192637

>  <SCORE.RESTR.CAVITY>
0.0192637

>  <SCORE.RESTR.norm>
0.00060199

>  <SCORE.SYSTEM>
0

>  <SCORE.SYSTEM.CONST>
0

>  <SCORE.SYSTEM.DIHEDRAL>
0

>  <SCORE.SYSTEM.SOLV>
0

>  <SCORE.SYSTEM.norm>
0

>  <SCORE.heavy>
32

>  <SCORE.norm>
-1.17297

>  <RMSD>
6.313

$$$$
2au4_lig
 OpenBabel11021811423D
libRbt.so/2013.1/901 2013/11/27
 32 34  0  0  0  0  0  0  0  0999 V2000
   68.6387   12.4901    0.0786 P   0  0  1  0  0  0  0  0  0  0  0  0
   71.0126   12.9763    1.3024 P   0  0  1  0  0  0  0  0  0  0  0  0
   73.2444   11.6849    2.1924 P   0  0  2  0  0  0  0  0  0  0  0  0
   69.5210    9.9925    0.1972 C   0  0  0  0  0  0  0  0  0  0  0  0
   68.6922   11.0286    0.7498 O   0  0  0  0  0  0  0  0  0  0  0  0
   69.2723    8.6395    0.8476 C   0  0  0  0  0  0  0  0  0  0  0  0
   69.3208    8.7507    2.2848 O   0  0  0  0  0  0  0  0  0  0  0  0
   67.9061    8.0974    0.4574 C   0  0  0  0  0  0  0  0  0  0  0  0
   68.0323    6.8856   -0.2965 O   0  0  0  0  0  0  0  0  0  0  0  0
   67.1552    7.8596    1.7457 C   0  0  0  0  0  0  0  0  0  0  0  0
   66.7611    6.4866    1.8712 O   0  0  0  0  0  0  0  0  0  0  0  0
   68.0975    8.2556    2.8693 C   0  0  0  0  0  0  0  0  0  0  0  0
   68.8883   12.0125    6.2348 N   0  0  0  0  0  0  0  0  0  0  0  0
   68.0956   12.3608   -1.2885 O   0  5  0  0  0  0  0  0  0  0  0  0
   71.8069   14.2192    1.2537 O   0  5  0  0  0  0  0  0  0  0  0  0
   72.7180   11.4337    3.5492 O   0  5  0  0  0  0  0  0  0  0  0  0
   69.8017   11.2166    5.5853 C   0  0  1  0  0  0  0  0  0  0  0  0
   71.0790   11.4397    5.8640 N   0  0  0  0  0  0  0  0  0  0  0  0
   68.0162   13.4275    1.0378 O   0  0  0  0  0  0  0  0  0  0  0  0
   70.0980   12.7248    2.4354 O   0  0  0  0  0  0  0  0  0  0  0  0
   74.0924   12.8677    1.9355 O   0  0  0  0  0  0  0  0  0  0  0  0
   69.4694   10.2614    4.7204 N   0  0  0  0  0  0  0  0  0  0  0  0
   70.1759   12.8681   -0.0410 O   0  0  0  0  0  0  0  0  0  0  0  0
   72.0086   11.7432    1.1893 O   0  0  0  0  0  0  0  0  0  0  0  0
   74.0350   10.3748    1.7033 O   0  0  0  0  0  0  0  0  0  0  0  0
   68.1298   10.1656    4.5568 C   0  0  2  0  0  0  0  0  0  0  0  0
   67.1441   10.9236    5.1680 C   0  0  2  0  0  0  0  0  0  0  0  0
   67.5150   11.9360    6.0865 C   0  0  1  0  0  0  0  0  0  0  0  0
   66.7881   12.6788    6.7324 O   0  0  0  0  0  0  0  0  0  0  0  0
   65.8728   10.5240    4.7423 N   0  0  0  0  0  0  0  0  0  0  0  0
   66.1658    9.5705    3.9196 C   0  0  0  0  0  0  0  0  0  0  0  0
   67.4771    9.2762    3.7363 N   0  0  0  0  0  0  0  0  0  0  0  0
  1  5  1  1  0  0  0
  1 14  1  0  0  0  0
  1 19  2  0  0  0  0
  2 15  1  1  0  0  0
  2 20  2  0  0  0  0
  2 23  1  0  0  0  0
  3 16  1  1  0  0  0
  3 21  2  0  0  0  0
  3 24  1  0  0  0  0
  3 25  1  0  0  0  0
  4  6  1  0  0  0  0
  5  4  1  0  0  0  0
  6  7  1  0  0  0  0
  6  8  2  0  0  0  0
  7 12  1  0  0  0  0
  8  9  1  0  0  0  0
  8 10  1  0  0  0  0
 10 11  1  0  0  0  0
 10 12  2  0  0  0  0
 12 32  1  0  0  0  0
 13 17  1  0  0  0  0
 17 18  1  1  0  0  0
 17 22  1  0  0  0  0
 23  1  1  0  0  0  0
 24  2  1  0  0  0  0
 26 22  1  1  0  0  0
 27 26  1  0  0  0  0
 27 28  1  0  0  0  0
 27 30  1  1  0  0  0
 28 13  1  0  0  0  0
 28 29  1  1  0  0  0
 31 30  1  0  0  0  0
 32 26  1  0  0  0  0
 32 31  1  0  0  0  0
M  CHG  3  14  -1  15  -1  16  -1
M  END
>  <CHROM.1>
62.87987100,-133.47033382,68.94625076,-50.17747660,-171.45534705,-37.20002120
-61.82428899,52.21929453,69.51669573,11.00861436,2.41162823,0.15125000,-0.62013317
-1.90910233

>  <Name>
2au4_lig

>  <RI>
0

>  <Rbt.Current_Directory>
/home/itssahil/PROJECTS/Mol_Feturizer/New_Systems/rnas/2au4

>  <Rbt.Executable>
rbdock ($Id: //depot/dev/client3/rdock/2013.1/src/exe/rbdock.cxx#4 $)

>  <Rbt.Library>
libRbt.so (2013.1, Build901 2013/11/27)

>  <Rbt.Parameter_File>
/export/apps/rDock/src/rDock_2013.1_src/data/scripts/dock_solv.prm

>  <Rbt.Receptor>
prm/pocket_docking_5.prm

>  <SCORE>
-36.8682

>  <SCORE.INTER>
-13.8865

>  <SCORE.INTER.CONST>
1

>  <SCORE.INTER.POLAR>
-2.43388

>  <SCORE.INTER.ROT>
8

>  <SCORE.INTER.SOLV>
15.726

>  <SCORE.INTER.VDW>
-15.3201

>  <SCORE.INTER.norm>
-0.433952

>  <SCORE.INTRA>
-22.995

>  <SCORE.INTRA.DIHEDRAL>
-47.0739

>  <SCORE.INTRA.DIHEDRAL.0>
76.3625

>  <SCORE.INTRA.POLAR>
0

>  <SCORE.INTRA.POLAR.0>
0

>  <SCORE.INTRA.REPUL>
0.100386

>  <SCORE.INTRA.REPUL.0>
0.12705

>  <SCORE.INTRA.SOLV>
0.157897

>  <SCORE.INTRA.SOLV.lig_0>
-119.383

>  <SCORE.INTRA.VDW>
-0.0389755

>  <SCORE.INTRA.VDW.0>
-5.10464

>  <SCORE.INTRA.norm>
-0.718595

>  <SCORE.RESTR>
0.0133442

>  <SCORE.RESTR.CAVITY>
0.0133442

>  <SCORE.RESTR.norm>
0.000417008

>  <SCORE.SYSTEM>
0

>  <SCORE.SYSTEM.CONST>
0

>  <SCORE.SYSTEM.DIHEDRAL>
0

>  <SCORE.SYSTEM.SOLV>
0

>  <SCORE.SYSTEM.norm>
0

>  <SCORE.heavy>
32

>  <SCORE.norm>
-1.15213

>  <RMSD>
6.322

$$$$
2au4_lig
 OpenBabel11021811423D
libRbt.so/2013.1/901 2013/11/27
 32 34  0  0  0  0  0  0  0  0999 V2000
   70.6255   10.1980    4.4255 P   0  0  1  0  0  0  0  0  0  0  0  0
   72.0331   12.4824    4.0134 P   0  0  1  0  0  0  0  0  0  0  0  0
   73.3130   12.6349    1.6094 P   0  0  2  0  0  0  0  0  0  0  0  0
   68.0216   10.6263    4.6842 C   0  0  0  0  0  0  0  0  0  0  0  0
   69.2740   11.0038    4.0885 O   0  0  0  0  0  0  0  0  0  0  0  0
   66.8302   11.2734    3.9933 C   0  0  0  0  0  0  0  0  0  0  0  0
   67.2179   11.8146    2.7139 O   0  0  0  0  0  0  0  0  0  0  0  0
   65.7228   10.2565    3.7647 C   0  0  0  0  0  0  0  0  0  0  0  0
   64.5460   10.6061    4.5035 O   0  0  0  0  0  0  0  0  0  0  0  0
   65.4488   10.2474    2.2798 C   0  0  0  0  0  0  0  0  0  0  0  0
   64.0830   10.5841    2.0017 O   0  0  0  0  0  0  0  0  0  0  0  0
   66.3921   11.2667    1.6646 C   0  0  0  0  0  0  0  0  0  0  0  0
   66.6508    7.6934   -1.9728 N   0  0  0  0  0  0  0  0  0  0  0  0
   70.9382   10.3810    5.8572 O   0  5  0  0  0  0  0  0  0  0  0  0
   70.9517   13.3501    3.5075 O   0  5  0  0  0  0  0  0  0  0  0  0
   72.6321   13.8170    1.0436 O   0  5  0  0  0  0  0  0  0  0  0  0
   65.6161    7.9971   -1.1204 C   0  0  1  0  0  0  0  0  0  0  0  0
   64.5185    7.2628   -1.2431 N   0  0  0  0  0  0  0  0  0  0  0  0
   70.5174    8.8367    3.8587 O   0  0  0  0  0  0  0  0  0  0  0  0
   72.3739   12.4845    5.4512 O   0  0  0  0  0  0  0  0  0  0  0  0
   72.8085   11.2781    1.3119 O   0  0  0  0  0  0  0  0  0  0  0  0
   65.6687    8.9620   -0.2055 N   0  0  0  0  0  0  0  0  0  0  0  0
   71.7144   10.9891    3.5836 O   0  0  0  0  0  0  0  0  0  0  0  0
   73.3553   12.8036    3.1926 O   0  0  0  0  0  0  0  0  0  0  0  0
   74.8664   12.7012    1.2054 O   0  0  0  0  0  0  0  0  0  0  0  0
   66.8581    9.6067   -0.2127 C   0  0  2  0  0  0  0  0  0  0  0  0
   67.9484    9.3666   -1.0333 C   0  0  2  0  0  0  0  0  0  0  0  0
   67.8758    8.3354   -2.0016 C   0  0  1  0  0  0  0  0  0  0  0  0
   68.7396    7.9692   -2.7872 O   0  0  0  0  0  0  0  0  0  0  0  0
   68.9978   10.2427   -0.7364 N   0  0  0  0  0  0  0  0  0  0  0  0
   68.4855   10.9403    0.2243 C   0  0  0  0  0  0  0  0  0  0  0  0
   67.2202   10.6445    0.6132 N   0  0  0  0  0  0  0  0  0  0  0  0
  1  5  1  6  0  0  0
  1 14  1  0  0  0  0
  1 19  2  0  0  0  0
  2 15  1  6  0  0  0
  2 20  2  0  0  0  0
  2 23  1  0  0  0  0
  3 16  1  6  0  0  0
  3 21  2  0  0  0  0
  3 24  1  0  0  0  0
  3 25  1  0  0  0  0
  4  6  1  0  0  0  0
  5  4  1  0  0  0  0
  6  7  1  0  0  0  0
  6  8  2  0  0  0  0
  7 12  1  0  0  0  0
  8  9  1  0  0  0  0
  8 10  1  0  0  0  0
 10 11  1  0  0  0  0
 10 12  2  0  0  0  0
 12 32  1  0  0  0  0
 13 17  1  0  0  0  0
 17 18  1  1  0  0  0
 17 22  1  0  0  0  0
 23  1  1  0  0  0  0
 24  2  1  0  0  0  0
 26 22  1  1  0  0  0
 27 26  1  0  0  0  0
 27 28  1  0  0  0  0
 27 30  1  1  0  0  0
 28 13  1  0  0  0  0
 28 29  1  1  0  0  0
 31 30  1  0  0  0  0
 32 26  1  0  0  0  0
 32 31  1  0  0  0  0
M  CHG  3  14  -1  15  -1  16  -1
M  END
>  <CHROM.1>
-64.62542629,-78.13822174,78.39670083,15.11384133,-165.98568883,151.92534306
66.45546998,-57.89862675,69.26842425,10.75165648,2.03180142,0.52926236,0.30590372
1.27496375

>  <Name>
2au4_lig

>  <RI>
0

>  <Rbt.Current_Directory>
/home/itssahil/PROJECTS/Mol_Feturizer/New_Systems/rnas/2au4

>  <Rbt.Executable>
rbdock ($Id: //depot/dev/client3/rdock/2013.1/src/exe/rbdock.cxx#4 $)

>  <Rbt.Library>
libRbt.so (2013.1, Build901 2013/11/27)

>  <Rbt.Parameter_File>
/export/apps/rDock/src/rDock_2013.1_src/data/scripts/dock_solv.prm

>  <Rbt.Receptor>
prm/pocket_docking_6.prm

>  <SCORE>
-39.6231

>  <SCORE.INTER>
-13.3764

>  <SCORE.INTER.CONST>
1

>  <SCORE.INTER.POLAR>
-1.98451

>  <SCORE.INTER.ROT>
8

>  <SCORE.INTER.SOLV>
19.1753

>  <SCORE.INTER.VDW>
-17.6277

>  <SCORE.INTER.norm>
-0.418013

>  <SCORE.INTRA>
-26.2467

>  <SCORE.INTRA.DIHEDRAL>
-49.7542

>  <SCORE.INTRA.DIHEDRAL.0>
76.3625

>  <SCORE.INTRA.POLAR>
0

>  <SCORE.INTRA.POLAR.0>
0

>  <SCORE.INTRA.REPUL>
-0.116052

>  <SCORE.INTRA.REPUL.0>
0.12705

>  <SCORE.INTRA.SOLV>
-4.48251

>  <SCORE.INTRA.SOLV.lig_0>
-119.383

>  <SCORE.INTRA.VDW>
1.45199

>  <SCORE.INTRA.VDW.0>
-5.10464

>  <SCORE.INTRA.norm>
-0.820208

>  <SCORE.RESTR>
0

>  <SCORE.RESTR.CAVITY>
0

>  <SCORE.RESTR.norm>
0

>  <SCORE.SYSTEM>
0

>  <SCORE.SYSTEM.CONST>
0

>  <SCORE.SYSTEM.DIHEDRAL>
0

>  <SCORE.SYSTEM.SOLV>
0

>  <SCORE.SYSTEM.norm>
0

>  <SCORE.heavy>
32

>  <SCORE.norm>
-1.23822

>  <RMSD>
6.348

$$$$
2au4_lig
 OpenBabel11021811423D
libRbt.so/2013.1/901 2013/11/27
 32 34  0  0  0  0  0  0  0  0999 V2000
   66.8745    6.1966   -1.1546 P   0  0  1  0  0  0  0  0  0  0  0  0
   69.3952    5.3493   -1.7002 P   0  0  1  0  0  0  0  0  0  0  0  0
   71.9872    4.5272   -1.4853 P   0  0  2  0  0  0  0  0  0  0  0  0
   65.4220    8.3816   -1.5376 C   0  0  0  0  0  0  0  0  0  0  0  0
   66.7203    7.7723   -1.4425 O   0  0  0  0  0  0  0  0  0  0  0  0
   64.8874    8.8264   -0.1842 C   0  0  0  0  0  0  0  0  0  0  0  0
   65.7143    8.3148    0.8811 O   0  0  0  0  0  0  0  0  0  0  0  0
   64.8677   10.3438   -0.0853 C   0  0  0  0  0  0  0  0  0  0  0  0
   63.5271   10.8306    0.0511 O   0  0  0  0  0  0  0  0  0  0  0  0
   65.7021   10.7059    1.1200 C   0  0  0  0  0  0  0  0  0  0  0  0
   64.9351   11.4465    2.0789 O   0  0  0  0  0  0  0  0  0  0  0  0
   66.1875    9.3948    1.7136 C   0  0  0  0  0  0  0  0  0  0  0  0
   70.5337   11.8760    0.7034 N   0  0  0  0  0  0  0  0  0  0  0  0
   66.0321    5.8454    0.0064 O   0  5  0  0  0  0  0  0  0  0  0  0
   68.8980    3.9800   -1.9369 O   0  5  0  0  0  0  0  0  0  0  0  0
   73.0208    4.3905   -0.4393 O   0  5  0  0  0  0  0  0  0  0  0  0
   69.2366   12.2434    0.4346 C   0  0  1  0  0  0  0  0  0  0  0  0
   69.0707   13.4069   -0.1801 N   0  0  0  0  0  0  0  0  0  0  0  0
   66.7195    5.4661   -2.4307 O   0  0  0  0  0  0  0  0  0  0  0  0
   69.6510    6.2527   -2.8411 O   0  0  0  0  0  0  0  0  0  0  0  0
   72.3054    5.2159   -2.7535 O   0  0  0  0  0  0  0  0  0  0  0  0
   68.1764   11.5043    0.7512 N   0  0  0  0  0  0  0  0  0  0  0  0
   68.3935    6.0774   -0.7087 O   0  0  0  0  0  0  0  0  0  0  0  0
   70.7266    5.2543   -0.8380 O   0  0  0  0  0  0  0  0  0  0  0  0
   71.4147    3.0659   -1.8283 O   0  0  0  0  0  0  0  0  0  0  0  0
   68.5246   10.3508    1.3665 C   0  0  2  0  0  0  0  0  0  0  0  0
   69.7999    9.9051    1.6747 C   0  0  2  0  0  0  0  0  0  0  0  0
   70.9176   10.7041    1.3302 C   0  0  1  0  0  0  0  0  0  0  0  0
   72.1051   10.4624    1.5002 O   0  0  0  0  0  0  0  0  0  0  0  0
   69.7521    8.6602    2.3110 N   0  0  0  0  0  0  0  0  0  0  0  0
   68.4787    8.4382    2.3449 C   0  0  0  0  0  0  0  0  0  0  0  0
   67.6601    9.3786    1.8109 N   0  0  0  0  0  0  0  0  0  0  0  0
  1  5  1  6  0  0  0
  1 14  1  0  0  0  0
  1 19  2  0  0  0  0
  2 15  1  6  0  0  0
  2 20  2  0  0  0  0
  2 23  1  0  0  0  0
  3 16  1  1  0  0  0
  3 21  2  0  0  0  0
  3 24  1  0  0  0  0
  3 25  1  0  0  0  0
  4  6  1  0  0  0  0
  5  4  1  0  0  0  0
  6  7  1  0  0  0  0
  6  8  2  0  0  0  0
  7 12  1  0  0  0  0
  8  9  1  0  0  0  0
  8 10  1  0  0  0  0
 10 11  1  0  0  0  0
 10 12  2  0  0  0  0
 12 32  1  0  0  0  0
 13 17  1  0  0  0  0
 17 18  1  6  0  0  0
 17 22  1  0  0  0  0
 23  1  1  0  0  0  0
 24  2  1  0  0  0  0
 26 22  1  6  0  0  0
 27 26  1  0  0  0  0
 27 28  1  0  0  0  0
 27 30  1  6  0  0  0
 28 13  1  0  0  0  0
 28 29  1  6  0  0  0
 31 30  1  0  0  0  0
 32 26  1  0  0  0  0
 32 31  1  0  0  0  0
M  CHG  3  14  -1  15  -1  16  -1
M  END
>  <CHROM.1>
-49.68541116,-58.25561151,-171.89944396,-10.05200257,87.42459194,116.60948127
-110.16181131,63.83175327,68.51584623,7.85406343,-0.24338358,1.02461112,0.07302812
-2.70085209

>  <Name>
2au4_lig

>  <RI>
0

>  <Rbt.Current_Directory>
/home/itssahil/PROJECTS/Mol_Feturizer/New_Systems/rnas/2au4

>  <Rbt.Executable>
rbdock ($Id: //depot/dev/client3/rdock/2013.1/src/exe/rbdock.cxx#4 $)

>  <Rbt.Library>
libRbt.so (2013.1, Build901 2013/11/27)

>  <Rbt.Parameter_File>
/export/apps/rDock/src/rDock_2013.1_src/data/scripts/dock_solv.prm

>  <Rbt.Receptor>
prm/pocket_docking_2.prm

>  <SCORE>
-28.7919

>  <SCORE.INTER>
-16.0104

>  <SCORE.INTER.CONST>
1

>  <SCORE.INTER.POLAR>
-2.15526

>  <SCORE.INTER.ROT>
8

>  <SCORE.INTER.SOLV>
42.8407

>  <SCORE.INTER.VDW>
-26.703

>  <SCORE.INTER.norm>
-0.500324

>  <SCORE.INTRA>
-15.8553

>  <SCORE.INTRA.DIHEDRAL>
-30.5904

>  <SCORE.INTRA.DIHEDRAL.0>
76.3625

>  <SCORE.INTRA.POLAR>
0

>  <SCORE.INTRA.POLAR.0>
0

>  <SCORE.INTRA.REPUL>
-0.12705

>  <SCORE.INTRA.REPUL.0>
0.12705

>  <SCORE.INTRA.SOLV>
-2.92282

>  <SCORE.INTRA.SOLV.lig_0>
-119.383

>  <SCORE.INTRA.VDW>
1.53659

>  <SCORE.INTRA.VDW.0>
-5.10464

>  <SCORE.INTRA.norm>
-0.495477

>  <SCORE.RESTR>
3.0737

>  <SCORE.RESTR.CAVITY>
3.0737

>  <SCORE.RESTR.norm>
0.096053

>  <SCORE.SYSTEM>
0

>  <SCORE.SYSTEM.CONST>
0

>  <SCORE.SYSTEM.DIHEDRAL>
0

>  <SCORE.SYSTEM.SOLV>
0

>  <SCORE.SYSTEM.norm>
0

>  <SCORE.heavy>
32

>  <SCORE.norm>
-0.899748

>  <RMSD>
6.349

$$$$
2au4_lig
 OpenBabel11021811423D
libRbt.so/2013.1/901 2013/11/27
 32 34  0  0  0  0  0  0  0  0999 V2000
   68.1255    7.3033    1.3274 P   0  0  1  0  0  0  0  0  0  0  0  0
   69.7322    5.3334    0.3748 P   0  0  1  0  0  0  0  0  0  0  0  0
   69.6683    4.5410   -2.2345 P   0  0  2  0  0  0  0  0  0  0  0  0
   65.5584    7.8145    0.9043 C   0  0  0  0  0  0  0  0  0  0  0  0
   66.5819    7.3163    1.7818 O   0  0  0  0  0  0  0  0  0  0  0  0
   65.2650    9.2902    1.1314 C   0  0  0  0  0  0  0  0  0  0  0  0
   66.0280    9.7935    2.2471 O   0  0  0  0  0  0  0  0  0  0  0  0
   65.6260   10.1067   -0.0997 C   0  0  0  0  0  0  0  0  0  0  0  0
   64.4619   10.7200   -0.6668 O   0  0  0  0  0  0  0  0  0  0  0  0
   66.6221   11.1474    0.3528 C   0  0  0  0  0  0  0  0  0  0  0  0
   66.1435   12.4733    0.0897 O   0  0  0  0  0  0  0  0  0  0  0  0
   66.8197   10.9307    1.8431 C   0  0  0  0  0  0  0  0  0  0  0  0
   71.6485   11.8046    0.4342 N   0  0  0  0  0  0  0  0  0  0  0  0
   68.3193    8.3347    0.2884 O   0  5  0  0  0  0  0  0  0  0  0  0
   70.5183    6.4033   -0.2697 O   0  5  0  0  0  0  0  0  0  0  0  0
   69.6682    6.0123   -2.3632 O   0  5  0  0  0  0  0  0  0  0  0  0
   70.4785   12.2019   -0.1682 C   0  0  1  0  0  0  0  0  0  0  0  0
   70.6022   12.9131   -1.2808 N   0  0  0  0  0  0  0  0  0  0  0  0
   68.9740    7.3027    2.5383 O   0  0  0  0  0  0  0  0  0  0  0  0
   70.2170    4.7057    1.6216 O   0  0  0  0  0  0  0  0  0  0  0  0
   68.7013    3.7314   -3.0049 O   0  0  0  0  0  0  0  0  0  0  0  0
   69.2677   11.9099    0.3002 N   0  0  0  0  0  0  0  0  0  0  0  0
   68.2666    5.8815    0.6355 O   0  0  0  0  0  0  0  0  0  0  0  0
   69.4860    4.1829   -0.6933 O   0  0  0  0  0  0  0  0  0  0  0  0
   71.1488    4.0032   -2.5496 O   0  0  0  0  0  0  0  0  0  0  0  0
   69.3238   11.1768    1.4359 C   0  0  2  0  0  0  0  0  0  0  0  0
   70.4535   10.7363    2.1065 C   0  0  2  0  0  0  0  0  0  0  0  0
   71.7347   11.0557    1.5940 C   0  0  1  0  0  0  0  0  0  0  0  0
   72.8304   10.7346    2.0344 O   0  0  0  0  0  0  0  0  0  0  0  0
   70.1026   10.0026    3.2448 N   0  0  0  0  0  0  0  0  0  0  0  0
   68.8114   10.0455    3.1895 C   0  0  0  0  0  0  0  0  0  0  0  0
   68.2463   10.7172    2.1555 N   0  0  0  0  0  0  0  0  0  0  0  0
  1  5  1  1  0  0  0
  1 14  1  0  0  0  0
  1 19  2  0  0  0  0
  2 15  1  6  0  0  0
  2 20  2  0  0  0  0
  2 23  1  0  0  0  0
  3 16  1  6  0  0  0
  3 21  2  0  0  0  0
  3 24  1  0  0  0  0
  3 25  1  0  0  0  0
  4  6  1  0  0  0  0
  5  4  1  0  0  0  0
  6  7  1  0  0  0  0
  6  8  2  0  0  0  0
  7 12  1  0  0  0  0
  8  9  1  0  0  0  0
  8 10  1  0  0  0  0
 10 11  1  0  0  0  0
 10 12  2  0  0  0  0
 12 32  1  0  0  0  0
 13 17  1  0  0  0  0
 17 18  1  6  0  0  0
 17 22  1  0  0  0  0
 23  1  1  0  0  0  0
 24  2  1  0  0  0  0
 26 22  1  6  0  0  0
 27 26  1  0  0  0  0
 27 28  1  0  0  0  0
 27 30  1  6  0  0  0
 28 13  1  0  0  0  0
 28 29  1  6  0  0  0
 31 30  1  0  0  0  0
 32 26  1  0  0  0  0
 32 31  1  0  0  0  0
M  CHG  3  14  -1  15  -1  16  -1
M  END
>  <CHROM.1>
24.16933565,-48.58554205,-15.91023126,-4.22865889,-92.78573935,146.79462921
-164.92000831,-18.66852688,68.79991643,8.34274497,0.46474279,1.40162002,-0.02752858
-2.81801126

>  <Name>
2au4_lig

>  <RI>
0

>  <Rbt.Current_Directory>
/home/itssahil/PROJECTS/Mol_Feturizer/New_Systems/rnas/2au4

>  <Rbt.Executable>
rbdock ($Id: //depot/dev/client3/rdock/2013.1/src/exe/rbdock.cxx#4 $)

>  <Rbt.Library>
libRbt.so (2013.1, Build901 2013/11/27)

>  <Rbt.Parameter_File>
/export/apps/rDock/src/rDock_2013.1_src/data/scripts/dock_solv.prm

>  <Rbt.Receptor>
prm/pocket_docking_2.prm

>  <SCORE>
-9.18823

>  <SCORE.INTER>
3.61389

>  <SCORE.INTER.CONST>
1

>  <SCORE.INTER.POLAR>
-0.42904

>  <SCORE.INTER.ROT>
8

>  <SCORE.INTER.SOLV>
35.983

>  <SCORE.INTER.VDW>
-17.0883

>  <SCORE.INTER.norm>
0.112934

>  <SCORE.INTRA>
-16.5519

>  <SCORE.INTRA.DIHEDRAL>
-41.9634

>  <SCORE.INTRA.DIHEDRAL.0>
76.3625

>  <SCORE.INTRA.POLAR>
0

>  <SCORE.INTRA.POLAR.0>
0

>  <SCORE.INTRA.REPUL>
-0.12705

>  <SCORE.INTRA.REPUL.0>
0.12705

>  <SCORE.INTRA.SOLV>
5.67158

>  <SCORE.INTRA.SOLV.lig_0>
-119.383

>  <SCORE.INTRA.VDW>
2.22922

>  <SCORE.INTRA.VDW.0>
-5.10464

>  <SCORE.INTRA.norm>
-0.517247

>  <SCORE.RESTR>
3.7498

>  <SCORE.RESTR.CAVITY>
3.7498

>  <SCORE.RESTR.norm>
0.117181

>  <SCORE.SYSTEM>
0

>  <SCORE.SYSTEM.CONST>
0

>  <SCORE.SYSTEM.DIHEDRAL>
0

>  <SCORE.SYSTEM.SOLV>
0

>  <SCORE.SYSTEM.norm>
0

>  <SCORE.heavy>
32

>  <SCORE.norm>
-0.287132

>  <RMSD>
6.351

$$$$
2au4_lig
 OpenBabel11021811423D
libRbt.so/2013.1/901 2013/11/27
 32 34  0  0  0  0  0  0  0  0999 V2000
   68.0799   12.4223   -1.1346 P   0  0  1  0  0  0  0  0  0  0  0  0
   69.8056   12.8314    0.9207 P   0  0  1  0  0  0  0  0  0  0  0  0
   71.9480   13.6078    2.4200 P   0  0  2  0  0  0  0  0  0  0  0  0
   68.2002    9.7970   -1.4865 C   0  0  0  0  0  0  0  0  0  0  0  0
   68.8746   11.0662   -1.4795 O   0  0  0  0  0  0  0  0  0  0  0  0
   67.8307    9.3268   -0.0873 C   0  0  0  0  0  0  0  0  0  0  0  0
   66.3989    9.3270    0.0865 O   0  0  0  0  0  0  0  0  0  0  0  0
   68.3403    7.9152    0.1585 C   0  0  0  0  0  0  0  0  0  0  0  0
   69.3144    7.8981    1.2090 O   0  0  0  0  0  0  0  0  0  0  0  0
   67.1350    7.0814    0.5222 C   0  0  0  0  0  0  0  0  0  0  0  0
   67.2863    6.4878    1.8186 O   0  0  0  0  0  0  0  0  0  0  0  0
   65.9413    8.0203    0.4944 C   0  0  0  0  0  0  0  0  0  0  0  0
   62.1623    9.2390   -2.7150 N   0  0  0  0  0  0  0  0  0  0  0  0
   67.6793   13.0684   -2.4007 O   0  5  0  0  0  0  0  0  0  0  0  0
   68.8305   13.1473    1.9825 O   0  5  0  0  0  0  0  0  0  0  0  0
   72.3598   12.1924    2.5105 O   0  5  0  0  0  0  0  0  0  0  0  0
   62.9781   10.0618   -1.9754 C   0  0  1  0  0  0  0  0  0  0  0  0
   62.7644   11.3651   -2.0971 N   0  0  0  0  0  0  0  0  0  0  0  0
   67.0654   12.1251   -0.1008 O   0  0  0  0  0  0  0  0  0  0  0  0
   70.2933   11.4470    0.7500 O   0  0  0  0  0  0  0  0  0  0  0  0
   71.2176   14.2383    3.5393 O   0  0  0  0  0  0  0  0  0  0  0  0
   63.9385    9.6207   -1.1669 N   0  0  0  0  0  0  0  0  0  0  0  0
   69.2066   13.3183   -0.4651 O   0  0  0  0  0  0  0  0  0  0  0  0
   71.0673   13.7798    1.1041 O   0  0  0  0  0  0  0  0  0  0  0  0
   73.2469   14.4953    2.0944 O   0  0  0  0  0  0  0  0  0  0  0  0
   64.0167    8.2700   -1.1579 C   0  0  2  0  0  0  0  0  0  0  0  0
   63.2387    7.3704   -1.8688 C   0  0  2  0  0  0  0  0  0  0  0  0
   62.2203    7.8568   -2.7247 C   0  0  1  0  0  0  0  0  0  0  0  0
   61.4287    7.2165   -3.4036 O   0  0  0  0  0  0  0  0  0  0  0  0
   63.6221    6.0536   -1.5929 N   0  0  0  0  0  0  0  0  0  0  0  0
   64.5857    6.2383   -0.7506 C   0  0  0  0  0  0  0  0  0  0  0  0
   64.9012    7.5162   -0.4235 N   0  0  0  0  0  0  0  0  0  0  0  0
  1  5  1  6  0  0  0
  1 14  1  0  0  0  0
  1 19  2  0  0  0  0
  2 15  1  1  0  0  0
  2 20  2  0  0  0  0
  2 23  1  0  0  0  0
  3 16  1  1  0  0  0
  3 21  2  0  0  0  0
  3 24  1  0  0  0  0
  3 25  1  0  0  0  0
  4  6  1  0  0  0  0
  5  4  1  0  0  0  0
  6  7  1  0  0  0  0
  6  8  2  0  0  0  0
  7 12  1  0  0  0  0
  8  9  1  0  0  0  0
  8 10  1  0  0  0  0
 10 11  1  0  0  0  0
 10 12  2  0  0  0  0
 12 32  1  0  0  0  0
 13 17  1  0  0  0  0
 17 18  1  1  0  0  0
 17 22  1  0  0  0  0
 23  1  1  0  0  0  0
 24  2  1  0  0  0  0
 26 22  1  1  0  0  0
 27 26  1  0  0  0  0
 27 28  1  0  0  0  0
 27 30  1  1  0  0  0
 28 13  1  0  0  0  0
 28 29  1  1  0  0  0
 31 30  1  0  0  0  0
 32 26  1  0  0  0  0
 32 31  1  0  0  0  0
M  CHG  3  14  -1  15  -1  16  -1
M  END
>  <CHROM.1>
-96.43326966,-76.96287464,54.43226491,112.46437642,-71.39416478,-28.62722223
-65.58774387,65.05385600,67.47131267,10.53004980,-0.09055398,0.42989970,-0.56221124
-0.29747214

>  <Name>
2au4_lig

>  <RI>
0

>  <Rbt.Current_Directory>
/home/itssahil/PROJECTS/Mol_Feturizer/New_Systems/rnas/2au4

>  <Rbt.Executable>
rbdock ($Id: //depot/dev/client3/rdock/2013.1/src/exe/rbdock.cxx#4 $)

>  <Rbt.Library>
libRbt.so (2013.1, Build901 2013/11/27)

>  <Rbt.Parameter_File>
/export/apps/rDock/src/rDock_2013.1_src/data/scripts/dock_solv.prm

>  <Rbt.Receptor>
prm/pocket_docking_8.prm

>  <SCORE>
-48.8955

>  <SCORE.INTER>
-24.3914

>  <SCORE.INTER.CONST>
1

>  <SCORE.INTER.POLAR>
-1.84035

>  <SCORE.INTER.ROT>
8

>  <SCORE.INTER.SOLV>
18.3906

>  <SCORE.INTER.VDW>
-25.1899

>  <SCORE.INTER.norm>
-0.762231

>  <SCORE.INTRA>
-24.5042

>  <SCORE.INTRA.DIHEDRAL>
-49.0983

>  <SCORE.INTRA.DIHEDRAL.0>
76.3625

>  <SCORE.INTRA.POLAR>
0

>  <SCORE.INTRA.POLAR.0>
0

>  <SCORE.INTRA.REPUL>
0.0674042

>  <SCORE.INTRA.REPUL.0>
0.12705

>  <SCORE.INTRA.SOLV>
-1.61144

>  <SCORE.INTRA.SOLV.lig_0>
-119.383

>  <SCORE.INTRA.VDW>
0.513678

>  <SCORE.INTRA.VDW.0>
-5.10464

>  <SCORE.INTRA.norm>
-0.765755

>  <SCORE.RESTR>
0

>  <SCORE.RESTR.CAVITY>
0

>  <SCORE.RESTR.norm>
0

>  <SCORE.SYSTEM>
0

>  <SCORE.SYSTEM.CONST>
0

>  <SCORE.SYSTEM.DIHEDRAL>
0

>  <SCORE.SYSTEM.SOLV>
0

>  <SCORE.SYSTEM.norm>
0

>  <SCORE.heavy>
32

>  <SCORE.norm>
-1.52799

>  <RMSD>
6.351

$$$$
2au4_lig
 OpenBabel11021811423D
libRbt.so/2013.1/901 2013/11/27
 32 34  0  0  0  0  0  0  0  0999 V2000
   66.6245    6.4179   -2.7771 P   0  0  1  0  0  0  0  0  0  0  0  0
   68.7811    4.8006   -2.4571 P   0  0  1  0  0  0  0  0  0  0  0  0
   71.2922    4.6044   -1.4098 P   0  0  2  0  0  0  0  0  0  0  0  0
   64.8917    8.0965   -1.6769 C   0  0  0  0  0  0  0  0  0  0  0  0
   65.4373    6.7687   -1.7491 O   0  0  0  0  0  0  0  0  0  0  0  0
   64.5975    8.5278   -0.2476 C   0  0  0  0  0  0  0  0  0  0  0  0
   65.5785    7.9835    0.6589 O   0  0  0  0  0  0  0  0  0  0  0  0
   64.6254   10.0433   -0.1259 C   0  0  0  0  0  0  0  0  0  0  0  0
   63.3360   10.5517    0.2374 O   0  0  0  0  0  0  0  0  0  0  0  0
   65.6548   10.3700    0.9294 C   0  0  0  0  0  0  0  0  0  0  0  0
   65.0723   11.1078    2.0123 O   0  0  0  0  0  0  0  0  0  0  0  0
   66.2048    9.0405    1.4163 C   0  0  0  0  0  0  0  0  0  0  0  0
   70.5613   11.7007    1.5183 N   0  0  0  0  0  0  0  0  0  0  0  0
   66.1647    5.3419   -3.6780 O   0  5  0  0  0  0  0  0  0  0  0  0
   68.7028    3.5269   -1.7157 O   0  5  0  0  0  0  0  0  0  0  0  0
   71.0194    4.6099    0.0417 O   0  5  0  0  0  0  0  0  0  0  0  0
   69.2717   12.1305    1.7228 C   0  0  1  0  0  0  0  0  0  0  0  0
   69.1166   13.4221    1.9814 N   0  0  0  0  0  0  0  0  0  0  0  0
   67.1509    7.6803   -3.3388 O   0  0  0  0  0  0  0  0  0  0  0  0
   68.6020    4.8169   -3.9238 O   0  0  0  0  0  0  0  0  0  0  0  0
   72.6088    5.0450   -1.9163 O   0  0  0  0  0  0  0  0  0  0  0  0
   68.2078   11.3330    1.6706 N   0  0  0  0  0  0  0  0  0  0  0  0
   67.7370    5.8112   -1.8209 O   0  0  0  0  0  0  0  0  0  0  0  0
   70.1746    5.4873   -2.1227 O   0  0  0  0  0  0  0  0  0  0  0  0
   70.9943    3.1315   -1.9775 O   0  0  0  0  0  0  0  0  0  0  0  0
   68.5441   10.0524    1.3921 C   0  0  2  0  0  0  0  0  0  0  0  0
   69.8113    9.5363    1.1736 C   0  0  2  0  0  0  0  0  0  0  0  0
   70.9329   10.3992    1.2325 C   0  0  1  0  0  0  0  0  0  0  0  0
   72.1111   10.1272    1.0441 O   0  0  0  0  0  0  0  0  0  0  0  0
   69.7517    8.1631    0.9130 N   0  0  0  0  0  0  0  0  0  0  0  0
   68.4798    7.9428    0.9886 C   0  0  0  0  0  0  0  0  0  0  0  0
   67.6726    8.9964    1.2680 N   0  0  0  0  0  0  0  0  0  0  0  0
  1  5  1  1  0  0  0
  1 14  1  0  0  0  0
  1 19  2  0  0  0  0
  2 15  1  1  0  0  0
  2 20  2  0  0  0  0
  2 23  1  0  0  0  0
  3 16  1  1  0  0  0
  3 21  2  0  0  0  0
  3 24  1  0  0  0  0
  3 25  1  0  0  0  0
  4  6  1  0  0  0  0
  5  4  1  0  0  0  0
  6  7  1  0  0  0  0
  6  8  2  0  0  0  0
  7 12  1  0  0  0  0
  8  9  1  0  0  0  0
  8 10  1  0  0  0  0
 10 11  1  0  0  0  0
 10 12  2  0  0  0  0
 12 32  1  0  0  0  0
 13 17  1  0  0  0  0
 17 18  1  6  0  0  0
 17 22  1  0  0  0  0
 23  1  1  0  0  0  0
 24  2  1  0  0  0  0
 26 22  1  6  0  0  0
 27 26  1  0  0  0  0
 27 28  1  0  0  0  0
 27 30  1  6  0  0  0
 28 13  1  0  0  0  0
 28 29  1  6  0  0  0
 31 30  1  0  0  0  0
 32 26  1  0  0  0  0
 32 31  1  0  0  0  0
M  CHG  3  14  -1  15  -1  16  -1
M  END
>  <CHROM.1>
-121.24449511,-122.32515375,-83.27094811,34.85353308,-140.08940519,153.77135380
154.46642968,13.92581839,68.22980537,7.65328520,-0.59961359,1.24405610,0.20344299
-2.55899808

>  <Name>
2au4_lig

>  <RI>
0

>  <Rbt.Current_Directory>
/home/itssahil/PROJECTS/Mol_Feturizer/New_Systems/rnas/2au4

>  <Rbt.Executable>
rbdock ($Id: //depot/dev/client3/rdock/2013.1/src/exe/rbdock.cxx#4 $)

>  <Rbt.Library>
libRbt.so (2013.1, Build901 2013/11/27)

>  <Rbt.Parameter_File>
/export/apps/rDock/src/rDock_2013.1_src/data/scripts/dock_solv.prm

>  <Rbt.Receptor>
prm/pocket_docking_2.prm

>  <SCORE>
-25.9494

>  <SCORE.INTER>
-13.2373

>  <SCORE.INTER.CONST>
1

>  <SCORE.INTER.POLAR>
-1.22297

>  <SCORE.INTER.ROT>
8

>  <SCORE.INTER.SOLV>
44.9542

>  <SCORE.INTER.VDW>
-28.6663

>  <SCORE.INTER.norm>
-0.413665

>  <SCORE.INTRA>
-16.696

>  <SCORE.INTRA.DIHEDRAL>
-36.7019

>  <SCORE.INTRA.DIHEDRAL.0>
76.3625

>  <SCORE.INTRA.POLAR>
0

>  <SCORE.INTRA.POLAR.0>
0

>  <SCORE.INTRA.REPUL>
-0.0621049

>  <SCORE.INTRA.REPUL.0>
0.12705

>  <SCORE.INTRA.SOLV>
-5.14347

>  <SCORE.INTRA.SOLV.lig_0>
-119.383

>  <SCORE.INTRA.VDW>
4.53722

>  <SCORE.INTRA.VDW.0>
-5.10464

>  <SCORE.INTRA.norm>
-0.521749

>  <SCORE.RESTR>
3.98386

>  <SCORE.RESTR.CAVITY>
3.98386

>  <SCORE.RESTR.norm>
0.124495

>  <SCORE.SYSTEM>
0

>  <SCORE.SYSTEM.CONST>
0

>  <SCORE.SYSTEM.DIHEDRAL>
0

>  <SCORE.SYSTEM.SOLV>
0

>  <SCORE.SYSTEM.norm>
0

>  <SCORE.heavy>
32

>  <SCORE.norm>
-0.810919

>  <RMSD>
6.357

$$$$
2au4_lig
 OpenBabel11021811423D
libRbt.so/2013.1/901 2013/11/27
 32 34  0  0  0  0  0  0  0  0999 V2000
   69.5001   12.2107    0.2321 P   0  0  1  0  0  0  0  0  0  0  0  0
   70.8211   13.2276    2.3746 P   0  0  1  0  0  0  0  0  0  0  0  0
   73.1028   11.8629    2.9846 P   0  0  2  0  0  0  0  0  0  0  0  0
   68.3710    9.9693   -0.6233 C   0  0  0  0  0  0  0  0  0  0  0  0
   69.5447   10.7933   -0.5283 O   0  0  0  0  0  0  0  0  0  0  0  0
   68.0090    9.3171    0.7030 C   0  0  0  0  0  0  0  0  0  0  0  0
   66.5776    9.2053    0.8396 O   0  0  0  0  0  0  0  0  0  0  0  0
   68.6071    7.9222    0.7980 C   0  0  0  0  0  0  0  0  0  0  0  0
   69.5616    7.8458    1.8638 O   0  0  0  0  0  0  0  0  0  0  0  0
   67.4538    6.9762    1.0333 C   0  0  0  0  0  0  0  0  0  0  0  0
   67.6216    6.2470    2.2565 O   0  0  0  0  0  0  0  0  0  0  0  0
   66.2010    7.8334    1.0833 C   0  0  0  0  0  0  0  0  0  0  0  0
   62.5599    9.1994   -2.2248 N   0  0  0  0  0  0  0  0  0  0  0  0
   70.0529   13.2445   -0.6660 O   0  5  0  0  0  0  0  0  0  0  0  0
   71.5917   14.2304    1.6139 O   0  5  0  0  0  0  0  0  0  0  0  0
   72.7107   10.7889    2.0497 O   0  5  0  0  0  0  0  0  0  0  0  0
   63.3274    9.9855   -1.3986 C   0  0  1  0  0  0  0  0  0  0  0  0
   63.1002   11.2911   -1.4516 N   0  0  0  0  0  0  0  0  0  0  0  0
   68.1573   12.3859    0.8257 O   0  0  0  0  0  0  0  0  0  0  0  0
   69.5534   13.6089    3.0313 O   0  0  0  0  0  0  0  0  0  0  0  0
   73.9129   11.5443    4.1788 O   0  0  0  0  0  0  0  0  0  0  0  0
   64.2551    9.5076   -0.5729 N   0  0  0  0  0  0  0  0  0  0  0  0
   70.5311   11.9945    1.4197 O   0  0  0  0  0  0  0  0  0  0  0  0
   71.7762   12.5949    3.4757 O   0  0  0  0  0  0  0  0  0  0  0  0
   73.8533   13.0132    2.1514 O   0  0  0  0  0  0  0  0  0  0  0  0
   64.3530    8.1599   -0.6416 C   0  0  2  0  0  0  0  0  0  0  0  0
   63.6230    7.2960   -1.4419 C   0  0  2  0  0  0  0  0  0  0  0  0
   62.6390    7.8213   -2.3149 C   0  0  1  0  0  0  0  0  0  0  0  0
   61.8901    7.2139   -3.0684 O   0  0  0  0  0  0  0  0  0  0  0  0
   64.0126    5.9696   -1.2277 N   0  0  0  0  0  0  0  0  0  0  0  0
   64.9325    6.1142   -0.3305 C   0  0  0  0  0  0  0  0  0  0  0  0
   65.2131    7.3736    0.0878 N   0  0  0  0  0  0  0  0  0  0  0  0
  1  5  1  6  0  0  0
  1 14  1  0  0  0  0
  1 19  2  0  0  0  0
  2 15  1  6  0  0  0
  2 20  2  0  0  0  0
  2 23  1  0  0  0  0
  3 16  1  6  0  0  0
  3 21  2  0  0  0  0
  3 24  1  0  0  0  0
  3 25  1  0  0  0  0
  4  6  1  0  0  0  0
  5  4  1  0  0  0  0
  6  7  1  0  0  0  0
  6  8  2  0  0  0  0
  7 12  1  0  0  0  0
  8  9  1  0  0  0  0
  8 10  1  0  0  0  0
 10 11  1  0  0  0  0
 10 12  2  0  0  0  0
 12 32  1  0  0  0  0
 13 17  1  0  0  0  0
 17 18  1  1  0  0  0
 17 22  1  0  0  0  0
 23  1  1  0  0  0  0
 24  2  1  0  0  0  0
 26 22  1  1  0  0  0
 27 26  1  0  0  0  0
 27 28  1  0  0  0  0
 27 30  1  1  0  0  0
 28 13  1  0  0  0  0
 28 29  1  1  0  0  0
 31 30  1  0  0  0  0
 32 26  1  0  0  0  0
 32 31  1  0  0  0  0
M  CHG  3  14  -1  15  -1  16  -1
M  END
>  <CHROM.1>
-128.21721136,-70.26684935,-57.31120658,145.66029438,-72.58425293,-24.03415571
177.02697531,-59.20403357,68.21625309,10.25256031,0.70544545,0.37300789,-0.50590478
-0.22641804

>  <Name>
2au4_lig

>  <RI>
0

>  <Rbt.Current_Directory>
/home/itssahil/PROJECTS/Mol_Feturizer/New_Systems/rnas/2au4

>  <Rbt.Executable>
rbdock ($Id: //depot/dev/client3/rdock/2013.1/src/exe/rbdock.cxx#4 $)

>  <Rbt.Library>
libRbt.so (2013.1, Build901 2013/11/27)

>  <Rbt.Parameter_File>
/export/apps/rDock/src/rDock_2013.1_src/data/scripts/dock_solv.prm

>  <Rbt.Receptor>
prm/pocket_docking_6.prm

>  <SCORE>
-43.6993

>  <SCORE.INTER>
-19.4127

>  <SCORE.INTER.CONST>
1

>  <SCORE.INTER.POLAR>
-1.87771

>  <SCORE.INTER.ROT>
8

>  <SCORE.INTER.SOLV>
22.9999

>  <SCORE.INTER.VDW>
-23.2828

>  <SCORE.INTER.norm>
-0.606647

>  <SCORE.INTRA>
-24.2866

>  <SCORE.INTRA.DIHEDRAL>
-47.547

>  <SCORE.INTRA.DIHEDRAL.0>
76.3625

>  <SCORE.INTRA.POLAR>
0

>  <SCORE.INTRA.POLAR.0>
0

>  <SCORE.INTRA.REPUL>
0.0714327

>  <SCORE.INTRA.REPUL.0>
0.12705

>  <SCORE.INTRA.SOLV>
-4.53608

>  <SCORE.INTRA.SOLV.lig_0>
-119.383

>  <SCORE.INTRA.VDW>
1.39774

>  <SCORE.INTRA.VDW.0>
-5.10464

>  <SCORE.INTRA.norm>
-0.758957

>  <SCORE.RESTR>
0

>  <SCORE.RESTR.CAVITY>
0

>  <SCORE.RESTR.norm>
0

>  <SCORE.SYSTEM>
0

>  <SCORE.SYSTEM.CONST>
0

>  <SCORE.SYSTEM.DIHEDRAL>
0

>  <SCORE.SYSTEM.SOLV>
0

>  <SCORE.SYSTEM.norm>
0

>  <SCORE.heavy>
32

>  <SCORE.norm>
-1.3656

>  <RMSD>
6.364

$$$$
2au4_lig
 OpenBabel11021811423D
libRbt.so/2013.1/901 2013/11/27
 32 34  0  0  0  0  0  0  0  0999 V2000
   67.6242    7.1494   -2.6464 P   0  0  1  0  0  0  0  0  0  0  0  0
   68.8204    4.8020   -1.9921 P   0  0  1  0  0  0  0  0  0  0  0  0
   71.4778    4.6304   -1.4010 P   0  0  2  0  0  0  0  0  0  0  0  0
   65.2674    7.4724   -1.4751 C   0  0  0  0  0  0  0  0  0  0  0  0
   66.4985    8.0536   -1.9359 O   0  0  0  0  0  0  0  0  0  0  0  0
   64.5924    8.3140   -0.4021 C   0  0  0  0  0  0  0  0  0  0  0  0
   65.1684    8.0434    0.8922 O   0  0  0  0  0  0  0  0  0  0  0  0
   64.7584    9.7966   -0.6969 C   0  0  0  0  0  0  0  0  0  0  0  0
   63.4892   10.4158   -0.9392 O   0  0  0  0  0  0  0  0  0  0  0  0
   65.4356   10.4007    0.5100 C   0  0  0  0  0  0  0  0  0  0  0  0
   64.6336   11.4381    1.0905 O   0  0  0  0  0  0  0  0  0  0  0  0
   65.6449    9.2646    1.4962 C   0  0  0  0  0  0  0  0  0  0  0  0
   70.0008   11.7571    2.4347 N   0  0  0  0  0  0  0  0  0  0  0  0
   67.1091    6.6985   -3.9549 O   0  5  0  0  0  0  0  0  0  0  0  0
   68.4650    3.5584   -1.2813 O   0  5  0  0  0  0  0  0  0  0  0  0
   72.1674    4.7330   -0.0990 O   0  5  0  0  0  0  0  0  0  0  0  0
   68.7679   12.2557    2.0867 C   0  0  1  0  0  0  0  0  0  0  0  0
   68.6789   13.5737    1.9688 N   0  0  0  0  0  0  0  0  0  0  0  0
   68.9197    7.8573   -2.5639 O   0  0  0  0  0  0  0  0  0  0  0  0
   69.0579    4.7803   -3.4504 O   0  0  0  0  0  0  0  0  0  0  0  0
   72.1602    5.0705   -2.6358 O   0  0  0  0  0  0  0  0  0  0  0  0
   67.6969   11.4971    1.8671 N   0  0  0  0  0  0  0  0  0  0  0  0
   67.7007    5.8845   -1.6903 O   0  0  0  0  0  0  0  0  0  0  0  0
   70.1030    5.4272   -1.2926 O   0  0  0  0  0  0  0  0  0  0  0  0
   70.9916    3.1123   -1.6006 O   0  0  0  0  0  0  0  0  0  0  0  0
   67.9641   10.1802    2.0254 C   0  0  2  0  0  0  0  0  0  0  0  0
   69.1710    9.5952    2.3730 C   0  0  2  0  0  0  0  0  0  0  0  0
   70.3013   10.4173    2.6029 C   0  0  1  0  0  0  0  0  0  0  0  0
   71.4411   10.0779    2.8912 O   0  0  0  0  0  0  0  0  0  0  0  0
   69.0498    8.2029    2.4360 N   0  0  0  0  0  0  0  0  0  0  0  0
   67.8045    8.0398    2.1281 C   0  0  0  0  0  0  0  0  0  0  0  0
   67.0692    9.1488    1.8654 N   0  0  0  0  0  0  0  0  0  0  0  0
  1  5  1  1  0  0  0
  1 14  1  0  0  0  0
  1 19  2  0  0  0  0
  2 15  1  1  0  0  0
  2 20  2  0  0  0  0
  2 23  1  0  0  0  0
  3 16  1  1  0  0  0
  3 21  2  0  0  0  0
  3 24  1  0  0  0  0
  3 25  1  0  0  0  0
  4  6  1  0  0  0  0
  5  4  1  0  0  0  0
  6  7  1  0  0  0  0
  6  8  2  0  0  0  0
  7 12  1  0  0  0  0
  8  9  1  0  0  0  0
  8 10  1  0  0  0  0
 10 11  1  0  0  0  0
 10 12  2  0  0  0  0
 12 32  1  0  0  0  0
 13 17  1  0  0  0  0
 17 18  1  6  0  0  0
 17 22  1  0  0  0  0
 23  1  1  0  0  0  0
 24  2  1  0  0  0  0
 26 22  1  6  0  0  0
 27 26  1  0  0  0  0
 27 28  1  0  0  0  0
 27 30  1  6  0  0  0
 28 13  1  0  0  0  0
 28 29  1  6  0  0  0
 31 30  1  0  0  0  0
 32 26  1  0  0  0  0
 32 31  1  0  0  0  0
M  CHG  3  14  -1  15  -1  16  -1
M  END
>  <CHROM.1>
68.21096122,-162.97830494,-140.44019686,-82.48914734,158.18911048,156.19592766
-174.41391664,66.93103260,68.24391087,7.80163066,-0.32173660,1.14049280,0.35489678
-2.46127812

>  <Name>
2au4_lig

>  <RI>
0

>  <Rbt.Current_Directory>
/home/itssahil/PROJECTS/Mol_Feturizer/New_Systems/rnas/2au4

>  <Rbt.Executable>
rbdock ($Id: //depot/dev/client3/rdock/2013.1/src/exe/rbdock.cxx#4 $)

>  <Rbt.Library>
libRbt.so (2013.1, Build901 2013/11/27)

>  <Rbt.Parameter_File>
/export/apps/rDock/src/rDock_2013.1_src/data/scripts/dock_solv.prm

>  <Rbt.Receptor>
prm/pocket_docking_3.prm

>  <SCORE>
-41.0981

>  <SCORE.INTER>
-16.1665

>  <SCORE.INTER.CONST>
1

>  <SCORE.INTER.POLAR>
-1.54527

>  <SCORE.INTER.ROT>
8

>  <SCORE.INTER.SOLV>
41.9788

>  <SCORE.INTER.VDW>
-28.5531

>  <SCORE.INTER.norm>
-0.505204

>  <SCORE.INTRA>
-24.9316

>  <SCORE.INTRA.DIHEDRAL>
-45.9144

>  <SCORE.INTRA.DIHEDRAL.0>
76.3625

>  <SCORE.INTRA.POLAR>
0

>  <SCORE.INTRA.POLAR.0>
0

>  <SCORE.INTRA.REPUL>
-0.12705

>  <SCORE.INTRA.REPUL.0>
0.12705

>  <SCORE.INTRA.SOLV>
-6.32966

>  <SCORE.INTRA.SOLV.lig_0>
-119.383

>  <SCORE.INTRA.VDW>
1.82569

>  <SCORE.INTRA.VDW.0>
-5.10464

>  <SCORE.INTRA.norm>
-0.779113

>  <SCORE.RESTR>
0

>  <SCORE.RESTR.CAVITY>
0

>  <SCORE.RESTR.norm>
0

>  <SCORE.SYSTEM>
0

>  <SCORE.SYSTEM.CONST>
0

>  <SCORE.SYSTEM.DIHEDRAL>
0

>  <SCORE.SYSTEM.SOLV>
0

>  <SCORE.SYSTEM.norm>
0

>  <SCORE.heavy>
32

>  <SCORE.norm>
-1.28432

>  <RMSD>
6.375

$$$$
2au4_lig
 OpenBabel11021811423D
libRbt.so/2013.1/901 2013/11/27
 32 34  0  0  0  0  0  0  0  0999 V2000
   68.6518    7.5886    0.2302 P   0  0  1  0  0  0  0  0  0  0  0  0
   68.6883    6.5186    2.7248 P   0  0  1  0  0  0  0  0  0  0  0  0
   69.1878    8.7452    4.2194 P   0  0  2  0  0  0  0  0  0  0  0  0
   66.2170    8.6325    0.3409 C   0  0  0  0  0  0  0  0  0  0  0  0
   67.6348    8.8061    0.5000 O   0  0  0  0  0  0  0  0  0  0  0  0
   65.4611    9.9525    0.3808 C   0  0  0  0  0  0  0  0  0  0  0  0
   66.3577   11.0419    0.6802 O   0  0  0  0  0  0  0  0  0  0  0  0
   64.7991   10.2347   -0.9589 C   0  0  0  0  0  0  0  0  0  0  0  0
   63.3724   10.2606   -0.8297 O   0  0  0  0  0  0  0  0  0  0  0  0
   65.3264   11.5707   -1.4249 C   0  0  0  0  0  0  0  0  0  0  0  0
   64.2607   12.5097   -1.6214 O   0  0  0  0  0  0  0  0  0  0  0  0
   66.2797   12.0542   -0.3457 C   0  0  0  0  0  0  0  0  0  0  0  0
   71.2045   12.9681    0.6429 N   0  0  0  0  0  0  0  0  0  0  0  0
   67.8651    6.3618   -0.0080 O   0  5  0  0  0  0  0  0  0  0  0  0
   67.2287    6.7191    2.6383 O   0  5  0  0  0  0  0  0  0  0  0  0
   67.7825    9.1807    4.3493 O   0  5  0  0  0  0  0  0  0  0  0  0
   70.1679   12.7369    1.5156 C   0  0  1  0  0  0  0  0  0  0  0  0
   70.4713   12.7541    2.8065 N   0  0  0  0  0  0  0  0  0  0  0  0
   69.6601    8.0261   -0.7589 O   0  0  0  0  0  0  0  0  0  0  0  0
   69.2579    5.1597    2.6138 O   0  0  0  0  0  0  0  0  0  0  0  0
   70.0359    9.2961    3.1419 O   0  0  0  0  0  0  0  0  0  0  0  0
   68.9142   12.5078    1.1328 N   0  0  0  0  0  0  0  0  0  0  0  0
   69.3817    7.4355    1.6316 O   0  0  0  0  0  0  0  0  0  0  0  0
   69.1997    7.1580    4.0868 O   0  0  0  0  0  0  0  0  0  0  0  0
   69.9272    8.9879    5.6248 O   0  0  0  0  0  0  0  0  0  0  0  0
   68.7802   12.5301   -0.2134 C   0  0  2  0  0  0  0  0  0  0  0  0
   69.7665   12.7538   -1.1605 C   0  0  2  0  0  0  0  0  0  0  0  0
   71.0958   12.9965   -0.7359 C   0  0  1  0  0  0  0  0  0  0  0  0
   72.0805   13.2357   -1.4220 O   0  0  0  0  0  0  0  0  0  0  0  0
   69.2363   12.6995   -2.4540 N   0  0  0  0  0  0  0  0  0  0  0  0
   67.9907   12.4526   -2.2104 C   0  0  0  0  0  0  0  0  0  0  0  0
   67.6133   12.3330   -0.9131 N   0  0  0  0  0  0  0  0  0  0  0  0
  1  5  1  1  0  0  0
  1 14  1  0  0  0  0
  1 19  2  0  0  0  0
  2 15  1  6  0  0  0
  2 20  2  0  0  0  0
  2 23  1  0  0  0  0
  3 16  1  6  0  0  0
  3 21  2  0  0  0  0
  3 24  1  0  0  0  0
  3 25  1  0  0  0  0
  4  6  1  0  0  0  0
  5  4  1  0  0  0  0
  6  7  1  0  0  0  0
  6  8  2  0  0  0  0
  7 12  1  0  0  0  0
  8  9  1  0  0  0  0
  8 10  1  0  0  0  0
 10 11  1  0  0  0  0
 10 12  2  0  0  0  0
 12 32  1  0  0  0  0
 13 17  1  0  0  0  0
 17 18  1  1  0  0  0
 17 22  1  0  0  0  0
 23  1  1  0  0  0  0
 24  2  1  0  0  0  0
 26 22  1  1  0  0  0
 27 26  1  0  0  0  0
 27 28  1  0  0  0  0
 27 30  1  1  0  0  0
 28 13  1  0  0  0  0
 28 29  1  1  0  0  0
 31 30  1  0  0  0  0
 32 26  1  0  0  0  0
 32 31  1  0  0  0  0
M  CHG  3  14  -1  15  -1  16  -1
M  END
>  <CHROM.1>
-6.82791297,-37.83584401,72.17881178,-4.72844233,-169.01719880,-45.92613899
86.40057392,-70.09687478,68.33011437,9.83631418,0.98440879,1.41766534,0.49807312
2.54302554

>  <Name>
2au4_lig

>  <RI>
0

>  <Rbt.Current_Directory>
/home/itssahil/PROJECTS/Mol_Feturizer/New_Systems/rnas/2au4

>  <Rbt.Executable>
rbdock ($Id: //depot/dev/client3/rdock/2013.1/src/exe/rbdock.cxx#4 $)

>  <Rbt.Library>
libRbt.so (2013.1, Build901 2013/11/27)

>  <Rbt.Parameter_File>
/export/apps/rDock/src/rDock_2013.1_src/data/scripts/dock_solv.prm

>  <Rbt.Receptor>
prm/pocket_docking_4.prm

>  <SCORE>
-37.0855

>  <SCORE.INTER>
-16.7184

>  <SCORE.INTER.CONST>
1

>  <SCORE.INTER.POLAR>
-1.40627

>  <SCORE.INTER.ROT>
8

>  <SCORE.INTER.SOLV>
28.012

>  <SCORE.INTER.VDW>
-24.7287

>  <SCORE.INTER.norm>
-0.522451

>  <SCORE.INTRA>
-20.4216

>  <SCORE.INTRA.DIHEDRAL>
-42.2434

>  <SCORE.INTRA.DIHEDRAL.0>
76.3625

>  <SCORE.INTRA.POLAR>
0

>  <SCORE.INTRA.POLAR.0>
0

>  <SCORE.INTRA.REPUL>
-0.0228783

>  <SCORE.INTRA.REPUL.0>
0.12705

>  <SCORE.INTRA.SOLV>
-1.17756

>  <SCORE.INTRA.SOLV.lig_0>
-119.383

>  <SCORE.INTRA.VDW>
1.40327

>  <SCORE.INTRA.VDW.0>
-5.10464

>  <SCORE.INTRA.norm>
-0.638175

>  <SCORE.RESTR>
0.0544886

>  <SCORE.RESTR.CAVITY>
0.0544886

>  <SCORE.RESTR.norm>
0.00170277

>  <SCORE.SYSTEM>
0

>  <SCORE.SYSTEM.CONST>
0

>  <SCORE.SYSTEM.DIHEDRAL>
0

>  <SCORE.SYSTEM.SOLV>
0

>  <SCORE.SYSTEM.norm>
0

>  <SCORE.heavy>
32

>  <SCORE.norm>
-1.15892

>  <RMSD>
6.384

$$$$
2au4_lig
 OpenBabel11021811423D
libRbt.so/2013.1/901 2013/11/27
 32 34  0  0  0  0  0  0  0  0999 V2000
   68.7989   10.2148    2.8491 P   0  0  1  0  0  0  0  0  0  0  0  0
   70.4913   10.6959    4.9164 P   0  0  1  0  0  0  0  0  0  0  0  0
   72.1687   12.6447    4.0056 P   0  0  2  0  0  0  0  0  0  0  0  0
   69.1129   12.2693    1.2025 C   0  0  0  0  0  0  0  0  0  0  0  0
   68.2710   11.2203    1.7090 O   0  0  0  0  0  0  0  0  0  0  0  0
   68.6124   12.8293   -0.1209 C   0  0  0  0  0  0  0  0  0  0  0  0
   68.6781   11.8251   -1.1541 O   0  0  0  0  0  0  0  0  0  0  0  0
   67.1693   13.2929    0.0020 C   0  0  0  0  0  0  0  0  0  0  0  0
   67.0663   14.7068   -0.2055 O   0  0  0  0  0  0  0  0  0  0  0  0
   66.3844   12.5326   -1.0403 C   0  0  0  0  0  0  0  0  0  0  0  0
   65.7384   13.4257   -1.9575 O   0  0  0  0  0  0  0  0  0  0  0  0
   67.3823   11.6448   -1.7636 C   0  0  0  0  0  0  0  0  0  0  0  0
   63.4577    8.3890   -1.5112 N   0  0  0  0  0  0  0  0  0  0  0  0
   67.6417    9.4868    3.4074 O   0  5  0  0  0  0  0  0  0  0  0  0
   70.4508   11.4848    6.1630 O   0  5  0  0  0  0  0  0  0  0  0  0
   70.9401   13.3791    3.6418 O   0  5  0  0  0  0  0  0  0  0  0  0
   63.4500    9.7629   -1.5529 C   0  0  1  0  0  0  0  0  0  0  0  0
   62.2589   10.3454   -1.5193 N   0  0  0  0  0  0  0  0  0  0  0  0
   69.9591    9.4673    2.3189 O   0  0  0  0  0  0  0  0  0  0  0  0
   70.4210    9.2209    4.9699 O   0  0  0  0  0  0  0  0  0  0  0  0
   73.3786   12.7658    3.1656 O   0  0  0  0  0  0  0  0  0  0  0  0
   64.5503   10.5084   -1.6197 N   0  0  0  0  0  0  0  0  0  0  0  0
   69.3322   11.2113    3.9639 O   0  0  0  0  0  0  0  0  0  0  0  0
   71.8025   11.0984    4.1139 O   0  0  0  0  0  0  0  0  0  0  0  0
   72.5578   13.0225    5.5177 O   0  0  0  0  0  0  0  0  0  0  0  0
   65.6748    9.7563   -1.6407 C   0  0  2  0  0  0  0  0  0  0  0  0
   65.7723    8.3747   -1.6027 C   0  0  2  0  0  0  0  0  0  0  0  0
   64.5912    7.5962   -1.5313 C   0  0  1  0  0  0  0  0  0  0  0  0
   64.4869    6.3787   -1.4657 O   0  0  0  0  0  0  0  0  0  0  0  0
   67.1105    7.9686   -1.6411 N   0  0  0  0  0  0  0  0  0  0  0  0
   67.7222    9.1064   -1.6978 C   0  0  0  0  0  0  0  0  0  0  0  0
   66.9637   10.2308   -1.7028 N   0  0  0  0  0  0  0  0  0  0  0  0
  1  5  1  6  0  0  0
  1 14  1  0  0  0  0
  1 19  2  0  0  0  0
  2 15  1  1  0  0  0
  2 20  2  0  0  0  0
  2 23  1  0  0  0  0
  3 16  1  6  0  0  0
  3 21  2  0  0  0  0
  3 24  1  0  0  0  0
  3 25  1  0  0  0  0
  4  6  1  0  0  0  0
  5  4  1  0  0  0  0
  6  7  1  0  0  0  0
  6  8  2  0  0  0  0
  7 12  1  0  0  0  0
  8  9  1  0  0  0  0
  8 10  1  0  0  0  0
 10 11  1  0  0  0  0
 10 12  2  0  0  0  0
 12 32  1  0  0  0  0
 13 17  1  0  0  0  0
 17 18  1  1  0  0  0
 17 22  1  0  0  0  0
 23  1  1  0  0  0  0
 24  2  1  0  0  0  0
 26 22  1  1  0  0  0
 27 26  1  0  0  0  0
 27 28  1  0  0  0  0
 27 30  1  1  0  0  0
 28 13  1  0  0  0  0
 28 29  1  1  0  0  0
 31 30  1  0  0  0  0
 32 26  1  0  0  0  0
 32 31  1  0  0  0  0
M  CHG  3  14  -1  15  -1  16  -1
M  END
>  <CHROM.1>
165.77009284,-156.93233807,-46.22482032,-65.14710405,162.86059701,150.61346614
-152.59021860,-44.01985267,68.25366283,10.88848754,1.31074666,0.09894673
0.78502031,2.65632706

>  <Name>
2au4_lig

>  <RI>
0

>  <Rbt.Current_Directory>
/home/itssahil/PROJECTS/Mol_Feturizer/New_Systems/rnas/2au4

>  <Rbt.Executable>
rbdock ($Id: //depot/dev/client3/rdock/2013.1/src/exe/rbdock.cxx#4 $)

>  <Rbt.Library>
libRbt.so (2013.1, Build901 2013/11/27)

>  <Rbt.Parameter_File>
/export/apps/rDock/src/rDock_2013.1_src/data/scripts/dock_solv.prm

>  <Rbt.Receptor>
prm/pocket_docking_5.prm

>  <SCORE>
-43.208

>  <SCORE.INTER>
-18.4133

>  <SCORE.INTER.CONST>
1

>  <SCORE.INTER.POLAR>
-2.67045

>  <SCORE.INTER.ROT>
8

>  <SCORE.INTER.SOLV>
14.9081

>  <SCORE.INTER.VDW>
-17.2767

>  <SCORE.INTER.norm>
-0.575415

>  <SCORE.INTRA>
-25.236

>  <SCORE.INTRA.DIHEDRAL>
-47.0639

>  <SCORE.INTRA.DIHEDRAL.0>
76.3625

>  <SCORE.INTRA.POLAR>
0

>  <SCORE.INTRA.POLAR.0>
0

>  <SCORE.INTRA.REPUL>
-0.12705

>  <SCORE.INTRA.REPUL.0>
0.12705

>  <SCORE.INTRA.SOLV>
-4.02029

>  <SCORE.INTRA.SOLV.lig_0>
-119.383

>  <SCORE.INTRA.VDW>
0.941337

>  <SCORE.INTRA.VDW.0>
-5.10464

>  <SCORE.INTRA.norm>
-0.788625

>  <SCORE.RESTR>
0.441282

>  <SCORE.RESTR.CAVITY>
0.441282

>  <SCORE.RESTR.norm>
0.0137901

>  <SCORE.SYSTEM>
0

>  <SCORE.SYSTEM.CONST>
0

>  <SCORE.SYSTEM.DIHEDRAL>
0

>  <SCORE.SYSTEM.SOLV>
0

>  <SCORE.SYSTEM.norm>
0

>  <SCORE.heavy>
32

>  <SCORE.norm>
-1.35025

>  <RMSD>
6.406

$$$$
2au4_lig
 OpenBabel11021811423D
libRbt.so/2013.1/901 2013/11/27
 32 34  0  0  0  0  0  0  0  0999 V2000
   70.4012   13.2632    4.6818 P   0  0  1  0  0  0  0  0  0  0  0  0
   72.8285   12.3380    3.8934 P   0  0  1  0  0  0  0  0  0  0  0  0
   73.3516   11.6226    1.3136 P   0  0  2  0  0  0  0  0  0  0  0  0
   68.4934   11.5597    3.9824 C   0  0  0  0  0  0  0  0  0  0  0  0
   69.0756   12.4043    4.9892 O   0  0  0  0  0  0  0  0  0  0  0  0
   68.0288   10.2230    4.5417 C   0  0  0  0  0  0  0  0  0  0  0  0
   66.7956    9.8124    3.9166 O   0  0  0  0  0  0  0  0  0  0  0  0
   69.0712    9.1440    4.2934 C   0  0  0  0  0  0  0  0  0  0  0  0
   69.5943    8.6431    5.5297 O   0  0  0  0  0  0  0  0  0  0  0  0
   68.3798    8.0509    3.5140 C   0  0  0  0  0  0  0  0  0  0  0  0
   68.4350    6.8002    4.2131 O   0  0  0  0  0  0  0  0  0  0  0  0
   66.9414    8.5025    3.3283 C   0  0  0  0  0  0  0  0  0  0  0  0
   67.7306    6.4460   -1.2776 N   0  0  0  0  0  0  0  0  0  0  0  0
   70.3610   13.7032    3.2727 O   0  5  0  0  0  0  0  0  0  0  0  0
   73.1538   13.7743    3.7975 O   0  5  0  0  0  0  0  0  0  0  0  0
   72.6736   11.8705    0.0251 O   0  5  0  0  0  0  0  0  0  0  0  0
   68.3083    6.1305   -0.0708 C   0  0  1  0  0  0  0  0  0  0  0  0
   69.2069    5.1552   -0.0864 N   0  0  0  0  0  0  0  0  0  0  0  0
   70.5822   14.2552    5.7632 O   0  0  0  0  0  0  0  0  0  0  0  0
   73.8521   11.3749    4.3498 O   0  0  0  0  0  0  0  0  0  0  0  0
   74.0210   10.3283    1.5598 O   0  0  0  0  0  0  0  0  0  0  0  0
   68.0163    6.7441    1.0733 N   0  0  0  0  0  0  0  0  0  0  0  0
   71.5518   12.1783    4.8212 O   0  0  0  0  0  0  0  0  0  0  0  0
   72.2906   11.8529    2.4790 O   0  0  0  0  0  0  0  0  0  0  0  0
   74.4134   12.8017    1.5644 O   0  0  0  0  0  0  0  0  0  0  0  0
   67.0868    7.7135    0.9090 C   0  0  2  0  0  0  0  0  0  0  0  0
   66.4565    8.0943   -0.2647 C   0  0  2  0  0  0  0  0  0  0  0  0
   66.7793    7.4310   -1.4739 C   0  0  1  0  0  0  0  0  0  0  0  0
   66.3460    7.6472   -2.5977 O   0  0  0  0  0  0  0  0  0  0  0  0
   65.5556    9.1385   -0.0300 N   0  0  0  0  0  0  0  0  0  0  0  0
   65.6971    9.3181    1.2427 C   0  0  0  0  0  0  0  0  0  0  0  0
   66.5814    8.5247    1.8972 N   0  0  0  0  0  0  0  0  0  0  0  0
  1  5  1  1  0  0  0
  1 14  1  0  0  0  0
  1 19  2  0  0  0  0
  2 15  1  6  0  0  0
  2 20  2  0  0  0  0
  2 23  1  0  0  0  0
  3 16  1  6  0  0  0
  3 21  2  0  0  0  0
  3 24  1  0  0  0  0
  3 25  1  0  0  0  0
  4  6  1  0  0  0  0
  5  4  1  0  0  0  0
  6  7  1  0  0  0  0
  6  8  2  0  0  0  0
  7 12  1  0  0  0  0
  8  9  1  0  0  0  0
  8 10  1  0  0  0  0
 10 11  1  0  0  0  0
 10 12  2  0  0  0  0
 12 32  1  0  0  0  0
 13 17  1  0  0  0  0
 17 18  1  6  0  0  0
 17 22  1  0  0  0  0
 23  1  1  0  0  0  0
 24  2  1  0  0  0  0
 26 22  1  6  0  0  0
 27 26  1  0  0  0  0
 27 28  1  0  0  0  0
 27 30  1  6  0  0  0
 28 13  1  0  0  0  0
 28 29  1  6  0  0  0
 31 30  1  0  0  0  0
 32 26  1  0  0  0  0
 32 31  1  0  0  0  0
M  CHG  3  14  -1  15  -1  16  -1
M  END
>  <CHROM.1>
34.77226422,38.76743090,-151.19480447,142.11923246,138.54388948,150.60465831
147.34424317,76.11276249,69.83078438,10.25591337,2.47934238,0.75891279,0.44443660
0.98174719

>  <Name>
2au4_lig

>  <RI>
0

>  <Rbt.Current_Directory>
/home/itssahil/PROJECTS/Mol_Feturizer/New_Systems/rnas/2au4

>  <Rbt.Executable>
rbdock ($Id: //depot/dev/client3/rdock/2013.1/src/exe/rbdock.cxx#4 $)

>  <Rbt.Library>
libRbt.so (2013.1, Build901 2013/11/27)

>  <Rbt.Parameter_File>
/export/apps/rDock/src/rDock_2013.1_src/data/scripts/dock_solv.prm

>  <Rbt.Receptor>
prm/pocket_docking_8.prm

>  <SCORE>
-40.0005

>  <SCORE.INTER>
-16.6978

>  <SCORE.INTER.CONST>
1

>  <SCORE.INTER.POLAR>
-2.56651

>  <SCORE.INTER.ROT>
8

>  <SCORE.INTER.SOLV>
25.8497

>  <SCORE.INTER.VDW>
-20.1267

>  <SCORE.INTER.norm>
-0.521805

>  <SCORE.INTRA>
-23.3028

>  <SCORE.INTRA.DIHEDRAL>
-42.4363

>  <SCORE.INTRA.DIHEDRAL.0>
76.3625

>  <SCORE.INTRA.POLAR>
0

>  <SCORE.INTRA.POLAR.0>
0

>  <SCORE.INTRA.REPUL>
-0.12705

>  <SCORE.INTRA.REPUL.0>
0.12705

>  <SCORE.INTRA.SOLV>
-6.25455

>  <SCORE.INTRA.SOLV.lig_0>
-119.383

>  <SCORE.INTRA.VDW>
1.67788

>  <SCORE.INTRA.VDW.0>
-5.10464

>  <SCORE.INTRA.norm>
-0.728211

>  <SCORE.RESTR>
0

>  <SCORE.RESTR.CAVITY>
0

>  <SCORE.RESTR.norm>
0

>  <SCORE.SYSTEM>
0

>  <SCORE.SYSTEM.CONST>
0

>  <SCORE.SYSTEM.DIHEDRAL>
0

>  <SCORE.SYSTEM.SOLV>
0

>  <SCORE.SYSTEM.norm>
0

>  <SCORE.heavy>
32

>  <SCORE.norm>
-1.25002

>  <RMSD>
6.406

$$$$
2au4_lig
 OpenBabel11021811423D
libRbt.so/2013.1/901 2013/11/27
 32 34  0  0  0  0  0  0  0  0999 V2000
   69.9102   13.8580    4.1118 P   0  0  1  0  0  0  0  0  0  0  0  0
   72.4582   12.9308    4.2426 P   0  0  1  0  0  0  0  0  0  0  0  0
   73.3861   11.6620    2.0133 P   0  0  2  0  0  0  0  0  0  0  0  0
   68.9941   11.6035    5.1647 C   0  0  0  0  0  0  0  0  0  0  0  0
   69.3807   12.9755    5.3488 O   0  0  0  0  0  0  0  0  0  0  0  0
   67.6203   11.4670    4.5247 C   0  0  0  0  0  0  0  0  0  0  0  0
   67.7013   10.6949    3.3091 O   0  0  0  0  0  0  0  0  0  0  0  0
   66.6535   10.7695    5.4687 C   0  0  0  0  0  0  0  0  0  0  0  0
   65.5800   11.6430    5.8397 O   0  0  0  0  0  0  0  0  0  0  0  0
   66.1365    9.5560    4.7335 C   0  0  0  0  0  0  0  0  0  0  0  0
   64.7087    9.5949    4.6067 O   0  0  0  0  0  0  0  0  0  0  0  0
   66.8003    9.5688    3.3674 C   0  0  0  0  0  0  0  0  0  0  0  0
   69.6823    6.8837    0.1192 N   0  0  0  0  0  0  0  0  0  0  0  0
   68.8301   13.9602    3.1099 O   0  5  0  0  0  0  0  0  0  0  0  0
   73.1981   14.1456    3.8489 O   0  5  0  0  0  0  0  0  0  0  0  0
   74.0571   10.3973    1.6506 O   0  5  0  0  0  0  0  0  0  0  0  0
   69.1512    8.1436   -0.0224 C   0  0  1  0  0  0  0  0  0  0  0  0
   69.4112    8.7662   -1.1642 N   0  0  0  0  0  0  0  0  0  0  0  0
   70.5462   15.0824    4.6434 O   0  0  0  0  0  0  0  0  0  0  0  0
   72.2229   12.6366    5.6715 O   0  0  0  0  0  0  0  0  0  0  0  0
   73.9864   12.9553    1.6247 O   0  0  0  0  0  0  0  0  0  0  0  0
   68.4092    8.7435    0.9052 N   0  0  0  0  0  0  0  0  0  0  0  0
   71.0549   12.9419    3.5031 O   0  0  0  0  0  0  0  0  0  0  0  0
   73.1814   11.6739    3.5927 O   0  0  0  0  0  0  0  0  0  0  0  0
   71.8780   11.6136    1.4619 O   0  0  0  0  0  0  0  0  0  0  0  0
   68.2387    7.9686    2.0011 C   0  0  2  0  0  0  0  0  0  0  0  0
   68.7361    6.6949    2.2252 C   0  0  2  0  0  0  0  0  0  0  0  0
   69.5239    6.0707    1.2272 C   0  0  1  0  0  0  0  0  0  0  0  0
   70.0209    4.9525    1.2411 O   0  0  0  0  0  0  0  0  0  0  0  0
   68.3419    6.2201    3.4807 N   0  0  0  0  0  0  0  0  0  0  0  0
   67.6461    7.2156    3.9244 C   0  0  0  0  0  0  0  0  0  0  0  0
   67.5214    8.3041    3.1249 N   0  0  0  0  0  0  0  0  0  0  0  0
  1  5  1  1  0  0  0
  1 14  1  0  0  0  0
  1 19  2  0  0  0  0
  2 15  1  6  0  0  0
  2 20  2  0  0  0  0
  2 23  1  0  0  0  0
  3 16  1  6  0  0  0
  3 21  2  0  0  0  0
  3 24  1  0  0  0  0
  3 25  1  0  0  0  0
  4  6  1  0  0  0  0
  5  4  1  0  0  0  0
  6  7  1  0  0  0  0
  6  8  2  0  0  0  0
  7 12  1  0  0  0  0
  8  9  1  0  0  0  0
  8 10  1  0  0  0  0
 10 11  1  0  0  0  0
 10 12  2  0  0  0  0
 12 32  1  0  0  0  0
 13 17  1  0  0  0  0
 17 18  1  6  0  0  0
 17 22  1  0  0  0  0
 23  1  1  0  0  0  0
 24  2  1  0  0  0  0
 26 22  1  6  0  0  0
 27 26  1  0  0  0  0
 27 28  1  0  0  0  0
 27 30  1  6  0  0  0
 28 13  1  0  0  0  0
 28 29  1  6  0  0  0
 31 30  1  0  0  0  0
 32 26  1  0  0  0  0
 32 31  1  0  0  0  0
M  CHG  3  14  -1  15  -1  16  -1
M  END
>  <CHROM.1>
62.03672060,-79.29180412,-179.27785613,122.86142320,-77.36311350,-59.32797038
-78.60543070,-55.86504972,69.86311225,10.71009923,3.14184501,0.87852189,0.40505219
0.54132481

>  <Name>
2au4_lig

>  <RI>
0

>  <Rbt.Current_Directory>
/home/itssahil/PROJECTS/Mol_Feturizer/New_Systems/rnas/2au4

>  <Rbt.Executable>
rbdock ($Id: //depot/dev/client3/rdock/2013.1/src/exe/rbdock.cxx#4 $)

>  <Rbt.Library>
libRbt.so (2013.1, Build901 2013/11/27)

>  <Rbt.Parameter_File>
/export/apps/rDock/src/rDock_2013.1_src/data/scripts/dock_solv.prm

>  <Rbt.Receptor>
prm/pocket_docking_7.prm

>  <SCORE>
-40.6841

>  <SCORE.INTER>
-20.0928

>  <SCORE.INTER.CONST>
1

>  <SCORE.INTER.POLAR>
-3.46689

>  <SCORE.INTER.ROT>
8

>  <SCORE.INTER.SOLV>
33.6112

>  <SCORE.INTER.VDW>
-21.976

>  <SCORE.INTER.norm>
-0.6279

>  <SCORE.INTRA>
-20.5913

>  <SCORE.INTRA.DIHEDRAL>
-37.1761

>  <SCORE.INTRA.DIHEDRAL.0>
76.3625

>  <SCORE.INTRA.POLAR>
0

>  <SCORE.INTRA.POLAR.0>
0

>  <SCORE.INTRA.REPUL>
-0.0988314

>  <SCORE.INTRA.REPUL.0>
0.12705

>  <SCORE.INTRA.SOLV>
-5.52435

>  <SCORE.INTRA.SOLV.lig_0>
-119.383

>  <SCORE.INTRA.VDW>
1.25305

>  <SCORE.INTRA.VDW.0>
-5.10464

>  <SCORE.INTRA.norm>
-0.64348

>  <SCORE.RESTR>
0

>  <SCORE.RESTR.CAVITY>
0

>  <SCORE.RESTR.norm>
0

>  <SCORE.SYSTEM>
0

>  <SCORE.SYSTEM.CONST>
0

>  <SCORE.SYSTEM.DIHEDRAL>
0

>  <SCORE.SYSTEM.SOLV>
0

>  <SCORE.SYSTEM.norm>
0

>  <SCORE.heavy>
32

>  <SCORE.norm>
-1.27138

>  <RMSD>
6.462

$$$$
2au4_lig
 OpenBabel11021811423D
libRbt.so/2013.1/901 2013/11/27
 32 34  0  0  0  0  0  0  0  0999 V2000
   67.2740    6.9312    1.2533 P   0  0  1  0  0  0  0  0  0  0  0  0
   68.8160    7.0312   -0.9786 P   0  0  1  0  0  0  0  0  0  0  0  0
   70.3910    4.8065   -0.8748 P   0  0  2  0  0  0  0  0  0  0  0  0
   65.9677    9.2370    1.1676 C   0  0  0  0  0  0  0  0  0  0  0  0
   67.2224    8.5363    1.1502 O   0  0  0  0  0  0  0  0  0  0  0  0
   66.1301   10.7129    1.5004 C   0  0  0  0  0  0  0  0  0  0  0  0
   67.1337   10.8958    2.5200 O   0  0  0  0  0  0  0  0  0  0  0  0
   66.5527   11.4992    0.2693 C   0  0  0  0  0  0  0  0  0  0  0  0
   65.5474   12.4506   -0.1008 O   0  0  0  0  0  0  0  0  0  0  0  0
   67.8483   12.1888    0.6247 C   0  0  0  0  0  0  0  0  0  0  0  0
   67.7325   13.6118    0.4917 O   0  0  0  0  0  0  0  0  0  0  0  0
   68.1573   11.8042    2.0613 C   0  0  0  0  0  0  0  0  0  0  0  0
   72.9116   11.6537    0.2065 N   0  0  0  0  0  0  0  0  0  0  0  0
   67.3995    6.5545    2.6757 O   0  5  0  0  0  0  0  0  0  0  0  0
   67.6977    6.4625   -1.7558 O   0  5  0  0  0  0  0  0  0  0  0  0
   70.5769    4.8759    0.5887 O   0  5  0  0  0  0  0  0  0  0  0  0
   71.8474   12.4318   -0.1830 C   0  0  1  0  0  0  0  0  0  0  0  0
   72.0678   13.2683   -1.1884 N   0  0  0  0  0  0  0  0  0  0  0  0
   66.1803    6.3700    0.4318 O   0  0  0  0  0  0  0  0  0  0  0  0
   69.0722    8.4863   -1.0042 O   0  0  0  0  0  0  0  0  0  0  0  0
   71.4266    4.1798   -1.7227 O   0  0  0  0  0  0  0  0  0  0  0  0
   70.6449   12.3804    0.3845 N   0  0  0  0  0  0  0  0  0  0  0  0
   68.6468    6.5862    0.5345 O   0  0  0  0  0  0  0  0  0  0  0  0
   70.1523    6.2874   -1.4102 O   0  0  0  0  0  0  0  0  0  0  0  0
   68.9844    4.0911   -1.1753 O   0  0  0  0  0  0  0  0  0  0  0  0
   70.5930   11.4735    1.3872 C   0  0  2  0  0  0  0  0  0  0  0  0
   71.6123   10.6528    1.8424 C   0  0  2  0  0  0  0  0  0  0  0  0
   72.8862   10.7199    1.2268 C   0  0  1  0  0  0  0  0  0  0  0  0
   73.8864   10.0609    1.4775 O   0  0  0  0  0  0  0  0  0  0  0  0
   71.1700    9.8480    2.8979 N   0  0  0  0  0  0  0  0  0  0  0  0
   69.9384   10.2256    3.0095 C   0  0  0  0  0  0  0  0  0  0  0  0
   69.4936   11.1857    2.1608 N   0  0  0  0  0  0  0  0  0  0  0  0
  1  5  1  6  0  0  0
  1 14  1  0  0  0  0
  1 19  2  0  0  0  0
  2 15  1  6  0  0  0
  2 20  2  0  0  0  0
  2 23  1  0  0  0  0
  3 16  1  1  0  0  0
  3 21  2  0  0  0  0
  3 24  1  0  0  0  0
  3 25  1  0  0  0  0
  4  6  1  0  0  0  0
  5  4  1  0  0  0  0
  6  7  1  0  0  0  0
  6  8  2  0  0  0  0
  7 12  1  0  0  0  0
  8  9  1  0  0  0  0
  8 10  1  0  0  0  0
 10 11  1  0  0  0  0
 10 12  2  0  0  0  0
 12 32  1  0  0  0  0
 13 17  1  0  0  0  0
 17 18  1  6  0  0  0
 17 22  1  0  0  0  0
 23  1  1  0  0  0  0
 24  2  1  0  0  0  0
 26 22  1  6  0  0  0
 27 26  1  0  0  0  0
 27 28  1  0  0  0  0
 27 30  1  6  0  0  0
 28 13  1  0  0  0  0
 28 29  1  6  0  0  0
 31 30  1  0  0  0  0
 32 26  1  0  0  0  0
 32 31  1  0  0  0  0
M  CHG  3  14  -1  15  -1  16  -1
M  END
>  <CHROM.1>
-91.62956909,-55.37573530,-66.84649345,-39.05568178,161.90369967,152.54381867
-59.64488420,-75.12290870,69.18986798,8.86588794,0.49475931,1.64592637,-0.11843150
-2.91215030

>  <Name>
2au4_lig

>  <RI>
0

>  <Rbt.Current_Directory>
/home/itssahil/PROJECTS/Mol_Feturizer/New_Systems/rnas/2au4

>  <Rbt.Executable>
rbdock ($Id: //depot/dev/client3/rdock/2013.1/src/exe/rbdock.cxx#4 $)

>  <Rbt.Library>
libRbt.so (2013.1, Build901 2013/11/27)

>  <Rbt.Parameter_File>
/export/apps/rDock/src/rDock_2013.1_src/data/scripts/dock_solv.prm

>  <Rbt.Receptor>
prm/pocket_docking_3.prm

>  <SCORE>
-36.4586

>  <SCORE.INTER>
-11.637

>  <SCORE.INTER.CONST>
1

>  <SCORE.INTER.POLAR>
-0.876678

>  <SCORE.INTER.ROT>
8

>  <SCORE.INTER.SOLV>
34.2973

>  <SCORE.INTER.VDW>
-25.2015

>  <SCORE.INTER.norm>
-0.363656

>  <SCORE.INTRA>
-26.0948

>  <SCORE.INTRA.DIHEDRAL>
-47.5204

>  <SCORE.INTRA.DIHEDRAL.0>
76.3625

>  <SCORE.INTRA.POLAR>
0

>  <SCORE.INTRA.POLAR.0>
0

>  <SCORE.INTRA.REPUL>
-0.12705

>  <SCORE.INTRA.REPUL.0>
0.12705

>  <SCORE.INTRA.SOLV>
-4.42159

>  <SCORE.INTRA.SOLV.lig_0>
-119.383

>  <SCORE.INTRA.VDW>
0.511511

>  <SCORE.INTRA.VDW.0>
-5.10464

>  <SCORE.INTRA.norm>
-0.815461

>  <SCORE.RESTR>
1.27319

>  <SCORE.RESTR.CAVITY>
1.27319

>  <SCORE.RESTR.norm>
0.0397873

>  <SCORE.SYSTEM>
0

>  <SCORE.SYSTEM.CONST>
0

>  <SCORE.SYSTEM.DIHEDRAL>
0

>  <SCORE.SYSTEM.SOLV>
0

>  <SCORE.SYSTEM.norm>
0

>  <SCORE.heavy>
32

>  <SCORE.norm>
-1.13933

>  <RMSD>
6.466

$$$$
2au4_lig
 OpenBabel11021811423D
libRbt.so/2013.1/901 2013/11/27
 32 34  0  0  0  0  0  0  0  0999 V2000
   69.1735   12.6698   -1.1930 P   0  0  1  0  0  0  0  0  0  0  0  0
   71.7852   13.2168   -0.6938 P   0  0  1  0  0  0  0  0  0  0  0  0
   72.3631   12.2435    1.7880 P   0  0  2  0  0  0  0  0  0  0  0  0
   68.3127   10.2216   -0.6493 C   0  0  0  0  0  0  0  0  0  0  0  0
   69.2988   11.2480   -0.4499 O   0  0  0  0  0  0  0  0  0  0  0  0
   68.0373    9.4252    0.6177 C   0  0  0  0  0  0  0  0  0  0  0  0
   66.6192    9.2348    0.7994 O   0  0  0  0  0  0  0  0  0  0  0  0
   68.6967    8.0566    0.5474 C   0  0  0  0  0  0  0  0  0  0  0  0
   69.6998    7.9188    1.5611 O   0  0  0  0  0  0  0  0  0  0  0  0
   67.5953    7.0400    0.7318 C   0  0  0  0  0  0  0  0  0  0  0  0
   67.8473    6.2017    1.8674 O   0  0  0  0  0  0  0  0  0  0  0  0
   66.3113    7.8297    0.9180 C   0  0  0  0  0  0  0  0  0  0  0  0
   62.4352    9.3368   -2.0436 N   0  0  0  0  0  0  0  0  0  0  0  0
   69.6183   12.5106   -2.5922 O   0  5  0  0  0  0  0  0  0  0  0  0
   71.9309   12.7725   -2.0936 O   0  5  0  0  0  0  0  0  0  0  0  0
   73.5777   13.0815    1.8480 O   0  5  0  0  0  0  0  0  0  0  0  0
   63.1998   10.0698   -1.1674 C   0  0  1  0  0  0  0  0  0  0  0  0
   62.8986   11.3569   -1.0591 N   0  0  0  0  0  0  0  0  0  0  0  0
   67.8415   13.2403   -0.8992 O   0  0  0  0  0  0  0  0  0  0  0  0
   72.5935   14.3449   -0.1861 O   0  0  0  0  0  0  0  0  0  0  0  0
   72.3214   10.9499    2.5014 O   0  0  0  0  0  0  0  0  0  0  0  0
   64.1936    9.5590   -0.4448 N   0  0  0  0  0  0  0  0  0  0  0  0
   70.2559   13.5490   -0.4342 O   0  0  0  0  0  0  0  0  0  0  0  0
   72.0330   11.9662    0.2548 O   0  0  0  0  0  0  0  0  0  0  0  0
   71.1104   13.1291    2.2646 O   0  0  0  0  0  0  0  0  0  0  0  0
   64.3618    8.2360   -0.6730 C   0  0  2  0  0  0  0  0  0  0  0  0
   63.6403    7.4251   -1.5342 C   0  0  2  0  0  0  0  0  0  0  0  0
   62.5853    7.9849   -2.2957 C   0  0  1  0  0  0  0  0  0  0  0  0
   61.8331    7.4221   -3.0799 O   0  0  0  0  0  0  0  0  0  0  0  0
   64.1129    6.1091   -1.4922 N   0  0  0  0  0  0  0  0  0  0  0  0
   65.0683    6.2072   -0.6265 C   0  0  0  0  0  0  0  0  0  0  0  0
   65.3003    7.4260   -0.0785 N   0  0  0  0  0  0  0  0  0  0  0  0
  1  5  1  1  0  0  0
  1 14  1  0  0  0  0
  1 19  2  0  0  0  0
  2 15  1  6  0  0  0
  2 20  2  0  0  0  0
  2 23  1  0  0  0  0
  3 16  1  1  0  0  0
  3 21  2  0  0  0  0
  3 24  1  0  0  0  0
  3 25  1  0  0  0  0
  4  6  1  0  0  0  0
  5  4  1  0  0  0  0
  6  7  1  0  0  0  0
  6  8  2  0  0  0  0
  7 12  1  0  0  0  0
  8  9  1  0  0  0  0
  8 10  1  0  0  0  0
 10 11  1  0  0  0  0
 10 12  2  0  0  0  0
 12 32  1  0  0  0  0
 13 17  1  0  0  0  0
 17 18  1  1  0  0  0
 17 22  1  0  0  0  0
 23  1  1  0  0  0  0
 24  2  1  0  0  0  0
 26 22  1  1  0  0  0
 27 26  1  0  0  0  0
 27 28  1  0  0  0  0
 27 30  1  1  0  0  0
 28 13  1  0  0  0  0
 28 29  1  1  0  0  0
 31 30  1  0  0  0  0
 32 26  1  0  0  0  0
 32 31  1  0  0  0  0
M  CHG  3  14  -1  15  -1  16  -1
M  END
>  <CHROM.1>
-78.25310908,33.98233319,-58.48149989,135.48897978,-143.39985004,-25.23033565
70.82237983,162.10356926,68.18805644,10.43124078,-0.21522154,0.37561446,-0.43735202
-0.50716441

>  <Name>
2au4_lig

>  <RI>
0

>  <Rbt.Current_Directory>
/home/itssahil/PROJECTS/Mol_Feturizer/New_Systems/rnas/2au4

>  <Rbt.Executable>
rbdock ($Id: //depot/dev/client3/rdock/2013.1/src/exe/rbdock.cxx#4 $)

>  <Rbt.Library>
libRbt.so (2013.1, Build901 2013/11/27)

>  <Rbt.Parameter_File>
/export/apps/rDock/src/rDock_2013.1_src/data/scripts/dock_solv.prm

>  <Rbt.Receptor>
prm/pocket_docking_7.prm

>  <SCORE>
-45.0547

>  <SCORE.INTER>
-22.3767

>  <SCORE.INTER.CONST>
1

>  <SCORE.INTER.POLAR>
-2.30252

>  <SCORE.INTER.ROT>
8

>  <SCORE.INTER.SOLV>
26.2867

>  <SCORE.INTER.VDW>
-24.9383

>  <SCORE.INTER.norm>
-0.699271

>  <SCORE.INTRA>
-22.678

>  <SCORE.INTRA.DIHEDRAL>
-44.3679

>  <SCORE.INTRA.DIHEDRAL.0>
76.3625

>  <SCORE.INTRA.POLAR>
0

>  <SCORE.INTRA.POLAR.0>
0

>  <SCORE.INTRA.REPUL>
0.0756312

>  <SCORE.INTRA.REPUL.0>
0.12705

>  <SCORE.INTRA.SOLV>
-6.92299

>  <SCORE.INTRA.SOLV.lig_0>
-119.383

>  <SCORE.INTRA.VDW>
2.58925

>  <SCORE.INTRA.VDW.0>
-5.10464

>  <SCORE.INTRA.norm>
-0.708688

>  <SCORE.RESTR>
0

>  <SCORE.RESTR.CAVITY>
0

>  <SCORE.RESTR.norm>
0

>  <SCORE.SYSTEM>
0

>  <SCORE.SYSTEM.CONST>
0

>  <SCORE.SYSTEM.DIHEDRAL>
0

>  <SCORE.SYSTEM.SOLV>
0

>  <SCORE.SYSTEM.norm>
0

>  <SCORE.heavy>
32

>  <SCORE.norm>
-1.40796

>  <RMSD>
6.472

$$$$
2au4_lig
 OpenBabel11021811423D
libRbt.so/2013.1/901 2013/11/27
 32 34  0  0  0  0  0  0  0  0999 V2000
   64.7409    7.6954   -1.3743 P   0  0  1  0  0  0  0  0  0  0  0  0
   67.1799    6.5147   -1.5370 P   0  0  1  0  0  0  0  0  0  0  0  0
   69.2445    4.8424   -0.9192 P   0  0  2  0  0  0  0  0  0  0  0  0
   64.3956   10.3191   -1.5398 C   0  0  0  0  0  0  0  0  0  0  0  0
   65.2083    9.2129   -1.1137 O   0  0  0  0  0  0  0  0  0  0  0  0
   64.8937   11.6504   -0.9966 C   0  0  0  0  0  0  0  0  0  0  0  0
   64.7646   11.6928    0.4393 O   0  0  0  0  0  0  0  0  0  0  0  0
   66.3575   11.8623   -1.3500 C   0  0  0  0  0  0  0  0  0  0  0  0
   66.5172   12.9945   -2.2133 O   0  0  0  0  0  0  0  0  0  0  0  0
   67.0884   12.0676   -0.0446 C   0  0  0  0  0  0  0  0  0  0  0  0
   67.7541   13.3373   -0.0164 O   0  0  0  0  0  0  0  0  0  0  0  0
   66.0393   11.9837    1.0506 C   0  0  0  0  0  0  0  0  0  0  0  0
   69.7979    9.2280    3.1352 N   0  0  0  0  0  0  0  0  0  0  0  0
   63.4886    7.4540   -0.6297 O   0  5  0  0  0  0  0  0  0  0  0  0
   66.8317    5.4311   -2.4766 O   0  5  0  0  0  0  0  0  0  0  0  0
   68.5116    3.6090   -1.2697 O   0  5  0  0  0  0  0  0  0  0  0  0
   69.8600   10.1809    2.1464 C   0  0  1  0  0  0  0  0  0  0  0  0
   71.0625   10.4313    1.6460 N   0  0  0  0  0  0  0  0  0  0  0  0
   64.8035    7.4248   -2.8265 O   0  0  0  0  0  0  0  0  0  0  0  0
   67.7448    7.7825   -2.0441 O   0  0  0  0  0  0  0  0  0  0  0  0
   70.3235    4.7998    0.0897 O   0  0  0  0  0  0  0  0  0  0  0  0
   68.7997   10.8381    1.6831 N   0  0  0  0  0  0  0  0  0  0  0  0
   65.8934    6.8574   -0.6745 O   0  0  0  0  0  0  0  0  0  0  0  0
   68.1795    5.9295   -0.4491 O   0  0  0  0  0  0  0  0  0  0  0  0
   69.8332    5.4849   -2.2687 O   0  0  0  0  0  0  0  0  0  0  0  0
   67.6560   10.4581    2.2980 C   0  0  2  0  0  0  0  0  0  0  0  0
   67.5047    9.5116    3.2984 C   0  0  2  0  0  0  0  0  0  0  0  0
   68.6437    8.8208    3.7799 C   0  0  1  0  0  0  0  0  0  0  0  0
   68.6963    7.9446    4.6325 O   0  0  0  0  0  0  0  0  0  0  0  0
   66.1628    9.3975    3.6774 N   0  0  0  0  0  0  0  0  0  0  0  0
   65.6018   10.2632    2.8978 C   0  0  0  0  0  0  0  0  0  0  0  0
   66.3978   10.9483    2.0394 N   0  0  0  0  0  0  0  0  0  0  0  0
  1  5  1  1  0  0  0
  1 14  1  0  0  0  0
  1 19  2  0  0  0  0
  2 15  1  6  0  0  0
  2 20  2  0  0  0  0
  2 23  1  0  0  0  0
  3 16  1  6  0  0  0
  3 21  2  0  0  0  0
  3 24  1  0  0  0  0
  3 25  1  0  0  0  0
  4  6  1  0  0  0  0
  5  4  1  0  0  0  0
  6  7  1  0  0  0  0
  6  8  2  0  0  0  0
  7 12  1  0  0  0  0
  8  9  1  0  0  0  0
  8 10  1  0  0  0  0
 10 11  1  0  0  0  0
 10 12  2  0  0  0  0
 12 32  1  0  0  0  0
 13 17  1  0  0  0  0
 17 18  1  6  0  0  0
 17 22  1  0  0  0  0
 23  1  1  0  0  0  0
 24  2  1  0  0  0  0
 26 22  1  6  0  0  0
 27 26  1  0  0  0  0
 27 28  1  0  0  0  0
 27 30  1  6  0  0  0
 28 13  1  0  0  0  0
 28 29  1  6  0  0  0
 31 30  1  0  0  0  0
 32 26  1  0  0  0  0
 32 31  1  0  0  0  0
M  CHG  3  14  -1  15  -1  16  -1
M  END
>  <CHROM.1>
-63.09276532,-75.58757910,-68.19481613,-65.66389351,170.33326323,143.60798732
-87.10703872,35.92477837,67.17310946,8.59770355,0.06173737,1.29436954,0.73803125
-2.57260906

>  <Name>
2au4_lig

>  <RI>
0

>  <Rbt.Current_Directory>
/home/itssahil/PROJECTS/Mol_Feturizer/New_Systems/rnas/2au4

>  <Rbt.Executable>
rbdock ($Id: //depot/dev/client3/rdock/2013.1/src/exe/rbdock.cxx#4 $)

>  <Rbt.Library>
libRbt.so (2013.1, Build901 2013/11/27)

>  <Rbt.Parameter_File>
/export/apps/rDock/src/rDock_2013.1_src/data/scripts/dock_solv.prm

>  <Rbt.Receptor>
prm/pocket_docking_5.prm

>  <SCORE>
-39.0517

>  <SCORE.INTER>
-13.1274

>  <SCORE.INTER.CONST>
1

>  <SCORE.INTER.POLAR>
-1.46209

>  <SCORE.INTER.ROT>
8

>  <SCORE.INTER.SOLV>
31.188

>  <SCORE.INTER.VDW>
-23.2073

>  <SCORE.INTER.norm>
-0.410232

>  <SCORE.INTRA>
-25.9243

>  <SCORE.INTRA.DIHEDRAL>
-47.1881

>  <SCORE.INTRA.DIHEDRAL.0>
76.3625

>  <SCORE.INTRA.POLAR>
0

>  <SCORE.INTRA.POLAR.0>
0

>  <SCORE.INTRA.REPUL>
-0.12705

>  <SCORE.INTRA.REPUL.0>
0.12705

>  <SCORE.INTRA.SOLV>
-6.12542

>  <SCORE.INTRA.SOLV.lig_0>
-119.383

>  <SCORE.INTRA.VDW>
1.36773

>  <SCORE.INTRA.VDW.0>
-5.10464

>  <SCORE.INTRA.norm>
-0.810134

>  <SCORE.RESTR>
0

>  <SCORE.RESTR.CAVITY>
0

>  <SCORE.RESTR.norm>
0

>  <SCORE.SYSTEM>
0

>  <SCORE.SYSTEM.CONST>
0

>  <SCORE.SYSTEM.DIHEDRAL>
0

>  <SCORE.SYSTEM.SOLV>
0

>  <SCORE.SYSTEM.norm>
0

>  <SCORE.heavy>
32

>  <SCORE.norm>
-1.22037

>  <RMSD>
6.496

$$$$
2au4_lig
 OpenBabel11021811423D
libRbt.so/2013.1/901 2013/11/27
 32 34  0  0  0  0  0  0  0  0999 V2000
   68.0824    5.3639   -3.2609 P   0  0  1  0  0  0  0  0  0  0  0  0
   69.7569    4.2712   -1.4247 P   0  0  1  0  0  0  0  0  0  0  0  0
   72.3683    4.0168   -2.1708 P   0  0  2  0  0  0  0  0  0  0  0  0
   68.2978    7.8535   -2.3745 C   0  0  0  0  0  0  0  0  0  0  0  0
   68.1888    6.9532   -3.4895 O   0  0  0  0  0  0  0  0  0  0  0  0
   66.9982    7.9705   -1.5918 C   0  0  0  0  0  0  0  0  0  0  0  0
   67.2014    7.6008   -0.2126 O   0  0  0  0  0  0  0  0  0  0  0  0
   66.4730    9.3972   -1.6303 C   0  0  0  0  0  0  0  0  0  0  0  0
   65.2114    9.4603   -2.3064 O   0  0  0  0  0  0  0  0  0  0  0  0
   66.3423    9.8450   -0.1941 C   0  0  0  0  0  0  0  0  0  0  0  0
   64.9929   10.2212    0.1118 O   0  0  0  0  0  0  0  0  0  0  0  0
   66.7824    8.6699    0.6619 C   0  0  0  0  0  0  0  0  0  0  0  0
   69.6052   12.5161    2.4798 N   0  0  0  0  0  0  0  0  0  0  0  0
   67.1945    5.1123   -2.1080 O   0  5  0  0  0  0  0  0  0  0  0  0
   70.1393    5.2990   -0.4371 O   0  5  0  0  0  0  0  0  0  0  0  0
   72.0364    5.3495   -2.7137 O   0  5  0  0  0  0  0  0  0  0  0  0
   68.5869   12.5417    1.5567 C   0  0  1  0  0  0  0  0  0  0  0  0
   68.2822   13.7291    1.0505 N   0  0  0  0  0  0  0  0  0  0  0  0
   67.8087    4.7171   -4.5620 O   0  0  0  0  0  0  0  0  0  0  0  0
   68.5839    3.4068   -1.1787 O   0  0  0  0  0  0  0  0  0  0  0  0
   73.0929    3.0372   -3.0071 O   0  0  0  0  0  0  0  0  0  0  0  0
   67.9189   11.4614    1.1603 N   0  0  0  0  0  0  0  0  0  0  0  0
   69.5615    4.9804   -2.8301 O   0  0  0  0  0  0  0  0  0  0  0  0
   71.0145    3.3346   -1.6822 O   0  0  0  0  0  0  0  0  0  0  0  0
   73.1796    4.2146   -0.7984 O   0  0  0  0  0  0  0  0  0  0  0  0
   68.3596   10.3372    1.7706 C   0  0  2  0  0  0  0  0  0  0  0  0
   69.3739   10.2225    2.7076 C   0  0  2  0  0  0  0  0  0  0  0  0
   70.0752   11.3825    3.1183 C   0  0  1  0  0  0  0  0  0  0  0  0
   71.0058   11.4674    3.9085 O   0  0  0  0  0  0  0  0  0  0  0  0
   69.5369    8.8910    3.1046 N   0  0  0  0  0  0  0  0  0  0  0  0
   68.6308    8.2995    2.3968 C   0  0  0  0  0  0  0  0  0  0  0  0
   67.8755    9.0660    1.5710 N   0  0  0  0  0  0  0  0  0  0  0  0
  1  5  1  6  0  0  0
  1 14  1  0  0  0  0
  1 19  2  0  0  0  0
  2 15  1  1  0  0  0
  2 20  2  0  0  0  0
  2 23  1  0  0  0  0
  3 16  1  6  0  0  0
  3 21  2  0  0  0  0
  3 24  1  0  0  0  0
  3 25  1  0  0  0  0
  4  6  1  0  0  0  0
  5  4  1  0  0  0  0
  6  7  1  0  0  0  0
  6  8  2  0  0  0  0
  7 12  1  0  0  0  0
  8  9  1  0  0  0  0
  8 10  1  0  0  0  0
 10 11  1  0  0  0  0
 10 12  2  0  0  0  0
 12 32  1  0  0  0  0
 13 17  1  0  0  0  0
 17 18  1  6  0  0  0
 17 22  1  0  0  0  0
 23  1  1  0  0  0  0
 24  2  1  0  0  0  0
 26 22  1  6  0  0  0
 27 26  1  0  0  0  0
 27 28  1  0  0  0  0
 27 30  1  6  0  0  0
 28 13  1  0  0  0  0
 28 29  1  6  0  0  0
 31 30  1  0  0  0  0
 32 26  1  0  0  0  0
 32 31  1  0  0  0  0
M  CHG  3  14  -1  15  -1  16  -1
M  END
>  <CHROM.1>
40.64660723,-97.48421230,-18.77324242,121.92622903,-71.62214461,127.63492761
122.06567574,-56.64538065,69.00574150,7.38006538,-0.65160940,1.26241095,0.47377701
-2.45915689

>  <Name>
2au4_lig

>  <RI>
0

>  <Rbt.Current_Directory>
/home/itssahil/PROJECTS/Mol_Feturizer/New_Systems/rnas/2au4

>  <Rbt.Executable>
rbdock ($Id: //depot/dev/client3/rdock/2013.1/src/exe/rbdock.cxx#4 $)

>  <Rbt.Library>
libRbt.so (2013.1, Build901 2013/11/27)

>  <Rbt.Parameter_File>
/export/apps/rDock/src/rDock_2013.1_src/data/scripts/dock_solv.prm

>  <Rbt.Receptor>
prm/pocket_docking_3.prm

>  <SCORE>
-39.8176

>  <SCORE.INTER>
-23.0684

>  <SCORE.INTER.CONST>
1

>  <SCORE.INTER.POLAR>
-2.76517

>  <SCORE.INTER.ROT>
8

>  <SCORE.INTER.SOLV>
43.144

>  <SCORE.INTER.VDW>
-29.4764

>  <SCORE.INTER.norm>
-0.720886

>  <SCORE.INTRA>
-17.1293

>  <SCORE.INTRA.DIHEDRAL>
-38.1303

>  <SCORE.INTRA.DIHEDRAL.0>
76.3625

>  <SCORE.INTRA.POLAR>
0

>  <SCORE.INTRA.POLAR.0>
0

>  <SCORE.INTRA.REPUL>
-0.12705

>  <SCORE.INTRA.REPUL.0>
0.12705

>  <SCORE.INTRA.SOLV>
-2.37464

>  <SCORE.INTRA.SOLV.lig_0>
-119.383

>  <SCORE.INTRA.VDW>
3.75839

>  <SCORE.INTRA.VDW.0>
-5.10464

>  <SCORE.INTRA.norm>
-0.535292

>  <SCORE.RESTR>
0.38007

>  <SCORE.RESTR.CAVITY>
0.38007

>  <SCORE.RESTR.norm>
0.0118772

>  <SCORE.SYSTEM>
0

>  <SCORE.SYSTEM.CONST>
0

>  <SCORE.SYSTEM.DIHEDRAL>
0

>  <SCORE.SYSTEM.SOLV>
0

>  <SCORE.SYSTEM.norm>
0

>  <SCORE.heavy>
32

>  <SCORE.norm>
-1.2443

>  <RMSD>
6.509

$$$$
2au4_lig
 OpenBabel11021811423D
libRbt.so/2013.1/901 2013/11/27
 32 34  0  0  0  0  0  0  0  0999 V2000
   71.3145   13.7263    2.9597 P   0  0  1  0  0  0  0  0  0  0  0  0
   70.8091   12.2345    5.1707 P   0  0  1  0  0  0  0  0  0  0  0  0
   70.4370    9.6923    4.2545 P   0  0  2  0  0  0  0  0  0  0  0  0
   69.6382   12.7986    1.1267 C   0  0  0  0  0  0  0  0  0  0  0  0
   70.7790   13.6122    1.4465 O   0  0  0  0  0  0  0  0  0  0  0  0
   69.0725   13.1058   -0.2521 C   0  0  0  0  0  0  0  0  0  0  0  0
   69.2963   11.9998   -1.1504 O   0  0  0  0  0  0  0  0  0  0  0  0
   67.5755   13.3619   -0.1751 C   0  0  0  0  0  0  0  0  0  0  0  0
   67.2656   14.7070   -0.5591 O   0  0  0  0  0  0  0  0  0  0  0  0
   66.9220   12.3677   -1.1051 C   0  0  0  0  0  0  0  0  0  0  0  0
   66.1591   13.0314   -2.1218 O   0  0  0  0  0  0  0  0  0  0  0  0
   68.0473   11.5534   -1.7197 C   0  0  0  0  0  0  0  0  0  0  0  0
   64.6507    7.7725   -1.2354 N   0  0  0  0  0  0  0  0  0  0  0  0
   72.7909   13.7509    2.9360 O   0  5  0  0  0  0  0  0  0  0  0  0
   72.1938   12.2580    5.6806 O   0  5  0  0  0  0  0  0  0  0  0  0
   69.6227   10.0905    3.0884 O   0  5  0  0  0  0  0  0  0  0  0  0
   64.4398    9.1085   -1.4810 C   0  0  1  0  0  0  0  0  0  0  0  0
   63.1762    9.4902   -1.6097 N   0  0  0  0  0  0  0  0  0  0  0  0
   70.5662   14.8014    3.6455 O   0  0  0  0  0  0  0  0  0  0  0  0
   69.8198   13.2139    5.6663 O   0  0  0  0  0  0  0  0  0  0  0  0
   70.2599    8.3549    4.8578 O   0  0  0  0  0  0  0  0  0  0  0  0
   65.4169   10.0054   -1.5880 N   0  0  0  0  0  0  0  0  0  0  0  0
   70.8599   12.3414    3.5888 O   0  0  0  0  0  0  0  0  0  0  0  0
   70.2180   10.7773    5.3997 O   0  0  0  0  0  0  0  0  0  0  0  0
   71.9877    9.8815    3.8801 O   0  0  0  0  0  0  0  0  0  0  0  0
   66.6395    9.4489   -1.4260 C   0  0  2  0  0  0  0  0  0  0  0  0
   66.9403    8.1195   -1.1772 C   0  0  2  0  0  0  0  0  0  0  0  0
   65.8881    7.1778   -1.0658 C   0  0  1  0  0  0  0  0  0  0  0  0
   65.9631    5.9800   -0.8269 O   0  0  0  0  0  0  0  0  0  0  0  0
   68.3227    7.9332   -1.0701 N   0  0  0  0  0  0  0  0  0  0  0  0
   68.7587    9.1362   -1.2563 C   0  0  0  0  0  0  0  0  0  0  0  0
   67.8427   10.1121   -1.4762 N   0  0  0  0  0  0  0  0  0  0  0  0
  1  5  1  6  0  0  0
  1 14  1  0  0  0  0
  1 19  2  0  0  0  0
  2 15  1  1  0  0  0
  2 20  2  0  0  0  0
  2 23  1  0  0  0  0
  3 16  1  6  0  0  0
  3 21  2  0  0  0  0
  3 24  1  0  0  0  0
  3 25  1  0  0  0  0
  4  6  1  0  0  0  0
  5  4  1  0  0  0  0
  6  7  1  0  0  0  0
  6  8  2  0  0  0  0
  7 12  1  0  0  0  0
  8  9  1  0  0  0  0
  8 10  1  0  0  0  0
 10 11  1  0  0  0  0
 10 12  2  0  0  0  0
 12 32  1  0  0  0  0
 13 17  1  0  0  0  0
 17 18  1  1  0  0  0
 17 22  1  0  0  0  0
 23  1  1  0  0  0  0
 24  2  1  0  0  0  0
 26 22  1  1  0  0  0
 27 26  1  0  0  0  0
 27 28  1  0  0  0  0
 27 30  1  1  0  0  0
 28 13  1  0  0  0  0
 28 29  1  1  0  0  0
 31 30  1  0  0  0  0
 32 26  1  0  0  0  0
 32 31  1  0  0  0  0
M  CHG  3  14  -1  15  -1  16  -1
M  END
>  <CHROM.1>
141.40708790,-69.78334758,-69.00680123,111.36054116,164.79009575,155.04244633
-161.86246824,-88.82694544,68.87937143,11.12238256,1.44899890,0.07155992
-0.89963155,-0.39780321

>  <Name>
2au4_lig

>  <RI>
0

>  <Rbt.Current_Directory>
/home/itssahil/PROJECTS/Mol_Feturizer/New_Systems/rnas/2au4

>  <Rbt.Executable>
rbdock ($Id: //depot/dev/client3/rdock/2013.1/src/exe/rbdock.cxx#4 $)

>  <Rbt.Library>
libRbt.so (2013.1, Build901 2013/11/27)

>  <Rbt.Parameter_File>
/export/apps/rDock/src/rDock_2013.1_src/data/scripts/dock_solv.prm

>  <Rbt.Receptor>
prm/pocket_docking_7.prm

>  <SCORE>
-41.2905

>  <SCORE.INTER>
-16.9672

>  <SCORE.INTER.CONST>
1

>  <SCORE.INTER.POLAR>
-2.07757

>  <SCORE.INTER.ROT>
8

>  <SCORE.INTER.SOLV>
19.6625

>  <SCORE.INTER.VDW>
-19.8737

>  <SCORE.INTER.norm>
-0.530224

>  <SCORE.INTRA>
-24.3233

>  <SCORE.INTRA.DIHEDRAL>
-46.3474

>  <SCORE.INTRA.DIHEDRAL.0>
76.3625

>  <SCORE.INTRA.POLAR>
0

>  <SCORE.INTRA.POLAR.0>
0

>  <SCORE.INTRA.REPUL>
-0.12705

>  <SCORE.INTRA.REPUL.0>
0.12705

>  <SCORE.INTRA.SOLV>
-5.35606

>  <SCORE.INTRA.SOLV.lig_0>
-119.383

>  <SCORE.INTRA.VDW>
2.16363

>  <SCORE.INTRA.VDW.0>
-5.10464

>  <SCORE.INTRA.norm>
-0.760104

>  <SCORE.RESTR>
0

>  <SCORE.RESTR.CAVITY>
0

>  <SCORE.RESTR.norm>
0

>  <SCORE.SYSTEM>
0

>  <SCORE.SYSTEM.CONST>
0

>  <SCORE.SYSTEM.DIHEDRAL>
0

>  <SCORE.SYSTEM.SOLV>
0

>  <SCORE.SYSTEM.norm>
0

>  <SCORE.heavy>
32

>  <SCORE.norm>
-1.29033

>  <RMSD>
6.518

$$$$
2au4_lig
 OpenBabel11021811423D
libRbt.so/2013.1/901 2013/11/27
 32 34  0  0  0  0  0  0  0  0999 V2000
   64.8300    7.7993   -1.8359 P   0  0  1  0  0  0  0  0  0  0  0  0
   62.3219    8.7126   -2.3307 P   0  0  1  0  0  0  0  0  0  0  0  0
   59.6342    8.7007   -2.7961 P   0  0  2  0  0  0  0  0  0  0  0  0
   66.5316    7.9712    0.1903 C   0  0  0  0  0  0  0  0  0  0  0  0
   65.1750    7.8351   -0.2646 O   0  0  0  0  0  0  0  0  0  0  0  0
   66.7513    7.3467    1.5605 C   0  0  0  0  0  0  0  0  0  0  0  0
   67.2537    6.0011    1.4301 O   0  0  0  0  0  0  0  0  0  0  0  0
   67.7568    8.1550    2.3656 C   0  0  0  0  0  0  0  0  0  0  0  0
   67.1456    8.7144    3.5345 O   0  0  0  0  0  0  0  0  0  0  0  0
   68.8710    7.2058    2.7370 C   0  0  0  0  0  0  0  0  0  0  0  0
   69.0274    7.1201    4.1598 O   0  0  0  0  0  0  0  0  0  0  0  0
   68.4945    5.8551    2.1530 C   0  0  0  0  0  0  0  0  0  0  0  0
   69.7752    4.4723   -2.5919 N   0  0  0  0  0  0  0  0  0  0  0  0
   65.0643    9.1437   -2.4002 O   0  5  0  0  0  0  0  0  0  0  0  0
   62.6103    9.9093   -1.5165 O   0  5  0  0  0  0  0  0  0  0  0  0
   58.4918    8.8781   -1.8770 O   0  5  0  0  0  0  0  0  0  0  0  0
   68.5708    4.9283   -2.1112 C   0  0  1  0  0  0  0  0  0  0  0  0
   67.5849    5.0259   -2.9930 N   0  0  0  0  0  0  0  0  0  0  0  0
   65.4868    6.6186   -2.4366 O   0  0  0  0  0  0  0  0  0  0  0  0
   62.4055    8.7808   -3.8044 O   0  0  0  0  0  0  0  0  0  0  0  0
   59.5017    7.8260   -3.9799 O   0  0  0  0  0  0  0  0  0  0  0  0
   68.3584    5.2614   -0.8405 N   0  0  0  0  0  0  0  0  0  0  0  0
   63.2644    7.5362   -1.8366 O   0  0  0  0  0  0  0  0  0  0  0  0
   60.8750    8.1823   -1.9427 O   0  0  0  0  0  0  0  0  0  0  0  0
   60.1229   10.1506   -3.2855 O   0  0  0  0  0  0  0  0  0  0  0  0
   69.4647    5.0979   -0.0790 C   0  0  2  0  0  0  0  0  0  0  0  0
   70.7117    4.6466   -0.4803 C   0  0  2  0  0  0  0  0  0  0  0  0
   70.9207    4.2958   -1.8366 C   0  0  1  0  0  0  0  0  0  0  0  0
   71.9372    3.8601   -2.3604 O   0  0  0  0  0  0  0  0  0  0  0  0
   71.6004    4.6129    0.5996 N   0  0  0  0  0  0  0  0  0  0  0  0
   70.8492    5.0361    1.5632 C   0  0  0  0  0  0  0  0  0  0  0  0
   69.5634    5.3518    1.2685 N   0  0  0  0  0  0  0  0  0  0  0  0
  1  5  1  1  0  0  0
  1 14  1  0  0  0  0
  1 19  2  0  0  0  0
  2 15  1  1  0  0  0
  2 20  2  0  0  0  0
  2 23  1  0  0  0  0
  3 16  1  1  0  0  0
  3 21  2  0  0  0  0
  3 24  1  0  0  0  0
  3 25  1  0  0  0  0
  4  6  1  0  0  0  0
  5  4  1  0  0  0  0
  6  7  1  0  0  0  0
  6  8  2  0  0  0  0
  7 12  1  0  0  0  0
  8  9  1  0  0  0  0
  8 10  1  0  0  0  0
 10 11  1  0  0  0  0
 10 12  2  0  0  0  0
 12 32  1  0  0  0  0
 13 17  1  0  0  0  0
 17 18  1  1  0  0  0
 17 22  1  0  0  0  0
 23  1  1  0  0  0  0
 24  2  1  0  0  0  0
 26 22  1  1  0  0  0
 27 26  1  0  0  0  0
 27 28  1  0  0  0  0
 27 30  1  1  0  0  0
 28 13  1  0  0  0  0
 28 29  1  1  0  0  0
 31 30  1  0  0  0  0
 32 26  1  0  0  0  0
 32 31  1  0  0  0  0
M  CHG  3  14  -1  15  -1  16  -1
M  END
>  <CHROM.1>
-69.95473606,-55.84887687,-143.07035195,95.12953864,-152.72184035,2.80833992
111.35852453,92.49431699,65.71452216,7.12170902,-0.91813770,-2.98284411,-0.44360761
1.19852312

>  <Name>
2au4_lig

>  <RI>
0

>  <Rbt.Current_Directory>
/home/itssahil/PROJECTS/Mol_Feturizer/New_Systems/rnas/2au4

>  <Rbt.Executable>
rbdock ($Id: //depot/dev/client3/rdock/2013.1/src/exe/rbdock.cxx#4 $)

>  <Rbt.Library>
libRbt.so (2013.1, Build901 2013/11/27)

>  <Rbt.Parameter_File>
/export/apps/rDock/src/rDock_2013.1_src/data/scripts/dock_solv.prm

>  <Rbt.Receptor>
prm/blind_docking_80.prm

>  <SCORE>
-35.6865

>  <SCORE.INTER>
-21.5841

>  <SCORE.INTER.CONST>
1

>  <SCORE.INTER.POLAR>
-0.968246

>  <SCORE.INTER.ROT>
8

>  <SCORE.INTER.SOLV>
42.114

>  <SCORE.INTER.VDW>
-34.1332

>  <SCORE.INTER.norm>
-0.674503

>  <SCORE.INTRA>
-14.7444

>  <SCORE.INTRA.DIHEDRAL>
-29.4664

>  <SCORE.INTRA.DIHEDRAL.0>
76.3625

>  <SCORE.INTRA.POLAR>
0

>  <SCORE.INTRA.POLAR.0>
0

>  <SCORE.INTRA.REPUL>
-0.12705

>  <SCORE.INTRA.REPUL.0>
0.12705

>  <SCORE.INTRA.SOLV>
-2.33639

>  <SCORE.INTRA.SOLV.lig_0>
-119.383

>  <SCORE.INTRA.VDW>
1.7923

>  <SCORE.INTRA.VDW.0>
-5.10464

>  <SCORE.INTRA.norm>
-0.460761

>  <SCORE.RESTR>
0.64195

>  <SCORE.RESTR.CAVITY>
0.64195

>  <SCORE.RESTR.norm>
0.0200609

>  <SCORE.SYSTEM>
0

>  <SCORE.SYSTEM.CONST>
0

>  <SCORE.SYSTEM.DIHEDRAL>
0

>  <SCORE.SYSTEM.SOLV>
0

>  <SCORE.SYSTEM.norm>
0

>  <SCORE.heavy>
32

>  <SCORE.norm>
-1.1152

>  <RMSD>
6.532

$$$$
2au4_lig
 OpenBabel11021811423D
libRbt.so/2013.1/901 2013/11/27
 32 34  0  0  0  0  0  0  0  0999 V2000
   67.2046   13.8845    1.0293 P   0  0  1  0  0  0  0  0  0  0  0  0
   69.7953   13.2060    1.4733 P   0  0  1  0  0  0  0  0  0  0  0  0
   70.4341   10.7750    2.5330 P   0  0  2  0  0  0  0  0  0  0  0  0
   65.1743   12.8382   -0.3175 C   0  0  0  0  0  0  0  0  0  0  0  0
   66.3015   13.7296   -0.2935 O   0  0  0  0  0  0  0  0  0  0  0  0
   64.6023   12.6609   -1.7164 C   0  0  0  0  0  0  0  0  0  0  0  0
   64.8683   11.3316   -2.2087 O   0  0  0  0  0  0  0  0  0  0  0  0
   63.0968   12.8757   -1.7137 C   0  0  0  0  0  0  0  0  0  0  0  0
   62.7402   14.0115   -2.5109 O   0  0  0  0  0  0  0  0  0  0  0  0
   62.4822   11.6112   -2.2646 C   0  0  0  0  0  0  0  0  0  0  0  0
   61.6993   11.8816   -3.4351 O   0  0  0  0  0  0  0  0  0  0  0  0
   63.6379   10.6812   -2.5912 C   0  0  0  0  0  0  0  0  0  0  0  0
   66.0174    6.6442   -0.5646 N   0  0  0  0  0  0  0  0  0  0  0  0
   67.0811   15.2703    1.5242 O   0  5  0  0  0  0  0  0  0  0  0  0
   71.1091   13.3601    0.8189 O   0  5  0  0  0  0  0  0  0  0  0  0
   71.8330   11.1011    2.1894 O   0  5  0  0  0  0  0  0  0  0  0  0
   66.5491    7.7478   -1.1883 C   0  0  1  0  0  0  0  0  0  0  0  0
   67.8709    7.7847   -1.2917 N   0  0  0  0  0  0  0  0  0  0  0  0
   66.9202   12.7475    1.9308 O   0  0  0  0  0  0  0  0  0  0  0  0
   69.5415   13.8381    2.7846 O   0  0  0  0  0  0  0  0  0  0  0  0
   69.9637    9.3755    2.4676 O   0  0  0  0  0  0  0  0  0  0  0  0
   65.8181    8.7454   -1.6794 N   0  0  0  0  0  0  0  0  0  0  0  0
   68.6759   13.6982    0.4629 O   0  0  0  0  0  0  0  0  0  0  0  0
   69.4831   11.6535    1.6054 O   0  0  0  0  0  0  0  0  0  0  0  0
   70.1242   11.3490    4.0010 O   0  0  0  0  0  0  0  0  0  0  0  0
   64.4930    8.5455   -1.4938 C   0  0  2  0  0  0  0  0  0  0  0  0
   63.8754    7.4683   -0.8787 C   0  0  2  0  0  0  0  0  0  0  0  0
   64.6684    6.4147   -0.3618 C   0  0  1  0  0  0  0  0  0  0  0  0
   64.2991    5.3844    0.1855 O   0  0  0  0  0  0  0  0  0  0  0  0
   62.4850    7.6232   -0.8815 N   0  0  0  0  0  0  0  0  0  0  0  0
   62.3548    8.7590   -1.4856 C   0  0  0  0  0  0  0  0  0  0  0  0
   63.4843    9.3910   -1.8911 N   0  0  0  0  0  0  0  0  0  0  0  0
  1  5  1  6  0  0  0
  1 14  1  0  0  0  0
  1 19  2  0  0  0  0
  2 15  1  6  0  0  0
  2 20  2  0  0  0  0
  2 23  1  0  0  0  0
  3 16  1  6  0  0  0
  3 21  2  0  0  0  0
  3 24  1  0  0  0  0
  3 25  1  0  0  0  0
  4  6  1  0  0  0  0
  5  4  1  0  0  0  0
  6  7  1  0  0  0  0
  6  8  2  0  0  0  0
  7 12  1  0  0  0  0
  8  9  1  0  0  0  0
  8 10  1  0  0  0  0
 10 11  1  0  0  0  0
 10 12  2  0  0  0  0
 12 32  1  0  0  0  0
 13 17  1  0  0  0  0
 17 18  1  6  0  0  0
 17 22  1  0  0  0  0
 23  1  1  0  0  0  0
 24  2  1  0  0  0  0
 26 22  1  6  0  0  0
 27 26  1  0  0  0  0
 27 28  1  0  0  0  0
 27 30  1  6  0  0  0
 28 13  1  0  0  0  0
 28 29  1  6  0  0  0
 31 30  1  0  0  0  0
 32 26  1  0  0  0  0
 32 31  1  0  0  0  0
M  CHG  3  14  -1  15  -1  16  -1
M  END
>  <CHROM.1>
-116.13872438,-168.88653880,-47.61499803,110.16349229,-170.30255725,-31.45981930
-155.89270271,64.32004705,66.62007128,11.07632467,0.08558029,0.39924740,-0.53966835
-0.01473434

>  <Name>
2au4_lig

>  <RI>
0

>  <Rbt.Current_Directory>
/home/itssahil/PROJECTS/Mol_Feturizer/New_Systems/rnas/2au4

>  <Rbt.Executable>
rbdock ($Id: //depot/dev/client3/rdock/2013.1/src/exe/rbdock.cxx#4 $)

>  <Rbt.Library>
libRbt.so (2013.1, Build901 2013/11/27)

>  <Rbt.Parameter_File>
/export/apps/rDock/src/rDock_2013.1_src/data/scripts/dock_solv.prm

>  <Rbt.Receptor>
prm/pocket_docking_7.prm

>  <SCORE>
-35.3707

>  <SCORE.INTER>
-10.7469

>  <SCORE.INTER.CONST>
1

>  <SCORE.INTER.POLAR>
-1

>  <SCORE.INTER.ROT>
8

>  <SCORE.INTER.SOLV>
18.7092

>  <SCORE.INTER.VDW>
-19.001

>  <SCORE.INTER.norm>
-0.33584

>  <SCORE.INTRA>
-24.6238

>  <SCORE.INTRA.DIHEDRAL>
-47.3617

>  <SCORE.INTRA.DIHEDRAL.0>
76.3625

>  <SCORE.INTRA.POLAR>
0

>  <SCORE.INTRA.POLAR.0>
0

>  <SCORE.INTRA.REPUL>
0.0591029

>  <SCORE.INTRA.REPUL.0>
0.12705

>  <SCORE.INTRA.SOLV>
-6.01873

>  <SCORE.INTRA.SOLV.lig_0>
-119.383

>  <SCORE.INTRA.VDW>
1.77087

>  <SCORE.INTRA.VDW.0>
-5.10464

>  <SCORE.INTRA.norm>
-0.769495

>  <SCORE.RESTR>
0

>  <SCORE.RESTR.CAVITY>
0

>  <SCORE.RESTR.norm>
0

>  <SCORE.SYSTEM>
0

>  <SCORE.SYSTEM.CONST>
0

>  <SCORE.SYSTEM.DIHEDRAL>
0

>  <SCORE.SYSTEM.SOLV>
0

>  <SCORE.SYSTEM.norm>
0

>  <SCORE.heavy>
32

>  <SCORE.norm>
-1.10533

>  <RMSD>
6.538

$$$$
2au4_lig
 OpenBabel11021811423D
libRbt.so/2013.1/901 2013/11/27
 32 34  0  0  0  0  0  0  0  0999 V2000
   69.0368    9.7011    0.8359 P   0  0  1  0  0  0  0  0  0  0  0  0
   69.8543   12.2841    0.6646 P   0  0  1  0  0  0  0  0  0  0  0  0
   72.4873   12.9965    0.6651 P   0  0  2  0  0  0  0  0  0  0  0  0
   68.1855    8.8750   -1.5354 C   0  0  0  0  0  0  0  0  0  0  0  0
   68.5037    9.9684   -0.6586 O   0  0  0  0  0  0  0  0  0  0  0  0
   67.2266    7.8792   -0.8994 C   0  0  0  0  0  0  0  0  0  0  0  0
   66.0666    8.5564   -0.3738 O   0  0  0  0  0  0  0  0  0  0  0  0
   66.7582    6.8548   -1.9210 C   0  0  0  0  0  0  0  0  0  0  0  0
   67.1964    5.5382   -1.5640 O   0  0  0  0  0  0  0  0  0  0  0  0
   65.2506    6.9361   -1.9497 C   0  0  0  0  0  0  0  0  0  0  0  0
   64.6562    5.6738   -1.6189 O   0  0  0  0  0  0  0  0  0  0  0  0
   64.8603    7.9985   -0.9367 C   0  0  0  0  0  0  0  0  0  0  0  0
   63.4361   12.9006   -0.8491 N   0  0  0  0  0  0  0  0  0  0  0  0
   67.9689   10.0646    1.7889 O   0  5  0  0  0  0  0  0  0  0  0  0
   69.9485   12.4868   -0.7942 O   0  5  0  0  0  0  0  0  0  0  0  0
   73.4913   13.4319    1.6570 O   0  5  0  0  0  0  0  0  0  0  0  0
   64.2969   12.2272   -0.0152 C   0  0  1  0  0  0  0  0  0  0  0  0
   64.8434   12.9369    0.9629 N   0  0  0  0  0  0  0  0  0  0  0  0
   69.6478    8.3555    0.8855 O   0  0  0  0  0  0  0  0  0  0  0  0
   68.6091   12.6283    1.3821 O   0  0  0  0  0  0  0  0  0  0  0  0
   72.3942   13.6804   -0.6416 O   0  0  0  0  0  0  0  0  0  0  0  0
   64.5924   10.9359   -0.1416 N   0  0  0  0  0  0  0  0  0  0  0  0
   70.2028   10.7689    0.9795 O   0  0  0  0  0  0  0  0  0  0  0  0
   71.0535   13.0652    1.3552 O   0  0  0  0  0  0  0  0  0  0  0  0
   72.6792   11.4230    0.4046 O   0  0  0  0  0  0  0  0  0  0  0  0
   63.9465   10.3650   -1.1844 C   0  0  2  0  0  0  0  0  0  0  0  0
   63.0673   10.9669   -2.0701 C   0  0  2  0  0  0  0  0  0  0  0  0
   62.7633   12.3423   -1.9211 C   0  0  1  0  0  0  0  0  0  0  0  0
   61.9991   13.0276   -2.5872 O   0  0  0  0  0  0  0  0  0  0  0  0
   62.6032   10.0454   -3.0149 N   0  0  0  0  0  0  0  0  0  0  0  0
   63.2181    8.9691   -2.6467 C   0  0  0  0  0  0  0  0  0  0  0  0
   64.0401    9.0489   -1.5708 N   0  0  0  0  0  0  0  0  0  0  0  0
  1  5  1  6  0  0  0
  1 14  1  0  0  0  0
  1 19  2  0  0  0  0
  2 15  1  6  0  0  0
  2 20  2  0  0  0  0
  2 23  1  0  0  0  0
  3 16  1  1  0  0  0
  3 21  2  0  0  0  0
  3 24  1  0  0  0  0
  3 25  1  0  0  0  0
  4  6  1  0  0  0  0
  5  4  1  0  0  0  0
  6  7  1  0  0  0  0
  6  8  2  0  0  0  0
  7 12  1  0  0  0  0
  8  9  1  0  0  0  0
  8 10  1  0  0  0  0
 10 11  1  0  0  0  0
 10 12  2  0  0  0  0
 12 32  1  0  0  0  0
 13 17  1  0  0  0  0
 17 18  1  1  0  0  0
 17 22  1  0  0  0  0
 23  1  1  0  0  0  0
 24  2  1  0  0  0  0
 26 22  1  1  0  0  0
 27 26  1  0  0  0  0
 27 28  1  0  0  0  0
 27 30  1  1  0  0  0
 28 13  1  0  0  0  0
 28 29  1  1  0  0  0
 31 30  1  0  0  0  0
 32 26  1  0  0  0  0
 32 31  1  0  0  0  0
M  CHG  3  14  -1  15  -1  16  -1
M  END
>  <CHROM.1>
-108.42575003,-83.50351576,-163.43623490,51.71236703,52.32322994,-31.76802335
53.42783803,-41.54263680,67.50982443,10.57789565,-0.36670221,-0.37034791
0.26467311,-3.01311006

>  <Name>
2au4_lig

>  <RI>
0

>  <Rbt.Current_Directory>
/home/itssahil/PROJECTS/Mol_Feturizer/New_Systems/rnas/2au4

>  <Rbt.Executable>
rbdock ($Id: //depot/dev/client3/rdock/2013.1/src/exe/rbdock.cxx#4 $)

>  <Rbt.Library>
libRbt.so (2013.1, Build901 2013/11/27)

>  <Rbt.Parameter_File>
/export/apps/rDock/src/rDock_2013.1_src/data/scripts/dock_solv.prm

>  <Rbt.Receptor>
prm/pocket_docking_6.prm

>  <SCORE>
-41.4134

>  <SCORE.INTER>
-17.405

>  <SCORE.INTER.CONST>
1

>  <SCORE.INTER.POLAR>
-2.30025

>  <SCORE.INTER.ROT>
8

>  <SCORE.INTER.SOLV>
15.8921

>  <SCORE.INTER.VDW>
-18.1665

>  <SCORE.INTER.norm>
-0.543905

>  <SCORE.INTRA>
-24.0213

>  <SCORE.INTRA.DIHEDRAL>
-47.7266

>  <SCORE.INTRA.DIHEDRAL.0>
76.3625

>  <SCORE.INTRA.POLAR>
0

>  <SCORE.INTRA.POLAR.0>
0

>  <SCORE.INTRA.REPUL>
0.0579691

>  <SCORE.INTRA.REPUL.0>
0.12705

>  <SCORE.INTRA.SOLV>
-3.37408

>  <SCORE.INTRA.SOLV.lig_0>
-119.383

>  <SCORE.INTRA.VDW>
1.23924

>  <SCORE.INTRA.VDW.0>
-5.10464

>  <SCORE.INTRA.norm>
-0.750665

>  <SCORE.RESTR>
0.0128255

>  <SCORE.RESTR.CAVITY>
0.0128255

>  <SCORE.RESTR.norm>
0.000400798

>  <SCORE.SYSTEM>
0

>  <SCORE.SYSTEM.CONST>
0

>  <SCORE.SYSTEM.DIHEDRAL>
0

>  <SCORE.SYSTEM.SOLV>
0

>  <SCORE.SYSTEM.norm>
0

>  <SCORE.heavy>
32

>  <SCORE.norm>
-1.29417

>  <RMSD>
6.544

$$$$
2au4_lig
 OpenBabel11021811423D
libRbt.so/2013.1/901 2013/11/27
 32 34  0  0  0  0  0  0  0  0999 V2000
   68.3120    9.4041    3.2692 P   0  0  1  0  0  0  0  0  0  0  0  0
   69.2023   10.1301    5.7288 P   0  0  1  0  0  0  0  0  0  0  0  0
   70.4944   11.4933    7.7069 P   0  0  2  0  0  0  0  0  0  0  0  0
   69.2470   10.7660    1.1952 C   0  0  0  0  0  0  0  0  0  0  0  0
   68.1202   10.1958    1.8815 O   0  0  0  0  0  0  0  0  0  0  0  0
   68.8550   11.4259   -0.1186 C   0  0  0  0  0  0  0  0  0  0  0  0
   68.7463   10.4424   -1.1679 O   0  0  0  0  0  0  0  0  0  0  0  0
   67.5150   12.1328    0.0126 C   0  0  0  0  0  0  0  0  0  0  0  0
   67.6613   13.5461   -0.1721 O   0  0  0  0  0  0  0  0  0  0  0  0
   66.6115   11.5383   -1.0413 C   0  0  0  0  0  0  0  0  0  0  0  0
   66.1336   12.5451   -1.9436 O   0  0  0  0  0  0  0  0  0  0  0  0
   67.4402   10.5012   -1.7794 C   0  0  0  0  0  0  0  0  0  0  0  0
   63.0037    7.9768   -1.6732 N   0  0  0  0  0  0  0  0  0  0  0  0
   66.9884    8.9452    3.7364 O   0  5  0  0  0  0  0  0  0  0  0  0
   67.9917    9.6291    6.4082 O   0  5  0  0  0  0  0  0  0  0  0  0
   70.2185   12.7293    8.4668 O   0  5  0  0  0  0  0  0  0  0  0  0
   63.2361    9.3313   -1.7063 C   0  0  1  0  0  0  0  0  0  0  0  0
   62.1639   10.1119   -1.7070 N   0  0  0  0  0  0  0  0  0  0  0  0
   69.4186    8.4362    3.1115 O   0  0  0  0  0  0  0  0  0  0  0  0
   70.4147    9.2883    5.6582 O   0  0  0  0  0  0  0  0  0  0  0  0
   71.8795   11.1614    7.3128 O   0  0  0  0  0  0  0  0  0  0  0  0
   64.4508    9.8742   -1.7332 N   0  0  0  0  0  0  0  0  0  0  0  0
   68.8056   10.5495    4.2513 O   0  0  0  0  0  0  0  0  0  0  0  0
   69.6043   11.5197    6.3864 O   0  0  0  0  0  0  0  0  0  0  0  0
   69.8837   10.2496    8.5199 O   0  0  0  0  0  0  0  0  0  0  0  0
   65.4277    8.9382   -1.7232 C   0  0  2  0  0  0  0  0  0  0  0  0
   65.2824    7.5606   -1.6910 C   0  0  2  0  0  0  0  0  0  0  0  0
   63.9823    6.9992   -1.6623 C   0  0  1  0  0  0  0  0  0  0  0  0
   63.6661    5.8183   -1.6079 O   0  0  0  0  0  0  0  0  0  0  0  0
   66.5303    6.9281   -1.6893 N   0  0  0  0  0  0  0  0  0  0  0  0
   67.3318    7.9423   -1.7191 C   0  0  0  0  0  0  0  0  0  0  0  0
   66.7807    9.1815   -1.7411 N   0  0  0  0  0  0  0  0  0  0  0  0
  1  5  1  6  0  0  0
  1 14  1  0  0  0  0
  1 19  2  0  0  0  0
  2 15  1  1  0  0  0
  2 20  2  0  0  0  0
  2 23  1  0  0  0  0
  3 16  1  1  0  0  0
  3 21  2  0  0  0  0
  3 24  1  0  0  0  0
  3 25  1  0  0  0  0
  4  6  1  0  0  0  0
  5  4  1  0  0  0  0
  6  7  1  0  0  0  0
  6  8  2  0  0  0  0
  7 12  1  0  0  0  0
  8  9  1  0  0  0  0
  8 10  1  0  0  0  0
 10 11  1  0  0  0  0
 10 12  2  0  0  0  0
 12 32  1  0  0  0  0
 13 17  1  0  0  0  0
 17 18  1  1  0  0  0
 17 22  1  0  0  0  0
 23  1  1  0  0  0  0
 24  2  1  0  0  0  0
 26 22  1  1  0  0  0
 27 26  1  0  0  0  0
 27 28  1  0  0  0  0
 27 30  1  1  0  0  0
 28 13  1  0  0  0  0
 28 29  1  1  0  0  0
 31 30  1  0  0  0  0
 32 26  1  0  0  0  0
 32 31  1  0  0  0  0
M  CHG  3  14  -1  15  -1  16  -1
M  END
>  <CHROM.1>
179.62617701,-64.64935737,-153.67773736,-82.24095903,177.94658816,152.55893538
-175.99007004,84.77501301,67.63415647,9.97178006,2.09734752,0.60354949,0.92998734
2.21454484

>  <Name>
2au4_lig

>  <RI>
0

>  <Rbt.Current_Directory>
/home/itssahil/PROJECTS/Mol_Feturizer/New_Systems/rnas/2au4

>  <Rbt.Executable>
rbdock ($Id: //depot/dev/client3/rdock/2013.1/src/exe/rbdock.cxx#4 $)

>  <Rbt.Library>
libRbt.so (2013.1, Build901 2013/11/27)

>  <Rbt.Parameter_File>
/export/apps/rDock/src/rDock_2013.1_src/data/scripts/dock_solv.prm

>  <Rbt.Receptor>
prm/pocket_docking_8.prm

>  <SCORE>
-43.0574

>  <SCORE.INTER>
-15.838

>  <SCORE.INTER.CONST>
1

>  <SCORE.INTER.POLAR>
-2.14685

>  <SCORE.INTER.ROT>
8

>  <SCORE.INTER.SOLV>
18.4428

>  <SCORE.INTER.VDW>
-18.4835

>  <SCORE.INTER.norm>
-0.494939

>  <SCORE.INTRA>
-27.2194

>  <SCORE.INTRA.DIHEDRAL>
-49.7018

>  <SCORE.INTRA.DIHEDRAL.0>
76.3625

>  <SCORE.INTRA.POLAR>
0

>  <SCORE.INTRA.POLAR.0>
0

>  <SCORE.INTRA.REPUL>
-0.12705

>  <SCORE.INTRA.REPUL.0>
0.12705

>  <SCORE.INTRA.SOLV>
-6.16517

>  <SCORE.INTRA.SOLV.lig_0>
-119.383

>  <SCORE.INTRA.VDW>
1.34932

>  <SCORE.INTRA.VDW.0>
-5.10464

>  <SCORE.INTRA.norm>
-0.850606

>  <SCORE.RESTR>
0

>  <SCORE.RESTR.CAVITY>
0

>  <SCORE.RESTR.norm>
0

>  <SCORE.SYSTEM>
0

>  <SCORE.SYSTEM.CONST>
0

>  <SCORE.SYSTEM.DIHEDRAL>
0

>  <SCORE.SYSTEM.SOLV>
0

>  <SCORE.SYSTEM.norm>
0

>  <SCORE.heavy>
32

>  <SCORE.norm>
-1.34554

>  <RMSD>
6.546

$$$$
2au4_lig
 OpenBabel11021811423D
libRbt.so/2013.1/901 2013/11/27
 32 34  0  0  0  0  0  0  0  0999 V2000
   68.1459    7.5218    3.7398 P   0  0  1  0  0  0  0  0  0  0  0  0
   69.7894    9.5676    4.4348 P   0  0  1  0  0  0  0  0  0  0  0  0
   71.1705   11.3376    5.9842 P   0  0  2  0  0  0  0  0  0  0  0  0
   67.9061    7.5970    1.1003 C   0  0  0  0  0  0  0  0  0  0  0  0
   68.5613    8.0748    2.2869 O   0  0  0  0  0  0  0  0  0  0  0  0
   68.4262    8.2687   -0.1622 C   0  0  0  0  0  0  0  0  0  0  0  0
   67.4207    8.2539   -1.1960 O   0  0  0  0  0  0  0  0  0  0  0  0
   68.8042    9.7155    0.1143 C   0  0  0  0  0  0  0  0  0  0  0  0
   70.2081    9.9244   -0.0817 O   0  0  0  0  0  0  0  0  0  0  0  0
   67.9916   10.5604   -0.8376 C   0  0  0  0  0  0  0  0  0  0  0  0
   68.8384   11.3530   -1.6807 O   0  0  0  0  0  0  0  0  0  0  0  0
   67.1596    9.5944   -1.6632 C   0  0  0  0  0  0  0  0  0  0  0  0
   62.3986    7.7608   -1.4687 N   0  0  0  0  0  0  0  0  0  0  0  0
   66.8925    8.1833    4.1548 O   0  5  0  0  0  0  0  0  0  0  0  0
   70.6577    9.6018    3.2420 O   0  5  0  0  0  0  0  0  0  0  0  0
   72.1110   11.3151    7.1227 O   0  5  0  0  0  0  0  0  0  0  0  0
   63.5901    7.0843   -1.5803 C   0  0  1  0  0  0  0  0  0  0  0  0
   63.5109    5.7624   -1.6536 N   0  0  0  0  0  0  0  0  0  0  0  0
   68.2359    6.0460    3.7266 O   0  0  0  0  0  0  0  0  0  0  0  0
   68.6015   10.4430    4.5124 O   0  0  0  0  0  0  0  0  0  0  0  0
   69.9698   12.1977    6.0339 O   0  0  0  0  0  0  0  0  0  0  0  0
   64.7794    7.6799   -1.6201 N   0  0  0  0  0  0  0  0  0  0  0  0
   69.3156    8.0709    4.6621 O   0  0  0  0  0  0  0  0  0  0  0  0
   70.6897    9.8433    5.7150 O   0  0  0  0  0  0  0  0  0  0  0  0
   71.9948   11.6892    4.6509 O   0  0  0  0  0  0  0  0  0  0  0  0
   64.6778    9.0267   -1.5390 C   0  0  2  0  0  0  0  0  0  0  0  0
   63.5239    9.7851   -1.4247 C   0  0  2  0  0  0  0  0  0  0  0  0
   62.2661    9.1352   -1.3842 C   0  0  1  0  0  0  0  0  0  0  0  0
   61.1531    9.6386   -1.3114 O   0  0  0  0  0  0  0  0  0  0  0  0
   63.8281   11.1495   -1.3694 N   0  0  0  0  0  0  0  0  0  0  0  0
   65.1183   11.1281   -1.4527 C   0  0  0  0  0  0  0  0  0  0  0  0
   65.7237    9.9188   -1.5572 N   0  0  0  0  0  0  0  0  0  0  0  0
  1  5  1  6  0  0  0
  1 14  1  0  0  0  0
  1 19  2  0  0  0  0
  2 15  1  6  0  0  0
  2 20  2  0  0  0  0
  2 23  1  0  0  0  0
  3 16  1  1  0  0  0
  3 21  2  0  0  0  0
  3 24  1  0  0  0  0
  3 25  1  0  0  0  0
  4  6  1  0  0  0  0
  5  4  1  0  0  0  0
  6  7  1  0  0  0  0
  6  8  2  0  0  0  0
  7 12  1  0  0  0  0
  8  9  1  0  0  0  0
  8 10  1  0  0  0  0
 10 11  1  0  0  0  0
 10 12  2  0  0  0  0
 12 32  1  0  0  0  0
 13 17  1  0  0  0  0
 17 18  1  6  0  0  0
 17 22  1  0  0  0  0
 23  1  1  0  0  0  0
 24  2  1  0  0  0  0
 26 22  1  6  0  0  0
 27 26  1  0  0  0  0
 27 28  1  0  0  0  0
 27 30  1  6  0  0  0
 28 13  1  0  0  0  0
 28 29  1  6  0  0  0
 31 30  1  0  0  0  0
 32 26  1  0  0  0  0
 32 31  1  0  0  0  0
M  CHG  3  14  -1  15  -1  16  -1
M  END
>  <CHROM.1>
-77.95011566,-78.12115134,-173.47105457,-154.17100041,178.74668844,-24.14741720
43.23067636,75.47313264,67.63706427,9.32494335,1.72343970,0.45864058,0.69783204
2.26591373

>  <Name>
2au4_lig

>  <RI>
0

>  <Rbt.Current_Directory>
/home/itssahil/PROJECTS/Mol_Feturizer/New_Systems/rnas/2au4

>  <Rbt.Executable>
rbdock ($Id: //depot/dev/client3/rdock/2013.1/src/exe/rbdock.cxx#4 $)

>  <Rbt.Library>
libRbt.so (2013.1, Build901 2013/11/27)

>  <Rbt.Parameter_File>
/export/apps/rDock/src/rDock_2013.1_src/data/scripts/dock_solv.prm

>  <Rbt.Receptor>
prm/pocket_docking_8.prm

>  <SCORE>
-43.4878

>  <SCORE.INTER>
-17.5837

>  <SCORE.INTER.CONST>
1

>  <SCORE.INTER.POLAR>
-1.7106

>  <SCORE.INTER.ROT>
8

>  <SCORE.INTER.SOLV>
31.2527

>  <SCORE.INTER.VDW>
-25.3714

>  <SCORE.INTER.norm>
-0.549491

>  <SCORE.INTRA>
-25.915

>  <SCORE.INTRA.DIHEDRAL>
-49.5919

>  <SCORE.INTRA.DIHEDRAL.0>
76.3625

>  <SCORE.INTRA.POLAR>
0

>  <SCORE.INTRA.POLAR.0>
0

>  <SCORE.INTRA.REPUL>
0.07149

>  <SCORE.INTRA.REPUL.0>
0.12705

>  <SCORE.INTRA.SOLV>
-5.4296

>  <SCORE.INTRA.SOLV.lig_0>
-119.383

>  <SCORE.INTRA.VDW>
1.23829

>  <SCORE.INTRA.VDW.0>
-5.10464

>  <SCORE.INTRA.norm>
-0.809844

>  <SCORE.RESTR>
0.0109766

>  <SCORE.RESTR.CAVITY>
0.0109766

>  <SCORE.RESTR.norm>
0.000343019

>  <SCORE.SYSTEM>
0

>  <SCORE.SYSTEM.CONST>
0

>  <SCORE.SYSTEM.DIHEDRAL>
0

>  <SCORE.SYSTEM.SOLV>
0

>  <SCORE.SYSTEM.norm>
0

>  <SCORE.heavy>
32

>  <SCORE.norm>
-1.35899

>  <RMSD>
6.548

$$$$
2au4_lig
 OpenBabel11021811423D
libRbt.so/2013.1/901 2013/11/27
 32 34  0  0  0  0  0  0  0  0999 V2000
   68.9981    8.6917    3.2992 P   0  0  1  0  0  0  0  0  0  0  0  0
   70.8830   10.6193    3.6166 P   0  0  1  0  0  0  0  0  0  0  0  0
   72.1339   13.0152    3.9850 P   0  0  2  0  0  0  0  0  0  0  0  0
   68.3408    8.5500    0.7343 C   0  0  0  0  0  0  0  0  0  0  0  0
   69.2916    8.2683    1.7747 O   0  0  0  0  0  0  0  0  0  0  0  0
   67.1946    7.5495    0.7070 C   0  0  0  0  0  0  0  0  0  0  0  0
   65.9427    8.2041    0.9976 O   0  0  0  0  0  0  0  0  0  0  0  0
   67.0838    6.8950   -0.6612 C   0  0  0  0  0  0  0  0  0  0  0  0
   67.3354    5.4870   -0.5771 O   0  0  0  0  0  0  0  0  0  0  0  0
   65.6830    7.1676   -1.1548 C   0  0  0  0  0  0  0  0  0  0  0  0
   64.9774    5.9467   -1.4152 O   0  0  0  0  0  0  0  0  0  0  0  0
   64.9931    7.9675   -0.0633 C   0  0  0  0  0  0  0  0  0  0  0  0
   63.8769   12.8484    0.9352 N   0  0  0  0  0  0  0  0  0  0  0  0
   67.5468    8.5796    3.5479 O   0  5  0  0  0  0  0  0  0  0  0  0
   71.1559   10.3100    5.0336 O   0  5  0  0  0  0  0  0  0  0  0  0
   73.1882   12.9679    2.9518 O   0  5  0  0  0  0  0  0  0  0  0  0
   64.3925   11.8835    1.7676 C   0  0  1  0  0  0  0  0  0  0  0  0
   64.6383   12.2550    3.0168 N   0  0  0  0  0  0  0  0  0  0  0  0
   69.9570    7.9880    4.1775 O   0  0  0  0  0  0  0  0  0  0  0  0
   71.7343   10.0437    2.5549 O   0  0  0  0  0  0  0  0  0  0  0  0
   72.4213   12.5460    5.3566 O   0  0  0  0  0  0  0  0  0  0  0  0
   64.6437   10.6335    1.3866 N   0  0  0  0  0  0  0  0  0  0  0  0
   69.3762   10.2335    3.3049 O   0  0  0  0  0  0  0  0  0  0  0  0
   70.8783   12.1989    3.4430 O   0  0  0  0  0  0  0  0  0  0  0  0
   71.5700   14.5172    4.0675 O   0  0  0  0  0  0  0  0  0  0  0  0
   64.3316   10.4244    0.0868 C   0  0  2  0  0  0  0  0  0  0  0  0
   63.8111   11.3357   -0.8179 C   0  0  2  0  0  0  0  0  0  0  0  0
   63.5492   12.6621   -0.3958 C   0  0  1  0  0  0  0  0  0  0  0  0
   63.0726   13.5849   -1.0429 O   0  0  0  0  0  0  0  0  0  0  0  0
   63.6216   10.7414   -2.0701 N   0  0  0  0  0  0  0  0  0  0  0  0
   64.0303    9.5353   -1.8461 C   0  0  0  0  0  0  0  0  0  0  0  0
   64.4726    9.2408   -0.5982 N   0  0  0  0  0  0  0  0  0  0  0  0
  1  5  1  6  0  0  0
  1 14  1  0  0  0  0
  1 19  2  0  0  0  0
  2 15  1  1  0  0  0
  2 20  2  0  0  0  0
  2 23  1  0  0  0  0
  3 16  1  6  0  0  0
  3 21  2  0  0  0  0
  3 24  1  0  0  0  0
  3 25  1  0  0  0  0
  4  6  1  0  0  0  0
  5  4  1  0  0  0  0
  6  7  1  0  0  0  0
  6  8  2  0  0  0  0
  7 12  1  0  0  0  0
  8  9  1  0  0  0  0
  8 10  1  0  0  0  0
 10 11  1  0  0  0  0
 10 12  2  0  0  0  0
 12 32  1  0  0  0  0
 13 17  1  0  0  0  0
 17 18  1  1  0  0  0
 17 22  1  0  0  0  0
 23  1  1  0  0  0  0
 24  2  1  0  0  0  0
 26 22  1  1  0  0  0
 27 26  1  0  0  0  0
 27 28  1  0  0  0  0
 27 30  1  1  0  0  0
 28 13  1  0  0  0  0
 28 29  1  1  0  0  0
 31 30  1  0  0  0  0
 32 26  1  0  0  0  0
 32 31  1  0  0  0  0
M  CHG  3  14  -1  15  -1  16  -1
M  END
>  <CHROM.1>
33.64381700,-69.02871158,82.99642346,116.26506097,-79.55530945,-29.17879904
-88.48534038,52.29572975,67.81772276,10.18684278,1.74811018,-0.35413330,0.50996553
-2.92067457

>  <Name>
2au4_lig

>  <RI>
0

>  <Rbt.Current_Directory>
/home/itssahil/PROJECTS/Mol_Feturizer/New_Systems/rnas/2au4

>  <Rbt.Executable>
rbdock ($Id: //depot/dev/client3/rdock/2013.1/src/exe/rbdock.cxx#4 $)

>  <Rbt.Library>
libRbt.so (2013.1, Build901 2013/11/27)

>  <Rbt.Parameter_File>
/export/apps/rDock/src/rDock_2013.1_src/data/scripts/dock_solv.prm

>  <Rbt.Receptor>
prm/pocket_docking_5.prm

>  <SCORE>
-38.0474

>  <SCORE.INTER>
-15.4831

>  <SCORE.INTER.CONST>
1

>  <SCORE.INTER.POLAR>
-2.59239

>  <SCORE.INTER.ROT>
8

>  <SCORE.INTER.SOLV>
18.7995

>  <SCORE.INTER.VDW>
-16.8806

>  <SCORE.INTER.norm>
-0.483848

>  <SCORE.INTRA>
-22.8872

>  <SCORE.INTRA.DIHEDRAL>
-47.2191

>  <SCORE.INTRA.DIHEDRAL.0>
76.3625

>  <SCORE.INTRA.POLAR>
0

>  <SCORE.INTRA.POLAR.0>
0

>  <SCORE.INTRA.REPUL>
0.124133

>  <SCORE.INTRA.REPUL.0>
0.12705

>  <SCORE.INTRA.SOLV>
-3.05826

>  <SCORE.INTRA.SOLV.lig_0>
-119.383

>  <SCORE.INTRA.VDW>
1.63082

>  <SCORE.INTRA.VDW.0>
-5.10464

>  <SCORE.INTRA.norm>
-0.715225

>  <SCORE.RESTR>
0.3229

>  <SCORE.RESTR.CAVITY>
0.3229

>  <SCORE.RESTR.norm>
0.0100906

>  <SCORE.SYSTEM>
0

>  <SCORE.SYSTEM.CONST>
0

>  <SCORE.SYSTEM.DIHEDRAL>
0

>  <SCORE.SYSTEM.SOLV>
0

>  <SCORE.SYSTEM.norm>
0

>  <SCORE.heavy>
32

>  <SCORE.norm>
-1.18898

>  <RMSD>
6.556

$$$$
2au4_lig
 OpenBabel11021811423D
libRbt.so/2013.1/901 2013/11/27
 32 34  0  0  0  0  0  0  0  0999 V2000
   69.7831   12.5306    0.2922 P   0  0  1  0  0  0  0  0  0  0  0  0
   71.8995   13.8602    1.3516 P   0  0  1  0  0  0  0  0  0  0  0  0
   72.7484   12.5977    3.6156 P   0  0  2  0  0  0  0  0  0  0  0  0
   69.8855    9.8815    0.2460 C   0  0  0  0  0  0  0  0  0  0  0  0
   69.1526   11.0757    0.5661 O   0  0  0  0  0  0  0  0  0  0  0  0
   69.2149    8.6256    0.7833 C   0  0  0  0  0  0  0  0  0  0  0  0
   68.0567    8.9667    1.5722 O   0  0  0  0  0  0  0  0  0  0  0  0
   68.7665    7.7249   -0.3569 C   0  0  0  0  0  0  0  0  0  0  0  0
   69.4653    6.4744   -0.3269 O   0  0  0  0  0  0  0  0  0  0  0  0
   67.2804    7.5206   -0.1830 C   0  0  0  0  0  0  0  0  0  0  0  0
   66.9606    6.1301   -0.0407 O   0  0  0  0  0  0  0  0  0  0  0  0
   66.8851    8.2956    1.0620 C   0  0  0  0  0  0  0  0  0  0  0  0
   62.7191    9.2770   -1.7215 N   0  0  0  0  0  0  0  0  0  0  0  0
   70.1724   12.6150   -1.1299 O   0  5  0  0  0  0  0  0  0  0  0  0
   72.4659   14.2542    0.0469 O   0  5  0  0  0  0  0  0  0  0  0  0
   72.5086   11.1984    3.2086 O   0  5  0  0  0  0  0  0  0  0  0  0
   63.5224    8.1615   -1.7170 C   0  0  1  0  0  0  0  0  0  0  0  0
   63.1839    7.1900   -2.5540 N   0  0  0  0  0  0  0  0  0  0  0  0
   68.8872   13.5511    0.8771 O   0  0  0  0  0  0  0  0  0  0  0  0
   71.0281   14.7946    2.0940 O   0  0  0  0  0  0  0  0  0  0  0  0
   71.7120   13.3374    4.3658 O   0  0  0  0  0  0  0  0  0  0  0  0
   64.5913    8.0214   -0.9370 N   0  0  0  0  0  0  0  0  0  0  0  0
   71.1118   12.4967    1.1603 O   0  0  0  0  0  0  0  0  0  0  0  0
   73.0963   13.4368    2.3074 O   0  0  0  0  0  0  0  0  0  0  0  0
   74.1207   12.6568    4.4487 O   0  0  0  0  0  0  0  0  0  0  0  0
   64.7944    9.1041   -0.1514 C   0  0  2  0  0  0  0  0  0  0  0  0
   64.0380   10.2635   -0.0925 C   0  0  2  0  0  0  0  0  0  0  0  0
   62.9034   10.3965   -0.9300 C   0  0  1  0  0  0  0  0  0  0  0  0
   62.1408   11.3483   -1.0300 O   0  0  0  0  0  0  0  0  0  0  0  0
   64.5679   11.1569    0.8446 N   0  0  0  0  0  0  0  0  0  0  0  0
   65.5887   10.4944    1.2816 C   0  0  0  0  0  0  0  0  0  0  0  0
   65.8143    9.2644    0.7564 N   0  0  0  0  0  0  0  0  0  0  0  0
  1  5  1  1  0  0  0
  1 14  1  0  0  0  0
  1 19  2  0  0  0  0
  2 15  1  6  0  0  0
  2 20  2  0  0  0  0
  2 23  1  0  0  0  0
  3 16  1  6  0  0  0
  3 21  2  0  0  0  0
  3 24  1  0  0  0  0
  3 25  1  0  0  0  0
  4  6  1  0  0  0  0
  5  4  1  0  0  0  0
  6  7  1  0  0  0  0
  6  8  2  0  0  0  0
  7 12  1  0  0  0  0
  8  9  1  0  0  0  0
  8 10  1  0  0  0  0
 10 11  1  0  0  0  0
 10 12  2  0  0  0  0
 12 32  1  0  0  0  0
 13 17  1  0  0  0  0
 17 18  1  6  0  0  0
 17 22  1  0  0  0  0
 23  1  1  0  0  0  0
 24  2  1  0  0  0  0
 26 22  1  6  0  0  0
 27 26  1  0  0  0  0
 27 28  1  0  0  0  0
 27 30  1  6  0  0  0
 28 13  1  0  0  0  0
 28 29  1  6  0  0  0
 31 30  1  0  0  0  0
 32 26  1  0  0  0  0
 32 31  1  0  0  0  0
M  CHG  3  14  -1  15  -1  16  -1
M  END
>  <CHROM.1>
55.11355822,-68.16095331,77.59224508,-4.41749540,170.77939109,154.62372432
-169.66816103,-163.38390326,68.57018006,10.87097278,0.77980455,0.49210063
-0.35725041,0.05194518

>  <Name>
2au4_lig

>  <RI>
0

>  <Rbt.Current_Directory>
/home/itssahil/PROJECTS/Mol_Feturizer/New_Systems/rnas/2au4

>  <Rbt.Executable>
rbdock ($Id: //depot/dev/client3/rdock/2013.1/src/exe/rbdock.cxx#4 $)

>  <Rbt.Library>
libRbt.so (2013.1, Build901 2013/11/27)

>  <Rbt.Parameter_File>
/export/apps/rDock/src/rDock_2013.1_src/data/scripts/dock_solv.prm

>  <Rbt.Receptor>
prm/pocket_docking_7.prm

>  <SCORE>
-39.9385

>  <SCORE.INTER>
-13.0054

>  <SCORE.INTER.CONST>
1

>  <SCORE.INTER.POLAR>
-1.43363

>  <SCORE.INTER.ROT>
8

>  <SCORE.INTER.SOLV>
23.0772

>  <SCORE.INTER.VDW>
-20.5172

>  <SCORE.INTER.norm>
-0.406419

>  <SCORE.INTRA>
-26.9537

>  <SCORE.INTRA.DIHEDRAL>
-50.0942

>  <SCORE.INTRA.DIHEDRAL.0>
76.3625

>  <SCORE.INTRA.POLAR>
0

>  <SCORE.INTRA.POLAR.0>
0

>  <SCORE.INTRA.REPUL>
-0.12705

>  <SCORE.INTRA.REPUL.0>
0.12705

>  <SCORE.INTRA.SOLV>
-4.44994

>  <SCORE.INTRA.SOLV.lig_0>
-119.383

>  <SCORE.INTRA.VDW>
0.953574

>  <SCORE.INTRA.VDW.0>
-5.10464

>  <SCORE.INTRA.norm>
-0.842304

>  <SCORE.RESTR>
0.0206759

>  <SCORE.RESTR.CAVITY>
0.0206759

>  <SCORE.RESTR.norm>
0.000646122

>  <SCORE.SYSTEM>
0

>  <SCORE.SYSTEM.CONST>
0

>  <SCORE.SYSTEM.DIHEDRAL>
0

>  <SCORE.SYSTEM.SOLV>
0

>  <SCORE.SYSTEM.norm>
0

>  <SCORE.heavy>
32

>  <SCORE.norm>
-1.24808

>  <RMSD>
6.591

$$$$
2au4_lig
 OpenBabel11021811423D
libRbt.so/2013.1/901 2013/11/27
 32 34  0  0  0  0  0  0  0  0999 V2000
   66.6140    6.4179   -1.7440 P   0  0  1  0  0  0  0  0  0  0  0  0
   68.7354    4.9232   -2.5409 P   0  0  1  0  0  0  0  0  0  0  0  0
   71.2321    4.6204   -1.4847 P   0  0  2  0  0  0  0  0  0  0  0  0
   65.3113    8.7015   -1.3999 C   0  0  0  0  0  0  0  0  0  0  0  0
   66.4777    7.9030   -1.1397 O   0  0  0  0  0  0  0  0  0  0  0  0
   64.6543    9.2053   -0.1232 C   0  0  0  0  0  0  0  0  0  0  0  0
   65.2297    8.5612    1.0319 O   0  0  0  0  0  0  0  0  0  0  0  0
   64.8448   10.7068    0.0241 C   0  0  0  0  0  0  0  0  0  0  0  0
   63.5856   11.3893   -0.0175 O   0  0  0  0  0  0  0  0  0  0  0  0
   65.5361   10.9234    1.3490 C   0  0  0  0  0  0  0  0  0  0  0  0
   64.7539   11.7595    2.2123 O   0  0  0  0  0  0  0  0  0  0  0  0
   65.7291    9.5466    1.9608 C   0  0  0  0  0  0  0  0  0  0  0  0
   70.2256   11.6505    3.1531 N   0  0  0  0  0  0  0  0  0  0  0  0
   66.0675    5.4585   -0.7633 O   0  5  0  0  0  0  0  0  0  0  0  0
   68.5288    3.7601   -1.6563 O   0  5  0  0  0  0  0  0  0  0  0  0
   70.7667    5.1610   -0.1914 O   0  5  0  0  0  0  0  0  0  0  0  0
   69.0137   12.2559    2.9197 C   0  0  1  0  0  0  0  0  0  0  0  0
   68.9907   13.5790    3.0086 N   0  0  0  0  0  0  0  0  0  0  0  0
   66.1094    6.4255   -3.1337 O   0  0  0  0  0  0  0  0  0  0  0  0
   68.1917    4.9155   -3.9149 O   0  0  0  0  0  0  0  0  0  0  0  0
   72.6361    4.8124   -1.9040 O   0  0  0  0  0  0  0  0  0  0  0  0
   67.9008   11.5930    2.6151 N   0  0  0  0  0  0  0  0  0  0  0  0
   68.1875    6.2146   -1.8003 O   0  0  0  0  0  0  0  0  0  0  0  0
   70.2956    5.2114   -2.6294 O   0  0  0  0  0  0  0  0  0  0  0  0
   70.8967    3.0500   -1.5295 O   0  0  0  0  0  0  0  0  0  0  0  0
   68.1024   10.2562    2.5614 C   0  0  2  0  0  0  0  0  0  0  0  0
   69.2839    9.5669    2.7819 C   0  0  2  0  0  0  0  0  0  0  0  0
   70.4595   10.2879    3.1047 C   0  0  1  0  0  0  0  0  0  0  0  0
   71.5856    9.8535    3.3063 O   0  0  0  0  0  0  0  0  0  0  0  0
   69.0920    8.1891    2.6329 N   0  0  0  0  0  0  0  0  0  0  0  0
   67.8342    8.1359    2.3376 C   0  0  0  0  0  0  0  0  0  0  0  0
   67.1524    9.3065    2.2688 N   0  0  0  0  0  0  0  0  0  0  0  0
  1  5  1  1  0  0  0
  1 14  1  0  0  0  0
  1 19  2  0  0  0  0
  2 15  1  1  0  0  0
  2 20  2  0  0  0  0
  2 23  1  0  0  0  0
  3 16  1  1  0  0  0
  3 21  2  0  0  0  0
  3 24  1  0  0  0  0
  3 25  1  0  0  0  0
  4  6  1  0  0  0  0
  5  4  1  0  0  0  0
  6  7  1  0  0  0  0
  6  8  2  0  0  0  0
  7 12  1  0  0  0  0
  8  9  1  0  0  0  0
  8 10  1  0  0  0  0
 10 11  1  0  0  0  0
 10 12  2  0  0  0  0
 12 32  1  0  0  0  0
 13 17  1  0  0  0  0
 17 18  1  6  0  0  0
 17 22  1  0  0  0  0
 23  1  1  0  0  0  0
 24  2  1  0  0  0  0
 26 22  1  6  0  0  0
 27 26  1  0  0  0  0
 27 28  1  0  0  0  0
 27 30  1  6  0  0  0
 28 13  1  0  0  0  0
 28 29  1  6  0  0  0
 31 30  1  0  0  0  0
 32 26  1  0  0  0  0
 32 31  1  0  0  0  0
M  CHG  3  14  -1  15  -1  16  -1
M  END
>  <CHROM.1>
-91.20465948,-75.95070572,-58.67106906,-10.12983371,125.53602339,147.90771107
-171.57872356,-19.82771843,68.07050241,7.84191350,0.03595683,1.26213248,0.32396575
-2.44563783

>  <Name>
2au4_lig

>  <RI>
0

>  <Rbt.Current_Directory>
/home/itssahil/PROJECTS/Mol_Feturizer/New_Systems/rnas/2au4

>  <Rbt.Executable>
rbdock ($Id: //depot/dev/client3/rdock/2013.1/src/exe/rbdock.cxx#4 $)

>  <Rbt.Library>
libRbt.so (2013.1, Build901 2013/11/27)

>  <Rbt.Parameter_File>
/export/apps/rDock/src/rDock_2013.1_src/data/scripts/dock_solv.prm

>  <Rbt.Receptor>
prm/pocket_docking_3.prm

>  <SCORE>
-36.4107

>  <SCORE.INTER>
-14.5636

>  <SCORE.INTER.CONST>
1

>  <SCORE.INTER.POLAR>
-1.30949

>  <SCORE.INTER.ROT>
8

>  <SCORE.INTER.SOLV>
38.1726

>  <SCORE.INTER.VDW>
-27.0017

>  <SCORE.INTER.norm>
-0.455113

>  <SCORE.INTRA>
-21.8515

>  <SCORE.INTRA.DIHEDRAL>
-41.6074

>  <SCORE.INTRA.DIHEDRAL.0>
76.3625

>  <SCORE.INTRA.POLAR>
0

>  <SCORE.INTRA.POLAR.0>
0

>  <SCORE.INTRA.REPUL>
-0.12705

>  <SCORE.INTRA.REPUL.0>
0.12705

>  <SCORE.INTRA.SOLV>
-5.03167

>  <SCORE.INTRA.SOLV.lig_0>
-119.383

>  <SCORE.INTRA.VDW>
2.10326

>  <SCORE.INTRA.VDW.0>
-5.10464

>  <SCORE.INTRA.norm>
-0.682859

>  <SCORE.RESTR>
0.00446749

>  <SCORE.RESTR.CAVITY>
0.00446749

>  <SCORE.RESTR.norm>
0.000139609

>  <SCORE.SYSTEM>
0

>  <SCORE.SYSTEM.CONST>
0

>  <SCORE.SYSTEM.DIHEDRAL>
0

>  <SCORE.SYSTEM.SOLV>
0

>  <SCORE.SYSTEM.norm>
0

>  <SCORE.heavy>
32

>  <SCORE.norm>
-1.13783

>  <RMSD>
6.595

$$$$
2au4_lig
 OpenBabel11021811423D
libRbt.so/2013.1/901 2013/11/27
 32 34  0  0  0  0  0  0  0  0999 V2000
   70.4799   10.4106    3.8260 P   0  0  1  0  0  0  0  0  0  0  0  0
   71.7747   12.7794    4.1118 P   0  0  1  0  0  0  0  0  0  0  0  0
   72.5924   13.6914    1.6745 P   0  0  2  0  0  0  0  0  0  0  0  0
   68.1753   10.7299    5.0979 C   0  0  0  0  0  0  0  0  0  0  0  0
   69.1286   11.2249    4.1430 O   0  0  0  0  0  0  0  0  0  0  0  0
   67.1861    9.7529    4.4796 C   0  0  0  0  0  0  0  0  0  0  0  0
   66.3204   10.4300    3.5456 O   0  0  0  0  0  0  0  0  0  0  0  0
   67.9164    8.6456    3.7358 C   0  0  0  0  0  0  0  0  0  0  0  0
   67.6668    7.3711    4.3410 O   0  0  0  0  0  0  0  0  0  0  0  0
   67.4113    8.6792    2.3131 C   0  0  0  0  0  0  0  0  0  0  0  0
   66.8220    7.4259    1.9416 O   0  0  0  0  0  0  0  0  0  0  0  0
   66.3858    9.7978    2.2497 C   0  0  0  0  0  0  0  0  0  0  0  0
   68.3823   10.5025   -2.3962 N   0  0  0  0  0  0  0  0  0  0  0  0
   71.0801    9.9786    5.1043 O   0  5  0  0  0  0  0  0  0  0  0  0
   70.5771   13.6355    4.2156 O   0  5  0  0  0  0  0  0  0  0  0  0
   71.1541   13.9669    1.4826 O   0  5  0  0  0  0  0  0  0  0  0  0
   68.2006    9.3357   -1.6925 C   0  0  1  0  0  0  0  0  0  0  0  0
   68.6000    8.2208   -2.2898 N   0  0  0  0  0  0  0  0  0  0  0  0
   70.1956    9.4179    2.7678 O   0  0  0  0  0  0  0  0  0  0  0  0
   72.4386   12.2818    5.3345 O   0  0  0  0  0  0  0  0  0  0  0  0
   73.2212   12.5387    0.9964 O   0  0  0  0  0  0  0  0  0  0  0  0
   67.6623    9.2796   -0.4769 N   0  0  0  0  0  0  0  0  0  0  0  0
   71.4158   11.5306    3.2017 O   0  0  0  0  0  0  0  0  0  0  0  0
   72.8597   13.5436    3.2376 O   0  0  0  0  0  0  0  0  0  0  0  0
   73.4185   15.0169    1.2985 O   0  0  0  0  0  0  0  0  0  0  0  0
   67.3166   10.5037   -0.0157 C   0  0  2  0  0  0  0  0  0  0  0  0
   67.4633   11.7239   -0.6555 C   0  0  2  0  0  0  0  0  0  0  0  0
   68.0386   11.7657   -1.9492 C   0  0  1  0  0  0  0  0  0  0  0  0
   68.2662   12.7443   -2.6478 O   0  0  0  0  0  0  0  0  0  0  0  0
   66.9877   12.7670    0.1462 N   0  0  0  0  0  0  0  0  0  0  0  0
   66.5935   12.1240    1.1964 C   0  0  0  0  0  0  0  0  0  0  0  0
   66.7434   10.7759    1.2039 N   0  0  0  0  0  0  0  0  0  0  0  0
  1  5  1  1  0  0  0
  1 14  1  0  0  0  0
  1 19  2  0  0  0  0
  2 15  1  1  0  0  0
  2 20  2  0  0  0  0
  2 23  1  0  0  0  0
  3 16  1  6  0  0  0
  3 21  2  0  0  0  0
  3 24  1  0  0  0  0
  3 25  1  0  0  0  0
  4  6  1  0  0  0  0
  5  4  1  0  0  0  0
  6  7  1  0  0  0  0
  6  8  2  0  0  0  0
  7 12  1  0  0  0  0
  8  9  1  0  0  0  0
  8 10  1  0  0  0  0
 10 11  1  0  0  0  0
 10 12  2  0  0  0  0
 12 32  1  0  0  0  0
 13 17  1  0  0  0  0
 17 18  1  1  0  0  0
 17 22  1  0  0  0  0
 23  1  1  0  0  0  0
 24  2  1  0  0  0  0
 26 22  1  1  0  0  0
 27 26  1  0  0  0  0
 27 28  1  0  0  0  0
 27 30  1  1  0  0  0
 28 13  1  0  0  0  0
 28 29  1  1  0  0  0
 31 30  1  0  0  0  0
 32 26  1  0  0  0  0
 32 31  1  0  0  0  0
M  CHG  3  14  -1  15  -1  16  -1
M  END
>  <CHROM.1>
-45.50265126,-73.28677197,39.43384158,-67.68758796,-85.99015894,156.91363619
60.87895998,-71.31678528,69.48889204,11.20037669,2.04480050,0.23698351,0.69047720
1.90909306

>  <Name>
2au4_lig

>  <RI>
0

>  <Rbt.Current_Directory>
/home/itssahil/PROJECTS/Mol_Feturizer/New_Systems/rnas/2au4

>  <Rbt.Executable>
rbdock ($Id: //depot/dev/client3/rdock/2013.1/src/exe/rbdock.cxx#4 $)

>  <Rbt.Library>
libRbt.so (2013.1, Build901 2013/11/27)

>  <Rbt.Parameter_File>
/export/apps/rDock/src/rDock_2013.1_src/data/scripts/dock_solv.prm

>  <Rbt.Receptor>
prm/pocket_docking_7.prm

>  <SCORE>
-40.7011

>  <SCORE.INTER>
-17.9952

>  <SCORE.INTER.CONST>
1

>  <SCORE.INTER.POLAR>
-2.86613

>  <SCORE.INTER.ROT>
8

>  <SCORE.INTER.SOLV>
21.4621

>  <SCORE.INTER.VDW>
-18.5304

>  <SCORE.INTER.norm>
-0.562349

>  <SCORE.INTRA>
-22.7059

>  <SCORE.INTRA.DIHEDRAL>
-45.3463

>  <SCORE.INTRA.DIHEDRAL.0>
76.3625

>  <SCORE.INTRA.POLAR>
0

>  <SCORE.INTRA.POLAR.0>
0

>  <SCORE.INTRA.REPUL>
-0.12705

>  <SCORE.INTRA.REPUL.0>
0.12705

>  <SCORE.INTRA.SOLV>
0.219695

>  <SCORE.INTRA.SOLV.lig_0>
-119.383

>  <SCORE.INTRA.VDW>
0.4926

>  <SCORE.INTRA.VDW.0>
-5.10464

>  <SCORE.INTRA.norm>
-0.70956

>  <SCORE.RESTR>
0

>  <SCORE.RESTR.CAVITY>
0

>  <SCORE.RESTR.norm>
0

>  <SCORE.SYSTEM>
0

>  <SCORE.SYSTEM.CONST>
0

>  <SCORE.SYSTEM.DIHEDRAL>
0

>  <SCORE.SYSTEM.SOLV>
0

>  <SCORE.SYSTEM.norm>
0

>  <SCORE.heavy>
32

>  <SCORE.norm>
-1.27191

>  <RMSD>
6.605

$$$$
2au4_lig
 OpenBabel11021811423D
libRbt.so/2013.1/901 2013/11/27
 32 34  0  0  0  0  0  0  0  0999 V2000
   65.3687    7.8438   -1.7187 P   0  0  1  0  0  0  0  0  0  0  0  0
   67.3989    6.3959   -2.7916 P   0  0  1  0  0  0  0  0  0  0  0  0
   69.1187    5.0839   -1.1297 P   0  0  2  0  0  0  0  0  0  0  0  0
   64.1328    9.9583   -0.7028 C   0  0  0  0  0  0  0  0  0  0  0  0
   65.0570    9.4216   -1.6637 O   0  0  0  0  0  0  0  0  0  0  0  0
   64.5584   11.3249   -0.1864 C   0  0  0  0  0  0  0  0  0  0  0  0
   64.5732   11.3404    1.2557 O   0  0  0  0  0  0  0  0  0  0  0  0
   65.9526   11.6771   -0.6811 C   0  0  0  0  0  0  0  0  0  0  0  0
   65.9179   12.8281   -1.5336 O   0  0  0  0  0  0  0  0  0  0  0  0
   66.7908   11.9369    0.5479 C   0  0  0  0  0  0  0  0  0  0  0  0
   67.3356   13.2632    0.5340 O   0  0  0  0  0  0  0  0  0  0  0  0
   65.8713   11.7435    1.7413 C   0  0  0  0  0  0  0  0  0  0  0  0
   70.0557    9.3024    3.3532 N   0  0  0  0  0  0  0  0  0  0  0  0
   65.8043    7.4030   -0.3783 O   0  5  0  0  0  0  0  0  0  0  0  0
   66.4012    5.3149   -2.9106 O   0  5  0  0  0  0  0  0  0  0  0  0
   68.4075    3.8156   -1.3885 O   0  5  0  0  0  0  0  0  0  0  0  0
   69.9272   10.2627    2.3781 C   0  0  1  0  0  0  0  0  0  0  0  0
   71.0410   10.6163    1.7509 N   0  0  0  0  0  0  0  0  0  0  0  0
   64.2425    7.1634   -2.3930 O   0  0  0  0  0  0  0  0  0  0  0  0
   68.4609    6.5398   -3.8089 O   0  0  0  0  0  0  0  0  0  0  0  0
   69.7816    5.3075    0.1720 O   0  0  0  0  0  0  0  0  0  0  0  0
   68.7707   10.8309    2.0456 N   0  0  0  0  0  0  0  0  0  0  0  0
   66.6255    7.7769   -2.6863 O   0  0  0  0  0  0  0  0  0  0  0  0
   68.0931    6.2792   -1.3669 O   0  0  0  0  0  0  0  0  0  0  0  0
   70.1990    5.3083   -2.2973 O   0  0  0  0  0  0  0  0  0  0  0  0
   67.7386   10.3524    2.7780 C   0  0  2  0  0  0  0  0  0  0  0  0
   67.7796    9.3908    3.7747 C   0  0  2  0  0  0  0  0  0  0  0  0
   69.0188    8.7957    4.1160 C   0  0  1  0  0  0  0  0  0  0  0  0
   69.2392    7.9222    4.9441 O   0  0  0  0  0  0  0  0  0  0  0  0
   66.5028    9.1620    4.2987 N   0  0  0  0  0  0  0  0  0  0  0  0
   65.7879    9.9818    3.5995 C   0  0  0  0  0  0  0  0  0  0  0  0
   66.4231   10.7363    2.6683 N   0  0  0  0  0  0  0  0  0  0  0  0
  1  5  1  1  0  0  0
  1 14  1  0  0  0  0
  1 19  2  0  0  0  0
  2 15  1  6  0  0  0
  2 20  2  0  0  0  0
  2 23  1  0  0  0  0
  3 16  1  6  0  0  0
  3 21  2  0  0  0  0
  3 24  1  0  0  0  0
  3 25  1  0  0  0  0
  4  6  1  0  0  0  0
  5  4  1  0  0  0  0
  6  7  1  0  0  0  0
  6  8  2  0  0  0  0
  7 12  1  0  0  0  0
  8  9  1  0  0  0  0
  8 10  1  0  0  0  0
 10 11  1  0  0  0  0
 10 12  2  0  0  0  0
 12 32  1  0  0  0  0
 13 17  1  0  0  0  0
 17 18  1  6  0  0  0
 17 22  1  0  0  0  0
 23  1  1  0  0  0  0
 24  2  1  0  0  0  0
 26 22  1  6  0  0  0
 27 26  1  0  0  0  0
 27 28  1  0  0  0  0
 27 30  1  6  0  0  0
 28 13  1  0  0  0  0
 28 29  1  6  0  0  0
 31 30  1  0  0  0  0
 32 26  1  0  0  0  0
 32 31  1  0  0  0  0
M  CHG  3  14  -1  15  -1  16  -1
M  END
>  <CHROM.1>
-54.74440457,44.50396415,-57.65543404,-127.90472073,144.01757823,142.75933009
169.31450857,72.65475130,67.27137291,8.55794125,0.06651225,1.46083776,0.75354869
-2.33991295

>  <Name>
2au4_lig

>  <RI>
0

>  <Rbt.Current_Directory>
/home/itssahil/PROJECTS/Mol_Feturizer/New_Systems/rnas/2au4

>  <Rbt.Executable>
rbdock ($Id: //depot/dev/client3/rdock/2013.1/src/exe/rbdock.cxx#4 $)

>  <Rbt.Library>
libRbt.so (2013.1, Build901 2013/11/27)

>  <Rbt.Parameter_File>
/export/apps/rDock/src/rDock_2013.1_src/data/scripts/dock_solv.prm

>  <Rbt.Receptor>
prm/pocket_docking_4.prm

>  <SCORE>
-37.2469

>  <SCORE.INTER>
-13.1556

>  <SCORE.INTER.CONST>
1

>  <SCORE.INTER.POLAR>
-1.15308

>  <SCORE.INTER.ROT>
8

>  <SCORE.INTER.SOLV>
30.1541

>  <SCORE.INTER.VDW>
-23.9114

>  <SCORE.INTER.norm>
-0.411111

>  <SCORE.INTRA>
-24.0913

>  <SCORE.INTRA.DIHEDRAL>
-45.1926

>  <SCORE.INTRA.DIHEDRAL.0>
76.3625

>  <SCORE.INTRA.POLAR>
0

>  <SCORE.INTRA.POLAR.0>
0

>  <SCORE.INTRA.REPUL>
-0.12705

>  <SCORE.INTRA.REPUL.0>
0.12705

>  <SCORE.INTRA.SOLV>
-5.39801

>  <SCORE.INTRA.SOLV.lig_0>
-119.383

>  <SCORE.INTRA.VDW>
1.83923

>  <SCORE.INTRA.VDW.0>
-5.10464

>  <SCORE.INTRA.norm>
-0.752854

>  <SCORE.RESTR>
0

>  <SCORE.RESTR.CAVITY>
0

>  <SCORE.RESTR.norm>
0

>  <SCORE.SYSTEM>
0

>  <SCORE.SYSTEM.CONST>
0

>  <SCORE.SYSTEM.DIHEDRAL>
0

>  <SCORE.SYSTEM.SOLV>
0

>  <SCORE.SYSTEM.norm>
0

>  <SCORE.heavy>
32

>  <SCORE.norm>
-1.16397

>  <RMSD>
6.623

$$$$
2au4_lig
 OpenBabel11021811423D
libRbt.so/2013.1/901 2013/11/27
 32 34  0  0  0  0  0  0  0  0999 V2000
   68.0541    6.1754   -0.0451 P   0  0  1  0  0  0  0  0  0  0  0  0
   68.2048    8.0638   -1.9895 P   0  0  1  0  0  0  0  0  0  0  0  0
   68.3342    6.0681   -3.8445 P   0  0  2  0  0  0  0  0  0  0  0  0
   67.6369    7.8538    1.9648 C   0  0  0  0  0  0  0  0  0  0  0  0
   67.1662    7.2620    0.7424 O   0  0  0  0  0  0  0  0  0  0  0  0
   66.8683    9.1138    2.3349 C   0  0  0  0  0  0  0  0  0  0  0  0
   67.7606   10.2429    2.4303 O   0  0  0  0  0  0  0  0  0  0  0  0
   65.8125    9.4280    1.2865 C   0  0  0  0  0  0  0  0  0  0  0  0
   64.4958    9.3478    1.8457 O   0  0  0  0  0  0  0  0  0  0  0  0
   66.1061   10.8224    0.7868 C   0  0  0  0  0  0  0  0  0  0  0  0
   64.9883   11.6956    0.9974 O   0  0  0  0  0  0  0  0  0  0  0  0
   67.3218   11.3061    1.5583 C   0  0  0  0  0  0  0  0  0  0  0  0
   72.3190   12.1909    1.0001 N   0  0  0  0  0  0  0  0  0  0  0  0
   68.9473    5.5068    0.9224 O   0  5  0  0  0  0  0  0  0  0  0  0
   66.7545    7.8088   -1.8915 O   0  5  0  0  0  0  0  0  0  0  0  0
   68.9404    5.1418   -2.8668 O   0  5  0  0  0  0  0  0  0  0  0  0
   71.6226   11.7948    2.1171 C   0  0  1  0  0  0  0  0  0  0  0  0
   72.3353   11.6154    3.2212 N   0  0  0  0  0  0  0  0  0  0  0  0
   67.1615    5.3718   -0.9074 O   0  0  0  0  0  0  0  0  0  0  0  0
   68.7337    9.4274   -1.7787 O   0  0  0  0  0  0  0  0  0  0  0  0
   68.6401    5.9281   -5.2835 O   0  0  0  0  0  0  0  0  0  0  0  0
   70.3073   11.5939    2.1377 N   0  0  0  0  0  0  0  0  0  0  0  0
   68.9504    7.0848   -0.9885 O   0  0  0  0  0  0  0  0  0  0  0  0
   68.7060    7.5542   -3.4087 O   0  0  0  0  0  0  0  0  0  0  0  0
   66.7392    6.0332   -3.6565 O   0  0  0  0  0  0  0  0  0  0  0  0
   69.7374   11.8258    0.9328 C   0  0  2  0  0  0  0  0  0  0  0  0
   70.3614   12.2250   -0.2381 C   0  0  2  0  0  0  0  0  0  0  0  0
   71.7622   12.4348   -0.2426 C   0  0  1  0  0  0  0  0  0  0  0  0
   72.4713   12.8078   -1.1676 O   0  0  0  0  0  0  0  0  0  0  0  0
   69.4330   12.3617   -1.2757 N   0  0  0  0  0  0  0  0  0  0  0  0
   68.3315   12.0439   -0.6776 C   0  0  0  0  0  0  0  0  0  0  0  0
   68.4003   11.7092    0.6350 N   0  0  0  0  0  0  0  0  0  0  0  0
  1  5  1  1  0  0  0
  1 14  1  0  0  0  0
  1 19  2  0  0  0  0
  2 15  1  1  0  0  0
  2 20  2  0  0  0  0
  2 23  1  0  0  0  0
  3 16  1  1  0  0  0
  3 21  2  0  0  0  0
  3 24  1  0  0  0  0
  3 25  1  0  0  0  0
  4  6  1  0  0  0  0
  5  4  1  0  0  0  0
  6  7  1  0  0  0  0
  6  8  2  0  0  0  0
  7 12  1  0  0  0  0
  8  9  1  0  0  0  0
  8 10  1  0  0  0  0
 10 11  1  0  0  0  0
 10 12  2  0  0  0  0
 12 32  1  0  0  0  0
 13 17  1  0  0  0  0
 17 18  1  1  0  0  0
 17 22  1  0  0  0  0
 23  1  1  0  0  0  0
 24  2  1  0  0  0  0
 26 22  1  1  0  0  0
 27 26  1  0  0  0  0
 27 28  1  0  0  0  0
 27 30  1  1  0  0  0
 28 13  1  0  0  0  0
 28 29  1  1  0  0  0
 31 30  1  0  0  0  0
 32 26  1  0  0  0  0
 32 31  1  0  0  0  0
M  CHG  3  14  -1  15  -1  16  -1
M  END
>  <CHROM.1>
25.74231192,-5.04368298,-61.11844230,-121.08606959,163.59361752,-39.48224889
-57.33342359,-51.65955352,68.48760121,9.00271111,-0.42515276,1.93494611,-0.58288871
-2.36727077

>  <Name>
2au4_lig

>  <RI>
0

>  <Rbt.Current_Directory>
/home/itssahil/PROJECTS/Mol_Feturizer/New_Systems/rnas/2au4

>  <Rbt.Executable>
rbdock ($Id: //depot/dev/client3/rdock/2013.1/src/exe/rbdock.cxx#4 $)

>  <Rbt.Library>
libRbt.so (2013.1, Build901 2013/11/27)

>  <Rbt.Parameter_File>
/export/apps/rDock/src/rDock_2013.1_src/data/scripts/dock_solv.prm

>  <Rbt.Receptor>
prm/pocket_docking_2.prm

>  <SCORE>
-22.5794

>  <SCORE.INTER>
-7.04989

>  <SCORE.INTER.CONST>
1

>  <SCORE.INTER.POLAR>
-0.00536716

>  <SCORE.INTER.ROT>
8

>  <SCORE.INTER.SOLV>
25.5254

>  <SCORE.INTER.VDW>
-22.1238

>  <SCORE.INTER.norm>
-0.220309

>  <SCORE.INTRA>
-19.744

>  <SCORE.INTRA.DIHEDRAL>
-45.2552

>  <SCORE.INTRA.DIHEDRAL.0>
76.3625

>  <SCORE.INTRA.POLAR>
0

>  <SCORE.INTRA.POLAR.0>
0

>  <SCORE.INTRA.REPUL>
0.0186205

>  <SCORE.INTRA.REPUL.0>
0.12705

>  <SCORE.INTRA.SOLV>
2.74081

>  <SCORE.INTRA.SOLV.lig_0>
-119.383

>  <SCORE.INTRA.VDW>
1.42013

>  <SCORE.INTRA.VDW.0>
-5.10464

>  <SCORE.INTRA.norm>
-0.616999

>  <SCORE.RESTR>
4.21441

>  <SCORE.RESTR.CAVITY>
4.21441

>  <SCORE.RESTR.norm>
0.1317

>  <SCORE.SYSTEM>
0

>  <SCORE.SYSTEM.CONST>
0

>  <SCORE.SYSTEM.DIHEDRAL>
0

>  <SCORE.SYSTEM.SOLV>
0

>  <SCORE.SYSTEM.norm>
0

>  <SCORE.heavy>
32

>  <SCORE.norm>
-0.705608

>  <RMSD>
6.625

$$$$
2au4_lig
 OpenBabel11021811423D
libRbt.so/2013.1/901 2013/11/27
 32 34  0  0  0  0  0  0  0  0999 V2000
   68.2008    7.5272    3.2228 P   0  0  1  0  0  0  0  0  0  0  0  0
   68.1420    9.2734    5.3005 P   0  0  1  0  0  0  0  0  0  0  0  0
   66.3332   11.2964    5.5768 P   0  0  2  0  0  0  0  0  0  0  0  0
   67.2138    8.9512    1.2157 C   0  0  0  0  0  0  0  0  0  0  0  0
   67.1311    8.5516    2.5938 O   0  0  0  0  0  0  0  0  0  0  0  0
   66.2256   10.0554    0.8696 C   0  0  0  0  0  0  0  0  0  0  0  0
   66.8917   11.3335    0.8142 O   0  0  0  0  0  0  0  0  0  0  0  0
   65.5797    9.7956   -0.4824 C   0  0  0  0  0  0  0  0  0  0  0  0
   64.1687    9.5884   -0.3445 O   0  0  0  0  0  0  0  0  0  0  0  0
   65.8697   11.0070   -1.3360 C   0  0  0  0  0  0  0  0  0  0  0  0
   64.6578   11.6256   -1.7884 O   0  0  0  0  0  0  0  0  0  0  0  0
   66.6708   11.9608   -0.4668 C   0  0  0  0  0  0  0  0  0  0  0  0
   71.5192   13.4024    0.2275 N   0  0  0  0  0  0  0  0  0  0  0  0
   67.7570    6.1482    2.9364 O   0  5  0  0  0  0  0  0  0  0  0  0
   68.4418    9.2424    6.7453 O   0  5  0  0  0  0  0  0  0  0  0  0
   66.9998   12.2229    4.6395 O   0  5  0  0  0  0  0  0  0  0  0  0
   70.5390   13.1602    1.1603 C   0  0  1  0  0  0  0  0  0  0  0  0
   70.8832   13.3237    2.4307 N   0  0  0  0  0  0  0  0  0  0  0  0
   69.5586    7.9647    2.8338 O   0  0  0  0  0  0  0  0  0  0  0  0
   69.0208   10.0207    4.3769 O   0  0  0  0  0  0  0  0  0  0  0  0
   66.6074   11.3869    7.0261 O   0  0  0  0  0  0  0  0  0  0  0  0
   69.3000   12.7846    0.8528 N   0  0  0  0  0  0  0  0  0  0  0  0
   68.0386    7.7778    4.7820 O   0  0  0  0  0  0  0  0  0  0  0  0
   66.6578    9.8085    5.1105 O   0  0  0  0  0  0  0  0  0  0  0  0
   64.7461   11.3992    5.3507 O   0  0  0  0  0  0  0  0  0  0  0  0
   69.1188   12.6705   -0.4832 C   0  0  2  0  0  0  0  0  0  0  0  0
   70.0471   12.8939   -1.4873 C   0  0  2  0  0  0  0  0  0  0  0  0
   71.3615   13.2936   -1.1426 C   0  0  1  0  0  0  0  0  0  0  0  0
   72.2955   13.5563   -1.8882 O   0  0  0  0  0  0  0  0  0  0  0  0
   69.4807   12.6729   -2.7473 N   0  0  0  0  0  0  0  0  0  0  0  0
   68.2726   12.3381   -2.4302 C   0  0  0  0  0  0  0  0  0  0  0  0
   67.9524   12.3052   -1.1126 N   0  0  0  0  0  0  0  0  0  0  0  0
  1  5  1  6  0  0  0
  1 14  1  0  0  0  0
  1 19  2  0  0  0  0
  2 15  1  1  0  0  0
  2 20  2  0  0  0  0
  2 23  1  0  0  0  0
  3 16  1  6  0  0  0
  3 21  2  0  0  0  0
  3 24  1  0  0  0  0
  3 25  1  0  0  0  0
  4  6  1  0  0  0  0
  5  4  1  0  0  0  0
  6  7  1  0  0  0  0
  6  8  2  0  0  0  0
  7 12  1  0  0  0  0
  8  9  1  0  0  0  0
  8 10  1  0  0  0  0
 10 11  1  0  0  0  0
 10 12  2  0  0  0  0
 12 32  1  0  0  0  0
 13 17  1  0  0  0  0
 17 18  1  6  0  0  0
 17 22  1  0  0  0  0
 23  1  1  0  0  0  0
 24  2  1  0  0  0  0
 26 22  1  6  0  0  0
 27 26  1  0  0  0  0
 27 28  1  0  0  0  0
 27 30  1  6  0  0  0
 28 13  1  0  0  0  0
 28 29  1  6  0  0  0
 31 30  1  0  0  0  0
 32 26  1  0  0  0  0
 32 31  1  0  0  0  0
M  CHG  3  14  -1  15  -1  16  -1
M  END
>  <CHROM.1>
-84.86541359,-160.27502762,70.57097764,101.69074715,-172.56069869,-32.06981156
-52.32943720,63.57371399,67.92507785,10.70359172,2.06432164,1.88641111,0.54785532
1.87102194

>  <Name>
2au4_lig

>  <RI>
0

>  <Rbt.Current_Directory>
/home/itssahil/PROJECTS/Mol_Feturizer/New_Systems/rnas/2au4

>  <Rbt.Executable>
rbdock ($Id: //depot/dev/client3/rdock/2013.1/src/exe/rbdock.cxx#4 $)

>  <Rbt.Library>
libRbt.so (2013.1, Build901 2013/11/27)

>  <Rbt.Parameter_File>
/export/apps/rDock/src/rDock_2013.1_src/data/scripts/dock_solv.prm

>  <Rbt.Receptor>
prm/pocket_docking_5.prm

>  <SCORE>
-40.2857

>  <SCORE.INTER>
-14.3695

>  <SCORE.INTER.CONST>
1

>  <SCORE.INTER.POLAR>
-1.14575

>  <SCORE.INTER.ROT>
8

>  <SCORE.INTER.SOLV>
24.1338

>  <SCORE.INTER.VDW>
-22.7384

>  <SCORE.INTER.norm>
-0.449047

>  <SCORE.INTRA>
-25.9162

>  <SCORE.INTRA.DIHEDRAL>
-49.369

>  <SCORE.INTRA.DIHEDRAL.0>
76.3625

>  <SCORE.INTRA.POLAR>
0

>  <SCORE.INTRA.POLAR.0>
0

>  <SCORE.INTRA.REPUL>
0.0568184

>  <SCORE.INTRA.REPUL.0>
0.12705

>  <SCORE.INTRA.SOLV>
-5.10527

>  <SCORE.INTRA.SOLV.lig_0>
-119.383

>  <SCORE.INTRA.VDW>
1.03688

>  <SCORE.INTRA.VDW.0>
-5.10464

>  <SCORE.INTRA.norm>
-0.80988

>  <SCORE.RESTR>
0

>  <SCORE.RESTR.CAVITY>
0

>  <SCORE.RESTR.norm>
0

>  <SCORE.SYSTEM>
0

>  <SCORE.SYSTEM.CONST>
0

>  <SCORE.SYSTEM.DIHEDRAL>
0

>  <SCORE.SYSTEM.SOLV>
0

>  <SCORE.SYSTEM.norm>
0

>  <SCORE.heavy>
32

>  <SCORE.norm>
-1.25893

>  <RMSD>
6.664

$$$$
2au4_lig
 OpenBabel11021811423D
libRbt.so/2013.1/901 2013/11/27
 32 34  0  0  0  0  0  0  0  0999 V2000
   70.1163   10.0355    1.3406 P   0  0  1  0  0  0  0  0  0  0  0  0
   72.6484   10.9030    1.7940 P   0  0  1  0  0  0  0  0  0  0  0  0
   72.9249   13.4471    0.8497 P   0  0  2  0  0  0  0  0  0  0  0  0
   68.7456    8.1576    0.0658 C   0  0  0  0  0  0  0  0  0  0  0  0
   69.4621    8.5686    1.2420 O   0  0  0  0  0  0  0  0  0  0  0  0
   67.6094    7.1964    0.3828 C   0  0  0  0  0  0  0  0  0  0  0  0
   66.5468    7.8789    1.0795 O   0  0  0  0  0  0  0  0  0  0  0  0
   67.0364    6.6003   -0.8935 C   0  0  0  0  0  0  0  0  0  0  0  0
   67.2406    5.1827   -0.9332 O   0  0  0  0  0  0  0  0  0  0  0  0
   65.5644    6.9372   -0.9010 C   0  0  0  0  0  0  0  0  0  0  0  0
   64.7605    5.7509   -0.9527 O   0  0  0  0  0  0  0  0  0  0  0  0
   65.2972    7.7151    0.3759 C   0  0  0  0  0  0  0  0  0  0  0  0
   62.0981   10.3089   -2.6414 N   0  0  0  0  0  0  0  0  0  0  0  0
   69.8640   10.7498    0.0730 O   0  5  0  0  0  0  0  0  0  0  0  0
   72.2273   11.4548    3.0964 O   0  5  0  0  0  0  0  0  0  0  0  0
   73.3347   13.9387   -0.4814 O   0  5  0  0  0  0  0  0  0  0  0  0
   62.4399    8.9778   -2.6719 C   0  0  1  0  0  0  0  0  0  0  0  0
   61.8685    8.2457   -3.6189 N   0  0  0  0  0  0  0  0  0  0  0  0
   69.7167   10.6451    2.6270 O   0  0  0  0  0  0  0  0  0  0  0  0
   74.0365   10.4344    1.6012 O   0  0  0  0  0  0  0  0  0  0  0  0
   73.9034   13.4069    1.9564 O   0  0  0  0  0  0  0  0  0  0  0  0
   63.2938    8.4123   -1.8223 N   0  0  0  0  0  0  0  0  0  0  0  0
   71.6689    9.7132    1.4181 O   0  0  0  0  0  0  0  0  0  0  0  0
   72.3308   11.9804    0.6699 O   0  0  0  0  0  0  0  0  0  0  0  0
   71.6451   14.2903    1.3311 O   0  0  0  0  0  0  0  0  0  0  0  0
   63.7855    9.3001   -0.9275 C   0  0  2  0  0  0  0  0  0  0  0  0
   63.4960   10.6513   -0.8262 C   0  0  2  0  0  0  0  0  0  0  0  0
   62.5851   11.2374   -1.7390 C   0  0  1  0  0  0  0  0  0  0  0  0
   62.2325   12.4068   -1.8148 O   0  0  0  0  0  0  0  0  0  0  0  0
   64.2055   11.2350    0.2288 N   0  0  0  0  0  0  0  0  0  0  0  0
   64.8644   10.2210    0.6866 C   0  0  0  0  0  0  0  0  0  0  0  0
   64.6881    9.0247    0.0723 N   0  0  0  0  0  0  0  0  0  0  0  0
  1  5  1  6  0  0  0
  1 14  1  0  0  0  0
  1 19  2  0  0  0  0
  2 15  1  1  0  0  0
  2 20  2  0  0  0  0
  2 23  1  0  0  0  0
  3 16  1  6  0  0  0
  3 21  2  0  0  0  0
  3 24  1  0  0  0  0
  3 25  1  0  0  0  0
  4  6  1  0  0  0  0
  5  4  1  0  0  0  0
  6  7  1  0  0  0  0
  6  8  2  0  0  0  0
  7 12  1  0  0  0  0
  8  9  1  0  0  0  0
  8 10  1  0  0  0  0
 10 11  1  0  0  0  0
 10 12  2  0  0  0  0
 12 32  1  0  0  0  0
 13 17  1  0  0  0  0
 17 18  1  6  0  0  0
 17 22  1  0  0  0  0
 23  1  1  0  0  0  0
 24  2  1  0  0  0  0
 26 22  1  6  0  0  0
 27 26  1  0  0  0  0
 27 28  1  0  0  0  0
 27 30  1  6  0  0  0
 28 13  1  0  0  0  0
 28 29  1  6  0  0  0
 31 30  1  0  0  0  0
 32 26  1  0  0  0  0
 32 31  1  0  0  0  0
M  CHG  3  14  -1  15  -1  16  -1
M  END
>  <CHROM.1>
-1.38423853,57.11284923,142.12880617,69.85124767,-147.70930087,156.53278057
-168.96919020,54.64434516,68.17798600,10.07785627,0.20745099,-0.29505794
0.32963858,3.05954512

>  <Name>
2au4_lig

>  <RI>
0

>  <Rbt.Current_Directory>
/home/itssahil/PROJECTS/Mol_Feturizer/New_Systems/rnas/2au4

>  <Rbt.Executable>
rbdock ($Id: //depot/dev/client3/rdock/2013.1/src/exe/rbdock.cxx#4 $)

>  <Rbt.Library>
libRbt.so (2013.1, Build901 2013/11/27)

>  <Rbt.Parameter_File>
/export/apps/rDock/src/rDock_2013.1_src/data/scripts/dock_solv.prm

>  <Rbt.Receptor>
prm/pocket_docking_7.prm

>  <SCORE>
-42.3693

>  <SCORE.INTER>
-20.1636

>  <SCORE.INTER.CONST>
1

>  <SCORE.INTER.POLAR>
-2.71604

>  <SCORE.INTER.ROT>
8

>  <SCORE.INTER.SOLV>
27.0346

>  <SCORE.INTER.VDW>
-22.3338

>  <SCORE.INTER.norm>
-0.630112

>  <SCORE.INTRA>
-22.2057

>  <SCORE.INTRA.DIHEDRAL>
-41.7166

>  <SCORE.INTRA.DIHEDRAL.0>
76.3625

>  <SCORE.INTRA.POLAR>
0

>  <SCORE.INTRA.POLAR.0>
0

>  <SCORE.INTRA.REPUL>
-0.12705

>  <SCORE.INTRA.REPUL.0>
0.12705

>  <SCORE.INTRA.SOLV>
-5.13704

>  <SCORE.INTRA.SOLV.lig_0>
-119.383

>  <SCORE.INTRA.VDW>
1.85636

>  <SCORE.INTRA.VDW.0>
-5.10464

>  <SCORE.INTRA.norm>
-0.693928

>  <SCORE.RESTR>
0

>  <SCORE.RESTR.CAVITY>
0

>  <SCORE.RESTR.norm>
0

>  <SCORE.SYSTEM>
0

>  <SCORE.SYSTEM.CONST>
0

>  <SCORE.SYSTEM.DIHEDRAL>
0

>  <SCORE.SYSTEM.SOLV>
0

>  <SCORE.SYSTEM.norm>
0

>  <SCORE.heavy>
32

>  <SCORE.norm>
-1.32404

>  <RMSD>
6.667

$$$$
2au4_lig
 OpenBabel11021811423D
libRbt.so/2013.1/901 2013/11/27
 32 34  0  0  0  0  0  0  0  0999 V2000
   64.6131    8.5634   -1.8794 P   0  0  1  0  0  0  0  0  0  0  0  0
   65.7120    6.1728   -2.5477 P   0  0  1  0  0  0  0  0  0  0  0  0
   68.2217    5.7384   -1.5713 P   0  0  2  0  0  0  0  0  0  0  0  0
   64.3251   11.1871   -1.6263 C   0  0  0  0  0  0  0  0  0  0  0  0
   65.1969   10.0620   -1.8258 O   0  0  0  0  0  0  0  0  0  0  0  0
   65.0507   12.3884   -1.0384 C   0  0  0  0  0  0  0  0  0  0  0  0
   65.0196   12.3446    0.4029 O   0  0  0  0  0  0  0  0  0  0  0  0
   66.5047   12.4099   -1.4832 C   0  0  0  0  0  0  0  0  0  0  0  0
   66.7784   13.5666   -2.2832 O   0  0  0  0  0  0  0  0  0  0  0  0
   67.3384   12.4109   -0.2241 C   0  0  0  0  0  0  0  0  0  0  0  0
   68.1879   13.5646   -0.1648 O   0  0  0  0  0  0  0  0  0  0  0  0
   66.3592   12.4013    0.9371 C   0  0  0  0  0  0  0  0  0  0  0  0
   69.8653    9.2148    2.8396 N   0  0  0  0  0  0  0  0  0  0  0  0
   64.4552    8.0699   -0.4965 O   0  5  0  0  0  0  0  0  0  0  0  0
   64.3266    5.7902   -2.2123 O   0  5  0  0  0  0  0  0  0  0  0  0
   68.6592    7.1020   -1.9326 O   0  5  0  0  0  0  0  0  0  0  0  0
   70.0195   10.2503    1.9489 C   0  0  1  0  0  0  0  0  0  0  0  0
   71.2506   10.4653    1.5048 N   0  0  0  0  0  0  0  0  0  0  0  0
   63.4655    8.5369   -2.8113 O   0  0  0  0  0  0  0  0  0  0  0  0
   66.3396    5.6723   -3.7883 O   0  0  0  0  0  0  0  0  0  0  0  0
   68.5124    4.6051   -2.4741 O   0  0  0  0  0  0  0  0  0  0  0  0
   69.0189   11.0181    1.5248 N   0  0  0  0  0  0  0  0  0  0  0  0
   65.8032    7.7565   -2.5523 O   0  0  0  0  0  0  0  0  0  0  0  0
   66.6484    5.7763   -1.3265 O   0  0  0  0  0  0  0  0  0  0  0  0
   68.7979    5.3894   -0.1129 O   0  0  0  0  0  0  0  0  0  0  0  0
   67.8344   10.6596    2.0716 C   0  0  2  0  0  0  0  0  0  0  0  0
   67.5912    9.6353    2.9724 C   0  0  2  0  0  0  0  0  0  0  0  0
   68.6677    8.8272    3.4133 C   0  0  1  0  0  0  0  0  0  0  0  0
   68.6370    7.8729    4.1788 O   0  0  0  0  0  0  0  0  0  0  0  0
   66.2337    9.5766    3.3053 N   0  0  0  0  0  0  0  0  0  0  0  0
   65.7542   10.5477    2.5989 C   0  0  0  0  0  0  0  0  0  0  0  0
   66.6191   11.2555    1.8303 N   0  0  0  0  0  0  0  0  0  0  0  0
  1  5  1  1  0  0  0
  1 14  1  0  0  0  0
  1 19  2  0  0  0  0
  2 15  1  1  0  0  0
  2 20  2  0  0  0  0
  2 23  1  0  0  0  0
  3 16  1  6  0  0  0
  3 21  2  0  0  0  0
  3 24  1  0  0  0  0
  3 25  1  0  0  0  0
  4  6  1  0  0  0  0
  5  4  1  0  0  0  0
  6  7  1  0  0  0  0
  6  8  2  0  0  0  0
  7 12  1  0  0  0  0
  8  9  1  0  0  0  0
  8 10  1  0  0  0  0
 10 11  1  0  0  0  0
 10 12  2  0  0  0  0
 12 32  1  0  0  0  0
 13 17  1  0  0  0  0
 17 18  1  6  0  0  0
 17 22  1  0  0  0  0
 23  1  1  0  0  0  0
 24  2  1  0  0  0  0
 26 22  1  6  0  0  0
 27 26  1  0  0  0  0
 27 28  1  0  0  0  0
 27 30  1  6  0  0  0
 28 13  1  0  0  0  0
 28 29  1  6  0  0  0
 31 30  1  0  0  0  0
 32 26  1  0  0  0  0
 32 31  1  0  0  0  0
M  CHG  3  14  -1  15  -1  16  -1
M  END
>  <CHROM.1>
-83.15037109,14.88213635,62.42916974,-89.56914409,156.07582113,151.03177850
169.39447385,164.74159082,66.83059847,8.98227518,-0.35453454,1.87845049,0.78942410
-2.73706443

>  <Name>
2au4_lig

>  <RI>
0

>  <Rbt.Current_Directory>
/home/itssahil/PROJECTS/Mol_Feturizer/New_Systems/rnas/2au4

>  <Rbt.Executable>
rbdock ($Id: //depot/dev/client3/rdock/2013.1/src/exe/rbdock.cxx#4 $)

>  <Rbt.Library>
libRbt.so (2013.1, Build901 2013/11/27)

>  <Rbt.Parameter_File>
/export/apps/rDock/src/rDock_2013.1_src/data/scripts/dock_solv.prm

>  <Rbt.Receptor>
prm/pocket_docking_4.prm

>  <SCORE>
-37.0652

>  <SCORE.INTER>
-12.7846

>  <SCORE.INTER.CONST>
1

>  <SCORE.INTER.POLAR>
-0.781411

>  <SCORE.INTER.ROT>
8

>  <SCORE.INTER.SOLV>
31.6412

>  <SCORE.INTER.VDW>
-25.3987

>  <SCORE.INTER.norm>
-0.399517

>  <SCORE.INTRA>
-24.2806

>  <SCORE.INTRA.DIHEDRAL>
-45.6706

>  <SCORE.INTRA.DIHEDRAL.0>
76.3625

>  <SCORE.INTRA.POLAR>
0

>  <SCORE.INTRA.POLAR.0>
0

>  <SCORE.INTRA.REPUL>
-0.12705

>  <SCORE.INTRA.REPUL.0>
0.12705

>  <SCORE.INTRA.SOLV>
-4.49376

>  <SCORE.INTRA.SOLV.lig_0>
-119.383

>  <SCORE.INTRA.VDW>
1.43677

>  <SCORE.INTRA.VDW.0>
-5.10464

>  <SCORE.INTRA.norm>
-0.75877

>  <SCORE.RESTR>
0

>  <SCORE.RESTR.CAVITY>
0

>  <SCORE.RESTR.norm>
0

>  <SCORE.SYSTEM>
0

>  <SCORE.SYSTEM.CONST>
0

>  <SCORE.SYSTEM.DIHEDRAL>
0

>  <SCORE.SYSTEM.SOLV>
0

>  <SCORE.SYSTEM.norm>
0

>  <SCORE.heavy>
32

>  <SCORE.norm>
-1.15829

>  <RMSD>
6.676

$$$$
2au4_lig
 OpenBabel11021811423D
libRbt.so/2013.1/901 2013/11/27
 32 34  0  0  0  0  0  0  0  0999 V2000
   68.3825    8.3531    2.3441 P   0  0  1  0  0  0  0  0  0  0  0  0
   69.2700    6.2907    0.8182 P   0  0  1  0  0  0  0  0  0  0  0  0
   70.6206    4.8036   -1.0271 P   0  0  2  0  0  0  0  0  0  0  0  0
   69.0972   10.7416    1.4415 C   0  0  0  0  0  0  0  0  0  0  0  0
   68.0473    9.8071    1.7415 O   0  0  0  0  0  0  0  0  0  0  0  0
   68.8431   11.5079    0.1516 C   0  0  0  0  0  0  0  0  0  0  0  0
   68.7264   10.6003   -0.9632 O   0  0  0  0  0  0  0  0  0  0  0  0
   67.5562   12.3124    0.2479 C   0  0  0  0  0  0  0  0  0  0  0  0
   67.8232   13.7175    0.1634 O   0  0  0  0  0  0  0  0  0  0  0  0
   66.6792   11.8568   -0.8938 C   0  0  0  0  0  0  0  0  0  0  0  0
   66.3399   12.9508   -1.7565 O   0  0  0  0  0  0  0  0  0  0  0  0
   67.4709   10.8013   -1.6463 C   0  0  0  0  0  0  0  0  0  0  0  0
   62.8504    8.6389   -1.8502 N   0  0  0  0  0  0  0  0  0  0  0  0
   69.0641    8.5272    3.6425 O   0  5  0  0  0  0  0  0  0  0  0  0
   69.8407    5.3992    1.8466 O   0  5  0  0  0  0  0  0  0  0  0  0
   71.4353    5.0100   -2.2415 O   0  5  0  0  0  0  0  0  0  0  0  0
   63.1883    9.9687   -1.7661 C   0  0  1  0  0  0  0  0  0  0  0  0
   62.1804   10.8299   -1.7269 N   0  0  0  0  0  0  0  0  0  0  0  0
   67.1698    7.5124    2.2506 O   0  0  0  0  0  0  0  0  0  0  0  0
   67.8719    6.1114    0.3747 O   0  0  0  0  0  0  0  0  0  0  0  0
   69.4018    3.9700   -1.0873 O   0  0  0  0  0  0  0  0  0  0  0  0
   64.4417   10.4132   -1.7203 N   0  0  0  0  0  0  0  0  0  0  0  0
   69.4445    7.7896    1.3074 O   0  0  0  0  0  0  0  0  0  0  0  0
   70.2057    6.2349   -0.4650 O   0  0  0  0  0  0  0  0  0  0  0  0
   71.5731    4.2310    0.1329 O   0  0  0  0  0  0  0  0  0  0  0  0
   65.3422    9.4045   -1.7653 C   0  0  2  0  0  0  0  0  0  0  0  0
   65.0895    8.0448   -1.8502 C   0  0  2  0  0  0  0  0  0  0  0  0
   63.7494    7.5885   -1.8976 C   0  0  1  0  0  0  0  0  0  0  0  0
   63.3409    6.4360   -1.9481 O   0  0  0  0  0  0  0  0  0  0  0  0
   66.2838    7.3166   -1.8721 N   0  0  0  0  0  0  0  0  0  0  0  0
   67.1623    8.2627   -1.7999 C   0  0  0  0  0  0  0  0  0  0  0  0
   66.7099    9.5396   -1.7321 N   0  0  0  0  0  0  0  0  0  0  0  0
  1  5  1  6  0  0  0
  1 14  1  0  0  0  0
  1 19  2  0  0  0  0
  2 15  1  1  0  0  0
  2 20  2  0  0  0  0
  2 23  1  0  0  0  0
  3 16  1  6  0  0  0
  3 21  2  0  0  0  0
  3 24  1  0  0  0  0
  3 25  1  0  0  0  0
  4  6  1  0  0  0  0
  5  4  1  0  0  0  0
  6  7  1  0  0  0  0
  6  8  2  0  0  0  0
  7 12  1  0  0  0  0
  8  9  1  0  0  0  0
  8 10  1  0  0  0  0
 10 11  1  0  0  0  0
 10 12  2  0  0  0  0
 12 32  1  0  0  0  0
 13 17  1  0  0  0  0
 17 18  1  1  0  0  0
 17 22  1  0  0  0  0
 23  1  1  0  0  0  0
 24  2  1  0  0  0  0
 26 22  1  1  0  0  0
 27 26  1  0  0  0  0
 27 28  1  0  0  0  0
 27 30  1  1  0  0  0
 28 13  1  0  0  0  0
 28 29  1  1  0  0  0
 31 30  1  0  0  0  0
 32 26  1  0  0  0  0
 32 31  1  0  0  0  0
M  CHG  3  14  -1  15  -1  16  -1
M  END
>  <CHROM.1>
61.02129919,-81.31425266,177.69905034,-59.31044694,140.39110524,150.20584004
-135.33735773,49.42223262,67.64097886,8.28984342,-0.26417340,-0.66032562
-0.51805244,0.28903297

>  <Name>
2au4_lig

>  <RI>
0

>  <Rbt.Current_Directory>
/home/itssahil/PROJECTS/Mol_Feturizer/New_Systems/rnas/2au4

>  <Rbt.Executable>
rbdock ($Id: //depot/dev/client3/rdock/2013.1/src/exe/rbdock.cxx#4 $)

>  <Rbt.Library>
libRbt.so (2013.1, Build901 2013/11/27)

>  <Rbt.Parameter_File>
/export/apps/rDock/src/rDock_2013.1_src/data/scripts/dock_solv.prm

>  <Rbt.Receptor>
prm/pocket_docking_6.prm

>  <SCORE>
-41.0408

>  <SCORE.INTER>
-18.5927

>  <SCORE.INTER.CONST>
1

>  <SCORE.INTER.POLAR>
-0.755456

>  <SCORE.INTER.ROT>
8

>  <SCORE.INTER.SOLV>
31.0984

>  <SCORE.INTER.VDW>
-29.1764

>  <SCORE.INTER.norm>
-0.581021

>  <SCORE.INTRA>
-22.4481

>  <SCORE.INTRA.DIHEDRAL>
-42.6324

>  <SCORE.INTRA.DIHEDRAL.0>
76.3625

>  <SCORE.INTRA.POLAR>
0

>  <SCORE.INTRA.POLAR.0>
0

>  <SCORE.INTRA.REPUL>
-0.12705

>  <SCORE.INTRA.REPUL.0>
0.12705

>  <SCORE.INTRA.SOLV>
-2.75669

>  <SCORE.INTRA.SOLV.lig_0>
-119.383

>  <SCORE.INTRA.VDW>
0.881696

>  <SCORE.INTRA.VDW.0>
-5.10464

>  <SCORE.INTRA.norm>
-0.701503

>  <SCORE.RESTR>
0

>  <SCORE.RESTR.CAVITY>
0

>  <SCORE.RESTR.norm>
0

>  <SCORE.SYSTEM>
0

>  <SCORE.SYSTEM.CONST>
0

>  <SCORE.SYSTEM.DIHEDRAL>
0

>  <SCORE.SYSTEM.SOLV>
0

>  <SCORE.SYSTEM.norm>
0

>  <SCORE.heavy>
32

>  <SCORE.norm>
-1.28252

>  <RMSD>
6.677

$$$$
2au4_lig
 OpenBabel11021811423D
libRbt.so/2013.1/901 2013/11/27
 32 34  0  0  0  0  0  0  0  0999 V2000
   64.7415    6.7464   -1.1620 P   0  0  1  0  0  0  0  0  0  0  0  0
   67.1425    6.6017    0.0965 P   0  0  1  0  0  0  0  0  0  0  0  0
   68.7282    4.9176   -1.3492 P   0  0  2  0  0  0  0  0  0  0  0  0
   65.0373    9.1411   -0.0628 C   0  0  0  0  0  0  0  0  0  0  0  0
   64.4824    7.8173    0.0107 O   0  0  0  0  0  0  0  0  0  0  0  0
   64.7388    9.9670    1.1798 C   0  0  0  0  0  0  0  0  0  0  0  0
   65.4862    9.4721    2.3097 O   0  0  0  0  0  0  0  0  0  0  0  0
   65.1149   11.4242    0.9610 C   0  0  0  0  0  0  0  0  0  0  0  0
   63.9576   12.2666    1.0227 O   0  0  0  0  0  0  0  0  0  0  0  0
   66.1034   11.7795    2.0459 C   0  0  0  0  0  0  0  0  0  0  0  0
   65.6265   12.8694    2.8463 O   0  0  0  0  0  0  0  0  0  0  0  0
   66.2816   10.5283    2.8885 C   0  0  0  0  0  0  0  0  0  0  0  0
   71.1264   12.1340    2.7639 N   0  0  0  0  0  0  0  0  0  0  0  0
   63.5416    5.8963   -1.2970 O   0  5  0  0  0  0  0  0  0  0  0  0
   67.5479    7.6991   -0.8030 O   0  5  0  0  0  0  0  0  0  0  0  0
   68.6425    3.4442   -1.2949 O   0  5  0  0  0  0  0  0  0  0  0  0
   69.9638   12.8600    2.6594 C   0  0  1  0  0  0  0  0  0  0  0  0
   70.1009   14.1693    2.4981 N   0  0  0  0  0  0  0  0  0  0  0  0
   65.2820    7.4579   -2.3401 O   0  0  0  0  0  0  0  0  0  0  0  0
   66.8133    6.8842    1.5091 O   0  0  0  0  0  0  0  0  0  0  0  0
   70.0023    5.5711   -1.7149 O   0  0  0  0  0  0  0  0  0  0  0  0
   68.7476   12.3223    2.7082 N   0  0  0  0  0  0  0  0  0  0  0  0
   65.9067    5.8530   -0.5582 O   0  0  0  0  0  0  0  0  0  0  0  0
   68.2760    5.4883    0.0673 O   0  0  0  0  0  0  0  0  0  0  0  0
   67.5777    5.4579   -2.3315 O   0  0  0  0  0  0  0  0  0  0  0  0
   68.7901   10.9799    2.8712 C   0  0  2  0  0  0  0  0  0  0  0  0
   69.9115   10.1742    2.9852 C   0  0  2  0  0  0  0  0  0  0  0  0
   71.1987   10.7627    2.9308 C   0  0  1  0  0  0  0  0  0  0  0  0
   72.2893   10.2106    2.9888 O   0  0  0  0  0  0  0  0  0  0  0  0
   69.5471    8.8325    3.1407 N   0  0  0  0  0  0  0  0  0  0  0  0
   68.2568    8.9121    3.1107 C   0  0  0  0  0  0  0  0  0  0  0  0
   67.7042   10.1408    2.9545 N   0  0  0  0  0  0  0  0  0  0  0  0
  1  5  1  1  0  0  0
  1 14  1  0  0  0  0
  1 19  2  0  0  0  0
  2 15  1  6  0  0  0
  2 20  2  0  0  0  0
  2 23  1  0  0  0  0
  3 16  1  6  0  0  0
  3 21  2  0  0  0  0
  3 24  1  0  0  0  0
  3 25  1  0  0  0  0
  4  6  1  0  0  0  0
  5  4  1  0  0  0  0
  6  7  1  0  0  0  0
  6  8  2  0  0  0  0
  7 12  1  0  0  0  0
  8  9  1  0  0  0  0
  8 10  1  0  0  0  0
 10 11  1  0  0  0  0
 10 12  2  0  0  0  0
 12 32  1  0  0  0  0
 13 17  1  0  0  0  0
 17 18  1  6  0  0  0
 17 22  1  0  0  0  0
 23  1  1  0  0  0  0
 24  2  1  0  0  0  0
 26 22  1  6  0  0  0
 27 26  1  0  0  0  0
 27 28  1  0  0  0  0
 27 30  1  6  0  0  0
 28 13  1  0  0  0  0
 28 29  1  6  0  0  0
 31 30  1  0  0  0  0
 32 26  1  0  0  0  0
 32 31  1  0  0  0  0
M  CHG  3  14  -1  15  -1  16  -1
M  END
>  <CHROM.1>
-146.15860727,-45.12438211,-127.57045587,70.36654350,-176.79389340,149.36919741
-47.08575532,-53.27912979,67.37565166,8.61102277,0.78740477,1.85748229,0.21635771
-2.63074501

>  <Name>
2au4_lig

>  <RI>
0

>  <Rbt.Current_Directory>
/home/itssahil/PROJECTS/Mol_Feturizer/New_Systems/rnas/2au4

>  <Rbt.Executable>
rbdock ($Id: //depot/dev/client3/rdock/2013.1/src/exe/rbdock.cxx#4 $)

>  <Rbt.Library>
libRbt.so (2013.1, Build901 2013/11/27)

>  <Rbt.Parameter_File>
/export/apps/rDock/src/rDock_2013.1_src/data/scripts/dock_solv.prm

>  <Rbt.Receptor>
prm/pocket_docking_4.prm

>  <SCORE>
-36.1588

>  <SCORE.INTER>
-13.603

>  <SCORE.INTER.CONST>
1

>  <SCORE.INTER.POLAR>
-1.62574

>  <SCORE.INTER.ROT>
8

>  <SCORE.INTER.SOLV>
29.2264

>  <SCORE.INTER.VDW>
-22.325

>  <SCORE.INTER.norm>
-0.425093

>  <SCORE.INTRA>
-22.5559

>  <SCORE.INTRA.DIHEDRAL>
-46.1803

>  <SCORE.INTRA.DIHEDRAL.0>
76.3625

>  <SCORE.INTRA.POLAR>
0

>  <SCORE.INTRA.POLAR.0>
0

>  <SCORE.INTRA.REPUL>
-0.105317

>  <SCORE.INTRA.REPUL.0>
0.12705

>  <SCORE.INTRA.SOLV>
-1.93226

>  <SCORE.INTRA.SOLV.lig_0>
-119.383

>  <SCORE.INTRA.VDW>
2.02701

>  <SCORE.INTRA.VDW.0>
-5.10464

>  <SCORE.INTRA.norm>
-0.704871

>  <SCORE.RESTR>
0

>  <SCORE.RESTR.CAVITY>
0

>  <SCORE.RESTR.norm>
0

>  <SCORE.SYSTEM>
0

>  <SCORE.SYSTEM.CONST>
0

>  <SCORE.SYSTEM.DIHEDRAL>
0

>  <SCORE.SYSTEM.SOLV>
0

>  <SCORE.SYSTEM.norm>
0

>  <SCORE.heavy>
32

>  <SCORE.norm>
-1.12996

>  <RMSD>
6.692

$$$$
2au4_lig
 OpenBabel11021811423D
libRbt.so/2013.1/901 2013/11/27
 32 34  0  0  0  0  0  0  0  0999 V2000
   71.4105   10.8369    1.0012 P   0  0  1  0  0  0  0  0  0  0  0  0
   72.2062   12.6757    2.8329 P   0  0  1  0  0  0  0  0  0  0  0  0
   71.4521   11.9926    5.3638 P   0  0  2  0  0  0  0  0  0  0  0  0
   69.7009    9.0035    0.1374 C   0  0  0  0  0  0  0  0  0  0  0  0
   70.5419    9.4961    1.1937 O   0  0  0  0  0  0  0  0  0  0  0  0
   68.8646    7.8077    0.5691 C   0  0  0  0  0  0  0  0  0  0  0  0
   67.7448    8.2348    1.3715 O   0  0  0  0  0  0  0  0  0  0  0  0
   68.3262    7.0619   -0.6419 C   0  0  0  0  0  0  0  0  0  0  0  0
   68.8581    5.7329   -0.7030 O   0  0  0  0  0  0  0  0  0  0  0  0
   66.8232    7.0390   -0.4981 C   0  0  0  0  0  0  0  0  0  0  0  0
   66.3249    5.6948   -0.4674 O   0  0  0  0  0  0  0  0  0  0  0  0
   66.5068    7.7618    0.7999 C   0  0  0  0  0  0  0  0  0  0  0  0
   62.4584    9.4253   -1.8289 N   0  0  0  0  0  0  0  0  0  0  0  0
   72.6187   10.5070    0.2187 O   0  5  0  0  0  0  0  0  0  0  0  0
   73.4337   13.0521    2.1051 O   0  5  0  0  0  0  0  0  0  0  0  0
   70.1791   12.7022    5.1251 O   0  5  0  0  0  0  0  0  0  0  0  0
   63.0982    8.2101   -1.8888 C   0  0  1  0  0  0  0  0  0  0  0  0
   62.6093    7.3304   -2.7526 N   0  0  0  0  0  0  0  0  0  0  0  0
   70.5111   11.9218    0.5538 O   0  0  0  0  0  0  0  0  0  0  0  0
   70.9735   13.4742    2.6700 O   0  0  0  0  0  0  0  0  0  0  0  0
   72.0324   11.9519    6.7223 O   0  0  0  0  0  0  0  0  0  0  0  0
   64.1540    7.8910   -1.1444 N   0  0  0  0  0  0  0  0  0  0  0  0
   71.8659   11.1657    2.4861 O   0  0  0  0  0  0  0  0  0  0  0  0
   72.5473   12.6058    4.3834 O   0  0  0  0  0  0  0  0  0  0  0  0
   71.3023   10.4856    4.8279 O   0  0  0  0  0  0  0  0  0  0  0  0
   64.5233    8.9016   -0.3241 C   0  0  2  0  0  0  0  0  0  0  0  0
   63.9374   10.1511   -0.2004 C   0  0  2  0  0  0  0  0  0  0  0  0
   62.8144   10.4746   -1.0007 C   0  0  1  0  0  0  0  0  0  0  0  0
   62.1900   11.5262   -1.0435 O   0  0  0  0  0  0  0  0  0  0  0  0
   64.6071   10.9229    0.7551 N   0  0  0  0  0  0  0  0  0  0  0  0
   65.5349   10.1079    1.1385 C   0  0  0  0  0  0  0  0  0  0  0  0
   65.5752    8.8813    0.5609 N   0  0  0  0  0  0  0  0  0  0  0  0
  1  5  1  1  0  0  0
  1 14  1  0  0  0  0
  1 19  2  0  0  0  0
  2 15  1  6  0  0  0
  2 20  2  0  0  0  0
  2 23  1  0  0  0  0
  3 16  1  6  0  0  0
  3 21  2  0  0  0  0
  3 24  1  0  0  0  0
  3 25  1  0  0  0  0
  4  6  1  0  0  0  0
  5  4  1  0  0  0  0
  6  7  1  0  0  0  0
  6  8  2  0  0  0  0
  7 12  1  0  0  0  0
  8  9  1  0  0  0  0
  8 10  1  0  0  0  0
 10 11  1  0  0  0  0
 10 12  2  0  0  0  0
 12 32  1  0  0  0  0
 13 17  1  0  0  0  0
 17 18  1  6  0  0  0
 17 22  1  0  0  0  0
 23  1  1  0  0  0  0
 24  2  1  0  0  0  0
 26 22  1  6  0  0  0
 27 26  1  0  0  0  0
 27 28  1  0  0  0  0
 27 30  1  6  0  0  0
 28 13  1  0  0  0  0
 28 29  1  6  0  0  0
 31 30  1  0  0  0  0
 32 26  1  0  0  0  0
 32 31  1  0  0  0  0
M  CHG  3  14  -1  15  -1  16  -1
M  END
>  <CHROM.1>
-79.29970908,-68.02055423,-52.71003556,77.26927037,-174.34124918,157.76757364
-154.79503319,-170.32882909,68.50933096,10.12349431,1.30146079,-0.59753376
0.23864268,-2.55082252

>  <Name>
2au4_lig

>  <RI>
0

>  <Rbt.Current_Directory>
/home/itssahil/PROJECTS/Mol_Feturizer/New_Systems/rnas/2au4

>  <Rbt.Executable>
rbdock ($Id: //depot/dev/client3/rdock/2013.1/src/exe/rbdock.cxx#4 $)

>  <Rbt.Library>
libRbt.so (2013.1, Build901 2013/11/27)

>  <Rbt.Parameter_File>
/export/apps/rDock/src/rDock_2013.1_src/data/scripts/dock_solv.prm

>  <Rbt.Receptor>
prm/pocket_docking_7.prm

>  <SCORE>
-45.3336

>  <SCORE.INTER>
-19.005

>  <SCORE.INTER.CONST>
1

>  <SCORE.INTER.POLAR>
-2.87082

>  <SCORE.INTER.ROT>
8

>  <SCORE.INTER.SOLV>
21.9236

>  <SCORE.INTER.VDW>
-19.3418

>  <SCORE.INTER.norm>
-0.593906

>  <SCORE.INTRA>
-26.3286

>  <SCORE.INTRA.DIHEDRAL>
-48.8209

>  <SCORE.INTRA.DIHEDRAL.0>
76.3625

>  <SCORE.INTRA.POLAR>
0

>  <SCORE.INTRA.POLAR.0>
0

>  <SCORE.INTRA.REPUL>
-0.092089

>  <SCORE.INTRA.REPUL.0>
0.12705

>  <SCORE.INTRA.SOLV>
-6.62321

>  <SCORE.INTRA.SOLV.lig_0>
-119.383

>  <SCORE.INTRA.VDW>
1.8539

>  <SCORE.INTRA.VDW.0>
-5.10464

>  <SCORE.INTRA.norm>
-0.822769

>  <SCORE.RESTR>
0

>  <SCORE.RESTR.CAVITY>
0

>  <SCORE.RESTR.norm>
0

>  <SCORE.SYSTEM>
0

>  <SCORE.SYSTEM.CONST>
0

>  <SCORE.SYSTEM.DIHEDRAL>
0

>  <SCORE.SYSTEM.SOLV>
0

>  <SCORE.SYSTEM.norm>
0

>  <SCORE.heavy>
32

>  <SCORE.norm>
-1.41667

>  <RMSD>
6.692

$$$$
2au4_lig
 OpenBabel11021811423D
libRbt.so/2013.1/901 2013/11/27
 32 34  0  0  0  0  0  0  0  0999 V2000
   65.5070    6.6368   -1.3915 P   0  0  1  0  0  0  0  0  0  0  0  0
   67.8960    6.3048   -2.6373 P   0  0  1  0  0  0  0  0  0  0  0  0
   69.4876    4.6723   -1.1398 P   0  0  2  0  0  0  0  0  0  0  0  0
   66.1148    8.4045    0.4891 C   0  0  0  0  0  0  0  0  0  0  0  0
   65.1241    7.8248   -0.3759 O   0  0  0  0  0  0  0  0  0  0  0  0
   65.6448    9.7060    1.1219 C   0  0  0  0  0  0  0  0  0  0  0  0
   66.7642   10.4469    1.6496 O   0  0  0  0  0  0  0  0  0  0  0  0
   64.9367   10.5782    0.0970 C   0  0  0  0  0  0  0  0  0  0  0  0
   63.5612   10.7689    0.4499 O   0  0  0  0  0  0  0  0  0  0  0  0
   65.6773   11.8939    0.0686 C   0  0  0  0  0  0  0  0  0  0  0  0
   64.8078   12.9863    0.3953 O   0  0  0  0  0  0  0  0  0  0  0  0
   66.7998   11.7747    1.0850 C   0  0  0  0  0  0  0  0  0  0  0  0
   71.8583   11.1441    1.3688 N   0  0  0  0  0  0  0  0  0  0  0  0
   66.0412    5.5032   -0.6102 O   0  5  0  0  0  0  0  0  0  0  0  0
   67.3156    5.0560   -3.1681 O   0  5  0  0  0  0  0  0  0  0  0  0
   68.6078    3.4984   -1.3104 O   0  5  0  0  0  0  0  0  0  0  0  0
   70.8754   10.7087    2.2256 C   0  0  1  0  0  0  0  0  0  0  0  0
   71.2817   10.0275    3.2886 N   0  0  0  0  0  0  0  0  0  0  0  0
   64.3769    6.4284   -2.3218 O   0  0  0  0  0  0  0  0  0  0  0  0
   68.8521    7.0829   -3.4522 O   0  0  0  0  0  0  0  0  0  0  0  0
   70.3291    4.7962    0.0687 O   0  0  0  0  0  0  0  0  0  0  0  0
   69.5775   10.9372    2.0416 N   0  0  0  0  0  0  0  0  0  0  0  0
   66.7064    7.2672   -2.2187 O   0  0  0  0  0  0  0  0  0  0  0  0
   68.5856    5.9810   -1.2428 O   0  0  0  0  0  0  0  0  0  0  0  0
   70.4324    4.7917   -2.4335 O   0  0  0  0  0  0  0  0  0  0  0  0
   69.3398   11.6477    0.9150 C   0  0  2  0  0  0  0  0  0  0  0  0
   70.2659   12.1230    0.0005 C   0  0  2  0  0  0  0  0  0  0  0  0
   71.6437   11.8713    0.2117 C   0  0  1  0  0  0  0  0  0  0  0  0
   72.5945   12.2307   -0.4696 O   0  0  0  0  0  0  0  0  0  0  0  0
   69.6317   12.8161   -1.0361 N   0  0  0  0  0  0  0  0  0  0  0  0
   68.3902   12.7177   -0.6884 C   0  0  0  0  0  0  0  0  0  0  0  0
   68.1066   12.0441    0.4542 N   0  0  0  0  0  0  0  0  0  0  0  0
  1  5  1  1  0  0  0
  1 14  1  0  0  0  0
  1 19  2  0  0  0  0
  2 15  1  6  0  0  0
  2 20  2  0  0  0  0
  2 23  1  0  0  0  0
  3 16  1  6  0  0  0
  3 21  2  0  0  0  0
  3 24  1  0  0  0  0
  3 25  1  0  0  0  0
  4  6  1  0  0  0  0
  5  4  1  0  0  0  0
  6  7  1  0  0  0  0
  6  8  2  0  0  0  0
  7 12  1  0  0  0  0
  8  9  1  0  0  0  0
  8 10  1  0  0  0  0
 10 11  1  0  0  0  0
 10 12  2  0  0  0  0
 12 32  1  0  0  0  0
 13 17  1  0  0  0  0
 17 18  1  1  0  0  0
 17 22  1  0  0  0  0
 23  1  1  0  0  0  0
 24  2  1  0  0  0  0
 26 22  1  1  0  0  0
 27 26  1  0  0  0  0
 27 28  1  0  0  0  0
 27 30  1  1  0  0  0
 28 13  1  0  0  0  0
 28 29  1  1  0  0  0
 31 30  1  0  0  0  0
 32 26  1  0  0  0  0
 32 31  1  0  0  0  0
M  CHG  3  14  -1  15  -1  16  -1
M  END
>  <CHROM.1>
58.74978963,45.41006196,-65.91118456,-163.14655242,166.54684140,-38.24622541
143.20979974,44.59554850,67.97888123,8.63037851,-0.47696080,1.74104300,0.08603277
-2.77998006

>  <Name>
2au4_lig

>  <RI>
0

>  <Rbt.Current_Directory>
/home/itssahil/PROJECTS/Mol_Feturizer/New_Systems/rnas/2au4

>  <Rbt.Executable>
rbdock ($Id: //depot/dev/client3/rdock/2013.1/src/exe/rbdock.cxx#4 $)

>  <Rbt.Library>
libRbt.so (2013.1, Build901 2013/11/27)

>  <Rbt.Parameter_File>
/export/apps/rDock/src/rDock_2013.1_src/data/scripts/dock_solv.prm

>  <Rbt.Receptor>
prm/pocket_docking_3.prm

>  <SCORE>
-33.3263

>  <SCORE.INTER>
-9.81807

>  <SCORE.INTER.CONST>
1

>  <SCORE.INTER.POLAR>
-0.808603

>  <SCORE.INTER.ROT>
8

>  <SCORE.INTER.SOLV>
36.8687

>  <SCORE.INTER.VDW>
-25.0729

>  <SCORE.INTER.norm>
-0.306815

>  <SCORE.INTRA>
-23.9236

>  <SCORE.INTRA.DIHEDRAL>
-46.4668

>  <SCORE.INTRA.DIHEDRAL.0>
76.3625

>  <SCORE.INTRA.POLAR>
0

>  <SCORE.INTRA.POLAR.0>
0

>  <SCORE.INTRA.REPUL>
0.0260299

>  <SCORE.INTRA.REPUL.0>
0.12705

>  <SCORE.INTRA.SOLV>
-4.84616

>  <SCORE.INTRA.SOLV.lig_0>
-119.383

>  <SCORE.INTRA.VDW>
1.60269

>  <SCORE.INTRA.VDW.0>
-5.10464

>  <SCORE.INTRA.norm>
-0.747613

>  <SCORE.RESTR>
0.415384

>  <SCORE.RESTR.CAVITY>
0.415384

>  <SCORE.RESTR.norm>
0.0129808

>  <SCORE.SYSTEM>
0

>  <SCORE.SYSTEM.CONST>
0

>  <SCORE.SYSTEM.DIHEDRAL>
0

>  <SCORE.SYSTEM.SOLV>
0

>  <SCORE.SYSTEM.norm>
0

>  <SCORE.heavy>
32

>  <SCORE.norm>
-1.04145

>  <RMSD>
6.698

$$$$
2au4_lig
 OpenBabel11021811423D
libRbt.so/2013.1/901 2013/11/27
 32 34  0  0  0  0  0  0  0  0999 V2000
   67.5211    7.1901   -2.6687 P   0  0  1  0  0  0  0  0  0  0  0  0
   68.7345    4.7636   -2.7649 P   0  0  1  0  0  0  0  0  0  0  0  0
   71.2218    4.5405   -1.6674 P   0  0  2  0  0  0  0  0  0  0  0  0
   66.7662    7.7273   -0.1843 C   0  0  0  0  0  0  0  0  0  0  0  0
   66.5554    7.9007   -1.5954 O   0  0  0  0  0  0  0  0  0  0  0  0
   66.0850    8.8076    0.6429 C   0  0  0  0  0  0  0  0  0  0  0  0
   67.0649    9.6336    1.3045 O   0  0  0  0  0  0  0  0  0  0  0  0
   65.2267    9.7005   -0.2396 C   0  0  0  0  0  0  0  0  0  0  0  0
   63.8425    9.5917    0.1141 O   0  0  0  0  0  0  0  0  0  0  0  0
   65.7288   11.1106   -0.0401 C   0  0  0  0  0  0  0  0  0  0  0  0
   64.6871   11.9691    0.4437 O   0  0  0  0  0  0  0  0  0  0  0  0
   66.8651   11.0219    0.9639 C   0  0  0  0  0  0  0  0  0  0  0  0
   71.9533   11.2923    1.2854 N   0  0  0  0  0  0  0  0  0  0  0  0
   66.7260    6.8522   -3.8664 O   0  5  0  0  0  0  0  0  0  0  0  0
   68.6548    3.4703   -2.0585 O   0  5  0  0  0  0  0  0  0  0  0  0
   72.5893    5.0233   -1.9464 O   0  5  0  0  0  0  0  0  0  0  0  0
   71.0682   10.5689    2.0489 C   0  0  1  0  0  0  0  0  0  0  0  0
   71.5938    9.8310    3.0175 N   0  0  0  0  0  0  0  0  0  0  0  0
   68.7539    7.9957   -2.8007 O   0  0  0  0  0  0  0  0  0  0  0  0
   68.3280    4.8605   -4.1823 O   0  0  0  0  0  0  0  0  0  0  0  0
   70.9157    3.0972   -1.7519 O   0  0  0  0  0  0  0  0  0  0  0  0
   69.7502   10.5800    1.8655 N   0  0  0  0  0  0  0  0  0  0  0  0
   67.9040    5.8333   -1.9388 O   0  0  0  0  0  0  0  0  0  0  0  0
   70.2217    5.3093   -2.6399 O   0  0  0  0  0  0  0  0  0  0  0  0
   70.7814    5.0711   -0.2164 O   0  0  0  0  0  0  0  0  0  0  0  0
   69.3849   11.3861    0.8421 C   0  0  2  0  0  0  0  0  0  0  0  0
   70.2068   12.1461    0.0257 C   0  0  2  0  0  0  0  0  0  0  0  0
   71.6075   12.1231    0.2348 C   0  0  1  0  0  0  0  0  0  0  0  0
   72.4753   12.7422   -0.3662 O   0  0  0  0  0  0  0  0  0  0  0  0
   69.4550   12.8502   -0.9210 N   0  0  0  0  0  0  0  0  0  0  0  0
   68.2532   12.4790   -0.6215 C   0  0  0  0  0  0  0  0  0  0  0  0
   68.0994   11.6113    0.4096 N   0  0  0  0  0  0  0  0  0  0  0  0
  1  5  1  1  0  0  0
  1 14  1  0  0  0  0
  1 19  2  0  0  0  0
  2 15  1  1  0  0  0
  2 20  2  0  0  0  0
  2 23  1  0  0  0  0
  3 16  1  6  0  0  0
  3 21  2  0  0  0  0
  3 24  1  0  0  0  0
  3 25  1  0  0  0  0
  4  6  1  0  0  0  0
  5  4  1  0  0  0  0
  6  7  1  0  0  0  0
  6  8  2  0  0  0  0
  7 12  1  0  0  0  0
  8  9  1  0  0  0  0
  8 10  1  0  0  0  0
 10 11  1  0  0  0  0
 10 12  2  0  0  0  0
 12 32  1  0  0  0  0
 13 17  1  0  0  0  0
 17 18  1  1  0  0  0
 17 22  1  0  0  0  0
 23  1  1  0  0  0  0
 24  2  1  0  0  0  0
 26 22  1  1  0  0  0
 27 26  1  0  0  0  0
 27 28  1  0  0  0  0
 27 30  1  1  0  0  0
 28 13  1  0  0  0  0
 28 29  1  1  0  0  0
 31 30  1  0  0  0  0
 32 26  1  0  0  0  0
 32 31  1  0  0  0  0
M  CHG  3  14  -1  15  -1  16  -1
M  END
>  <CHROM.1>
147.22998238,-164.45867367,167.29397452,-113.60502324,160.72090416,-39.83031270
173.26940603,-8.55537066,68.78116753,8.27081913,-0.85230114,1.43722988,0.16191693
-2.70734569

>  <Name>
2au4_lig

>  <RI>
0

>  <Rbt.Current_Directory>
/home/itssahil/PROJECTS/Mol_Feturizer/New_Systems/rnas/2au4

>  <Rbt.Executable>
rbdock ($Id: //depot/dev/client3/rdock/2013.1/src/exe/rbdock.cxx#4 $)

>  <Rbt.Library>
libRbt.so (2013.1, Build901 2013/11/27)

>  <Rbt.Parameter_File>
/export/apps/rDock/src/rDock_2013.1_src/data/scripts/dock_solv.prm

>  <Rbt.Receptor>
prm/pocket_docking_2.prm

>  <SCORE>
-20.5529

>  <SCORE.INTER>
-4.53623

>  <SCORE.INTER.CONST>
1

>  <SCORE.INTER.POLAR>
-0.704631

>  <SCORE.INTER.ROT>
8

>  <SCORE.INTER.SOLV>
48.7374

>  <SCORE.INTER.VDW>
-25.8545

>  <SCORE.INTER.norm>
-0.141757

>  <SCORE.INTRA>
-20.0241

>  <SCORE.INTRA.DIHEDRAL>
-43.9825

>  <SCORE.INTRA.DIHEDRAL.0>
76.3625

>  <SCORE.INTRA.POLAR>
0

>  <SCORE.INTRA.POLAR.0>
0

>  <SCORE.INTRA.REPUL>
0.0164836

>  <SCORE.INTRA.REPUL.0>
0.12705

>  <SCORE.INTRA.SOLV>
-6.27782

>  <SCORE.INTRA.SOLV.lig_0>
-119.383

>  <SCORE.INTRA.VDW>
5.02361

>  <SCORE.INTRA.VDW.0>
-5.10464

>  <SCORE.INTRA.norm>
-0.625754

>  <SCORE.RESTR>
4.0075

>  <SCORE.RESTR.CAVITY>
4.0075

>  <SCORE.RESTR.norm>
0.125234

>  <SCORE.SYSTEM>
0

>  <SCORE.SYSTEM.CONST>
0

>  <SCORE.SYSTEM.DIHEDRAL>
0

>  <SCORE.SYSTEM.SOLV>
0

>  <SCORE.SYSTEM.norm>
0

>  <SCORE.heavy>
32

>  <SCORE.norm>
-0.642277

>  <RMSD>
6.699

$$$$
2au4_lig
 OpenBabel11021811423D
libRbt.so/2013.1/901 2013/11/27
 32 34  0  0  0  0  0  0  0  0999 V2000
   71.0106   12.7408    4.9667 P   0  0  1  0  0  0  0  0  0  0  0  0
   71.6470   13.7289    2.5196 P   0  0  1  0  0  0  0  0  0  0  0  0
   73.3007   13.2674    0.4000 P   0  0  2  0  0  0  0  0  0  0  0  0
   68.8668   11.1901    4.7946 C   0  0  0  0  0  0  0  0  0  0  0  0
   70.1002   11.5090    5.4599 O   0  0  0  0  0  0  0  0  0  0  0  0
   68.3363    9.8168    5.1793 C   0  0  0  0  0  0  0  0  0  0  0  0
   67.0018    9.6263    4.6665 O   0  0  0  0  0  0  0  0  0  0  0  0
   69.2247    8.7190    4.6152 C   0  0  0  0  0  0  0  0  0  0  0  0
   69.8364    7.9636    5.6678 O   0  0  0  0  0  0  0  0  0  0  0  0
   68.3363    7.8434    3.7641 C   0  0  0  0  0  0  0  0  0  0  0  0
   68.3447    6.4871    4.2295 O   0  0  0  0  0  0  0  0  0  0  0  0
   66.9406    8.4359    3.8526 C   0  0  0  0  0  0  0  0  0  0  0  0
   66.9769    7.1966   -1.1001 N   0  0  0  0  0  0  0  0  0  0  0  0
   70.3293   14.0018    5.3221 O   0  5  0  0  0  0  0  0  0  0  0  0
   70.6535   14.7966    2.2938 O   0  5  0  0  0  0  0  0  0  0  0  0
   73.3958   14.7160    0.1284 O   0  5  0  0  0  0  0  0  0  0  0  0
   67.6604    6.6257   -0.0529 C   0  0  1  0  0  0  0  0  0  0  0  0
   68.4529    5.6059   -0.3545 N   0  0  0  0  0  0  0  0  0  0  0  0
   72.4033   12.5027    5.4025 O   0  0  0  0  0  0  0  0  0  0  0  0
   72.9544   14.0496    3.1288 O   0  0  0  0  0  0  0  0  0  0  0  0
   73.4231   12.2978   -0.7086 O   0  0  0  0  0  0  0  0  0  0  0  0
   67.5665    7.0414    1.2077 N   0  0  0  0  0  0  0  0  0  0  0  0
   70.9641   12.5898    3.3870 O   0  0  0  0  0  0  0  0  0  0  0  0
   71.9144   12.9956    1.1353 O   0  0  0  0  0  0  0  0  0  0  0  0
   74.3795   12.8900    1.5289 O   0  0  0  0  0  0  0  0  0  0  0  0
   66.7217    8.0903    1.3368 C   0  0  2  0  0  0  0  0  0  0  0  0
   65.9963    8.7231    0.3402 C   0  0  2  0  0  0  0  0  0  0  0  0
   66.1082    8.2682   -0.9965 C   0  0  1  0  0  0  0  0  0  0  0  0
   65.5676    8.7160   -1.9988 O   0  0  0  0  0  0  0  0  0  0  0  0
   65.2342    9.7709    0.8678 N   0  0  0  0  0  0  0  0  0  0  0  0
   65.5421    9.7057    2.1220 C   0  0  0  0  0  0  0  0  0  0  0  0
   66.4172    8.7438    2.5074 N   0  0  0  0  0  0  0  0  0  0  0  0
  1  5  1  1  0  0  0
  1 14  1  0  0  0  0
  1 19  2  0  0  0  0
  2 15  1  6  0  0  0
  2 20  2  0  0  0  0
  2 23  1  0  0  0  0
  3 16  1  6  0  0  0
  3 21  2  0  0  0  0
  3 24  1  0  0  0  0
  3 25  1  0  0  0  0
  4  6  1  0  0  0  0
  5  4  1  0  0  0  0
  6  7  1  0  0  0  0
  6  8  2  0  0  0  0
  7 12  1  0  0  0  0
  8  9  1  0  0  0  0
  8 10  1  0  0  0  0
 10 11  1  0  0  0  0
 10 12  2  0  0  0  0
 12 32  1  0  0  0  0
 13 17  1  0  0  0  0
 17 18  1  6  0  0  0
 17 22  1  0  0  0  0
 23  1  1  0  0  0  0
 24  2  1  0  0  0  0
 26 22  1  6  0  0  0
 27 26  1  0  0  0  0
 27 28  1  0  0  0  0
 27 30  1  6  0  0  0
 28 13  1  0  0  0  0
 28 29  1  6  0  0  0
 31 30  1  0  0  0  0
 32 26  1  0  0  0  0
 32 31  1  0  0  0  0
M  CHG  3  14  -1  15  -1  16  -1
M  END
>  <CHROM.1>
71.43884271,-87.13859426,-59.48147557,170.64336965,165.97313562,150.16381247
174.20300639,106.95557226,69.63002918,10.74376475,2.40073297,0.20544320,0.78144108
1.49647148

>  <Name>
2au4_lig

>  <RI>
0

>  <Rbt.Current_Directory>
/home/itssahil/PROJECTS/Mol_Feturizer/New_Systems/rnas/2au4

>  <Rbt.Executable>
rbdock ($Id: //depot/dev/client3/rdock/2013.1/src/exe/rbdock.cxx#4 $)

>  <Rbt.Library>
libRbt.so (2013.1, Build901 2013/11/27)

>  <Rbt.Parameter_File>
/export/apps/rDock/src/rDock_2013.1_src/data/scripts/dock_solv.prm

>  <Rbt.Receptor>
prm/pocket_docking_5.prm

>  <SCORE>
-42.7877

>  <SCORE.INTER>
-18.5581

>  <SCORE.INTER.CONST>
1

>  <SCORE.INTER.POLAR>
-2.45042

>  <SCORE.INTER.ROT>
8

>  <SCORE.INTER.SOLV>
22.2772

>  <SCORE.INTER.VDW>
-20.5631

>  <SCORE.INTER.norm>
-0.579941

>  <SCORE.INTRA>
-24.532

>  <SCORE.INTRA.DIHEDRAL>
-46.9754

>  <SCORE.INTRA.DIHEDRAL.0>
76.3625

>  <SCORE.INTRA.POLAR>
0

>  <SCORE.INTRA.POLAR.0>
0

>  <SCORE.INTRA.REPUL>
-0.12705

>  <SCORE.INTRA.REPUL.0>
0.12705

>  <SCORE.INTRA.SOLV>
-6.23143

>  <SCORE.INTRA.SOLV.lig_0>
-119.383

>  <SCORE.INTRA.VDW>
2.70663

>  <SCORE.INTRA.VDW.0>
-5.10464

>  <SCORE.INTRA.norm>
-0.766626

>  <SCORE.RESTR>
0.302465

>  <SCORE.RESTR.CAVITY>
0.302465

>  <SCORE.RESTR.norm>
0.00945204

>  <SCORE.SYSTEM>
0

>  <SCORE.SYSTEM.CONST>
0

>  <SCORE.SYSTEM.DIHEDRAL>
0

>  <SCORE.SYSTEM.SOLV>
0

>  <SCORE.SYSTEM.norm>
0

>  <SCORE.heavy>
32

>  <SCORE.norm>
-1.33711

>  <RMSD>
6.702

$$$$
2au4_lig
 OpenBabel11021811423D
libRbt.so/2013.1/901 2013/11/27
 32 34  0  0  0  0  0  0  0  0999 V2000
   68.7422    6.3869    1.5928 P   0  0  1  0  0  0  0  0  0  0  0  0
   68.7040    6.1622   -1.1123 P   0  0  1  0  0  0  0  0  0  0  0  0
   67.8067    5.6564   -3.6382 P   0  0  2  0  0  0  0  0  0  0  0  0
   67.7728    8.5443    2.7912 C   0  0  0  0  0  0  0  0  0  0  0  0
   67.5255    7.3236    2.0740 O   0  0  0  0  0  0  0  0  0  0  0  0
   66.7348    9.6159    2.4914 C   0  0  0  0  0  0  0  0  0  0  0  0
   67.3637   10.9062    2.3504 O   0  0  0  0  0  0  0  0  0  0  0  0
   65.9950    9.3026    1.2003 C   0  0  0  0  0  0  0  0  0  0  0  0
   64.6039    9.0685    1.4511 O   0  0  0  0  0  0  0  0  0  0  0  0
   66.1902   10.4947    0.2941 C   0  0  0  0  0  0  0  0  0  0  0  0
   64.9329   11.0730   -0.0812 O   0  0  0  0  0  0  0  0  0  0  0  0
   67.0314   11.4909    1.0732 C   0  0  0  0  0  0  0  0  0  0  0  0
   72.0077   12.6001    1.3438 N   0  0  0  0  0  0  0  0  0  0  0  0
   69.8627    7.2508    1.1698 O   0  5  0  0  0  0  0  0  0  0  0  0
   68.2327    7.5387   -1.3597 O   0  5  0  0  0  0  0  0  0  0  0  0
   68.6382    6.8623   -3.8275 O   0  5  0  0  0  0  0  0  0  0  0  0
   71.1247   12.2995    2.3536 C   0  0  1  0  0  0  0  0  0  0  0  0
   71.6184   12.2965    3.5846 N   0  0  0  0  0  0  0  0  0  0  0  0
   68.9597    5.3359    2.6098 O   0  0  0  0  0  0  0  0  0  0  0  0
   70.1481    5.8529   -1.1619 O   0  0  0  0  0  0  0  0  0  0  0  0
   66.3649    5.6946   -3.9600 O   0  0  0  0  0  0  0  0  0  0  0  0
   69.8380   12.0241    2.1553 N   0  0  0  0  0  0  0  0  0  0  0  0
   68.1463    5.6913    0.2961 O   0  0  0  0  0  0  0  0  0  0  0  0
   67.9563    5.1899   -2.1227 O   0  0  0  0  0  0  0  0  0  0  0  0
   68.4783    4.4433   -4.4493 O   0  0  0  0  0  0  0  0  0  0  0  0
   69.5018   12.0756    0.8457 C   0  0  2  0  0  0  0  0  0  0  0  0
   70.3241   12.3684   -0.2304 C   0  0  2  0  0  0  0  0  0  0  0  0
   71.6912   12.6597   -0.0015 C   0  0  1  0  0  0  0  0  0  0  0  0
   72.5507   12.9610   -0.8189 O   0  0  0  0  0  0  0  0  0  0  0  0
   69.6077   12.3241   -1.4312 N   0  0  0  0  0  0  0  0  0  0  0  0
   68.4241   12.0148   -1.0123 C   0  0  0  0  0  0  0  0  0  0  0  0
   68.2518   11.8444    0.3223 N   0  0  0  0  0  0  0  0  0  0  0  0
  1  5  1  1  0  0  0
  1 14  1  0  0  0  0
  1 19  2  0  0  0  0
  2 15  1  6  0  0  0
  2 20  2  0  0  0  0
  2 23  1  0  0  0  0
  3 16  1  6  0  0  0
  3 21  2  0  0  0  0
  3 24  1  0  0  0  0
  3 25  1  0  0  0  0
  4  6  1  0  0  0  0
  5  4  1  0  0  0  0
  6  7  1  0  0  0  0
  6  8  2  0  0  0  0
  7 12  1  0  0  0  0
  8  9  1  0  0  0  0
  8 10  1  0  0  0  0
 10 11  1  0  0  0  0
 10 12  2  0  0  0  0
 12 32  1  0  0  0  0
 13 17  1  0  0  0  0
 17 18  1  1  0  0  0
 17 22  1  0  0  0  0
 23  1  1  0  0  0  0
 24  2  1  0  0  0  0
 26 22  1  1  0  0  0
 27 26  1  0  0  0  0
 27 28  1  0  0  0  0
 27 30  1  1  0  0  0
 28 13  1  0  0  0  0
 28 29  1  1  0  0  0
 31 30  1  0  0  0  0
 32 26  1  0  0  0  0
 32 31  1  0  0  0  0
M  CHG  3  14  -1  15  -1  16  -1
M  END
>  <CHROM.1>
-37.14648987,-69.33629424,9.65971247,-138.87342143,147.72837355,-22.46620168
107.39877434,43.27604160,68.57130055,8.78515500,-0.02921492,1.97369882,-0.87764040
-2.34537743

>  <Name>
2au4_lig

>  <RI>
0

>  <Rbt.Current_Directory>
/home/itssahil/PROJECTS/Mol_Feturizer/New_Systems/rnas/2au4

>  <Rbt.Executable>
rbdock ($Id: //depot/dev/client3/rdock/2013.1/src/exe/rbdock.cxx#4 $)

>  <Rbt.Library>
libRbt.so (2013.1, Build901 2013/11/27)

>  <Rbt.Parameter_File>
/export/apps/rDock/src/rDock_2013.1_src/data/scripts/dock_solv.prm

>  <Rbt.Receptor>
prm/pocket_docking_2.prm

>  <SCORE>
-24.8311

>  <SCORE.INTER>
-9.19673

>  <SCORE.INTER.CONST>
1

>  <SCORE.INTER.POLAR>
-0.541104

>  <SCORE.INTER.ROT>
8

>  <SCORE.INTER.SOLV>
30.5043

>  <SCORE.INTER.VDW>
-23.4289

>  <SCORE.INTER.norm>
-0.287398

>  <SCORE.INTRA>
-19.0302

>  <SCORE.INTRA.DIHEDRAL>
-40.2409

>  <SCORE.INTRA.DIHEDRAL.0>
76.3625

>  <SCORE.INTRA.POLAR>
0

>  <SCORE.INTRA.POLAR.0>
0

>  <SCORE.INTRA.REPUL>
0.0697658

>  <SCORE.INTRA.REPUL.0>
0.12705

>  <SCORE.INTRA.SOLV>
-3.98649

>  <SCORE.INTRA.SOLV.lig_0>
-119.383

>  <SCORE.INTRA.VDW>
2.73471

>  <SCORE.INTRA.VDW.0>
-5.10464

>  <SCORE.INTRA.norm>
-0.594693

>  <SCORE.RESTR>
3.39581

>  <SCORE.RESTR.CAVITY>
3.39581

>  <SCORE.RESTR.norm>
0.106119

>  <SCORE.SYSTEM>
0

>  <SCORE.SYSTEM.CONST>
0

>  <SCORE.SYSTEM.DIHEDRAL>
0

>  <SCORE.SYSTEM.SOLV>
0

>  <SCORE.SYSTEM.norm>
0

>  <SCORE.heavy>
32

>  <SCORE.norm>
-0.775971

>  <RMSD>
6.709

$$$$
2au4_lig
 OpenBabel11021811423D
libRbt.so/2013.1/901 2013/11/27
 32 34  0  0  0  0  0  0  0  0999 V2000
   68.1283    5.5235   -3.0614 P   0  0  1  0  0  0  0  0  0  0  0  0
   70.3735    4.5181   -1.9135 P   0  0  1  0  0  0  0  0  0  0  0  0
   71.3367    4.6194    0.6365 P   0  0  2  0  0  0  0  0  0  0  0  0
   66.7839    5.6565   -0.7798 C   0  0  0  0  0  0  0  0  0  0  0  0
   67.5639    6.3248   -1.7852 O   0  0  0  0  0  0  0  0  0  0  0  0
   65.4780    6.3782   -0.4814 C   0  0  0  0  0  0  0  0  0  0  0  0
   65.5855    7.1377    0.7400 O   0  0  0  0  0  0  0  0  0  0  0  0
   65.1222    7.3355   -1.6081 C   0  0  0  0  0  0  0  0  0  0  0  0
   63.9023    6.9420   -2.2484 O   0  0  0  0  0  0  0  0  0  0  0  0
   64.9901    8.7037   -0.9827 C   0  0  0  0  0  0  0  0  0  0  0  0
   63.6824    9.2501   -1.2003 O   0  0  0  0  0  0  0  0  0  0  0  0
   65.2597    8.5234    0.5012 C   0  0  0  0  0  0  0  0  0  0  0  0
   67.5859   13.0283   -0.1001 N   0  0  0  0  0  0  0  0  0  0  0  0
   66.9833    4.9928   -3.8283 O   0  5  0  0  0  0  0  0  0  0  0  0
   71.2505    3.6466   -2.7195 O   0  5  0  0  0  0  0  0  0  0  0  0
   71.7777    3.5596    1.5658 O   0  5  0  0  0  0  0  0  0  0  0  0
   66.4935   12.5157   -0.7586 C   0  0  1  0  0  0  0  0  0  0  0  0
   65.9544   13.2880   -1.6925 N   0  0  0  0  0  0  0  0  0  0  0  0
   69.1455    6.3608   -3.7325 O   0  0  0  0  0  0  0  0  0  0  0  0
   70.6255    5.9729   -1.8549 O   0  0  0  0  0  0  0  0  0  0  0  0
   70.6900    5.8404    1.1609 O   0  0  0  0  0  0  0  0  0  0  0  0
   65.9736   11.3164   -0.5096 N   0  0  0  0  0  0  0  0  0  0  0  0
   68.8771    4.2950   -2.3903 O   0  0  0  0  0  0  0  0  0  0  0  0
   70.3487    3.9614   -0.4254 O   0  0  0  0  0  0  0  0  0  0  0  0
   72.5898    5.0550   -0.2693 O   0  0  0  0  0  0  0  0  0  0  0  0
   66.6460   10.6620    0.4653 C   0  0  2  0  0  0  0  0  0  0  0  0
   67.7502   11.1026    1.1770 C   0  0  2  0  0  0  0  0  0  0  0  0
   68.2912   12.3817    0.8990 C   0  0  1  0  0  0  0  0  0  0  0  0
   69.2670   12.9198    1.4047 O   0  0  0  0  0  0  0  0  0  0  0  0
   68.1628   10.1387    2.1031 N   0  0  0  0  0  0  0  0  0  0  0  0
   67.3005    9.1978    1.8954 C   0  0  0  0  0  0  0  0  0  0  0  0
   66.3563    9.4063    0.9442 N   0  0  0  0  0  0  0  0  0  0  0  0
  1  5  1  1  0  0  0
  1 14  1  0  0  0  0
  1 19  2  0  0  0  0
  2 15  1  6  0  0  0
  2 20  2  0  0  0  0
  2 23  1  0  0  0  0
  3 16  1  1  0  0  0
  3 21  2  0  0  0  0
  3 24  1  0  0  0  0
  3 25  1  0  0  0  0
  4  6  1  0  0  0  0
  5  4  1  0  0  0  0
  6  7  1  0  0  0  0
  6  8  2  0  0  0  0
  7 12  1  0  0  0  0
  8  9  1  0  0  0  0
  8 10  1  0  0  0  0
 10 11  1  0  0  0  0
 10 12  2  0  0  0  0
 12 32  1  0  0  0  0
 13 17  1  0  0  0  0
 17 18  1  6  0  0  0
 17 22  1  0  0  0  0
 23  1  1  0  0  0  0
 24  2  1  0  0  0  0
 26 22  1  6  0  0  0
 27 26  1  0  0  0  0
 27 28  1  0  0  0  0
 27 30  1  6  0  0  0
 28 13  1  0  0  0  0
 28 29  1  6  0  0  0
 31 30  1  0  0  0  0
 32 26  1  0  0  0  0
 32 31  1  0  0  0  0
M  CHG  3  14  -1  15  -1  16  -1
M  END
>  <CHROM.1>
61.47903649,-115.41469517,-145.39189938,-101.50354006,-128.76125611,154.12287055
-84.87333974,96.29969369,68.12501633,7.42068377,-0.70911854,0.96375660,0.45860893
-2.66137208

>  <Name>
2au4_lig

>  <RI>
0

>  <Rbt.Current_Directory>
/home/itssahil/PROJECTS/Mol_Feturizer/New_Systems/rnas/2au4

>  <Rbt.Executable>
rbdock ($Id: //depot/dev/client3/rdock/2013.1/src/exe/rbdock.cxx#4 $)

>  <Rbt.Library>
libRbt.so (2013.1, Build901 2013/11/27)

>  <Rbt.Parameter_File>
/export/apps/rDock/src/rDock_2013.1_src/data/scripts/dock_solv.prm

>  <Rbt.Receptor>
prm/pocket_docking_4.prm

>  <SCORE>
-22.4636

>  <SCORE.INTER>
-3.10335

>  <SCORE.INTER.CONST>
1

>  <SCORE.INTER.POLAR>
-1.27789

>  <SCORE.INTER.ROT>
8

>  <SCORE.INTER.SOLV>
45.5595

>  <SCORE.INTER.VDW>
-21.9291

>  <SCORE.INTER.norm>
-0.0969796

>  <SCORE.INTRA>
-19.4818

>  <SCORE.INTRA.DIHEDRAL>
-38.8101

>  <SCORE.INTRA.DIHEDRAL.0>
76.3625

>  <SCORE.INTRA.POLAR>
0

>  <SCORE.INTRA.POLAR.0>
0

>  <SCORE.INTRA.REPUL>
-0.12705

>  <SCORE.INTRA.REPUL.0>
0.12705

>  <SCORE.INTRA.SOLV>
-5.46909

>  <SCORE.INTRA.SOLV.lig_0>
-119.383

>  <SCORE.INTRA.VDW>
3.29307

>  <SCORE.INTRA.VDW.0>
-5.10464

>  <SCORE.INTRA.norm>
-0.608805

>  <SCORE.RESTR>
0.121541

>  <SCORE.RESTR.CAVITY>
0.121541

>  <SCORE.RESTR.norm>
0.00379815

>  <SCORE.SYSTEM>
0

>  <SCORE.SYSTEM.CONST>
0

>  <SCORE.SYSTEM.DIHEDRAL>
0

>  <SCORE.SYSTEM.SOLV>
0

>  <SCORE.SYSTEM.norm>
0

>  <SCORE.heavy>
32

>  <SCORE.norm>
-0.701987

>  <RMSD>
6.744

$$$$
2au4_lig
 OpenBabel11021811423D
libRbt.so/2013.1/901 2013/11/27
 32 34  0  0  0  0  0  0  0  0999 V2000
   72.6605   10.6945    1.1064 P   0  0  1  0  0  0  0  0  0  0  0  0
   73.2000   12.4310   -0.9094 P   0  0  1  0  0  0  0  0  0  0  0  0
   73.5981   13.5650   -3.3581 P   0  0  2  0  0  0  0  0  0  0  0  0
   70.1600   10.1466    0.4151 C   0  0  0  0  0  0  0  0  0  0  0  0
   71.3238    9.8020    1.1848 O   0  0  0  0  0  0  0  0  0  0  0  0
   69.0371    9.1318    0.5721 C   0  0  0  0  0  0  0  0  0  0  0  0
   69.2515    8.3145    1.7410 O   0  0  0  0  0  0  0  0  0  0  0  0
   67.6953    9.8320    0.7198 C   0  0  0  0  0  0  0  0  0  0  0  0
   66.8301    9.5178   -0.3782 O   0  0  0  0  0  0  0  0  0  0  0  0
   67.1064    9.3591    2.0275 C   0  0  0  0  0  0  0  0  0  0  0  0
   65.8351    8.7271    1.8261 O   0  0  0  0  0  0  0  0  0  0  0  0
   68.1075    8.3816    2.6186 C   0  0  0  0  0  0  0  0  0  0  0  0
   66.8518   11.0703    6.7731 N   0  0  0  0  0  0  0  0  0  0  0  0
   72.4027   11.9879    1.7708 O   0  5  0  0  0  0  0  0  0  0  0  0
   72.0311   13.3111   -0.7169 O   0  5  0  0  0  0  0  0  0  0  0  0
   72.2906   14.2507   -3.3966 O   0  5  0  0  0  0  0  0  0  0  0  0
   66.1578   10.9054    5.5980 C   0  0  1  0  0  0  0  0  0  0  0  0
   64.9921   11.5320    5.5109 N   0  0  0  0  0  0  0  0  0  0  0  0
   73.8089    9.8625    1.5246 O   0  0  0  0  0  0  0  0  0  0  0  0
   74.4949   12.7707   -0.2837 O   0  0  0  0  0  0  0  0  0  0  0  0
   74.2689   13.1809   -4.6177 O   0  0  0  0  0  0  0  0  0  0  0  0
   66.5932   10.1713    4.5771 N   0  0  0  0  0  0  0  0  0  0  0  0
   72.7998   10.9658   -0.4516 O   0  0  0  0  0  0  0  0  0  0  0  0
   73.4382   12.2523   -2.4703 O   0  0  0  0  0  0  0  0  0  0  0  0
   74.6145   14.4566   -2.4906 O   0  0  0  0  0  0  0  0  0  0  0  0
   67.7970    9.6084    4.8311 C   0  0  2  0  0  0  0  0  0  0  0  0
   68.5607    9.7215    5.9817 C   0  0  2  0  0  0  0  0  0  0  0  0
   68.0826   10.5072    7.0589 C   0  0  1  0  0  0  0  0  0  0  0  0
   68.6266   10.7381    8.1304 O   0  0  0  0  0  0  0  0  0  0  0  0
   69.7491    8.9927    5.8644 N   0  0  0  0  0  0  0  0  0  0  0  0
   69.6299    8.4975    4.6759 C   0  0  0  0  0  0  0  0  0  0  0  0
   68.5085    8.8009    3.9757 N   0  0  0  0  0  0  0  0  0  0  0  0
  1  5  1  1  0  0  0
  1 14  1  0  0  0  0
  1 19  2  0  0  0  0
  2 15  1  1  0  0  0
  2 20  2  0  0  0  0
  2 23  1  0  0  0  0
  3 16  1  6  0  0  0
  3 21  2  0  0  0  0
  3 24  1  0  0  0  0
  3 25  1  0  0  0  0
  4  6  1  0  0  0  0
  5  4  1  0  0  0  0
  6  7  1  0  0  0  0
  6  8  2  0  0  0  0
  7 12  1  0  0  0  0
  8  9  1  0  0  0  0
  8 10  1  0  0  0  0
 10 11  1  0  0  0  0
 10 12  2  0  0  0  0
 12 32  1  0  0  0  0
 13 17  1  0  0  0  0
 17 18  1  6  0  0  0
 17 22  1  0  0  0  0
 23  1  1  0  0  0  0
 24  2  1  0  0  0  0
 26 22  1  6  0  0  0
 27 26  1  0  0  0  0
 27 28  1  0  0  0  0
 27 30  1  6  0  0  0
 28 13  1  0  0  0  0
 28 29  1  6  0  0  0
 31 30  1  0  0  0  0
 32 26  1  0  0  0  0
 32 31  1  0  0  0  0
M  CHG  3  14  -1  15  -1  16  -1
M  END
>  <CHROM.1>
70.29718513,-73.37991735,-68.76536871,17.52128611,176.70737452,143.57509263
137.30858331,54.49306402,70.45966307,10.94819892,1.44882226,-0.86046863,0.36254696
1.67597345

>  <Name>
2au4_lig

>  <RI>
0

>  <Rbt.Current_Directory>
/home/itssahil/PROJECTS/Mol_Feturizer/New_Systems/rnas/2au4

>  <Rbt.Executable>
rbdock ($Id: //depot/dev/client3/rdock/2013.1/src/exe/rbdock.cxx#4 $)

>  <Rbt.Library>
libRbt.so (2013.1, Build901 2013/11/27)

>  <Rbt.Parameter_File>
/export/apps/rDock/src/rDock_2013.1_src/data/scripts/dock_solv.prm

>  <Rbt.Receptor>
prm/pocket_docking_7.prm

>  <SCORE>
-42.7573

>  <SCORE.INTER>
-17.4604

>  <SCORE.INTER.CONST>
1

>  <SCORE.INTER.POLAR>
-1.88086

>  <SCORE.INTER.ROT>
8

>  <SCORE.INTER.SOLV>
25.7475

>  <SCORE.INTER.VDW>
-22.8866

>  <SCORE.INTER.norm>
-0.545639

>  <SCORE.INTRA>
-25.2968

>  <SCORE.INTRA.DIHEDRAL>
-47.6718

>  <SCORE.INTRA.DIHEDRAL.0>
76.3625

>  <SCORE.INTRA.POLAR>
0

>  <SCORE.INTRA.POLAR.0>
0

>  <SCORE.INTRA.REPUL>
-0.12705

>  <SCORE.INTRA.REPUL.0>
0.12705

>  <SCORE.INTRA.SOLV>
-5.82484

>  <SCORE.INTRA.SOLV.lig_0>
-119.383

>  <SCORE.INTRA.VDW>
2.08674

>  <SCORE.INTRA.VDW.0>
-5.10464

>  <SCORE.INTRA.norm>
-0.790526

>  <SCORE.RESTR>
0

>  <SCORE.RESTR.CAVITY>
0

>  <SCORE.RESTR.norm>
0

>  <SCORE.SYSTEM>
0

>  <SCORE.SYSTEM.CONST>
0

>  <SCORE.SYSTEM.DIHEDRAL>
0

>  <SCORE.SYSTEM.SOLV>
0

>  <SCORE.SYSTEM.norm>
0

>  <SCORE.heavy>
32

>  <SCORE.norm>
-1.33616

>  <RMSD>
6.758

$$$$
2au4_lig
 OpenBabel11021811423D
libRbt.so/2013.1/901 2013/11/27
 32 34  0  0  0  0  0  0  0  0999 V2000
   66.5346    7.9124   -1.1683 P   0  0  1  0  0  0  0  0  0  0  0  0
   64.0891    6.7473   -0.9909 P   0  0  1  0  0  0  0  0  0  0  0  0
   62.1027    8.4297   -1.8059 P   0  0  2  0  0  0  0  0  0  0  0  0
   66.4471   10.5569   -1.3405 C   0  0  0  0  0  0  0  0  0  0  0  0
   67.0890    9.3819   -0.8179 O   0  0  0  0  0  0  0  0  0  0  0  0
   67.1931   11.8345   -0.9846 C   0  0  0  0  0  0  0  0  0  0  0  0
   67.3011   11.9772    0.4465 O   0  0  0  0  0  0  0  0  0  0  0  0
   68.5969   11.8190   -1.5692 C   0  0  0  0  0  0  0  0  0  0  0  0
   68.7618   12.8662   -2.5331 O   0  0  0  0  0  0  0  0  0  0  0  0
   69.5468   11.9949   -0.4086 C   0  0  0  0  0  0  0  0  0  0  0  0
   70.3668   13.1585   -0.5805 O   0  0  0  0  0  0  0  0  0  0  0  0
   68.6837   12.1217    0.8349 C   0  0  0  0  0  0  0  0  0  0  0  0
   67.1319    9.2854    4.7863 N   0  0  0  0  0  0  0  0  0  0  0  0
   66.7045    7.6779   -2.6163 O   0  5  0  0  0  0  0  0  0  0  0  0
   64.2040    6.2285   -2.3678 O   0  5  0  0  0  0  0  0  0  0  0  0
   63.0657    9.5491   -1.7786 O   0  5  0  0  0  0  0  0  0  0  0  0
   66.4302   10.2052    4.0438 C   0  0  1  0  0  0  0  0  0  0  0  0
   65.1657   10.4008    4.3928 N   0  0  0  0  0  0  0  0  0  0  0  0
   67.0921    6.9524   -0.1917 O   0  0  0  0  0  0  0  0  0  0  0  0
   64.4031    5.8740    0.1590 O   0  0  0  0  0  0  0  0  0  0  0  0
   60.6740    8.6764   -1.5197 O   0  0  0  0  0  0  0  0  0  0  0  0
   66.9497   10.8874    3.0262 N   0  0  0  0  0  0  0  0  0  0  0  0
   64.9807    8.0543   -0.8762 O   0  0  0  0  0  0  0  0  0  0  0  0
   62.6179    7.3140   -0.7926 O   0  0  0  0  0  0  0  0  0  0  0  0
   62.2180    7.6945   -3.2295 O   0  0  0  0  0  0  0  0  0  0  0  0
   68.2471   10.5704    2.8096 C   0  0  2  0  0  0  0  0  0  0  0  0
   69.0257    9.6602    3.5061 C   0  0  2  0  0  0  0  0  0  0  0  0
   68.4572    8.9427    4.5869 C   0  0  1  0  0  0  0  0  0  0  0  0
   68.9948    8.1261    5.3228 O   0  0  0  0  0  0  0  0  0  0  0  0
   70.3226    9.6117    2.9837 N   0  0  0  0  0  0  0  0  0  0  0  0
   70.2460   10.4777    2.0265 C   0  0  0  0  0  0  0  0  0  0  0  0
   69.0584   11.1050    1.8370 N   0  0  0  0  0  0  0  0  0  0  0  0
  1  5  1  1  0  0  0
  1 14  1  0  0  0  0
  1 19  2  0  0  0  0
  2 15  1  6  0  0  0
  2 20  2  0  0  0  0
  2 23  1  0  0  0  0
  3 16  1  1  0  0  0
  3 21  2  0  0  0  0
  3 24  1  0  0  0  0
  3 25  1  0  0  0  0
  4  6  1  0  0  0  0
  5  4  1  0  0  0  0
  6  7  1  0  0  0  0
  6  8  2  0  0  0  0
  7 12  1  0  0  0  0
  8  9  1  0  0  0  0
  8 10  1  0  0  0  0
 10 11  1  0  0  0  0
 10 12  2  0  0  0  0
 12 32  1  0  0  0  0
 13 17  1  0  0  0  0
 17 18  1  1  0  0  0
 17 22  1  0  0  0  0
 23  1  1  0  0  0  0
 24  2  1  0  0  0  0
 26 22  1  1  0  0  0
 27 26  1  0  0  0  0
 27 28  1  0  0  0  0
 27 30  1  1  0  0  0
 28 13  1  0  0  0  0
 28 29  1  1  0  0  0
 31 30  1  0  0  0  0
 32 26  1  0  0  0  0
 32 31  1  0  0  0  0
M  CHG  3  14  -1  15  -1  16  -1
M  END
>  <CHROM.1>
65.35523379,-59.71825119,-55.47431190,-58.81097532,-175.27878028,-33.03491866
-174.86537034,-55.92456195,66.31353099,9.30166044,0.21802829,-2.78831418
0.64869696,1.94697830

>  <Name>
2au4_lig

>  <RI>
0

>  <Rbt.Current_Directory>
/home/itssahil/PROJECTS/Mol_Feturizer/New_Systems/rnas/2au4

>  <Rbt.Executable>
rbdock ($Id: //depot/dev/client3/rdock/2013.1/src/exe/rbdock.cxx#4 $)

>  <Rbt.Library>
libRbt.so (2013.1, Build901 2013/11/27)

>  <Rbt.Parameter_File>
/export/apps/rDock/src/rDock_2013.1_src/data/scripts/dock_solv.prm

>  <Rbt.Receptor>
prm/pocket_docking_6.prm

>  <SCORE>
-39.1456

>  <SCORE.INTER>
-12.4328

>  <SCORE.INTER.CONST>
1

>  <SCORE.INTER.POLAR>
-0.536012

>  <SCORE.INTER.ROT>
8

>  <SCORE.INTER.SOLV>
26.6362

>  <SCORE.INTER.VDW>
-24.3139

>  <SCORE.INTER.norm>
-0.388525

>  <SCORE.INTRA>
-26.7127

>  <SCORE.INTRA.DIHEDRAL>
-50.3058

>  <SCORE.INTRA.DIHEDRAL.0>
76.3625

>  <SCORE.INTRA.POLAR>
0

>  <SCORE.INTRA.POLAR.0>
0

>  <SCORE.INTRA.REPUL>
0.0528808

>  <SCORE.INTRA.REPUL.0>
0.12705

>  <SCORE.INTRA.SOLV>
-5.2033

>  <SCORE.INTRA.SOLV.lig_0>
-119.383

>  <SCORE.INTRA.VDW>
0.777417

>  <SCORE.INTRA.VDW.0>
-5.10464

>  <SCORE.INTRA.norm>
-0.834773

>  <SCORE.RESTR>
0

>  <SCORE.RESTR.CAVITY>
0

>  <SCORE.RESTR.norm>
0

>  <SCORE.SYSTEM>
0

>  <SCORE.SYSTEM.CONST>
0

>  <SCORE.SYSTEM.DIHEDRAL>
0

>  <SCORE.SYSTEM.SOLV>
0

>  <SCORE.SYSTEM.norm>
0

>  <SCORE.heavy>
32

>  <SCORE.norm>
-1.2233

>  <RMSD>
6.759

$$$$
2au4_lig
 OpenBabel11021811423D
libRbt.so/2013.1/901 2013/11/27
 32 34  0  0  0  0  0  0  0  0999 V2000
   68.2863    8.4145   -1.0678 P   0  0  1  0  0  0  0  0  0  0  0  0
   69.6857    6.1135   -1.4090 P   0  0  1  0  0  0  0  0  0  0  0  0
   71.6444    4.3787   -0.6380 P   0  0  2  0  0  0  0  0  0  0  0  0
   68.3212   11.0489   -1.3667 C   0  0  0  0  0  0  0  0  0  0  0  0
   68.6873    9.8973   -0.5884 O   0  0  0  0  0  0  0  0  0  0  0  0
   68.8145   12.3492   -0.7493 C   0  0  0  0  0  0  0  0  0  0  0  0
   68.3965   12.4479    0.6276 O   0  0  0  0  0  0  0  0  0  0  0  0
   70.3327   12.4241   -0.7929 C   0  0  0  0  0  0  0  0  0  0  0  0
   70.7683   13.5108   -1.6189 O   0  0  0  0  0  0  0  0  0  0  0  0
   70.7942   12.6074    0.6332 C   0  0  0  0  0  0  0  0  0  0  0  0
   71.5514   13.8158    0.7827 O   0  0  0  0  0  0  0  0  0  0  0  0
   69.5386   12.6480    1.4871 C   0  0  0  0  0  0  0  0  0  0  0  0
   66.8744    9.3511    4.3330 N   0  0  0  0  0  0  0  0  0  0  0  0
   67.3952    7.8165   -0.0533 O   0  5  0  0  0  0  0  0  0  0  0  0
   68.9818    5.3562   -0.3559 O   0  5  0  0  0  0  0  0  0  0  0  0
   71.0709    3.2713   -1.4292 O   0  5  0  0  0  0  0  0  0  0  0  0
   66.4338   10.2242    3.3670 C   0  0  1  0  0  0  0  0  0  0  0  0
   65.1291   10.2278    3.1288 N   0  0  0  0  0  0  0  0  0  0  0  0
   67.8630    8.4742   -2.4832 O   0  0  0  0  0  0  0  0  0  0  0  0
   69.2524    6.0025   -2.8174 O   0  0  0  0  0  0  0  0  0  0  0  0
   71.3360    4.4952    0.8026 O   0  0  0  0  0  0  0  0  0  0  0  0
   67.2337   11.0411    2.6861 N   0  0  0  0  0  0  0  0  0  0  0  0
   69.6755    7.6485   -1.0088 O   0  0  0  0  0  0  0  0  0  0  0  0
   71.2306    5.7481   -1.3380 O   0  0  0  0  0  0  0  0  0  0  0  0
   73.2407    4.3583   -0.8176 O   0  0  0  0  0  0  0  0  0  0  0  0
   68.5286   10.9120    3.0564 C   0  0  2  0  0  0  0  0  0  0  0  0
   69.0562   10.0617    4.0148 C   0  0  2  0  0  0  0  0  0  0  0  0
   68.1906    9.1988    4.7307 C   0  0  1  0  0  0  0  0  0  0  0  0
   68.4728    8.4069    5.6199 O   0  0  0  0  0  0  0  0  0  0  0  0
   70.4427   10.2205    4.1126 N   0  0  0  0  0  0  0  0  0  0  0  0
   70.6588   11.1373    3.2268 C   0  0  0  0  0  0  0  0  0  0  0  0
   69.5907   11.6175    2.5423 N   0  0  0  0  0  0  0  0  0  0  0  0
  1  5  1  1  0  0  0
  1 14  1  0  0  0  0
  1 19  2  0  0  0  0
  2 15  1  1  0  0  0
  2 20  2  0  0  0  0
  2 23  1  0  0  0  0
  3 16  1  6  0  0  0
  3 21  2  0  0  0  0
  3 24  1  0  0  0  0
  3 25  1  0  0  0  0
  4  6  1  0  0  0  0
  5  4  1  0  0  0  0
  6  7  1  0  0  0  0
  6  8  2  0  0  0  0
  7 12  1  0  0  0  0
  8  9  1  0  0  0  0
  8 10  1  0  0  0  0
 10 11  1  0  0  0  0
 10 12  2  0  0  0  0
 12 32  1  0  0  0  0
 13 17  1  0  0  0  0
 17 18  1  1  0  0  0
 17 22  1  0  0  0  0
 23  1  1  0  0  0  0
 24  2  1  0  0  0  0
 26 22  1  1  0  0  0
 27 26  1  0  0  0  0
 27 28  1  0  0  0  0
 27 30  1  1  0  0  0
 28 13  1  0  0  0  0
 28 29  1  1  0  0  0
 31 30  1  0  0  0  0
 32 26  1  0  0  0  0
 32 31  1  0  0  0  0
M  CHG  3  14  -1  15  -1  16  -1
M  END
>  <CHROM.1>
-117.77389250,-69.95725521,63.55355175,-52.80362263,-179.10432810,-25.87999245
179.44694586,21.76035096,69.38386813,8.81020530,0.57180391,-0.75133618,1.21471012
-0.31934199

>  <Name>
2au4_lig

>  <RI>
0

>  <Rbt.Current_Directory>
/home/itssahil/PROJECTS/Mol_Feturizer/New_Systems/rnas/2au4

>  <Rbt.Executable>
rbdock ($Id: //depot/dev/client3/rdock/2013.1/src/exe/rbdock.cxx#4 $)

>  <Rbt.Library>
libRbt.so (2013.1, Build901 2013/11/27)

>  <Rbt.Parameter_File>
/export/apps/rDock/src/rDock_2013.1_src/data/scripts/dock_solv.prm

>  <Rbt.Receptor>
prm/pocket_docking_3.prm

>  <SCORE>
-37.225

>  <SCORE.INTER>
-13.9928

>  <SCORE.INTER.CONST>
1

>  <SCORE.INTER.POLAR>
-1.10283

>  <SCORE.INTER.ROT>
8

>  <SCORE.INTER.SOLV>
32.9036

>  <SCORE.INTER.VDW>
-25.5536

>  <SCORE.INTER.norm>
-0.437274

>  <SCORE.INTRA>
-23.9304

>  <SCORE.INTRA.DIHEDRAL>
-46.4956

>  <SCORE.INTRA.DIHEDRAL.0>
76.3625

>  <SCORE.INTRA.POLAR>
0

>  <SCORE.INTRA.POLAR.0>
0

>  <SCORE.INTRA.REPUL>
0.0713449

>  <SCORE.INTRA.REPUL.0>
0.12705

>  <SCORE.INTRA.SOLV>
-4.15759

>  <SCORE.INTRA.SOLV.lig_0>
-119.383

>  <SCORE.INTRA.VDW>
1.03944

>  <SCORE.INTRA.VDW.0>
-5.10464

>  <SCORE.INTRA.norm>
-0.747826

>  <SCORE.RESTR>
0.698252

>  <SCORE.RESTR.CAVITY>
0.698252

>  <SCORE.RESTR.norm>
0.0218204

>  <SCORE.SYSTEM>
0

>  <SCORE.SYSTEM.CONST>
0

>  <SCORE.SYSTEM.DIHEDRAL>
0

>  <SCORE.SYSTEM.SOLV>
0

>  <SCORE.SYSTEM.norm>
0

>  <SCORE.heavy>
32

>  <SCORE.norm>
-1.16328

>  <RMSD>
6.767

$$$$
2au4_lig
 OpenBabel11021811423D
libRbt.so/2013.1/901 2013/11/27
 32 34  0  0  0  0  0  0  0  0999 V2000
   66.0375    6.1813   -2.4621 P   0  0  1  0  0  0  0  0  0  0  0  0
   68.2440    5.2837   -1.1603 P   0  0  1  0  0  0  0  0  0  0  0  0
   68.4377    7.0841    0.8797 P   0  0  2  0  0  0  0  0  0  0  0  0
   65.8028    8.5984   -1.3975 C   0  0  0  0  0  0  0  0  0  0  0  0
   66.3789    7.7529   -2.4070 O   0  0  0  0  0  0  0  0  0  0  0  0
   66.1738   10.0624   -1.5835 C   0  0  0  0  0  0  0  0  0  0  0  0
   65.4458   10.8922   -0.6553 O   0  0  0  0  0  0  0  0  0  0  0  0
   67.6610   10.2751   -1.3477 C   0  0  0  0  0  0  0  0  0  0  0  0
   68.3103   10.7222   -2.5441 O   0  0  0  0  0  0  0  0  0  0  0  0
   67.7781   11.3047   -0.2493 C   0  0  0  0  0  0  0  0  0  0  0  0
   68.5132   12.4539   -0.6909 O   0  0  0  0  0  0  0  0  0  0  0  0
   66.3582   11.6861    0.1324 C   0  0  0  0  0  0  0  0  0  0  0  0
   68.4286   11.6813    4.7993 N   0  0  0  0  0  0  0  0  0  0  0  0
   64.5750    6.0129   -2.3457 O   0  5  0  0  0  0  0  0  0  0  0  0
   68.3782    3.8292   -1.3716 O   0  5  0  0  0  0  0  0  0  0  0  0
   68.6414    8.0383   -0.2289 O   0  5  0  0  0  0  0  0  0  0  0  0
   69.0140   11.9529    3.5855 C   0  0  1  0  0  0  0  0  0  0  0  0
   70.3050   12.2557    3.6101 N   0  0  0  0  0  0  0  0  0  0  0  0
   66.7644    5.5800   -3.6006 O   0  0  0  0  0  0  0  0  0  0  0  0
   68.9133    6.2307   -2.0762 O   0  0  0  0  0  0  0  0  0  0  0  0
   69.1982    7.2387    2.1374 O   0  0  0  0  0  0  0  0  0  0  0  0
   68.3627   11.9224    2.4255 N   0  0  0  0  0  0  0  0  0  0  0  0
   66.6987    5.6404   -1.1241 O   0  0  0  0  0  0  0  0  0  0  0  0
   68.7105    5.6175    0.3216 O   0  0  0  0  0  0  0  0  0  0  0  0
   66.8712    7.0420    1.2330 O   0  0  0  0  0  0  0  0  0  0  0  0
   67.0599   11.5924    2.5810 C   0  0  2  0  0  0  0  0  0  0  0  0
   66.3924   11.3052    3.7608 C   0  0  2  0  0  0  0  0  0  0  0  0
   67.1008   11.3418    4.9868 C   0  0  1  0  0  0  0  0  0  0  0  0
   66.6856   11.0957    6.1113 O   0  0  0  0  0  0  0  0  0  0  0  0
   65.0483   11.0072    3.5127 N   0  0  0  0  0  0  0  0  0  0  0  0
   64.9915   11.1301    2.2268 C   0  0  0  0  0  0  0  0  0  0  0  0
   66.1301   11.4745    1.5751 N   0  0  0  0  0  0  0  0  0  0  0  0
  1  5  1  6  0  0  0
  1 14  1  0  0  0  0
  1 19  2  0  0  0  0
  2 15  1  6  0  0  0
  2 20  2  0  0  0  0
  2 23  1  0  0  0  0
  3 16  1  6  0  0  0
  3 21  2  0  0  0  0
  3 24  1  0  0  0  0
  3 25  1  0  0  0  0
  4  6  1  0  0  0  0
  5  4  1  0  0  0  0
  6  7  1  0  0  0  0
  6  8  2  0  0  0  0
  7 12  1  0  0  0  0
  8  9  1  0  0  0  0
  8 10  1  0  0  0  0
 10 11  1  0  0  0  0
 10 12  2  0  0  0  0
 12 32  1  0  0  0  0
 13 17  1  0  0  0  0
 17 18  1  6  0  0  0
 17 22  1  0  0  0  0
 23  1  1  0  0  0  0
 24  2  1  0  0  0  0
 26 22  1  6  0  0  0
 27 26  1  0  0  0  0
 27 28  1  0  0  0  0
 27 30  1  6  0  0  0
 28 13  1  0  0  0  0
 28 29  1  6  0  0  0
 31 30  1  0  0  0  0
 32 26  1  0  0  0  0
 32 31  1  0  0  0  0
M  CHG  3  14  -1  15  -1  16  -1
M  END
>  <CHROM.1>
47.54511461,-97.36640063,-37.21474693,172.87770903,-175.84797204,151.93463161
-84.28652886,-170.13459719,67.33304958,8.77562353,0.37157349,1.63320489,1.11843600
-2.46090966

>  <Name>
2au4_lig

>  <RI>
0

>  <Rbt.Current_Directory>
/home/itssahil/PROJECTS/Mol_Feturizer/New_Systems/rnas/2au4

>  <Rbt.Executable>
rbdock ($Id: //depot/dev/client3/rdock/2013.1/src/exe/rbdock.cxx#4 $)

>  <Rbt.Library>
libRbt.so (2013.1, Build901 2013/11/27)

>  <Rbt.Parameter_File>
/export/apps/rDock/src/rDock_2013.1_src/data/scripts/dock_solv.prm

>  <Rbt.Receptor>
prm/pocket_docking_4.prm

>  <SCORE>
-41.9137

>  <SCORE.INTER>
-16.6271

>  <SCORE.INTER.CONST>
1

>  <SCORE.INTER.POLAR>
-1.97233

>  <SCORE.INTER.ROT>
8

>  <SCORE.INTER.SOLV>
25.4578

>  <SCORE.INTER.VDW>
-21.9295

>  <SCORE.INTER.norm>
-0.519596

>  <SCORE.INTRA>
-25.2866

>  <SCORE.INTRA.DIHEDRAL>
-48.1584

>  <SCORE.INTRA.DIHEDRAL.0>
76.3625

>  <SCORE.INTRA.POLAR>
0

>  <SCORE.INTRA.POLAR.0>
0

>  <SCORE.INTRA.REPUL>
-0.12705

>  <SCORE.INTRA.REPUL.0>
0.12705

>  <SCORE.INTRA.SOLV>
-1.72937

>  <SCORE.INTRA.SOLV.lig_0>
-119.383

>  <SCORE.INTRA.VDW>
0.292486

>  <SCORE.INTRA.VDW.0>
-5.10464

>  <SCORE.INTRA.norm>
-0.790207

>  <SCORE.RESTR>
0

>  <SCORE.RESTR.CAVITY>
0

>  <SCORE.RESTR.norm>
0

>  <SCORE.SYSTEM>
0

>  <SCORE.SYSTEM.CONST>
0

>  <SCORE.SYSTEM.DIHEDRAL>
0

>  <SCORE.SYSTEM.SOLV>
0

>  <SCORE.SYSTEM.norm>
0

>  <SCORE.heavy>
32

>  <SCORE.norm>
-1.3098

>  <RMSD>
6.803

$$$$
2au4_lig
 OpenBabel11021811423D
libRbt.so/2013.1/901 2013/11/27
 32 34  0  0  0  0  0  0  0  0999 V2000
   70.2020   13.5627    2.0770 P   0  0  1  0  0  0  0  0  0  0  0  0
   72.7774   13.5435    1.2189 P   0  0  1  0  0  0  0  0  0  0  0  0
   73.9645   13.7208   -1.2306 P   0  0  2  0  0  0  0  0  0  0  0  0
   67.6049   14.0943    2.1319 C   0  0  0  0  0  0  0  0  0  0  0  0
   68.7964   13.8754    1.3586 O   0  0  0  0  0  0  0  0  0  0  0  0
   66.3491   14.1138    1.2728 C   0  0  0  0  0  0  0  0  0  0  0  0
   66.6829   13.9289   -0.1181 O   0  0  0  0  0  0  0  0  0  0  0  0
   65.3966   13.0027    1.6861 C   0  0  0  0  0  0  0  0  0  0  0  0
   64.1691   13.5421    2.1914 O   0  0  0  0  0  0  0  0  0  0  0  0
   65.1546   12.1647    0.4535 C   0  0  0  0  0  0  0  0  0  0  0  0
   63.7610   12.1244    0.1183 O   0  0  0  0  0  0  0  0  0  0  0  0
   65.9603   12.8049   -0.6638 C   0  0  0  0  0  0  0  0  0  0  0  0
   66.8707    7.8811   -1.6609 N   0  0  0  0  0  0  0  0  0  0  0  0
   70.4227   14.5670    3.1370 O   0  5  0  0  0  0  0  0  0  0  0  0
   73.0991   14.0869    2.5528 O   0  5  0  0  0  0  0  0  0  0  0  0
   72.7411   13.3750   -1.9823 O   0  5  0  0  0  0  0  0  0  0  0  0
   65.8013    8.4577   -1.0178 C   0  0  1  0  0  0  0  0  0  0  0  0
   64.8612    7.6298   -0.5822 N   0  0  0  0  0  0  0  0  0  0  0  0
   70.2570   12.1208    2.3993 O   0  0  0  0  0  0  0  0  0  0  0  0
   73.0382   12.1211    0.9152 O   0  0  0  0  0  0  0  0  0  0  0  0
   74.9489   12.6703   -0.8969 O   0  0  0  0  0  0  0  0  0  0  0  0
   65.6754    9.7672   -0.8175 N   0  0  0  0  0  0  0  0  0  0  0  0
   71.2488   13.8407    0.9164 O   0  0  0  0  0  0  0  0  0  0  0  0
   73.5234   14.4256    0.1278 O   0  0  0  0  0  0  0  0  0  0  0  0
   74.7240   14.9018   -2.0111 O   0  0  0  0  0  0  0  0  0  0  0  0
   66.7220   10.4625   -1.3193 C   0  0  2  0  0  0  0  0  0  0  0  0
   67.8341    9.9637   -1.9783 C   0  0  2  0  0  0  0  0  0  0  0  0
   67.9526    8.5672   -2.1828 C   0  0  1  0  0  0  0  0  0  0  0  0
   68.8663    7.9527   -2.7169 O   0  0  0  0  0  0  0  0  0  0  0  0
   68.7010   10.9985   -2.3456 N   0  0  0  0  0  0  0  0  0  0  0  0
   68.0709   12.0333   -1.8941 C   0  0  0  0  0  0  0  0  0  0  0  0
   66.8858   11.8265   -1.2675 N   0  0  0  0  0  0  0  0  0  0  0  0
  1  5  1  6  0  0  0
  1 14  1  0  0  0  0
  1 19  2  0  0  0  0
  2 15  1  1  0  0  0
  2 20  2  0  0  0  0
  2 23  1  0  0  0  0
  3 16  1  6  0  0  0
  3 21  2  0  0  0  0
  3 24  1  0  0  0  0
  3 25  1  0  0  0  0
  4  6  1  0  0  0  0
  5  4  1  0  0  0  0
  6  7  1  0  0  0  0
  6  8  2  0  0  0  0
  7 12  1  0  0  0  0
  8  9  1  0  0  0  0
  8 10  1  0  0  0  0
 10 11  1  0  0  0  0
 10 12  2  0  0  0  0
 12 32  1  0  0  0  0
 13 17  1  0  0  0  0
 17 18  1  1  0  0  0
 17 22  1  0  0  0  0
 23  1  1  0  0  0  0
 24  2  1  0  0  0  0
 26 22  1  1  0  0  0
 27 26  1  0  0  0  0
 27 28  1  0  0  0  0
 27 30  1  1  0  0  0
 28 13  1  0  0  0  0
 28 29  1  1  0  0  0
 31 30  1  0  0  0  0
 32 26  1  0  0  0  0
 32 31  1  0  0  0  0
M  CHG  3  14  -1  15  -1  16  -1
M  END
>  <CHROM.1>
-49.36734790,-44.74449621,68.01721367,-1.02448754,-169.28465631,147.74746245
-176.04542444,150.02451719,69.33731234,12.33579369,0.03514129,0.34984992
0.20881023,0.72763516

>  <Name>
2au4_lig

>  <RI>
0

>  <Rbt.Current_Directory>
/home/itssahil/PROJECTS/Mol_Feturizer/New_Systems/rnas/2au4

>  <Rbt.Executable>
rbdock ($Id: //depot/dev/client3/rdock/2013.1/src/exe/rbdock.cxx#4 $)

>  <Rbt.Library>
libRbt.so (2013.1, Build901 2013/11/27)

>  <Rbt.Parameter_File>
/export/apps/rDock/src/rDock_2013.1_src/data/scripts/dock_solv.prm

>  <Rbt.Receptor>
prm/pocket_docking_5.prm

>  <SCORE>
-40.672

>  <SCORE.INTER>
-15.2934

>  <SCORE.INTER.CONST>
1

>  <SCORE.INTER.POLAR>
-1.72419

>  <SCORE.INTER.ROT>
8

>  <SCORE.INTER.SOLV>
22.037

>  <SCORE.INTER.VDW>
-20.7273

>  <SCORE.INTER.norm>
-0.477918

>  <SCORE.INTRA>
-25.3787

>  <SCORE.INTRA.DIHEDRAL>
-48.1317

>  <SCORE.INTRA.DIHEDRAL.0>
76.3625

>  <SCORE.INTRA.POLAR>
0

>  <SCORE.INTRA.POLAR.0>
0

>  <SCORE.INTRA.REPUL>
-0.12705

>  <SCORE.INTRA.REPUL.0>
0.12705

>  <SCORE.INTRA.SOLV>
-4.89697

>  <SCORE.INTRA.SOLV.lig_0>
-119.383

>  <SCORE.INTRA.VDW>
1.77094

>  <SCORE.INTRA.VDW.0>
-5.10464

>  <SCORE.INTRA.norm>
-0.793083

>  <SCORE.RESTR>
0

>  <SCORE.RESTR.CAVITY>
0

>  <SCORE.RESTR.norm>
0

>  <SCORE.SYSTEM>
0

>  <SCORE.SYSTEM.CONST>
0

>  <SCORE.SYSTEM.DIHEDRAL>
0

>  <SCORE.SYSTEM.SOLV>
0

>  <SCORE.SYSTEM.norm>
0

>  <SCORE.heavy>
32

>  <SCORE.norm>
-1.271

>  <RMSD>
6.822

$$$$
2au4_lig
 OpenBabel11021811423D
libRbt.so/2013.1/901 2013/11/27
 32 34  0  0  0  0  0  0  0  0999 V2000
   69.0164    7.9446   -0.4924 P   0  0  1  0  0  0  0  0  0  0  0  0
   70.0533    5.5186    0.1474 P   0  0  1  0  0  0  0  0  0  0  0  0
   72.0931    4.5068   -1.3546 P   0  0  2  0  0  0  0  0  0  0  0  0
   66.3945    7.9927   -0.8848 C   0  0  0  0  0  0  0  0  0  0  0  0
   67.4963    7.9078    0.0342 O   0  0  0  0  0  0  0  0  0  0  0  0
   65.3704    9.0391   -0.4704 C   0  0  0  0  0  0  0  0  0  0  0  0
   65.1191    8.9692    0.9481 O   0  0  0  0  0  0  0  0  0  0  0  0
   65.8676   10.4384   -0.7979 C   0  0  0  0  0  0  0  0  0  0  0  0
   65.0242   11.0668   -1.7710 O   0  0  0  0  0  0  0  0  0  0  0  0
   65.8658   11.2091    0.5007 C   0  0  0  0  0  0  0  0  0  0  0  0
   65.0267   12.3687    0.4151 O   0  0  0  0  0  0  0  0  0  0  0  0
   65.3572   10.2522    1.5651 C   0  0  0  0  0  0  0  0  0  0  0  0
   68.9194   12.6187    4.3538 N   0  0  0  0  0  0  0  0  0  0  0  0
   69.0760    7.2730   -1.8062 O   0  5  0  0  0  0  0  0  0  0  0  0
   70.7773    4.8649    1.2549 O   0  5  0  0  0  0  0  0  0  0  0  0
   72.8925    4.3051   -0.1292 O   0  5  0  0  0  0  0  0  0  0  0  0
   68.1607   13.1030    3.3148 C   0  0  1  0  0  0  0  0  0  0  0  0
   68.3742   14.3657    2.9697 N   0  0  0  0  0  0  0  0  0  0  0  0
   69.5359    9.3203   -0.3391 O   0  0  0  0  0  0  0  0  0  0  0  0
   68.7962    4.9339   -0.3639 O   0  0  0  0  0  0  0  0  0  0  0  0
   72.7671    4.7933   -2.6382 O   0  0  0  0  0  0  0  0  0  0  0  0
   67.2540   12.3817    2.6603 N   0  0  0  0  0  0  0  0  0  0  0  0
   69.7657    7.0229    0.5609 O   0  0  0  0  0  0  0  0  0  0  0  0
   71.0547    5.6818   -1.0756 O   0  0  0  0  0  0  0  0  0  0  0  0
   71.1377    3.2308   -1.5540 O   0  0  0  0  0  0  0  0  0  0  0  0
   67.1678   11.1181    3.1363 C   0  0  2  0  0  0  0  0  0  0  0  0
   67.8903   10.5512    4.1738 C   0  0  2  0  0  0  0  0  0  0  0  0
   68.8518   11.3330    4.8597 C   0  0  1  0  0  0  0  0  0  0  0  0
   69.5917   10.9963    5.7744 O   0  0  0  0  0  0  0  0  0  0  0  0
   67.5177    9.2170    4.3693 N   0  0  0  0  0  0  0  0  0  0  0  0
   66.6143    9.0666    3.4565 C   0  0  0  0  0  0  0  0  0  0  0  0
   66.3298   10.1335    2.6688 N   0  0  0  0  0  0  0  0  0  0  0  0
  1  5  1  1  0  0  0
  1 14  1  0  0  0  0
  1 19  2  0  0  0  0
  2 15  1  1  0  0  0
  2 20  2  0  0  0  0
  2 23  1  0  0  0  0
  3 16  1  1  0  0  0
  3 21  2  0  0  0  0
  3 24  1  0  0  0  0
  3 25  1  0  0  0  0
  4  6  1  0  0  0  0
  5  4  1  0  0  0  0
  6  7  1  0  0  0  0
  6  8  2  0  0  0  0
  7 12  1  0  0  0  0
  8  9  1  0  0  0  0
  8 10  1  0  0  0  0
 10 11  1  0  0  0  0
 10 12  2  0  0  0  0
 12 32  1  0  0  0  0
 13 17  1  0  0  0  0
 17 18  1  6  0  0  0
 17 22  1  0  0  0  0
 23  1  1  0  0  0  0
 24  2  1  0  0  0  0
 26 22  1  6  0  0  0
 27 26  1  0  0  0  0
 27 28  1  0  0  0  0
 27 30  1  6  0  0  0
 28 13  1  0  0  0  0
 28 29  1  6  0  0  0
 31 30  1  0  0  0  0
 32 26  1  0  0  0  0
 32 31  1  0  0  0  0
M  CHG  3  14  -1  15  -1  16  -1
M  END
>  <CHROM.1>
-33.92248162,178.76145545,-57.08354432,-42.98200028,-130.29984496,153.34131260
98.97424034,37.75151014,68.58383076,8.45232127,0.81920462,0.93970014,0.61324961
-2.24842209

>  <Name>
2au4_lig

>  <RI>
0

>  <Rbt.Current_Directory>
/home/itssahil/PROJECTS/Mol_Feturizer/New_Systems/rnas/2au4

>  <Rbt.Executable>
rbdock ($Id: //depot/dev/client3/rdock/2013.1/src/exe/rbdock.cxx#4 $)

>  <Rbt.Library>
libRbt.so (2013.1, Build901 2013/11/27)

>  <Rbt.Parameter_File>
/export/apps/rDock/src/rDock_2013.1_src/data/scripts/dock_solv.prm

>  <Rbt.Receptor>
prm/pocket_docking_4.prm

>  <SCORE>
-35.2416

>  <SCORE.INTER>
-13.7675

>  <SCORE.INTER.CONST>
1

>  <SCORE.INTER.POLAR>
-1.59702

>  <SCORE.INTER.ROT>
8

>  <SCORE.INTER.SOLV>
37.1967

>  <SCORE.INTER.VDW>
-25.1872

>  <SCORE.INTER.norm>
-0.430235

>  <SCORE.INTRA>
-21.6708

>  <SCORE.INTRA.DIHEDRAL>
-40.0814

>  <SCORE.INTRA.DIHEDRAL.0>
76.3625

>  <SCORE.INTRA.POLAR>
0

>  <SCORE.INTRA.POLAR.0>
0

>  <SCORE.INTRA.REPUL>
-0.12705

>  <SCORE.INTRA.REPUL.0>
0.12705

>  <SCORE.INTRA.SOLV>
-4.75475

>  <SCORE.INTRA.SOLV.lig_0>
-119.383

>  <SCORE.INTRA.VDW>
1.38253

>  <SCORE.INTRA.VDW.0>
-5.10464

>  <SCORE.INTRA.norm>
-0.677212

>  <SCORE.RESTR>
0.196672

>  <SCORE.RESTR.CAVITY>
0.196672

>  <SCORE.RESTR.norm>
0.00614601

>  <SCORE.SYSTEM>
0

>  <SCORE.SYSTEM.CONST>
0

>  <SCORE.SYSTEM.DIHEDRAL>
0

>  <SCORE.SYSTEM.SOLV>
0

>  <SCORE.SYSTEM.norm>
0

>  <SCORE.heavy>
32

>  <SCORE.norm>
-1.1013

>  <RMSD>
6.837

$$$$
2au4_lig
 OpenBabel11021811423D
libRbt.so/2013.1/901 2013/11/27
 32 34  0  0  0  0  0  0  0  0999 V2000
   67.0356   14.3272    3.4446 P   0  0  1  0  0  0  0  0  0  0  0  0
   69.5930   15.1866    3.7459 P   0  0  1  0  0  0  0  0  0  0  0  0
   71.4845   13.6270    2.5497 P   0  0  2  0  0  0  0  0  0  0  0  0
   66.1158   15.0645    1.0695 C   0  0  0  0  0  0  0  0  0  0  0  0
   66.1474   14.0886    2.1241 O   0  0  0  0  0  0  0  0  0  0  0  0
   65.1402   14.6934   -0.0377 C   0  0  0  0  0  0  0  0  0  0  0  0
   65.8502   14.2440   -1.2100 O   0  0  0  0  0  0  0  0  0  0  0  0
   64.2119   13.5770    0.4144 C   0  0  0  0  0  0  0  0  0  0  0  0
   62.8518   14.0259    0.4527 O   0  0  0  0  0  0  0  0  0  0  0  0
   64.3838   12.4493   -0.5750 C   0  0  0  0  0  0  0  0  0  0  0  0
   63.1404   12.1212   -1.2094 O   0  0  0  0  0  0  0  0  0  0  0  0
   65.4012   12.9278   -1.5963 C   0  0  0  0  0  0  0  0  0  0  0  0
   66.8965    8.0502   -1.3955 N   0  0  0  0  0  0  0  0  0  0  0  0
   66.6631   15.6292    4.0336 O   0  5  0  0  0  0  0  0  0  0  0  0
   69.2261   16.6116    3.8594 O   0  5  0  0  0  0  0  0  0  0  0  0
   71.0156   12.7181    3.6152 O   0  5  0  0  0  0  0  0  0  0  0  0
   65.6373    8.5832   -1.2537 C   0  0  1  0  0  0  0  0  0  0  0  0
   64.6559    7.7204   -1.0269 N   0  0  0  0  0  0  0  0  0  0  0  0
   66.9933   13.1012    4.2699 O   0  0  0  0  0  0  0  0  0  0  0  0
   69.8018   14.3755    4.9633 O   0  0  0  0  0  0  0  0  0  0  0  0
   72.9309   13.7669    2.2808 O   0  0  0  0  0  0  0  0  0  0  0  0
   65.3710    9.8848   -1.3282 N   0  0  0  0  0  0  0  0  0  0  0  0
   68.5018   14.4621    2.8510 O   0  0  0  0  0  0  0  0  0  0  0  0
   70.9014   15.0783    2.8506 O   0  0  0  0  0  0  0  0  0  0  0  0
   70.7474   13.2271    1.1796 O   0  0  0  0  0  0  0  0  0  0  0  0
   66.4831   10.6202   -1.5586 C   0  0  2  0  0  0  0  0  0  0  0  0
   67.7830   10.1666   -1.7139 C   0  0  2  0  0  0  0  0  0  0  0  0
   68.0492    8.7778   -1.6312 C   0  0  1  0  0  0  0  0  0  0  0  0
   69.1269    8.2047   -1.7178 O   0  0  0  0  0  0  0  0  0  0  0  0
   68.6597   11.2338   -1.9364 N   0  0  0  0  0  0  0  0  0  0  0  0
   67.8507   12.2419   -1.9012 C   0  0  0  0  0  0  0  0  0  0  0  0
   66.5362   11.9883   -1.6829 N   0  0  0  0  0  0  0  0  0  0  0  0
  1  5  1  6  0  0  0
  1 14  1  0  0  0  0
  1 19  2  0  0  0  0
  2 15  1  1  0  0  0
  2 20  2  0  0  0  0
  2 23  1  0  0  0  0
  3 16  1  1  0  0  0
  3 21  2  0  0  0  0
  3 24  1  0  0  0  0
  3 25  1  0  0  0  0
  4  6  1  0  0  0  0
  5  4  1  0  0  0  0
  6  7  1  0  0  0  0
  6  8  2  0  0  0  0
  7 12  1  0  0  0  0
  8  9  1  0  0  0  0
  8 10  1  0  0  0  0
 10 11  1  0  0  0  0
 10 12  2  0  0  0  0
 12 32  1  0  0  0  0
 13 17  1  0  0  0  0
 17 18  1  1  0  0  0
 17 22  1  0  0  0  0
 23  1  1  0  0  0  0
 24  2  1  0  0  0  0
 26 22  1  1  0  0  0
 27 26  1  0  0  0  0
 27 28  1  0  0  0  0
 27 30  1  1  0  0  0
 28 13  1  0  0  0  0
 28 29  1  1  0  0  0
 31 30  1  0  0  0  0
 32 26  1  0  0  0  0
 32 31  1  0  0  0  0
M  CHG  3  14  -1  15  -1  16  -1
M  END
>  <CHROM.1>
54.23686221,-67.54105810,-23.37476869,-106.06986078,-175.83679893,155.63017381
159.47186993,-178.65853348,67.63439731,12.83435176,1.04550007,1.00110588
-0.25222523,0.68822412

>  <Name>
2au4_lig

>  <RI>
0

>  <Rbt.Current_Directory>
/home/itssahil/PROJECTS/Mol_Feturizer/New_Systems/rnas/2au4

>  <Rbt.Executable>
rbdock ($Id: //depot/dev/client3/rdock/2013.1/src/exe/rbdock.cxx#4 $)

>  <Rbt.Library>
libRbt.so (2013.1, Build901 2013/11/27)

>  <Rbt.Parameter_File>
/export/apps/rDock/src/rDock_2013.1_src/data/scripts/dock_solv.prm

>  <Rbt.Receptor>
prm/pocket_docking_7.prm

>  <SCORE>
-41.7634

>  <SCORE.INTER>
-16.4338

>  <SCORE.INTER.CONST>
1

>  <SCORE.INTER.POLAR>
-2.97997

>  <SCORE.INTER.ROT>
8

>  <SCORE.INTER.SOLV>
15.3621

>  <SCORE.INTER.VDW>
-15.0767

>  <SCORE.INTER.norm>
-0.513557

>  <SCORE.INTRA>
-25.3296

>  <SCORE.INTRA.DIHEDRAL>
-48.9259

>  <SCORE.INTRA.DIHEDRAL.0>
76.3625

>  <SCORE.INTRA.POLAR>
0

>  <SCORE.INTRA.POLAR.0>
0

>  <SCORE.INTRA.REPUL>
-0.12705

>  <SCORE.INTRA.REPUL.0>
0.12705

>  <SCORE.INTRA.SOLV>
-5.23983

>  <SCORE.INTRA.SOLV.lig_0>
-119.383

>  <SCORE.INTRA.VDW>
2.38855

>  <SCORE.INTRA.VDW.0>
-5.10464

>  <SCORE.INTRA.norm>
-0.791549

>  <SCORE.RESTR>
0

>  <SCORE.RESTR.CAVITY>
0

>  <SCORE.RESTR.norm>
0

>  <SCORE.SYSTEM>
0

>  <SCORE.SYSTEM.CONST>
0

>  <SCORE.SYSTEM.DIHEDRAL>
0

>  <SCORE.SYSTEM.SOLV>
0

>  <SCORE.SYSTEM.norm>
0

>  <SCORE.heavy>
32

>  <SCORE.norm>
-1.30511

>  <RMSD>
6.842

$$$$
2au4_lig
 OpenBabel11021811423D
libRbt.so/2013.1/901 2013/11/27
 32 34  0  0  0  0  0  0  0  0999 V2000
   71.8353   12.0435    4.7139 P   0  0  1  0  0  0  0  0  0  0  0  0
   71.9830   13.1946    2.2598 P   0  0  1  0  0  0  0  0  0  0  0  0
   74.1927   12.0218    1.1725 P   0  0  2  0  0  0  0  0  0  0  0  0
   70.3109    9.8808    4.8847 C   0  0  0  0  0  0  0  0  0  0  0  0
   70.4356   11.2697    4.5368 O   0  0  0  0  0  0  0  0  0  0  0  0
   68.9095    9.3424    4.6369 C   0  0  0  0  0  0  0  0  0  0  0  0
   68.0664   10.3648    4.0675 O   0  0  0  0  0  0  0  0  0  0  0  0
   68.9471    8.1654    3.6746 C   0  0  0  0  0  0  0  0  0  0  0  0
   68.4971    6.9655    4.3154 O   0  0  0  0  0  0  0  0  0  0  0  0
   68.0512    8.5305    2.5152 C   0  0  0  0  0  0  0  0  0  0  0  0
   66.9916    7.5773    2.3576 O   0  0  0  0  0  0  0  0  0  0  0  0
   67.4949    9.9101    2.8226 C   0  0  0  0  0  0  0  0  0  0  0  0
   68.2982   10.4762   -2.1875 N   0  0  0  0  0  0  0  0  0  0  0  0
   71.9492   12.4960    6.1150 O   0  5  0  0  0  0  0  0  0  0  0  0
   71.3495   11.9644    1.7466 O   0  5  0  0  0  0  0  0  0  0  0  0
   73.5088   12.2916   -0.1085 O   0  5  0  0  0  0  0  0  0  0  0  0
   68.0182    9.3362   -1.4722 C   0  0  1  0  0  0  0  0  0  0  0  0
   67.9465    8.2089   -2.1672 N   0  0  0  0  0  0  0  0  0  0  0  0
   72.9077   11.2237    4.1105 O   0  0  0  0  0  0  0  0  0  0  0  0
   71.7093   14.4947    1.6130 O   0  0  0  0  0  0  0  0  0  0  0  0
   74.2226   10.6493    1.7198 O   0  0  0  0  0  0  0  0  0  0  0  0
   67.8260    9.3160   -0.1556 N   0  0  0  0  0  0  0  0  0  0  0  0
   71.6345   13.3272    3.8017 O   0  0  0  0  0  0  0  0  0  0  0  0
   73.5566   12.9747    2.2789 O   0  0  0  0  0  0  0  0  0  0  0  0
   75.7020   12.5615    1.0666 O   0  0  0  0  0  0  0  0  0  0  0  0
   67.9394   10.5467    0.3948 C   0  0  2  0  0  0  0  0  0  0  0  0
   68.2174   11.7417   -0.2490 C   0  0  2  0  0  0  0  0  0  0  0  0
   68.4196   11.7454   -1.6509 C   0  0  1  0  0  0  0  0  0  0  0  0
   68.6956   12.6918   -2.3759 O   0  0  0  0  0  0  0  0  0  0  0  0
   68.2541   12.8020    0.6630 N   0  0  0  0  0  0  0  0  0  0  0  0
   68.0022   12.1924    1.7752 C   0  0  0  0  0  0  0  0  0  0  0  0
   67.7995   10.8521    1.7280 N   0  0  0  0  0  0  0  0  0  0  0  0
  1  5  1  6  0  0  0
  1 14  1  0  0  0  0
  1 19  2  0  0  0  0
  2 15  1  6  0  0  0
  2 20  2  0  0  0  0
  2 23  1  0  0  0  0
  3 16  1  6  0  0  0
  3 21  2  0  0  0  0
  3 24  1  0  0  0  0
  3 25  1  0  0  0  0
  4  6  1  0  0  0  0
  5  4  1  0  0  0  0
  6  7  1  0  0  0  0
  6  8  2  0  0  0  0
  7 12  1  0  0  0  0
  8  9  1  0  0  0  0
  8 10  1  0  0  0  0
 10 11  1  0  0  0  0
 10 12  2  0  0  0  0
 12 32  1  0  0  0  0
 13 17  1  0  0  0  0
 17 18  1  1  0  0  0
 17 22  1  0  0  0  0
 23  1  1  0  0  0  0
 24  2  1  0  0  0  0
 26 22  1  1  0  0  0
 27 26  1  0  0  0  0
 27 28  1  0  0  0  0
 27 30  1  1  0  0  0
 28 13  1  0  0  0  0
 28 29  1  1  0  0  0
 31 30  1  0  0  0  0
 32 26  1  0  0  0  0
 32 31  1  0  0  0  0
M  CHG  3  14  -1  15  -1  16  -1
M  END
>  <CHROM.1>
-83.60264825,47.82775540,40.43968162,1.92923811,-179.80095728,150.67330813
-86.29331597,31.26525785,70.42341769,11.17636032,1.95125683,0.19406334,0.55149246
1.82737975

>  <Name>
2au4_lig

>  <RI>
0

>  <Rbt.Current_Directory>
/home/itssahil/PROJECTS/Mol_Feturizer/New_Systems/rnas/2au4

>  <Rbt.Executable>
rbdock ($Id: //depot/dev/client3/rdock/2013.1/src/exe/rbdock.cxx#4 $)

>  <Rbt.Library>
libRbt.so (2013.1, Build901 2013/11/27)

>  <Rbt.Parameter_File>
/export/apps/rDock/src/rDock_2013.1_src/data/scripts/dock_solv.prm

>  <Rbt.Receptor>
prm/pocket_docking_6.prm

>  <SCORE>
-43.2708

>  <SCORE.INTER>
-19.6573

>  <SCORE.INTER.CONST>
1

>  <SCORE.INTER.POLAR>
-2.8005

>  <SCORE.INTER.ROT>
8

>  <SCORE.INTER.SOLV>
25.2856

>  <SCORE.INTER.VDW>
-21.1317

>  <SCORE.INTER.norm>
-0.61429

>  <SCORE.INTRA>
-23.6201

>  <SCORE.INTRA.DIHEDRAL>
-47.6036

>  <SCORE.INTRA.DIHEDRAL.0>
76.3625

>  <SCORE.INTRA.POLAR>
0

>  <SCORE.INTRA.POLAR.0>
0

>  <SCORE.INTRA.REPUL>
-0.12705

>  <SCORE.INTRA.REPUL.0>
0.12705

>  <SCORE.INTRA.SOLV>
0.602653

>  <SCORE.INTRA.SOLV.lig_0>
-119.383

>  <SCORE.INTRA.VDW>
0.515623

>  <SCORE.INTRA.VDW.0>
-5.10464

>  <SCORE.INTRA.norm>
-0.738128

>  <SCORE.RESTR>
0.00652885

>  <SCORE.RESTR.CAVITY>
0.00652885

>  <SCORE.RESTR.norm>
0.000204026

>  <SCORE.SYSTEM>
0

>  <SCORE.SYSTEM.CONST>
0

>  <SCORE.SYSTEM.DIHEDRAL>
0

>  <SCORE.SYSTEM.SOLV>
0

>  <SCORE.SYSTEM.norm>
0

>  <SCORE.heavy>
32

>  <SCORE.norm>
-1.35221

>  <RMSD>
6.843

$$$$
2au4_lig
 OpenBabel11021811423D
libRbt.so/2013.1/901 2013/11/27
 32 34  0  0  0  0  0  0  0  0999 V2000
   67.8030    6.9945   -1.1491 P   0  0  1  0  0  0  0  0  0  0  0  0
   70.0021    5.4075   -1.0266 P   0  0  1  0  0  0  0  0  0  0  0  0
   72.3894    4.3953   -1.8732 P   0  0  2  0  0  0  0  0  0  0  0  0
   67.1479    8.4382    0.9762 C   0  0  0  0  0  0  0  0  0  0  0  0
   67.5092    8.3955   -0.4142 O   0  0  0  0  0  0  0  0  0  0  0  0
   66.4751    9.7471    1.3628 C   0  0  0  0  0  0  0  0  0  0  0  0
   67.4603   10.7733    1.6002 O   0  0  0  0  0  0  0  0  0  0  0  0
   65.5481   10.2235    0.2555 C   0  0  0  0  0  0  0  0  0  0  0  0
   64.1867   10.2460    0.7016 O   0  0  0  0  0  0  0  0  0  0  0  0
   66.0159   11.6065   -0.1301 C   0  0  0  0  0  0  0  0  0  0  0  0
   64.9733   12.5751    0.0454 O   0  0  0  0  0  0  0  0  0  0  0  0
   67.2019   11.9218    0.7650 C   0  0  0  0  0  0  0  0  0  0  0  0
   72.2960   12.2380    0.6348 N   0  0  0  0  0  0  0  0  0  0  0  0
   67.1959    5.9088   -0.3532 O   0  5  0  0  0  0  0  0  0  0  0  0
   70.3254    5.0406    0.3658 O   0  5  0  0  0  0  0  0  0  0  0  0
   73.0797    4.3208   -0.5697 O   0  5  0  0  0  0  0  0  0  0  0  0
   71.4725   11.8409    1.6614 C   0  0  1  0  0  0  0  0  0  0  0  0
   72.0702   11.4890    2.7919 N   0  0  0  0  0  0  0  0  0  0  0  0
   67.4729    7.1355   -2.5835 O   0  0  0  0  0  0  0  0  0  0  0  0
   69.1277    4.5363   -1.8390 O   0  0  0  0  0  0  0  0  0  0  0  0
   73.1741    4.5201   -3.1192 O   0  0  0  0  0  0  0  0  0  0  0  0
   70.1454   11.7994    1.5730 N   0  0  0  0  0  0  0  0  0  0  0  0
   69.3805    6.8670   -1.0246 O   0  0  0  0  0  0  0  0  0  0  0  0
   71.3650    5.6135   -1.8174 O   0  0  0  0  0  0  0  0  0  0  0  0
   71.4182    3.1227   -2.0076 O   0  0  0  0  0  0  0  0  0  0  0  0
   69.7031   12.1941    0.3568 C   0  0  2  0  0  0  0  0  0  0  0  0
   70.4595   12.6072   -0.7280 C   0  0  2  0  0  0  0  0  0  0  0  0
   71.8711   12.6459   -0.6168 C   0  0  1  0  0  0  0  0  0  0  0  0
   72.6892   13.0032   -1.4538 O   0  0  0  0  0  0  0  0  0  0  0  0
   69.6381   12.9376   -1.8111 N   0  0  0  0  0  0  0  0  0  0  0  0
   68.4635   12.7085   -1.3214 C   0  0  0  0  0  0  0  0  0  0  0  0
   68.3893   12.2641   -0.0420 N   0  0  0  0  0  0  0  0  0  0  0  0
  1  5  1  1  0  0  0
  1 14  1  0  0  0  0
  1 19  2  0  0  0  0
  2 15  1  1  0  0  0
  2 20  2  0  0  0  0
  2 23  1  0  0  0  0
  3 16  1  1  0  0  0
  3 21  2  0  0  0  0
  3 24  1  0  0  0  0
  3 25  1  0  0  0  0
  4  6  1  0  0  0  0
  5  4  1  0  0  0  0
  6  7  1  0  0  0  0
  6  8  2  0  0  0  0
  7 12  1  0  0  0  0
  8  9  1  0  0  0  0
  8 10  1  0  0  0  0
 10 11  1  0  0  0  0
 10 12  2  0  0  0  0
 12 32  1  0  0  0  0
 13 17  1  0  0  0  0
 17 18  1  1  0  0  0
 17 22  1  0  0  0  0
 23  1  1  0  0  0  0
 24  2  1  0  0  0  0
 26 22  1  1  0  0  0
 27 26  1  0  0  0  0
 27 28  1  0  0  0  0
 27 30  1  1  0  0  0
 28 13  1  0  0  0  0
 28 29  1  1  0  0  0
 31 30  1  0  0  0  0
 32 26  1  0  0  0  0
 32 31  1  0  0  0  0
M  CHG  3  14  -1  15  -1  16  -1
M  END
>  <CHROM.1>
19.47595968,-101.41181604,-76.94287220,-81.63068804,-160.92872558,-37.58971805
153.32918201,57.88972831,69.37517779,8.66692675,-0.48503049,1.21674039,-0.09645370
-2.92837284

>  <Name>
2au4_lig

>  <RI>
0

>  <Rbt.Current_Directory>
/home/itssahil/PROJECTS/Mol_Feturizer/New_Systems/rnas/2au4

>  <Rbt.Executable>
rbdock ($Id: //depot/dev/client3/rdock/2013.1/src/exe/rbdock.cxx#4 $)

>  <Rbt.Library>
libRbt.so (2013.1, Build901 2013/11/27)

>  <Rbt.Parameter_File>
/export/apps/rDock/src/rDock_2013.1_src/data/scripts/dock_solv.prm

>  <Rbt.Receptor>
prm/pocket_docking_3.prm

>  <SCORE>
-38.558

>  <SCORE.INTER>
-16.5106

>  <SCORE.INTER.CONST>
1

>  <SCORE.INTER.POLAR>
-1.45045

>  <SCORE.INTER.ROT>
8

>  <SCORE.INTER.SOLV>
35.4996

>  <SCORE.INTER.VDW>
-26.9388

>  <SCORE.INTER.norm>
-0.515955

>  <SCORE.INTRA>
-22.668

>  <SCORE.INTRA.DIHEDRAL>
-43.7489

>  <SCORE.INTRA.DIHEDRAL.0>
76.3625

>  <SCORE.INTRA.POLAR>
0

>  <SCORE.INTRA.POLAR.0>
0

>  <SCORE.INTRA.REPUL>
0.029836

>  <SCORE.INTRA.REPUL.0>
0.12705

>  <SCORE.INTRA.SOLV>
-6.32224

>  <SCORE.INTRA.SOLV.lig_0>
-119.383

>  <SCORE.INTRA.VDW>
2.21838

>  <SCORE.INTRA.VDW.0>
-5.10464

>  <SCORE.INTRA.norm>
-0.708375

>  <SCORE.RESTR>
0.620598

>  <SCORE.RESTR.CAVITY>
0.620598

>  <SCORE.RESTR.norm>
0.0193937

>  <SCORE.SYSTEM>
0

>  <SCORE.SYSTEM.CONST>
0

>  <SCORE.SYSTEM.DIHEDRAL>
0

>  <SCORE.SYSTEM.SOLV>
0

>  <SCORE.SYSTEM.norm>
0

>  <SCORE.heavy>
32

>  <SCORE.norm>
-1.20494

>  <RMSD>
6.874

$$$$
2au4_lig
 OpenBabel11021811423D
libRbt.so/2013.1/901 2013/11/27
 32 34  0  0  0  0  0  0  0  0999 V2000
   68.7228    4.7716   -1.4306 P   0  0  1  0  0  0  0  0  0  0  0  0
   67.5545    6.2561   -3.3802 P   0  0  1  0  0  0  0  0  0  0  0  0
   65.4668    7.5466   -2.1899 P   0  0  2  0  0  0  0  0  0  0  0  0
   69.0997    6.8784    0.1347 C   0  0  0  0  0  0  0  0  0  0  0  0
   68.7172    5.4990    0.0048 O   0  0  0  0  0  0  0  0  0  0  0  0
   68.5584    7.5150    1.4063 C   0  0  0  0  0  0  0  0  0  0  0  0
   69.6126    8.1860    2.1264 O   0  0  0  0  0  0  0  0  0  0  0  0
   67.4795    8.5359    1.0802 C   0  0  0  0  0  0  0  0  0  0  0  0
   66.2149    8.1351    1.6216 O   0  0  0  0  0  0  0  0  0  0  0  0
   67.9346    9.8463    1.6767 C   0  0  0  0  0  0  0  0  0  0  0  0
   66.9790   10.3466    2.6215 O   0  0  0  0  0  0  0  0  0  0  0  0
   69.2668    9.5691    2.3517 C   0  0  0  0  0  0  0  0  0  0  0  0
   70.3468   13.4653   -0.7660 N   0  0  0  0  0  0  0  0  0  0  0  0
   69.8722    5.2751   -2.2092 O   0  5  0  0  0  0  0  0  0  0  0  0
   68.5314    7.3165   -3.0652 O   0  5  0  0  0  0  0  0  0  0  0  0
   64.1748    8.1550   -2.5667 O   0  5  0  0  0  0  0  0  0  0  0  0
   69.1420   12.8487   -0.5253 C   0  0  1  0  0  0  0  0  0  0  0  0
   68.0975   13.3179   -1.1946 N   0  0  0  0  0  0  0  0  0  0  0  0
   68.5473    3.3181   -1.2239 O   0  0  0  0  0  0  0  0  0  0  0  0
   67.7586    5.3857   -4.5568 O   0  0  0  0  0  0  0  0  0  0  0  0
   66.4993    8.3615   -1.5164 O   0  0  0  0  0  0  0  0  0  0  0  0
   68.9854   11.8328    0.3197 N   0  0  0  0  0  0  0  0  0  0  0  0
   67.3970    5.3297   -2.1021 O   0  0  0  0  0  0  0  0  0  0  0  0
   66.1172    6.9226   -3.5031 O   0  0  0  0  0  0  0  0  0  0  0  0
   65.1741    6.2487   -1.2896 O   0  0  0  0  0  0  0  0  0  0  0  0
   70.1491   11.4785    0.9120 C   0  0  2  0  0  0  0  0  0  0  0  0
   71.4009   12.0433    0.7283 C   0  0  2  0  0  0  0  0  0  0  0  0
   71.5502   13.1239   -0.1752 C   0  0  1  0  0  0  0  0  0  0  0  0
   72.5724   13.7241   -0.4790 O   0  0  0  0  0  0  0  0  0  0  0  0
   72.3586   11.3997    1.5193 N   0  0  0  0  0  0  0  0  0  0  0  0
   71.6396   10.5062    2.1164 C   0  0  0  0  0  0  0  0  0  0  0  0
   70.3149   10.4663    1.8275 N   0  0  0  0  0  0  0  0  0  0  0  0
  1  5  1  1  0  0  0
  1 14  1  0  0  0  0
  1 19  2  0  0  0  0
  2 15  1  1  0  0  0
  2 20  2  0  0  0  0
  2 23  1  0  0  0  0
  3 16  1  6  0  0  0
  3 21  2  0  0  0  0
  3 24  1  0  0  0  0
  3 25  1  0  0  0  0
  4  6  1  0  0  0  0
  5  4  1  0  0  0  0
  6  7  1  0  0  0  0
  6  8  2  0  0  0  0
  7 12  1  0  0  0  0
  8  9  1  0  0  0  0
  8 10  1  0  0  0  0
 10 11  1  0  0  0  0
 10 12  2  0  0  0  0
 12 32  1  0  0  0  0
 13 17  1  0  0  0  0
 17 18  1  6  0  0  0
 17 22  1  0  0  0  0
 23  1  1  0  0  0  0
 24  2  1  0  0  0  0
 26 22  1  6  0  0  0
 27 26  1  0  0  0  0
 27 28  1  0  0  0  0
 27 30  1  6  0  0  0
 28 13  1  0  0  0  0
 28 29  1  6  0  0  0
 31 30  1  0  0  0  0
 32 26  1  0  0  0  0
 32 31  1  0  0  0  0
M  CHG  3  14  -1  15  -1  16  -1
M  END
>  <CHROM.1>
36.89713869,-50.47035965,177.41439671,129.62465222,158.84297564,123.84791267
114.23154144,-66.47248519,68.43684997,8.48708210,-0.63883906,-2.15160073
-0.66013083,0.06863896

>  <Name>
2au4_lig

>  <RI>
0

>  <Rbt.Current_Directory>
/home/itssahil/PROJECTS/Mol_Feturizer/New_Systems/rnas/2au4

>  <Rbt.Executable>
rbdock ($Id: //depot/dev/client3/rdock/2013.1/src/exe/rbdock.cxx#4 $)

>  <Rbt.Library>
libRbt.so (2013.1, Build901 2013/11/27)

>  <Rbt.Parameter_File>
/export/apps/rDock/src/rDock_2013.1_src/data/scripts/dock_solv.prm

>  <Rbt.Receptor>
prm/pocket_docking_3.prm

>  <SCORE>
-35.6939

>  <SCORE.INTER>
-17.7255

>  <SCORE.INTER.CONST>
1

>  <SCORE.INTER.POLAR>
-1.66609

>  <SCORE.INTER.ROT>
8

>  <SCORE.INTER.SOLV>
35.4344

>  <SCORE.INTER.VDW>
-27.0082

>  <SCORE.INTER.norm>
-0.553923

>  <SCORE.INTRA>
-18.3167

>  <SCORE.INTRA.DIHEDRAL>
-36.3134

>  <SCORE.INTRA.DIHEDRAL.0>
76.3625

>  <SCORE.INTRA.POLAR>
0

>  <SCORE.INTRA.POLAR.0>
0

>  <SCORE.INTRA.REPUL>
-0.12705

>  <SCORE.INTRA.REPUL.0>
0.12705

>  <SCORE.INTRA.SOLV>
-2.31254

>  <SCORE.INTRA.SOLV.lig_0>
-119.383

>  <SCORE.INTRA.VDW>
1.63152

>  <SCORE.INTRA.VDW.0>
-5.10464

>  <SCORE.INTRA.norm>
-0.572397

>  <SCORE.RESTR>
0.348317

>  <SCORE.RESTR.CAVITY>
0.348317

>  <SCORE.RESTR.norm>
0.0108849

>  <SCORE.SYSTEM>
0

>  <SCORE.SYSTEM.CONST>
0

>  <SCORE.SYSTEM.DIHEDRAL>
0

>  <SCORE.SYSTEM.SOLV>
0

>  <SCORE.SYSTEM.norm>
0

>  <SCORE.heavy>
32

>  <SCORE.norm>
-1.11544

>  <RMSD>
6.876

$$$$
2au4_lig
 OpenBabel11021811423D
libRbt.so/2013.1/901 2013/11/27
 32 34  0  0  0  0  0  0  0  0999 V2000
   68.4208    7.2800    0.7318 P   0  0  1  0  0  0  0  0  0  0  0  0
   67.7474    7.8819   -1.8282 P   0  0  1  0  0  0  0  0  0  0  0  0
   67.3516    5.6469   -3.3411 P   0  0  2  0  0  0  0  0  0  0  0  0
   67.0445    8.9389    2.2760 C   0  0  0  0  0  0  0  0  0  0  0  0
   67.2334    8.3361    0.9850 O   0  0  0  0  0  0  0  0  0  0  0  0
   66.2618   10.2416    2.2010 C   0  0  0  0  0  0  0  0  0  0  0  0
   67.1441   11.3729    2.3496 O   0  0  0  0  0  0  0  0  0  0  0  0
   65.5493   10.3655    0.8633 C   0  0  0  0  0  0  0  0  0  0  0  0
   64.1275   10.3796    1.0398 O   0  0  0  0  0  0  0  0  0  0  0  0
   66.0315   11.6527    0.2381 C   0  0  0  0  0  0  0  0  0  0  0  0
   64.9396   12.5456   -0.0198 O   0  0  0  0  0  0  0  0  0  0  0  0
   67.0097   12.2670    1.2244 C   0  0  0  0  0  0  0  0  0  0  0  0
   72.0678   12.5251    1.8690 N   0  0  0  0  0  0  0  0  0  0  0  0
   69.7050    8.0091    0.7206 O   0  5  0  0  0  0  0  0  0  0  0  0
   66.3092    8.1840   -1.6932 O   0  5  0  0  0  0  0  0  0  0  0  0
   68.0392    4.7668   -2.3748 O   0  5  0  0  0  0  0  0  0  0  0  0
   71.0839   12.2525    2.7895 C   0  0  1  0  0  0  0  0  0  0  0  0
   71.4880   12.0249    4.0320 N   0  0  0  0  0  0  0  0  0  0  0  0
   68.2302    6.1287    1.6397 O   0  0  0  0  0  0  0  0  0  0  0  0
   68.7441    8.9701   -1.7499 O   0  0  0  0  0  0  0  0  0  0  0  0
   67.3373    5.2993   -4.7774 O   0  0  0  0  0  0  0  0  0  0  0  0
   69.7864   12.2121    2.4970 N   0  0  0  0  0  0  0  0  0  0  0  0
   68.1284    6.7846   -0.7478 O   0  0  0  0  0  0  0  0  0  0  0  0
   67.9680    7.1086   -3.1988 O   0  0  0  0  0  0  0  0  0  0  0  0
   65.8357    5.8535   -2.8513 O   0  0  0  0  0  0  0  0  0  0  0  0
   69.5502   12.4713    1.1903 C   0  0  2  0  0  0  0  0  0  0  0  0
   70.4775   12.7539    0.2003 C   0  0  2  0  0  0  0  0  0  0  0  0
   71.8547   12.7933    0.5288 C   0  0  1  0  0  0  0  0  0  0  0  0
   72.8027   13.0476   -0.2020 O   0  0  0  0  0  0  0  0  0  0  0  0
   69.8444   12.9672   -1.0289 N   0  0  0  0  0  0  0  0  0  0  0  0
   68.6022   12.8041   -0.7092 C   0  0  0  0  0  0  0  0  0  0  0  0
   68.3172   12.5068    0.5831 N   0  0  0  0  0  0  0  0  0  0  0  0
  1  5  1  1  0  0  0
  1 14  1  0  0  0  0
  1 19  2  0  0  0  0
  2 15  1  1  0  0  0
  2 20  2  0  0  0  0
  2 23  1  0  0  0  0
  3 16  1  1  0  0  0
  3 21  2  0  0  0  0
  3 24  1  0  0  0  0
  3 25  1  0  0  0  0
  4  6  1  0  0  0  0
  5  4  1  0  0  0  0
  6  7  1  0  0  0  0
  6  8  2  0  0  0  0
  7 12  1  0  0  0  0
  8  9  1  0  0  0  0
  8 10  1  0  0  0  0
 10 11  1  0  0  0  0
 10 12  2  0  0  0  0
 12 32  1  0  0  0  0
 13 17  1  0  0  0  0
 17 18  1  1  0  0  0
 17 22  1  0  0  0  0
 23  1  1  0  0  0  0
 24  2  1  0  0  0  0
 26 22  1  1  0  0  0
 27 26  1  0  0  0  0
 27 28  1  0  0  0  0
 27 30  1  1  0  0  0
 28 13  1  0  0  0  0
 28 29  1  1  0  0  0
 31 30  1  0  0  0  0
 32 26  1  0  0  0  0
 32 31  1  0  0  0  0
M  CHG  3  14  -1  15  -1  16  -1
M  END
>  <CHROM.1>
-72.11457861,-82.16137497,-65.02401668,-103.81864672,158.42624766,-28.56964886
43.87512462,-66.91713287,68.21535397,9.47163886,-0.12131314,-1.92343711,0.14455374
0.60275626

>  <Name>
2au4_lig

>  <RI>
0

>  <Rbt.Current_Directory>
/home/itssahil/PROJECTS/Mol_Feturizer/New_Systems/rnas/2au4

>  <Rbt.Executable>
rbdock ($Id: //depot/dev/client3/rdock/2013.1/src/exe/rbdock.cxx#4 $)

>  <Rbt.Library>
libRbt.so (2013.1, Build901 2013/11/27)

>  <Rbt.Parameter_File>
/export/apps/rDock/src/rDock_2013.1_src/data/scripts/dock_solv.prm

>  <Rbt.Receptor>
prm/pocket_docking_3.prm

>  <SCORE>
-34.1215

>  <SCORE.INTER>
-9.36296

>  <SCORE.INTER.CONST>
1

>  <SCORE.INTER.POLAR>
-0.744216

>  <SCORE.INTER.ROT>
8

>  <SCORE.INTER.SOLV>
26.4565

>  <SCORE.INTER.VDW>
-21.5134

>  <SCORE.INTER.norm>
-0.292593

>  <SCORE.INTRA>
-24.7788

>  <SCORE.INTRA.DIHEDRAL>
-47.9361

>  <SCORE.INTRA.DIHEDRAL.0>
76.3625

>  <SCORE.INTRA.POLAR>
0

>  <SCORE.INTRA.POLAR.0>
0

>  <SCORE.INTRA.REPUL>
0.0675305

>  <SCORE.INTRA.REPUL.0>
0.12705

>  <SCORE.INTRA.SOLV>
-4.37325

>  <SCORE.INTRA.SOLV.lig_0>
-119.383

>  <SCORE.INTRA.VDW>
1.03818

>  <SCORE.INTRA.VDW.0>
-5.10464

>  <SCORE.INTRA.norm>
-0.774338

>  <SCORE.RESTR>
0.0202689

>  <SCORE.RESTR.CAVITY>
0.0202689

>  <SCORE.RESTR.norm>
0.000633404

>  <SCORE.SYSTEM>
0

>  <SCORE.SYSTEM.CONST>
0

>  <SCORE.SYSTEM.DIHEDRAL>
0

>  <SCORE.SYSTEM.SOLV>
0

>  <SCORE.SYSTEM.norm>
0

>  <SCORE.heavy>
32

>  <SCORE.norm>
-1.0663

>  <RMSD>
6.892

$$$$
2au4_lig
 OpenBabel11021811423D
libRbt.so/2013.1/901 2013/11/27
 32 34  0  0  0  0  0  0  0  0999 V2000
   71.6258   11.0302    4.9293 P   0  0  1  0  0  0  0  0  0  0  0  0
   73.4833   11.4664    2.9982 P   0  0  1  0  0  0  0  0  0  0  0  0
   72.7097   13.3589    1.1925 P   0  0  2  0  0  0  0  0  0  0  0  0
   69.6151    9.8705    3.6477 C   0  0  0  0  0  0  0  0  0  0  0  0
   70.4226    9.9660    4.8328 O   0  0  0  0  0  0  0  0  0  0  0  0
   68.5363    8.8035    3.7631 C   0  0  0  0  0  0  0  0  0  0  0  0
   67.2245    9.3967    3.6758 O   0  0  0  0  0  0  0  0  0  0  0  0
   68.6710    7.7786    2.6478 C   0  0  0  0  0  0  0  0  0  0  0  0
   68.9736    6.4822    3.1775 O   0  0  0  0  0  0  0  0  0  0  0  0
   67.3526    7.7701    1.9116 C   0  0  0  0  0  0  0  0  0  0  0  0
   66.7554    6.4666    1.9312 O   0  0  0  0  0  0  0  0  0  0  0  0
   66.4638    8.7817    2.6144 C   0  0  0  0  0  0  0  0  0  0  0  0
   64.7865    9.6968   -2.1201 N   0  0  0  0  0  0  0  0  0  0  0  0
   71.1544   12.3237    4.3949 O   0  5  0  0  0  0  0  0  0  0  0  0
   74.0834   12.4918    3.8737 O   0  5  0  0  0  0  0  0  0  0  0  0
   73.2050   14.4675    2.0331 O   0  5  0  0  0  0  0  0  0  0  0  0
   65.1889    8.5120   -1.5509 C   0  0  1  0  0  0  0  0  0  0  0  0
   65.1461    7.4405   -2.3314 N   0  0  0  0  0  0  0  0  0  0  0  0
   72.2124   10.9579    6.2846 O   0  0  0  0  0  0  0  0  0  0  0  0
   74.3344   10.6946    2.0690 O   0  0  0  0  0  0  0  0  0  0  0  0
   71.5793   13.5809    0.2668 O   0  0  0  0  0  0  0  0  0  0  0  0
   65.6089    8.3991   -0.2933 N   0  0  0  0  0  0  0  0  0  0  0  0
   72.6882   10.4390    3.9086 O   0  0  0  0  0  0  0  0  0  0  0  0
   72.3233   12.1488    2.1533 O   0  0  0  0  0  0  0  0  0  0  0  0
   73.9452   12.7646    0.3552 O   0  0  0  0  0  0  0  0  0  0  0  0
   65.5942    9.5853    0.3573 C   0  0  2  0  0  0  0  0  0  0  0  0
   65.2056   10.8197   -0.1377 C   0  0  2  0  0  0  0  0  0  0  0  0
   64.7615   10.9223   -1.4788 C   0  0  1  0  0  0  0  0  0  0  0  0
   64.4069   11.9233   -2.0869 O   0  0  0  0  0  0  0  0  0  0  0  0
   65.3332   11.8113    0.8408 N   0  0  0  0  0  0  0  0  0  0  0  0
   65.7816   11.1272    1.8422 C   0  0  0  0  0  0  0  0  0  0  0  0
   65.9726    9.7965    1.6620 N   0  0  0  0  0  0  0  0  0  0  0  0
  1  5  1  6  0  0  0
  1 14  1  0  0  0  0
  1 19  2  0  0  0  0
  2 15  1  1  0  0  0
  2 20  2  0  0  0  0
  2 23  1  0  0  0  0
  3 16  1  1  0  0  0
  3 21  2  0  0  0  0
  3 24  1  0  0  0  0
  3 25  1  0  0  0  0
  4  6  1  0  0  0  0
  5  4  1  0  0  0  0
  6  7  1  0  0  0  0
  6  8  2  0  0  0  0
  7 12  1  0  0  0  0
  8  9  1  0  0  0  0
  8 10  1  0  0  0  0
 10 11  1  0  0  0  0
 10 12  2  0  0  0  0
 12 32  1  0  0  0  0
 13 17  1  0  0  0  0
 17 18  1  6  0  0  0
 17 22  1  0  0  0  0
 23  1  1  0  0  0  0
 24  2  1  0  0  0  0
 26 22  1  6  0  0  0
 27 26  1  0  0  0  0
 27 28  1  0  0  0  0
 27 30  1  6  0  0  0
 28 13  1  0  0  0  0
 28 29  1  6  0  0  0
 31 30  1  0  0  0  0
 32 26  1  0  0  0  0
 32 31  1  0  0  0  0
M  CHG  3  14  -1  15  -1  16  -1
M  END
>  <CHROM.1>
44.17824980,52.42947615,-63.86102203,117.47777449,179.96831072,158.17488499
140.60478169,60.22808798,69.43279328,10.57550322,1.96605360,0.07956929,0.50939000
2.28909492

>  <Name>
2au4_lig

>  <RI>
0

>  <Rbt.Current_Directory>
/home/itssahil/PROJECTS/Mol_Feturizer/New_Systems/rnas/2au4

>  <Rbt.Executable>
rbdock ($Id: //depot/dev/client3/rdock/2013.1/src/exe/rbdock.cxx#4 $)

>  <Rbt.Library>
libRbt.so (2013.1, Build901 2013/11/27)

>  <Rbt.Parameter_File>
/export/apps/rDock/src/rDock_2013.1_src/data/scripts/dock_solv.prm

>  <Rbt.Receptor>
prm/pocket_docking_8.prm

>  <SCORE>
-47.5139

>  <SCORE.INTER>
-21.8625

>  <SCORE.INTER.CONST>
1

>  <SCORE.INTER.POLAR>
-3.51571

>  <SCORE.INTER.ROT>
8

>  <SCORE.INTER.SOLV>
30.9937

>  <SCORE.INTER.VDW>
-22.1205

>  <SCORE.INTER.norm>
-0.683203

>  <SCORE.INTRA>
-25.7737

>  <SCORE.INTRA.DIHEDRAL>
-48.4024

>  <SCORE.INTRA.DIHEDRAL.0>
76.3625

>  <SCORE.INTRA.POLAR>
0

>  <SCORE.INTRA.POLAR.0>
0

>  <SCORE.INTRA.REPUL>
-0.12705

>  <SCORE.INTRA.REPUL.0>
0.12705

>  <SCORE.INTRA.SOLV>
-5.39336

>  <SCORE.INTRA.SOLV.lig_0>
-119.383

>  <SCORE.INTRA.VDW>
1.75944

>  <SCORE.INTRA.VDW.0>
-5.10464

>  <SCORE.INTRA.norm>
-0.805427

>  <SCORE.RESTR>
0.122224

>  <SCORE.RESTR.CAVITY>
0.122224

>  <SCORE.RESTR.norm>
0.00381949

>  <SCORE.SYSTEM>
0

>  <SCORE.SYSTEM.CONST>
0

>  <SCORE.SYSTEM.DIHEDRAL>
0

>  <SCORE.SYSTEM.SOLV>
0

>  <SCORE.SYSTEM.norm>
0

>  <SCORE.heavy>
32

>  <SCORE.norm>
-1.48481

>  <RMSD>
6.892

$$$$
2au4_lig
 OpenBabel11021811423D
libRbt.so/2013.1/901 2013/11/27
 32 34  0  0  0  0  0  0  0  0999 V2000
   68.5654    6.4017    2.0527 P   0  0  1  0  0  0  0  0  0  0  0  0
   69.2319    5.9311   -0.5364 P   0  0  1  0  0  0  0  0  0  0  0  0
   68.2990    8.0204   -2.0213 P   0  0  2  0  0  0  0  0  0  0  0  0
   68.8496    8.4905    3.6611 C   0  0  0  0  0  0  0  0  0  0  0  0
   69.2686    7.7841    2.4816 O   0  0  0  0  0  0  0  0  0  0  0  0
   67.7910    9.5425    3.3641 C   0  0  0  0  0  0  0  0  0  0  0  0
   68.2976   10.8643    3.6402 O   0  0  0  0  0  0  0  0  0  0  0  0
   67.3728    9.4880    1.9030 C   0  0  0  0  0  0  0  0  0  0  0  0
   65.9921    9.1261    1.7787 O   0  0  0  0  0  0  0  0  0  0  0  0
   67.6272   10.8629    1.3326 C   0  0  0  0  0  0  0  0  0  0  0  0
   66.4223   11.4400    0.8116 O   0  0  0  0  0  0  0  0  0  0  0  0
   68.1795   11.7028    2.4714 C   0  0  0  0  0  0  0  0  0  0  0  0
   71.1760   13.3594   -1.3158 N   0  0  0  0  0  0  0  0  0  0  0  0
   68.5402    5.5030    3.2243 O   0  5  0  0  0  0  0  0  0  0  0  0
   70.4001    5.4934   -1.3250 O   0  5  0  0  0  0  0  0  0  0  0  0
   66.8483    7.8790   -1.7828 O   0  5  0  0  0  0  0  0  0  0  0  0
   69.9057   12.8374   -1.3733 C   0  0  1  0  0  0  0  0  0  0  0  0
   69.3650   12.7379   -2.5803 N   0  0  0  0  0  0  0  0  0  0  0  0
   67.3133    6.7132    1.3305 O   0  0  0  0  0  0  0  0  0  0  0  0
   67.9137    5.2987   -0.7507 O   0  0  0  0  0  0  0  0  0  0  0  0
   68.9202    7.3808   -3.1999 O   0  0  0  0  0  0  0  0  0  0  0  0
   69.2198   12.4376   -0.3053 N   0  0  0  0  0  0  0  0  0  0  0  0
   69.5956    5.8052    1.0025 O   0  0  0  0  0  0  0  0  0  0  0  0
   69.0628    7.4999   -0.7243 O   0  0  0  0  0  0  0  0  0  0  0  0
   68.6609    9.5854   -2.0405 O   0  0  0  0  0  0  0  0  0  0  0  0
   69.9190   12.6043    0.8410 C   0  0  2  0  0  0  0  0  0  0  0  0
   71.1965   13.1201    0.9882 C   0  0  2  0  0  0  0  0  0  0  0  0
   71.9128   13.5406   -0.1591 C   0  0  1  0  0  0  0  0  0  0  0  0
   73.0481   13.9931   -0.2221 O   0  0  0  0  0  0  0  0  0  0  0  0
   71.5772   13.1310    2.3343 N   0  0  0  0  0  0  0  0  0  0  0  0
   70.5282   12.6313    2.9015 C   0  0  0  0  0  0  0  0  0  0  0  0
   69.4858   12.2843    2.1059 N   0  0  0  0  0  0  0  0  0  0  0  0
  1  5  1  1  0  0  0
  1 14  1  0  0  0  0
  1 19  2  0  0  0  0
  2 15  1  6  0  0  0
  2 20  2  0  0  0  0
  2 23  1  0  0  0  0
  3 16  1  1  0  0  0
  3 21  2  0  0  0  0
  3 24  1  0  0  0  0
  3 25  1  0  0  0  0
  4  6  1  0  0  0  0
  5  4  1  0  0  0  0
  6  7  1  0  0  0  0
  6  8  2  0  0  0  0
  7 12  1  0  0  0  0
  8  9  1  0  0  0  0
  8 10  1  0  0  0  0
 10 11  1  0  0  0  0
 10 12  2  0  0  0  0
 12 32  1  0  0  0  0
 13 17  1  0  0  0  0
 17 18  1  6  0  0  0
 17 22  1  0  0  0  0
 23  1  1  0  0  0  0
 24  2  1  0  0  0  0
 26 22  1  6  0  0  0
 27 26  1  0  0  0  0
 27 28  1  0  0  0  0
 27 30  1  6  0  0  0
 28 13  1  0  0  0  0
 28 29  1  6  0  0  0
 31 30  1  0  0  0  0
 32 26  1  0  0  0  0
 32 31  1  0  0  0  0
M  CHG  3  14  -1  15  -1  16  -1
M  END
>  <CHROM.1>
-50.19445491,172.01270948,79.43775570,-115.37416891,-92.99816156,148.91887358
-102.73125475,82.72632769,69.02196335,9.37671764,0.50503440,2.56363899,-1.21492865
-2.13636787

>  <Name>
2au4_lig

>  <RI>
0

>  <Rbt.Current_Directory>
/home/itssahil/PROJECTS/Mol_Feturizer/New_Systems/rnas/2au4

>  <Rbt.Executable>
rbdock ($Id: //depot/dev/client3/rdock/2013.1/src/exe/rbdock.cxx#4 $)

>  <Rbt.Library>
libRbt.so (2013.1, Build901 2013/11/27)

>  <Rbt.Parameter_File>
/export/apps/rDock/src/rDock_2013.1_src/data/scripts/dock_solv.prm

>  <Rbt.Receptor>
prm/pocket_docking_3.prm

>  <SCORE>
-35.5373

>  <SCORE.INTER>
-13.4113

>  <SCORE.INTER.CONST>
1

>  <SCORE.INTER.POLAR>
-0.962993

>  <SCORE.INTER.ROT>
8

>  <SCORE.INTER.SOLV>
34.279

>  <SCORE.INTER.VDW>
-26.0905

>  <SCORE.INTER.norm>
-0.419102

>  <SCORE.INTRA>
-22.126

>  <SCORE.INTRA.DIHEDRAL>
-44.1758

>  <SCORE.INTRA.DIHEDRAL.0>
76.3625

>  <SCORE.INTRA.POLAR>
0

>  <SCORE.INTRA.POLAR.0>
0

>  <SCORE.INTRA.REPUL>
-0.12705

>  <SCORE.INTRA.REPUL.0>
0.12705

>  <SCORE.INTRA.SOLV>
0.153235

>  <SCORE.INTRA.SOLV.lig_0>
-119.383

>  <SCORE.INTRA.VDW>
0.520513

>  <SCORE.INTRA.VDW.0>
-5.10464

>  <SCORE.INTRA.norm>
-0.691437

>  <SCORE.RESTR>
0

>  <SCORE.RESTR.CAVITY>
0

>  <SCORE.RESTR.norm>
0

>  <SCORE.SYSTEM>
0

>  <SCORE.SYSTEM.CONST>
0

>  <SCORE.SYSTEM.DIHEDRAL>
0

>  <SCORE.SYSTEM.SOLV>
0

>  <SCORE.SYSTEM.norm>
0

>  <SCORE.heavy>
32

>  <SCORE.norm>
-1.11054

>  <RMSD>
6.905

$$$$
2au4_lig
 OpenBabel11021811423D
libRbt.so/2013.1/901 2013/11/27
 32 34  0  0  0  0  0  0  0  0999 V2000
   67.7263   10.8534   -1.2732 P   0  0  1  0  0  0  0  0  0  0  0  0
   66.5948    8.3857   -1.2790 P   0  0  1  0  0  0  0  0  0  0  0  0
   67.4667    6.4645   -3.0080 P   0  0  2  0  0  0  0  0  0  0  0  0
   69.6656   12.5757   -0.7226 C   0  0  0  0  0  0  0  0  0  0  0  0
   68.7069   11.6151   -0.2496 O   0  0  0  0  0  0  0  0  0  0  0  0
   70.3305   13.3414    0.4119 C   0  0  0  0  0  0  0  0  0  0  0  0
   69.7397   12.9859    1.6787 O   0  0  0  0  0  0  0  0  0  0  0  0
   71.8171   13.0277    0.4746 C   0  0  0  0  0  0  0  0  0  0  0  0
   72.5992   14.1989    0.2111 O   0  0  0  0  0  0  0  0  0  0  0  0
   72.0852   12.4968    1.8626 C   0  0  0  0  0  0  0  0  0  0  0  0
   73.0557   13.3002    2.5474 O   0  0  0  0  0  0  0  0  0  0  0  0
   70.7538   12.5187    2.5933 C   0  0  0  0  0  0  0  0  0  0  0  0
   67.0306    9.2045    3.6979 N   0  0  0  0  0  0  0  0  0  0  0  0
   66.4713   11.6237   -1.3843 O   0  5  0  0  0  0  0  0  0  0  0  0
   66.3694    7.2532   -0.3600 O   0  5  0  0  0  0  0  0  0  0  0  0
   67.8852    5.4894   -1.9807 O   0  5  0  0  0  0  0  0  0  0  0  0
   66.9422   10.4768    3.1850 C   0  0  1  0  0  0  0  0  0  0  0  0
   65.7194   10.9276    2.9388 N   0  0  0  0  0  0  0  0  0  0  0  0
   68.4918   10.5044   -2.4890 O   0  0  0  0  0  0  0  0  0  0  0  0
   65.4502    9.0317   -1.9543 O   0  0  0  0  0  0  0  0  0  0  0  0
   68.1099    6.4585   -4.3385 O   0  0  0  0  0  0  0  0  0  0  0  0
   67.9959   11.2505    2.9367 N   0  0  0  0  0  0  0  0  0  0  0  0
   67.4040    9.5053   -0.4992 O   0  0  0  0  0  0  0  0  0  0  0  0
   67.6293    7.9250   -2.3939 O   0  0  0  0  0  0  0  0  0  0  0  0
   65.8778    6.3406   -3.2092 O   0  0  0  0  0  0  0  0  0  0  0  0
   69.1619   10.6391    3.2488 C   0  0  2  0  0  0  0  0  0  0  0  0
   69.3404    9.3664    3.7667 C   0  0  2  0  0  0  0  0  0  0  0  0
   68.2079    8.5561    4.0255 C   0  0  1  0  0  0  0  0  0  0  0  0
   68.1733    7.4285    4.4996 O   0  0  0  0  0  0  0  0  0  0  0  0
   70.6990    9.0923    3.9571 N   0  0  0  0  0  0  0  0  0  0  0  0
   71.2421   10.1934    3.5515 C   0  0  0  0  0  0  0  0  0  0  0  0
   70.4193   11.1774    3.1104 N   0  0  0  0  0  0  0  0  0  0  0  0
  1  5  1  1  0  0  0
  1 14  1  0  0  0  0
  1 19  2  0  0  0  0
  2 15  1  1  0  0  0
  2 20  2  0  0  0  0
  2 23  1  0  0  0  0
  3 16  1  1  0  0  0
  3 21  2  0  0  0  0
  3 24  1  0  0  0  0
  3 25  1  0  0  0  0
  4  6  1  0  0  0  0
  5  4  1  0  0  0  0
  6  7  1  0  0  0  0
  6  8  2  0  0  0  0
  7 12  1  0  0  0  0
  8  9  1  0  0  0  0
  8 10  1  0  0  0  0
 10 11  1  0  0  0  0
 10 12  2  0  0  0  0
 12 32  1  0  0  0  0
 13 17  1  0  0  0  0
 17 18  1  1  0  0  0
 17 22  1  0  0  0  0
 23  1  1  0  0  0  0
 24  2  1  0  0  0  0
 26 22  1  1  0  0  0
 27 26  1  0  0  0  0
 27 28  1  0  0  0  0
 27 30  1  1  0  0  0
 28 13  1  0  0  0  0
 28 29  1  1  0  0  0
 31 30  1  0  0  0  0
 32 26  1  0  0  0  0
 32 31  1  0  0  0  0
M  CHG  3  14  -1  15  -1  16  -1
M  END
>  <CHROM.1>
-92.09246560,-177.99448690,-72.17897029,-5.01304229,170.64346322,-27.19558506
-172.38128322,41.60753183,68.51898715,9.90623950,0.37111704,-2.53982643,0.94108107
1.67870063

>  <Name>
2au4_lig

>  <RI>
0

>  <Rbt.Current_Directory>
/home/itssahil/PROJECTS/Mol_Feturizer/New_Systems/rnas/2au4

>  <Rbt.Executable>
rbdock ($Id: //depot/dev/client3/rdock/2013.1/src/exe/rbdock.cxx#4 $)

>  <Rbt.Library>
libRbt.so (2013.1, Build901 2013/11/27)

>  <Rbt.Parameter_File>
/export/apps/rDock/src/rDock_2013.1_src/data/scripts/dock_solv.prm

>  <Rbt.Receptor>
prm/pocket_docking_4.prm

>  <SCORE>
-40.9677

>  <SCORE.INTER>
-15.0364

>  <SCORE.INTER.CONST>
1

>  <SCORE.INTER.POLAR>
-1.77127

>  <SCORE.INTER.ROT>
8

>  <SCORE.INTER.SOLV>
23.4789

>  <SCORE.INTER.VDW>
-20.8797

>  <SCORE.INTER.norm>
-0.469888

>  <SCORE.INTRA>
-25.9313

>  <SCORE.INTRA.DIHEDRAL>
-48.4642

>  <SCORE.INTRA.DIHEDRAL.0>
76.3625

>  <SCORE.INTRA.POLAR>
0

>  <SCORE.INTRA.POLAR.0>
0

>  <SCORE.INTRA.REPUL>
0.0700013

>  <SCORE.INTRA.REPUL.0>
0.12705

>  <SCORE.INTRA.SOLV>
-5.47674

>  <SCORE.INTRA.SOLV.lig_0>
-119.383

>  <SCORE.INTRA.VDW>
0.689174

>  <SCORE.INTRA.VDW.0>
-5.10464

>  <SCORE.INTRA.norm>
-0.810353

>  <SCORE.RESTR>
0

>  <SCORE.RESTR.CAVITY>
0

>  <SCORE.RESTR.norm>
0

>  <SCORE.SYSTEM>
0

>  <SCORE.SYSTEM.CONST>
0

>  <SCORE.SYSTEM.DIHEDRAL>
0

>  <SCORE.SYSTEM.SOLV>
0

>  <SCORE.SYSTEM.norm>
0

>  <SCORE.heavy>
32

>  <SCORE.norm>
-1.28024

>  <RMSD>
6.906

$$$$
2au4_lig
 OpenBabel11021811423D
libRbt.so/2013.1/901 2013/11/27
 32 34  0  0  0  0  0  0  0  0999 V2000
   68.1397   11.6663   -1.5050 P   0  0  1  0  0  0  0  0  0  0  0  0
   67.9417    8.9762   -1.1988 P   0  0  1  0  0  0  0  0  0  0  0  0
   68.1697    6.4121   -0.2965 P   0  0  2  0  0  0  0  0  0  0  0  0
   70.3964   12.7508   -0.6322 C   0  0  0  0  0  0  0  0  0  0  0  0
   68.9625   12.8023   -0.7163 O   0  0  0  0  0  0  0  0  0  0  0  0
   70.9356   13.5005    0.5772 C   0  0  0  0  0  0  0  0  0  0  0  0
   70.2218   13.1184    1.7708 O   0  0  0  0  0  0  0  0  0  0  0  0
   72.4108   13.1955    0.7860 C   0  0  0  0  0  0  0  0  0  0  0  0
   73.2057   14.3765    0.6239 O   0  0  0  0  0  0  0  0  0  0  0  0
   72.5404   12.6417    2.1848 C   0  0  0  0  0  0  0  0  0  0  0  0
   73.4292   13.4391    2.9787 O   0  0  0  0  0  0  0  0  0  0  0  0
   71.1413   12.6417    2.7761 C   0  0  0  0  0  0  0  0  0  0  0  0
   67.3296    9.3515    3.6198 N   0  0  0  0  0  0  0  0  0  0  0  0
   66.7015   11.9945   -1.4378 O   0  5  0  0  0  0  0  0  0  0  0  0
   66.4750    8.9891   -1.3620 O   0  5  0  0  0  0  0  0  0  0  0  0
   69.1863    6.0394   -1.3009 O   0  5  0  0  0  0  0  0  0  0  0  0
   67.2800   10.6416    3.1479 C   0  0  1  0  0  0  0  0  0  0  0  0
   66.0746   11.1199    2.8699 N   0  0  0  0  0  0  0  0  0  0  0  0
   68.7873   11.4375   -2.8143 O   0  0  0  0  0  0  0  0  0  0  0  0
   68.8130    8.6625   -2.3502 O   0  0  0  0  0  0  0  0  0  0  0  0
   66.7430    6.1165   -0.5436 O   0  0  0  0  0  0  0  0  0  0  0  0
   68.3539   11.4065    2.9677 N   0  0  0  0  0  0  0  0  0  0  0  0
   68.3886   10.3795   -0.6092 O   0  0  0  0  0  0  0  0  0  0  0  0
   68.3034    7.9748   -0.0191 O   0  0  0  0  0  0  0  0  0  0  0  0
   68.5875    5.7659    1.1137 O   0  0  0  0  0  0  0  0  0  0  0  0
   69.4975   10.7665    3.3038 C   0  0  2  0  0  0  0  0  0  0  0  0
   69.6370    9.4743    3.7842 C   0  0  2  0  0  0  0  0  0  0  0  0
   68.4834    8.6738    3.9706 C   0  0  1  0  0  0  0  0  0  0  0  0
   68.4137    7.5315    4.4039 O   0  0  0  0  0  0  0  0  0  0  0  0
   70.9828    9.1724    4.0180 N   0  0  0  0  0  0  0  0  0  0  0  0
   71.5574   10.2779    3.6720 C   0  0  0  0  0  0  0  0  0  0  0  0
   70.7672   11.2891    3.2332 N   0  0  0  0  0  0  0  0  0  0  0  0
  1  5  1  1  0  0  0
  1 14  1  0  0  0  0
  1 19  2  0  0  0  0
  2 15  1  6  0  0  0
  2 20  2  0  0  0  0
  2 23  1  0  0  0  0
  3 16  1  6  0  0  0
  3 21  2  0  0  0  0
  3 24  1  0  0  0  0
  3 25  1  0  0  0  0
  4  6  1  0  0  0  0
  5  4  1  0  0  0  0
  6  7  1  0  0  0  0
  6  8  2  0  0  0  0
  7 12  1  0  0  0  0
  8  9  1  0  0  0  0
  8 10  1  0  0  0  0
 10 11  1  0  0  0  0
 10 12  2  0  0  0  0
 12 32  1  0  0  0  0
 13 17  1  0  0  0  0
 17 18  1  1  0  0  0
 17 22  1  0  0  0  0
 23  1  1  0  0  0  0
 24  2  1  0  0  0  0
 26 22  1  1  0  0  0
 27 26  1  0  0  0  0
 27 28  1  0  0  0  0
 27 30  1  1  0  0  0
 28 13  1  0  0  0  0
 28 29  1  1  0  0  0
 31 30  1  0  0  0  0
 32 26  1  0  0  0  0
 32 31  1  0  0  0  0
M  CHG  3  14  -1  15  -1  16  -1
M  END
>  <CHROM.1>
-179.16873970,-63.88515884,66.56228766,48.74229308,-155.61685800,-31.14383113
-169.46196467,73.24718510,69.13788055,10.19444262,0.85504140,3.01269328,0.99697468
2.13932152

>  <Name>
2au4_lig

>  <RI>
0

>  <Rbt.Current_Directory>
/home/itssahil/PROJECTS/Mol_Feturizer/New_Systems/rnas/2au4

>  <Rbt.Executable>
rbdock ($Id: //depot/dev/client3/rdock/2013.1/src/exe/rbdock.cxx#4 $)

>  <Rbt.Library>
libRbt.so (2013.1, Build901 2013/11/27)

>  <Rbt.Parameter_File>
/export/apps/rDock/src/rDock_2013.1_src/data/scripts/dock_solv.prm

>  <Rbt.Receptor>
prm/pocket_docking_5.prm

>  <SCORE>
-42.0316

>  <SCORE.INTER>
-15.9225

>  <SCORE.INTER.CONST>
1

>  <SCORE.INTER.POLAR>
-1.93077

>  <SCORE.INTER.ROT>
8

>  <SCORE.INTER.SOLV>
23.2148

>  <SCORE.INTER.VDW>
-20.8507

>  <SCORE.INTER.norm>
-0.497578

>  <SCORE.INTRA>
-26.1091

>  <SCORE.INTRA.DIHEDRAL>
-47.9962

>  <SCORE.INTRA.DIHEDRAL.0>
76.3625

>  <SCORE.INTRA.POLAR>
0

>  <SCORE.INTRA.POLAR.0>
0

>  <SCORE.INTRA.REPUL>
0.0602211

>  <SCORE.INTRA.REPUL.0>
0.12705

>  <SCORE.INTRA.SOLV>
-4.4009

>  <SCORE.INTRA.SOLV.lig_0>
-119.383

>  <SCORE.INTRA.VDW>
-0.211679

>  <SCORE.INTRA.VDW.0>
-5.10464

>  <SCORE.INTRA.norm>
-0.81591

>  <SCORE.RESTR>
0

>  <SCORE.RESTR.CAVITY>
0

>  <SCORE.RESTR.norm>
0

>  <SCORE.SYSTEM>
0

>  <SCORE.SYSTEM.CONST>
0

>  <SCORE.SYSTEM.DIHEDRAL>
0

>  <SCORE.SYSTEM.SOLV>
0

>  <SCORE.SYSTEM.norm>
0

>  <SCORE.heavy>
32

>  <SCORE.norm>
-1.31349

>  <RMSD>
6.909

$$$$
2au4_lig
 OpenBabel11021811423D
libRbt.so/2013.1/901 2013/11/27
 32 34  0  0  0  0  0  0  0  0999 V2000
   70.4545   10.6315    3.2611 P   0  0  1  0  0  0  0  0  0  0  0  0
   72.8307   10.8420    1.9655 P   0  0  1  0  0  0  0  0  0  0  0  0
   73.2894   13.0947    0.4974 P   0  0  2  0  0  0  0  0  0  0  0  0
   68.3493    9.5839    2.0358 C   0  0  0  0  0  0  0  0  0  0  0  0
   69.2329    9.5880    3.1693 O   0  0  0  0  0  0  0  0  0  0  0  0
   67.2050    8.5934    2.1936 C   0  0  0  0  0  0  0  0  0  0  0  0
   65.9395    9.2344    1.9333 O   0  0  0  0  0  0  0  0  0  0  0  0
   67.3598    7.4328    1.2232 C   0  0  0  0  0  0  0  0  0  0  0  0
   67.5480    6.1988    1.9266 O   0  0  0  0  0  0  0  0  0  0  0  0
   66.0993    7.3973    0.3924 C   0  0  0  0  0  0  0  0  0  0  0  0
   65.4277    6.1370    0.5214 O   0  0  0  0  0  0  0  0  0  0  0  0
   65.2225    8.5304    0.8971 C   0  0  0  0  0  0  0  0  0  0  0  0
   64.0765   13.3214   -0.4441 N   0  0  0  0  0  0  0  0  0  0  0  0
   70.0115   11.9252    2.7036 O   0  5  0  0  0  0  0  0  0  0  0  0
   73.1603   11.6244    3.1727 O   0  5  0  0  0  0  0  0  0  0  0  0
   74.5420   12.5784   -0.0907 O   0  5  0  0  0  0  0  0  0  0  0  0
   64.3829   12.8121    0.7954 C   0  0  1  0  0  0  0  0  0  0  0  0
   64.3813   13.6752    1.8024 N   0  0  0  0  0  0  0  0  0  0  0  0
   71.0278   10.5686    4.6226 O   0  0  0  0  0  0  0  0  0  0  0  0
   73.8332    9.9301    1.3765 O   0  0  0  0  0  0  0  0  0  0  0  0
   73.3364   13.9609    1.6939 O   0  0  0  0  0  0  0  0  0  0  0  0
   64.6678   11.5319    1.0206 N   0  0  0  0  0  0  0  0  0  0  0  0
   71.5148   10.0060    2.2588 O   0  0  0  0  0  0  0  0  0  0  0  0
   72.3546   11.8496    0.8327 O   0  0  0  0  0  0  0  0  0  0  0  0
   72.4647   13.8566   -0.6515 O   0  0  0  0  0  0  0  0  0  0  0  0
   64.6197   10.7923   -0.1113 C   0  0  2  0  0  0  0  0  0  0  0  0
   64.3216   11.2229   -1.3941 C   0  0  2  0  0  0  0  0  0  0  0  0
   64.0201   12.5889   -1.6163 C   0  0  1  0  0  0  0  0  0  0  0  0
   63.7130   13.1378   -2.6660 O   0  0  0  0  0  0  0  0  0  0  0  0
   64.3720   10.1589   -2.3009 N   0  0  0  0  0  0  0  0  0  0  0  0
   64.6897    9.1750   -1.5244 C   0  0  0  0  0  0  0  0  0  0  0  0
   64.8605    9.4420   -0.2056 N   0  0  0  0  0  0  0  0  0  0  0  0
  1  5  1  6  0  0  0
  1 14  1  0  0  0  0
  1 19  2  0  0  0  0
  2 15  1  1  0  0  0
  2 20  2  0  0  0  0
  2 23  1  0  0  0  0
  3 16  1  6  0  0  0
  3 21  2  0  0  0  0
  3 24  1  0  0  0  0
  3 25  1  0  0  0  0
  4  6  1  0  0  0  0
  5  4  1  0  0  0  0
  6  7  1  0  0  0  0
  6  8  2  0  0  0  0
  7 12  1  0  0  0  0
  8  9  1  0  0  0  0
  8 10  1  0  0  0  0
 10 11  1  0  0  0  0
 10 12  2  0  0  0  0
 12 32  1  0  0  0  0
 13 17  1  0  0  0  0
 17 18  1  1  0  0  0
 17 22  1  0  0  0  0
 23  1  1  0  0  0  0
 24  2  1  0  0  0  0
 26 22  1  1  0  0  0
 27 26  1  0  0  0  0
 27 28  1  0  0  0  0
 27 30  1  1  0  0  0
 28 13  1  0  0  0  0
 28 29  1  1  0  0  0
 31 30  1  0  0  0  0
 32 26  1  0  0  0  0
 32 31  1  0  0  0  0
M  CHG  3  14  -1  15  -1  16  -1
M  END
>  <CHROM.1>
37.71003798,31.01582374,66.35298239,129.13856711,-175.75313978,-28.95591807
174.22475506,51.57861643,68.68004344,10.79085897,1.05171067,-0.05176397,0.28149134
2.69456671

>  <Name>
2au4_lig

>  <RI>
0

>  <Rbt.Current_Directory>
/home/itssahil/PROJECTS/Mol_Feturizer/New_Systems/rnas/2au4

>  <Rbt.Executable>
rbdock ($Id: //depot/dev/client3/rdock/2013.1/src/exe/rbdock.cxx#4 $)

>  <Rbt.Library>
libRbt.so (2013.1, Build901 2013/11/27)

>  <Rbt.Parameter_File>
/export/apps/rDock/src/rDock_2013.1_src/data/scripts/dock_solv.prm

>  <Rbt.Receptor>
prm/pocket_docking_7.prm

>  <SCORE>
-41.2741

>  <SCORE.INTER>
-15.89

>  <SCORE.INTER.CONST>
1

>  <SCORE.INTER.POLAR>
-2.1669

>  <SCORE.INTER.ROT>
8

>  <SCORE.INTER.SOLV>
23.8926

>  <SCORE.INTER.VDW>
-20.2679

>  <SCORE.INTER.norm>
-0.496564

>  <SCORE.INTRA>
-25.384

>  <SCORE.INTRA.DIHEDRAL>
-49.7362

>  <SCORE.INTRA.DIHEDRAL.0>
76.3625

>  <SCORE.INTRA.POLAR>
0

>  <SCORE.INTRA.POLAR.0>
0

>  <SCORE.INTRA.REPUL>
0.0666491

>  <SCORE.INTRA.REPUL.0>
0.12705

>  <SCORE.INTRA.SOLV>
-4.55464

>  <SCORE.INTRA.SOLV.lig_0>
-119.383

>  <SCORE.INTRA.VDW>
1.42816

>  <SCORE.INTRA.VDW.0>
-5.10464

>  <SCORE.INTRA.norm>
-0.793251

>  <SCORE.RESTR>
0

>  <SCORE.RESTR.CAVITY>
0

>  <SCORE.RESTR.norm>
0

>  <SCORE.SYSTEM>
0

>  <SCORE.SYSTEM.CONST>
0

>  <SCORE.SYSTEM.DIHEDRAL>
0

>  <SCORE.SYSTEM.SOLV>
0

>  <SCORE.SYSTEM.norm>
0

>  <SCORE.heavy>
32

>  <SCORE.norm>
-1.28982

>  <RMSD>
6.911

$$$$
2au4_lig
 OpenBabel11021811423D
libRbt.so/2013.1/901 2013/11/27
 32 34  0  0  0  0  0  0  0  0999 V2000
   68.0664   11.5848   -1.1994 P   0  0  1  0  0  0  0  0  0  0  0  0
   68.1489    8.9567   -0.5241 P   0  0  1  0  0  0  0  0  0  0  0  0
   68.2695    6.9280    1.2954 P   0  0  2  0  0  0  0  0  0  0  0  0
   70.3108   12.9222   -0.7470 C   0  0  0  0  0  0  0  0  0  0  0  0
   69.3625   11.9337   -0.3118 O   0  0  0  0  0  0  0  0  0  0  0  0
   71.1303   13.4885    0.4032 C   0  0  0  0  0  0  0  0  0  0  0  0
   70.4559   13.2751    1.6601 O   0  0  0  0  0  0  0  0  0  0  0  0
   72.4936   12.8184    0.4742 C   0  0  0  0  0  0  0  0  0  0  0  0
   73.5423   13.7644    0.2331 O   0  0  0  0  0  0  0  0  0  0  0  0
   72.6072   12.2226    1.8571 C   0  0  0  0  0  0  0  0  0  0  0  0
   73.7373   12.7554    2.5608 O   0  0  0  0  0  0  0  0  0  0  0  0
   71.3136   12.5630    2.5769 C   0  0  0  0  0  0  0  0  0  0  0  0
   66.8974   10.3471    3.8625 N   0  0  0  0  0  0  0  0  0  0  0  0
   67.1236   12.7187   -1.1222 O   0  5  0  0  0  0  0  0  0  0  0  0
   67.7906    8.3593   -1.8252 O   0  5  0  0  0  0  0  0  0  0  0  0
   69.4072    7.5228    2.0255 O   0  5  0  0  0  0  0  0  0  0  0  0
   67.1328   11.6208    3.4020 C   0  0  1  0  0  0  0  0  0  0  0  0
   66.0705   12.4039    3.2701 N   0  0  0  0  0  0  0  0  0  0  0  0
   68.5167   11.0837   -2.5156 O   0  0  0  0  0  0  0  0  0  0  0  0
   69.5689    9.1349   -0.1561 O   0  0  0  0  0  0  0  0  0  0  0  0
   68.5108    5.9004    0.2611 O   0  0  0  0  0  0  0  0  0  0  0  0
   68.3412   12.0867    3.0967 N   0  0  0  0  0  0  0  0  0  0  0  0
   67.4283   10.3652   -0.4084 O   0  0  0  0  0  0  0  0  0  0  0  0
   67.4441    8.1127    0.6231 O   0  0  0  0  0  0  0  0  0  0  0  0
   67.2299    6.3374    2.3682 O   0  0  0  0  0  0  0  0  0  0  0  0
   69.3088   11.1616    3.2932 C   0  0  2  0  0  0  0  0  0  0  0  0
   69.1599    9.8625    3.7514 C   0  0  2  0  0  0  0  0  0  0  0  0
   67.8664    9.3825    4.0723 C   0  0  1  0  0  0  0  0  0  0  0  0
   67.5509    8.2837    4.5089 O   0  0  0  0  0  0  0  0  0  0  0  0
   70.3977    9.2146    3.8229 N   0  0  0  0  0  0  0  0  0  0  0  0
   71.1976   10.1441    3.4129 C   0  0  0  0  0  0  0  0  0  0  0  0
   70.6541   11.3394    3.0730 N   0  0  0  0  0  0  0  0  0  0  0  0
  1  5  1  1  0  0  0
  1 14  1  0  0  0  0
  1 19  2  0  0  0  0
  2 15  1  6  0  0  0
  2 20  2  0  0  0  0
  2 23  1  0  0  0  0
  3 16  1  1  0  0  0
  3 21  2  0  0  0  0
  3 24  1  0  0  0  0
  3 25  1  0  0  0  0
  4  6  1  0  0  0  0
  5  4  1  0  0  0  0
  6  7  1  0  0  0  0
  6  8  2  0  0  0  0
  7 12  1  0  0  0  0
  8  9  1  0  0  0  0
  8 10  1  0  0  0  0
 10 11  1  0  0  0  0
 10 12  2  0  0  0  0
 12 32  1  0  0  0  0
 13 17  1  0  0  0  0
 17 18  1  1  0  0  0
 17 22  1  0  0  0  0
 23  1  1  0  0  0  0
 24  2  1  0  0  0  0
 26 22  1  1  0  0  0
 27 26  1  0  0  0  0
 27 28  1  0  0  0  0
 27 30  1  1  0  0  0
 28 13  1  0  0  0  0
 28 29  1  1  0  0  0
 31 30  1  0  0  0  0
 32 26  1  0  0  0  0
 32 31  1  0  0  0  0
M  CHG  3  14  -1  15  -1  16  -1
M  END
>  <CHROM.1>
-71.74609716,-77.93897904,65.85271782,-20.76576153,157.99143163,-32.73177434
-74.38754239,93.37648202,69.12956164,10.37376856,1.24869667,0.34924268,-0.89851344
-1.19348484

>  <Name>
2au4_lig

>  <RI>
0

>  <Rbt.Current_Directory>
/home/itssahil/PROJECTS/Mol_Feturizer/New_Systems/rnas/2au4

>  <Rbt.Executable>
rbdock ($Id: //depot/dev/client3/rdock/2013.1/src/exe/rbdock.cxx#4 $)

>  <Rbt.Library>
libRbt.so (2013.1, Build901 2013/11/27)

>  <Rbt.Parameter_File>
/export/apps/rDock/src/rDock_2013.1_src/data/scripts/dock_solv.prm

>  <Rbt.Receptor>
prm/pocket_docking_7.prm

>  <SCORE>
-42.3324

>  <SCORE.INTER>
-18.0897

>  <SCORE.INTER.CONST>
1

>  <SCORE.INTER.POLAR>
-2.9397

>  <SCORE.INTER.ROT>
8

>  <SCORE.INTER.SOLV>
20.1193

>  <SCORE.INTER.VDW>
-17.9005

>  <SCORE.INTER.norm>
-0.565302

>  <SCORE.INTRA>
-24.2428

>  <SCORE.INTRA.DIHEDRAL>
-47.3565

>  <SCORE.INTRA.DIHEDRAL.0>
76.3625

>  <SCORE.INTRA.POLAR>
0

>  <SCORE.INTRA.POLAR.0>
0

>  <SCORE.INTRA.REPUL>
0.0541589

>  <SCORE.INTRA.REPUL.0>
0.12705

>  <SCORE.INTRA.SOLV>
2.49056

>  <SCORE.INTRA.SOLV.lig_0>
-119.383

>  <SCORE.INTRA.VDW>
-2.08062

>  <SCORE.INTRA.VDW.0>
-5.10464

>  <SCORE.INTRA.norm>
-0.757587

>  <SCORE.RESTR>
0

>  <SCORE.RESTR.CAVITY>
0

>  <SCORE.RESTR.norm>
0

>  <SCORE.SYSTEM>
0

>  <SCORE.SYSTEM.CONST>
0

>  <SCORE.SYSTEM.DIHEDRAL>
0

>  <SCORE.SYSTEM.SOLV>
0

>  <SCORE.SYSTEM.norm>
0

>  <SCORE.heavy>
32

>  <SCORE.norm>
-1.32289

>  <RMSD>
6.914

$$$$
2au4_lig
 OpenBabel11021811423D
libRbt.so/2013.1/901 2013/11/27
 32 34  0  0  0  0  0  0  0  0999 V2000
   68.8693    6.8284   -0.1303 P   0  0  1  0  0  0  0  0  0  0  0  0
   67.5454    8.4435   -1.8646 P   0  0  1  0  0  0  0  0  0  0  0  0
   64.8797    8.6572   -1.3266 P   0  0  2  0  0  0  0  0  0  0  0  0
   68.5217    6.7757    2.4978 C   0  0  0  0  0  0  0  0  0  0  0  0
   69.3657    7.0904    1.3778 O   0  0  0  0  0  0  0  0  0  0  0  0
   68.6032    7.8219    3.5998 C   0  0  0  0  0  0  0  0  0  0  0  0
   69.7799    8.6399    3.4370 O   0  0  0  0  0  0  0  0  0  0  0  0
   67.3838    8.7300    3.5714 C   0  0  0  0  0  0  0  0  0  0  0  0
   66.6151    8.5930    4.7727 O   0  0  0  0  0  0  0  0  0  0  0  0
   67.9025   10.1398    3.4166 C   0  0  0  0  0  0  0  0  0  0  0  0
   67.4836   10.9699    4.5081 O   0  0  0  0  0  0  0  0  0  0  0  0
   69.4170   10.0352    3.3681 C   0  0  0  0  0  0  0  0  0  0  0  0
   68.6103   13.4452   -0.3451 N   0  0  0  0  0  0  0  0  0  0  0  0
   70.0133    7.0247   -1.0434 O   0  5  0  0  0  0  0  0  0  0  0  0
   68.6593    9.2868   -2.3402 O   0  5  0  0  0  0  0  0  0  0  0  0
   63.8558    9.7113   -1.1795 O   0  5  0  0  0  0  0  0  0  0  0  0
   67.8138   13.1172    0.7262 C   0  0  1  0  0  0  0  0  0  0  0  0
   66.6623   13.7680    0.8237 N   0  0  0  0  0  0  0  0  0  0  0  0
   68.1041    5.5636   -0.1624 O   0  0  0  0  0  0  0  0  0  0  0  0
   67.1599    7.2312   -2.6165 O   0  0  0  0  0  0  0  0  0  0  0  0
   65.1444    7.7230   -0.2125 O   0  0  0  0  0  0  0  0  0  0  0  0
   68.1369   12.2026    1.6371 N   0  0  0  0  0  0  0  0  0  0  0  0
   67.8472    8.0200   -0.3660 O   0  0  0  0  0  0  0  0  0  0  0  0
   66.2561    9.3599   -1.7117 O   0  0  0  0  0  0  0  0  0  0  0  0
   64.5408    7.7993   -2.6418 O   0  0  0  0  0  0  0  0  0  0  0  0
   69.3384   11.6341    1.3846 C   0  0  2  0  0  0  0  0  0  0  0  0
   70.2008   11.9042    0.3343 C   0  0  2  0  0  0  0  0  0  0  0  0
   69.8413   12.8805   -0.6268 C   0  0  1  0  0  0  0  0  0  0  0  0
   70.4600   13.2290   -1.6234 O   0  0  0  0  0  0  0  0  0  0  0  0
   71.3484   11.1081    0.4148 N   0  0  0  0  0  0  0  0  0  0  0  0
   71.1103   10.4225    1.4850 C   0  0  0  0  0  0  0  0  0  0  0  0
   69.9446   10.6566    2.1378 N   0  0  0  0  0  0  0  0  0  0  0  0
  1  5  1  1  0  0  0
  1 14  1  0  0  0  0
  1 19  2  0  0  0  0
  2 15  1  6  0  0  0
  2 20  2  0  0  0  0
  2 23  1  0  0  0  0
  3 16  1  1  0  0  0
  3 21  2  0  0  0  0
  3 24  1  0  0  0  0
  3 25  1  0  0  0  0
  4  6  1  0  0  0  0
  5  4  1  0  0  0  0
  6  7  1  0  0  0  0
  6  8  2  0  0  0  0
  7 12  1  0  0  0  0
  8  9  1  0  0  0  0
  8 10  1  0  0  0  0
 10 11  1  0  0  0  0
 10 12  2  0  0  0  0
 12 32  1  0  0  0  0
 13 17  1  0  0  0  0
 17 18  1  6  0  0  0
 17 22  1  0  0  0  0
 23  1  1  0  0  0  0
 24  2  1  0  0  0  0
 26 22  1  6  0  0  0
 27 26  1  0  0  0  0
 27 28  1  0  0  0  0
 27 30  1  6  0  0  0
 28 13  1  0  0  0  0
 28 29  1  6  0  0  0
 31 30  1  0  0  0  0
 32 26  1  0  0  0  0
 32 31  1  0  0  0  0
M  CHG  3  14  -1  15  -1  16  -1
M  END
>  <CHROM.1>
-170.46347205,-79.42978712,177.27801875,-17.30461501,-140.39011359,144.68158969
157.71165363,174.93057086,68.01726719,9.41368755,0.41318005,-2.89088946,-1.02754078
-0.56103830

>  <Name>
2au4_lig

>  <RI>
0

>  <Rbt.Current_Directory>
/home/itssahil/PROJECTS/Mol_Feturizer/New_Systems/rnas/2au4

>  <Rbt.Executable>
rbdock ($Id: //depot/dev/client3/rdock/2013.1/src/exe/rbdock.cxx#4 $)

>  <Rbt.Library>
libRbt.so (2013.1, Build901 2013/11/27)

>  <Rbt.Parameter_File>
/export/apps/rDock/src/rDock_2013.1_src/data/scripts/dock_solv.prm

>  <Rbt.Receptor>
prm/pocket_docking_5.prm

>  <SCORE>
-37.8961

>  <SCORE.INTER>
-13.7722

>  <SCORE.INTER.CONST>
1

>  <SCORE.INTER.POLAR>
-1.27906

>  <SCORE.INTER.ROT>
8

>  <SCORE.INTER.SOLV>
23.7987

>  <SCORE.INTER.VDW>
-21.7842

>  <SCORE.INTER.norm>
-0.430383

>  <SCORE.INTRA>
-24.1239

>  <SCORE.INTRA.DIHEDRAL>
-43.8301

>  <SCORE.INTRA.DIHEDRAL.0>
76.3625

>  <SCORE.INTRA.POLAR>
0

>  <SCORE.INTRA.POLAR.0>
0

>  <SCORE.INTRA.REPUL>
-0.12705

>  <SCORE.INTRA.REPUL.0>
0.12705

>  <SCORE.INTRA.SOLV>
-3.51351

>  <SCORE.INTRA.SOLV.lig_0>
-119.383

>  <SCORE.INTRA.VDW>
0.183159

>  <SCORE.INTRA.VDW.0>
-5.10464

>  <SCORE.INTRA.norm>
-0.753872

>  <SCORE.RESTR>
0

>  <SCORE.RESTR.CAVITY>
0

>  <SCORE.RESTR.norm>
0

>  <SCORE.SYSTEM>
0

>  <SCORE.SYSTEM.CONST>
0

>  <SCORE.SYSTEM.DIHEDRAL>
0

>  <SCORE.SYSTEM.SOLV>
0

>  <SCORE.SYSTEM.norm>
0

>  <SCORE.heavy>
32

>  <SCORE.norm>
-1.18425

>  <RMSD>
6.922

$$$$
2au4_lig
 OpenBabel11021811423D
libRbt.so/2013.1/901 2013/11/27
 32 34  0  0  0  0  0  0  0  0999 V2000
   67.2575    6.4668   -0.0641 P   0  0  1  0  0  0  0  0  0  0  0  0
   69.0745    5.0381   -1.4877 P   0  0  1  0  0  0  0  0  0  0  0  0
   68.2425    5.4986   -4.0444 P   0  0  2  0  0  0  0  0  0  0  0  0
   67.5478    9.0825    0.2585 C   0  0  0  0  0  0  0  0  0  0  0  0
   66.7218    7.9814   -0.1552 O   0  0  0  0  0  0  0  0  0  0  0  0
   66.8744   10.4294    0.0395 C   0  0  0  0  0  0  0  0  0  0  0  0
   67.5554   11.4635    0.7792 O   0  0  0  0  0  0  0  0  0  0  0  0
   66.8919   10.8069   -1.4335 C   0  0  0  0  0  0  0  0  0  0  0  0
   65.5607   10.8863   -1.9577 O   0  0  0  0  0  0  0  0  0  0  0  0
   67.5921   12.1417   -1.5259 C   0  0  0  0  0  0  0  0  0  0  0  0
   66.7433   13.1334   -2.1192 O   0  0  0  0  0  0  0  0  0  0  0  0
   67.9632   12.5291   -0.1048 C   0  0  0  0  0  0  0  0  0  0  0  0
   71.9594   12.9934    3.0386 N   0  0  0  0  0  0  0  0  0  0  0  0
   68.0592    6.3242    1.1679 O   0  5  0  0  0  0  0  0  0  0  0  0
   70.3469    5.1750   -0.7527 O   0  5  0  0  0  0  0  0  0  0  0  0
   68.5992    6.8312   -4.5719 O   0  5  0  0  0  0  0  0  0  0  0  0
   70.6421   12.7352    3.3345 C   0  0  1  0  0  0  0  0  0  0  0  0
   70.3465   12.5863    4.6189 N   0  0  0  0  0  0  0  0  0  0  0  0
   66.1268    5.5498   -0.3227 O   0  0  0  0  0  0  0  0  0  0  0  0
   68.1751    3.8996   -1.2073 O   0  0  0  0  0  0  0  0  0  0  0  0
   66.9461    5.2953   -3.3647 O   0  0  0  0  0  0  0  0  0  0  0  0
   69.6826   12.6353    2.4180 N   0  0  0  0  0  0  0  0  0  0  0  0
   68.2467    6.3786   -1.3026 O   0  0  0  0  0  0  0  0  0  0  0  0
   69.3948    5.0419   -3.0442 O   0  0  0  0  0  0  0  0  0  0  0  0
   68.3660    4.4299   -5.2373 O   0  0  0  0  0  0  0  0  0  0  0  0
   70.1551   12.8183    1.1635 C   0  0  2  0  0  0  0  0  0  0  0  0
   71.4599   13.0809    0.7783 C   0  0  2  0  0  0  0  0  0  0  0  0
   72.4691   13.1844    1.7668 C   0  0  1  0  0  0  0  0  0  0  0  0
   73.6577   13.4329    1.6155 O   0  0  0  0  0  0  0  0  0  0  0  0
   71.5527   13.2085   -0.6118 N   0  0  0  0  0  0  0  0  0  0  0  0
   70.3245   13.0197   -0.9692 C   0  0  0  0  0  0  0  0  0  0  0  0
   69.4133   12.7801    0.0066 N   0  0  0  0  0  0  0  0  0  0  0  0
  1  5  1  1  0  0  0
  1 14  1  0  0  0  0
  1 19  2  0  0  0  0
  2 15  1  1  0  0  0
  2 20  2  0  0  0  0
  2 23  1  0  0  0  0
  3 16  1  6  0  0  0
  3 21  2  0  0  0  0
  3 24  1  0  0  0  0
  3 25  1  0  0  0  0
  4  6  1  0  0  0  0
  5  4  1  0  0  0  0
  6  7  1  0  0  0  0
  6  8  2  0  0  0  0
  7 12  1  0  0  0  0
  8  9  1  0  0  0  0
  8 10  1  0  0  0  0
 10 11  1  0  0  0  0
 10 12  2  0  0  0  0
 12 32  1  0  0  0  0
 13 17  1  0  0  0  0
 17 18  1  1  0  0  0
 17 22  1  0  0  0  0
 23  1  1  0  0  0  0
 24  2  1  0  0  0  0
 26 22  1  1  0  0  0
 27 26  1  0  0  0  0
 27 28  1  0  0  0  0
 27 30  1  1  0  0  0
 28 13  1  0  0  0  0
 28 29  1  1  0  0  0
 31 30  1  0  0  0  0
 32 26  1  0  0  0  0
 32 31  1  0  0  0  0
M  CHG  3  14  -1  15  -1  16  -1
M  END
>  <CHROM.1>
37.88742713,-89.88757283,107.74104122,164.55389067,177.72662993,-42.02555242
175.40864880,-155.47080085,68.77459021,9.03688030,-0.62675667,-1.95758301
-0.76105089,0.19508137

>  <Name>
2au4_lig

>  <RI>
0

>  <Rbt.Current_Directory>
/home/itssahil/PROJECTS/Mol_Feturizer/New_Systems/rnas/2au4

>  <Rbt.Executable>
rbdock ($Id: //depot/dev/client3/rdock/2013.1/src/exe/rbdock.cxx#4 $)

>  <Rbt.Library>
libRbt.so (2013.1, Build901 2013/11/27)

>  <Rbt.Parameter_File>
/export/apps/rDock/src/rDock_2013.1_src/data/scripts/dock_solv.prm

>  <Rbt.Receptor>
prm/pocket_docking_6.prm

>  <SCORE>
-37.8197

>  <SCORE.INTER>
-15.2137

>  <SCORE.INTER.CONST>
1

>  <SCORE.INTER.POLAR>
-1.54762

>  <SCORE.INTER.ROT>
8

>  <SCORE.INTER.SOLV>
31.609

>  <SCORE.INTER.VDW>
-24.4534

>  <SCORE.INTER.norm>
-0.475428

>  <SCORE.INTRA>
-22.606

>  <SCORE.INTRA.DIHEDRAL>
-45.1104

>  <SCORE.INTRA.DIHEDRAL.0>
76.3625

>  <SCORE.INTRA.POLAR>
0

>  <SCORE.INTRA.POLAR.0>
0

>  <SCORE.INTRA.REPUL>
0.00261436

>  <SCORE.INTRA.REPUL.0>
0.12705

>  <SCORE.INTRA.SOLV>
-3.64421

>  <SCORE.INTRA.SOLV.lig_0>
-119.383

>  <SCORE.INTRA.VDW>
1.75825

>  <SCORE.INTRA.VDW.0>
-5.10464

>  <SCORE.INTRA.norm>
-0.706438

>  <SCORE.RESTR>
0

>  <SCORE.RESTR.CAVITY>
0

>  <SCORE.RESTR.norm>
0

>  <SCORE.SYSTEM>
0

>  <SCORE.SYSTEM.CONST>
0

>  <SCORE.SYSTEM.DIHEDRAL>
0

>  <SCORE.SYSTEM.SOLV>
0

>  <SCORE.SYSTEM.norm>
0

>  <SCORE.heavy>
32

>  <SCORE.norm>
-1.18187

>  <RMSD>
6.934

$$$$
2au4_lig
 OpenBabel11021811423D
libRbt.so/2013.1/901 2013/11/27
 32 34  0  0  0  0  0  0  0  0999 V2000
   68.0533    6.3659   -2.4888 P   0  0  1  0  0  0  0  0  0  0  0  0
   69.5543    4.9582   -0.7183 P   0  0  1  0  0  0  0  0  0  0  0  0
   72.0760    4.4139   -1.6044 P   0  0  2  0  0  0  0  0  0  0  0  0
   68.7455    8.6424   -1.3188 C   0  0  0  0  0  0  0  0  0  0  0  0
   67.8985    7.9498   -2.2507 O   0  0  0  0  0  0  0  0  0  0  0  0
   68.5693    8.1450    0.1084 C   0  0  0  0  0  0  0  0  0  0  0  0
   69.6654    8.5827    0.9374 O   0  0  0  0  0  0  0  0  0  0  0  0
   67.2767    8.6762    0.7080 C   0  0  0  0  0  0  0  0  0  0  0  0
   66.3726    7.6055    1.0065 O   0  0  0  0  0  0  0  0  0  0  0  0
   67.6616    9.4268    1.9605 C   0  0  0  0  0  0  0  0  0  0  0  0
   67.0162    8.8746    3.1158 O   0  0  0  0  0  0  0  0  0  0  0  0
   69.1716    9.3135    2.0799 C   0  0  0  0  0  0  0  0  0  0  0  0
   68.6336   14.1569    3.6025 N   0  0  0  0  0  0  0  0  0  0  0  0
   67.0368    5.6662   -1.6777 O   0  5  0  0  0  0  0  0  0  0  0  0
   68.8819    5.4853    0.4851 O   0  5  0  0  0  0  0  0  0  0  0  0
   73.4179    4.1799   -1.0336 O   0  5  0  0  0  0  0  0  0  0  0  0
   67.7555   13.1050    3.7130 C   0  0  1  0  0  0  0  0  0  0  0  0
   66.5923   13.3688    4.2931 N   0  0  0  0  0  0  0  0  0  0  0  0
   68.1432    6.1137   -3.9430 O   0  0  0  0  0  0  0  0  0  0  0  0
   69.1290    3.6683   -1.3002 O   0  0  0  0  0  0  0  0  0  0  0  0
   71.9044    5.3619   -2.7250 O   0  0  0  0  0  0  0  0  0  0  0  0
   68.0132   11.8755    3.2741 N   0  0  0  0  0  0  0  0  0  0  0  0
   69.4767    6.0621   -1.8548 O   0  0  0  0  0  0  0  0  0  0  0  0
   71.1135    4.8758   -0.4226 O   0  0  0  0  0  0  0  0  0  0  0  0
   71.4525    2.9974   -2.0349 O   0  0  0  0  0  0  0  0  0  0  0  0
   69.2380   11.7832    2.7068 C   0  0  2  0  0  0  0  0  0  0  0  0
   70.1807   12.7872    2.5554 C   0  0  2  0  0  0  0  0  0  0  0  0
   69.8902   14.0905    3.0279 C   0  0  1  0  0  0  0  0  0  0  0  0
   70.5848   15.0956    2.9591 O   0  0  0  0  0  0  0  0  0  0  0  0
   71.3270   12.3019    1.9169 N   0  0  0  0  0  0  0  0  0  0  0  0
   71.0096   11.0629    1.7270 C   0  0  0  0  0  0  0  0  0  0  0  0
   69.7915   10.6506    2.1581 N   0  0  0  0  0  0  0  0  0  0  0  0
  1  5  1  1  0  0  0
  1 14  1  0  0  0  0
  1 19  2  0  0  0  0
  2 15  1  1  0  0  0
  2 20  2  0  0  0  0
  2 23  1  0  0  0  0
  3 16  1  1  0  0  0
  3 21  2  0  0  0  0
  3 24  1  0  0  0  0
  3 25  1  0  0  0  0
  4  6  1  0  0  0  0
  5  4  1  0  0  0  0
  6  7  1  0  0  0  0
  6  8  2  0  0  0  0
  7 12  1  0  0  0  0
  8  9  1  0  0  0  0
  8 10  1  0  0  0  0
 10 11  1  0  0  0  0
 10 12  2  0  0  0  0
 12 32  1  0  0  0  0
 13 17  1  0  0  0  0
 17 18  1  6  0  0  0
 17 22  1  0  0  0  0
 23  1  1  0  0  0  0
 24  2  1  0  0  0  0
 26 22  1  6  0  0  0
 27 26  1  0  0  0  0
 27 28  1  0  0  0  0
 27 30  1  6  0  0  0
 28 13  1  0  0  0  0
 28 29  1  6  0  0  0
 31 30  1  0  0  0  0
 32 26  1  0  0  0  0
 32 31  1  0  0  0  0
M  CHG  3  14  -1  15  -1  16  -1
M  END
>  <CHROM.1>
98.06579597,-69.38213124,-169.91469632,164.20967886,-62.32780490,151.40572918
123.99150536,-176.46911170,69.33041914,8.18944446,0.28150854,1.43490881,0.02816244
-2.59437916

>  <Name>
2au4_lig

>  <RI>
0

>  <Rbt.Current_Directory>
/home/itssahil/PROJECTS/Mol_Feturizer/New_Systems/rnas/2au4

>  <Rbt.Executable>
rbdock ($Id: //depot/dev/client3/rdock/2013.1/src/exe/rbdock.cxx#4 $)

>  <Rbt.Library>
libRbt.so (2013.1, Build901 2013/11/27)

>  <Rbt.Parameter_File>
/export/apps/rDock/src/rDock_2013.1_src/data/scripts/dock_solv.prm

>  <Rbt.Receptor>
prm/pocket_docking_4.prm

>  <SCORE>
-40.2132

>  <SCORE.INTER>
-17.5531

>  <SCORE.INTER.CONST>
1

>  <SCORE.INTER.POLAR>
-2.19348

>  <SCORE.INTER.ROT>
8

>  <SCORE.INTER.SOLV>
34.6851

>  <SCORE.INTER.VDW>
-24.8855

>  <SCORE.INTER.norm>
-0.548534

>  <SCORE.INTRA>
-22.9242

>  <SCORE.INTRA.DIHEDRAL>
-46.6079

>  <SCORE.INTRA.DIHEDRAL.0>
76.3625

>  <SCORE.INTRA.POLAR>
0

>  <SCORE.INTRA.POLAR.0>
0

>  <SCORE.INTRA.REPUL>
-0.12705

>  <SCORE.INTRA.REPUL.0>
0.12705

>  <SCORE.INTRA.SOLV>
-0.913708

>  <SCORE.INTRA.SOLV.lig_0>
-119.383

>  <SCORE.INTRA.VDW>
1.47183

>  <SCORE.INTRA.VDW.0>
-5.10464

>  <SCORE.INTRA.norm>
-0.716382

>  <SCORE.RESTR>
0.264095

>  <SCORE.RESTR.CAVITY>
0.264095

>  <SCORE.RESTR.norm>
0.00825296

>  <SCORE.SYSTEM>
0

>  <SCORE.SYSTEM.CONST>
0

>  <SCORE.SYSTEM.DIHEDRAL>
0

>  <SCORE.SYSTEM.SOLV>
0

>  <SCORE.SYSTEM.norm>
0

>  <SCORE.heavy>
32

>  <SCORE.norm>
-1.25666

>  <RMSD>
6.946

$$$$
2au4_lig
 OpenBabel11021811423D
libRbt.so/2013.1/901 2013/11/27
 32 34  0  0  0  0  0  0  0  0999 V2000
   69.0873    8.5195    0.5433 P   0  0  1  0  0  0  0  0  0  0  0  0
   67.6702    7.4481   -1.5094 P   0  0  1  0  0  0  0  0  0  0  0  0
   68.5494    4.9241   -2.0545 P   0  0  2  0  0  0  0  0  0  0  0  0
   67.5567    9.5975    2.4210 C   0  0  0  0  0  0  0  0  0  0  0  0
   68.7563    9.6576    1.6317 O   0  0  0  0  0  0  0  0  0  0  0  0
   66.5125   10.6085    1.9706 C   0  0  0  0  0  0  0  0  0  0  0  0
   67.1407   11.8456    1.5766 O   0  0  0  0  0  0  0  0  0  0  0  0
   65.7236   10.0758    0.7846 C   0  0  0  0  0  0  0  0  0  0  0  0
   64.3419    9.9055    1.1236 O   0  0  0  0  0  0  0  0  0  0  0  0
   65.8895   11.0831   -0.3281 C   0  0  0  0  0  0  0  0  0  0  0  0
   64.6213   11.5978   -0.7559 O   0  0  0  0  0  0  0  0  0  0  0  0
   66.7632   12.1943    0.2278 C   0  0  0  0  0  0  0  0  0  0  0  0
   71.7281   13.3782    0.1056 N   0  0  0  0  0  0  0  0  0  0  0  0
   70.0512    9.0670   -0.4323 O   0  5  0  0  0  0  0  0  0  0  0  0
   66.2678    7.3077   -1.9472 O   0  5  0  0  0  0  0  0  0  0  0  0
   68.4133    3.6023   -1.4098 O   0  5  0  0  0  0  0  0  0  0  0  0
   70.8792   13.2873    1.1830 C   0  0  1  0  0  0  0  0  0  0  0  0
   71.4081   13.5455    2.3716 N   0  0  0  0  0  0  0  0  0  0  0  0
   69.3883    7.2589    1.2551 O   0  0  0  0  0  0  0  0  0  0  0  0
   68.6885    7.9754   -2.4413 O   0  0  0  0  0  0  0  0  0  0  0  0
   69.8314    5.3144   -2.6775 O   0  0  0  0  0  0  0  0  0  0  0  0
   69.5916   12.9656    1.0867 N   0  0  0  0  0  0  0  0  0  0  0  0
   67.6944    8.3381   -0.1964 O   0  0  0  0  0  0  0  0  0  0  0  0
   68.1709    6.0363   -0.9791 O   0  0  0  0  0  0  0  0  0  0  0  0
   67.3830    5.0787   -3.1483 O   0  0  0  0  0  0  0  0  0  0  0  0
   69.2171   12.7399   -0.1937 C   0  0  2  0  0  0  0  0  0  0  0  0
   70.0035   12.8088   -1.3323 C   0  0  2  0  0  0  0  0  0  0  0  0
   71.3722   13.1531   -1.2121 C   0  0  1  0  0  0  0  0  0  0  0  0
   72.2031   13.2847   -2.1007 O   0  0  0  0  0  0  0  0  0  0  0  0
   69.2535   12.5089   -2.4745 N   0  0  0  0  0  0  0  0  0  0  0  0
   68.0872   12.2836   -1.9636 C   0  0  0  0  0  0  0  0  0  0  0  0
   67.9561   12.3939   -0.6181 N   0  0  0  0  0  0  0  0  0  0  0  0
  1  5  1  1  0  0  0
  1 14  1  0  0  0  0
  1 19  2  0  0  0  0
  2 15  1  6  0  0  0
  2 20  2  0  0  0  0
  2 23  1  0  0  0  0
  3 16  1  1  0  0  0
  3 21  2  0  0  0  0
  3 24  1  0  0  0  0
  3 25  1  0  0  0  0
  4  6  1  0  0  0  0
  5  4  1  0  0  0  0
  6  7  1  0  0  0  0
  6  8  2  0  0  0  0
  7 12  1  0  0  0  0
  8  9  1  0  0  0  0
  8 10  1  0  0  0  0
 10 11  1  0  0  0  0
 10 12  2  0  0  0  0
 12 32  1  0  0  0  0
 13 17  1  0  0  0  0
 17 18  1  6  0  0  0
 17 22  1  0  0  0  0
 23  1  1  0  0  0  0
 24  2  1  0  0  0  0
 26 22  1  6  0  0  0
 27 26  1  0  0  0  0
 27 28  1  0  0  0  0
 27 30  1  6  0  0  0
 28 13  1  0  0  0  0
 28 29  1  6  0  0  0
 31 30  1  0  0  0  0
 32 26  1  0  0  0  0
 32 31  1  0  0  0  0
M  CHG  3  14  -1  15  -1  16  -1
M  END
>  <CHROM.1>
159.02603807,174.44363622,-155.96802201,-37.73594771,-105.69778307,-24.48485312
170.52132287,77.01088561,68.44224442,9.56409578,-0.45993602,-1.78831370,0.33511063
0.31929329

>  <Name>
2au4_lig

>  <RI>
0

>  <Rbt.Current_Directory>
/home/itssahil/PROJECTS/Mol_Feturizer/New_Systems/rnas/2au4

>  <Rbt.Executable>
rbdock ($Id: //depot/dev/client3/rdock/2013.1/src/exe/rbdock.cxx#4 $)

>  <Rbt.Library>
libRbt.so (2013.1, Build901 2013/11/27)

>  <Rbt.Parameter_File>
/export/apps/rDock/src/rDock_2013.1_src/data/scripts/dock_solv.prm

>  <Rbt.Receptor>
prm/pocket_docking_3.prm

>  <SCORE>
-33.2551

>  <SCORE.INTER>
-10.296

>  <SCORE.INTER.CONST>
1

>  <SCORE.INTER.POLAR>
-1.251

>  <SCORE.INTER.ROT>
8

>  <SCORE.INTER.SOLV>
32.6673

>  <SCORE.INTER.VDW>
-22.5165

>  <SCORE.INTER.norm>
-0.321751

>  <SCORE.INTRA>
-23.2954

>  <SCORE.INTRA.DIHEDRAL>
-43.2176

>  <SCORE.INTRA.DIHEDRAL.0>
76.3625

>  <SCORE.INTRA.POLAR>
0

>  <SCORE.INTRA.POLAR.0>
0

>  <SCORE.INTRA.REPUL>
0.0716115

>  <SCORE.INTRA.REPUL.0>
0.12705

>  <SCORE.INTRA.SOLV>
-1.41387

>  <SCORE.INTRA.SOLV.lig_0>
-119.383

>  <SCORE.INTRA.VDW>
-1.33774

>  <SCORE.INTRA.VDW.0>
-5.10464

>  <SCORE.INTRA.norm>
-0.727982

>  <SCORE.RESTR>
0.336376

>  <SCORE.RESTR.CAVITY>
0.336376

>  <SCORE.RESTR.norm>
0.0105118

>  <SCORE.SYSTEM>
0

>  <SCORE.SYSTEM.CONST>
0

>  <SCORE.SYSTEM.DIHEDRAL>
0

>  <SCORE.SYSTEM.SOLV>
0

>  <SCORE.SYSTEM.norm>
0

>  <SCORE.heavy>
32

>  <SCORE.norm>
-1.03922

>  <RMSD>
6.957

$$$$
2au4_lig
 OpenBabel11021811423D
libRbt.so/2013.1/901 2013/11/27
 32 34  0  0  0  0  0  0  0  0999 V2000
   68.3200    9.1580   -0.9379 P   0  0  1  0  0  0  0  0  0  0  0  0
   69.3327    6.6395   -0.9658 P   0  0  1  0  0  0  0  0  0  0  0  0
   71.0509    4.5283   -1.1426 P   0  0  2  0  0  0  0  0  0  0  0  0
   68.7027   11.7678   -1.2088 C   0  0  0  0  0  0  0  0  0  0  0  0
   68.9440   10.5632   -0.4629 O   0  0  0  0  0  0  0  0  0  0  0  0
   69.3825   12.9808   -0.5910 C   0  0  0  0  0  0  0  0  0  0  0  0
   69.0463   13.0937    0.8070 O   0  0  0  0  0  0  0  0  0  0  0  0
   70.8945   12.8695   -0.7100 C   0  0  0  0  0  0  0  0  0  0  0  0
   71.4216   13.9158   -1.5349 O   0  0  0  0  0  0  0  0  0  0  0  0
   71.4428   12.9569    0.6943 C   0  0  0  0  0  0  0  0  0  0  0  0
   72.3505   14.0586    0.8296 O   0  0  0  0  0  0  0  0  0  0  0  0
   70.2443   13.1291    1.6114 C   0  0  0  0  0  0  0  0  0  0  0  0
   67.3305   10.1257    4.5365 N   0  0  0  0  0  0  0  0  0  0  0  0
   67.3960    8.6755    0.1081 O   0  5  0  0  0  0  0  0  0  0  0  0
   69.0805    6.1936    0.4183 O   0  5  0  0  0  0  0  0  0  0  0  0
   72.3026    4.1793   -1.8445 O   0  5  0  0  0  0  0  0  0  0  0  0
   66.9560   11.0737    3.6141 C   0  0  1  0  0  0  0  0  0  0  0  0
   65.6520   11.2508    3.4496 N   0  0  0  0  0  0  0  0  0  0  0  0
   67.8519    9.2971   -2.3335 O   0  0  0  0  0  0  0  0  0  0  0  0
   68.3487    6.3490   -2.0292 O   0  0  0  0  0  0  0  0  0  0  0  0
   69.8161    3.7606   -1.4073 O   0  0  0  0  0  0  0  0  0  0  0  0
   67.8177   11.7993    2.9057 N   0  0  0  0  0  0  0  0  0  0  0  0
   69.5894    8.2048   -0.9448 O   0  0  0  0  0  0  0  0  0  0  0  0
   70.7408    6.0645   -1.4261 O   0  0  0  0  0  0  0  0  0  0  0  0
   71.3330    4.5107    0.4388 O   0  0  0  0  0  0  0  0  0  0  0  0
   69.1028   11.4954    3.2003 C   0  0  2  0  0  0  0  0  0  0  0  0
   69.5659   10.5591    4.1106 C   0  0  2  0  0  0  0  0  0  0  0  0
   68.6351    9.7955    4.8568 C   0  0  1  0  0  0  0  0  0  0  0  0
   68.8592    8.9503    5.7130 O   0  0  0  0  0  0  0  0  0  0  0  0
   70.9645   10.5363    4.1337 N   0  0  0  0  0  0  0  0  0  0  0  0
   71.2502   11.4412    3.2554 C   0  0  0  0  0  0  0  0  0  0  0  0
   70.2185   12.0725    2.6415 N   0  0  0  0  0  0  0  0  0  0  0  0
  1  5  1  1  0  0  0
  1 14  1  0  0  0  0
  1 19  2  0  0  0  0
  2 15  1  1  0  0  0
  2 20  2  0  0  0  0
  2 23  1  0  0  0  0
  3 16  1  6  0  0  0
  3 21  2  0  0  0  0
  3 24  1  0  0  0  0
  3 25  1  0  0  0  0
  4  6  1  0  0  0  0
  5  4  1  0  0  0  0
  6  7  1  0  0  0  0
  6  8  2  0  0  0  0
  7 12  1  0  0  0  0
  8  9  1  0  0  0  0
  8 10  1  0  0  0  0
 10 11  1  0  0  0  0
 10 12  2  0  0  0  0
 12 32  1  0  0  0  0
 13 17  1  0  0  0  0
 17 18  1  1  0  0  0
 17 22  1  0  0  0  0
 23  1  1  0  0  0  0
 24  2  1  0  0  0  0
 26 22  1  1  0  0  0
 27 26  1  0  0  0  0
 27 28  1  0  0  0  0
 27 30  1  1  0  0  0
 28 13  1  0  0  0  0
 28 29  1  1  0  0  0
 31 30  1  0  0  0  0
 32 26  1  0  0  0  0
 32 31  1  0  0  0  0
M  CHG  3  14  -1  15  -1  16  -1
M  END
>  <CHROM.1>
-117.27258897,-82.87215956,170.96229762,-51.97040744,-179.95737448,-26.30728849
163.18747999,46.90403184,69.51282888,9.32616042,0.66127835,-1.24932132,1.24441784
0.16169984

>  <Name>
2au4_lig

>  <RI>
0

>  <Rbt.Current_Directory>
/home/itssahil/PROJECTS/Mol_Feturizer/New_Systems/rnas/2au4

>  <Rbt.Executable>
rbdock ($Id: //depot/dev/client3/rdock/2013.1/src/exe/rbdock.cxx#4 $)

>  <Rbt.Library>
libRbt.so (2013.1, Build901 2013/11/27)

>  <Rbt.Parameter_File>
/export/apps/rDock/src/rDock_2013.1_src/data/scripts/dock_solv.prm

>  <Rbt.Receptor>
prm/pocket_docking_3.prm

>  <SCORE>
-34.5641

>  <SCORE.INTER>
-10.4631

>  <SCORE.INTER.CONST>
1

>  <SCORE.INTER.POLAR>
0

>  <SCORE.INTER.ROT>
8

>  <SCORE.INTER.SOLV>
27.9022

>  <SCORE.INTER.VDW>
-25.2095

>  <SCORE.INTER.norm>
-0.326973

>  <SCORE.INTRA>
-24.7451

>  <SCORE.INTRA.DIHEDRAL>
-46.8328

>  <SCORE.INTRA.DIHEDRAL.0>
76.3625

>  <SCORE.INTRA.POLAR>
0

>  <SCORE.INTRA.POLAR.0>
0

>  <SCORE.INTRA.REPUL>
0.0710219

>  <SCORE.INTRA.REPUL.0>
0.12705

>  <SCORE.INTRA.SOLV>
-5.14242

>  <SCORE.INTRA.SOLV.lig_0>
-119.383

>  <SCORE.INTRA.VDW>
0.887346

>  <SCORE.INTRA.VDW.0>
-5.10464

>  <SCORE.INTRA.norm>
-0.773286

>  <SCORE.RESTR>
0.644232

>  <SCORE.RESTR.CAVITY>
0.644232

>  <SCORE.RESTR.norm>
0.0201322

>  <SCORE.SYSTEM>
0

>  <SCORE.SYSTEM.CONST>
0

>  <SCORE.SYSTEM.DIHEDRAL>
0

>  <SCORE.SYSTEM.SOLV>
0

>  <SCORE.SYSTEM.norm>
0

>  <SCORE.heavy>
32

>  <SCORE.norm>
-1.08013

>  <RMSD>
6.961

$$$$
2au4_lig
 OpenBabel11021811423D
libRbt.so/2013.1/901 2013/11/27
 32 34  0  0  0  0  0  0  0  0999 V2000
   67.9409   11.3105   -1.3747 P   0  0  1  0  0  0  0  0  0  0  0  0
   67.7199    8.6093   -1.2191 P   0  0  1  0  0  0  0  0  0  0  0  0
   65.2072    7.7489   -1.8409 P   0  0  2  0  0  0  0  0  0  0  0  0
   70.1489   12.5415   -0.5749 C   0  0  0  0  0  0  0  0  0  0  0  0
   68.7195   12.4126   -0.4981 O   0  0  0  0  0  0  0  0  0  0  0  0
   70.7253   13.3325    0.5903 C   0  0  0  0  0  0  0  0  0  0  0  0
   70.0606   12.9803    1.8209 O   0  0  0  0  0  0  0  0  0  0  0  0
   72.2102   13.0475    0.7523 C   0  0  0  0  0  0  0  0  0  0  0  0
   72.9864   14.2302    0.5250 O   0  0  0  0  0  0  0  0  0  0  0  0
   72.3978   12.5375    2.1613 C   0  0  0  0  0  0  0  0  0  0  0  0
   73.3074   13.3668    2.8968 O   0  0  0  0  0  0  0  0  0  0  0  0
   71.0219   12.5427    2.8046 C   0  0  0  0  0  0  0  0  0  0  0  0
   67.2785    9.2440    3.8872 N   0  0  0  0  0  0  0  0  0  0  0  0
   66.4890   11.5501   -1.2509 O   0  5  0  0  0  0  0  0  0  0  0  0
   68.3545    8.3984   -2.5348 O   0  5  0  0  0  0  0  0  0  0  0  0
   63.8999    8.3296   -2.2082 O   0  5  0  0  0  0  0  0  0  0  0  0
   67.1981   10.5186    3.3787 C   0  0  1  0  0  0  0  0  0  0  0  0
   65.9783   10.9767    3.1309 N   0  0  0  0  0  0  0  0  0  0  0  0
   68.5691   11.2406   -2.7114 O   0  0  0  0  0  0  0  0  0  0  0  0
   67.8066    7.5641   -0.1782 O   0  0  0  0  0  0  0  0  0  0  0  0
   65.2903    6.7324   -0.7714 O   0  0  0  0  0  0  0  0  0  0  0  0
   68.2565   11.2877    3.1360 N   0  0  0  0  0  0  0  0  0  0  0  0
   68.2797    9.9620   -0.6084 O   0  0  0  0  0  0  0  0  0  0  0  0
   66.1847    8.9454   -1.4541 O   0  0  0  0  0  0  0  0  0  0  0  0
   65.8884    7.1506   -3.1670 O   0  0  0  0  0  0  0  0  0  0  0  0
   69.4184   10.6691    3.4490 C   0  0  2  0  0  0  0  0  0  0  0  0
   69.5890    9.3936    3.9627 C   0  0  2  0  0  0  0  0  0  0  0  0
   68.4515    8.5883    4.2156 C   0  0  1  0  0  0  0  0  0  0  0  0
   68.4098    7.4592    4.6855 O   0  0  0  0  0  0  0  0  0  0  0  0
   70.9456    9.1117    4.1558 N   0  0  0  0  0  0  0  0  0  0  0  0
   71.4955   10.2115    3.7556 C   0  0  0  0  0  0  0  0  0  0  0  0
   70.6790   11.2013    3.3159 N   0  0  0  0  0  0  0  0  0  0  0  0
  1  5  1  1  0  0  0
  1 14  1  0  0  0  0
  1 19  2  0  0  0  0
  2 15  1  6  0  0  0
  2 20  2  0  0  0  0
  2 23  1  0  0  0  0
  3 16  1  6  0  0  0
  3 21  2  0  0  0  0
  3 24  1  0  0  0  0
  3 25  1  0  0  0  0
  4  6  1  0  0  0  0
  5  4  1  0  0  0  0
  6  7  1  0  0  0  0
  6  8  2  0  0  0  0
  7 12  1  0  0  0  0
  8  9  1  0  0  0  0
  8 10  1  0  0  0  0
 10 11  1  0  0  0  0
 10 12  2  0  0  0  0
 12 32  1  0  0  0  0
 13 17  1  0  0  0  0
 17 18  1  1  0  0  0
 17 22  1  0  0  0  0
 23  1  1  0  0  0  0
 24  2  1  0  0  0  0
 26 22  1  1  0  0  0
 27 26  1  0  0  0  0
 27 28  1  0  0  0  0
 27 30  1  1  0  0  0
 28 13  1  0  0  0  0
 28 29  1  1  0  0  0
 31 30  1  0  0  0  0
 32 26  1  0  0  0  0
 32 31  1  0  0  0  0
M  CHG  3  14  -1  15  -1  16  -1
M  END
>  <CHROM.1>
-171.32306520,64.49822493,-171.39842404,40.22238149,-163.46244046,-31.08838583
-177.70653028,75.67204147,68.52232176,10.24053909,0.65616218,-2.78639500
0.77000101,1.92863000

>  <Name>
2au4_lig

>  <RI>
0

>  <Rbt.Current_Directory>
/home/itssahil/PROJECTS/Mol_Feturizer/New_Systems/rnas/2au4

>  <Rbt.Executable>
rbdock ($Id: //depot/dev/client3/rdock/2013.1/src/exe/rbdock.cxx#4 $)

>  <Rbt.Library>
libRbt.so (2013.1, Build901 2013/11/27)

>  <Rbt.Parameter_File>
/export/apps/rDock/src/rDock_2013.1_src/data/scripts/dock_solv.prm

>  <Rbt.Receptor>
prm/pocket_docking_4.prm

>  <SCORE>
-43.4721

>  <SCORE.INTER>
-17.302

>  <SCORE.INTER.CONST>
1

>  <SCORE.INTER.POLAR>
-1.8882

>  <SCORE.INTER.ROT>
8

>  <SCORE.INTER.SOLV>
23.1729

>  <SCORE.INTER.VDW>
-21.8983

>  <SCORE.INTER.norm>
-0.540688

>  <SCORE.INTRA>
-26.1701

>  <SCORE.INTRA.DIHEDRAL>
-49.04

>  <SCORE.INTRA.DIHEDRAL.0>
76.3625

>  <SCORE.INTRA.POLAR>
0

>  <SCORE.INTRA.POLAR.0>
0

>  <SCORE.INTRA.REPUL>
0.0604125

>  <SCORE.INTRA.REPUL.0>
0.12705

>  <SCORE.INTRA.SOLV>
-5.61823

>  <SCORE.INTRA.SOLV.lig_0>
-119.383

>  <SCORE.INTRA.VDW>
0.856999

>  <SCORE.INTRA.VDW.0>
-5.10464

>  <SCORE.INTRA.norm>
-0.817815

>  <SCORE.RESTR>
0

>  <SCORE.RESTR.CAVITY>
0

>  <SCORE.RESTR.norm>
0

>  <SCORE.SYSTEM>
0

>  <SCORE.SYSTEM.CONST>
0

>  <SCORE.SYSTEM.DIHEDRAL>
0

>  <SCORE.SYSTEM.SOLV>
0

>  <SCORE.SYSTEM.norm>
0

>  <SCORE.heavy>
32

>  <SCORE.norm>
-1.3585

>  <RMSD>
7.014

$$$$
2au4_lig
 OpenBabel11021811423D
libRbt.so/2013.1/901 2013/11/27
 32 34  0  0  0  0  0  0  0  0999 V2000
   70.9468   12.4696    4.7732 P   0  0  1  0  0  0  0  0  0  0  0  0
   71.9173   13.8367    2.6381 P   0  0  1  0  0  0  0  0  0  0  0  0
   73.2463   12.2302    0.8793 P   0  0  2  0  0  0  0  0  0  0  0  0
   68.8987   11.0647    5.7017 C   0  0  0  0  0  0  0  0  0  0  0  0
   70.0397   11.1417    4.8312 O   0  0  0  0  0  0  0  0  0  0  0  0
   68.3067    9.6642    5.7627 C   0  0  0  0  0  0  0  0  0  0  0  0
   66.9511    9.6644    5.2701 O   0  0  0  0  0  0  0  0  0  0  0  0
   69.1211    8.6982    4.9165 C   0  0  0  0  0  0  0  0  0  0  0  0
   69.7191    7.6826    5.7312 O   0  0  0  0  0  0  0  0  0  0  0  0
   68.1660    8.0968    3.9132 C   0  0  0  0  0  0  0  0  0  0  0  0
   68.1149    6.6691    4.0362 O   0  0  0  0  0  0  0  0  0  0  0  0
   66.8062    8.7119    4.1954 C   0  0  0  0  0  0  0  0  0  0  0  0
   66.6191    8.6926   -0.9067 N   0  0  0  0  0  0  0  0  0  0  0  0
   70.0685   13.6469    4.9256 O   0  5  0  0  0  0  0  0  0  0  0  0
   70.7453   14.7336    2.6391 O   0  5  0  0  0  0  0  0  0  0  0  0
   73.7555   12.3469   -0.5022 O   0  5  0  0  0  0  0  0  0  0  0  0
   67.2944    7.8507   -0.0553 C   0  0  1  0  0  0  0  0  0  0  0  0
   68.0103    6.8900   -0.6240 N   0  0  0  0  0  0  0  0  0  0  0  0
   72.1064   12.2887    5.6727 O   0  0  0  0  0  0  0  0  0  0  0  0
   73.1790   14.2649    3.2771 O   0  0  0  0  0  0  0  0  0  0  0  0
   72.5845   10.9847    1.3205 O   0  0  0  0  0  0  0  0  0  0  0  0
   67.2640    7.9575    1.2708 N   0  0  0  0  0  0  0  0  0  0  0  0
   71.4841   12.4520    3.2795 O   0  0  0  0  0  0  0  0  0  0  0  0
   72.2372   13.4358    1.1341 O   0  0  0  0  0  0  0  0  0  0  0  0
   74.4489   12.5555    1.8935 O   0  0  0  0  0  0  0  0  0  0  0  0
   66.4927    8.9906    1.6813 C   0  0  2  0  0  0  0  0  0  0  0  0
   65.7812    9.8827    0.8954 C   0  0  2  0  0  0  0  0  0  0  0  0
   65.8247    9.7551   -0.5146 C   0  0  1  0  0  0  0  0  0  0  0  0
   65.2854   10.4590   -1.3578 O   0  0  0  0  0  0  0  0  0  0  0  0
   65.1039   10.8149    1.6888 N   0  0  0  0  0  0  0  0  0  0  0  0
   65.4431   10.4346    2.8772 C   0  0  0  0  0  0  0  0  0  0  0  0
   66.2651    9.3612    2.9855 N   0  0  0  0  0  0  0  0  0  0  0  0
  1  5  1  1  0  0  0
  1 14  1  0  0  0  0
  1 19  2  0  0  0  0
  2 15  1  1  0  0  0
  2 20  2  0  0  0  0
  2 23  1  0  0  0  0
  3 16  1  6  0  0  0
  3 21  2  0  0  0  0
  3 24  1  0  0  0  0
  3 25  1  0  0  0  0
  4  6  1  0  0  0  0
  5  4  1  0  0  0  0
  6  7  1  0  0  0  0
  6  8  2  0  0  0  0
  7 12  1  0  0  0  0
  8  9  1  0  0  0  0
  8 10  1  0  0  0  0
 10 11  1  0  0  0  0
 10 12  2  0  0  0  0
 12 32  1  0  0  0  0
 13 17  1  0  0  0  0
 17 18  1  6  0  0  0
 17 22  1  0  0  0  0
 23  1  1  0  0  0  0
 24  2  1  0  0  0  0
 26 22  1  6  0  0  0
 27 26  1  0  0  0  0
 27 28  1  0  0  0  0
 27 30  1  6  0  0  0
 28 13  1  0  0  0  0
 28 29  1  6  0  0  0
 31 30  1  0  0  0  0
 32 26  1  0  0  0  0
 32 31  1  0  0  0  0
M  CHG  3  14  -1  15  -1  16  -1
M  END
>  <CHROM.1>
-36.26763097,-59.96200884,-160.16903554,-117.90334888,-171.34647471,150.91645412
155.73259958,-166.75266306,69.54480205,10.87511235,2.65011845,0.09176228
0.62256086,1.61367129

>  <Name>
2au4_lig

>  <RI>
0

>  <Rbt.Current_Directory>
/home/itssahil/PROJECTS/Mol_Feturizer/New_Systems/rnas/2au4

>  <Rbt.Executable>
rbdock ($Id: //depot/dev/client3/rdock/2013.1/src/exe/rbdock.cxx#4 $)

>  <Rbt.Library>
libRbt.so (2013.1, Build901 2013/11/27)

>  <Rbt.Parameter_File>
/export/apps/rDock/src/rDock_2013.1_src/data/scripts/dock_solv.prm

>  <Rbt.Receptor>
prm/pocket_docking_6.prm

>  <SCORE>
-44.9439

>  <SCORE.INTER>
-19.6866

>  <SCORE.INTER.CONST>
1

>  <SCORE.INTER.POLAR>
-2.63127

>  <SCORE.INTER.ROT>
8

>  <SCORE.INTER.SOLV>
17.6778

>  <SCORE.INTER.VDW>
-19.1795

>  <SCORE.INTER.norm>
-0.615207

>  <SCORE.INTRA>
-25.3411

>  <SCORE.INTRA.DIHEDRAL>
-48.5806

>  <SCORE.INTRA.DIHEDRAL.0>
76.3625

>  <SCORE.INTRA.POLAR>
0

>  <SCORE.INTRA.POLAR.0>
0

>  <SCORE.INTRA.REPUL>
-0.12705

>  <SCORE.INTRA.REPUL.0>
0.12705

>  <SCORE.INTRA.SOLV>
-6.19183

>  <SCORE.INTRA.SOLV.lig_0>
-119.383

>  <SCORE.INTRA.VDW>
2.68037

>  <SCORE.INTRA.VDW.0>
-5.10464

>  <SCORE.INTRA.norm>
-0.791909

>  <SCORE.RESTR>
0.0837765

>  <SCORE.RESTR.CAVITY>
0.0837765

>  <SCORE.RESTR.norm>
0.00261801

>  <SCORE.SYSTEM>
0

>  <SCORE.SYSTEM.CONST>
0

>  <SCORE.SYSTEM.DIHEDRAL>
0

>  <SCORE.SYSTEM.SOLV>
0

>  <SCORE.SYSTEM.norm>
0

>  <SCORE.heavy>
32

>  <SCORE.norm>
-1.4045

>  <RMSD>
7.014

$$$$
2au4_lig
 OpenBabel11021811423D
libRbt.so/2013.1/901 2013/11/27
 32 34  0  0  0  0  0  0  0  0999 V2000
   67.9694   11.4457   -1.4866 P   0  0  1  0  0  0  0  0  0  0  0  0
   67.8163    8.7419   -1.2987 P   0  0  1  0  0  0  0  0  0  0  0  0
   65.3910    7.7034   -1.9916 P   0  0  2  0  0  0  0  0  0  0  0  0
   70.2212   12.5422   -0.6162 C   0  0  0  0  0  0  0  0  0  0  0  0
   68.7846   12.5574   -0.6565 O   0  0  0  0  0  0  0  0  0  0  0  0
   70.7791   13.3449    0.5500 C   0  0  0  0  0  0  0  0  0  0  0  0
   70.0881   13.0124    1.7715 O   0  0  0  0  0  0  0  0  0  0  0  0
   72.2588   13.0536    0.7452 C   0  0  0  0  0  0  0  0  0  0  0  0
   73.0464   14.2288    0.5182 O   0  0  0  0  0  0  0  0  0  0  0  0
   72.4155   12.5608    2.1640 C   0  0  0  0  0  0  0  0  0  0  0  0
   73.3152   13.3944    2.9068 O   0  0  0  0  0  0  0  0  0  0  0  0
   71.0271   12.5822    2.7797 C   0  0  0  0  0  0  0  0  0  0  0  0
   67.2402    9.3393    3.8795 N   0  0  0  0  0  0  0  0  0  0  0  0
   66.5278   11.7520   -1.3939 O   0  5  0  0  0  0  0  0  0  0  0  0
   68.5465    8.5843   -2.5715 O   0  5  0  0  0  0  0  0  0  0  0  0
   66.1202    6.9099   -3.0015 O   0  5  0  0  0  0  0  0  0  0  0  0
   67.1769   10.6105    3.3601 C   0  0  1  0  0  0  0  0  0  0  0  0
   65.9636   11.0816    3.1051 N   0  0  0  0  0  0  0  0  0  0  0  0
   68.6086   11.2817   -2.8098 O   0  0  0  0  0  0  0  0  0  0  0  0
   67.9073    7.6973   -0.2575 O   0  0  0  0  0  0  0  0  0  0  0  0
   64.0187    8.1749   -2.2718 O   0  0  0  0  0  0  0  0  0  0  0  0
   68.2455   11.3643    3.1139 N   0  0  0  0  0  0  0  0  0  0  0  0
   68.2423   10.1250   -0.6491 O   0  0  0  0  0  0  0  0  0  0  0  0
   66.2798    8.9748   -1.6307 O   0  0  0  0  0  0  0  0  0  0  0  0
   65.3756    6.8799   -0.6124 O   0  0  0  0  0  0  0  0  0  0  0  0
   69.3988   10.7341    3.4353 C   0  0  2  0  0  0  0  0  0  0  0  0
   69.5520    9.4609    3.9601 C   0  0  2  0  0  0  0  0  0  0  0  0
   68.4040    8.6719    4.2165 C   0  0  1  0  0  0  0  0  0  0  0  0
   68.3470    7.5474    4.6958 O   0  0  0  0  0  0  0  0  0  0  0  0
   70.9045    9.1638    4.1593 N   0  0  0  0  0  0  0  0  0  0  0  0
   71.4691   10.2533    3.7515 C   0  0  0  0  0  0  0  0  0  0  0  0
   70.6662   11.2495    3.3013 N   0  0  0  0  0  0  0  0  0  0  0  0
  1  5  1  1  0  0  0
  1 14  1  0  0  0  0
  1 19  2  0  0  0  0
  2 15  1  6  0  0  0
  2 20  2  0  0  0  0
  2 23  1  0  0  0  0
  3 16  1  6  0  0  0
  3 21  2  0  0  0  0
  3 24  1  0  0  0  0
  3 25  1  0  0  0  0
  4  6  1  0  0  0  0
  5  4  1  0  0  0  0
  6  7  1  0  0  0  0
  6  8  2  0  0  0  0
  7 12  1  0  0  0  0
  8  9  1  0  0  0  0
  8 10  1  0  0  0  0
 10 11  1  0  0  0  0
 10 12  2  0  0  0  0
 12 32  1  0  0  0  0
 13 17  1  0  0  0  0
 17 18  1  1  0  0  0
 17 22  1  0  0  0  0
 23  1  1  0  0  0  0
 24  2  1  0  0  0  0
 26 22  1  1  0  0  0
 27 26  1  0  0  0  0
 27 28  1  0  0  0  0
 27 30  1  1  0  0  0
 28 13  1  0  0  0  0
 28 29  1  1  0  0  0
 31 30  1  0  0  0  0
 32 26  1  0  0  0  0
 32 31  1  0  0  0  0
M  CHG  3  14  -1  15  -1  16  -1
M  END
>  <CHROM.1>
-177.46065643,59.56817923,-48.34554778,47.23941456,-160.87818087,-32.16997329
-169.09072082,79.54957820,68.56856364,10.29978180,0.61426024,-2.75891594
0.77748306,1.90169824

>  <Name>
2au4_lig

>  <RI>
0

>  <Rbt.Current_Directory>
/home/itssahil/PROJECTS/Mol_Feturizer/New_Systems/rnas/2au4

>  <Rbt.Executable>
rbdock ($Id: //depot/dev/client3/rdock/2013.1/src/exe/rbdock.cxx#4 $)

>  <Rbt.Library>
libRbt.so (2013.1, Build901 2013/11/27)

>  <Rbt.Parameter_File>
/export/apps/rDock/src/rDock_2013.1_src/data/scripts/dock_solv.prm

>  <Rbt.Receptor>
prm/pocket_docking_6.prm

>  <SCORE>
-42.7425

>  <SCORE.INTER>
-16.6013

>  <SCORE.INTER.CONST>
1

>  <SCORE.INTER.POLAR>
-1.92471

>  <SCORE.INTER.ROT>
8

>  <SCORE.INTER.SOLV>
26.4985

>  <SCORE.INTER.VDW>
-22.418

>  <SCORE.INTER.norm>
-0.518791

>  <SCORE.INTRA>
-26.1412

>  <SCORE.INTRA.DIHEDRAL>
-48.4937

>  <SCORE.INTRA.DIHEDRAL.0>
76.3625

>  <SCORE.INTRA.POLAR>
0

>  <SCORE.INTRA.POLAR.0>
0

>  <SCORE.INTRA.REPUL>
0.0564278

>  <SCORE.INTRA.REPUL.0>
0.12705

>  <SCORE.INTRA.SOLV>
-6.01096

>  <SCORE.INTRA.SOLV.lig_0>
-119.383

>  <SCORE.INTRA.VDW>
0.828948

>  <SCORE.INTRA.VDW.0>
-5.10464

>  <SCORE.INTRA.norm>
-0.816913

>  <SCORE.RESTR>
0

>  <SCORE.RESTR.CAVITY>
0

>  <SCORE.RESTR.norm>
0

>  <SCORE.SYSTEM>
0

>  <SCORE.SYSTEM.CONST>
0

>  <SCORE.SYSTEM.DIHEDRAL>
0

>  <SCORE.SYSTEM.SOLV>
0

>  <SCORE.SYSTEM.norm>
0

>  <SCORE.heavy>
32

>  <SCORE.norm>
-1.3357

>  <RMSD>
7.023

$$$$
2au4_lig
 OpenBabel11021811423D
libRbt.so/2013.1/901 2013/11/27
 32 34  0  0  0  0  0  0  0  0999 V2000
   65.4387    8.3785   -1.1894 P   0  0  1  0  0  0  0  0  0  0  0  0
   66.4584    6.2765   -2.5719 P   0  0  1  0  0  0  0  0  0  0  0  0
   68.7548    4.8167   -2.3816 P   0  0  2  0  0  0  0  0  0  0  0  0
   67.1266   10.3603   -1.6937 C   0  0  0  0  0  0  0  0  0  0  0  0
   65.8561    9.9326   -1.1754 O   0  0  0  0  0  0  0  0  0  0  0  0
   67.4937   11.7675   -1.2461 C   0  0  0  0  0  0  0  0  0  0  0  0
   66.7638   12.1280   -0.0555 O   0  0  0  0  0  0  0  0  0  0  0  0
   68.9804   11.8649   -0.9415 C   0  0  0  0  0  0  0  0  0  0  0  0
   69.6283   12.7755   -1.8382 O   0  0  0  0  0  0  0  0  0  0  0  0
   69.0952   12.3370    0.4883 C   0  0  0  0  0  0  0  0  0  0  0  0
   69.8272   13.5672    0.5718 O   0  0  0  0  0  0  0  0  0  0  0  0
   67.6744   12.5189    0.9939 C   0  0  0  0  0  0  0  0  0  0  0  0
   69.7608   10.5023    5.1947 N   0  0  0  0  0  0  0  0  0  0  0  0
   66.0379    7.7194   -0.0116 O   0  5  0  0  0  0  0  0  0  0  0  0
   65.5902    5.5965   -1.5912 O   0  5  0  0  0  0  0  0  0  0  0  0
   68.6472    4.5496   -3.8302 O   0  5  0  0  0  0  0  0  0  0  0  0
   70.3471   11.2534    4.2038 C   0  0  1  0  0  0  0  0  0  0  0  0
   71.6439   11.4961    4.3396 N   0  0  0  0  0  0  0  0  0  0  0  0
   63.9832    8.2828   -1.4316 O   0  0  0  0  0  0  0  0  0  0  0  0
   66.4187    5.8830   -3.9956 O   0  0  0  0  0  0  0  0  0  0  0  0
   68.3153    3.7964   -1.4071 O   0  0  0  0  0  0  0  0  0  0  0  0
   69.6913   11.7281    3.1478 N   0  0  0  0  0  0  0  0  0  0  0  0
   66.1824    7.8361   -2.4828 O   0  0  0  0  0  0  0  0  0  0  0  0
   67.9619    6.1625   -2.0703 O   0  0  0  0  0  0  0  0  0  0  0  0
   70.2747    5.2172   -2.0501 O   0  0  0  0  0  0  0  0  0  0  0  0
   68.3827   11.3846    3.1637 C   0  0  2  0  0  0  0  0  0  0  0  0
   67.7140   10.6351    4.1181 C   0  0  2  0  0  0  0  0  0  0  0  0
   68.4272   10.1370    5.2359 C   0  0  1  0  0  0  0  0  0  0  0  0
   68.0113    9.4441    6.1548 O   0  0  0  0  0  0  0  0  0  0  0  0
   66.3634   10.4922    3.7826 N   0  0  0  0  0  0  0  0  0  0  0  0
   66.3045   11.1497    2.6707 C   0  0  0  0  0  0  0  0  0  0  0  0
   67.4473   11.7193    2.2134 N   0  0  0  0  0  0  0  0  0  0  0  0
  1  5  1  1  0  0  0
  1 14  1  0  0  0  0
  1 19  2  0  0  0  0
  2 15  1  1  0  0  0
  2 20  2  0  0  0  0
  2 23  1  0  0  0  0
  3 16  1  6  0  0  0
  3 21  2  0  0  0  0
  3 24  1  0  0  0  0
  3 25  1  0  0  0  0
  4  6  1  0  0  0  0
  5  4  1  0  0  0  0
  6  7  1  0  0  0  0
  6  8  2  0  0  0  0
  7 12  1  0  0  0  0
  8  9  1  0  0  0  0
  8 10  1  0  0  0  0
 10 11  1  0  0  0  0
 10 12  2  0  0  0  0
 12 32  1  0  0  0  0
 13 17  1  0  0  0  0
 17 18  1  6  0  0  0
 17 22  1  0  0  0  0
 23  1  1  0  0  0  0
 24  2  1  0  0  0  0
 26 22  1  6  0  0  0
 27 26  1  0  0  0  0
 27 28  1  0  0  0  0
 27 30  1  6  0  0  0
 28 13  1  0  0  0  0
 28 29  1  6  0  0  0
 31 30  1  0  0  0  0
 32 26  1  0  0  0  0
 32 31  1  0  0  0  0
M  CHG  3  14  -1  15  -1  16  -1
M  END
>  <CHROM.1>
82.79550162,17.03659883,52.56827228,21.41141673,-163.93145610,150.63654969
158.45919908,82.17367641,67.69963518,9.01161767,0.09876112,2.04812923,1.15158763
-2.79369893

>  <Name>
2au4_lig

>  <RI>
0

>  <Rbt.Current_Directory>
/home/itssahil/PROJECTS/Mol_Feturizer/New_Systems/rnas/2au4

>  <Rbt.Executable>
rbdock ($Id: //depot/dev/client3/rdock/2013.1/src/exe/rbdock.cxx#4 $)

>  <Rbt.Library>
libRbt.so (2013.1, Build901 2013/11/27)

>  <Rbt.Parameter_File>
/export/apps/rDock/src/rDock_2013.1_src/data/scripts/dock_solv.prm

>  <Rbt.Receptor>
prm/pocket_docking_4.prm

>  <SCORE>
-31.3593

>  <SCORE.INTER>
-7.78822

>  <SCORE.INTER.CONST>
1

>  <SCORE.INTER.POLAR>
-0.553687

>  <SCORE.INTER.ROT>
8

>  <SCORE.INTER.SOLV>
30.7928

>  <SCORE.INTER.VDW>
-22.5441

>  <SCORE.INTER.norm>
-0.243382

>  <SCORE.INTRA>
-23.6732

>  <SCORE.INTRA.DIHEDRAL>
-46.0209

>  <SCORE.INTRA.DIHEDRAL.0>
76.3625

>  <SCORE.INTRA.POLAR>
0

>  <SCORE.INTRA.POLAR.0>
0

>  <SCORE.INTRA.REPUL>
-0.12705

>  <SCORE.INTRA.REPUL.0>
0.12705

>  <SCORE.INTRA.SOLV>
-4.8645

>  <SCORE.INTRA.SOLV.lig_0>
-119.383

>  <SCORE.INTRA.VDW>
2.4047

>  <SCORE.INTRA.VDW.0>
-5.10464

>  <SCORE.INTRA.norm>
-0.739789

>  <SCORE.RESTR>
0.102116

>  <SCORE.RESTR.CAVITY>
0.102116

>  <SCORE.RESTR.norm>
0.00319112

>  <SCORE.SYSTEM>
0

>  <SCORE.SYSTEM.CONST>
0

>  <SCORE.SYSTEM.DIHEDRAL>
0

>  <SCORE.SYSTEM.SOLV>
0

>  <SCORE.SYSTEM.norm>
0

>  <SCORE.heavy>
32

>  <SCORE.norm>
-0.97998

>  <RMSD>
7.028

$$$$
2au4_lig
 OpenBabel11021811423D
libRbt.so/2013.1/901 2013/11/27
 32 34  0  0  0  0  0  0  0  0999 V2000
   67.9863    6.6331   -1.2417 P   0  0  1  0  0  0  0  0  0  0  0  0
   70.2805    5.1874   -1.3688 P   0  0  1  0  0  0  0  0  0  0  0  0
   72.6717    4.2028   -2.2369 P   0  0  2  0  0  0  0  0  0  0  0  0
   68.3181    6.6173    1.3890 C   0  0  0  0  0  0  0  0  0  0  0  0
   67.8994    5.9253    0.2009 O   0  0  0  0  0  0  0  0  0  0  0  0
   67.1631    7.3119    2.0953 C   0  0  0  0  0  0  0  0  0  0  0  0
   67.4751    7.5271    3.4870 O   0  0  0  0  0  0  0  0  0  0  0  0
   66.8755    8.6620    1.4572 C   0  0  0  0  0  0  0  0  0  0  0  0
   65.5660    8.6851    0.8761 O   0  0  0  0  0  0  0  0  0  0  0  0
   67.0002    9.6908    2.5556 C   0  0  0  0  0  0  0  0  0  0  0  0
   65.7787   10.4230    2.7223 O   0  0  0  0  0  0  0  0  0  0  0  0
   67.3478    8.9255    3.8208 C   0  0  0  0  0  0  0  0  0  0  0  0
   70.5020   12.9144    4.2748 N   0  0  0  0  0  0  0  0  0  0  0  0
   67.2936    5.7794   -2.2276 O   0  5  0  0  0  0  0  0  0  0  0  0
   70.6992    5.0727    0.0417 O   0  5  0  0  0  0  0  0  0  0  0  0
   72.0005    2.9409   -2.6088 O   0  5  0  0  0  0  0  0  0  0  0  0
   69.3293   12.8059    3.5658 C   0  0  1  0  0  0  0  0  0  0  0  0
   68.9479   13.8827    2.8920 N   0  0  0  0  0  0  0  0  0  0  0  0
   67.6050    8.0540   -1.0941 O   0  0  0  0  0  0  0  0  0  0  0  0
   69.4431    4.1352   -1.9814 O   0  0  0  0  0  0  0  0  0  0  0  0
   73.4074    4.3001   -0.9589 O   0  0  0  0  0  0  0  0  0  0  0  0
   68.5873   11.7020    3.5255 N   0  0  0  0  0  0  0  0  0  0  0  0
   69.5414    6.5784   -1.5564 O   0  0  0  0  0  0  0  0  0  0  0  0
   71.5824    5.3645   -2.2626 O   0  0  0  0  0  0  0  0  0  0  0  0
   73.6633    4.6217   -3.4293 O   0  0  0  0  0  0  0  0  0  0  0  0
   69.1224   10.7011    4.2621 C   0  0  2  0  0  0  0  0  0  0  0  0
   70.2929   10.7254    5.0033 C   0  0  2  0  0  0  0  0  0  0  0  0
   71.0710   11.9085    5.0350 C   0  0  1  0  0  0  0  0  0  0  0  0
   72.1339   12.1032    5.6095 O   0  0  0  0  0  0  0  0  0  0  0  0
   70.5130    9.4928    5.6271 N   0  0  0  0  0  0  0  0  0  0  0  0
   69.4841    8.8174    5.2307 C   0  0  0  0  0  0  0  0  0  0  0  0
   68.5959    9.4405    4.4168 N   0  0  0  0  0  0  0  0  0  0  0  0
  1  5  1  1  0  0  0
  1 14  1  0  0  0  0
  1 19  2  0  0  0  0
  2 15  1  1  0  0  0
  2 20  2  0  0  0  0
  2 23  1  0  0  0  0
  3 16  1  6  0  0  0
  3 21  2  0  0  0  0
  3 24  1  0  0  0  0
  3 25  1  0  0  0  0
  4  6  1  0  0  0  0
  5  4  1  0  0  0  0
  6  7  1  0  0  0  0
  6  8  2  0  0  0  0
  7 12  1  0  0  0  0
  8  9  1  0  0  0  0
  8 10  1  0  0  0  0
 10 11  1  0  0  0  0
 10 12  2  0  0  0  0
 12 32  1  0  0  0  0
 13 17  1  0  0  0  0
 17 18  1  6  0  0  0
 17 22  1  0  0  0  0
 23  1  1  0  0  0  0
 24  2  1  0  0  0  0
 26 22  1  6  0  0  0
 27 26  1  0  0  0  0
 27 28  1  0  0  0  0
 27 30  1  6  0  0  0
 28 13  1  0  0  0  0
 28 29  1  6  0  0  0
 31 30  1  0  0  0  0
 32 26  1  0  0  0  0
 32 31  1  0  0  0  0
M  CHG  3  14  -1  15  -1  16  -1
M  END
>  <CHROM.1>
-170.94256817,-86.31664655,55.89780405,157.29437783,94.33868053,145.25702750
49.12266546,60.42525575,69.45995030,7.76036117,1.03685285,1.35342208,0.10774722
-2.35318284

>  <Name>
2au4_lig

>  <RI>
0

>  <Rbt.Current_Directory>
/home/itssahil/PROJECTS/Mol_Feturizer/New_Systems/rnas/2au4

>  <Rbt.Executable>
rbdock ($Id: //depot/dev/client3/rdock/2013.1/src/exe/rbdock.cxx#4 $)

>  <Rbt.Library>
libRbt.so (2013.1, Build901 2013/11/27)

>  <Rbt.Parameter_File>
/export/apps/rDock/src/rDock_2013.1_src/data/scripts/dock_solv.prm

>  <Rbt.Receptor>
prm/pocket_docking_5.prm

>  <SCORE>
-44.3123

>  <SCORE.INTER>
-22.0144

>  <SCORE.INTER.CONST>
1

>  <SCORE.INTER.POLAR>
-2.10032

>  <SCORE.INTER.ROT>
8

>  <SCORE.INTER.SOLV>
35.1119

>  <SCORE.INTER.VDW>
-28.3125

>  <SCORE.INTER.norm>
-0.68795

>  <SCORE.INTRA>
-23.0927

>  <SCORE.INTRA.DIHEDRAL>
-44.9213

>  <SCORE.INTRA.DIHEDRAL.0>
76.3625

>  <SCORE.INTRA.POLAR>
0

>  <SCORE.INTRA.POLAR.0>
0

>  <SCORE.INTRA.REPUL>
-0.12705

>  <SCORE.INTRA.REPUL.0>
0.12705

>  <SCORE.INTRA.SOLV>
-1.99533

>  <SCORE.INTRA.SOLV.lig_0>
-119.383

>  <SCORE.INTRA.VDW>
1.00082

>  <SCORE.INTRA.VDW.0>
-5.10464

>  <SCORE.INTRA.norm>
-0.721648

>  <SCORE.RESTR>
0.794824

>  <SCORE.RESTR.CAVITY>
0.794824

>  <SCORE.RESTR.norm>
0.0248383

>  <SCORE.SYSTEM>
0

>  <SCORE.SYSTEM.CONST>
0

>  <SCORE.SYSTEM.DIHEDRAL>
0

>  <SCORE.SYSTEM.SOLV>
0

>  <SCORE.SYSTEM.norm>
0

>  <SCORE.heavy>
32

>  <SCORE.norm>
-1.38476

>  <RMSD>
7.039

$$$$
2au4_lig
 OpenBabel11021811423D
libRbt.so/2013.1/901 2013/11/27
 32 34  0  0  0  0  0  0  0  0999 V2000
   66.6283    7.6356    0.4202 P   0  0  1  0  0  0  0  0  0  0  0  0
   65.0873    7.0433   -1.7347 P   0  0  1  0  0  0  0  0  0  0  0  0
   67.0976    6.0693   -3.3002 P   0  0  2  0  0  0  0  0  0  0  0  0
   68.7379    7.0569    1.9185 C   0  0  0  0  0  0  0  0  0  0  0  0
   67.4033    6.7274    1.4991 O   0  0  0  0  0  0  0  0  0  0  0  0
   68.7566    8.0212    3.0954 C   0  0  0  0  0  0  0  0  0  0  0  0
   69.6420    9.1284    2.8302 O   0  0  0  0  0  0  0  0  0  0  0  0
   67.3655    8.5760    3.3591 C   0  0  0  0  0  0  0  0  0  0  0  0
   66.8886    8.1713    4.6481 O   0  0  0  0  0  0  0  0  0  0  0  0
   67.4792   10.0791    3.2697 C   0  0  0  0  0  0  0  0  0  0  0  0
   67.0740   10.7043    4.4948 O   0  0  0  0  0  0  0  0  0  0  0  0
   68.9367   10.3804    2.9663 C   0  0  0  0  0  0  0  0  0  0  0  0
   72.1101   12.4151   -0.4770 N   0  0  0  0  0  0  0  0  0  0  0  0
   65.6617    8.4936    1.1346 O   0  5  0  0  0  0  0  0  0  0  0  0
   64.3105    5.9128   -2.2796 O   0  5  0  0  0  0  0  0  0  0  0  0
   68.4442    6.5245   -3.7010 O   0  5  0  0  0  0  0  0  0  0  0  0
   72.3970   11.6540    0.6312 C   0  0  1  0  0  0  0  0  0  0  0  0
   73.6800   11.4053    0.8574 N   0  0  0  0  0  0  0  0  0  0  0  0
   67.6240    8.2400   -0.4904 O   0  0  0  0  0  0  0  0  0  0  0  0
   64.4223    8.3325   -1.4535 O   0  0  0  0  0  0  0  0  0  0  0  0
   66.2174    5.4070   -4.2854 O   0  0  0  0  0  0  0  0  0  0  0  0
   71.4732   11.1754    1.4608 N   0  0  0  0  0  0  0  0  0  0  0  0
   65.8060    6.5582   -0.4064 O   0  0  0  0  0  0  0  0  0  0  0  0
   66.3120    7.3219   -2.7082 O   0  0  0  0  0  0  0  0  0  0  0  0
   67.2454    5.1084   -2.0214 O   0  0  0  0  0  0  0  0  0  0  0  0
   70.2212   11.5261    1.0863 C   0  0  2  0  0  0  0  0  0  0  0  0
   69.8450   12.2857   -0.0097 C   0  0  2  0  0  0  0  0  0  0  0  0
   70.8411   12.7878   -0.8824 C   0  0  1  0  0  0  0  0  0  0  0  0
   70.6978   13.4893   -1.8749 O   0  0  0  0  0  0  0  0  0  0  0  0
   68.4547   12.4334   -0.0596 N   0  0  0  0  0  0  0  0  0  0  0  0
   68.0884   11.7686    0.9872 C   0  0  0  0  0  0  0  0  0  0  0  0
   69.0584   11.1897    1.7381 N   0  0  0  0  0  0  0  0  0  0  0  0
  1  5  1  1  0  0  0
  1 14  1  0  0  0  0
  1 19  2  0  0  0  0
  2 15  1  6  0  0  0
  2 20  2  0  0  0  0
  2 23  1  0  0  0  0
  3 16  1  6  0  0  0
  3 21  2  0  0  0  0
  3 24  1  0  0  0  0
  3 25  1  0  0  0  0
  4  6  1  0  0  0  0
  5  4  1  0  0  0  0
  6  7  1  0  0  0  0
  6  8  2  0  0  0  0
  7 12  1  0  0  0  0
  8  9  1  0  0  0  0
  8 10  1  0  0  0  0
 10 11  1  0  0  0  0
 10 12  2  0  0  0  0
 12 32  1  0  0  0  0
 13 17  1  0  0  0  0
 17 18  1  1  0  0  0
 17 22  1  0  0  0  0
 23  1  1  0  0  0  0
 24  2  1  0  0  0  0
 26 22  1  1  0  0  0
 27 26  1  0  0  0  0
 27 28  1  0  0  0  0
 27 30  1  1  0  0  0
 28 13  1  0  0  0  0
 28 29  1  1  0  0  0
 31 30  1  0  0  0  0
 32 26  1  0  0  0  0
 32 31  1  0  0  0  0
M  CHG  3  14  -1  15  -1  16  -1
M  END
>  <CHROM.1>
-102.03994096,-175.95341893,-157.92312389,-130.16061068,87.85983366,-52.14005902
-170.03485184,-41.52497328,67.96802278,8.85796214,0.07079743,2.51622896,-0.76815449
-1.80194737

>  <Name>
2au4_lig

>  <RI>
0

>  <Rbt.Current_Directory>
/home/itssahil/PROJECTS/Mol_Feturizer/New_Systems/rnas/2au4

>  <Rbt.Executable>
rbdock ($Id: //depot/dev/client3/rdock/2013.1/src/exe/rbdock.cxx#4 $)

>  <Rbt.Library>
libRbt.so (2013.1, Build901 2013/11/27)

>  <Rbt.Parameter_File>
/export/apps/rDock/src/rDock_2013.1_src/data/scripts/dock_solv.prm

>  <Rbt.Receptor>
prm/pocket_docking_3.prm

>  <SCORE>
-31.9184

>  <SCORE.INTER>
-13.3034

>  <SCORE.INTER.CONST>
1

>  <SCORE.INTER.POLAR>
-0.8

>  <SCORE.INTER.ROT>
8

>  <SCORE.INTER.SOLV>
29.4643

>  <SCORE.INTER.VDW>
-24.9571

>  <SCORE.INTER.norm>
-0.415732

>  <SCORE.INTRA>
-19.0236

>  <SCORE.INTRA.DIHEDRAL>
-38.5843

>  <SCORE.INTRA.DIHEDRAL.0>
76.3625

>  <SCORE.INTRA.POLAR>
0

>  <SCORE.INTRA.POLAR.0>
0

>  <SCORE.INTRA.REPUL>
-0.0620326

>  <SCORE.INTRA.REPUL.0>
0.12705

>  <SCORE.INTRA.SOLV>
-0.0497168

>  <SCORE.INTRA.SOLV.lig_0>
-119.383

>  <SCORE.INTRA.VDW>
0.603616

>  <SCORE.INTRA.VDW.0>
-5.10464

>  <SCORE.INTRA.norm>
-0.594486

>  <SCORE.RESTR>
0.408582

>  <SCORE.RESTR.CAVITY>
0.408582

>  <SCORE.RESTR.norm>
0.0127682

>  <SCORE.SYSTEM>
0

>  <SCORE.SYSTEM.CONST>
0

>  <SCORE.SYSTEM.DIHEDRAL>
0

>  <SCORE.SYSTEM.SOLV>
0

>  <SCORE.SYSTEM.norm>
0

>  <SCORE.heavy>
32

>  <SCORE.norm>
-0.99745

>  <RMSD>
7.041

$$$$
2au4_lig
 OpenBabel11021811423D
libRbt.so/2013.1/901 2013/11/27
 32 34  0  0  0  0  0  0  0  0999 V2000
   66.2669    7.3202    0.3581 P   0  0  1  0  0  0  0  0  0  0  0  0
   65.6634    7.2079   -2.2862 P   0  0  1  0  0  0  0  0  0  0  0  0
   67.8011    6.3272   -3.7337 P   0  0  2  0  0  0  0  0  0  0  0  0
   66.7499    9.8901    0.7976 C   0  0  0  0  0  0  0  0  0  0  0  0
   65.8013    8.8548    0.4909 O   0  0  0  0  0  0  0  0  0  0  0  0
   66.3214   11.2489    0.2632 C   0  0  0  0  0  0  0  0  0  0  0  0
   67.1325   12.2968    0.8325 O   0  0  0  0  0  0  0  0  0  0  0  0
   66.4666   11.3025   -1.2496 C   0  0  0  0  0  0  0  0  0  0  0  0
   65.1919   11.4752   -1.8806 O   0  0  0  0  0  0  0  0  0  0  0  0
   67.3835   12.4638   -1.5516 C   0  0  0  0  0  0  0  0  0  0  0  0
   66.7394   13.4284   -2.3946 O   0  0  0  0  0  0  0  0  0  0  0  0
   67.7512   13.0778   -0.2118 C   0  0  0  0  0  0  0  0  0  0  0  0
   71.6272   13.5175    3.0821 N   0  0  0  0  0  0  0  0  0  0  0  0
   67.4351    7.1051    1.2355 O   0  5  0  0  0  0  0  0  0  0  0  0
   64.9981    5.8912   -2.2451 O   0  5  0  0  0  0  0  0  0  0  0  0
   68.2223    6.3055   -5.1491 O   0  5  0  0  0  0  0  0  0  0  0  0
   70.2736   13.5269    3.3215 C   0  0  1  0  0  0  0  0  0  0  0  0
   69.9012   13.6751    4.5858 N   0  0  0  0  0  0  0  0  0  0  0  0
   65.0760    6.4530    0.4838 O   0  0  0  0  0  0  0  0  0  0  0  0
   64.8630    8.4463   -2.1901 O   0  0  0  0  0  0  0  0  0  0  0  0
   67.4808    5.0632   -3.0383 O   0  0  0  0  0  0  0  0  0  0  0  0
   69.3520   13.4015    2.3699 N   0  0  0  0  0  0  0  0  0  0  0  0
   66.7665    7.2433   -1.1468 O   0  0  0  0  0  0  0  0  0  0  0  0
   66.5345    7.2853   -3.6130 O   0  0  0  0  0  0  0  0  0  0  0  0
   68.9175    7.1085   -2.8830 O   0  0  0  0  0  0  0  0  0  0  0  0
   69.9029   13.2649    1.1417 C   0  0  2  0  0  0  0  0  0  0  0  0
   71.2488   13.2444    0.8131 C   0  0  2  0  0  0  0  0  0  0  0  0
   72.2168   13.3797    1.8383 C   0  0  1  0  0  0  0  0  0  0  0  0
   73.4356   13.4085    1.7329 O   0  0  0  0  0  0  0  0  0  0  0  0
   71.4224   13.0865   -0.5660 N   0  0  0  0  0  0  0  0  0  0  0  0
   70.1968   13.0237   -0.9732 C   0  0  0  0  0  0  0  0  0  0  0  0
   69.2166   13.1194   -0.0406 N   0  0  0  0  0  0  0  0  0  0  0  0
  1  5  1  1  0  0  0
  1 14  1  0  0  0  0
  1 19  2  0  0  0  0
  2 15  1  1  0  0  0
  2 20  2  0  0  0  0
  2 23  1  0  0  0  0
  3 16  1  6  0  0  0
  3 21  2  0  0  0  0
  3 24  1  0  0  0  0
  3 25  1  0  0  0  0
  4  6  1  0  0  0  0
  5  4  1  0  0  0  0
  6  7  1  0  0  0  0
  6  8  2  0  0  0  0
  7 12  1  0  0  0  0
  8  9  1  0  0  0  0
  8 10  1  0  0  0  0
 10 11  1  0  0  0  0
 10 12  2  0  0  0  0
 12 32  1  0  0  0  0
 13 17  1  0  0  0  0
 17 18  1  6  0  0  0
 17 22  1  0  0  0  0
 23  1  1  0  0  0  0
 24  2  1  0  0  0  0
 26 22  1  6  0  0  0
 27 26  1  0  0  0  0
 27 28  1  0  0  0  0
 27 30  1  6  0  0  0
 28 13  1  0  0  0  0
 28 29  1  6  0  0  0
 31 30  1  0  0  0  0
 32 26  1  0  0  0  0
 32 31  1  0  0  0  0
M  CHG  3  14  -1  15  -1  16  -1
M  END
>  <CHROM.1>
29.52037593,-71.27726400,164.95504237,167.44348505,153.19794991,-41.03589033
-75.23850102,-67.29317164,67.86513305,9.90420329,-0.58698506,2.12385141,-0.51202386
-2.30699204

>  <Name>
2au4_lig

>  <RI>
0

>  <Rbt.Current_Directory>
/home/itssahil/PROJECTS/Mol_Feturizer/New_Systems/rnas/2au4

>  <Rbt.Executable>
rbdock ($Id: //depot/dev/client3/rdock/2013.1/src/exe/rbdock.cxx#4 $)

>  <Rbt.Library>
libRbt.so (2013.1, Build901 2013/11/27)

>  <Rbt.Parameter_File>
/export/apps/rDock/src/rDock_2013.1_src/data/scripts/dock_solv.prm

>  <Rbt.Receptor>
prm/pocket_docking_5.prm

>  <SCORE>
-39.3436

>  <SCORE.INTER>
-15.8918

>  <SCORE.INTER.CONST>
1

>  <SCORE.INTER.POLAR>
-1

>  <SCORE.INTER.ROT>
8

>  <SCORE.INTER.SOLV>
28.4443

>  <SCORE.INTER.VDW>
-25.676

>  <SCORE.INTER.norm>
-0.49662

>  <SCORE.INTRA>
-23.4517

>  <SCORE.INTRA.DIHEDRAL>
-43.9589

>  <SCORE.INTRA.DIHEDRAL.0>
76.3625

>  <SCORE.INTRA.POLAR>
0

>  <SCORE.INTRA.POLAR.0>
0

>  <SCORE.INTRA.REPUL>
0.00894042

>  <SCORE.INTRA.REPUL.0>
0.12705

>  <SCORE.INTRA.SOLV>
-5.09242

>  <SCORE.INTRA.SOLV.lig_0>
-119.383

>  <SCORE.INTRA.VDW>
1.02923

>  <SCORE.INTRA.VDW.0>
-5.10464

>  <SCORE.INTRA.norm>
-0.732866

>  <SCORE.RESTR>
0

>  <SCORE.RESTR.CAVITY>
0

>  <SCORE.RESTR.norm>
0

>  <SCORE.SYSTEM>
0

>  <SCORE.SYSTEM.CONST>
0

>  <SCORE.SYSTEM.DIHEDRAL>
0

>  <SCORE.SYSTEM.SOLV>
0

>  <SCORE.SYSTEM.norm>
0

>  <SCORE.heavy>
32

>  <SCORE.norm>
-1.22949

>  <RMSD>
7.048

$$$$
2au4_lig
 OpenBabel11021811423D
libRbt.so/2013.1/901 2013/11/27
 32 34  0  0  0  0  0  0  0  0999 V2000
   65.0094    7.2698   -1.0395 P   0  0  1  0  0  0  0  0  0  0  0  0
   67.5030    6.3907   -1.6547 P   0  0  1  0  0  0  0  0  0  0  0  0
   69.1928    6.5597    0.4800 P   0  0  2  0  0  0  0  0  0  0  0  0
   65.0593    9.5841    0.2537 C   0  0  0  0  0  0  0  0  0  0  0  0
   64.4355    8.3053    0.0504 O   0  0  0  0  0  0  0  0  0  0  0  0
   64.4970   10.3205    1.4607 C   0  0  0  0  0  0  0  0  0  0  0  0
   64.9855    9.7353    2.6851 O   0  0  0  0  0  0  0  0  0  0  0  0
   64.9058   11.7851    1.4364 C   0  0  0  0  0  0  0  0  0  0  0  0
   63.7591   12.6348    1.3099 O   0  0  0  0  0  0  0  0  0  0  0  0
   65.6362   12.0480    2.7316 C   0  0  0  0  0  0  0  0  0  0  0  0
   64.9938   13.0823    3.4892 O   0  0  0  0  0  0  0  0  0  0  0  0
   65.6334   10.7366    3.4979 C   0  0  0  0  0  0  0  0  0  0  0  0
   70.4014   12.2837    4.4673 N   0  0  0  0  0  0  0  0  0  0  0  0
   64.4791    5.9253   -0.7366 O   0  5  0  0  0  0  0  0  0  0  0  0
   67.2120    4.9663   -1.4007 O   0  5  0  0  0  0  0  0  0  0  0  0
   67.9608    6.0070    1.0782 O   0  5  0  0  0  0  0  0  0  0  0  0
   69.2880   13.0289    4.1596 C   0  0  1  0  0  0  0  0  0  0  0  0
   69.4589   14.3426    4.0966 N   0  0  0  0  0  0  0  0  0  0  0  0
   64.8266    7.8524   -2.3861 O   0  0  0  0  0  0  0  0  0  0  0  0
   67.4175    6.9315   -3.0272 O   0  0  0  0  0  0  0  0  0  0  0  0
   69.7495    7.8344    0.9791 O   0  0  0  0  0  0  0  0  0  0  0  0
   68.0871   12.5052    3.9264 N   0  0  0  0  0  0  0  0  0  0  0  0
   66.5645    7.2641   -0.7204 O   0  0  0  0  0  0  0  0  0  0  0  0
   68.9519    6.7126   -1.0870 O   0  0  0  0  0  0  0  0  0  0  0  0
   70.3408    5.4385    0.5532 O   0  0  0  0  0  0  0  0  0  0  0  0
   68.0913   11.1560    4.0268 C   0  0  2  0  0  0  0  0  0  0  0  0
   69.1622   10.3312    4.3313 C   0  0  2  0  0  0  0  0  0  0  0  0
   70.4338   10.9050    4.5763 C   0  0  1  0  0  0  0  0  0  0  0  0
   71.4869   10.3367    4.8324 O   0  0  0  0  0  0  0  0  0  0  0  0
   68.7701    8.9884    4.3396 N   0  0  0  0  0  0  0  0  0  0  0  0
   67.5148    9.0860    4.0452 C   0  0  0  0  0  0  0  0  0  0  0  0
   67.0099   10.3280    3.8394 N   0  0  0  0  0  0  0  0  0  0  0  0
  1  5  1  1  0  0  0
  1 14  1  0  0  0  0
  1 19  2  0  0  0  0
  2 15  1  1  0  0  0
  2 20  2  0  0  0  0
  2 23  1  0  0  0  0
  3 16  1  1  0  0  0
  3 21  2  0  0  0  0
  3 24  1  0  0  0  0
  3 25  1  0  0  0  0
  4  6  1  0  0  0  0
  5  4  1  0  0  0  0
  6  7  1  0  0  0  0
  6  8  2  0  0  0  0
  7 12  1  0  0  0  0
  8  9  1  0  0  0  0
  8 10  1  0  0  0  0
 10 11  1  0  0  0  0
 10 12  2  0  0  0  0
 12 32  1  0  0  0  0
 13 17  1  0  0  0  0
 17 18  1  6  0  0  0
 17 22  1  0  0  0  0
 23  1  1  0  0  0  0
 24  2  1  0  0  0  0
 26 22  1  6  0  0  0
 27 26  1  0  0  0  0
 27 28  1  0  0  0  0
 27 30  1  6  0  0  0
 28 13  1  0  0  0  0
 28 29  1  6  0  0  0
 31 30  1  0  0  0  0
 32 26  1  0  0  0  0
 32 31  1  0  0  0  0
M  CHG  3  14  -1  15  -1  16  -1
M  END
>  <CHROM.1>
161.93166794,-69.10569474,4.96960033,74.67656384,-171.48125057,147.91908684
-177.10717969,-63.06560449,67.27088423,9.01868303,1.36530419,1.77746922,0.39494792
-2.45651618

>  <Name>
2au4_lig

>  <RI>
0

>  <Rbt.Current_Directory>
/home/itssahil/PROJECTS/Mol_Feturizer/New_Systems/rnas/2au4

>  <Rbt.Executable>
rbdock ($Id: //depot/dev/client3/rdock/2013.1/src/exe/rbdock.cxx#4 $)

>  <Rbt.Library>
libRbt.so (2013.1, Build901 2013/11/27)

>  <Rbt.Parameter_File>
/export/apps/rDock/src/rDock_2013.1_src/data/scripts/dock_solv.prm

>  <Rbt.Receptor>
prm/pocket_docking_4.prm

>  <SCORE>
-32.3965

>  <SCORE.INTER>
-7.66703

>  <SCORE.INTER.CONST>
1

>  <SCORE.INTER.POLAR>
-0.753978

>  <SCORE.INTER.ROT>
8

>  <SCORE.INTER.SOLV>
23.0369

>  <SCORE.INTER.VDW>
-19.2104

>  <SCORE.INTER.norm>
-0.239595

>  <SCORE.INTRA>
-24.7352

>  <SCORE.INTRA.DIHEDRAL>
-47.8116

>  <SCORE.INTRA.DIHEDRAL.0>
76.3625

>  <SCORE.INTRA.POLAR>
0

>  <SCORE.INTRA.POLAR.0>
0

>  <SCORE.INTRA.REPUL>
-0.12705

>  <SCORE.INTRA.REPUL.0>
0.12705

>  <SCORE.INTRA.SOLV>
-3.3256

>  <SCORE.INTRA.SOLV.lig_0>
-119.383

>  <SCORE.INTRA.VDW>
1.46867

>  <SCORE.INTRA.VDW.0>
-5.10464

>  <SCORE.INTRA.norm>
-0.772974

>  <SCORE.RESTR>
0.0057126

>  <SCORE.RESTR.CAVITY>
0.0057126

>  <SCORE.RESTR.norm>
0.000178519

>  <SCORE.SYSTEM>
0

>  <SCORE.SYSTEM.CONST>
0

>  <SCORE.SYSTEM.DIHEDRAL>
0

>  <SCORE.SYSTEM.SOLV>
0

>  <SCORE.SYSTEM.norm>
0

>  <SCORE.heavy>
32

>  <SCORE.norm>
-1.01239

>  <RMSD>
7.052

$$$$
2au4_lig
 OpenBabel11021811423D
libRbt.so/2013.1/901 2013/11/27
 32 34  0  0  0  0  0  0  0  0999 V2000
   68.4499    7.9721    3.9093 P   0  0  1  0  0  0  0  0  0  0  0  0
   69.1622    9.4576    6.0670 P   0  0  1  0  0  0  0  0  0  0  0  0
   68.1212   11.6061    7.3865 P   0  0  2  0  0  0  0  0  0  0  0  0
   66.4513    9.7105    4.0288 C   0  0  0  0  0  0  0  0  0  0  0  0
   67.7217    9.3380    3.4693 O   0  0  0  0  0  0  0  0  0  0  0  0
   65.7928   10.8521    3.2682 C   0  0  0  0  0  0  0  0  0  0  0  0
   66.4750   11.0904    2.0200 O   0  0  0  0  0  0  0  0  0  0  0  0
   64.3390   10.5273    2.9623 C   0  0  0  0  0  0  0  0  0  0  0  0
   63.4591   11.4420    3.6272 O   0  0  0  0  0  0  0  0  0  0  0  0
   64.1854   10.6191    1.4629 C   0  0  0  0  0  0  0  0  0  0  0  0
   63.1958   11.5916    1.1008 O   0  0  0  0  0  0  0  0  0  0  0  0
   65.5485   11.0069    0.9163 C   0  0  0  0  0  0  0  0  0  0  0  0
   64.1765    7.6619   -2.6885 N   0  0  0  0  0  0  0  0  0  0  0  0
   67.5503    6.8405    3.6075 O   0  5  0  0  0  0  0  0  0  0  0  0
   70.0340    9.1031    7.2037 O   0  5  0  0  0  0  0  0  0  0  0  0
   68.7068   12.5571    6.4202 O   0  5  0  0  0  0  0  0  0  0  0  0
   63.3887    8.4631   -1.8967 C   0  0  1  0  0  0  0  0  0  0  0  0
   62.0787    8.3633   -2.0784 N   0  0  0  0  0  0  0  0  0  0  0  0
   69.8309    7.9822    3.3813 O   0  0  0  0  0  0  0  0  0  0  0  0
   69.7009   10.2407    4.9355 O   0  0  0  0  0  0  0  0  0  0  0  0
   68.8192   11.3194    8.6573 O   0  0  0  0  0  0  0  0  0  0  0  0
   63.8686    9.3038   -0.9836 N   0  0  0  0  0  0  0  0  0  0  0  0
   68.5328    8.1217    5.4876 O   0  0  0  0  0  0  0  0  0  0  0  0
   67.8894   10.2216    6.6340 O   0  0  0  0  0  0  0  0  0  0  0  0
   66.6238   12.0805    7.7230 O   0  0  0  0  0  0  0  0  0  0  0  0
   65.2201    9.2764   -0.9260 C   0  0  2  0  0  0  0  0  0  0  0  0
   66.0860    8.5039   -1.6832 C   0  0  2  0  0  0  0  0  0  0  0  0
   65.5585    7.6138   -2.6505 C   0  0  1  0  0  0  0  0  0  0  0  0
   66.1639    6.8447   -3.3850 O   0  0  0  0  0  0  0  0  0  0  0  0
   67.4162    8.7561   -1.3307 N   0  0  0  0  0  0  0  0  0  0  0  0
   67.2714    9.6449   -0.4028 C   0  0  0  0  0  0  0  0  0  0  0  0
   66.0088   10.0249   -0.0847 N   0  0  0  0  0  0  0  0  0  0  0  0
  1  5  1  6  0  0  0
  1 14  1  0  0  0  0
  1 19  2  0  0  0  0
  2 15  1  1  0  0  0
  2 20  2  0  0  0  0
  2 23  1  0  0  0  0
  3 16  1  6  0  0  0
  3 21  2  0  0  0  0
  3 24  1  0  0  0  0
  3 25  1  0  0  0  0
  4  6  1  0  0  0  0
  5  4  1  0  0  0  0
  6  7  1  0  0  0  0
  6  8  2  0  0  0  0
  7 12  1  0  0  0  0
  8  9  1  0  0  0  0
  8 10  1  0  0  0  0
 10 11  1  0  0  0  0
 10 12  2  0  0  0  0
 12 32  1  0  0  0  0
 13 17  1  0  0  0  0
 17 18  1  1  0  0  0
 17 22  1  0  0  0  0
 23  1  1  0  0  0  0
 24  2  1  0  0  0  0
 26 22  1  1  0  0  0
 27 26  1  0  0  0  0
 27 28  1  0  0  0  0
 27 30  1  1  0  0  0
 28 13  1  0  0  0  0
 28 29  1  1  0  0  0
 31 30  1  0  0  0  0
 32 26  1  0  0  0  0
 32 31  1  0  0  0  0
M  CHG  3  14  -1  15  -1  16  -1
M  END
>  <CHROM.1>
58.57879112,-138.34690941,62.61099537,11.77776693,-167.13132566,150.91759480
-51.79786496,62.37489177,66.78845418,9.64104704,2.85877932,-1.04873685,0.59196043
-2.09045163

>  <Name>
2au4_lig

>  <RI>
0

>  <Rbt.Current_Directory>
/home/itssahil/PROJECTS/Mol_Feturizer/New_Systems/rnas/2au4

>  <Rbt.Executable>
rbdock ($Id: //depot/dev/client3/rdock/2013.1/src/exe/rbdock.cxx#4 $)

>  <Rbt.Library>
libRbt.so (2013.1, Build901 2013/11/27)

>  <Rbt.Parameter_File>
/export/apps/rDock/src/rDock_2013.1_src/data/scripts/dock_solv.prm

>  <Rbt.Receptor>
prm/pocket_docking_7.prm

>  <SCORE>
-35.9195

>  <SCORE.INTER>
-10.3337

>  <SCORE.INTER.CONST>
1

>  <SCORE.INTER.POLAR>
-0.66609

>  <SCORE.INTER.ROT>
8

>  <SCORE.INTER.SOLV>
22.6862

>  <SCORE.INTER.VDW>
-21.1642

>  <SCORE.INTER.norm>
-0.322928

>  <SCORE.INTRA>
-25.5858

>  <SCORE.INTRA.DIHEDRAL>
-48.2817

>  <SCORE.INTRA.DIHEDRAL.0>
76.3625

>  <SCORE.INTRA.POLAR>
0

>  <SCORE.INTRA.POLAR.0>
0

>  <SCORE.INTRA.REPUL>
-0.12705

>  <SCORE.INTRA.REPUL.0>
0.12705

>  <SCORE.INTRA.SOLV>
-4.58982

>  <SCORE.INTRA.SOLV.lig_0>
-119.383

>  <SCORE.INTRA.VDW>
1.48523

>  <SCORE.INTRA.VDW.0>
-5.10464

>  <SCORE.INTRA.norm>
-0.799556

>  <SCORE.RESTR>
0

>  <SCORE.RESTR.CAVITY>
0

>  <SCORE.RESTR.norm>
0

>  <SCORE.SYSTEM>
0

>  <SCORE.SYSTEM.CONST>
0

>  <SCORE.SYSTEM.DIHEDRAL>
0

>  <SCORE.SYSTEM.SOLV>
0

>  <SCORE.SYSTEM.norm>
0

>  <SCORE.heavy>
32

>  <SCORE.norm>
-1.12248

>  <RMSD>
7.056

$$$$
2au4_lig
 OpenBabel11021811423D
libRbt.so/2013.1/901 2013/11/27
 32 34  0  0  0  0  0  0  0  0999 V2000
   66.4871    9.0442   -1.3602 P   0  0  1  0  0  0  0  0  0  0  0  0
   67.2812    6.5101   -1.9237 P   0  0  1  0  0  0  0  0  0  0  0  0
   69.1016    4.4830   -2.0559 P   0  0  2  0  0  0  0  0  0  0  0  0
   64.9694    9.3474    0.7928 C   0  0  0  0  0  0  0  0  0  0  0  0
   66.0911    9.7890    0.0102 O   0  0  0  0  0  0  0  0  0  0  0  0
   64.8525   10.0926    2.1143 C   0  0  0  0  0  0  0  0  0  0  0  0
   65.7736    9.5532    3.0843 O   0  0  0  0  0  0  0  0  0  0  0  0
   65.1657   11.5692    1.9293 C   0  0  0  0  0  0  0  0  0  0  0  0
   64.0177   12.3763    2.2185 O   0  0  0  0  0  0  0  0  0  0  0  0
   66.3037   11.8872    2.8695 C   0  0  0  0  0  0  0  0  0  0  0  0
   65.9378   12.9166    3.7982 O   0  0  0  0  0  0  0  0  0  0  0  0
   66.6309   10.5948    3.5975 C   0  0  0  0  0  0  0  0  0  0  0  0
   71.3950   12.3358    3.0158 N   0  0  0  0  0  0  0  0  0  0  0  0
   65.2539    8.7926   -2.1327 O   0  5  0  0  0  0  0  0  0  0  0  0
   66.2468    5.4720   -1.7491 O   0  5  0  0  0  0  0  0  0  0  0  0
   68.8886    4.5101   -3.5172 O   0  5  0  0  0  0  0  0  0  0  0  0
   70.2216   13.0370    3.1609 C   0  0  1  0  0  0  0  0  0  0  0  0
   70.3214   14.3594    3.1458 N   0  0  0  0  0  0  0  0  0  0  0  0
   67.6162    9.7685   -1.9820 O   0  0  0  0  0  0  0  0  0  0  0  0
   67.4666    7.1582   -3.2387 O   0  0  0  0  0  0  0  0  0  0  0  0
   68.4504    3.4424   -1.2331 O   0  0  0  0  0  0  0  0  0  0  0  0
   69.0295   12.4643    3.3074 N   0  0  0  0  0  0  0  0  0  0  0  0
   67.0331    7.6457   -0.8442 O   0  0  0  0  0  0  0  0  0  0  0  0
   68.6784    5.9029   -1.4717 O   0  0  0  0  0  0  0  0  0  0  0  0
   70.6824    4.4415   -1.7733 O   0  0  0  0  0  0  0  0  0  0  0  0
   69.1081   11.1136    3.2958 C   0  0  2  0  0  0  0  0  0  0  0  0
   70.2429   10.3310    3.1557 C   0  0  2  0  0  0  0  0  0  0  0  0
   71.5040   10.9568    3.0004 C   0  0  1  0  0  0  0  0  0  0  0  0
   72.5978   10.4318    2.8409 O   0  0  0  0  0  0  0  0  0  0  0  0
   69.9175    8.9709    3.1921 N   0  0  0  0  0  0  0  0  0  0  0  0
   68.6347    9.0182    3.3476 C   0  0  0  0  0  0  0  0  0  0  0  0
   68.0529   10.2413    3.4212 N   0  0  0  0  0  0  0  0  0  0  0  0
  1  5  1  1  0  0  0
  1 14  1  0  0  0  0
  1 19  2  0  0  0  0
  2 15  1  6  0  0  0
  2 20  2  0  0  0  0
  2 23  1  0  0  0  0
  3 16  1  6  0  0  0
  3 21  2  0  0  0  0
  3 24  1  0  0  0  0
  3 25  1  0  0  0  0
  4  6  1  0  0  0  0
  5  4  1  0  0  0  0
  6  7  1  0  0  0  0
  6  8  2  0  0  0  0
  7 12  1  0  0  0  0
  8  9  1  0  0  0  0
  8 10  1  0  0  0  0
 10 11  1  0  0  0  0
 10 12  2  0  0  0  0
 12 32  1  0  0  0  0
 13 17  1  0  0  0  0
 17 18  1  6  0  0  0
 17 22  1  0  0  0  0
 23  1  1  0  0  0  0
 24  2  1  0  0  0  0
 26 22  1  6  0  0  0
 27 26  1  0  0  0  0
 27 28  1  0  0  0  0
 27 30  1  6  0  0  0
 28 13  1  0  0  0  0
 28 29  1  6  0  0  0
 31 30  1  0  0  0  0
 32 26  1  0  0  0  0
 32 31  1  0  0  0  0
M  CHG  3  14  -1  15  -1  16  -1
M  END
>  <CHROM.1>
44.20644956,-108.84787041,48.16228575,-79.88511654,174.20823139,153.15013532
168.99393650,49.44264270,67.89658466,8.95470856,0.60675327,1.60865745,0.25252520
-2.45441799

>  <Name>
2au4_lig

>  <RI>
0

>  <Rbt.Current_Directory>
/home/itssahil/PROJECTS/Mol_Feturizer/New_Systems/rnas/2au4

>  <Rbt.Executable>
rbdock ($Id: //depot/dev/client3/rdock/2013.1/src/exe/rbdock.cxx#4 $)

>  <Rbt.Library>
libRbt.so (2013.1, Build901 2013/11/27)

>  <Rbt.Parameter_File>
/export/apps/rDock/src/rDock_2013.1_src/data/scripts/dock_solv.prm

>  <Rbt.Receptor>
prm/pocket_docking_4.prm

>  <SCORE>
-33.4003

>  <SCORE.INTER>
-7.94313

>  <SCORE.INTER.CONST>
1

>  <SCORE.INTER.POLAR>
-1.51533

>  <SCORE.INTER.ROT>
8

>  <SCORE.INTER.SOLV>
33.6306

>  <SCORE.INTER.VDW>
-20.3879

>  <SCORE.INTER.norm>
-0.248223

>  <SCORE.INTRA>
-25.4572

>  <SCORE.INTRA.DIHEDRAL>
-47.6371

>  <SCORE.INTRA.DIHEDRAL.0>
76.3625

>  <SCORE.INTRA.POLAR>
0

>  <SCORE.INTRA.POLAR.0>
0

>  <SCORE.INTRA.REPUL>
-0.12705

>  <SCORE.INTRA.REPUL.0>
0.12705

>  <SCORE.INTRA.SOLV>
-4.90475

>  <SCORE.INTRA.SOLV.lig_0>
-119.383

>  <SCORE.INTRA.VDW>
1.44899

>  <SCORE.INTRA.VDW.0>
-5.10464

>  <SCORE.INTRA.norm>
-0.795538

>  <SCORE.RESTR>
0

>  <SCORE.RESTR.CAVITY>
0

>  <SCORE.RESTR.norm>
0

>  <SCORE.SYSTEM>
0

>  <SCORE.SYSTEM.CONST>
0

>  <SCORE.SYSTEM.DIHEDRAL>
0

>  <SCORE.SYSTEM.SOLV>
0

>  <SCORE.SYSTEM.norm>
0

>  <SCORE.heavy>
32

>  <SCORE.norm>
-1.04376

>  <RMSD>
7.060

$$$$
2au4_lig
 OpenBabel11021811423D
libRbt.so/2013.1/901 2013/11/27
 32 34  0  0  0  0  0  0  0  0999 V2000
   71.9991   12.3530    0.3530 P   0  0  1  0  0  0  0  0  0  0  0  0
   73.1837   11.4027    2.6031 P   0  0  1  0  0  0  0  0  0  0  0  0
   71.5583   11.1936    4.7836 P   0  0  2  0  0  0  0  0  0  0  0  0
   69.3500   12.3747    0.2428 C   0  0  0  0  0  0  0  0  0  0  0  0
   70.6013   12.0432   -0.3817 O   0  0  0  0  0  0  0  0  0  0  0  0
   68.9456   11.3655    1.3074 C   0  0  0  0  0  0  0  0  0  0  0  0
   67.5546   11.5238    1.6545 O   0  0  0  0  0  0  0  0  0  0  0  0
   69.1535    9.9441    0.8085 C   0  0  0  0  0  0  0  0  0  0  0  0
   70.1433    9.2660    1.5918 O   0  0  0  0  0  0  0  0  0  0  0  0
   67.8143    9.2537    0.9102 C   0  0  0  0  0  0  0  0  0  0  0  0
   67.8882    8.0992    1.7575 O   0  0  0  0  0  0  0  0  0  0  0  0
   66.8470   10.2784    1.4771 C   0  0  0  0  0  0  0  0  0  0  0  0
   63.8042    8.1065   -2.0001 N   0  0  0  0  0  0  0  0  0  0  0  0
   73.1003   11.8939   -0.5173 O   0  5  0  0  0  0  0  0  0  0  0  0
   74.2903   10.6654    1.9628 O   0  5  0  0  0  0  0  0  0  0  0  0
   72.2064   12.2756    5.5520 O   0  5  0  0  0  0  0  0  0  0  0  0
   64.8795    7.5753   -1.3284 C   0  0  1  0  0  0  0  0  0  0  0  0
   65.1893    6.3181   -1.6155 N   0  0  0  0  0  0  0  0  0  0  0  0
   71.9751   13.7472    0.8447 O   0  0  0  0  0  0  0  0  0  0  0  0
   73.3890   12.7898    3.0693 O   0  0  0  0  0  0  0  0  0  0  0  0
   70.8653   10.0970    5.4915 O   0  0  0  0  0  0  0  0  0  0  0  0
   65.6008    8.2478   -0.4350 N   0  0  0  0  0  0  0  0  0  0  0  0
   71.9424   11.3923    1.6155 O   0  0  0  0  0  0  0  0  0  0  0  0
   72.6559   10.5427    3.8307 O   0  0  0  0  0  0  0  0  0  0  0  0
   70.5320   11.8556    3.7400 O   0  0  0  0  0  0  0  0  0  0  0  0
   65.1527    9.5132   -0.2666 C   0  0  2  0  0  0  0  0  0  0  0  0
   64.0823   10.1254   -0.8987 C   0  0  2  0  0  0  0  0  0  0  0  0
   63.3253    9.3953   -1.8475 C   0  0  1  0  0  0  0  0  0  0  0  0
   62.3725    9.7764   -2.5142 O   0  0  0  0  0  0  0  0  0  0  0  0
   63.9329   11.4451   -0.4594 N   0  0  0  0  0  0  0  0  0  0  0  0
   64.9020   11.5436    0.3909 C   0  0  0  0  0  0  0  0  0  0  0  0
   65.6875   10.4543    0.5810 N   0  0  0  0  0  0  0  0  0  0  0  0
  1  5  1  6  0  0  0
  1 14  1  0  0  0  0
  1 19  2  0  0  0  0
  2 15  1  6  0  0  0
  2 20  2  0  0  0  0
  2 23  1  0  0  0  0
  3 16  1  1  0  0  0
  3 21  2  0  0  0  0
  3 24  1  0  0  0  0
  3 25  1  0  0  0  0
  4  6  1  0  0  0  0
  5  4  1  0  0  0  0
  6  7  1  0  0  0  0
  6  8  2  0  0  0  0
  7 12  1  0  0  0  0
  8  9  1  0  0  0  0
  8 10  1  0  0  0  0
 10 11  1  0  0  0  0
 10 12  2  0  0  0  0
 12 32  1  0  0  0  0
 13 17  1  0  0  0  0
 17 18  1  6  0  0  0
 17 22  1  0  0  0  0
 23  1  1  0  0  0  0
 24  2  1  0  0  0  0
 26 22  1  6  0  0  0
 27 26  1  0  0  0  0
 27 28  1  0  0  0  0
 27 30  1  6  0  0  0
 28 13  1  0  0  0  0
 28 29  1  6  0  0  0
 31 30  1  0  0  0  0
 32 26  1  0  0  0  0
 32 31  1  0  0  0  0
M  CHG  3  14  -1  15  -1  16  -1
M  END
>  <CHROM.1>
179.44109014,-75.22494778,-70.14486414,-164.87739737,-78.55831664,149.30018492
179.44398607,173.68970553,69.10430434,10.68658660,1.23135071,-0.30474887
-0.42713537,-1.21214152

>  <Name>
2au4_lig

>  <RI>
0

>  <Rbt.Current_Directory>
/home/itssahil/PROJECTS/Mol_Feturizer/New_Systems/rnas/2au4

>  <Rbt.Executable>
rbdock ($Id: //depot/dev/client3/rdock/2013.1/src/exe/rbdock.cxx#4 $)

>  <Rbt.Library>
libRbt.so (2013.1, Build901 2013/11/27)

>  <Rbt.Parameter_File>
/export/apps/rDock/src/rDock_2013.1_src/data/scripts/dock_solv.prm

>  <Rbt.Receptor>
prm/pocket_docking_6.prm

>  <SCORE>
-46.7028

>  <SCORE.INTER>
-18.9734

>  <SCORE.INTER.CONST>
1

>  <SCORE.INTER.POLAR>
-3.43719

>  <SCORE.INTER.ROT>
8

>  <SCORE.INTER.SOLV>
23.7295

>  <SCORE.INTER.VDW>
-18.0348

>  <SCORE.INTER.norm>
-0.592919

>  <SCORE.INTRA>
-27.7294

>  <SCORE.INTRA.DIHEDRAL>
-48.5898

>  <SCORE.INTRA.DIHEDRAL.0>
76.3625

>  <SCORE.INTRA.POLAR>
0

>  <SCORE.INTRA.POLAR.0>
0

>  <SCORE.INTRA.REPUL>
-0.12705

>  <SCORE.INTRA.REPUL.0>
0.12705

>  <SCORE.INTRA.SOLV>
-5.23996

>  <SCORE.INTRA.SOLV.lig_0>
-119.383

>  <SCORE.INTRA.VDW>
-0.179247

>  <SCORE.INTRA.VDW.0>
-5.10464

>  <SCORE.INTRA.norm>
-0.866543

>  <SCORE.RESTR>
0

>  <SCORE.RESTR.CAVITY>
0

>  <SCORE.RESTR.norm>
0

>  <SCORE.SYSTEM>
0

>  <SCORE.SYSTEM.CONST>
0

>  <SCORE.SYSTEM.DIHEDRAL>
0

>  <SCORE.SYSTEM.SOLV>
0

>  <SCORE.SYSTEM.norm>
0

>  <SCORE.heavy>
32

>  <SCORE.norm>
-1.45946

>  <RMSD>
7.066

$$$$
2au4_lig
 OpenBabel11021811423D
libRbt.so/2013.1/901 2013/11/27
 32 34  0  0  0  0  0  0  0  0999 V2000
   68.1906    6.9269    2.2306 P   0  0  1  0  0  0  0  0  0  0  0  0
   68.4024    6.0151   -0.3175 P   0  0  1  0  0  0  0  0  0  0  0  0
   66.0607    6.3083   -1.6855 P   0  0  2  0  0  0  0  0  0  0  0  0
   67.5168    9.2190    3.3808 C   0  0  0  0  0  0  0  0  0  0  0  0
   67.1075    8.0187    2.7045 O   0  0  0  0  0  0  0  0  0  0  0  0
   66.4977   10.3406    3.2435 C   0  0  0  0  0  0  0  0  0  0  0  0
   67.1487   11.5768    2.8856 O   0  0  0  0  0  0  0  0  0  0  0  0
   65.4759   10.0109    2.1666 C   0  0  0  0  0  0  0  0  0  0  0  0
   64.1636    9.8838    2.7274 O   0  0  0  0  0  0  0  0  0  0  0  0
   65.5309   11.1385    1.1637 C   0  0  0  0  0  0  0  0  0  0  0  0
   64.2549   11.7794    1.0325 O   0  0  0  0  0  0  0  0  0  0  0  0
   66.5755   12.1153    1.6753 C   0  0  0  0  0  0  0  0  0  0  0  0
   71.5567   12.7853    0.7777 N   0  0  0  0  0  0  0  0  0  0  0  0
   69.4052    7.6343    1.7779 O   0  5  0  0  0  0  0  0  0  0  0  0
   68.8981    7.3123   -0.8173 O   0  5  0  0  0  0  0  0  0  0  0  0
   66.4868    7.7071   -1.8928 O   0  5  0  0  0  0  0  0  0  0  0  0
   70.9049   12.5812    1.9707 C   0  0  1  0  0  0  0  0  0  0  0  0
   71.6637   12.5557    3.0582 N   0  0  0  0  0  0  0  0  0  0  0  0
   68.2873    5.8772    3.2674 O   0  0  0  0  0  0  0  0  0  0  0  0
   69.3554    4.9369    0.0182 O   0  0  0  0  0  0  0  0  0  0  0  0
   65.0431    5.9893   -0.6624 O   0  0  0  0  0  0  0  0  0  0  0  0
   69.5887   12.4171    2.0773 N   0  0  0  0  0  0  0  0  0  0  0  0
   67.4953    6.2865    0.9552 O   0  0  0  0  0  0  0  0  0  0  0  0
   67.3589    5.4412   -1.3696 O   0  0  0  0  0  0  0  0  0  0  0  0
   65.5715    5.7117   -3.0945 O   0  0  0  0  0  0  0  0  0  0  0  0
   68.9689   12.4757    0.8761 C   0  0  2  0  0  0  0  0  0  0  0  0
   69.5460   12.6762   -0.3675 C   0  0  2  0  0  0  0  0  0  0  0  0
   70.9485   12.8495   -0.4632 C   0  0  1  0  0  0  0  0  0  0  0  0
   71.6212   13.0597   -1.4635 O   0  0  0  0  0  0  0  0  0  0  0  0
   68.5740   12.6748   -1.3737 N   0  0  0  0  0  0  0  0  0  0  0  0
   67.4955   12.4784   -0.6880 C   0  0  0  0  0  0  0  0  0  0  0  0
   67.6179   12.3467    0.6564 N   0  0  0  0  0  0  0  0  0  0  0  0
  1  5  1  1  0  0  0
  1 14  1  0  0  0  0
  1 19  2  0  0  0  0
  2 15  1  6  0  0  0
  2 20  2  0  0  0  0
  2 23  1  0  0  0  0
  3 16  1  6  0  0  0
  3 21  2  0  0  0  0
  3 24  1  0  0  0  0
  3 25  1  0  0  0  0
  4  6  1  0  0  0  0
  5  4  1  0  0  0  0
  6  7  1  0  0  0  0
  6  8  2  0  0  0  0
  7 12  1  0  0  0  0
  8  9  1  0  0  0  0
  8 10  1  0  0  0  0
 10 11  1  0  0  0  0
 10 12  2  0  0  0  0
 12 32  1  0  0  0  0
 13 17  1  0  0  0  0
 17 18  1  1  0  0  0
 17 22  1  0  0  0  0
 23  1  1  0  0  0  0
 24  2  1  0  0  0  0
 26 22  1  1  0  0  0
 27 26  1  0  0  0  0
 27 28  1  0  0  0  0
 27 30  1  1  0  0  0
 28 13  1  0  0  0  0
 28 29  1  1  0  0  0
 31 30  1  0  0  0  0
 32 26  1  0  0  0  0
 32 31  1  0  0  0  0
M  CHG  3  14  -1  15  -1  16  -1
M  END
>  <CHROM.1>
-36.50155967,-63.55532261,45.98565760,-133.28370976,156.64784129,-20.09530110
137.43028567,-59.97639349,67.85926259,9.20481410,0.66007413,-1.95396059,0.41023563
0.36229380

>  <Name>
2au4_lig

>  <RI>
0

>  <Rbt.Current_Directory>
/home/itssahil/PROJECTS/Mol_Feturizer/New_Systems/rnas/2au4

>  <Rbt.Executable>
rbdock ($Id: //depot/dev/client3/rdock/2013.1/src/exe/rbdock.cxx#4 $)

>  <Rbt.Library>
libRbt.so (2013.1, Build901 2013/11/27)

>  <Rbt.Parameter_File>
/export/apps/rDock/src/rDock_2013.1_src/data/scripts/dock_solv.prm

>  <Rbt.Receptor>
prm/pocket_docking_3.prm

>  <SCORE>
-36.1876

>  <SCORE.INTER>
-14.4147

>  <SCORE.INTER.CONST>
1

>  <SCORE.INTER.POLAR>
-0.992492

>  <SCORE.INTER.ROT>
8

>  <SCORE.INTER.SOLV>
24.4729

>  <SCORE.INTER.VDW>
-23.3925

>  <SCORE.INTER.norm>
-0.450459

>  <SCORE.INTRA>
-21.9257

>  <SCORE.INTRA.DIHEDRAL>
-43.9603

>  <SCORE.INTRA.DIHEDRAL.0>
76.3625

>  <SCORE.INTRA.POLAR>
0

>  <SCORE.INTRA.POLAR.0>
0

>  <SCORE.INTRA.REPUL>
0.0640496

>  <SCORE.INTRA.REPUL.0>
0.12705

>  <SCORE.INTRA.SOLV>
-4.71788

>  <SCORE.INTRA.SOLV.lig_0>
-119.383

>  <SCORE.INTRA.VDW>
2.09311

>  <SCORE.INTRA.VDW.0>
-5.10464

>  <SCORE.INTRA.norm>
-0.685178

>  <SCORE.RESTR>
0.152797

>  <SCORE.RESTR.CAVITY>
0.152797

>  <SCORE.RESTR.norm>
0.00477491

>  <SCORE.SYSTEM>
0

>  <SCORE.SYSTEM.CONST>
0

>  <SCORE.SYSTEM.DIHEDRAL>
0

>  <SCORE.SYSTEM.SOLV>
0

>  <SCORE.SYSTEM.norm>
0

>  <SCORE.heavy>
32

>  <SCORE.norm>
-1.13086

>  <RMSD>
7.093

$$$$
2au4_lig
 OpenBabel11021811423D
libRbt.so/2013.1/901 2013/11/27
 32 34  0  0  0  0  0  0  0  0999 V2000
   70.4135   11.4315    5.2724 P   0  0  1  0  0  0  0  0  0  0  0  0
   72.6803   12.5282    4.2582 P   0  0  1  0  0  0  0  0  0  0  0  0
   72.3851   13.4967    1.7253 P   0  0  2  0  0  0  0  0  0  0  0  0
   68.7147    9.3973    5.3537 C   0  0  0  0  0  0  0  0  0  0  0  0
   69.3899   10.4018    4.5786 O   0  0  0  0  0  0  0  0  0  0  0  0
   67.7792    8.5431    4.5107 C   0  0  0  0  0  0  0  0  0  0  0  0
   66.8668    9.3746    3.7646 O   0  0  0  0  0  0  0  0  0  0  0  0
   68.5666    7.6953    3.5240 C   0  0  0  0  0  0  0  0  0  0  0  0
   68.3979    6.2994    3.7996 O   0  0  0  0  0  0  0  0  0  0  0  0
   68.0478    8.0438    2.1494 C   0  0  0  0  0  0  0  0  0  0  0  0
   67.5299    6.8858    1.4808 O   0  0  0  0  0  0  0  0  0  0  0  0
   66.9577    9.0816    2.3542 C   0  0  0  0  0  0  0  0  0  0  0  0
   66.3402   14.1386    2.0200 N   0  0  0  0  0  0  0  0  0  0  0  0
   69.6357   12.5234    5.8916 O   0  5  0  0  0  0  0  0  0  0  0  0
   72.7820   13.0598    5.6312 O   0  5  0  0  0  0  0  0  0  0  0  0
   70.9108   13.5349    1.6467 O   0  5  0  0  0  0  0  0  0  0  0  0
   65.8771   13.2644    2.9744 C   0  0  1  0  0  0  0  0  0  0  0  0
   65.1598   13.7927    3.9570 N   0  0  0  0  0  0  0  0  0  0  0  0
   71.3826   10.6611    6.0808 O   0  0  0  0  0  0  0  0  0  0  0  0
   73.5960   11.4598    3.8072 O   0  0  0  0  0  0  0  0  0  0  0  0
   73.1209   12.3101    1.2409 O   0  0  0  0  0  0  0  0  0  0  0  0
   66.1071   11.9539    2.9529 N   0  0  0  0  0  0  0  0  0  0  0  0
   71.1913   12.0329    4.0259 O   0  0  0  0  0  0  0  0  0  0  0  0
   72.8025   13.7441    3.2423 O   0  0  0  0  0  0  0  0  0  0  0  0
   72.9676   14.7963    0.9822 O   0  0  0  0  0  0  0  0  0  0  0  0
   66.8481   11.5841    1.8830 C   0  0  2  0  0  0  0  0  0  0  0  0
   67.3533   12.3952    0.8796 C   0  0  2  0  0  0  0  0  0  0  0  0
   67.0987   13.7880    0.9175 C   0  0  1  0  0  0  0  0  0  0  0  0
   67.4404   14.6446    0.1131 O   0  0  0  0  0  0  0  0  0  0  0  0
   68.0701   11.6419   -0.0562 N   0  0  0  0  0  0  0  0  0  0  0  0
   67.9538   10.4498    0.4310 C   0  0  0  0  0  0  0  0  0  0  0  0
   67.2478   10.3040    1.5798 N   0  0  0  0  0  0  0  0  0  0  0  0
  1  5  1  6  0  0  0
  1 14  1  0  0  0  0
  1 19  2  0  0  0  0
  2 15  1  1  0  0  0
  2 20  2  0  0  0  0
  2 23  1  0  0  0  0
  3 16  1  6  0  0  0
  3 21  2  0  0  0  0
  3 24  1  0  0  0  0
  3 25  1  0  0  0  0
  4  6  1  0  0  0  0
  5  4  1  0  0  0  0
  6  7  1  0  0  0  0
  6  8  2  0  0  0  0
  7 12  1  0  0  0  0
  8  9  1  0  0  0  0
  8 10  1  0  0  0  0
 10 11  1  0  0  0  0
 10 12  2  0  0  0  0
 12 32  1  0  0  0  0
 13 17  1  0  0  0  0
 17 18  1  6  0  0  0
 17 22  1  0  0  0  0
 23  1  1  0  0  0  0
 24  2  1  0  0  0  0
 26 22  1  6  0  0  0
 27 26  1  0  0  0  0
 27 28  1  0  0  0  0
 27 30  1  6  0  0  0
 28 13  1  0  0  0  0
 28 29  1  6  0  0  0
 31 30  1  0  0  0  0
 32 26  1  0  0  0  0
 32 31  1  0  0  0  0
M  CHG  3  14  -1  15  -1  16  -1
M  END
>  <CHROM.1>
-81.47407382,-33.06017173,78.47054263,-53.10636187,179.17845308,-31.76289018
-151.44887213,-165.83694747,69.49762544,11.56485273,3.01671586,-0.37491946
0.38632498,2.61175351

>  <Name>
2au4_lig

>  <RI>
0

>  <Rbt.Current_Directory>
/home/itssahil/PROJECTS/Mol_Feturizer/New_Systems/rnas/2au4

>  <Rbt.Executable>
rbdock ($Id: //depot/dev/client3/rdock/2013.1/src/exe/rbdock.cxx#4 $)

>  <Rbt.Library>
libRbt.so (2013.1, Build901 2013/11/27)

>  <Rbt.Parameter_File>
/export/apps/rDock/src/rDock_2013.1_src/data/scripts/dock_solv.prm

>  <Rbt.Receptor>
prm/pocket_docking_7.prm

>  <SCORE>
-37.9029

>  <SCORE.INTER>
-13.0582

>  <SCORE.INTER.CONST>
1

>  <SCORE.INTER.POLAR>
-1.43711

>  <SCORE.INTER.ROT>
8

>  <SCORE.INTER.SOLV>
14.9132

>  <SCORE.INTER.VDW>
-17.8195

>  <SCORE.INTER.norm>
-0.408068

>  <SCORE.INTRA>
-24.8448

>  <SCORE.INTRA.DIHEDRAL>
-47.7049

>  <SCORE.INTRA.DIHEDRAL.0>
76.3625

>  <SCORE.INTRA.POLAR>
0

>  <SCORE.INTRA.POLAR.0>
0

>  <SCORE.INTRA.REPUL>
0.0579883

>  <SCORE.INTRA.REPUL.0>
0.12705

>  <SCORE.INTRA.SOLV>
-3.61043

>  <SCORE.INTRA.SOLV.lig_0>
-119.383

>  <SCORE.INTRA.VDW>
0.522938

>  <SCORE.INTRA.VDW.0>
-5.10464

>  <SCORE.INTRA.norm>
-0.776399

>  <SCORE.RESTR>
0

>  <SCORE.RESTR.CAVITY>
0

>  <SCORE.RESTR.norm>
0

>  <SCORE.SYSTEM>
0

>  <SCORE.SYSTEM.CONST>
0

>  <SCORE.SYSTEM.DIHEDRAL>
0

>  <SCORE.SYSTEM.SOLV>
0

>  <SCORE.SYSTEM.norm>
0

>  <SCORE.heavy>
32

>  <SCORE.norm>
-1.18447

>  <RMSD>
7.093

$$$$
2au4_lig
 OpenBabel11021811423D
libRbt.so/2013.1/901 2013/11/27
 32 34  0  0  0  0  0  0  0  0999 V2000
   67.2066    9.5520    4.1198 P   0  0  1  0  0  0  0  0  0  0  0  0
   69.8294    9.2569    4.7550 P   0  0  1  0  0  0  0  0  0  0  0  0
   71.1991   11.6069    4.9605 P   0  0  2  0  0  0  0  0  0  0  0  0
   66.5079   10.8105    1.8930 C   0  0  0  0  0  0  0  0  0  0  0  0
   67.5354   10.1791    2.6748 O   0  0  0  0  0  0  0  0  0  0  0  0
   67.0565   11.4754    0.6391 C   0  0  0  0  0  0  0  0  0  0  0  0
   66.7089   10.7114   -0.5338 O   0  0  0  0  0  0  0  0  0  0  0  0
   66.4885   12.8771    0.4804 C   0  0  0  0  0  0  0  0  0  0  0  0
   67.5254   13.8623    0.5649 O   0  0  0  0  0  0  0  0  0  0  0  0
   65.8119   12.9154   -0.8690 C   0  0  0  0  0  0  0  0  0  0  0  0
   66.3806   13.9312   -1.7063 O   0  0  0  0  0  0  0  0  0  0  0  0
   66.0042   11.5395   -1.4831 C   0  0  0  0  0  0  0  0  0  0  0  0
   63.3560    7.2231   -2.1326 N   0  0  0  0  0  0  0  0  0  0  0  0
   66.0064   10.2207    4.6613 O   0  5  0  0  0  0  0  0  0  0  0  0
   69.7535    7.9455    5.4277 O   0  5  0  0  0  0  0  0  0  0  0  0
   71.7884   11.4235    3.6187 O   0  5  0  0  0  0  0  0  0  0  0  0
   64.6687    7.3938   -1.7619 C   0  0  1  0  0  0  0  0  0  0  0  0
   65.3657    6.2874   -1.5406 N   0  0  0  0  0  0  0  0  0  0  0  0
   67.2500    8.0777    4.0156 O   0  0  0  0  0  0  0  0  0  0  0  0
   70.1619    9.3345    3.3173 O   0  0  0  0  0  0  0  0  0  0  0  0
   71.9383   12.3584    5.9962 O   0  0  0  0  0  0  0  0  0  0  0  0
   65.2510    8.5823   -1.6238 N   0  0  0  0  0  0  0  0  0  0  0  0
   68.4546   10.0141    4.9854 O   0  0  0  0  0  0  0  0  0  0  0  0
   70.8621   10.1661    5.5499 O   0  0  0  0  0  0  0  0  0  0  0  0
   69.7449   12.2683    4.7910 O   0  0  0  0  0  0  0  0  0  0  0  0
   64.4012    9.6005   -1.8916 C   0  0  2  0  0  0  0  0  0  0  0  0
   63.0706    9.5179   -2.2692 C   0  0  2  0  0  0  0  0  0  0  0  0
   62.4663    8.2449   -2.4120 C   0  0  1  0  0  0  0  0  0  0  0  0
   61.3222    7.9818   -2.7575 O   0  0  0  0  0  0  0  0  0  0  0  0
   62.5264   10.7928   -2.4577 N   0  0  0  0  0  0  0  0  0  0  0  0
   63.5414   11.5473   -2.1884 C   0  0  0  0  0  0  0  0  0  0  0  0
   64.7037   10.9406   -1.8411 N   0  0  0  0  0  0  0  0  0  0  0  0
  1  5  1  6  0  0  0
  1 14  1  0  0  0  0
  1 19  2  0  0  0  0
  2 15  1  1  0  0  0
  2 20  2  0  0  0  0
  2 23  1  0  0  0  0
  3 16  1  6  0  0  0
  3 21  2  0  0  0  0
  3 24  1  0  0  0  0
  3 25  1  0  0  0  0
  4  6  1  0  0  0  0
  5  4  1  0  0  0  0
  6  7  1  0  0  0  0
  6  8  2  0  0  0  0
  7 12  1  0  0  0  0
  8  9  1  0  0  0  0
  8 10  1  0  0  0  0
 10 11  1  0  0  0  0
 10 12  2  0  0  0  0
 12 32  1  0  0  0  0
 13 17  1  0  0  0  0
 17 18  1  6  0  0  0
 17 22  1  0  0  0  0
 23  1  1  0  0  0  0
 24  2  1  0  0  0  0
 26 22  1  6  0  0  0
 27 26  1  0  0  0  0
 27 28  1  0  0  0  0
 27 30  1  6  0  0  0
 28 13  1  0  0  0  0
 28 29  1  6  0  0  0
 31 30  1  0  0  0  0
 32 26  1  0  0  0  0
 32 31  1  0  0  0  0
M  CHG  3  14  -1  15  -1  16  -1
M  END
>  <CHROM.1>
-23.76928191,-76.55448235,-60.68835835,106.62242390,173.38686789,-31.04263937
-75.18220060,175.83863124,67.09373177,10.25740610,1.58474424,0.23581338,0.80409805
2.66868449

>  <Name>
2au4_lig

>  <RI>
0

>  <Rbt.Current_Directory>
/home/itssahil/PROJECTS/Mol_Feturizer/New_Systems/rnas/2au4

>  <Rbt.Executable>
rbdock ($Id: //depot/dev/client3/rdock/2013.1/src/exe/rbdock.cxx#4 $)

>  <Rbt.Library>
libRbt.so (2013.1, Build901 2013/11/27)

>  <Rbt.Parameter_File>
/export/apps/rDock/src/rDock_2013.1_src/data/scripts/dock_solv.prm

>  <Rbt.Receptor>
prm/pocket_docking_6.prm

>  <SCORE>
-41.9432

>  <SCORE.INTER>
-16.1656

>  <SCORE.INTER.CONST>
1

>  <SCORE.INTER.POLAR>
-1.76317

>  <SCORE.INTER.ROT>
8

>  <SCORE.INTER.SOLV>
24.1253

>  <SCORE.INTER.VDW>
-21.8749

>  <SCORE.INTER.norm>
-0.505174

>  <SCORE.INTRA>
-25.8008

>  <SCORE.INTRA.DIHEDRAL>
-48.4752

>  <SCORE.INTRA.DIHEDRAL.0>
76.3625

>  <SCORE.INTRA.POLAR>
0

>  <SCORE.INTRA.POLAR.0>
0

>  <SCORE.INTRA.REPUL>
0.0605695

>  <SCORE.INTRA.REPUL.0>
0.12705

>  <SCORE.INTRA.SOLV>
-7.0964

>  <SCORE.INTRA.SOLV.lig_0>
-119.383

>  <SCORE.INTRA.VDW>
1.68211

>  <SCORE.INTRA.VDW.0>
-5.10464

>  <SCORE.INTRA.norm>
-0.806276

>  <SCORE.RESTR>
0.0232151

>  <SCORE.RESTR.CAVITY>
0.0232151

>  <SCORE.RESTR.norm>
0.000725472

>  <SCORE.SYSTEM>
0

>  <SCORE.SYSTEM.CONST>
0

>  <SCORE.SYSTEM.DIHEDRAL>
0

>  <SCORE.SYSTEM.SOLV>
0

>  <SCORE.SYSTEM.norm>
0

>  <SCORE.heavy>
32

>  <SCORE.norm>
-1.31072

>  <RMSD>
7.098

$$$$
2au4_lig
 OpenBabel11021811423D
libRbt.so/2013.1/901 2013/11/27
 32 34  0  0  0  0  0  0  0  0999 V2000
   68.0489    7.6112    1.2202 P   0  0  1  0  0  0  0  0  0  0  0  0
   68.2853    6.3722   -1.1837 P   0  0  1  0  0  0  0  0  0  0  0  0
   68.1360    5.8654   -3.8598 P   0  0  2  0  0  0  0  0  0  0  0  0
   66.6809    9.8637    1.5122 C   0  0  0  0  0  0  0  0  0  0  0  0
   67.9228    9.1548    1.6567 O   0  0  0  0  0  0  0  0  0  0  0  0
   66.6497   10.7346    0.2648 C   0  0  0  0  0  0  0  0  0  0  0  0
   66.9675   12.1026    0.5930 O   0  0  0  0  0  0  0  0  0  0  0  0
   67.6600   10.2434   -0.7602 C   0  0  0  0  0  0  0  0  0  0  0  0
   67.0035    9.7958   -1.9525 O   0  0  0  0  0  0  0  0  0  0  0  0
   68.5774   11.4072   -1.0499 C   0  0  0  0  0  0  0  0  0  0  0  0
   68.5546   11.7526   -2.4415 O   0  0  0  0  0  0  0  0  0  0  0  0
   68.0829   12.5638   -0.1985 C   0  0  0  0  0  0  0  0  0  0  0  0
   73.0641   13.6145    0.1891 N   0  0  0  0  0  0  0  0  0  0  0  0
   69.2633    7.0441    1.8404 O   0  5  0  0  0  0  0  0  0  0  0  0
   69.5030    5.6054   -0.8563 O   0  5  0  0  0  0  0  0  0  0  0  0
   68.7000    4.5588   -3.4651 O   0  5  0  0  0  0  0  0  0  0  0  0
   72.3620   13.0954   -0.8727 C   0  0  1  0  0  0  0  0  0  0  0  0
   73.0650   12.8167   -1.9623 N   0  0  0  0  0  0  0  0  0  0  0  0
   66.7390    6.9553    1.4208 O   0  0  0  0  0  0  0  0  0  0  0  0
   66.9537    5.7509   -1.0279 O   0  0  0  0  0  0  0  0  0  0  0  0
   68.5592    6.5016   -5.1248 O   0  0  0  0  0  0  0  0  0  0  0  0
   71.0516   12.8651   -0.8529 N   0  0  0  0  0  0  0  0  0  0  0  0
   68.3039    7.7174   -0.3431 O   0  0  0  0  0  0  0  0  0  0  0  0
   68.4130    6.8969   -2.6782 O   0  0  0  0  0  0  0  0  0  0  0  0
   66.5338    5.7488   -3.8587 O   0  0  0  0  0  0  0  0  0  0  0  0
   70.4931   13.2003    0.3329 C   0  0  2  0  0  0  0  0  0  0  0  0
   71.1234   13.7268    1.4489 C   0  0  2  0  0  0  0  0  0  0  0  0
   72.5191   13.9654    1.4111 C   0  0  1  0  0  0  0  0  0  0  0  0
   73.2399   14.3982    2.3003 O   0  0  0  0  0  0  0  0  0  0  0  0
   70.2071   13.9397    2.4844 N   0  0  0  0  0  0  0  0  0  0  0  0
   69.1061   13.5363    1.9394 C   0  0  0  0  0  0  0  0  0  0  0  0
   69.1645   13.0774    0.6644 N   0  0  0  0  0  0  0  0  0  0  0  0
  1  5  1  1  0  0  0
  1 14  1  0  0  0  0
  1 19  2  0  0  0  0
  2 15  1  1  0  0  0
  2 20  2  0  0  0  0
  2 23  1  0  0  0  0
  3 16  1  1  0  0  0
  3 21  2  0  0  0  0
  3 24  1  0  0  0  0
  3 25  1  0  0  0  0
  4  6  1  0  0  0  0
  5  4  1  0  0  0  0
  6  7  1  0  0  0  0
  6  8  2  0  0  0  0
  7 12  1  0  0  0  0
  8  9  1  0  0  0  0
  8 10  1  0  0  0  0
 10 11  1  0  0  0  0
 10 12  2  0  0  0  0
 12 32  1  0  0  0  0
 13 17  1  0  0  0  0
 17 18  1  1  0  0  0
 17 22  1  0  0  0  0
 23  1  1  0  0  0  0
 24  2  1  0  0  0  0
 26 22  1  1  0  0  0
 27 26  1  0  0  0  0
 27 28  1  0  0  0  0
 27 30  1  1  0  0  0
 28 13  1  0  0  0  0
 28 29  1  1  0  0  0
 31 30  1  0  0  0  0
 32 26  1  0  0  0  0
 32 31  1  0  0  0  0
M  CHG  3  14  -1  15  -1  16  -1
M  END
>  <CHROM.1>
-163.16185751,-71.58811334,-38.44868685,-97.97241196,-99.57559854,158.00710774
-171.74883298,77.88489436,68.95958155,9.58661679,-0.53659163,2.15904679,-0.84320741
-2.28721036

>  <Name>
2au4_lig

>  <RI>
0

>  <Rbt.Current_Directory>
/home/itssahil/PROJECTS/Mol_Feturizer/New_Systems/rnas/2au4

>  <Rbt.Executable>
rbdock ($Id: //depot/dev/client3/rdock/2013.1/src/exe/rbdock.cxx#4 $)

>  <Rbt.Library>
libRbt.so (2013.1, Build901 2013/11/27)

>  <Rbt.Parameter_File>
/export/apps/rDock/src/rDock_2013.1_src/data/scripts/dock_solv.prm

>  <Rbt.Receptor>
prm/pocket_docking_4.prm

>  <SCORE>
-41.276

>  <SCORE.INTER>
-17.6655

>  <SCORE.INTER.CONST>
1

>  <SCORE.INTER.POLAR>
-1.69448

>  <SCORE.INTER.ROT>
8

>  <SCORE.INTER.SOLV>
29.7946

>  <SCORE.INTER.VDW>
-24.9936

>  <SCORE.INTER.norm>
-0.552046

>  <SCORE.INTRA>
-23.6105

>  <SCORE.INTRA.DIHEDRAL>
-43.511

>  <SCORE.INTRA.DIHEDRAL.0>
76.3625

>  <SCORE.INTRA.POLAR>
0

>  <SCORE.INTRA.POLAR.0>
0

>  <SCORE.INTRA.REPUL>
-0.12705

>  <SCORE.INTRA.REPUL.0>
0.12705

>  <SCORE.INTRA.SOLV>
-3.98391

>  <SCORE.INTRA.SOLV.lig_0>
-119.383

>  <SCORE.INTRA.VDW>
0.772224

>  <SCORE.INTRA.VDW.0>
-5.10464

>  <SCORE.INTRA.norm>
-0.737828

>  <SCORE.RESTR>
0

>  <SCORE.RESTR.CAVITY>
0

>  <SCORE.RESTR.norm>
0

>  <SCORE.SYSTEM>
0

>  <SCORE.SYSTEM.CONST>
0

>  <SCORE.SYSTEM.DIHEDRAL>
0

>  <SCORE.SYSTEM.SOLV>
0

>  <SCORE.SYSTEM.norm>
0

>  <SCORE.heavy>
32

>  <SCORE.norm>
-1.28987

>  <RMSD>
7.103

$$$$
2au4_lig
 OpenBabel11021811423D
libRbt.so/2013.1/901 2013/11/27
 32 34  0  0  0  0  0  0  0  0999 V2000
   68.2583    6.9356    2.2783 P   0  0  1  0  0  0  0  0  0  0  0  0
   67.4550    6.2139   -0.2124 P   0  0  1  0  0  0  0  0  0  0  0  0
   68.3509    7.5476   -2.4167 P   0  0  2  0  0  0  0  0  0  0  0  0
   68.2443    8.2349    4.5896 C   0  0  0  0  0  0  0  0  0  0  0  0
   67.5707    7.9043    3.3638 O   0  0  0  0  0  0  0  0  0  0  0  0
   68.2212    9.7280    4.8820 C   0  0  0  0  0  0  0  0  0  0  0  0
   69.2120   10.4154    4.0909 O   0  0  0  0  0  0  0  0  0  0  0  0
   66.8582   10.3192    4.5573 C   0  0  0  0  0  0  0  0  0  0  0  0
   66.2257   10.8268    5.7384 O   0  0  0  0  0  0  0  0  0  0  0  0
   67.0970   11.4213    3.5530 C   0  0  0  0  0  0  0  0  0  0  0  0
   66.6221   12.6823    4.0432 O   0  0  0  0  0  0  0  0  0  0  0  0
   68.5964   11.4649    3.3144 C   0  0  0  0  0  0  0  0  0  0  0  0
   67.1437   12.4922   -1.4711 N   0  0  0  0  0  0  0  0  0  0  0  0
   69.3057    7.6949    1.5661 O   0  5  0  0  0  0  0  0  0  0  0  0
   68.6153    5.3057   -0.1285 O   0  5  0  0  0  0  0  0  0  0  0  0
   68.9460    8.8577   -2.7497 O   0  5  0  0  0  0  0  0  0  0  0  0
   66.5440   12.8392   -0.2838 C   0  0  1  0  0  0  0  0  0  0  0  0
   65.4213   13.5394   -0.3750 N   0  0  0  0  0  0  0  0  0  0  0  0
   68.5893    5.6522    2.9336 O   0  0  0  0  0  0  0  0  0  0  0  0
   66.2198    5.7774   -0.8959 O   0  0  0  0  0  0  0  0  0  0  0  0
   67.1980    7.0412   -3.1903 O   0  0  0  0  0  0  0  0  0  0  0  0
   67.0243   12.5103    0.9128 N   0  0  0  0  0  0  0  0  0  0  0  0
   67.0715    6.6677    1.2585 O   0  0  0  0  0  0  0  0  0  0  0  0
   67.9337    7.5742   -0.8799 O   0  0  0  0  0  0  0  0  0  0  0  0
   69.5128    6.4387   -2.4484 O   0  0  0  0  0  0  0  0  0  0  0  0
   68.1692   11.7949    0.8233 C   0  0  2  0  0  0  0  0  0  0  0  0
   68.8379   11.4042   -0.3256 C   0  0  2  0  0  0  0  0  0  0  0  0
   68.3127   11.7624   -1.5913 C   0  0  1  0  0  0  0  0  0  0  0  0
   68.7500   11.4867   -2.7005 O   0  0  0  0  0  0  0  0  0  0  0  0
   69.9881   10.6738   -0.0084 N   0  0  0  0  0  0  0  0  0  0  0  0
   69.9410   10.6696    1.2838 C   0  0  0  0  0  0  0  0  0  0  0  0
   68.9020   11.3067    1.8792 N   0  0  0  0  0  0  0  0  0  0  0  0
  1  5  1  1  0  0  0
  1 14  1  0  0  0  0
  1 19  2  0  0  0  0
  2 15  1  6  0  0  0
  2 20  2  0  0  0  0
  2 23  1  0  0  0  0
  3 16  1  6  0  0  0
  3 21  2  0  0  0  0
  3 24  1  0  0  0  0
  3 25  1  0  0  0  0
  4  6  1  0  0  0  0
  5  4  1  0  0  0  0
  6  7  1  0  0  0  0
  6  8  2  0  0  0  0
  7 12  1  0  0  0  0
  8  9  1  0  0  0  0
  8 10  1  0  0  0  0
 10 11  1  0  0  0  0
 10 12  2  0  0  0  0
 12 32  1  0  0  0  0
 13 17  1  0  0  0  0
 17 18  1  6  0  0  0
 17 22  1  0  0  0  0
 23  1  1  0  0  0  0
 24  2  1  0  0  0  0
 26 22  1  6  0  0  0
 27 26  1  0  0  0  0
 27 28  1  0  0  0  0
 27 30  1  6  0  0  0
 28 13  1  0  0  0  0
 28 29  1  6  0  0  0
 31 30  1  0  0  0  0
 32 26  1  0  0  0  0
 32 31  1  0  0  0  0
M  CHG  3  14  -1  15  -1  16  -1
M  END
>  <CHROM.1>
-75.54112815,37.74202544,-171.52875977,-78.61173476,131.99188851,156.26194473
157.77430005,68.37762325,67.98290725,9.16500289,0.82036918,-0.23577405,-1.47044494
2.15156333

>  <Name>
2au4_lig

>  <RI>
0

>  <Rbt.Current_Directory>
/home/itssahil/PROJECTS/Mol_Feturizer/New_Systems/rnas/2au4

>  <Rbt.Executable>
rbdock ($Id: //depot/dev/client3/rdock/2013.1/src/exe/rbdock.cxx#4 $)

>  <Rbt.Library>
libRbt.so (2013.1, Build901 2013/11/27)

>  <Rbt.Parameter_File>
/export/apps/rDock/src/rDock_2013.1_src/data/scripts/dock_solv.prm

>  <Rbt.Receptor>
prm/pocket_docking_4.prm

>  <SCORE>
-37.2607

>  <SCORE.INTER>
-14.9694

>  <SCORE.INTER.CONST>
1

>  <SCORE.INTER.POLAR>
-1.72493

>  <SCORE.INTER.ROT>
8

>  <SCORE.INTER.SOLV>
29.4626

>  <SCORE.INTER.VDW>
-22.984

>  <SCORE.INTER.norm>
-0.467793

>  <SCORE.INTRA>
-22.3057

>  <SCORE.INTRA.DIHEDRAL>
-42.6778

>  <SCORE.INTRA.DIHEDRAL.0>
76.3625

>  <SCORE.INTRA.POLAR>
0

>  <SCORE.INTRA.POLAR.0>
0

>  <SCORE.INTRA.REPUL>
-0.12705

>  <SCORE.INTRA.REPUL.0>
0.12705

>  <SCORE.INTRA.SOLV>
0.898956

>  <SCORE.INTRA.SOLV.lig_0>
-119.383

>  <SCORE.INTRA.VDW>
-0.781047

>  <SCORE.INTRA.VDW.0>
-5.10464

>  <SCORE.INTRA.norm>
-0.697054

>  <SCORE.RESTR>
0.0144243

>  <SCORE.RESTR.CAVITY>
0.0144243

>  <SCORE.RESTR.norm>
0.00045076

>  <SCORE.SYSTEM>
0

>  <SCORE.SYSTEM.CONST>
0

>  <SCORE.SYSTEM.DIHEDRAL>
0

>  <SCORE.SYSTEM.SOLV>
0

>  <SCORE.SYSTEM.norm>
0

>  <SCORE.heavy>
32

>  <SCORE.norm>
-1.1644

>  <RMSD>
7.159

$$$$
2au4_lig
 OpenBabel11021811423D
libRbt.so/2013.1/901 2013/11/27
 32 34  0  0  0  0  0  0  0  0999 V2000
   68.8468    6.4405    1.6567 P   0  0  1  0  0  0  0  0  0  0  0  0
   68.1094    5.7065   -0.8507 P   0  0  1  0  0  0  0  0  0  0  0  0
   65.6937    6.5315   -1.8123 P   0  0  2  0  0  0  0  0  0  0  0  0
   68.7174    7.5231    4.0737 C   0  0  0  0  0  0  0  0  0  0  0  0
   68.0299    6.9906    2.9293 O   0  0  0  0  0  0  0  0  0  0  0  0
   68.1440    8.8573    4.5281 C   0  0  0  0  0  0  0  0  0  0  0  0
   69.1911    9.8396    4.6646 O   0  0  0  0  0  0  0  0  0  0  0  0
   67.1299    9.3784    3.5218 C   0  0  0  0  0  0  0  0  0  0  0  0
   65.8234    9.4562    4.1048 O   0  0  0  0  0  0  0  0  0  0  0  0
   67.6145   10.7423    3.0917 C   0  0  0  0  0  0  0  0  0  0  0  0
   66.6375   11.7533    3.3737 O   0  0  0  0  0  0  0  0  0  0  0  0
   68.8981   11.0024    3.8612 C   0  0  0  0  0  0  0  0  0  0  0  0
   70.2518   12.9204   -0.6726 N   0  0  0  0  0  0  0  0  0  0  0  0
   69.6432    7.5491    1.0933 O   0  5  0  0  0  0  0  0  0  0  0  0
   68.6456    6.9103   -1.5151 O   0  5  0  0  0  0  0  0  0  0  0  0
   65.8114    7.5115   -0.7137 O   0  5  0  0  0  0  0  0  0  0  0  0
   69.0018   12.8043   -0.1126 C   0  0  1  0  0  0  0  0  0  0  0  0
   67.9869   13.2457   -0.8435 N   0  0  0  0  0  0  0  0  0  0  0  0
   69.5052    5.1707    2.0313 O   0  0  0  0  0  0  0  0  0  0  0  0
   68.9205    4.4731   -0.7841 O   0  0  0  0  0  0  0  0  0  0  0  0
   64.3812    5.9314   -2.1303 O   0  0  0  0  0  0  0  0  0  0  0  0
   68.7743   12.2821    1.0900 N   0  0  0  0  0  0  0  0  0  0  0  0
   67.6874    6.1004    0.6269 O   0  0  0  0  0  0  0  0  0  0  0  0
   66.7158    5.3447   -1.5232 O   0  0  0  0  0  0  0  0  0  0  0  0
   66.2894    7.1929   -3.1496 O   0  0  0  0  0  0  0  0  0  0  0  0
   69.9154   11.8789    1.6948 C   0  0  2  0  0  0  0  0  0  0  0  0
   71.2090   11.9586    1.2048 C   0  0  2  0  0  0  0  0  0  0  0  0
   71.4336   12.5169   -0.0774 C   0  0  1  0  0  0  0  0  0  0  0  0
   72.4938   12.6445   -0.6751 O   0  0  0  0  0  0  0  0  0  0  0  0
   72.1233   11.4349    2.1251 N   0  0  0  0  0  0  0  0  0  0  0  0
   71.3402   11.0796    3.0907 C   0  0  0  0  0  0  0  0  0  0  0  0
   70.0104   11.2983    2.9373 N   0  0  0  0  0  0  0  0  0  0  0  0
  1  5  1  1  0  0  0
  1 14  1  0  0  0  0
  1 19  2  0  0  0  0
  2 15  1  6  0  0  0
  2 20  2  0  0  0  0
  2 23  1  0  0  0  0
  3 16  1  1  0  0  0
  3 21  2  0  0  0  0
  3 24  1  0  0  0  0
  3 25  1  0  0  0  0
  4  6  1  0  0  0  0
  5  4  1  0  0  0  0
  6  7  1  0  0  0  0
  6  8  2  0  0  0  0
  7 12  1  0  0  0  0
  8  9  1  0  0  0  0
  8 10  1  0  0  0  0
 10 11  1  0  0  0  0
 10 12  2  0  0  0  0
 12 32  1  0  0  0  0
 13 17  1  0  0  0  0
 17 18  1  6  0  0  0
 17 22  1  0  0  0  0
 23  1  1  0  0  0  0
 24  2  1  0  0  0  0
 26 22  1  6  0  0  0
 27 26  1  0  0  0  0
 27 28  1  0  0  0  0
 27 30  1  6  0  0  0
 28 13  1  0  0  0  0
 28 29  1  6  0  0  0
 31 30  1  0  0  0  0
 32 26  1  0  0  0  0
 32 31  1  0  0  0  0
M  CHG  3  14  -1  15  -1  16  -1
M  END
>  <CHROM.1>
-60.85878151,-69.61378877,-35.85168865,-128.66429148,132.03396787,149.32708162
171.85871102,-43.90367074,68.44555060,8.78718528,0.93775212,2.92510128,-1.12224733
-1.36836002

>  <Name>
2au4_lig

>  <RI>
0

>  <Rbt.Current_Directory>
/home/itssahil/PROJECTS/Mol_Feturizer/New_Systems/rnas/2au4

>  <Rbt.Executable>
rbdock ($Id: //depot/dev/client3/rdock/2013.1/src/exe/rbdock.cxx#4 $)

>  <Rbt.Library>
libRbt.so (2013.1, Build901 2013/11/27)

>  <Rbt.Parameter_File>
/export/apps/rDock/src/rDock_2013.1_src/data/scripts/dock_solv.prm

>  <Rbt.Receptor>
prm/pocket_docking_3.prm

>  <SCORE>
-36.6203

>  <SCORE.INTER>
-13.3072

>  <SCORE.INTER.CONST>
1

>  <SCORE.INTER.POLAR>
-0.501429

>  <SCORE.INTER.ROT>
8

>  <SCORE.INTER.SOLV>
28.6124

>  <SCORE.INTER.VDW>
-25.6708

>  <SCORE.INTER.norm>
-0.415848

>  <SCORE.INTRA>
-23.318

>  <SCORE.INTRA.DIHEDRAL>
-43.9778

>  <SCORE.INTRA.DIHEDRAL.0>
76.3625

>  <SCORE.INTRA.POLAR>
0

>  <SCORE.INTRA.POLAR.0>
0

>  <SCORE.INTRA.REPUL>
-0.12705

>  <SCORE.INTRA.REPUL.0>
0.12705

>  <SCORE.INTRA.SOLV>
-3.94108

>  <SCORE.INTRA.SOLV.lig_0>
-119.383

>  <SCORE.INTRA.VDW>
1.27672

>  <SCORE.INTRA.VDW.0>
-5.10464

>  <SCORE.INTRA.norm>
-0.728686

>  <SCORE.RESTR>
0.00477227

>  <SCORE.RESTR.CAVITY>
0.00477227

>  <SCORE.RESTR.norm>
0.000149133

>  <SCORE.SYSTEM>
0

>  <SCORE.SYSTEM.CONST>
0

>  <SCORE.SYSTEM.DIHEDRAL>
0

>  <SCORE.SYSTEM.SOLV>
0

>  <SCORE.SYSTEM.norm>
0

>  <SCORE.heavy>
32

>  <SCORE.norm>
-1.14439

>  <RMSD>
7.182

$$$$
2au4_lig
 OpenBabel11021811423D
libRbt.so/2013.1/901 2013/11/27
 32 34  0  0  0  0  0  0  0  0999 V2000
   66.9372    7.6938    0.8311 P   0  0  1  0  0  0  0  0  0  0  0  0
   69.2049    6.5399   -0.1154 P   0  0  1  0  0  0  0  0  0  0  0  0
   68.3335    5.0079   -2.1973 P   0  0  2  0  0  0  0  0  0  0  0  0
   68.5048    8.4051    2.8478 C   0  0  0  0  0  0  0  0  0  0  0  0
   67.5954    7.4485    2.2788 O   0  0  0  0  0  0  0  0  0  0  0  0
   67.7865    9.6018    3.4538 C   0  0  0  0  0  0  0  0  0  0  0  0
   68.2821   10.8318    2.8866 O   0  0  0  0  0  0  0  0  0  0  0  0
   66.2912    9.5232    3.1886 C   0  0  0  0  0  0  0  0  0  0  0  0
   65.5596    9.3977    4.4141 O   0  0  0  0  0  0  0  0  0  0  0  0
   65.9174   10.7925    2.4608 C   0  0  0  0  0  0  0  0  0  0  0  0
   64.9252   11.5329    3.1842 O   0  0  0  0  0  0  0  0  0  0  0  0
   67.1974   11.5984    2.3217 C   0  0  0  0  0  0  0  0  0  0  0  0
   70.7105   12.8757   -1.1558 N   0  0  0  0  0  0  0  0  0  0  0  0
   65.4935    7.3945    0.9133 O   0  5  0  0  0  0  0  0  0  0  0  0
   69.6883    7.9341   -0.1375 O   0  5  0  0  0  0  0  0  0  0  0  0
   67.1536    5.8725   -2.4013 O   0  5  0  0  0  0  0  0  0  0  0  0
   70.8607   12.6400    0.1901 C   0  0  1  0  0  0  0  0  0  0  0  0
   72.0893   12.7616    0.6746 N   0  0  0  0  0  0  0  0  0  0  0  0
   67.3945    9.0039    0.3205 O   0  0  0  0  0  0  0  0  0  0  0  0
   69.6928    5.6024    0.9173 O   0  0  0  0  0  0  0  0  0  0  0  0
   68.2114    3.7648   -1.4076 O   0  0  0  0  0  0  0  0  0  0  0  0
   69.8585   12.3097    1.0008 N   0  0  0  0  0  0  0  0  0  0  0  0
   67.6200    6.5642   -0.0510 O   0  0  0  0  0  0  0  0  0  0  0  0
   69.4829    5.8930   -1.5399 O   0  0  0  0  0  0  0  0  0  0  0  0
   68.9489    4.6404   -3.6349 O   0  0  0  0  0  0  0  0  0  0  0  0
   68.6770   12.2342    0.3460 C   0  0  2  0  0  0  0  0  0  0  0  0
   68.4379   12.4544   -1.0009 C   0  0  2  0  0  0  0  0  0  0  0  0
   69.5159   12.8057   -1.8499 C   0  0  1  0  0  0  0  0  0  0  0  0
   69.4886   13.0585   -3.0469 O   0  0  0  0  0  0  0  0  0  0  0  0
   67.0824   12.2818   -1.3009 N   0  0  0  0  0  0  0  0  0  0  0  0
   66.6000   11.9758   -0.1409 C   0  0  0  0  0  0  0  0  0  0  0  0
   67.4612   11.9199    0.9056 N   0  0  0  0  0  0  0  0  0  0  0  0
  1  5  1  1  0  0  0
  1 14  1  0  0  0  0
  1 19  2  0  0  0  0
  2 15  1  1  0  0  0
  2 20  2  0  0  0  0
  2 23  1  0  0  0  0
  3 16  1  6  0  0  0
  3 21  2  0  0  0  0
  3 24  1  0  0  0  0
  3 25  1  0  0  0  0
  4  6  1  0  0  0  0
  5  4  1  0  0  0  0
  6  7  1  0  0  0  0
  6  8  2  0  0  0  0
  7 12  1  0  0  0  0
  8  9  1  0  0  0  0
  8 10  1  0  0  0  0
 10 11  1  0  0  0  0
 10 12  2  0  0  0  0
 12 32  1  0  0  0  0
 13 17  1  0  0  0  0
 17 18  1  1  0  0  0
 17 22  1  0  0  0  0
 23  1  1  0  0  0  0
 24  2  1  0  0  0  0
 26 22  1  1  0  0  0
 27 26  1  0  0  0  0
 27 28  1  0  0  0  0
 27 30  1  1  0  0  0
 28 13  1  0  0  0  0
 28 29  1  1  0  0  0
 31 30  1  0  0  0  0
 32 26  1  0  0  0  0
 32 31  1  0  0  0  0
M  CHG  3  14  -1  15  -1  16  -1
M  END
>  <CHROM.1>
-134.27034206,-37.45514483,61.61377572,-124.88844045,79.01740323,-37.03523266
-56.76880353,-136.47459512,68.15024052,9.02055425,0.27961312,1.57977866,-0.95136145
-2.84590140

>  <Name>
2au4_lig

>  <RI>
0

>  <Rbt.Current_Directory>
/home/itssahil/PROJECTS/Mol_Feturizer/New_Systems/rnas/2au4

>  <Rbt.Executable>
rbdock ($Id: //depot/dev/client3/rdock/2013.1/src/exe/rbdock.cxx#4 $)

>  <Rbt.Library>
libRbt.so (2013.1, Build901 2013/11/27)

>  <Rbt.Parameter_File>
/export/apps/rDock/src/rDock_2013.1_src/data/scripts/dock_solv.prm

>  <Rbt.Receptor>
prm/pocket_docking_3.prm

>  <SCORE>
-25.7057

>  <SCORE.INTER>
-7.61327

>  <SCORE.INTER.CONST>
1

>  <SCORE.INTER.POLAR>
-0.531015

>  <SCORE.INTER.ROT>
8

>  <SCORE.INTER.SOLV>
28.2994

>  <SCORE.INTER.VDW>
-21.6719

>  <SCORE.INTER.norm>
-0.237915

>  <SCORE.INTRA>
-18.4255

>  <SCORE.INTRA.DIHEDRAL>
-43.9935

>  <SCORE.INTRA.DIHEDRAL.0>
76.3625

>  <SCORE.INTRA.POLAR>
0

>  <SCORE.INTRA.POLAR.0>
0

>  <SCORE.INTRA.REPUL>
0.0329711

>  <SCORE.INTRA.REPUL.0>
0.12705

>  <SCORE.INTRA.SOLV>
4.32131

>  <SCORE.INTRA.SOLV.lig_0>
-119.383

>  <SCORE.INTRA.VDW>
1.24571

>  <SCORE.INTRA.VDW.0>
-5.10464

>  <SCORE.INTRA.norm>
-0.575797

>  <SCORE.RESTR>
0.333047

>  <SCORE.RESTR.CAVITY>
0.333047

>  <SCORE.RESTR.norm>
0.0104077

>  <SCORE.SYSTEM>
0

>  <SCORE.SYSTEM.CONST>
0

>  <SCORE.SYSTEM.DIHEDRAL>
0

>  <SCORE.SYSTEM.SOLV>
0

>  <SCORE.SYSTEM.norm>
0

>  <SCORE.heavy>
32

>  <SCORE.norm>
-0.803304

>  <RMSD>
7.196

$$$$
2au4_lig
 OpenBabel11021811423D
libRbt.so/2013.1/901 2013/11/27
 32 34  0  0  0  0  0  0  0  0999 V2000
   67.2476   10.5224   -0.8571 P   0  0  1  0  0  0  0  0  0  0  0  0
   66.4665   13.0776   -1.3372 P   0  0  1  0  0  0  0  0  0  0  0  0
   63.7878   12.5638   -1.3049 P   0  0  2  0  0  0  0  0  0  0  0  0
   68.3483   10.0567    1.5098 C   0  0  0  0  0  0  0  0  0  0  0  0
   67.4285    9.6501    0.4830 O   0  0  0  0  0  0  0  0  0  0  0  0
   68.7978    8.8937    2.3821 C   0  0  0  0  0  0  0  0  0  0  0  0
   70.1865    9.0378    2.7438 O   0  0  0  0  0  0  0  0  0  0  0  0
   67.9765    8.8306    3.6604 C   0  0  0  0  0  0  0  0  0  0  0  0
   67.2138    7.6191    3.7198 O   0  0  0  0  0  0  0  0  0  0  0  0
   68.9580    8.9109    4.8052 C   0  0  0  0  0  0  0  0  0  0  0  0
   68.8632    7.7579    5.6523 O   0  0  0  0  0  0  0  0  0  0  0  0
   70.3384    9.0084    4.1788 C   0  0  0  0  0  0  0  0  0  0  0  0
   73.2937   12.9767    2.9198 N   0  0  0  0  0  0  0  0  0  0  0  0
   68.5709   10.6926   -1.4903 O   0  5  0  0  0  0  0  0  0  0  0  0
   66.0754   14.2899   -0.5920 O   0  5  0  0  0  0  0  0  0  0  0  0
   62.8249   11.7217   -2.0431 O   0  5  0  0  0  0  0  0  0  0  0  0
   72.7931   11.9744    2.1232 C   0  0  1  0  0  0  0  0  0  0  0  0
   73.1180   12.0270    0.8384 N   0  0  0  0  0  0  0  0  0  0  0  0
   66.1202    9.9650   -1.6346 O   0  0  0  0  0  0  0  0  0  0  0  0
   67.5715   13.1336   -2.3167 O   0  0  0  0  0  0  0  0  0  0  0  0
   63.4741   13.9825   -1.0350 O   0  0  0  0  0  0  0  0  0  0  0  0
   72.0250   10.9850    2.5723 N   0  0  0  0  0  0  0  0  0  0  0  0
   66.7940   11.9334   -0.2883 O   0  0  0  0  0  0  0  0  0  0  0  0
   65.1798   12.5101   -2.0770 O   0  0  0  0  0  0  0  0  0  0  0  0
   64.1291   11.8428    0.0895 O   0  0  0  0  0  0  0  0  0  0  0  0
   71.7962   11.0809    3.9024 C   0  0  2  0  0  0  0  0  0  0  0  0
   72.2589   12.0527    4.7749 C   0  0  2  0  0  0  0  0  0  0  0  0
   73.0758   13.0988    4.2804 C   0  0  1  0  0  0  0  0  0  0  0  0
   73.5897   14.0194    4.9016 O   0  0  0  0  0  0  0  0  0  0  0  0
   71.8086   11.8084    6.0767 N   0  0  0  0  0  0  0  0  0  0  0  0
   71.1184   10.7277    5.9107 C   0  0  0  0  0  0  0  0  0  0  0  0
   71.0460   10.2116    4.6584 N   0  0  0  0  0  0  0  0  0  0  0  0
  1  5  1  1  0  0  0
  1 14  1  0  0  0  0
  1 19  2  0  0  0  0
  2 15  1  1  0  0  0
  2 20  2  0  0  0  0
  2 23  1  0  0  0  0
  3 16  1  6  0  0  0
  3 21  2  0  0  0  0
  3 24  1  0  0  0  0
  3 25  1  0  0  0  0
  4  6  1  0  0  0  0
  5  4  1  0  0  0  0
  6  7  1  0  0  0  0
  6  8  2  0  0  0  0
  7 12  1  0  0  0  0
  8  9  1  0  0  0  0
  8 10  1  0  0  0  0
 10 11  1  0  0  0  0
 10 12  2  0  0  0  0
 12 32  1  0  0  0  0
 13 17  1  0  0  0  0
 17 18  1  1  0  0  0
 17 22  1  0  0  0  0
 23  1  1  0  0  0  0
 24  2  1  0  0  0  0
 26 22  1  1  0  0  0
 27 26  1  0  0  0  0
 27 28  1  0  0  0  0
 27 30  1  1  0  0  0
 28 13  1  0  0  0  0
 28 29  1  1  0  0  0
 31 30  1  0  0  0  0
 32 26  1  0  0  0  0
 32 31  1  0  0  0  0
M  CHG  3  14  -1  15  -1  16  -1
M  END
>  <CHROM.1>
55.25579370,-179.78724626,-167.37265847,142.81803127,-156.75723020,-16.97879327
-178.10538529,-38.97064176,68.39635532,11.27950510,1.37706789,2.59306621
-0.48127306,-0.71495204

>  <Name>
2au4_lig

>  <RI>
0

>  <Rbt.Current_Directory>
/home/itssahil/PROJECTS/Mol_Feturizer/New_Systems/rnas/2au4

>  <Rbt.Executable>
rbdock ($Id: //depot/dev/client3/rdock/2013.1/src/exe/rbdock.cxx#4 $)

>  <Rbt.Library>
libRbt.so (2013.1, Build901 2013/11/27)

>  <Rbt.Parameter_File>
/export/apps/rDock/src/rDock_2013.1_src/data/scripts/dock_solv.prm

>  <Rbt.Receptor>
prm/pocket_docking_7.prm

>  <SCORE>
-40.7245

>  <SCORE.INTER>
-16.5569

>  <SCORE.INTER.CONST>
1

>  <SCORE.INTER.POLAR>
-2.68607

>  <SCORE.INTER.ROT>
8

>  <SCORE.INTER.SOLV>
20.4818

>  <SCORE.INTER.VDW>
-17.845

>  <SCORE.INTER.norm>
-0.517404

>  <SCORE.INTRA>
-24.1675

>  <SCORE.INTRA.DIHEDRAL>
-46.014

>  <SCORE.INTRA.DIHEDRAL.0>
76.3625

>  <SCORE.INTRA.POLAR>
0

>  <SCORE.INTRA.POLAR.0>
0

>  <SCORE.INTRA.REPUL>
0.0504586

>  <SCORE.INTRA.REPUL.0>
0.12705

>  <SCORE.INTRA.SOLV>
-4.79946

>  <SCORE.INTRA.SOLV.lig_0>
-119.383

>  <SCORE.INTRA.VDW>
0.986892

>  <SCORE.INTRA.VDW.0>
-5.10464

>  <SCORE.INTRA.norm>
-0.755235

>  <SCORE.RESTR>
0

>  <SCORE.RESTR.CAVITY>
0

>  <SCORE.RESTR.norm>
0

>  <SCORE.SYSTEM>
0

>  <SCORE.SYSTEM.CONST>
0

>  <SCORE.SYSTEM.DIHEDRAL>
0

>  <SCORE.SYSTEM.SOLV>
0

>  <SCORE.SYSTEM.norm>
0

>  <SCORE.heavy>
32

>  <SCORE.norm>
-1.27264

>  <RMSD>
7.205

$$$$
2au4_lig
 OpenBabel11021811423D
libRbt.so/2013.1/901 2013/11/27
 32 34  0  0  0  0  0  0  0  0999 V2000
   69.0363   13.5330    3.1020 P   0  0  1  0  0  0  0  0  0  0  0  0
   69.7790   12.4065    5.4576 P   0  0  1  0  0  0  0  0  0  0  0  0
   69.2214    9.7440    5.6594 P   0  0  2  0  0  0  0  0  0  0  0  0
   70.3560   12.5491    1.0233 C   0  0  0  0  0  0  0  0  0  0  0  0
   69.1196   13.0311    1.5754 O   0  0  0  0  0  0  0  0  0  0  0  0
   70.1792   11.9499   -0.3642 C   0  0  0  0  0  0  0  0  0  0  0  0
   69.0119   11.1038   -0.4066 O   0  0  0  0  0  0  0  0  0  0  0  0
   70.0123   13.0448   -1.4063 C   0  0  0  0  0  0  0  0  0  0  0  0
   71.0961   13.0293   -2.3434 O   0  0  0  0  0  0  0  0  0  0  0  0
   68.6946   12.7832   -2.0958 C   0  0  0  0  0  0  0  0  0  0  0  0
   68.8748   12.5953   -3.5059 O   0  0  0  0  0  0  0  0  0  0  0  0
   68.1169   11.5335   -1.4542 C   0  0  0  0  0  0  0  0  0  0  0  0
   64.7102   10.4432    2.1889 N   0  0  0  0  0  0  0  0  0  0  0  0
   70.0721   14.5637    3.3160 O   0  5  0  0  0  0  0  0  0  0  0  0
   70.9322   13.3170    5.5970 O   0  5  0  0  0  0  0  0  0  0  0  0
   69.1621    9.4547    4.2123 O   0  5  0  0  0  0  0  0  0  0  0  0
   65.9792    9.9479    2.0048 C   0  0  1  0  0  0  0  0  0  0  0  0
   66.3948    9.0522    2.8902 N   0  0  0  0  0  0  0  0  0  0  0  0
   67.6235   13.8236    3.4270 O   0  0  0  0  0  0  0  0  0  0  0  0
   68.5111   12.7039    6.1557 O   0  0  0  0  0  0  0  0  0  0  0  0
   67.9833   10.0611    6.4013 O   0  0  0  0  0  0  0  0  0  0  0  0
   66.7801   10.3143    1.0072 N   0  0  0  0  0  0  0  0  0  0  0  0
   69.4638   12.2365    3.9122 O   0  0  0  0  0  0  0  0  0  0  0  0
   70.2431   10.9461    5.8783 O   0  0  0  0  0  0  0  0  0  0  0  0
   69.9557    8.5180    6.3931 O   0  0  0  0  0  0  0  0  0  0  0  0
   66.1991   11.2288    0.1969 C   0  0  2  0  0  0  0  0  0  0  0  0
   64.9323   11.7787    0.3092 C   0  0  2  0  0  0  0  0  0  0  0  0
   64.0925   11.3774    1.3769 C   0  0  1  0  0  0  0  0  0  0  0  0
   62.9470   11.7343    1.6175 O   0  0  0  0  0  0  0  0  0  0  0  0
   64.6920   12.6911   -0.7237 N   0  0  0  0  0  0  0  0  0  0  0  0
   65.8048   12.6345   -1.3799 C   0  0  0  0  0  0  0  0  0  0  0  0
   66.7671   11.7974   -0.9185 N   0  0  0  0  0  0  0  0  0  0  0  0
  1  5  1  6  0  0  0
  1 14  1  0  0  0  0
  1 19  2  0  0  0  0
  2 15  1  1  0  0  0
  2 20  2  0  0  0  0
  2 23  1  0  0  0  0
  3 16  1  6  0  0  0
  3 21  2  0  0  0  0
  3 24  1  0  0  0  0
  3 25  1  0  0  0  0
  4  6  1  0  0  0  0
  5  4  1  0  0  0  0
  6  7  1  0  0  0  0
  6  8  2  0  0  0  0
  7 12  1  0  0  0  0
  8  9  1  0  0  0  0
  8 10  1  0  0  0  0
 10 11  1  0  0  0  0
 10 12  2  0  0  0  0
 12 32  1  0  0  0  0
 13 17  1  0  0  0  0
 17 18  1  6  0  0  0
 17 22  1  0  0  0  0
 23  1  1  0  0  0  0
 24  2  1  0  0  0  0
 26 22  1  6  0  0  0
 27 26  1  0  0  0  0
 27 28  1  0  0  0  0
 27 30  1  6  0  0  0
 28 13  1  0  0  0  0
 28 29  1  6  0  0  0
 31 30  1  0  0  0  0
 32 26  1  0  0  0  0
 32 31  1  0  0  0  0
M  CHG  3  14  -1  15  -1  16  -1
M  END
>  <CHROM.1>
54.05934033,-62.36084615,73.67485926,-43.94930295,172.18799106,-26.58154223
168.32039864,-173.25884424,68.20479603,11.76867065,2.25196133,-1.24007770
-0.36546199,-1.29674385

>  <Name>
2au4_lig

>  <RI>
0

>  <Rbt.Current_Directory>
/home/itssahil/PROJECTS/Mol_Feturizer/New_Systems/rnas/2au4

>  <Rbt.Executable>
rbdock ($Id: //depot/dev/client3/rdock/2013.1/src/exe/rbdock.cxx#4 $)

>  <Rbt.Library>
libRbt.so (2013.1, Build901 2013/11/27)

>  <Rbt.Parameter_File>
/export/apps/rDock/src/rDock_2013.1_src/data/scripts/dock_solv.prm

>  <Rbt.Receptor>
prm/pocket_docking_5.prm

>  <SCORE>
-27.4573

>  <SCORE.INTER>
-1.93961

>  <SCORE.INTER.CONST>
1

>  <SCORE.INTER.POLAR>
0

>  <SCORE.INTER.ROT>
8

>  <SCORE.INTER.SOLV>
10.7011

>  <SCORE.INTER.VDW>
-13.7934

>  <SCORE.INTER.norm>
-0.0606128

>  <SCORE.INTRA>
-25.5177

>  <SCORE.INTRA.DIHEDRAL>
-50.1911

>  <SCORE.INTRA.DIHEDRAL.0>
76.3625

>  <SCORE.INTRA.POLAR>
0

>  <SCORE.INTRA.POLAR.0>
0

>  <SCORE.INTRA.REPUL>
0.0831744

>  <SCORE.INTRA.REPUL.0>
0.12705

>  <SCORE.INTRA.SOLV>
-1.21306

>  <SCORE.INTRA.SOLV.lig_0>
-119.383

>  <SCORE.INTRA.VDW>
-0.231509

>  <SCORE.INTRA.VDW.0>
-5.10464

>  <SCORE.INTRA.norm>
-0.797429

>  <SCORE.RESTR>
0

>  <SCORE.RESTR.CAVITY>
0

>  <SCORE.RESTR.norm>
0

>  <SCORE.SYSTEM>
0

>  <SCORE.SYSTEM.CONST>
0

>  <SCORE.SYSTEM.DIHEDRAL>
0

>  <SCORE.SYSTEM.SOLV>
0

>  <SCORE.SYSTEM.norm>
0

>  <SCORE.heavy>
32

>  <SCORE.norm>
-0.858042

>  <RMSD>
7.215

$$$$
2au4_lig
 OpenBabel11021811423D
libRbt.so/2013.1/901 2013/11/27
 32 34  0  0  0  0  0  0  0  0999 V2000
   68.4119    6.6001    1.7277 P   0  0  1  0  0  0  0  0  0  0  0  0
   67.3625    6.3698   -0.7653 P   0  0  1  0  0  0  0  0  0  0  0  0
   69.5873    5.1885   -1.8119 P   0  0  2  0  0  0  0  0  0  0  0  0
   69.2303    7.7992    3.9465 C   0  0  0  0  0  0  0  0  0  0  0  0
   69.1180    7.8138    2.5137 O   0  0  0  0  0  0  0  0  0  0  0  0
   69.1119    9.1895    4.5537 C   0  0  0  0  0  0  0  0  0  0  0  0
   70.0439   10.0966    3.9302 O   0  0  0  0  0  0  0  0  0  0  0  0
   67.7083    9.7427    4.3627 C   0  0  0  0  0  0  0  0  0  0  0  0
   67.0597    9.9404    5.6249 O   0  0  0  0  0  0  0  0  0  0  0  0
   67.8594   11.0486    3.6196 C   0  0  0  0  0  0  0  0  0  0  0  0
   67.3085   12.1395    4.3696 O   0  0  0  0  0  0  0  0  0  0  0  0
   69.3492   11.2442    3.3974 C   0  0  0  0  0  0  0  0  0  0  0  0
   67.4719   12.3736   -1.2141 N   0  0  0  0  0  0  0  0  0  0  0  0
   69.3588    5.4689    1.6600 O   0  5  0  0  0  0  0  0  0  0  0  0
   66.1076    5.9867   -0.0894 O   0  5  0  0  0  0  0  0  0  0  0  0
   69.2655    5.7184   -3.1524 O   0  5  0  0  0  0  0  0  0  0  0  0
   66.8261   12.3033   -0.0027 C   0  0  1  0  0  0  0  0  0  0  0  0
   65.5248   12.5588   -0.0145 N   0  0  0  0  0  0  0  0  0  0  0  0
   67.0575    6.4005    2.2862 O   0  0  0  0  0  0  0  0  0  0  0  0
   67.3201    7.1206   -2.0373 O   0  0  0  0  0  0  0  0  0  0  0  0
   70.3217    3.9131   -1.6778 O   0  0  0  0  0  0  0  0  0  0  0  0
   67.4306   11.9965    1.1425 N   0  0  0  0  0  0  0  0  0  0  0  0
   68.2505    7.1893    0.2625 O   0  0  0  0  0  0  0  0  0  0  0  0
   68.2256    5.0557   -0.9966 O   0  0  0  0  0  0  0  0  0  0  0  0
   70.3798    6.3216   -0.9941 O   0  0  0  0  0  0  0  0  0  0  0  0
   68.7523   11.7616    0.9741 C   0  0  2  0  0  0  0  0  0  0  0  0
   69.4794   11.8108   -0.2044 C   0  0  2  0  0  0  0  0  0  0  0  0
   68.8203   12.1385   -1.4146 C   0  0  1  0  0  0  0  0  0  0  0  0
   69.2914   12.2048   -2.5420 O   0  0  0  0  0  0  0  0  0  0  0  0
   70.8245   11.5040    0.0271 N   0  0  0  0  0  0  0  0  0  0  0  0
   70.8235   11.2931    1.3028 C   0  0  0  0  0  0  0  0  0  0  0  0
   69.6449   11.4194    1.9621 N   0  0  0  0  0  0  0  0  0  0  0  0
  1  5  1  1  0  0  0
  1 14  1  0  0  0  0
  1 19  2  0  0  0  0
  2 15  1  1  0  0  0
  2 20  2  0  0  0  0
  2 23  1  0  0  0  0
  3 16  1  6  0  0  0
  3 21  2  0  0  0  0
  3 24  1  0  0  0  0
  3 25  1  0  0  0  0
  4  6  1  0  0  0  0
  5  4  1  0  0  0  0
  6  7  1  0  0  0  0
  6  8  2  0  0  0  0
  7 12  1  0  0  0  0
  8  9  1  0  0  0  0
  8 10  1  0  0  0  0
 10 11  1  0  0  0  0
 10 12  2  0  0  0  0
 12 32  1  0  0  0  0
 13 17  1  0  0  0  0
 17 18  1  6  0  0  0
 17 22  1  0  0  0  0
 23  1  1  0  0  0  0
 24  2  1  0  0  0  0
 26 22  1  6  0  0  0
 27 26  1  0  0  0  0
 27 28  1  0  0  0  0
 27 30  1  6  0  0  0
 28 13  1  0  0  0  0
 28 29  1  6  0  0  0
 31 30  1  0  0  0  0
 32 26  1  0  0  0  0
 32 31  1  0  0  0  0
M  CHG  3  14  -1  15  -1  16  -1
M  END
>  <CHROM.1>
-77.50921295,46.65465940,-59.37264487,-52.92405286,-145.51121175,138.67241837
-169.85472291,175.50987863,68.53221001,8.68665528,0.78318659,0.47894642,-1.49160792
2.55180602

>  <Name>
2au4_lig

>  <RI>
0

>  <Rbt.Current_Directory>
/home/itssahil/PROJECTS/Mol_Feturizer/New_Systems/rnas/2au4

>  <Rbt.Executable>
rbdock ($Id: //depot/dev/client3/rdock/2013.1/src/exe/rbdock.cxx#4 $)

>  <Rbt.Library>
libRbt.so (2013.1, Build901 2013/11/27)

>  <Rbt.Parameter_File>
/export/apps/rDock/src/rDock_2013.1_src/data/scripts/dock_solv.prm

>  <Rbt.Receptor>
prm/pocket_docking_3.prm

>  <SCORE>
-34.021

>  <SCORE.INTER>
-10.8548

>  <SCORE.INTER.CONST>
1

>  <SCORE.INTER.POLAR>
-0.855428

>  <SCORE.INTER.ROT>
8

>  <SCORE.INTER.SOLV>
28.8102

>  <SCORE.INTER.VDW>
-22.9218

>  <SCORE.INTER.norm>
-0.339213

>  <SCORE.INTRA>
-23.6923

>  <SCORE.INTRA.DIHEDRAL>
-43.8364

>  <SCORE.INTRA.DIHEDRAL.0>
76.3625

>  <SCORE.INTRA.POLAR>
0

>  <SCORE.INTRA.POLAR.0>
0

>  <SCORE.INTRA.REPUL>
-0.12705

>  <SCORE.INTRA.REPUL.0>
0.12705

>  <SCORE.INTRA.SOLV>
-3.90267

>  <SCORE.INTRA.SOLV.lig_0>
-119.383

>  <SCORE.INTRA.VDW>
0.81243

>  <SCORE.INTRA.VDW.0>
-5.10464

>  <SCORE.INTRA.norm>
-0.740385

>  <SCORE.RESTR>
0.526167

>  <SCORE.RESTR.CAVITY>
0.526167

>  <SCORE.RESTR.norm>
0.0164427

>  <SCORE.SYSTEM>
0

>  <SCORE.SYSTEM.CONST>
0

>  <SCORE.SYSTEM.DIHEDRAL>
0

>  <SCORE.SYSTEM.SOLV>
0

>  <SCORE.SYSTEM.norm>
0

>  <SCORE.heavy>
32

>  <SCORE.norm>
-1.06316

>  <RMSD>
7.219

$$$$
2au4_lig
 OpenBabel11021811423D
libRbt.so/2013.1/901 2013/11/27
 32 34  0  0  0  0  0  0  0  0999 V2000
   65.4095    8.3124   -0.7897 P   0  0  1  0  0  0  0  0  0  0  0  0
   67.3594    6.5213   -1.3890 P   0  0  1  0  0  0  0  0  0  0  0  0
   69.4162    4.7340   -1.2622 P   0  0  2  0  0  0  0  0  0  0  0  0
   64.3485   10.3437    0.5441 C   0  0  0  0  0  0  0  0  0  0  0  0
   64.9565    9.0416    0.5714 O   0  0  0  0  0  0  0  0  0  0  0  0
   64.0422   10.8722    1.9377 C   0  0  0  0  0  0  0  0  0  0  0  0
   64.5792    9.9899    2.9444 O   0  0  0  0  0  0  0  0  0  0  0  0
   64.6531   12.2505    2.1372 C   0  0  0  0  0  0  0  0  0  0  0  0
   63.6346   13.2374    2.3412 O   0  0  0  0  0  0  0  0  0  0  0  0
   65.5588   12.1481    3.3412 C   0  0  0  0  0  0  0  0  0  0  0  0
   65.1649   13.0692    4.3670 O   0  0  0  0  0  0  0  0  0  0  0  0
   65.4550   10.7149    3.8336 C   0  0  0  0  0  0  0  0  0  0  0  0
   70.4700   11.4419    4.4560 N   0  0  0  0  0  0  0  0  0  0  0  0
   64.2893    7.4808   -1.2737 O   0  5  0  0  0  0  0  0  0  0  0  0
   66.4636    5.4846   -1.9376 O   0  5  0  0  0  0  0  0  0  0  0  0
   70.5947    4.4933   -0.4052 O   0  5  0  0  0  0  0  0  0  0  0  0
   69.4473   12.3603    4.4681 C   0  0  1  0  0  0  0  0  0  0  0  0
   69.7952   13.6250    4.6646 N   0  0  0  0  0  0  0  0  0  0  0  0
   66.0252    9.3181   -1.6817 O   0  0  0  0  0  0  0  0  0  0  0  0
   68.0162    7.4878   -2.2934 O   0  0  0  0  0  0  0  0  0  0  0  0
   69.5970    5.1730   -2.6617 O   0  0  0  0  0  0  0  0  0  0  0  0
   68.1663   12.0451    4.2934 N   0  0  0  0  0  0  0  0  0  0  0  0
   66.5593    7.3386   -0.2898 O   0  0  0  0  0  0  0  0  0  0  0  0
   68.4879    5.8024   -0.5317 O   0  0  0  0  0  0  0  0  0  0  0  0
   68.5047    3.4112   -1.2564 O   0  0  0  0  0  0  0  0  0  0  0  0
   67.9897   10.7175    4.1020 C   0  0  2  0  0  0  0  0  0  0  0  0
   68.9590    9.7278    4.0753 C   0  0  2  0  0  0  0  0  0  0  0  0
   70.3179   10.0806    4.2626 C   0  0  1  0  0  0  0  0  0  0  0  0
   71.3009    9.3518    4.2465 O   0  0  0  0  0  0  0  0  0  0  0  0
   68.3834    8.4728    3.8498 N   0  0  0  0  0  0  0  0  0  0  0  0
   67.1305    8.7785    3.7559 C   0  0  0  0  0  0  0  0  0  0  0  0
   66.7880   10.0840    3.8903 N   0  0  0  0  0  0  0  0  0  0  0  0
  1  5  1  1  0  0  0
  1 14  1  0  0  0  0
  1 19  2  0  0  0  0
  2 15  1  6  0  0  0
  2 20  2  0  0  0  0
  2 23  1  0  0  0  0
  3 16  1  1  0  0  0
  3 21  2  0  0  0  0
  3 24  1  0  0  0  0
  3 25  1  0  0  0  0
  4  6  1  0  0  0  0
  5  4  1  0  0  0  0
  6  7  1  0  0  0  0
  6  8  2  0  0  0  0
  7 12  1  0  0  0  0
  8  9  1  0  0  0  0
  8 10  1  0  0  0  0
 10 11  1  0  0  0  0
 10 12  2  0  0  0  0
 12 32  1  0  0  0  0
 13 17  1  0  0  0  0
 17 18  1  6  0  0  0
 17 22  1  0  0  0  0
 23  1  1  0  0  0  0
 24  2  1  0  0  0  0
 26 22  1  6  0  0  0
 27 26  1  0  0  0  0
 27 28  1  0  0  0  0
 27 30  1  6  0  0  0
 28 13  1  0  0  0  0
 28 29  1  6  0  0  0
 31 30  1  0  0  0  0
 32 26  1  0  0  0  0
 32 31  1  0  0  0  0
M  CHG  3  14  -1  15  -1  16  -1
M  END
>  <CHROM.1>
-91.35878932,-71.21976969,164.34587272,6.42080545,-177.96515639,149.22674210
-174.68952278,58.70533945,67.26885564,8.80477707,1.24146203,1.43017423,0.41598375
-2.37279807

>  <Name>
2au4_lig

>  <RI>
0

>  <Rbt.Current_Directory>
/home/itssahil/PROJECTS/Mol_Feturizer/New_Systems/rnas/2au4

>  <Rbt.Executable>
rbdock ($Id: //depot/dev/client3/rdock/2013.1/src/exe/rbdock.cxx#4 $)

>  <Rbt.Library>
libRbt.so (2013.1, Build901 2013/11/27)

>  <Rbt.Parameter_File>
/export/apps/rDock/src/rDock_2013.1_src/data/scripts/dock_solv.prm

>  <Rbt.Receptor>
prm/pocket_docking_5.prm

>  <SCORE>
-33.8343

>  <SCORE.INTER>
-7.23006

>  <SCORE.INTER.CONST>
1

>  <SCORE.INTER.POLAR>
-0.681371

>  <SCORE.INTER.ROT>
8

>  <SCORE.INTER.SOLV>
21.4504

>  <SCORE.INTER.VDW>
-18.6323

>  <SCORE.INTER.norm>
-0.225939

>  <SCORE.INTRA>
-26.6043

>  <SCORE.INTRA.DIHEDRAL>
-49.6286

>  <SCORE.INTRA.DIHEDRAL.0>
76.3625

>  <SCORE.INTRA.POLAR>
0

>  <SCORE.INTRA.POLAR.0>
0

>  <SCORE.INTRA.REPUL>
-0.12705

>  <SCORE.INTRA.REPUL.0>
0.12705

>  <SCORE.INTRA.SOLV>
-5.43768

>  <SCORE.INTRA.SOLV.lig_0>
-119.383

>  <SCORE.INTRA.VDW>
1.56415

>  <SCORE.INTRA.VDW.0>
-5.10464

>  <SCORE.INTRA.norm>
-0.831383

>  <SCORE.RESTR>
0

>  <SCORE.RESTR.CAVITY>
0

>  <SCORE.RESTR.norm>
0

>  <SCORE.SYSTEM>
0

>  <SCORE.SYSTEM.CONST>
0

>  <SCORE.SYSTEM.DIHEDRAL>
0

>  <SCORE.SYSTEM.SOLV>
0

>  <SCORE.SYSTEM.norm>
0

>  <SCORE.heavy>
32

>  <SCORE.norm>
-1.05732

>  <RMSD>
7.219

$$$$
2au4_lig
 OpenBabel11021811423D
libRbt.so/2013.1/901 2013/11/27
 32 34  0  0  0  0  0  0  0  0999 V2000
   66.6077    6.8711    0.3099 P   0  0  1  0  0  0  0  0  0  0  0  0
   69.1752    6.0924    0.7236 P   0  0  1  0  0  0  0  0  0  0  0  0
   69.9062    4.4433   -1.3225 P   0  0  2  0  0  0  0  0  0  0  0  0
   67.4486    8.6093    2.1272 C   0  0  0  0  0  0  0  0  0  0  0  0
   66.8139    7.3542    1.8310 O   0  0  0  0  0  0  0  0  0  0  0  0
   68.3198    8.5411    3.3729 C   0  0  0  0  0  0  0  0  0  0  0  0
   69.7171    8.5375    3.0153 O   0  0  0  0  0  0  0  0  0  0  0  0
   68.0621    9.7369    4.2763 C   0  0  0  0  0  0  0  0  0  0  0  0
   67.5152    9.3205    5.5334 O   0  0  0  0  0  0  0  0  0  0  0  0
   69.3922   10.4266    4.4646 C   0  0  0  0  0  0  0  0  0  0  0  0
   69.7532   10.4887    5.8510 O   0  0  0  0  0  0  0  0  0  0  0  0
   70.4087    9.6174    3.6778 C   0  0  0  0  0  0  0  0  0  0  0  0
   72.6837   14.1086    2.8292 N   0  0  0  0  0  0  0  0  0  0  0  0
   65.2956    6.2020    0.2022 O   0  5  0  0  0  0  0  0  0  0  0  0
   69.6694    7.3172    0.0650 O   0  5  0  0  0  0  0  0  0  0  0  0
   71.0939    3.6420   -1.6811 O   0  5  0  0  0  0  0  0  0  0  0  0
   72.0903   13.6339    3.9748 C   0  0  1  0  0  0  0  0  0  0  0  0
   72.0962   14.4490    5.0210 N   0  0  0  0  0  0  0  0  0  0  0  0
   66.9432    7.9940   -0.5916 O   0  0  0  0  0  0  0  0  0  0  0  0
   69.1079    6.0190    2.1979 O   0  0  0  0  0  0  0  0  0  0  0  0
   69.5708    5.6558   -2.0980 O   0  0  0  0  0  0  0  0  0  0  0  0
   71.5259   12.4329    4.0739 N   0  0  0  0  0  0  0  0  0  0  0  0
   67.7343    5.7646    0.1467 O   0  0  0  0  0  0  0  0  0  0  0  0
   70.0416    4.8643    0.2075 O   0  0  0  0  0  0  0  0  0  0  0  0
   68.6244    3.4750   -1.3105 O   0  0  0  0  0  0  0  0  0  0  0  0
   71.6040   11.7360    2.9168 C   0  0  2  0  0  0  0  0  0  0  0  0
   72.1813   12.1365    1.7226 C   0  0  2  0  0  0  0  0  0  0  0  0
   72.7773   13.4183    1.6340 C   0  0  1  0  0  0  0  0  0  0  0  0
   73.3070   13.9443    0.6643 O   0  0  0  0  0  0  0  0  0  0  0  0
   72.0611   11.1368    0.7514 N   0  0  0  0  0  0  0  0  0  0  0  0
   71.4319   10.2168    1.4069 C   0  0  0  0  0  0  0  0  0  0  0  0
   71.1123   10.4705    2.7004 N   0  0  0  0  0  0  0  0  0  0  0  0
  1  5  1  1  0  0  0
  1 14  1  0  0  0  0
  1 19  2  0  0  0  0
  2 15  1  6  0  0  0
  2 20  2  0  0  0  0
  2 23  1  0  0  0  0
  3 16  1  6  0  0  0
  3 21  2  0  0  0  0
  3 24  1  0  0  0  0
  3 25  1  0  0  0  0
  4  6  1  0  0  0  0
  5  4  1  0  0  0  0
  6  7  1  0  0  0  0
  6  8  2  0  0  0  0
  7 12  1  0  0  0  0
  8  9  1  0  0  0  0
  8 10  1  0  0  0  0
 10 11  1  0  0  0  0
 10 12  2  0  0  0  0
 12 32  1  0  0  0  0
 13 17  1  0  0  0  0
 17 18  1  6  0  0  0
 17 22  1  0  0  0  0
 23  1  1  0  0  0  0
 24  2  1  0  0  0  0
 26 22  1  6  0  0  0
 27 26  1  0  0  0  0
 27 28  1  0  0  0  0
 27 30  1  6  0  0  0
 28 13  1  0  0  0  0
 28 29  1  6  0  0  0
 31 30  1  0  0  0  0
 32 26  1  0  0  0  0
 32 31  1  0  0  0  0
M  CHG  3  14  -1  15  -1  16  -1
M  END
>  <CHROM.1>
-141.82005525,-58.47912742,160.53769499,106.11247905,-143.50035978,163.79561130
-44.04996952,-66.93856820,69.63766242,8.56592598,1.56002129,2.01614443,-0.59510475
-2.40738127

>  <Name>
2au4_lig

>  <RI>
0

>  <Rbt.Current_Directory>
/home/itssahil/PROJECTS/Mol_Feturizer/New_Systems/rnas/2au4

>  <Rbt.Executable>
rbdock ($Id: //depot/dev/client3/rdock/2013.1/src/exe/rbdock.cxx#4 $)

>  <Rbt.Library>
libRbt.so (2013.1, Build901 2013/11/27)

>  <Rbt.Parameter_File>
/export/apps/rDock/src/rDock_2013.1_src/data/scripts/dock_solv.prm

>  <Rbt.Receptor>
prm/pocket_docking_5.prm

>  <SCORE>
-44.7046

>  <SCORE.INTER>
-24.4543

>  <SCORE.INTER.CONST>
1

>  <SCORE.INTER.POLAR>
-2.41075

>  <SCORE.INTER.ROT>
8

>  <SCORE.INTER.SOLV>
33.0644

>  <SCORE.INTER.VDW>
-28.2219

>  <SCORE.INTER.norm>
-0.764197

>  <SCORE.INTRA>
-20.6542

>  <SCORE.INTRA.DIHEDRAL>
-40.3397

>  <SCORE.INTRA.DIHEDRAL.0>
76.3625

>  <SCORE.INTRA.POLAR>
0

>  <SCORE.INTRA.POLAR.0>
0

>  <SCORE.INTRA.REPUL>
-0.12705

>  <SCORE.INTRA.REPUL.0>
0.12705

>  <SCORE.INTRA.SOLV>
-1.06251

>  <SCORE.INTRA.SOLV.lig_0>
-119.383

>  <SCORE.INTRA.VDW>
0.682145

>  <SCORE.INTRA.VDW.0>
-5.10464

>  <SCORE.INTRA.norm>
-0.645444

>  <SCORE.RESTR>
0.403935

>  <SCORE.RESTR.CAVITY>
0.403935

>  <SCORE.RESTR.norm>
0.012623

>  <SCORE.SYSTEM>
0

>  <SCORE.SYSTEM.CONST>
0

>  <SCORE.SYSTEM.DIHEDRAL>
0

>  <SCORE.SYSTEM.SOLV>
0

>  <SCORE.SYSTEM.norm>
0

>  <SCORE.heavy>
32

>  <SCORE.norm>
-1.39702

>  <RMSD>
7.223

$$$$
2au4_lig
 OpenBabel11021811423D
libRbt.so/2013.1/901 2013/11/27
 32 34  0  0  0  0  0  0  0  0999 V2000
   69.4725    4.6306   -1.0750 P   0  0  1  0  0  0  0  0  0  0  0  0
   68.6384    5.5450   -3.4911 P   0  0  1  0  0  0  0  0  0  0  0  0
   67.9836    4.5639   -5.9506 P   0  0  2  0  0  0  0  0  0  0  0  0
   69.1977    7.0638   -0.0579 C   0  0  0  0  0  0  0  0  0  0  0  0
   68.5927    5.8153   -0.4332 O   0  0  0  0  0  0  0  0  0  0  0  0
   68.2030    8.2153   -0.0567 C   0  0  0  0  0  0  0  0  0  0  0  0
   67.8414    8.5722    1.2932 O   0  0  0  0  0  0  0  0  0  0  0  0
   68.7983    9.4418   -0.7306 C   0  0  0  0  0  0  0  0  0  0  0  0
   68.0663    9.7815   -1.9145 O   0  0  0  0  0  0  0  0  0  0  0  0
   68.7396   10.5592    0.2834 C   0  0  0  0  0  0  0  0  0  0  0  0
   67.9731   11.6669   -0.2084 O   0  0  0  0  0  0  0  0  0  0  0  0
   68.1009    9.9721    1.5302 C   0  0  0  0  0  0  0  0  0  0  0  0
   71.6800   12.8643    3.7420 N   0  0  0  0  0  0  0  0  0  0  0  0
   70.7258    4.5043   -0.3043 O   0  5  0  0  0  0  0  0  0  0  0  0
   67.3730    5.3968   -2.7461 O   0  5  0  0  0  0  0  0  0  0  0  0
   66.5797    4.9256   -5.6687 O   0  5  0  0  0  0  0  0  0  0  0  0
   71.0457   13.0329    2.5341 C   0  0  1  0  0  0  0  0  0  0  0  0
   71.4060   14.0935    1.8240 N   0  0  0  0  0  0  0  0  0  0  0  0
   68.6029    3.4515   -1.2741 O   0  0  0  0  0  0  0  0  0  0  0  0
   68.9486    6.8149   -4.1802 O   0  0  0  0  0  0  0  0  0  0  0  0
   68.2895    3.3904   -6.7952 O   0  0  0  0  0  0  0  0  0  0  0  0
   70.1192   12.2029    2.0615 N   0  0  0  0  0  0  0  0  0  0  0  0
   69.8368    5.2119   -2.5066 O   0  0  0  0  0  0  0  0  0  0  0  0
   68.7301    4.3701   -4.5571 O   0  0  0  0  0  0  0  0  0  0  0  0
   68.7240    5.8467   -6.5727 O   0  0  0  0  0  0  0  0  0  0  0  0
   69.8763   11.1753    2.9075 C   0  0  2  0  0  0  0  0  0  0  0  0
   70.4665   10.9310    4.1371 C   0  0  2  0  0  0  0  0  0  0  0  0
   71.4513   11.8244    4.6252 C   0  0  1  0  0  0  0  0  0  0  0  0
   72.0900   11.7553    5.6667 O   0  0  0  0  0  0  0  0  0  0  0  0
   69.9516    9.7651    4.7138 N   0  0  0  0  0  0  0  0  0  0  0  0
   69.1023    9.3878    3.8148 C   0  0  0  0  0  0  0  0  0  0  0  0
   68.9792   10.1540    2.7023 N   0  0  0  0  0  0  0  0  0  0  0  0
  1  5  1  1  0  0  0
  1 14  1  0  0  0  0
  1 19  2  0  0  0  0
  2 15  1  1  0  0  0
  2 20  2  0  0  0  0
  2 23  1  0  0  0  0
  3 16  1  1  0  0  0
  3 21  2  0  0  0  0
  3 24  1  0  0  0  0
  3 25  1  0  0  0  0
  4  6  1  0  0  0  0
  5  4  1  0  0  0  0
  6  7  1  0  0  0  0
  6  8  2  0  0  0  0
  7 12  1  0  0  0  0
  8  9  1  0  0  0  0
  8 10  1  0  0  0  0
 10 11  1  0  0  0  0
 10 12  2  0  0  0  0
 12 32  1  0  0  0  0
 13 17  1  0  0  0  0
 17 18  1  6  0  0  0
 17 22  1  0  0  0  0
 23  1  1  0  0  0  0
 24  2  1  0  0  0  0
 26 22  1  6  0  0  0
 27 26  1  0  0  0  0
 27 28  1  0  0  0  0
 27 30  1  6  0  0  0
 28 13  1  0  0  0  0
 28 29  1  6  0  0  0
 31 30  1  0  0  0  0
 32 26  1  0  0  0  0
 32 31  1  0  0  0  0
M  CHG  3  14  -1  15  -1  16  -1
M  END
>  <CHROM.1>
44.20569745,7.76549797,-52.70138102,104.68342588,154.98507620,150.09586807
-60.96990616,83.46388212,69.15767976,7.86012641,-0.67614247,-2.37030158,-1.29774330
0.07212900

>  <Name>
2au4_lig

>  <RI>
0

>  <Rbt.Current_Directory>
/home/itssahil/PROJECTS/Mol_Feturizer/New_Systems/rnas/2au4

>  <Rbt.Executable>
rbdock ($Id: //depot/dev/client3/rdock/2013.1/src/exe/rbdock.cxx#4 $)

>  <Rbt.Library>
libRbt.so (2013.1, Build901 2013/11/27)

>  <Rbt.Parameter_File>
/export/apps/rDock/src/rDock_2013.1_src/data/scripts/dock_solv.prm

>  <Rbt.Receptor>
prm/pocket_docking_4.prm

>  <SCORE>
-39.1105

>  <SCORE.INTER>
-15.4812

>  <SCORE.INTER.CONST>
1

>  <SCORE.INTER.POLAR>
-1.60404

>  <SCORE.INTER.ROT>
8

>  <SCORE.INTER.SOLV>
42.4868

>  <SCORE.INTER.VDW>
-28.0696

>  <SCORE.INTER.norm>
-0.483787

>  <SCORE.INTRA>
-24.512

>  <SCORE.INTRA.DIHEDRAL>
-45.9626

>  <SCORE.INTRA.DIHEDRAL.0>
76.3625

>  <SCORE.INTRA.POLAR>
0

>  <SCORE.INTRA.POLAR.0>
0

>  <SCORE.INTRA.REPUL>
-0.12705

>  <SCORE.INTRA.REPUL.0>
0.12705

>  <SCORE.INTRA.SOLV>
-5.61119

>  <SCORE.INTRA.SOLV.lig_0>
-119.383

>  <SCORE.INTRA.VDW>
1.91011

>  <SCORE.INTRA.VDW.0>
-5.10464

>  <SCORE.INTRA.norm>
-0.766001

>  <SCORE.RESTR>
0.882676

>  <SCORE.RESTR.CAVITY>
0.882676

>  <SCORE.RESTR.norm>
0.0275836

>  <SCORE.SYSTEM>
0

>  <SCORE.SYSTEM.CONST>
0

>  <SCORE.SYSTEM.DIHEDRAL>
0

>  <SCORE.SYSTEM.SOLV>
0

>  <SCORE.SYSTEM.norm>
0

>  <SCORE.heavy>
32

>  <SCORE.norm>
-1.2222

>  <RMSD>
7.271

$$$$
2au4_lig
 OpenBabel11021811423D
libRbt.so/2013.1/901 2013/11/27
 32 34  0  0  0  0  0  0  0  0999 V2000
   69.7827   14.2357    4.2636 P   0  0  1  0  0  0  0  0  0  0  0  0
   71.7902   13.2674    2.7138 P   0  0  1  0  0  0  0  0  0  0  0  0
   73.6048   11.6478    1.4790 P   0  0  2  0  0  0  0  0  0  0  0  0
   67.4379   12.9977    4.2723 C   0  0  0  0  0  0  0  0  0  0  0  0
   68.5348   13.5533    5.0164 O   0  0  0  0  0  0  0  0  0  0  0  0
   66.8868   11.7296    4.9076 C   0  0  0  0  0  0  0  0  0  0  0  0
   65.6096   11.3872    4.3316 O   0  0  0  0  0  0  0  0  0  0  0  0
   67.8362   10.5618    4.6897 C   0  0  0  0  0  0  0  0  0  0  0  0
   68.3516   10.0812    5.9372 O   0  0  0  0  0  0  0  0  0  0  0  0
   67.0423    9.4901    3.9813 C   0  0  0  0  0  0  0  0  0  0  0  0
   67.0196    8.2737    4.7402 O   0  0  0  0  0  0  0  0  0  0  0  0
   65.6386   10.0433    3.8059 C   0  0  0  0  0  0  0  0  0  0  0  0
   66.1790    7.7403   -0.7185 N   0  0  0  0  0  0  0  0  0  0  0  0
   69.2674   15.0716    3.1607 O   0  5  0  0  0  0  0  0  0  0  0  0
   71.3424   13.9895    1.5071 O   0  5  0  0  0  0  0  0  0  0  0  0
   74.6632   12.3416    2.2403 O   0  5  0  0  0  0  0  0  0  0  0  0
   66.7669    7.4423    0.4878 C   0  0  1  0  0  0  0  0  0  0  0  0
   67.6025    6.4124    0.4960 N   0  0  0  0  0  0  0  0  0  0  0  0
   70.6836   14.8217    5.2791 O   0  0  0  0  0  0  0  0  0  0  0  0
   72.8512   13.8391    3.5688 O   0  0  0  0  0  0  0  0  0  0  0  0
   73.3466   12.0134    0.0706 O   0  0  0  0  0  0  0  0  0  0  0  0
   66.5434    8.1229    1.6092 N   0  0  0  0  0  0  0  0  0  0  0  0
   70.5216   12.9849    3.6234 O   0  0  0  0  0  0  0  0  0  0  0  0
   72.2386   11.8052    2.2824 O   0  0  0  0  0  0  0  0  0  0  0  0
   73.8783   10.0666    1.5535 O   0  0  0  0  0  0  0  0  0  0  0  0
   65.6720    9.1409    1.4224 C   0  0  2  0  0  0  0  0  0  0  0  0
   65.0365    9.5088    0.2475 C   0  0  2  0  0  0  0  0  0  0  0  0
   65.2859    8.7739   -0.9374 C   0  0  1  0  0  0  0  0  0  0  0  0
   64.8380    8.9674   -2.0596 O   0  0  0  0  0  0  0  0  0  0  0  0
   64.2086   10.6173    0.4550 N   0  0  0  0  0  0  0  0  0  0  0  0
   64.3938   10.8434    1.7146 C   0  0  0  0  0  0  0  0  0  0  0  0
   65.2437   10.0253    2.3840 N   0  0  0  0  0  0  0  0  0  0  0  0
  1  5  1  1  0  0  0
  1 14  1  0  0  0  0
  1 19  2  0  0  0  0
  2 15  1  6  0  0  0
  2 20  2  0  0  0  0
  2 23  1  0  0  0  0
  3 16  1  1  0  0  0
  3 21  2  0  0  0  0
  3 24  1  0  0  0  0
  3 25  1  0  0  0  0
  4  6  1  0  0  0  0
  5  4  1  0  0  0  0
  6  7  1  0  0  0  0
  6  8  2  0  0  0  0
  7 12  1  0  0  0  0
  8  9  1  0  0  0  0
  8 10  1  0  0  0  0
 10 11  1  0  0  0  0
 10 12  2  0  0  0  0
 12 32  1  0  0  0  0
 13 17  1  0  0  0  0
 17 18  1  6  0  0  0
 17 22  1  0  0  0  0
 23  1  1  0  0  0  0
 24  2  1  0  0  0  0
 26 22  1  6  0  0  0
 27 26  1  0  0  0  0
 27 28  1  0  0  0  0
 27 30  1  6  0  0  0
 28 13  1  0  0  0  0
 28 29  1  6  0  0  0
 31 30  1  0  0  0  0
 32 26  1  0  0  0  0
 32 31  1  0  0  0  0
M  CHG  3  14  -1  15  -1  16  -1
M  END
>  <CHROM.1>
42.67232987,-66.01654441,52.18491547,166.16548551,142.99823410,149.72313676
176.75877065,72.54947184,68.90737748,11.28189692,2.50386625,0.50617159,0.27665492
0.84186604

>  <Name>
2au4_lig

>  <RI>
0

>  <Rbt.Current_Directory>
/home/itssahil/PROJECTS/Mol_Feturizer/New_Systems/rnas/2au4

>  <Rbt.Executable>
rbdock ($Id: //depot/dev/client3/rdock/2013.1/src/exe/rbdock.cxx#4 $)

>  <Rbt.Library>
libRbt.so (2013.1, Build901 2013/11/27)

>  <Rbt.Parameter_File>
/export/apps/rDock/src/rDock_2013.1_src/data/scripts/dock_solv.prm

>  <Rbt.Receptor>
prm/pocket_docking_8.prm

>  <SCORE>
-39.7123

>  <SCORE.INTER>
-15.2716

>  <SCORE.INTER.CONST>
1

>  <SCORE.INTER.POLAR>
-2.49145

>  <SCORE.INTER.ROT>
8

>  <SCORE.INTER.SOLV>
21.2044

>  <SCORE.INTER.VDW>
-17.8777

>  <SCORE.INTER.norm>
-0.477237

>  <SCORE.INTRA>
-24.4407

>  <SCORE.INTRA.DIHEDRAL>
-45.4927

>  <SCORE.INTRA.DIHEDRAL.0>
76.3625

>  <SCORE.INTRA.POLAR>
0

>  <SCORE.INTRA.POLAR.0>
0

>  <SCORE.INTRA.REPUL>
-0.12705

>  <SCORE.INTRA.REPUL.0>
0.12705

>  <SCORE.INTRA.SOLV>
-4.60229

>  <SCORE.INTRA.SOLV.lig_0>
-119.383

>  <SCORE.INTRA.VDW>
1.24201

>  <SCORE.INTRA.VDW.0>
-5.10464

>  <SCORE.INTRA.norm>
-0.763773

>  <SCORE.RESTR>
0

>  <SCORE.RESTR.CAVITY>
0

>  <SCORE.RESTR.norm>
0

>  <SCORE.SYSTEM>
0

>  <SCORE.SYSTEM.CONST>
0

>  <SCORE.SYSTEM.DIHEDRAL>
0

>  <SCORE.SYSTEM.SOLV>
0

>  <SCORE.SYSTEM.norm>
0

>  <SCORE.heavy>
32

>  <SCORE.norm>
-1.24101

>  <RMSD>
7.271

$$$$
2au4_lig
 OpenBabel11021811423D
libRbt.so/2013.1/901 2013/11/27
 32 34  0  0  0  0  0  0  0  0999 V2000
   69.3586   15.0468    3.2204 P   0  0  1  0  0  0  0  0  0  0  0  0
   71.7011   13.7508    3.6704 P   0  0  1  0  0  0  0  0  0  0  0  0
   71.6069   11.3552    4.9716 P   0  0  2  0  0  0  0  0  0  0  0  0
   67.9506   13.9773    1.2445 C   0  0  0  0  0  0  0  0  0  0  0  0
   68.4520   15.1565    1.8954 O   0  0  0  0  0  0  0  0  0  0  0  0
   67.3636   14.2750   -0.1275 C   0  0  0  0  0  0  0  0  0  0  0  0
   67.8155   13.3046   -1.0941 O   0  0  0  0  0  0  0  0  0  0  0  0
   65.8442   14.2323   -0.0839 C   0  0  0  0  0  0  0  0  0  0  0  0
   65.2870   15.5183   -0.3813 O   0  0  0  0  0  0  0  0  0  0  0  0
   65.4145   13.2054   -1.1043 C   0  0  0  0  0  0  0  0  0  0  0  0
   64.5579   13.7863   -2.0966 O   0  0  0  0  0  0  0  0  0  0  0  0
   66.6884   12.6717   -1.7364 C   0  0  0  0  0  0  0  0  0  0  0  0
   64.0669    8.3000   -1.4491 N   0  0  0  0  0  0  0  0  0  0  0  0
   69.6088   16.4087    3.7339 O   0  5  0  0  0  0  0  0  0  0  0  0
   72.9475   13.4110    2.9569 O   0  5  0  0  0  0  0  0  0  0  0  0
   70.7287   10.1712    5.0600 O   0  5  0  0  0  0  0  0  0  0  0  0
   63.6041    9.5878   -1.5791 C   0  0  1  0  0  0  0  0  0  0  0  0
   62.2873    9.7363   -1.6356 N   0  0  0  0  0  0  0  0  0  0  0  0
   68.7768   14.0160    4.1065 O   0  0  0  0  0  0  0  0  0  0  0  0
   71.7519   14.5509    4.9116 O   0  0  0  0  0  0  0  0  0  0  0  0
   71.9976   12.0793    6.1993 O   0  0  0  0  0  0  0  0  0  0  0  0
   64.3946   10.6562   -1.6450 N   0  0  0  0  0  0  0  0  0  0  0  0
   70.7285   14.4808    2.6518 O   0  0  0  0  0  0  0  0  0  0  0  0
   70.9227   12.4015    3.9847 O   0  0  0  0  0  0  0  0  0  0  0  0
   72.9407   10.9408    4.1779 O   0  0  0  0  0  0  0  0  0  0  0  0
   65.7045   10.3264   -1.5680 C   0  0  2  0  0  0  0  0  0  0  0  0
   66.2547    9.0615   -1.4372 C   0  0  2  0  0  0  0  0  0  0  0  0
   65.3988    7.9350   -1.3682 C   0  0  1  0  0  0  0  0  0  0  0  0
   65.7027    6.7578   -1.2293 O   0  0  0  0  0  0  0  0  0  0  0  0
   67.6513    9.1282   -1.3903 N   0  0  0  0  0  0  0  0  0  0  0  0
   67.8507   10.4016   -1.4928 C   0  0  0  0  0  0  0  0  0  0  0  0
   66.7625   11.2037   -1.6035 N   0  0  0  0  0  0  0  0  0  0  0  0
  1  5  1  6  0  0  0
  1 14  1  0  0  0  0
  1 19  2  0  0  0  0
  2 15  1  6  0  0  0
  2 20  2  0  0  0  0
  2 23  1  0  0  0  0
  3 16  1  1  0  0  0
  3 21  2  0  0  0  0
  3 24  1  0  0  0  0
  3 25  1  0  0  0  0
  4  6  1  0  0  0  0
  5  4  1  0  0  0  0
  6  7  1  0  0  0  0
  6  8  2  0  0  0  0
  7 12  1  0  0  0  0
  8  9  1  0  0  0  0
  8 10  1  0  0  0  0
 10 11  1  0  0  0  0
 10 12  2  0  0  0  0
 12 32  1  0  0  0  0
 13 17  1  0  0  0  0
 17 18  1  1  0  0  0
 17 22  1  0  0  0  0
 23  1  1  0  0  0  0
 24  2  1  0  0  0  0
 26 22  1  1  0  0  0
 27 26  1  0  0  0  0
 27 28  1  0  0  0  0
 27 30  1  1  0  0  0
 28 13  1  0  0  0  0
 28 29  1  1  0  0  0
 31 30  1  0  0  0  0
 32 26  1  0  0  0  0
 32 31  1  0  0  0  0
M  CHG  3  14  -1  15  -1  16  -1
M  END
>  <CHROM.1>
-174.42978488,-175.35264633,-177.62747882,135.00929266,-168.39825073,151.16618282
-158.57995810,64.41081690,68.30530044,12.29557930,1.35816222,0.38398912,-0.72789473
0.07556875

>  <Name>
2au4_lig

>  <RI>
0

>  <Rbt.Current_Directory>
/home/itssahil/PROJECTS/Mol_Feturizer/New_Systems/rnas/2au4

>  <Rbt.Executable>
rbdock ($Id: //depot/dev/client3/rdock/2013.1/src/exe/rbdock.cxx#4 $)

>  <Rbt.Library>
libRbt.so (2013.1, Build901 2013/11/27)

>  <Rbt.Parameter_File>
/export/apps/rDock/src/rDock_2013.1_src/data/scripts/dock_solv.prm

>  <Rbt.Receptor>
prm/pocket_docking_7.prm

>  <SCORE>
-53.5195

>  <SCORE.INTER>
-26.6469

>  <SCORE.INTER.CONST>
1

>  <SCORE.INTER.POLAR>
-3.83682

>  <SCORE.INTER.ROT>
8

>  <SCORE.INTER.SOLV>
20.0662

>  <SCORE.INTER.VDW>
-20.5973

>  <SCORE.INTER.norm>
-0.832716

>  <SCORE.INTRA>
-26.8726

>  <SCORE.INTRA.DIHEDRAL>
-49.5912

>  <SCORE.INTRA.DIHEDRAL.0>
76.3625

>  <SCORE.INTRA.POLAR>
0

>  <SCORE.INTRA.POLAR.0>
0

>  <SCORE.INTRA.REPUL>
-0.12705

>  <SCORE.INTRA.REPUL.0>
0.12705

>  <SCORE.INTRA.SOLV>
-5.77646

>  <SCORE.INTRA.SOLV.lig_0>
-119.383

>  <SCORE.INTRA.VDW>
1.4465

>  <SCORE.INTRA.VDW.0>
-5.10464

>  <SCORE.INTRA.norm>
-0.839768

>  <SCORE.RESTR>
0

>  <SCORE.RESTR.CAVITY>
0

>  <SCORE.RESTR.norm>
0

>  <SCORE.SYSTEM>
0

>  <SCORE.SYSTEM.CONST>
0

>  <SCORE.SYSTEM.DIHEDRAL>
0

>  <SCORE.SYSTEM.SOLV>
0

>  <SCORE.SYSTEM.norm>
0

>  <SCORE.heavy>
32

>  <SCORE.norm>
-1.67248

>  <RMSD>
7.281

$$$$
2au4_lig
 OpenBabel11021811423D
libRbt.so/2013.1/901 2013/11/27
 32 34  0  0  0  0  0  0  0  0999 V2000
   68.1824    7.5401    1.8421 P   0  0  1  0  0  0  0  0  0  0  0  0
   68.2071    6.7636   -0.7590 P   0  0  1  0  0  0  0  0  0  0  0  0
   69.7006    4.5156   -1.1547 P   0  0  2  0  0  0  0  0  0  0  0  0
   69.0509    8.0428    4.2964 C   0  0  0  0  0  0  0  0  0  0  0  0
   69.3421    7.9075    2.8955 O   0  0  0  0  0  0  0  0  0  0  0  0
   68.8268    9.4908    4.7069 C   0  0  0  0  0  0  0  0  0  0  0  0
   69.6943   10.3696    3.9616 O   0  0  0  0  0  0  0  0  0  0  0  0
   67.3879    9.9080    4.4461 C   0  0  0  0  0  0  0  0  0  0  0  0
   66.7177   10.2290    5.6712 O   0  0  0  0  0  0  0  0  0  0  0  0
   67.4482   11.1069    3.5300 C   0  0  0  0  0  0  0  0  0  0  0  0
   66.8137   12.2471    4.1244 O   0  0  0  0  0  0  0  0  0  0  0  0
   68.9212   11.3790    3.2783 C   0  0  0  0  0  0  0  0  0  0  0  0
   67.1717   12.4145   -1.4050 N   0  0  0  0  0  0  0  0  0  0  0  0
   67.4243    6.3838    2.3606 O   0  5  0  0  0  0  0  0  0  0  0  0
   67.0943    5.8479   -0.4409 O   0  5  0  0  0  0  0  0  0  0  0  0
   68.5364    3.6207   -1.3129 O   0  5  0  0  0  0  0  0  0  0  0  0
   66.5482   12.5610   -0.1887 C   0  0  1  0  0  0  0  0  0  0  0  0
   65.3098   13.0350   -0.2163 N   0  0  0  0  0  0  0  0  0  0  0  0
   67.4742    8.7828    1.4673 O   0  0  0  0  0  0  0  0  0  0  0  0
   67.9370    8.0560   -1.4227 O   0  0  0  0  0  0  0  0  0  0  0  0
   70.3563    4.6496    0.1629 O   0  0  0  0  0  0  0  0  0  0  0  0
   67.1143   12.2542    0.9758 N   0  0  0  0  0  0  0  0  0  0  0  0
   69.0102    7.0534    0.5779 O   0  0  0  0  0  0  0  0  0  0  0  0
   69.2697    5.9715   -1.6357 O   0  0  0  0  0  0  0  0  0  0  0  0
   70.8121    4.1002   -2.2375 O   0  0  0  0  0  0  0  0  0  0  0  0
   68.3726   11.7813    0.8219 C   0  0  2  0  0  0  0  0  0  0  0  0
   69.0732   11.6029   -0.3601 C   0  0  2  0  0  0  0  0  0  0  0  0
   68.4556   11.9341   -1.5910 C   0  0  1  0  0  0  0  0  0  0  0  0
   68.9080   11.8209   -2.7224 O   0  0  0  0  0  0  0  0  0  0  0  0
   70.3503   11.0899   -0.1095 N   0  0  0  0  0  0  0  0  0  0  0  0
   70.3392   10.9927    1.1798 C   0  0  0  0  0  0  0  0  0  0  0  0
   69.2133   11.3766    1.8316 N   0  0  0  0  0  0  0  0  0  0  0  0
  1  5  1  1  0  0  0
  1 14  1  0  0  0  0
  1 19  2  0  0  0  0
  2 15  1  1  0  0  0
  2 20  2  0  0  0  0
  2 23  1  0  0  0  0
  3 16  1  1  0  0  0
  3 21  2  0  0  0  0
  3 24  1  0  0  0  0
  3 25  1  0  0  0  0
  4  6  1  0  0  0  0
  5  4  1  0  0  0  0
  6  7  1  0  0  0  0
  6  8  2  0  0  0  0
  7 12  1  0  0  0  0
  8  9  1  0  0  0  0
  8 10  1  0  0  0  0
 10 11  1  0  0  0  0
 10 12  2  0  0  0  0
 12 32  1  0  0  0  0
 13 17  1  0  0  0  0
 17 18  1  6  0  0  0
 17 22  1  0  0  0  0
 23  1  1  0  0  0  0
 24  2  1  0  0  0  0
 26 22  1  6  0  0  0
 27 26  1  0  0  0  0
 27 28  1  0  0  0  0
 27 30  1  6  0  0  0
 28 13  1  0  0  0  0
 28 29  1  6  0  0  0
 31 30  1  0  0  0  0
 32 26  1  0  0  0  0
 32 31  1  0  0  0  0
M  CHG  3  14  -1  15  -1  16  -1
M  END
>  <CHROM.1>
-48.74556148,-51.86668661,68.27657731,-35.66048843,-96.61579698,153.10833569
-172.71088555,-46.60421698,68.44964717,8.79733876,0.86855078,-0.09508581
-1.36747199,1.90396113

>  <Name>
2au4_lig

>  <RI>
0

>  <Rbt.Current_Directory>
/home/itssahil/PROJECTS/Mol_Feturizer/New_Systems/rnas/2au4

>  <Rbt.Executable>
rbdock ($Id: //depot/dev/client3/rdock/2013.1/src/exe/rbdock.cxx#4 $)

>  <Rbt.Library>
libRbt.so (2013.1, Build901 2013/11/27)

>  <Rbt.Parameter_File>
/export/apps/rDock/src/rDock_2013.1_src/data/scripts/dock_solv.prm

>  <Rbt.Receptor>
prm/pocket_docking_4.prm

>  <SCORE>
-40.1321

>  <SCORE.INTER>
-16.8769

>  <SCORE.INTER.CONST>
1

>  <SCORE.INTER.POLAR>
-1.98508

>  <SCORE.INTER.ROT>
8

>  <SCORE.INTER.SOLV>
25.7772

>  <SCORE.INTER.VDW>
-22.1601

>  <SCORE.INTER.norm>
-0.527403

>  <SCORE.INTRA>
-23.2552

>  <SCORE.INTRA.DIHEDRAL>
-45.1933

>  <SCORE.INTRA.DIHEDRAL.0>
76.3625

>  <SCORE.INTRA.POLAR>
0

>  <SCORE.INTRA.POLAR.0>
0

>  <SCORE.INTRA.REPUL>
-0.12705

>  <SCORE.INTRA.REPUL.0>
0.12705

>  <SCORE.INTRA.SOLV>
3.99562

>  <SCORE.INTRA.SOLV.lig_0>
-119.383

>  <SCORE.INTRA.VDW>
-2.0211

>  <SCORE.INTRA.VDW.0>
-5.10464

>  <SCORE.INTRA.norm>
-0.726724

>  <SCORE.RESTR>
0

>  <SCORE.RESTR.CAVITY>
0

>  <SCORE.RESTR.norm>
0

>  <SCORE.SYSTEM>
0

>  <SCORE.SYSTEM.CONST>
0

>  <SCORE.SYSTEM.DIHEDRAL>
0

>  <SCORE.SYSTEM.SOLV>
0

>  <SCORE.SYSTEM.norm>
0

>  <SCORE.heavy>
32

>  <SCORE.norm>
-1.25413

>  <RMSD>
7.290

$$$$
2au4_lig
 OpenBabel11021811423D
libRbt.so/2013.1/901 2013/11/27
 32 34  0  0  0  0  0  0  0  0999 V2000
   65.9313    8.7471   -0.5633 P   0  0  1  0  0  0  0  0  0  0  0  0
   67.3127    6.4625   -1.0550 P   0  0  1  0  0  0  0  0  0  0  0  0
   69.3767    4.6951   -1.2944 P   0  0  2  0  0  0  0  0  0  0  0  0
   66.4253   11.2153   -1.3965 C   0  0  0  0  0  0  0  0  0  0  0  0
   66.4400   10.2553   -0.3270 O   0  0  0  0  0  0  0  0  0  0  0  0
   67.3120   12.4184   -1.1108 C   0  0  0  0  0  0  0  0  0  0  0  0
   66.7984   13.1738    0.0054 O   0  0  0  0  0  0  0  0  0  0  0  0
   68.7279   11.9763   -0.7758 C   0  0  0  0  0  0  0  0  0  0  0  0
   69.6584   12.4524   -1.7558 O   0  0  0  0  0  0  0  0  0  0  0  0
   69.0415   12.5400    0.5895 C   0  0  0  0  0  0  0  0  0  0  0  0
   70.1905   13.3967    0.5462 O   0  0  0  0  0  0  0  0  0  0  0  0
   67.8087   13.3121    1.0268 C   0  0  0  0  0  0  0  0  0  0  0  0
   69.0296   11.1118    5.4692 N   0  0  0  0  0  0  0  0  0  0  0  0
   65.0230    8.3780    0.5410 O   0  5  0  0  0  0  0  0  0  0  0  0
   66.1875    5.6735   -0.5169 O   0  5  0  0  0  0  0  0  0  0  0  0
   69.8001    5.2461   -2.5976 O   0  5  0  0  0  0  0  0  0  0  0  0
   69.8387   11.4439    4.4087 C   0  0  1  0  0  0  0  0  0  0  0  0
   71.1265   11.1543    4.5386 N   0  0  0  0  0  0  0  0  0  0  0  0
   65.4844    8.6140   -1.9664 O   0  0  0  0  0  0  0  0  0  0  0  0
   67.4718    6.6267   -2.5149 O   0  0  0  0  0  0  0  0  0  0  0  0
   68.5000    3.5065   -1.2439 O   0  0  0  0  0  0  0  0  0  0  0  0
   69.3988   12.0210    3.2933 N   0  0  0  0  0  0  0  0  0  0  0  0
   67.2672    7.9055   -0.3978 O   0  0  0  0  0  0  0  0  0  0  0  0
   68.6651    5.8615   -0.4760 O   0  0  0  0  0  0  0  0  0  0  0  0
   70.6894    4.3981   -0.4174 O   0  0  0  0  0  0  0  0  0  0  0  0
   68.0642   12.2411    3.3256 C   0  0  2  0  0  0  0  0  0  0  0  0
   67.1792   11.9397    4.3482 C   0  0  2  0  0  0  0  0  0  0  0  0
   67.6641   11.3251    5.5286 C   0  0  1  0  0  0  0  0  0  0  0  0
   67.0319   10.9686    6.5139 O   0  0  0  0  0  0  0  0  0  0  0  0
   65.8765   12.3192    4.0074 N   0  0  0  0  0  0  0  0  0  0  0  0
   66.0543   12.8140    2.8261 C   0  0  0  0  0  0  0  0  0  0  0  0
   67.3153   12.8163    2.3264 N   0  0  0  0  0  0  0  0  0  0  0  0
  1  5  1  1  0  0  0
  1 14  1  0  0  0  0
  1 19  2  0  0  0  0
  2 15  1  1  0  0  0
  2 20  2  0  0  0  0
  2 23  1  0  0  0  0
  3 16  1  6  0  0  0
  3 21  2  0  0  0  0
  3 24  1  0  0  0  0
  3 25  1  0  0  0  0
  4  6  1  0  0  0  0
  5  4  1  0  0  0  0
  6  7  1  0  0  0  0
  6  8  2  0  0  0  0
  7 12  1  0  0  0  0
  8  9  1  0  0  0  0
  8 10  1  0  0  0  0
 10 11  1  0  0  0  0
 10 12  2  0  0  0  0
 12 32  1  0  0  0  0
 13 17  1  0  0  0  0
 17 18  1  6  0  0  0
 17 22  1  0  0  0  0
 23  1  1  0  0  0  0
 24  2  1  0  0  0  0
 26 22  1  6  0  0  0
 27 26  1  0  0  0  0
 27 28  1  0  0  0  0
 27 30  1  6  0  0  0
 28 13  1  0  0  0  0
 28 29  1  6  0  0  0
 31 30  1  0  0  0  0
 32 26  1  0  0  0  0
 32 31  1  0  0  0  0
M  CHG  3  14  -1  15  -1  16  -1
M  END
>  <CHROM.1>
-132.87241177,-56.43158141,64.34778923,-65.62281242,-162.58040681,149.06250608
-158.38697140,89.25167035,67.84877137,9.44222168,0.69336837,1.50561656,1.18650940
-2.48011324

>  <Name>
2au4_lig

>  <RI>
0

>  <Rbt.Current_Directory>
/home/itssahil/PROJECTS/Mol_Feturizer/New_Systems/rnas/2au4

>  <Rbt.Executable>
rbdock ($Id: //depot/dev/client3/rdock/2013.1/src/exe/rbdock.cxx#4 $)

>  <Rbt.Library>
libRbt.so (2013.1, Build901 2013/11/27)

>  <Rbt.Parameter_File>
/export/apps/rDock/src/rDock_2013.1_src/data/scripts/dock_solv.prm

>  <Rbt.Receptor>
prm/pocket_docking_4.prm

>  <SCORE>
-29.4156

>  <SCORE.INTER>
-5.19129

>  <SCORE.INTER.CONST>
1

>  <SCORE.INTER.POLAR>
-0.808986

>  <SCORE.INTER.ROT>
8

>  <SCORE.INTER.SOLV>
22.5666

>  <SCORE.INTER.VDW>
-17.2198

>  <SCORE.INTER.norm>
-0.162228

>  <SCORE.INTRA>
-24.2243

>  <SCORE.INTRA.DIHEDRAL>
-45.6472

>  <SCORE.INTRA.DIHEDRAL.0>
76.3625

>  <SCORE.INTRA.POLAR>
0

>  <SCORE.INTRA.POLAR.0>
0

>  <SCORE.INTRA.REPUL>
-0.12705

>  <SCORE.INTRA.REPUL.0>
0.12705

>  <SCORE.INTRA.SOLV>
-4.54

>  <SCORE.INTRA.SOLV.lig_0>
-119.383

>  <SCORE.INTRA.VDW>
1.50455

>  <SCORE.INTRA.VDW.0>
-5.10464

>  <SCORE.INTRA.norm>
-0.75701

>  <SCORE.RESTR>
0

>  <SCORE.RESTR.CAVITY>
0

>  <SCORE.RESTR.norm>
0

>  <SCORE.SYSTEM>
0

>  <SCORE.SYSTEM.CONST>
0

>  <SCORE.SYSTEM.DIHEDRAL>
0

>  <SCORE.SYSTEM.SOLV>
0

>  <SCORE.SYSTEM.norm>
0

>  <SCORE.heavy>
32

>  <SCORE.norm>
-0.919238

>  <RMSD>
7.292

$$$$
2au4_lig
 OpenBabel11021811423D
libRbt.so/2013.1/901 2013/11/27
 32 34  0  0  0  0  0  0  0  0999 V2000
   68.6287    8.1398    1.9972 P   0  0  1  0  0  0  0  0  0  0  0  0
   69.0341    6.4781   -0.1108 P   0  0  1  0  0  0  0  0  0  0  0  0
   69.7419    4.3484   -1.6612 P   0  0  2  0  0  0  0  0  0  0  0  0
   68.2009   10.5897    1.0778 C   0  0  0  0  0  0  0  0  0  0  0  0
   68.6898    9.2588    0.8425 O   0  0  0  0  0  0  0  0  0  0  0  0
   68.1233   11.4152   -0.1981 C   0  0  0  0  0  0  0  0  0  0  0  0
   67.2828   10.7647   -1.1731 O   0  0  0  0  0  0  0  0  0  0  0  0
   67.5450   12.7927    0.0861 C   0  0  0  0  0  0  0  0  0  0  0  0
   68.5081   13.8183   -0.1851 O   0  0  0  0  0  0  0  0  0  0  0  0
   66.3313   12.9396   -0.8003 C   0  0  0  0  0  0  0  0  0  0  0  0
   66.4600   14.0694   -1.6738 O   0  0  0  0  0  0  0  0  0  0  0  0
   66.2251   11.6507   -1.5969 C   0  0  0  0  0  0  0  0  0  0  0  0
   63.5597    7.2963   -1.5539 N   0  0  0  0  0  0  0  0  0  0  0  0
   69.3904    8.6263    3.1652 O   0  5  0  0  0  0  0  0  0  0  0  0
   67.6403    5.9942   -0.0731 O   0  5  0  0  0  0  0  0  0  0  0  0
   69.7324    5.2519   -2.8294 O   0  5  0  0  0  0  0  0  0  0  0  0
   64.8969    7.4983   -1.8008 C   0  0  1  0  0  0  0  0  0  0  0  0
   65.6142    6.4166   -2.0737 N   0  0  0  0  0  0  0  0  0  0  0  0
   67.2253    7.7028    2.1574 O   0  0  0  0  0  0  0  0  0  0  0  0
   69.4221    7.5479   -1.0535 O   0  0  0  0  0  0  0  0  0  0  0  0
   68.5848    3.4674   -1.3986 O   0  0  0  0  0  0  0  0  0  0  0  0
   65.4816    8.6935   -1.7818 N   0  0  0  0  0  0  0  0  0  0  0  0
   69.4405    6.9377    1.3520 O   0  0  0  0  0  0  0  0  0  0  0  0
   69.9882    5.2319   -0.3591 O   0  0  0  0  0  0  0  0  0  0  0  0
   71.0670    3.4428   -1.7297 O   0  0  0  0  0  0  0  0  0  0  0  0
   64.6068    9.6842   -1.4924 C   0  0  2  0  0  0  0  0  0  0  0  0
   63.2509    9.5694   -1.2314 C   0  0  2  0  0  0  0  0  0  0  0  0
   62.6442    8.2897   -1.2561 C   0  0  1  0  0  0  0  0  0  0  0  0
   61.4682    8.0032   -1.0761 O   0  0  0  0  0  0  0  0  0  0  0  0
   62.6850   10.8230   -0.9760 N   0  0  0  0  0  0  0  0  0  0  0  0
   63.7130   11.5980   -1.0974 C   0  0  0  0  0  0  0  0  0  0  0  0
   64.9032   11.0237   -1.4027 N   0  0  0  0  0  0  0  0  0  0  0  0
  1  5  1  6  0  0  0
  1 14  1  0  0  0  0
  1 19  2  0  0  0  0
  2 15  1  6  0  0  0
  2 20  2  0  0  0  0
  2 23  1  0  0  0  0
  3 16  1  6  0  0  0
  3 21  2  0  0  0  0
  3 24  1  0  0  0  0
  3 25  1  0  0  0  0
  4  6  1  0  0  0  0
  5  4  1  0  0  0  0
  6  7  1  0  0  0  0
  6  8  2  0  0  0  0
  7 12  1  0  0  0  0
  8  9  1  0  0  0  0
  8 10  1  0  0  0  0
 10 11  1  0  0  0  0
 10 12  2  0  0  0  0
 12 32  1  0  0  0  0
 13 17  1  0  0  0  0
 17 18  1  6  0  0  0
 17 22  1  0  0  0  0
 23  1  1  0  0  0  0
 24  2  1  0  0  0  0
 26 22  1  6  0  0  0
 27 26  1  0  0  0  0
 27 28  1  0  0  0  0
 27 30  1  6  0  0  0
 28 13  1  0  0  0  0
 28 29  1  6  0  0  0
 31 30  1  0  0  0  0
 32 26  1  0  0  0  0
 32 31  1  0  0  0  0
M  CHG  3  14  -1  15  -1  16  -1
M  END
>  <CHROM.1>
-58.66874792,-62.38579469,53.03101085,57.50087776,-169.94398291,-32.02850718
-50.50683923,57.16015651,67.19312466,8.39153922,-0.52866572,-0.89979060,-0.34368498
0.22188981

>  <Name>
2au4_lig

>  <RI>
0

>  <Rbt.Current_Directory>
/home/itssahil/PROJECTS/Mol_Feturizer/New_Systems/rnas/2au4

>  <Rbt.Executable>
rbdock ($Id: //depot/dev/client3/rdock/2013.1/src/exe/rbdock.cxx#4 $)

>  <Rbt.Library>
libRbt.so (2013.1, Build901 2013/11/27)

>  <Rbt.Parameter_File>
/export/apps/rDock/src/rDock_2013.1_src/data/scripts/dock_solv.prm

>  <Rbt.Receptor>
prm/pocket_docking_5.prm

>  <SCORE>
-41.9254

>  <SCORE.INTER>
-17.2324

>  <SCORE.INTER.CONST>
1

>  <SCORE.INTER.POLAR>
-1.38864

>  <SCORE.INTER.ROT>
8

>  <SCORE.INTER.SOLV>
31.1112

>  <SCORE.INTER.VDW>
-26.1632

>  <SCORE.INTER.norm>
-0.538512

>  <SCORE.INTRA>
-24.7008

>  <SCORE.INTRA.DIHEDRAL>
-49.7183

>  <SCORE.INTRA.DIHEDRAL.0>
76.3625

>  <SCORE.INTRA.POLAR>
0

>  <SCORE.INTRA.POLAR.0>
0

>  <SCORE.INTRA.REPUL>
0.0569782

>  <SCORE.INTRA.REPUL.0>
0.12705

>  <SCORE.INTRA.SOLV>
-0.863379

>  <SCORE.INTRA.SOLV.lig_0>
-119.383

>  <SCORE.INTRA.VDW>
0.305122

>  <SCORE.INTRA.VDW.0>
-5.10464

>  <SCORE.INTRA.norm>
-0.7719

>  <SCORE.RESTR>
0.00775831

>  <SCORE.RESTR.CAVITY>
0.00775831

>  <SCORE.RESTR.norm>
0.000242447

>  <SCORE.SYSTEM>
0

>  <SCORE.SYSTEM.CONST>
0

>  <SCORE.SYSTEM.DIHEDRAL>
0

>  <SCORE.SYSTEM.SOLV>
0

>  <SCORE.SYSTEM.norm>
0

>  <SCORE.heavy>
32

>  <SCORE.norm>
-1.31017

>  <RMSD>
7.300

$$$$
2au4_lig
 OpenBabel11021811423D
libRbt.so/2013.1/901 2013/11/27
 32 34  0  0  0  0  0  0  0  0999 V2000
   66.8246    9.7569   -0.2984 P   0  0  1  0  0  0  0  0  0  0  0  0
   67.6227    7.6692   -1.8392 P   0  0  1  0  0  0  0  0  0  0  0  0
   67.7908    5.7507   -3.7709 P   0  0  2  0  0  0  0  0  0  0  0  0
   67.0573    9.3836    2.3164 C   0  0  0  0  0  0  0  0  0  0  0  0
   67.3197    8.9177    0.9823 O   0  0  0  0  0  0  0  0  0  0  0  0
   68.0920    8.8925    3.3183 C   0  0  0  0  0  0  0  0  0  0  0  0
   69.3949    8.8136    2.7047 O   0  0  0  0  0  0  0  0  0  0  0  0
   68.1814    9.8370    4.5068 C   0  0  0  0  0  0  0  0  0  0  0  0
   67.7800    9.1794    5.7148 O   0  0  0  0  0  0  0  0  0  0  0  0
   69.6197   10.2900    4.5874 C   0  0  0  0  0  0  0  0  0  0  0  0
   70.2014    9.9487    5.8528 O   0  0  0  0  0  0  0  0  0  0  0  0
   70.3511    9.5950    3.4520 C   0  0  0  0  0  0  0  0  0  0  0  0
   72.6787   14.1313    3.1861 N   0  0  0  0  0  0  0  0  0  0  0  0
   65.5810   10.4693    0.0575 O   0  5  0  0  0  0  0  0  0  0  0  0
   68.6706    8.5152   -2.4429 O   0  5  0  0  0  0  0  0  0  0  0  0
   66.9541    5.1781   -4.8449 O   0  5  0  0  0  0  0  0  0  0  0  0
   72.1358   13.4918    4.2751 C   0  0  1  0  0  0  0  0  0  0  0  0
   72.2151   14.1333    5.4333 N   0  0  0  0  0  0  0  0  0  0  0  0
   67.9762   10.5048   -0.8466 O   0  0  0  0  0  0  0  0  0  0  0  0
   67.9630    6.7335   -0.7473 O   0  0  0  0  0  0  0  0  0  0  0  0
   68.4066    4.8643   -2.7614 O   0  0  0  0  0  0  0  0  0  0  0  0
   71.5506   12.2981    4.2178 N   0  0  0  0  0  0  0  0  0  0  0  0
   66.4519    8.6128   -1.3339 O   0  0  0  0  0  0  0  0  0  0  0  0
   66.9217    6.8397   -2.9992 O   0  0  0  0  0  0  0  0  0  0  0  0
   68.9487    6.6363   -4.4460 O   0  0  0  0  0  0  0  0  0  0  0  0
   71.5521   11.7896    2.9640 C   0  0  2  0  0  0  0  0  0  0  0  0
   72.0746   12.3636    1.8163 C   0  0  2  0  0  0  0  0  0  0  0  0
   72.6938   13.6351    1.8949 C   0  0  1  0  0  0  0  0  0  0  0  0
   73.1834   14.2985    0.9907 O   0  0  0  0  0  0  0  0  0  0  0  0
   71.8811   11.5296    0.7098 N   0  0  0  0  0  0  0  0  0  0  0  0
   71.2667   10.5275    1.2484 C   0  0  0  0  0  0  0  0  0  0  0  0
   71.0213   10.5804    2.5814 N   0  0  0  0  0  0  0  0  0  0  0  0
  1  5  1  1  0  0  0
  1 14  1  0  0  0  0
  1 19  2  0  0  0  0
  2 15  1  6  0  0  0
  2 20  2  0  0  0  0
  2 23  1  0  0  0  0
  3 16  1  6  0  0  0
  3 21  2  0  0  0  0
  3 24  1  0  0  0  0
  3 25  1  0  0  0  0
  4  6  1  0  0  0  0
  5  4  1  0  0  0  0
  6  7  1  0  0  0  0
  6  8  2  0  0  0  0
  7 12  1  0  0  0  0
  8  9  1  0  0  0  0
  8 10  1  0  0  0  0
 10 11  1  0  0  0  0
 10 12  2  0  0  0  0
 12 32  1  0  0  0  0
 13 17  1  0  0  0  0
 17 18  1  6  0  0  0
 17 22  1  0  0  0  0
 23  1  1  0  0  0  0
 24  2  1  0  0  0  0
 26 22  1  6  0  0  0
 27 26  1  0  0  0  0
 27 28  1  0  0  0  0
 27 30  1  6  0  0  0
 28 13  1  0  0  0  0
 28 29  1  6  0  0  0
 31 30  1  0  0  0  0
 32 26  1  0  0  0  0
 32 31  1  0  0  0  0
M  CHG  3  14  -1  15  -1  16  -1
M  END
>  <CHROM.1>
-30.94160152,-57.02068533,-176.60609033,34.59073565,-152.78925911,152.25726576
-63.69168057,65.97781831,69.11484589,9.54830953,0.69905453,2.15040223,-0.71683366
-1.86587067

>  <Name>
2au4_lig

>  <RI>
0

>  <Rbt.Current_Directory>
/home/itssahil/PROJECTS/Mol_Feturizer/New_Systems/rnas/2au4

>  <Rbt.Executable>
rbdock ($Id: //depot/dev/client3/rdock/2013.1/src/exe/rbdock.cxx#4 $)

>  <Rbt.Library>
libRbt.so (2013.1, Build901 2013/11/27)

>  <Rbt.Parameter_File>
/export/apps/rDock/src/rDock_2013.1_src/data/scripts/dock_solv.prm

>  <Rbt.Receptor>
prm/pocket_docking_6.prm

>  <SCORE>
-39.7269

>  <SCORE.INTER>
-14.6254

>  <SCORE.INTER.CONST>
1

>  <SCORE.INTER.POLAR>
-1.76314

>  <SCORE.INTER.ROT>
8

>  <SCORE.INTER.SOLV>
27.626

>  <SCORE.INTER.VDW>
-22.0151

>  <SCORE.INTER.norm>
-0.457044

>  <SCORE.INTRA>
-25.2166

>  <SCORE.INTRA.DIHEDRAL>
-46.3227

>  <SCORE.INTRA.DIHEDRAL.0>
76.3625

>  <SCORE.INTRA.POLAR>
0

>  <SCORE.INTRA.POLAR.0>
0

>  <SCORE.INTRA.REPUL>
-0.12705

>  <SCORE.INTRA.REPUL.0>
0.12705

>  <SCORE.INTRA.SOLV>
-5.51556

>  <SCORE.INTRA.SOLV.lig_0>
-119.383

>  <SCORE.INTRA.VDW>
1.33778

>  <SCORE.INTRA.VDW.0>
-5.10464

>  <SCORE.INTRA.norm>
-0.788018

>  <SCORE.RESTR>
0.11509

>  <SCORE.RESTR.CAVITY>
0.11509

>  <SCORE.RESTR.norm>
0.00359655

>  <SCORE.SYSTEM>
0

>  <SCORE.SYSTEM.CONST>
0

>  <SCORE.SYSTEM.DIHEDRAL>
0

>  <SCORE.SYSTEM.SOLV>
0

>  <SCORE.SYSTEM.norm>
0

>  <SCORE.heavy>
32

>  <SCORE.norm>
-1.24147

>  <RMSD>
7.311

$$$$
2au4_lig
 OpenBabel11021811423D
libRbt.so/2013.1/901 2013/11/27
 32 34  0  0  0  0  0  0  0  0999 V2000
   68.4942    7.0275    1.8522 P   0  0  1  0  0  0  0  0  0  0  0  0
   68.3599    6.0218   -0.6657 P   0  0  1  0  0  0  0  0  0  0  0  0
   68.1280    5.8909   -3.3804 P   0  0  2  0  0  0  0  0  0  0  0  0
   69.2563    8.4799    3.9356 C   0  0  0  0  0  0  0  0  0  0  0  0
   69.3141    8.2408    2.5195 O   0  0  0  0  0  0  0  0  0  0  0  0
   68.3262    9.6297    4.2941 C   0  0  0  0  0  0  0  0  0  0  0  0
   68.8884   10.8883    3.8697 O   0  0  0  0  0  0  0  0  0  0  0  0
   66.9745    9.4595    3.6184 C   0  0  0  0  0  0  0  0  0  0  0  0
   65.9348    9.2881    4.5892 O   0  0  0  0  0  0  0  0  0  0  0  0
   66.7475   10.7040    2.7938 C   0  0  0  0  0  0  0  0  0  0  0  0
   65.5490   11.3814    3.1951 O   0  0  0  0  0  0  0  0  0  0  0  0
   67.9645   11.5872    3.0087 C   0  0  0  0  0  0  0  0  0  0  0  0
   72.2158   13.1503    0.6531 N   0  0  0  0  0  0  0  0  0  0  0  0
   69.0217    5.7545    2.3831 O   0  5  0  0  0  0  0  0  0  0  0  0
   69.1585    4.7947   -0.4800 O   0  5  0  0  0  0  0  0  0  0  0  0
   68.6931    6.5504   -4.5750 O   0  5  0  0  0  0  0  0  0  0  0  0
   71.9898   12.9327    1.9914 C   0  0  1  0  0  0  0  0  0  0  0  0
   73.0121   13.1609    2.8049 N   0  0  0  0  0  0  0  0  0  0  0  0
   67.0492    7.3270    1.9448 O   0  0  0  0  0  0  0  0  0  0  0  0
   66.8892    5.9768   -0.5292 O   0  0  0  0  0  0  0  0  0  0  0  0
   66.6631    5.7796   -3.2208 O   0  0  0  0  0  0  0  0  0  0  0  0
   70.8266   12.5202    2.4889 N   0  0  0  0  0  0  0  0  0  0  0  0
   68.9140    7.1302    0.3247 O   0  0  0  0  0  0  0  0  0  0  0  0
   68.7045    6.6300   -2.0927 O   0  0  0  0  0  0  0  0  0  0  0  0
   68.7671    4.4220   -3.2605 O   0  0  0  0  0  0  0  0  0  0  0  0
   69.8945   12.3414    1.5246 C   0  0  2  0  0  0  0  0  0  0  0  0
   70.0373   12.5359    0.1602 C   0  0  2  0  0  0  0  0  0  0  0  0
   71.2822   12.9758   -0.3527 C   0  0  1  0  0  0  0  0  0  0  0  0
   71.5811   13.2215   -1.5137 O   0  0  0  0  0  0  0  0  0  0  0  0
   68.8448   12.2467   -0.5117 N   0  0  0  0  0  0  0  0  0  0  0  0
   68.0747   11.9041    0.4689 C   0  0  0  0  0  0  0  0  0  0  0  0
   68.5987   11.9257    1.7198 N   0  0  0  0  0  0  0  0  0  0  0  0
  1  5  1  1  0  0  0
  1 14  1  0  0  0  0
  1 19  2  0  0  0  0
  2 15  1  1  0  0  0
  2 20  2  0  0  0  0
  2 23  1  0  0  0  0
  3 16  1  6  0  0  0
  3 21  2  0  0  0  0
  3 24  1  0  0  0  0
  3 25  1  0  0  0  0
  4  6  1  0  0  0  0
  5  4  1  0  0  0  0
  6  7  1  0  0  0  0
  6  8  2  0  0  0  0
  7 12  1  0  0  0  0
  8  9  1  0  0  0  0
  8 10  1  0  0  0  0
 10 11  1  0  0  0  0
 10 12  2  0  0  0  0
 12 32  1  0  0  0  0
 13 17  1  0  0  0  0
 17 18  1  1  0  0  0
 17 22  1  0  0  0  0
 23  1  1  0  0  0  0
 24  2  1  0  0  0  0
 26 22  1  1  0  0  0
 27 26  1  0  0  0  0
 27 28  1  0  0  0  0
 27 30  1  1  0  0  0
 28 13  1  0  0  0  0
 28 29  1  1  0  0  0
 31 30  1  0  0  0  0
 32 26  1  0  0  0  0
 32 31  1  0  0  0  0
M  CHG  3  14  -1  15  -1  16  -1
M  END
>  <CHROM.1>
-63.71717801,-77.86983074,-174.18784349,-70.06488728,-101.61133273,-38.49348657
176.52205580,73.66624299,68.79628493,8.99080462,0.68432509,1.98459086,-0.98553528
-2.23265402

>  <Name>
2au4_lig

>  <RI>
0

>  <Rbt.Current_Directory>
/home/itssahil/PROJECTS/Mol_Feturizer/New_Systems/rnas/2au4

>  <Rbt.Executable>
rbdock ($Id: //depot/dev/client3/rdock/2013.1/src/exe/rbdock.cxx#4 $)

>  <Rbt.Library>
libRbt.so (2013.1, Build901 2013/11/27)

>  <Rbt.Parameter_File>
/export/apps/rDock/src/rDock_2013.1_src/data/scripts/dock_solv.prm

>  <Rbt.Receptor>
prm/pocket_docking_4.prm

>  <SCORE>
-39.8208

>  <SCORE.INTER>
-17.1567

>  <SCORE.INTER.CONST>
1

>  <SCORE.INTER.POLAR>
-1.77957

>  <SCORE.INTER.ROT>
8

>  <SCORE.INTER.SOLV>
29.1377

>  <SCORE.INTER.VDW>
-24.1518

>  <SCORE.INTER.norm>
-0.536148

>  <SCORE.INTRA>
-22.6641

>  <SCORE.INTRA.DIHEDRAL>
-43.7745

>  <SCORE.INTRA.DIHEDRAL.0>
76.3625

>  <SCORE.INTRA.POLAR>
0

>  <SCORE.INTRA.POLAR.0>
0

>  <SCORE.INTRA.REPUL>
0.0245719

>  <SCORE.INTRA.REPUL.0>
0.12705

>  <SCORE.INTRA.SOLV>
-2.96148

>  <SCORE.INTRA.SOLV.lig_0>
-119.383

>  <SCORE.INTRA.VDW>
0.58103

>  <SCORE.INTRA.VDW.0>
-5.10464

>  <SCORE.INTRA.norm>
-0.708253

>  <SCORE.RESTR>
0

>  <SCORE.RESTR.CAVITY>
0

>  <SCORE.RESTR.norm>
0

>  <SCORE.SYSTEM>
0

>  <SCORE.SYSTEM.CONST>
0

>  <SCORE.SYSTEM.DIHEDRAL>
0

>  <SCORE.SYSTEM.SOLV>
0

>  <SCORE.SYSTEM.norm>
0

>  <SCORE.heavy>
32

>  <SCORE.norm>
-1.2444

>  <RMSD>
7.313

$$$$
2au4_lig
 OpenBabel11021811423D
libRbt.so/2013.1/901 2013/11/27
 32 34  0  0  0  0  0  0  0  0999 V2000
   71.0105   12.6097    6.1288 P   0  0  1  0  0  0  0  0  0  0  0  0
   72.5264   13.3762    4.0113 P   0  0  1  0  0  0  0  0  0  0  0  0
   73.1148   11.3969    2.2290 P   0  0  2  0  0  0  0  0  0  0  0  0
   68.9419   11.1620    5.3195 C   0  0  0  0  0  0  0  0  0  0  0  0
   69.9609   11.4026    6.3040 O   0  0  0  0  0  0  0  0  0  0  0  0
   68.3031    9.7887    5.4669 C   0  0  0  0  0  0  0  0  0  0  0  0
   66.9019    9.8419    5.1290 O   0  0  0  0  0  0  0  0  0  0  0  0
   68.9766    8.7803    4.5492 C   0  0  0  0  0  0  0  0  0  0  0  0
   69.6199    7.7483    5.3069 O   0  0  0  0  0  0  0  0  0  0  0  0
   67.8909    8.2103    3.6680 C   0  0  0  0  0  0  0  0  0  0  0  0
   67.7949    6.7873    3.8170 O   0  0  0  0  0  0  0  0  0  0  0  0
   66.5979    8.8858    4.0914 C   0  0  0  0  0  0  0  0  0  0  0  0
   65.8283    8.8163   -0.9553 N   0  0  0  0  0  0  0  0  0  0  0  0
   70.2576   13.8576    5.8905 O   0  5  0  0  0  0  0  0  0  0  0  0
   71.5910   14.0030    3.0572 O   0  5  0  0  0  0  0  0  0  0  0  0
   74.3046   10.7013    1.6980 O   0  5  0  0  0  0  0  0  0  0  0  0
   66.5581    7.9539   -0.1722 C   0  0  1  0  0  0  0  0  0  0  0  0
   67.1607    6.9546   -0.8025 N   0  0  0  0  0  0  0  0  0  0  0  0
   71.9990   12.5388    7.2261 O   0  0  0  0  0  0  0  0  0  0  0  0
   73.2309   14.2048    5.0117 O   0  0  0  0  0  0  0  0  0  0  0  0
   72.1152   11.9654    1.3008 O   0  0  0  0  0  0  0  0  0  0  0  0
   66.6843    8.0773    1.1467 N   0  0  0  0  0  0  0  0  0  0  0  0
   71.7541   12.2237    4.7804 O   0  0  0  0  0  0  0  0  0  0  0  0
   73.6166   12.5690    3.1836 O   0  0  0  0  0  0  0  0  0  0  0  0
   72.3612   10.4096    3.2477 O   0  0  0  0  0  0  0  0  0  0  0  0
   66.0120    9.1496    1.6249 C   0  0  2  0  0  0  0  0  0  0  0  0
   65.2559   10.0647    0.9102 C   0  0  2  0  0  0  0  0  0  0  0  0
   65.1322    9.9189   -0.4933 C   0  0  1  0  0  0  0  0  0  0  0  0
   64.5321   10.6373   -1.2815 O   0  0  0  0  0  0  0  0  0  0  0  0
   64.7160   11.0363    1.7597 N   0  0  0  0  0  0  0  0  0  0  0  0
   65.1715   10.6545    2.9080 C   0  0  0  0  0  0  0  0  0  0  0  0
   65.9517    9.5454    2.9401 N   0  0  0  0  0  0  0  0  0  0  0  0
  1  5  1  1  0  0  0
  1 14  1  0  0  0  0
  1 19  2  0  0  0  0
  2 15  1  6  0  0  0
  2 20  2  0  0  0  0
  2 23  1  0  0  0  0
  3 16  1  6  0  0  0
  3 21  2  0  0  0  0
  3 24  1  0  0  0  0
  3 25  1  0  0  0  0
  4  6  1  0  0  0  0
  5  4  1  0  0  0  0
  6  7  1  0  0  0  0
  6  8  2  0  0  0  0
  7 12  1  0  0  0  0
  8  9  1  0  0  0  0
  8 10  1  0  0  0  0
 10 11  1  0  0  0  0
 10 12  2  0  0  0  0
 12 32  1  0  0  0  0
 13 17  1  0  0  0  0
 17 18  1  6  0  0  0
 17 22  1  0  0  0  0
 23  1  1  0  0  0  0
 24  2  1  0  0  0  0
 26 22  1  6  0  0  0
 27 26  1  0  0  0  0
 27 28  1  0  0  0  0
 27 30  1  6  0  0  0
 28 13  1  0  0  0  0
 28 29  1  6  0  0  0
 31 30  1  0  0  0  0
 32 26  1  0  0  0  0
 32 31  1  0  0  0  0
M  CHG  3  14  -1  15  -1  16  -1
M  END
>  <CHROM.1>
52.56839267,-90.25958900,-173.47563435,145.00640132,164.74928914,151.16551828
160.44862700,-59.76344185,69.39433272,10.75397893,3.23874787,0.49611214,0.43868164
1.42310351

>  <Name>
2au4_lig

>  <RI>
0

>  <Rbt.Current_Directory>
/home/itssahil/PROJECTS/Mol_Feturizer/New_Systems/rnas/2au4

>  <Rbt.Executable>
rbdock ($Id: //depot/dev/client3/rdock/2013.1/src/exe/rbdock.cxx#4 $)

>  <Rbt.Library>
libRbt.so (2013.1, Build901 2013/11/27)

>  <Rbt.Parameter_File>
/export/apps/rDock/src/rDock_2013.1_src/data/scripts/dock_solv.prm

>  <Rbt.Receptor>
prm/pocket_docking_8.prm

>  <SCORE>
-44.9164

>  <SCORE.INTER>
-18.4406

>  <SCORE.INTER.CONST>
1

>  <SCORE.INTER.POLAR>
-2.60524

>  <SCORE.INTER.ROT>
8

>  <SCORE.INTER.SOLV>
21.6136

>  <SCORE.INTER.VDW>
-19.7474

>  <SCORE.INTER.norm>
-0.576267

>  <SCORE.INTRA>
-26.4758

>  <SCORE.INTRA.DIHEDRAL>
-48.6476

>  <SCORE.INTRA.DIHEDRAL.0>
76.3625

>  <SCORE.INTRA.POLAR>
0

>  <SCORE.INTRA.POLAR.0>
0

>  <SCORE.INTRA.REPUL>
-0.12705

>  <SCORE.INTRA.REPUL.0>
0.12705

>  <SCORE.INTRA.SOLV>
-6.85947

>  <SCORE.INTRA.SOLV.lig_0>
-119.383

>  <SCORE.INTRA.VDW>
1.91297

>  <SCORE.INTRA.VDW.0>
-5.10464

>  <SCORE.INTRA.norm>
-0.827369

>  <SCORE.RESTR>
0

>  <SCORE.RESTR.CAVITY>
0

>  <SCORE.RESTR.norm>
0

>  <SCORE.SYSTEM>
0

>  <SCORE.SYSTEM.CONST>
0

>  <SCORE.SYSTEM.DIHEDRAL>
0

>  <SCORE.SYSTEM.SOLV>
0

>  <SCORE.SYSTEM.norm>
0

>  <SCORE.heavy>
32

>  <SCORE.norm>
-1.40364

>  <RMSD>
7.314

$$$$
2au4_lig
 OpenBabel11021811423D
libRbt.so/2013.1/901 2013/11/27
 32 34  0  0  0  0  0  0  0  0999 V2000
   68.1196   12.5359   -1.6292 P   0  0  1  0  0  0  0  0  0  0  0  0
   70.6275   12.7251   -0.6075 P   0  0  1  0  0  0  0  0  0  0  0  0
   72.8729   13.5414    0.7089 P   0  0  2  0  0  0  0  0  0  0  0  0
   67.0832   10.1138   -1.3298 C   0  0  0  0  0  0  0  0  0  0  0  0
   67.7631   11.2381   -0.7472 O   0  0  0  0  0  0  0  0  0  0  0  0
   66.5569    9.1448   -0.2812 C   0  0  0  0  0  0  0  0  0  0  0  0
   65.1343    9.3076   -0.1082 O   0  0  0  0  0  0  0  0  0  0  0  0
   66.8252    7.7062   -0.6946 C   0  0  0  0  0  0  0  0  0  0  0  0
   67.7161    7.0661    0.2271 O   0  0  0  0  0  0  0  0  0  0  0  0
   65.4846    7.0117   -0.7251 C   0  0  0  0  0  0  0  0  0  0  0  0
   65.4594    5.8921    0.1705 O   0  0  0  0  0  0  0  0  0  0  0  0
   64.4549    8.0516   -0.3184 C   0  0  0  0  0  0  0  0  0  0  0  0
   61.0165   11.1280   -2.5046 N   0  0  0  0  0  0  0  0  0  0  0  0
   68.8365   12.0975   -2.8436 O   0  5  0  0  0  0  0  0  0  0  0  0
   70.5524   11.3626   -0.0452 O   0  5  0  0  0  0  0  0  0  0  0  0
   73.5600   14.1379   -0.4544 O   0  5  0  0  0  0  0  0  0  0  0  0
   61.8862   11.3862   -1.4719 C   0  0  1  0  0  0  0  0  0  0  0  0
   61.8364   12.6055   -0.9523 N   0  0  0  0  0  0  0  0  0  0  0  0
   66.9075   13.3746   -1.7464 O   0  0  0  0  0  0  0  0  0  0  0  0
   71.2979   12.9560   -1.9040 O   0  0  0  0  0  0  0  0  0  0  0  0
   73.1558   12.1441    1.0981 O   0  0  0  0  0  0  0  0  0  0  0  0
   62.7448   10.4934   -0.9854 N   0  0  0  0  0  0  0  0  0  0  0  0
   69.1543   13.3053   -0.7031 O   0  0  0  0  0  0  0  0  0  0  0  0
   71.3033   13.6741    0.4732 O   0  0  0  0  0  0  0  0  0  0  0  0
   73.1198   14.4860    1.9845 O   0  0  0  0  0  0  0  0  0  0  0  0
   62.6603    9.3041   -1.6249 C   0  0  2  0  0  0  0  0  0  0  0  0
   61.8173    8.9606   -2.6696 C   0  0  2  0  0  0  0  0  0  0  0  0
   60.9092    9.9228   -3.1752 C   0  0  1  0  0  0  0  0  0  0  0  0
   60.0822    9.7912   -4.0675 O   0  0  0  0  0  0  0  0  0  0  0  0
   62.0260    7.6342   -3.0623 N   0  0  0  0  0  0  0  0  0  0  0  0
   62.9608    7.2693   -2.2468 C   0  0  0  0  0  0  0  0  0  0  0  0
   63.4099    8.1844   -1.3521 N   0  0  0  0  0  0  0  0  0  0  0  0
  1  5  1  1  0  0  0
  1 14  1  0  0  0  0
  1 19  2  0  0  0  0
  2 15  1  1  0  0  0
  2 20  2  0  0  0  0
  2 23  1  0  0  0  0
  3 16  1  6  0  0  0
  3 21  2  0  0  0  0
  3 24  1  0  0  0  0
  3 25  1  0  0  0  0
  4  6  1  0  0  0  0
  5  4  1  0  0  0  0
  6  7  1  0  0  0  0
  6  8  2  0  0  0  0
  7 12  1  0  0  0  0
  8  9  1  0  0  0  0
  8 10  1  0  0  0  0
 10 11  1  0  0  0  0
 10 12  2  0  0  0  0
 12 32  1  0  0  0  0
 13 17  1  0  0  0  0
 17 18  1  1  0  0  0
 17 22  1  0  0  0  0
 23  1  1  0  0  0  0
 24  2  1  0  0  0  0
 26 22  1  1  0  0  0
 27 26  1  0  0  0  0
 27 28  1  0  0  0  0
 27 30  1  1  0  0  0
 28 13  1  0  0  0  0
 28 29  1  1  0  0  0
 31 30  1  0  0  0  0
 32 26  1  0  0  0  0
 32 31  1  0  0  0  0
M  CHG  3  14  -1  15  -1  16  -1
M  END
>  <CHROM.1>
-52.09714588,-61.35746935,73.28773689,103.04138876,-166.69140346,-31.70620219
75.13034268,74.02533555,67.05512756,10.90702965,-0.97232182,0.34044440,-0.30670694
-0.23838764

>  <Name>
2au4_lig

>  <RI>
0

>  <Rbt.Current_Directory>
/home/itssahil/PROJECTS/Mol_Feturizer/New_Systems/rnas/2au4

>  <Rbt.Executable>
rbdock ($Id: //depot/dev/client3/rdock/2013.1/src/exe/rbdock.cxx#4 $)

>  <Rbt.Library>
libRbt.so (2013.1, Build901 2013/11/27)

>  <Rbt.Parameter_File>
/export/apps/rDock/src/rDock_2013.1_src/data/scripts/dock_solv.prm

>  <Rbt.Receptor>
prm/pocket_docking_8.prm

>  <SCORE>
-46.3482

>  <SCORE.INTER>
-20.5878

>  <SCORE.INTER.CONST>
1

>  <SCORE.INTER.POLAR>
-1.74952

>  <SCORE.INTER.ROT>
8

>  <SCORE.INTER.SOLV>
24.9101

>  <SCORE.INTER.VDW>
-25.1302

>  <SCORE.INTER.norm>
-0.643368

>  <SCORE.INTRA>
-25.7604

>  <SCORE.INTRA.DIHEDRAL>
-49.5088

>  <SCORE.INTRA.DIHEDRAL.0>
76.3625

>  <SCORE.INTRA.POLAR>
0

>  <SCORE.INTRA.POLAR.0>
0

>  <SCORE.INTRA.REPUL>
0.0581999

>  <SCORE.INTRA.REPUL.0>
0.12705

>  <SCORE.INTRA.SOLV>
-5.117

>  <SCORE.INTRA.SOLV.lig_0>
-119.383

>  <SCORE.INTRA.VDW>
1.26154

>  <SCORE.INTRA.VDW.0>
-5.10464

>  <SCORE.INTRA.norm>
-0.805012

>  <SCORE.RESTR>
0

>  <SCORE.RESTR.CAVITY>
0

>  <SCORE.RESTR.norm>
0

>  <SCORE.SYSTEM>
0

>  <SCORE.SYSTEM.CONST>
0

>  <SCORE.SYSTEM.DIHEDRAL>
0

>  <SCORE.SYSTEM.SOLV>
0

>  <SCORE.SYSTEM.norm>
0

>  <SCORE.heavy>
32

>  <SCORE.norm>
-1.44838

>  <RMSD>
7.315

$$$$
2au4_lig
 OpenBabel11021811423D
libRbt.so/2013.1/901 2013/11/27
 32 34  0  0  0  0  0  0  0  0999 V2000
   69.5472    4.9685   -1.8380 P   0  0  1  0  0  0  0  0  0  0  0  0
   67.3647    5.9563   -3.1148 P   0  0  1  0  0  0  0  0  0  0  0  0
   64.9991    6.4051   -1.8329 P   0  0  2  0  0  0  0  0  0  0  0  0
   69.0472    6.7854    0.0273 C   0  0  0  0  0  0  0  0  0  0  0  0
   69.6184    5.5148   -0.3261 O   0  0  0  0  0  0  0  0  0  0  0  0
   69.1081    7.0548    1.5236 C   0  0  0  0  0  0  0  0  0  0  0  0
   69.5136    8.4153    1.7782 O   0  0  0  0  0  0  0  0  0  0  0  0
   67.7474    6.8350    2.1661 C   0  0  0  0  0  0  0  0  0  0  0  0
   67.7933    5.7545    3.1058 O   0  0  0  0  0  0  0  0  0  0  0  0
   67.3802    8.1317    2.8473 C   0  0  0  0  0  0  0  0  0  0  0  0
   67.1682    7.9383    4.2522 O   0  0  0  0  0  0  0  0  0  0  0  0
   68.5364    9.0858    2.6022 C   0  0  0  0  0  0  0  0  0  0  0  0
   69.8107   13.1738   -0.1782 N   0  0  0  0  0  0  0  0  0  0  0  0
   70.1170    5.9929   -2.7362 O   0  5  0  0  0  0  0  0  0  0  0  0
   67.6319    7.3102   -2.5914 O   0  5  0  0  0  0  0  0  0  0  0  0
   65.1048    7.8619   -2.0511 O   0  5  0  0  0  0  0  0  0  0  0  0
   70.6018   12.1432    0.2709 C   0  0  1  0  0  0  0  0  0  0  0  0
   71.8867   12.2049   -0.0516 N   0  0  0  0  0  0  0  0  0  0  0  0
   70.0698    3.5856   -1.8654 O   0  0  0  0  0  0  0  0  0  0  0  0
   67.7942    5.5915   -4.4808 O   0  0  0  0  0  0  0  0  0  0  0  0
   65.4277    5.8171   -0.5466 O   0  0  0  0  0  0  0  0  0  0  0  0
   70.1487   11.1224    0.9944 N   0  0  0  0  0  0  0  0  0  0  0  0
   67.9837    4.9016   -2.1044 O   0  0  0  0  0  0  0  0  0  0  0  0
   65.8053    5.6746   -2.9962 O   0  0  0  0  0  0  0  0  0  0  0  0
   63.4831    5.9570   -2.1184 O   0  0  0  0  0  0  0  0  0  0  0  0
   68.8209   11.2187    1.2361 C   0  0  2  0  0  0  0  0  0  0  0  0
   67.9537   12.2173    0.8231 C   0  0  2  0  0  0  0  0  0  0  0  0
   68.4525   13.2970    0.0540 C   0  0  1  0  0  0  0  0  0  0  0  0
   67.8452   14.2699   -0.3727 O   0  0  0  0  0  0  0  0  0  0  0  0
   66.6532   11.9650    1.2730 N   0  0  0  0  0  0  0  0  0  0  0  0
   66.8151   10.8546    1.9155 C   0  0  0  0  0  0  0  0  0  0  0  0
   68.0632   10.3251    1.9554 N   0  0  0  0  0  0  0  0  0  0  0  0
  1  5  1  1  0  0  0
  1 14  1  0  0  0  0
  1 19  2  0  0  0  0
  2 15  1  1  0  0  0
  2 20  2  0  0  0  0
  2 23  1  0  0  0  0
  3 16  1  6  0  0  0
  3 21  2  0  0  0  0
  3 24  1  0  0  0  0
  3 25  1  0  0  0  0
  4  6  1  0  0  0  0
  5  4  1  0  0  0  0
  6  7  1  0  0  0  0
  6  8  2  0  0  0  0
  7 12  1  0  0  0  0
  8  9  1  0  0  0  0
  8 10  1  0  0  0  0
 10 11  1  0  0  0  0
 10 12  2  0  0  0  0
 12 32  1  0  0  0  0
 13 17  1  0  0  0  0
 17 18  1  1  0  0  0
 17 22  1  0  0  0  0
 23  1  1  0  0  0  0
 24  2  1  0  0  0  0
 26 22  1  1  0  0  0
 27 26  1  0  0  0  0
 27 28  1  0  0  0  0
 27 30  1  1  0  0  0
 28 13  1  0  0  0  0
 28 29  1  1  0  0  0
 31 30  1  0  0  0  0
 32 26  1  0  0  0  0
 32 31  1  0  0  0  0
M  CHG  3  14  -1  15  -1  16  -1
M  END
>  <CHROM.1>
54.33371303,-59.93871082,61.47100324,136.85434207,174.70140071,-38.77356023
109.59136355,-28.64088097,67.95750214,8.01934838,-0.37862730,-1.86989536
-0.81542223,0.25556278

>  <Name>
2au4_lig

>  <RI>
0

>  <Rbt.Current_Directory>
/home/itssahil/PROJECTS/Mol_Feturizer/New_Systems/rnas/2au4

>  <Rbt.Executable>
rbdock ($Id: //depot/dev/client3/rdock/2013.1/src/exe/rbdock.cxx#4 $)

>  <Rbt.Library>
libRbt.so (2013.1, Build901 2013/11/27)

>  <Rbt.Parameter_File>
/export/apps/rDock/src/rDock_2013.1_src/data/scripts/dock_solv.prm

>  <Rbt.Receptor>
prm/pocket_docking_3.prm

>  <SCORE>
-40.0016

>  <SCORE.INTER>
-17.5092

>  <SCORE.INTER.CONST>
1

>  <SCORE.INTER.POLAR>
-0.8

>  <SCORE.INTER.ROT>
8

>  <SCORE.INTER.SOLV>
32.3523

>  <SCORE.INTER.VDW>
-28.7235

>  <SCORE.INTER.norm>
-0.547161

>  <SCORE.INTRA>
-23.4332

>  <SCORE.INTRA.DIHEDRAL>
-46.7966

>  <SCORE.INTRA.DIHEDRAL.0>
76.3625

>  <SCORE.INTRA.POLAR>
0

>  <SCORE.INTRA.POLAR.0>
0

>  <SCORE.INTRA.REPUL>
0.0229052

>  <SCORE.INTRA.REPUL.0>
0.12705

>  <SCORE.INTRA.SOLV>
-3.59254

>  <SCORE.INTRA.SOLV.lig_0>
-119.383

>  <SCORE.INTRA.VDW>
1.64683

>  <SCORE.INTRA.VDW.0>
-5.10464

>  <SCORE.INTRA.norm>
-0.732287

>  <SCORE.RESTR>
0.940768

>  <SCORE.RESTR.CAVITY>
0.940768

>  <SCORE.RESTR.norm>
0.029399

>  <SCORE.SYSTEM>
0

>  <SCORE.SYSTEM.CONST>
0

>  <SCORE.SYSTEM.DIHEDRAL>
0

>  <SCORE.SYSTEM.SOLV>
0

>  <SCORE.SYSTEM.norm>
0

>  <SCORE.heavy>
32

>  <SCORE.norm>
-1.25005

>  <RMSD>
7.318

$$$$
2au4_lig
 OpenBabel11021811423D
libRbt.so/2013.1/901 2013/11/27
 32 34  0  0  0  0  0  0  0  0999 V2000
   69.2172    9.3048    4.7357 P   0  0  1  0  0  0  0  0  0  0  0  0
   71.1620   10.7636    3.5277 P   0  0  1  0  0  0  0  0  0  0  0  0
   73.4558   11.5569    2.2827 P   0  0  2  0  0  0  0  0  0  0  0  0
   66.7214    9.3828    3.8439 C   0  0  0  0  0  0  0  0  0  0  0  0
   68.1240    9.5557    3.5819 O   0  0  0  0  0  0  0  0  0  0  0  0
   65.8702    9.5580    2.5948 C   0  0  0  0  0  0  0  0  0  0  0  0
   65.5678   10.9515    2.3781 O   0  0  0  0  0  0  0  0  0  0  0  0
   66.5994    9.0323    1.3682 C   0  0  0  0  0  0  0  0  0  0  0  0
   65.9002    7.9213    0.7939 O   0  0  0  0  0  0  0  0  0  0  0  0
   66.6842   10.1828    0.3938 C   0  0  0  0  0  0  0  0  0  0  0  0
   66.0492    9.8576   -0.8500 O   0  0  0  0  0  0  0  0  0  0  0  0
   65.9938   11.3599    1.0609 C   0  0  0  0  0  0  0  0  0  0  0  0
   67.3231   15.5387    3.6756 N   0  0  0  0  0  0  0  0  0  0  0  0
   69.2038   10.4594    5.6562 O   0  5  0  0  0  0  0  0  0  0  0  0
   70.3727   11.2827    2.3938 O   0  5  0  0  0  0  0  0  0  0  0  0
   74.7745   10.9999    1.9195 O   0  5  0  0  0  0  0  0  0  0  0  0
   66.3357   14.6202    3.9421 C   0  0  1  0  0  0  0  0  0  0  0  0
   65.6095   14.8370    5.0305 N   0  0  0  0  0  0  0  0  0  0  0  0
   69.0413    7.9346    5.2628 O   0  0  0  0  0  0  0  0  0  0  0  0
   71.3040   11.5653    4.7608 O   0  0  0  0  0  0  0  0  0  0  0  0
   73.3715   12.7702    3.1222 O   0  0  0  0  0  0  0  0  0  0  0  0
   66.0838   13.5604    3.1779 N   0  0  0  0  0  0  0  0  0  0  0  0
   70.5828    9.3418    3.9269 O   0  0  0  0  0  0  0  0  0  0  0  0
   72.6182   10.4078    3.0002 O   0  0  0  0  0  0  0  0  0  0  0  0
   72.6224   11.8117    0.9332 O   0  0  0  0  0  0  0  0  0  0  0  0
   66.9115   13.4940    2.1097 C   0  0  2  0  0  0  0  0  0  0  0  0
   67.9277   14.3717    1.7681 C   0  0  2  0  0  0  0  0  0  0  0  0
   68.1823   15.4951    2.5923 C   0  0  1  0  0  0  0  0  0  0  0  0
   69.0133   16.3795    2.4352 O   0  0  0  0  0  0  0  0  0  0  0  0
   68.5611   13.9655    0.5887 N   0  0  0  0  0  0  0  0  0  0  0  0
   67.9006   12.8921    0.2995 C   0  0  0  0  0  0  0  0  0  0  0  0
   66.8998   12.5224    1.1371 N   0  0  0  0  0  0  0  0  0  0  0  0
  1  5  1  6  0  0  0
  1 14  1  0  0  0  0
  1 19  2  0  0  0  0
  2 15  1  6  0  0  0
  2 20  2  0  0  0  0
  2 23  1  0  0  0  0
  3 16  1  6  0  0  0
  3 21  2  0  0  0  0
  3 24  1  0  0  0  0
  3 25  1  0  0  0  0
  4  6  1  0  0  0  0
  5  4  1  0  0  0  0
  6  7  1  0  0  0  0
  6  8  2  0  0  0  0
  7 12  1  0  0  0  0
  8  9  1  0  0  0  0
  8 10  1  0  0  0  0
 10 11  1  0  0  0  0
 10 12  2  0  0  0  0
 12 32  1  0  0  0  0
 13 17  1  0  0  0  0
 17 18  1  6  0  0  0
 17 22  1  0  0  0  0
 23  1  1  0  0  0  0
 24  2  1  0  0  0  0
 26 22  1  6  0  0  0
 27 26  1  0  0  0  0
 27 28  1  0  0  0  0
 27 30  1  6  0  0  0
 28 13  1  0  0  0  0
 28 29  1  6  0  0  0
 31 30  1  0  0  0  0
 32 26  1  0  0  0  0
 32 31  1  0  0  0  0
M  CHG  3  14  -1  15  -1  16  -1
M  END
>  <CHROM.1>
-76.32738130,-75.85755831,178.46498488,-85.12170722,-175.31021903,-28.65322898
78.53762526,56.21502603,69.00161106,11.52165281,2.72760335,0.18630145,0.12101605
3.03650998

>  <Name>
2au4_lig

>  <RI>
0

>  <Rbt.Current_Directory>
/home/itssahil/PROJECTS/Mol_Feturizer/New_Systems/rnas/2au4

>  <Rbt.Executable>
rbdock ($Id: //depot/dev/client3/rdock/2013.1/src/exe/rbdock.cxx#4 $)

>  <Rbt.Library>
libRbt.so (2013.1, Build901 2013/11/27)

>  <Rbt.Parameter_File>
/export/apps/rDock/src/rDock_2013.1_src/data/scripts/dock_solv.prm

>  <Rbt.Receptor>
prm/pocket_docking_6.prm

>  <SCORE>
-35.9746

>  <SCORE.INTER>
-10.3275

>  <SCORE.INTER.CONST>
1

>  <SCORE.INTER.POLAR>
-1.66452

>  <SCORE.INTER.ROT>
8

>  <SCORE.INTER.SOLV>
21.0291

>  <SCORE.INTER.VDW>
-17.2796

>  <SCORE.INTER.norm>
-0.322735

>  <SCORE.INTRA>
-25.647

>  <SCORE.INTRA.DIHEDRAL>
-49.8927

>  <SCORE.INTRA.DIHEDRAL.0>
76.3625

>  <SCORE.INTRA.POLAR>
0

>  <SCORE.INTRA.POLAR.0>
0

>  <SCORE.INTRA.REPUL>
0.0673465

>  <SCORE.INTRA.REPUL.0>
0.12705

>  <SCORE.INTRA.SOLV>
-4.51275

>  <SCORE.INTRA.SOLV.lig_0>
-119.383

>  <SCORE.INTRA.VDW>
1.21893

>  <SCORE.INTRA.VDW.0>
-5.10464

>  <SCORE.INTRA.norm>
-0.80147

>  <SCORE.RESTR>
0

>  <SCORE.RESTR.CAVITY>
0

>  <SCORE.RESTR.norm>
0

>  <SCORE.SYSTEM>
0

>  <SCORE.SYSTEM.CONST>
0

>  <SCORE.SYSTEM.DIHEDRAL>
0

>  <SCORE.SYSTEM.SOLV>
0

>  <SCORE.SYSTEM.norm>
0

>  <SCORE.heavy>
32

>  <SCORE.norm>
-1.1242

>  <RMSD>
7.319

$$$$
2au4_lig
 OpenBabel11021811423D
libRbt.so/2013.1/901 2013/11/27
 32 34  0  0  0  0  0  0  0  0999 V2000
   69.0071    9.6866    0.6856 P   0  0  1  0  0  0  0  0  0  0  0  0
   70.8187   11.4129    1.7380 P   0  0  1  0  0  0  0  0  0  0  0  0
   71.8984   13.4276    3.2266 P   0  0  2  0  0  0  0  0  0  0  0  0
   66.5415   10.1888    1.5217 C   0  0  0  0  0  0  0  0  0  0  0  0
   67.5311    9.2235    1.1287 O   0  0  0  0  0  0  0  0  0  0  0  0
   65.7884    9.7723    2.7766 C   0  0  0  0  0  0  0  0  0  0  0  0
   66.6374    8.9910    3.6421 O   0  0  0  0  0  0  0  0  0  0  0  0
   65.3137   10.9927    3.5498 C   0  0  0  0  0  0  0  0  0  0  0  0
   63.8827   11.0432    3.5986 O   0  0  0  0  0  0  0  0  0  0  0  0
   65.9005   10.8769    4.9364 C   0  0  0  0  0  0  0  0  0  0  0  0
   64.8720   10.8548    5.9353 O   0  0  0  0  0  0  0  0  0  0  0  0
   66.6997    9.5854    4.9560 C   0  0  0  0  0  0  0  0  0  0  0  0
   69.8453   12.3813    7.8464 N   0  0  0  0  0  0  0  0  0  0  0  0
   69.8986    8.5097    0.7150 O   0  5  0  0  0  0  0  0  0  0  0  0
   71.8943   10.4057    1.6564 O   0  5  0  0  0  0  0  0  0  0  0  0
   71.2644   14.5323    2.4790 O   0  5  0  0  0  0  0  0  0  0  0  0
   68.4764   12.4415    7.7371 C   0  0  1  0  0  0  0  0  0  0  0  0
   67.8670   13.3557    8.4799 N   0  0  0  0  0  0  0  0  0  0  0  0
   68.8970   10.5024   -0.5427 O   0  0  0  0  0  0  0  0  0  0  0  0
   70.6802   12.4369    0.6816 O   0  0  0  0  0  0  0  0  0  0  0  0
   73.2654   12.9876    2.8776 O   0  0  0  0  0  0  0  0  0  0  0  0
   67.7611   11.6502    6.9415 N   0  0  0  0  0  0  0  0  0  0  0  0
   69.4336   10.6513    1.8720 O   0  0  0  0  0  0  0  0  0  0  0  0
   70.9393   12.1593    3.1357 O   0  0  0  0  0  0  0  0  0  0  0  0
   71.8622   13.7865    4.7920 O   0  0  0  0  0  0  0  0  0  0  0  0
   68.5383   10.7821    6.2537 C   0  0  2  0  0  0  0  0  0  0  0  0
   69.9171   10.6544    6.3041 C   0  0  2  0  0  0  0  0  0  0  0  0
   70.6633   11.5049    7.1561 C   0  0  1  0  0  0  0  0  0  0  0  0
   71.8765   11.5512    7.3098 O   0  0  0  0  0  0  0  0  0  0  0  0
   70.3552    9.6418    5.4438 N   0  0  0  0  0  0  0  0  0  0  0  0
   69.2372    9.2324    4.9395 C   0  0  0  0  0  0  0  0  0  0  0  0
   68.0981    9.8422    5.3522 N   0  0  0  0  0  0  0  0  0  0  0  0
  1  5  1  1  0  0  0
  1 14  1  0  0  0  0
  1 19  2  0  0  0  0
  2 15  1  6  0  0  0
  2 20  2  0  0  0  0
  2 23  1  0  0  0  0
  3 16  1  6  0  0  0
  3 21  2  0  0  0  0
  3 24  1  0  0  0  0
  3 25  1  0  0  0  0
  4  6  1  0  0  0  0
  5  4  1  0  0  0  0
  6  7  1  0  0  0  0
  6  8  2  0  0  0  0
  7 12  1  0  0  0  0
  8  9  1  0  0  0  0
  8 10  1  0  0  0  0
 10 11  1  0  0  0  0
 10 12  2  0  0  0  0
 12 32  1  0  0  0  0
 13 17  1  0  0  0  0
 17 18  1  6  0  0  0
 17 22  1  0  0  0  0
 23  1  1  0  0  0  0
 24  2  1  0  0  0  0
 26 22  1  6  0  0  0
 27 26  1  0  0  0  0
 27 28  1  0  0  0  0
 27 30  1  6  0  0  0
 28 13  1  0  0  0  0
 28 29  1  6  0  0  0
 31 30  1  0  0  0  0
 32 26  1  0  0  0  0
 32 31  1  0  0  0  0
M  CHG  3  14  -1  15  -1  16  -1
M  END
>  <CHROM.1>
163.99818324,-61.20930049,71.14650011,31.23200580,-135.29069549,155.06924028
-175.27433452,87.28205461,69.16335055,11.15569464,3.73391200,0.79430870,-0.40980530
-1.83465724

>  <Name>
2au4_lig

>  <RI>
0

>  <Rbt.Current_Directory>
/home/itssahil/PROJECTS/Mol_Feturizer/New_Systems/rnas/2au4

>  <Rbt.Executable>
rbdock ($Id: //depot/dev/client3/rdock/2013.1/src/exe/rbdock.cxx#4 $)

>  <Rbt.Library>
libRbt.so (2013.1, Build901 2013/11/27)

>  <Rbt.Parameter_File>
/export/apps/rDock/src/rDock_2013.1_src/data/scripts/dock_solv.prm

>  <Rbt.Receptor>
prm/pocket_docking_7.prm

>  <SCORE>
-38.598

>  <SCORE.INTER>
-13.5354

>  <SCORE.INTER.CONST>
1

>  <SCORE.INTER.POLAR>
-2.96362

>  <SCORE.INTER.ROT>
8

>  <SCORE.INTER.SOLV>
17.4085

>  <SCORE.INTER.VDW>
-13.881

>  <SCORE.INTER.norm>
-0.422981

>  <SCORE.INTRA>
-25.0626

>  <SCORE.INTRA.DIHEDRAL>
-43.7358

>  <SCORE.INTRA.DIHEDRAL.0>
76.3625

>  <SCORE.INTRA.POLAR>
0

>  <SCORE.INTRA.POLAR.0>
0

>  <SCORE.INTRA.REPUL>
-0.12705

>  <SCORE.INTRA.REPUL.0>
0.12705

>  <SCORE.INTRA.SOLV>
-3.00302

>  <SCORE.INTRA.SOLV.lig_0>
-119.383

>  <SCORE.INTRA.VDW>
-1.05793

>  <SCORE.INTRA.VDW.0>
-5.10464

>  <SCORE.INTRA.norm>
-0.783206

>  <SCORE.RESTR>
0

>  <SCORE.RESTR.CAVITY>
0

>  <SCORE.RESTR.norm>
0

>  <SCORE.SYSTEM>
0

>  <SCORE.SYSTEM.CONST>
0

>  <SCORE.SYSTEM.DIHEDRAL>
0

>  <SCORE.SYSTEM.SOLV>
0

>  <SCORE.SYSTEM.norm>
0

>  <SCORE.heavy>
32

>  <SCORE.norm>
-1.20619

>  <RMSD>
7.328

$$$$
2au4_lig
 OpenBabel11021811423D
libRbt.so/2013.1/901 2013/11/27
 32 34  0  0  0  0  0  0  0  0999 V2000
   68.3301    7.3141    3.5143 P   0  0  1  0  0  0  0  0  0  0  0  0
   68.8397    6.2805    1.0563 P   0  0  1  0  0  0  0  0  0  0  0  0
   69.5622    4.6345   -0.9953 P   0  0  2  0  0  0  0  0  0  0  0  0
   70.1023    8.9289    4.6467 C   0  0  0  0  0  0  0  0  0  0  0  0
   69.6189    8.2762    3.4609 O   0  0  0  0  0  0  0  0  0  0  0  0
   69.4113   10.2605    4.9008 C   0  0  0  0  0  0  0  0  0  0  0  0
   69.9108   11.2713    4.0013 O   0  0  0  0  0  0  0  0  0  0  0  0
   67.9101   10.1366    4.6920 C   0  0  0  0  0  0  0  0  0  0  0  0
   67.2016   10.3752    5.9143 O   0  0  0  0  0  0  0  0  0  0  0  0
   67.5378   11.1550    3.6410 C   0  0  0  0  0  0  0  0  0  0  0  0
   66.5695   12.0870    4.1411 O   0  0  0  0  0  0  0  0  0  0  0  0
   68.8247   11.8661    3.2598 C   0  0  0  0  0  0  0  0  0  0  0  0
   66.7118   11.6438   -1.3827 N   0  0  0  0  0  0  0  0  0  0  0  0
   68.1549    6.8382    4.9012 O   0  5  0  0  0  0  0  0  0  0  0  0
   67.4568    6.2551    0.5415 O   0  5  0  0  0  0  0  0  0  0  0  0
   69.5897    5.9146   -1.7315 O   0  5  0  0  0  0  0  0  0  0  0  0
   66.1062   11.7354   -0.1520 C   0  0  1  0  0  0  0  0  0  0  0  0
   64.7803   11.7677   -0.1503 N   0  0  0  0  0  0  0  0  0  0  0  0
   67.2128    7.9824    2.8134 O   0  0  0  0  0  0  0  0  0  0  0  0
   69.7166    7.4347    0.7691 O   0  0  0  0  0  0  0  0  0  0  0  0
   68.4754    3.6637   -1.2408 O   0  0  0  0  0  0  0  0  0  0  0  0
   66.7715   11.7877    0.9992 N   0  0  0  0  0  0  0  0  0  0  0  0
   68.7885    6.0787    2.6289 O   0  0  0  0  0  0  0  0  0  0  0  0
   69.5799    4.9638    0.5629 O   0  0  0  0  0  0  0  0  0  0  0  0
   70.9692    3.8912   -1.2154 O   0  0  0  0  0  0  0  0  0  0  0  0
   68.1112   11.7392    0.8161 C   0  0  2  0  0  0  0  0  0  0  0  0
   68.8010   11.6476   -0.3820 C   0  0  2  0  0  0  0  0  0  0  0  0
   68.0773   11.5925   -1.5983 C   0  0  1  0  0  0  0  0  0  0  0  0
   68.5128   11.4869   -2.7371 O   0  0  0  0  0  0  0  0  0  0  0  0
   70.1821   11.6210   -0.1608 N   0  0  0  0  0  0  0  0  0  0  0  0
   70.2367   11.6958    1.1289 C   0  0  0  0  0  0  0  0  0  0  0  0
   69.0641   11.7700    1.8066 N   0  0  0  0  0  0  0  0  0  0  0  0
  1  5  1  1  0  0  0
  1 14  1  0  0  0  0
  1 19  2  0  0  0  0
  2 15  1  6  0  0  0
  2 20  2  0  0  0  0
  2 23  1  0  0  0  0
  3 16  1  6  0  0  0
  3 21  2  0  0  0  0
  3 24  1  0  0  0  0
  3 25  1  0  0  0  0
  4  6  1  0  0  0  0
  5  4  1  0  0  0  0
  6  7  1  0  0  0  0
  6  8  2  0  0  0  0
  7 12  1  0  0  0  0
  8  9  1  0  0  0  0
  8 10  1  0  0  0  0
 10 11  1  0  0  0  0
 10 12  2  0  0  0  0
 12 32  1  0  0  0  0
 13 17  1  0  0  0  0
 17 18  1  1  0  0  0
 17 22  1  0  0  0  0
 23  1  1  0  0  0  0
 24  2  1  0  0  0  0
 26 22  1  1  0  0  0
 27 26  1  0  0  0  0
 27 28  1  0  0  0  0
 27 30  1  1  0  0  0
 28 13  1  0  0  0  0
 28 29  1  1  0  0  0
 31 30  1  0  0  0  0
 32 26  1  0  0  0  0
 32 31  1  0  0  0  0
M  CHG  3  14  -1  15  -1  16  -1
M  END
>  <CHROM.1>
-22.32435268,-75.70905599,33.57515940,-75.65053469,-86.93379647,153.34739635
-74.27008775,53.14291980,68.53418711,8.75230024,1.46226377,-0.36985369,-1.34577113
1.55827731

>  <Name>
2au4_lig

>  <RI>
0

>  <Rbt.Current_Directory>
/home/itssahil/PROJECTS/Mol_Feturizer/New_Systems/rnas/2au4

>  <Rbt.Executable>
rbdock ($Id: //depot/dev/client3/rdock/2013.1/src/exe/rbdock.cxx#4 $)

>  <Rbt.Library>
libRbt.so (2013.1, Build901 2013/11/27)

>  <Rbt.Parameter_File>
/export/apps/rDock/src/rDock_2013.1_src/data/scripts/dock_solv.prm

>  <Rbt.Receptor>
prm/pocket_docking_4.prm

>  <SCORE>
-45.6804

>  <SCORE.INTER>
-23.3571

>  <SCORE.INTER.CONST>
1

>  <SCORE.INTER.POLAR>
-2.39588

>  <SCORE.INTER.ROT>
8

>  <SCORE.INTER.SOLV>
30.5061

>  <SCORE.INTER.VDW>
-26.6872

>  <SCORE.INTER.norm>
-0.72991

>  <SCORE.INTRA>
-22.3233

>  <SCORE.INTRA.DIHEDRAL>
-43.8812

>  <SCORE.INTRA.DIHEDRAL.0>
76.3625

>  <SCORE.INTRA.POLAR>
0

>  <SCORE.INTRA.POLAR.0>
0

>  <SCORE.INTRA.REPUL>
-0.12705

>  <SCORE.INTRA.REPUL.0>
0.12705

>  <SCORE.INTRA.SOLV>
-0.218915

>  <SCORE.INTRA.SOLV.lig_0>
-119.383

>  <SCORE.INTRA.VDW>
0.362029

>  <SCORE.INTRA.VDW.0>
-5.10464

>  <SCORE.INTRA.norm>
-0.697602

>  <SCORE.RESTR>
0

>  <SCORE.RESTR.CAVITY>
0

>  <SCORE.RESTR.norm>
0

>  <SCORE.SYSTEM>
0

>  <SCORE.SYSTEM.CONST>
0

>  <SCORE.SYSTEM.DIHEDRAL>
0

>  <SCORE.SYSTEM.SOLV>
0

>  <SCORE.SYSTEM.norm>
0

>  <SCORE.heavy>
32

>  <SCORE.norm>
-1.42751

>  <RMSD>
7.348

$$$$
2au4_lig
 OpenBabel11021811423D
libRbt.so/2013.1/901 2013/11/27
 32 34  0  0  0  0  0  0  0  0999 V2000
   67.9814    8.9938   -0.6168 P   0  0  1  0  0  0  0  0  0  0  0  0
   68.2749    6.6397   -1.9363 P   0  0  1  0  0  0  0  0  0  0  0  0
   69.8239    4.5528   -1.1079 P   0  0  2  0  0  0  0  0  0  0  0  0
   68.5331   11.5377   -1.1214 C   0  0  0  0  0  0  0  0  0  0  0  0
   68.9969   10.2377   -0.7207 O   0  0  0  0  0  0  0  0  0  0  0  0
   67.6533   12.1923   -0.0663 C   0  0  0  0  0  0  0  0  0  0  0  0
   68.1999   11.9821    1.2517 O   0  0  0  0  0  0  0  0  0  0  0  0
   67.5495   13.6905   -0.3058 C   0  0  0  0  0  0  0  0  0  0  0  0
   66.2006   14.0689   -0.6058 O   0  0  0  0  0  0  0  0  0  0  0  0
   68.0333   14.3612    0.9577 C   0  0  0  0  0  0  0  0  0  0  0  0
   67.0184   15.2041    1.5194 O   0  0  0  0  0  0  0  0  0  0  0  0
   68.4019   13.2454    1.9200 C   0  0  0  0  0  0  0  0  0  0  0  0
   72.4433   10.9153    3.9948 N   0  0  0  0  0  0  0  0  0  0  0  0
   67.5838    8.8272    0.7957 O   0  5  0  0  0  0  0  0  0  0  0  0
   67.2679    5.9032   -1.1480 O   0  5  0  0  0  0  0  0  0  0  0  0
   69.7000    5.1680    0.2291 O   0  5  0  0  0  0  0  0  0  0  0  0
   71.1990   10.4089    3.7030 C   0  0  1  0  0  0  0  0  0  0  0  0
   70.9995    9.1320    4.0006 N   0  0  0  0  0  0  0  0  0  0  0  0
   66.9488    9.1385   -1.6651 O   0  0  0  0  0  0  0  0  0  0  0  0
   67.8999    7.2597   -3.2242 O   0  0  0  0  0  0  0  0  0  0  0  0
   71.0811    3.8819   -1.4993 O   0  0  0  0  0  0  0  0  0  0  0  0
   70.2182   11.1228    3.1561 N   0  0  0  0  0  0  0  0  0  0  0  0
   68.9048    7.7643   -1.0117 O   0  0  0  0  0  0  0  0  0  0  0  0
   69.5098    5.6735   -2.1951 O   0  0  0  0  0  0  0  0  0  0  0  0
   68.6109    3.5184   -1.3059 O   0  0  0  0  0  0  0  0  0  0  0  0
   70.5886   12.4029    2.9226 C   0  0  2  0  0  0  0  0  0  0  0  0
   71.8150   12.9924    3.1842 C   0  0  2  0  0  0  0  0  0  0  0  0
   72.8481   12.2183    3.7669 C   0  0  1  0  0  0  0  0  0  0  0  0
   73.9746   12.5733    4.0871 O   0  0  0  0  0  0  0  0  0  0  0  0
   71.8120   14.3384    2.8030 N   0  0  0  0  0  0  0  0  0  0  0  0
   70.6098   14.4729    2.3463 C   0  0  0  0  0  0  0  0  0  0  0  0
   69.8002   13.3850    2.3712 N   0  0  0  0  0  0  0  0  0  0  0  0
  1  5  1  6  0  0  0
  1 14  1  0  0  0  0
  1 19  2  0  0  0  0
  2 15  1  1  0  0  0
  2 20  2  0  0  0  0
  2 23  1  0  0  0  0
  3 16  1  1  0  0  0
  3 21  2  0  0  0  0
  3 24  1  0  0  0  0
  3 25  1  0  0  0  0
  4  6  1  0  0  0  0
  5  4  1  0  0  0  0
  6  7  1  0  0  0  0
  6  8  2  0  0  0  0
  7 12  1  0  0  0  0
  8  9  1  0  0  0  0
  8 10  1  0  0  0  0
 10 11  1  0  0  0  0
 10 12  2  0  0  0  0
 12 32  1  0  0  0  0
 13 17  1  0  0  0  0
 17 18  1  1  0  0  0
 17 22  1  0  0  0  0
 23  1  1  0  0  0  0
 24  2  1  0  0  0  0
 26 22  1  1  0  0  0
 27 26  1  0  0  0  0
 27 28  1  0  0  0  0
 27 30  1  1  0  0  0
 28 13  1  0  0  0  0
 28 29  1  1  0  0  0
 31 30  1  0  0  0  0
 32 26  1  0  0  0  0
 32 31  1  0  0  0  0
M  CHG  3  14  -1  15  -1  16  -1
M  END
>  <CHROM.1>
-98.34408908,-69.95477171,-43.33793231,41.93407435,69.82087994,-40.06605604
-139.81177187,-29.61076339,69.29014340,9.74878272,0.48807886,1.75694071,0.68689369
-2.79406623

>  <Name>
2au4_lig

>  <RI>
0

>  <Rbt.Current_Directory>
/home/itssahil/PROJECTS/Mol_Feturizer/New_Systems/rnas/2au4

>  <Rbt.Executable>
rbdock ($Id: //depot/dev/client3/rdock/2013.1/src/exe/rbdock.cxx#4 $)

>  <Rbt.Library>
libRbt.so (2013.1, Build901 2013/11/27)

>  <Rbt.Parameter_File>
/export/apps/rDock/src/rDock_2013.1_src/data/scripts/dock_solv.prm

>  <Rbt.Receptor>
prm/pocket_docking_5.prm

>  <SCORE>
-35.5235

>  <SCORE.INTER>
-12.9875

>  <SCORE.INTER.CONST>
1

>  <SCORE.INTER.POLAR>
-1.30584

>  <SCORE.INTER.ROT>
8

>  <SCORE.INTER.SOLV>
29.6592

>  <SCORE.INTER.VDW>
-23.1252

>  <SCORE.INTER.norm>
-0.405858

>  <SCORE.INTRA>
-22.536

>  <SCORE.INTRA.DIHEDRAL>
-44.8298

>  <SCORE.INTRA.DIHEDRAL.0>
76.3625

>  <SCORE.INTRA.POLAR>
0

>  <SCORE.INTRA.POLAR.0>
0

>  <SCORE.INTRA.REPUL>
0.0150251

>  <SCORE.INTRA.REPUL.0>
0.12705

>  <SCORE.INTRA.SOLV>
-3.76473

>  <SCORE.INTRA.SOLV.lig_0>
-119.383

>  <SCORE.INTRA.VDW>
1.68611

>  <SCORE.INTRA.VDW.0>
-5.10464

>  <SCORE.INTRA.norm>
-0.704251

>  <SCORE.RESTR>
0

>  <SCORE.RESTR.CAVITY>
0

>  <SCORE.RESTR.norm>
0

>  <SCORE.SYSTEM>
0

>  <SCORE.SYSTEM.CONST>
0

>  <SCORE.SYSTEM.DIHEDRAL>
0

>  <SCORE.SYSTEM.SOLV>
0

>  <SCORE.SYSTEM.norm>
0

>  <SCORE.heavy>
32

>  <SCORE.norm>
-1.11011

>  <RMSD>
7.352

$$$$
2au4_lig
 OpenBabel11021811423D
libRbt.so/2013.1/901 2013/11/27
 32 34  0  0  0  0  0  0  0  0999 V2000
   70.9888   12.5513    5.8502 P   0  0  1  0  0  0  0  0  0  0  0  0
   71.7371   12.9946    3.2786 P   0  0  1  0  0  0  0  0  0  0  0  0
   72.8730   12.6848    0.8180 P   0  0  2  0  0  0  0  0  0  0  0  0
   68.9042   11.0488    5.1964 C   0  0  0  0  0  0  0  0  0  0  0  0
   69.9268   11.3802    6.1504 O   0  0  0  0  0  0  0  0  0  0  0  0
   68.3141    9.6662    5.4326 C   0  0  0  0  0  0  0  0  0  0  0  0
   67.0199    9.5531    4.8062 O   0  0  0  0  0  0  0  0  0  0  0  0
   69.2189    8.5889    4.8551 C   0  0  0  0  0  0  0  0  0  0  0  0
   69.7288    7.7395    5.8902 O   0  0  0  0  0  0  0  0  0  0  0  0
   68.3803    7.8053    3.8738 C   0  0  0  0  0  0  0  0  0  0  0  0
   68.3213    6.4183    4.2327 O   0  0  0  0  0  0  0  0  0  0  0  0
   66.9957    8.4293    3.9008 C   0  0  0  0  0  0  0  0  0  0  0  0
   64.0633   11.5685    1.1415 N   0  0  0  0  0  0  0  0  0  0  0  0
   70.2483   13.7806    5.5019 O   0  5  0  0  0  0  0  0  0  0  0  0
   70.3525   13.4178    2.9926 O   0  5  0  0  0  0  0  0  0  0  0  0
   73.0526   11.6216   -0.1913 O   0  5  0  0  0  0  0  0  0  0  0  0
   64.1811   11.4597    2.5067 C   0  0  1  0  0  0  0  0  0  0  0  0
   63.4278   12.2784    3.2288 N   0  0  0  0  0  0  0  0  0  0  0  0
   71.9890   12.5720    6.9389 O   0  0  0  0  0  0  0  0  0  0  0  0
   72.7916   14.0065    3.4963 O   0  0  0  0  0  0  0  0  0  0  0  0
   74.0318   13.4890    1.2589 O   0  0  0  0  0  0  0  0  0  0  0  0
   64.9891   10.5942    3.1141 N   0  0  0  0  0  0  0  0  0  0  0  0
   71.7119   12.0290    4.5369 O   0  0  0  0  0  0  0  0  0  0  0  0
   72.2143   12.0281    2.1109 O   0  0  0  0  0  0  0  0  0  0  0  0
   71.7244   13.6839    0.3050 O   0  0  0  0  0  0  0  0  0  0  0  0
   65.6787    9.8352    2.2317 C   0  0  2  0  0  0  0  0  0  0  0  0
   65.6211    9.8792    0.8480 C   0  0  2  0  0  0  0  0  0  0  0  0
   64.7553   10.8062    0.2175 C   0  0  1  0  0  0  0  0  0  0  0  0
   64.5578   10.9681   -0.9793 O   0  0  0  0  0  0  0  0  0  0  0  0
   66.4843    8.9342    0.2832 N   0  0  0  0  0  0  0  0  0  0  0  0
   66.9963    8.3912    1.3391 C   0  0  0  0  0  0  0  0  0  0  0  0
   66.5865    8.8521    2.5472 N   0  0  0  0  0  0  0  0  0  0  0  0
  1  5  1  1  0  0  0
  1 14  1  0  0  0  0
  1 19  2  0  0  0  0
  2 15  1  6  0  0  0
  2 20  2  0  0  0  0
  2 23  1  0  0  0  0
  3 16  1  6  0  0  0
  3 21  2  0  0  0  0
  3 24  1  0  0  0  0
  3 25  1  0  0  0  0
  4  6  1  0  0  0  0
  5  4  1  0  0  0  0
  6  7  1  0  0  0  0
  6  8  2  0  0  0  0
  7 12  1  0  0  0  0
  8  9  1  0  0  0  0
  8 10  1  0  0  0  0
 10 11  1  0  0  0  0
 10 12  2  0  0  0  0
 12 32  1  0  0  0  0
 13 17  1  0  0  0  0
 17 18  1  1  0  0  0
 17 22  1  0  0  0  0
 23  1  1  0  0  0  0
 24  2  1  0  0  0  0
 26 22  1  1  0  0  0
 27 26  1  0  0  0  0
 27 28  1  0  0  0  0
 27 30  1  1  0  0  0
 28 13  1  0  0  0  0
 28 29  1  1  0  0  0
 31 30  1  0  0  0  0
 32 26  1  0  0  0  0
 32 31  1  0  0  0  0
M  CHG  3  14  -1  15  -1  16  -1
M  END
>  <CHROM.1>
53.37811104,-52.99510991,-172.03220441,159.52873060,161.01634239,-34.70922274
125.42454869,87.60486632,69.13365372,11.16646295,3.08572825,-0.02056676,0.43791005
1.94908191

>  <Name>
2au4_lig

>  <RI>
0

>  <Rbt.Current_Directory>
/home/itssahil/PROJECTS/Mol_Feturizer/New_Systems/rnas/2au4

>  <Rbt.Executable>
rbdock ($Id: //depot/dev/client3/rdock/2013.1/src/exe/rbdock.cxx#4 $)

>  <Rbt.Library>
libRbt.so (2013.1, Build901 2013/11/27)

>  <Rbt.Parameter_File>
/export/apps/rDock/src/rDock_2013.1_src/data/scripts/dock_solv.prm

>  <Rbt.Receptor>
prm/pocket_docking_7.prm

>  <SCORE>
-43.7515

>  <SCORE.INTER>
-20.6465

>  <SCORE.INTER.CONST>
1

>  <SCORE.INTER.POLAR>
-3.28293

>  <SCORE.INTER.ROT>
8

>  <SCORE.INTER.SOLV>
15.5208

>  <SCORE.INTER.VDW>
-16.9282

>  <SCORE.INTER.norm>
-0.645203

>  <SCORE.INTRA>
-23.105

>  <SCORE.INTRA.DIHEDRAL>
-45.777

>  <SCORE.INTRA.DIHEDRAL.0>
76.3625

>  <SCORE.INTRA.POLAR>
0

>  <SCORE.INTRA.POLAR.0>
0

>  <SCORE.INTRA.REPUL>
0.045192

>  <SCORE.INTRA.REPUL.0>
0.12705

>  <SCORE.INTRA.SOLV>
-5.76455

>  <SCORE.INTRA.SOLV.lig_0>
-119.383

>  <SCORE.INTRA.VDW>
2.43984

>  <SCORE.INTRA.VDW.0>
-5.10464

>  <SCORE.INTRA.norm>
-0.722031

>  <SCORE.RESTR>
0

>  <SCORE.RESTR.CAVITY>
0

>  <SCORE.RESTR.norm>
0

>  <SCORE.SYSTEM>
0

>  <SCORE.SYSTEM.CONST>
0

>  <SCORE.SYSTEM.DIHEDRAL>
0

>  <SCORE.SYSTEM.SOLV>
0

>  <SCORE.SYSTEM.norm>
0

>  <SCORE.heavy>
32

>  <SCORE.norm>
-1.36723

>  <RMSD>
7.355

$$$$
2au4_lig
 OpenBabel11021811423D
libRbt.so/2013.1/901 2013/11/27
 32 34  0  0  0  0  0  0  0  0999 V2000
   68.2420    7.2551    3.4664 P   0  0  1  0  0  0  0  0  0  0  0  0
   68.6961    7.2532    0.7899 P   0  0  1  0  0  0  0  0  0  0  0  0
   70.3869    5.1817    0.2507 P   0  0  2  0  0  0  0  0  0  0  0  0
   70.0786    8.8144    4.5736 C   0  0  0  0  0  0  0  0  0  0  0  0
   69.0893    7.7833    4.7283 O   0  0  0  0  0  0  0  0  0  0  0  0
   69.5299   10.1988    4.8860 C   0  0  0  0  0  0  0  0  0  0  0  0
   70.1309   11.1887    4.0262 O   0  0  0  0  0  0  0  0  0  0  0  0
   68.0238   10.2401    4.6802 C   0  0  0  0  0  0  0  0  0  0  0  0
   67.3451   10.5000    5.9150 O   0  0  0  0  0  0  0  0  0  0  0  0
   67.7583   11.3344    3.6740 C   0  0  0  0  0  0  0  0  0  0  0  0
   66.8926   12.3403    4.2171 O   0  0  0  0  0  0  0  0  0  0  0  0
   69.1117   11.9233    3.3156 C   0  0  0  0  0  0  0  0  0  0  0  0
   67.0143   12.3032   -1.3238 N   0  0  0  0  0  0  0  0  0  0  0  0
   68.0332    5.8007    3.6149 O   0  5  0  0  0  0  0  0  0  0  0  0
   67.6863    6.1779    0.8377 O   0  5  0  0  0  0  0  0  0  0  0  0
   70.3594    4.9151    1.7031 O   0  5  0  0  0  0  0  0  0  0  0  0
   66.4271   12.4325   -0.0876 C   0  0  1  0  0  0  0  0  0  0  0  0
   65.1259   12.6892   -0.0790 N   0  0  0  0  0  0  0  0  0  0  0  0
   67.0847    8.1531    3.2656 O   0  0  0  0  0  0  0  0  0  0  0  0
   68.3495    8.5707    0.2178 O   0  0  0  0  0  0  0  0  0  0  0  0
   71.6186    4.9254   -0.5247 O   0  0  0  0  0  0  0  0  0  0  0  0
   67.0860   12.3115    1.0621 N   0  0  0  0  0  0  0  0  0  0  0  0
   69.2478    7.4827    2.2594 O   0  0  0  0  0  0  0  0  0  0  0  0
   69.9744    6.7031    0.0229 O   0  0  0  0  0  0  0  0  0  0  0  0
   69.1758    4.3805   -0.4362 O   0  0  0  0  0  0  0  0  0  0  0  0
   68.3989   12.0459    0.8715 C   0  0  2  0  0  0  0  0  0  0  0  0
   69.0690   11.9007   -0.3326 C   0  0  2  0  0  0  0  0  0  0  0  0
   68.3524   12.0322   -1.5472 C   0  0  1  0  0  0  0  0  0  0  0  0
   68.7692   11.9132   -2.6916 O   0  0  0  0  0  0  0  0  0  0  0  0
   70.4245   11.6286   -0.1185 N   0  0  0  0  0  0  0  0  0  0  0  0
   70.4847   11.6263    1.1731 C   0  0  0  0  0  0  0  0  0  0  0  0
   69.3384   11.8632    1.8584 N   0  0  0  0  0  0  0  0  0  0  0  0
  1  5  1  1  0  0  0
  1 14  1  0  0  0  0
  1 19  2  0  0  0  0
  2 15  1  6  0  0  0
  2 20  2  0  0  0  0
  2 23  1  0  0  0  0
  3 16  1  1  0  0  0
  3 21  2  0  0  0  0
  3 24  1  0  0  0  0
  3 25  1  0  0  0  0
  4  6  1  0  0  0  0
  5  4  1  0  0  0  0
  6  7  1  0  0  0  0
  6  8  2  0  0  0  0
  7 12  1  0  0  0  0
  8  9  1  0  0  0  0
  8 10  1  0  0  0  0
 10 11  1  0  0  0  0
 10 12  2  0  0  0  0
 12 32  1  0  0  0  0
 13 17  1  0  0  0  0
 17 18  1  1  0  0  0
 17 22  1  0  0  0  0
 23  1  1  0  0  0  0
 24  2  1  0  0  0  0
 26 22  1  1  0  0  0
 27 26  1  0  0  0  0
 27 28  1  0  0  0  0
 27 30  1  1  0  0  0
 28 13  1  0  0  0  0
 28 29  1  1  0  0  0
 31 30  1  0  0  0  0
 32 26  1  0  0  0  0
 32 31  1  0  0  0  0
M  CHG  3  14  -1  15  -1  16  -1
M  END
>  <CHROM.1>
143.15804770,-32.76727241,-47.05370416,-145.03172159,95.31260273,157.21356044
-172.10787762,-36.82564034,68.72462663,9.07851398,1.66729913,0.30859333,-1.29189785
1.91278573

>  <Name>
2au4_lig

>  <RI>
0

>  <Rbt.Current_Directory>
/home/itssahil/PROJECTS/Mol_Feturizer/New_Systems/rnas/2au4

>  <Rbt.Executable>
rbdock ($Id: //depot/dev/client3/rdock/2013.1/src/exe/rbdock.cxx#4 $)

>  <Rbt.Library>
libRbt.so (2013.1, Build901 2013/11/27)

>  <Rbt.Parameter_File>
/export/apps/rDock/src/rDock_2013.1_src/data/scripts/dock_solv.prm

>  <Rbt.Receptor>
prm/pocket_docking_5.prm

>  <SCORE>
-36.8163

>  <SCORE.INTER>
-15.8148

>  <SCORE.INTER.CONST>
1

>  <SCORE.INTER.POLAR>
-1.17783

>  <SCORE.INTER.ROT>
8

>  <SCORE.INTER.SOLV>
30.4939

>  <SCORE.INTER.VDW>
-25.7151

>  <SCORE.INTER.norm>
-0.494214

>  <SCORE.INTRA>
-21.0014

>  <SCORE.INTRA.DIHEDRAL>
-42.7136

>  <SCORE.INTRA.DIHEDRAL.0>
76.3625

>  <SCORE.INTRA.POLAR>
0

>  <SCORE.INTRA.POLAR.0>
0

>  <SCORE.INTRA.REPUL>
-0.12705

>  <SCORE.INTRA.REPUL.0>
0.12705

>  <SCORE.INTRA.SOLV>
1.95571

>  <SCORE.INTRA.SOLV.lig_0>
-119.383

>  <SCORE.INTRA.VDW>
0.0128029

>  <SCORE.INTRA.VDW.0>
-5.10464

>  <SCORE.INTRA.norm>
-0.656294

>  <SCORE.RESTR>
0

>  <SCORE.RESTR.CAVITY>
0

>  <SCORE.RESTR.norm>
0

>  <SCORE.SYSTEM>
0

>  <SCORE.SYSTEM.CONST>
0

>  <SCORE.SYSTEM.DIHEDRAL>
0

>  <SCORE.SYSTEM.SOLV>
0

>  <SCORE.SYSTEM.norm>
0

>  <SCORE.heavy>
32

>  <SCORE.norm>
-1.15051

>  <RMSD>
7.356

$$$$
2au4_lig
 OpenBabel11021811423D
libRbt.so/2013.1/901 2013/11/27
 32 34  0  0  0  0  0  0  0  0999 V2000
   66.8292    8.8425    0.4325 P   0  0  1  0  0  0  0  0  0  0  0  0
   68.9074    7.1150    0.1750 P   0  0  1  0  0  0  0  0  0  0  0  0
   68.8465    4.8774   -1.3838 P   0  0  2  0  0  0  0  0  0  0  0  0
   68.0938   11.0926    1.0395 C   0  0  0  0  0  0  0  0  0  0  0  0
   68.1552    9.7485    0.5341 O   0  0  0  0  0  0  0  0  0  0  0  0
   69.4640   11.6346    1.4192 C   0  0  0  0  0  0  0  0  0  0  0  0
   69.4576   12.1254    2.7754 O   0  0  0  0  0  0  0  0  0  0  0  0
   70.5220   10.5476    1.3108 C   0  0  0  0  0  0  0  0  0  0  0  0
   71.4885   10.8722    0.3041 O   0  0  0  0  0  0  0  0  0  0  0  0
   71.1694   10.4422    2.6710 C   0  0  0  0  0  0  0  0  0  0  0  0
   72.5801   10.6879    2.5951 O   0  0  0  0  0  0  0  0  0  0  0  0
   70.4879   11.4764    3.5503 C   0  0  0  0  0  0  0  0  0  0  0  0
   67.1337   11.8881    7.3773 N   0  0  0  0  0  0  0  0  0  0  0  0
   66.3240    8.5925    1.7974 O   0  5  0  0  0  0  0  0  0  0  0  0
   69.7446    7.6583   -0.9123 O   0  5  0  0  0  0  0  0  0  0  0  0
   67.9363    5.6981   -2.2079 O   0  5  0  0  0  0  0  0  0  0  0  0
   67.4001   12.7650    6.3527 C   0  0  1  0  0  0  0  0  0  0  0  0
   66.6961   13.8889    6.3428 N   0  0  0  0  0  0  0  0  0  0  0  0
   65.9371    9.4247   -0.5929 O   0  0  0  0  0  0  0  0  0  0  0  0
   69.1864    7.4814    1.5791 O   0  0  0  0  0  0  0  0  0  0  0  0
   68.5922    3.4310   -1.2184 O   0  0  0  0  0  0  0  0  0  0  0  0
   68.3066   12.5428    5.4042 N   0  0  0  0  0  0  0  0  0  0  0  0
   67.3938    7.4724   -0.1372 O   0  0  0  0  0  0  0  0  0  0  0  0
   68.9174    5.5296    0.0675 O   0  0  0  0  0  0  0  0  0  0  0  0
   70.3438    5.0724   -1.9324 O   0  0  0  0  0  0  0  0  0  0  0  0
   68.9344   11.3554    5.5674 C   0  0  2  0  0  0  0  0  0  0  0  0
   68.7282   10.4168    6.5655 C   0  0  2  0  0  0  0  0  0  0  0  0
   67.7596   10.6693    7.5677 C   0  0  1  0  0  0  0  0  0  0  0  0
   67.4629    9.9734    8.5296 O   0  0  0  0  0  0  0  0  0  0  0  0
   69.5729    9.3148    6.3952 N   0  0  0  0  0  0  0  0  0  0  0  0
   70.2216    9.6515    5.3285 C   0  0  0  0  0  0  0  0  0  0  0  0
   69.9200   10.8439    4.7568 N   0  0  0  0  0  0  0  0  0  0  0  0
  1  5  1  1  0  0  0
  1 14  1  0  0  0  0
  1 19  2  0  0  0  0
  2 15  1  6  0  0  0
  2 20  2  0  0  0  0
  2 23  1  0  0  0  0
  3 16  1  6  0  0  0
  3 21  2  0  0  0  0
  3 24  1  0  0  0  0
  3 25  1  0  0  0  0
  4  6  1  0  0  0  0
  5  4  1  0  0  0  0
  6  7  1  0  0  0  0
  6  8  2  0  0  0  0
  7 12  1  0  0  0  0
  8  9  1  0  0  0  0
  8 10  1  0  0  0  0
 10 11  1  0  0  0  0
 10 12  2  0  0  0  0
 12 32  1  0  0  0  0
 13 17  1  0  0  0  0
 17 18  1  1  0  0  0
 17 22  1  0  0  0  0
 23  1  1  0  0  0  0
 24  2  1  0  0  0  0
 26 22  1  1  0  0  0
 27 26  1  0  0  0  0
 27 28  1  0  0  0  0
 27 30  1  1  0  0  0
 28 13  1  0  0  0  0
 28 29  1  1  0  0  0
 31 30  1  0  0  0  0
 32 26  1  0  0  0  0
 32 31  1  0  0  0  0
M  CHG  3  14  -1  15  -1  16  -1
M  END
>  <CHROM.1>
-64.89819785,-90.22262851,-37.58615977,-126.50394067,163.94978406,-39.66506245
26.91468819,-39.91599772,68.74585039,9.11214256,2.16441743,1.53646404,-0.67197091
-2.25355270

>  <Name>
2au4_lig

>  <RI>
0

>  <Rbt.Current_Directory>
/home/itssahil/PROJECTS/Mol_Feturizer/New_Systems/rnas/2au4

>  <Rbt.Executable>
rbdock ($Id: //depot/dev/client3/rdock/2013.1/src/exe/rbdock.cxx#4 $)

>  <Rbt.Library>
libRbt.so (2013.1, Build901 2013/11/27)

>  <Rbt.Parameter_File>
/export/apps/rDock/src/rDock_2013.1_src/data/scripts/dock_solv.prm

>  <Rbt.Receptor>
prm/pocket_docking_6.prm

>  <SCORE>
-33.5278

>  <SCORE.INTER>
-10.2518

>  <SCORE.INTER.CONST>
1

>  <SCORE.INTER.POLAR>
-1.77052

>  <SCORE.INTER.ROT>
8

>  <SCORE.INTER.SOLV>
23.2663

>  <SCORE.INTER.VDW>
-17.6215

>  <SCORE.INTER.norm>
-0.320368

>  <SCORE.INTRA>
-23.276

>  <SCORE.INTRA.DIHEDRAL>
-45.7805

>  <SCORE.INTRA.DIHEDRAL.0>
76.3625

>  <SCORE.INTRA.POLAR>
0

>  <SCORE.INTRA.POLAR.0>
0

>  <SCORE.INTRA.REPUL>
0.0175007

>  <SCORE.INTRA.REPUL.0>
0.12705

>  <SCORE.INTRA.SOLV>
-4.44194

>  <SCORE.INTRA.SOLV.lig_0>
-119.383

>  <SCORE.INTRA.VDW>
1.74773

>  <SCORE.INTRA.VDW.0>
-5.10464

>  <SCORE.INTRA.norm>
-0.727374

>  <SCORE.RESTR>
0

>  <SCORE.RESTR.CAVITY>
0

>  <SCORE.RESTR.norm>
0

>  <SCORE.SYSTEM>
0

>  <SCORE.SYSTEM.CONST>
0

>  <SCORE.SYSTEM.DIHEDRAL>
0

>  <SCORE.SYSTEM.SOLV>
0

>  <SCORE.SYSTEM.norm>
0

>  <SCORE.heavy>
32

>  <SCORE.norm>
-1.04774

>  <RMSD>
7.356

$$$$
2au4_lig
 OpenBabel11021811423D
libRbt.so/2013.1/901 2013/11/27
 32 34  0  0  0  0  0  0  0  0999 V2000
   71.5405   14.0693    2.3770 P   0  0  1  0  0  0  0  0  0  0  0  0
   72.4611   12.2560    4.1753 P   0  0  1  0  0  0  0  0  0  0  0  0
   70.3923   10.5053    3.8658 P   0  0  2  0  0  0  0  0  0  0  0  0
   69.7085   13.0058    0.7822 C   0  0  0  0  0  0  0  0  0  0  0  0
   70.9661   12.8741    1.4654 O   0  0  0  0  0  0  0  0  0  0  0  0
   69.3258   11.7458    0.0197 C   0  0  0  0  0  0  0  0  0  0  0  0
   68.8538   10.7279    0.9259 O   0  0  0  0  0  0  0  0  0  0  0  0
   68.2222   12.0387   -0.9847 C   0  0  0  0  0  0  0  0  0  0  0  0
   68.6797   11.8239   -2.3254 O   0  0  0  0  0  0  0  0  0  0  0  0
   67.0780   11.1130   -0.6467 C   0  0  0  0  0  0  0  0  0  0  0  0
   66.7474   10.2689   -1.7577 O   0  0  0  0  0  0  0  0  0  0  0  0
   67.5343   10.2857    0.5427 C   0  0  0  0  0  0  0  0  0  0  0  0
   62.7588   11.4108    1.9552 N   0  0  0  0  0  0  0  0  0  0  0  0
   72.9628   14.2778    2.0388 O   0  5  0  0  0  0  0  0  0  0  0  0
   73.7729   12.5564    3.5695 O   0  5  0  0  0  0  0  0  0  0  0  0
   69.4150   11.5989    3.6921 O   0  5  0  0  0  0  0  0  0  0  0  0
   63.3166   11.3970    0.6989 C   0  0  1  0  0  0  0  0  0  0  0  0
   62.5137   11.7250   -0.3045 N   0  0  0  0  0  0  0  0  0  0  0  0
   70.5920   15.2022    2.3225 O   0  0  0  0  0  0  0  0  0  0  0  0
   72.3603   11.9711    5.6218 O   0  0  0  0  0  0  0  0  0  0  0  0
   70.5678    9.8742    5.1905 O   0  0  0  0  0  0  0  0  0  0  0  0
   64.5865   11.0824    0.4554 N   0  0  0  0  0  0  0  0  0  0  0  0
   71.4722   13.4493    3.8369 O   0  0  0  0  0  0  0  0  0  0  0  0
   71.8149   11.0373    3.3863 O   0  0  0  0  0  0  0  0  0  0  0  0
   70.0649    9.3556    2.7927 O   0  0  0  0  0  0  0  0  0  0  0  0
   65.2625   10.7794    1.5876 C   0  0  2  0  0  0  0  0  0  0  0  0
   64.7801   10.7680    2.8864 C   0  0  2  0  0  0  0  0  0  0  0  0
   63.4260   11.1058    3.1280 C   0  0  1  0  0  0  0  0  0  0  0  0
   62.8395   11.1724    4.2000 O   0  0  0  0  0  0  0  0  0  0  0  0
   65.7857   10.4033    3.7880 N   0  0  0  0  0  0  0  0  0  0  0  0
   66.7895   10.2225    2.9931 C   0  0  0  0  0  0  0  0  0  0  0  0
   66.5870   10.4194    1.6665 N   0  0  0  0  0  0  0  0  0  0  0  0
  1  5  1  6  0  0  0
  1 14  1  0  0  0  0
  1 19  2  0  0  0  0
  2 15  1  6  0  0  0
  2 20  2  0  0  0  0
  2 23  1  0  0  0  0
  3 16  1  1  0  0  0
  3 21  2  0  0  0  0
  3 24  1  0  0  0  0
  3 25  1  0  0  0  0
  4  6  1  0  0  0  0
  5  4  1  0  0  0  0
  6  7  1  0  0  0  0
  6  8  2  0  0  0  0
  7 12  1  0  0  0  0
  8  9  1  0  0  0  0
  8 10  1  0  0  0  0
 10 11  1  0  0  0  0
 10 12  2  0  0  0  0
 12 32  1  0  0  0  0
 13 17  1  0  0  0  0
 17 18  1  1  0  0  0
 17 22  1  0  0  0  0
 23  1  1  0  0  0  0
 24  2  1  0  0  0  0
 26 22  1  1  0  0  0
 27 26  1  0  0  0  0
 27 28  1  0  0  0  0
 27 30  1  1  0  0  0
 28 13  1  0  0  0  0
 28 29  1  1  0  0  0
 31 30  1  0  0  0  0
 32 26  1  0  0  0  0
 32 31  1  0  0  0  0
M  CHG  3  14  -1  15  -1  16  -1
M  END
>  <CHROM.1>
-133.24273156,40.46367041,62.69641560,75.84524920,-177.85163453,143.56460154
68.64051328,179.17789552,68.67872587,11.67236462,2.20551412,-0.20922388,-0.26491754
-1.31029433

>  <Name>
2au4_lig

>  <RI>
0

>  <Rbt.Current_Directory>
/home/itssahil/PROJECTS/Mol_Feturizer/New_Systems/rnas/2au4

>  <Rbt.Executable>
rbdock ($Id: //depot/dev/client3/rdock/2013.1/src/exe/rbdock.cxx#4 $)

>  <Rbt.Library>
libRbt.so (2013.1, Build901 2013/11/27)

>  <Rbt.Parameter_File>
/export/apps/rDock/src/rDock_2013.1_src/data/scripts/dock_solv.prm

>  <Rbt.Receptor>
prm/pocket_docking_6.prm

>  <SCORE>
-45.2245

>  <SCORE.INTER>
-21.2399

>  <SCORE.INTER.CONST>
1

>  <SCORE.INTER.POLAR>
-3.98112

>  <SCORE.INTER.ROT>
8

>  <SCORE.INTER.SOLV>
19.6293

>  <SCORE.INTER.VDW>
-16.366

>  <SCORE.INTER.norm>
-0.663748

>  <SCORE.INTRA>
-24.0043

>  <SCORE.INTRA.DIHEDRAL>
-47.5479

>  <SCORE.INTRA.DIHEDRAL.0>
76.3625

>  <SCORE.INTRA.POLAR>
0

>  <SCORE.INTRA.POLAR.0>
0

>  <SCORE.INTRA.REPUL>
-0.12705

>  <SCORE.INTRA.REPUL.0>
0.12705

>  <SCORE.INTRA.SOLV>
0.32242

>  <SCORE.INTRA.SOLV.lig_0>
-119.383

>  <SCORE.INTRA.VDW>
0.243684

>  <SCORE.INTRA.VDW.0>
-5.10464

>  <SCORE.INTRA.norm>
-0.750135

>  <SCORE.RESTR>
0.0197902

>  <SCORE.RESTR.CAVITY>
0.0197902

>  <SCORE.RESTR.norm>
0.000618443

>  <SCORE.SYSTEM>
0

>  <SCORE.SYSTEM.CONST>
0

>  <SCORE.SYSTEM.DIHEDRAL>
0

>  <SCORE.SYSTEM.SOLV>
0

>  <SCORE.SYSTEM.norm>
0

>  <SCORE.heavy>
32

>  <SCORE.norm>
-1.41326

>  <RMSD>
7.365

$$$$
2au4_lig
 OpenBabel11021811423D
libRbt.so/2013.1/901 2013/11/27
 32 34  0  0  0  0  0  0  0  0999 V2000
   68.7977    8.7447    1.3102 P   0  0  1  0  0  0  0  0  0  0  0  0
   69.0144    6.1006    0.7345 P   0  0  1  0  0  0  0  0  0  0  0  0
   69.3445    5.4931   -1.9041 P   0  0  2  0  0  0  0  0  0  0  0  0
   70.6941   10.3482    0.3811 C   0  0  0  0  0  0  0  0  0  0  0  0
   69.2934   10.0708    0.5452 O   0  0  0  0  0  0  0  0  0  0  0  0
   71.2567   11.1930    1.5147 C   0  0  0  0  0  0  0  0  0  0  0  0
   70.1905   11.8067    2.2677 O   0  0  0  0  0  0  0  0  0  0  0  0
   72.0808   10.3387    2.4652 C   0  0  0  0  0  0  0  0  0  0  0  0
   73.4534   10.7497    2.4639 O   0  0  0  0  0  0  0  0  0  0  0  0
   71.4657   10.5050    3.8342 C   0  0  0  0  0  0  0  0  0  0  0  0
   72.4184   11.0234    4.7721 O   0  0  0  0  0  0  0  0  0  0  0  0
   70.2986   11.4624    3.6652 C   0  0  0  0  0  0  0  0  0  0  0  0
   65.2153   11.2738    3.2289 N   0  0  0  0  0  0  0  0  0  0  0  0
   69.6841    8.5097    2.4677 O   0  5  0  0  0  0  0  0  0  0  0  0
   70.3884    5.6494    1.0286 O   0  5  0  0  0  0  0  0  0  0  0  0
   70.7498    5.1506   -1.6054 O   0  5  0  0  0  0  0  0  0  0  0  0
   66.1228   12.0375    2.5340 C   0  0  1  0  0  0  0  0  0  0  0  0
   65.6232   12.8532    1.6152 N   0  0  0  0  0  0  0  0  0  0  0  0
   67.3342    8.8300    1.5028 O   0  0  0  0  0  0  0  0  0  0  0  0
   67.9642    6.0020    1.7694 O   0  0  0  0  0  0  0  0  0  0  0  0
   69.0130    6.8075   -2.4928 O   0  0  0  0  0  0  0  0  0  0  0  0
   67.4368   11.9969    2.7397 N   0  0  0  0  0  0  0  0  0  0  0  0
   69.0807    7.6065    0.2403 O   0  0  0  0  0  0  0  0  0  0  0  0
   68.5042    5.3341   -0.5606 O   0  0  0  0  0  0  0  0  0  0  0  0
   68.7299    4.3440   -2.8435 O   0  0  0  0  0  0  0  0  0  0  0  0
   67.7736   11.1181    3.7118 C   0  0  2  0  0  0  0  0  0  0  0  0
   66.9279   10.3130    4.4577 C   0  0  2  0  0  0  0  0  0  0  0  0
   65.5316   10.3689    4.2262 C   0  0  1  0  0  0  0  0  0  0  0  0
   64.6416    9.7554    4.7998 O   0  0  0  0  0  0  0  0  0  0  0  0
   67.6532    9.5390    5.3698 N   0  0  0  0  0  0  0  0  0  0  0  0
   68.8642    9.9186    5.1222 C   0  0  0  0  0  0  0  0  0  0  0  0
   69.0473   10.8527    4.1559 N   0  0  0  0  0  0  0  0  0  0  0  0
  1  5  1  6  0  0  0
  1 14  1  0  0  0  0
  1 19  2  0  0  0  0
  2 15  1  1  0  0  0
  2 20  2  0  0  0  0
  2 23  1  0  0  0  0
  3 16  1  1  0  0  0
  3 21  2  0  0  0  0
  3 24  1  0  0  0  0
  3 25  1  0  0  0  0
  4  6  1  0  0  0  0
  5  4  1  0  0  0  0
  6  7  1  0  0  0  0
  6  8  2  0  0  0  0
  7 12  1  0  0  0  0
  8  9  1  0  0  0  0
  8 10  1  0  0  0  0
 10 11  1  0  0  0  0
 10 12  2  0  0  0  0
 12 32  1  0  0  0  0
 13 17  1  0  0  0  0
 17 18  1  1  0  0  0
 17 22  1  0  0  0  0
 23  1  1  0  0  0  0
 24  2  1  0  0  0  0
 26 22  1  1  0  0  0
 27 26  1  0  0  0  0
 27 28  1  0  0  0  0
 27 30  1  1  0  0  0
 28 13  1  0  0  0  0
 28 29  1  1  0  0  0
 31 30  1  0  0  0  0
 32 26  1  0  0  0  0
 32 31  1  0  0  0  0
M  CHG  3  14  -1  15  -1  16  -1
M  END
>  <CHROM.1>
39.39662681,-97.21666703,53.17370214,-15.75202585,-91.50950975,-30.95760691
167.06629297,-58.32422935,68.91691243,8.90119112,1.71439259,1.39764459,-0.10268318
-2.42856825

>  <Name>
2au4_lig

>  <RI>
0

>  <Rbt.Current_Directory>
/home/itssahil/PROJECTS/Mol_Feturizer/New_Systems/rnas/2au4

>  <Rbt.Executable>
rbdock ($Id: //depot/dev/client3/rdock/2013.1/src/exe/rbdock.cxx#4 $)

>  <Rbt.Library>
libRbt.so (2013.1, Build901 2013/11/27)

>  <Rbt.Parameter_File>
/export/apps/rDock/src/rDock_2013.1_src/data/scripts/dock_solv.prm

>  <Rbt.Receptor>
prm/pocket_docking_5.prm

>  <SCORE>
-33.1339

>  <SCORE.INTER>
-12.1634

>  <SCORE.INTER.CONST>
1

>  <SCORE.INTER.POLAR>
-0.996535

>  <SCORE.INTER.ROT>
8

>  <SCORE.INTER.SOLV>
23.5643

>  <SCORE.INTER.VDW>
-21.5752

>  <SCORE.INTER.norm>
-0.380106

>  <SCORE.INTRA>
-20.9705

>  <SCORE.INTRA.DIHEDRAL>
-45.2965

>  <SCORE.INTRA.DIHEDRAL.0>
76.3625

>  <SCORE.INTRA.POLAR>
0

>  <SCORE.INTRA.POLAR.0>
0

>  <SCORE.INTRA.REPUL>
0.0608586

>  <SCORE.INTRA.REPUL.0>
0.12705

>  <SCORE.INTRA.SOLV>
6.79613

>  <SCORE.INTRA.SOLV.lig_0>
-119.383

>  <SCORE.INTRA.VDW>
-2.0246

>  <SCORE.INTRA.VDW.0>
-5.10464

>  <SCORE.INTRA.norm>
-0.655327

>  <SCORE.RESTR>
0

>  <SCORE.RESTR.CAVITY>
0

>  <SCORE.RESTR.norm>
0

>  <SCORE.SYSTEM>
0

>  <SCORE.SYSTEM.CONST>
0

>  <SCORE.SYSTEM.DIHEDRAL>
0

>  <SCORE.SYSTEM.SOLV>
0

>  <SCORE.SYSTEM.norm>
0

>  <SCORE.heavy>
32

>  <SCORE.norm>
-1.03543

>  <RMSD>
7.374

$$$$
2au4_lig
 OpenBabel11021811423D
libRbt.so/2013.1/901 2013/11/27
 32 34  0  0  0  0  0  0  0  0999 V2000
   66.3117    8.7314    0.1708 P   0  0  1  0  0  0  0  0  0  0  0  0
   66.6397    6.8771   -1.7846 P   0  0  1  0  0  0  0  0  0  0  0  0
   68.5567    4.9785   -1.3830 P   0  0  2  0  0  0  0  0  0  0  0  0
   66.7182    9.3655    2.7131 C   0  0  0  0  0  0  0  0  0  0  0  0
   67.2521    9.2024    1.3887 O   0  0  0  0  0  0  0  0  0  0  0  0
   65.9580   10.6734    2.8770 C   0  0  0  0  0  0  0  0  0  0  0  0
   66.7704   11.7886    2.4566 O   0  0  0  0  0  0  0  0  0  0  0  0
   64.6882   10.6667    2.0403 C   0  0  0  0  0  0  0  0  0  0  0  0
   63.5253   10.7410    2.8739 O   0  0  0  0  0  0  0  0  0  0  0  0
   64.7742   11.8613    1.1206 C   0  0  0  0  0  0  0  0  0  0  0  0
   63.6670   12.7504    1.3195 O   0  0  0  0  0  0  0  0  0  0  0  0
   66.0873   12.5542    1.4414 C   0  0  0  0  0  0  0  0  0  0  0  0
   70.8217   12.9181   -0.4347 N   0  0  0  0  0  0  0  0  0  0  0  0
   65.0100    8.3017    0.7199 O   0  5  0  0  0  0  0  0  0  0  0  0
   65.1713    6.9712   -1.8983 O   0  5  0  0  0  0  0  0  0  0  0  0
   68.8847    5.4639   -0.0273 O   0  5  0  0  0  0  0  0  0  0  0  0
   70.4071   12.8039    0.8710 C   0  0  1  0  0  0  0  0  0  0  0  0
   71.3616   12.7884    1.7916 N   0  0  0  0  0  0  0  0  0  0  0  0
   66.3652    9.7586   -0.8914 O   0  0  0  0  0  0  0  0  0  0  0  0
   67.5041    7.5041   -2.8060 O   0  0  0  0  0  0  0  0  0  0  0  0
   69.3614    5.4201   -2.5412 O   0  0  0  0  0  0  0  0  0  0  0  0
   69.1312   12.7146    1.2381 N   0  0  0  0  0  0  0  0  0  0  0  0
   67.0654    7.4407   -0.3641 O   0  0  0  0  0  0  0  0  0  0  0  0
   67.0345    5.3414   -1.6795 O   0  0  0  0  0  0  0  0  0  0  0  0
   68.5385    3.3724   -1.3574 O   0  0  0  0  0  0  0  0  0  0  0  0
   68.2920   12.7505    0.1774 C   0  0  2  0  0  0  0  0  0  0  0  0
   68.6234   12.8629   -1.1632 C   0  0  2  0  0  0  0  0  0  0  0  0
   69.9864   12.9573   -1.5367 C   0  0  1  0  0  0  0  0  0  0  0  0
   70.4594   13.0854   -2.6580 O   0  0  0  0  0  0  0  0  0  0  0  0
   67.4747   12.8665   -1.9617 N   0  0  0  0  0  0  0  0  0  0  0  0
   66.5432   12.7592   -1.0713 C   0  0  0  0  0  0  0  0  0  0  0  0
   66.9198   12.6832    0.2295 N   0  0  0  0  0  0  0  0  0  0  0  0
  1  5  1  1  0  0  0
  1 14  1  0  0  0  0
  1 19  2  0  0  0  0
  2 15  1  6  0  0  0
  2 20  2  0  0  0  0
  2 23  1  0  0  0  0
  3 16  1  1  0  0  0
  3 21  2  0  0  0  0
  3 24  1  0  0  0  0
  3 25  1  0  0  0  0
  4  6  1  0  0  0  0
  5  4  1  0  0  0  0
  6  7  1  0  0  0  0
  6  8  2  0  0  0  0
  7 12  1  0  0  0  0
  8  9  1  0  0  0  0
  8 10  1  0  0  0  0
 10 11  1  0  0  0  0
 10 12  2  0  0  0  0
 12 32  1  0  0  0  0
 13 17  1  0  0  0  0
 17 18  1  1  0  0  0
 17 22  1  0  0  0  0
 23  1  1  0  0  0  0
 24  2  1  0  0  0  0
 26 22  1  1  0  0  0
 27 26  1  0  0  0  0
 27 28  1  0  0  0  0
 27 30  1  1  0  0  0
 28 13  1  0  0  0  0
 28 29  1  1  0  0  0
 31 30  1  0  0  0  0
 32 26  1  0  0  0  0
 32 31  1  0  0  0  0
M  CHG  3  14  -1  15  -1  16  -1
M  END
>  <CHROM.1>
-10.03042494,-40.14555007,65.62009307,-52.66148694,-78.70636795,-32.20789846
-165.70993402,-173.26688580,67.34232291,9.58345358,-0.14911150,1.56811931
-0.49867083,-2.86253150

>  <Name>
2au4_lig

>  <RI>
0

>  <Rbt.Current_Directory>
/home/itssahil/PROJECTS/Mol_Feturizer/New_Systems/rnas/2au4

>  <Rbt.Executable>
rbdock ($Id: //depot/dev/client3/rdock/2013.1/src/exe/rbdock.cxx#4 $)

>  <Rbt.Library>
libRbt.so (2013.1, Build901 2013/11/27)

>  <Rbt.Parameter_File>
/export/apps/rDock/src/rDock_2013.1_src/data/scripts/dock_solv.prm

>  <Rbt.Receptor>
prm/pocket_docking_4.prm

>  <SCORE>
-31.2175

>  <SCORE.INTER>
-9.82721

>  <SCORE.INTER.CONST>
1

>  <SCORE.INTER.POLAR>
-0.635908

>  <SCORE.INTER.ROT>
8

>  <SCORE.INTER.SOLV>
20.7409

>  <SCORE.INTER.VDW>
-20.2788

>  <SCORE.INTER.norm>
-0.3071

>  <SCORE.INTRA>
-21.3969

>  <SCORE.INTRA.DIHEDRAL>
-45.7121

>  <SCORE.INTRA.DIHEDRAL.0>
76.3625

>  <SCORE.INTRA.POLAR>
0

>  <SCORE.INTRA.POLAR.0>
0

>  <SCORE.INTRA.REPUL>
0.0562788

>  <SCORE.INTRA.REPUL.0>
0.12705

>  <SCORE.INTRA.SOLV>
3.11311

>  <SCORE.INTRA.SOLV.lig_0>
-119.383

>  <SCORE.INTRA.VDW>
-0.378746

>  <SCORE.INTRA.VDW.0>
-5.10464

>  <SCORE.INTRA.norm>
-0.668652

>  <SCORE.RESTR>
0.00658798

>  <SCORE.RESTR.CAVITY>
0.00658798

>  <SCORE.RESTR.norm>
0.000205875

>  <SCORE.SYSTEM>
0

>  <SCORE.SYSTEM.CONST>
0

>  <SCORE.SYSTEM.DIHEDRAL>
0

>  <SCORE.SYSTEM.SOLV>
0

>  <SCORE.SYSTEM.norm>
0

>  <SCORE.heavy>
32

>  <SCORE.norm>
-0.975546

>  <RMSD>
7.383

$$$$
2au4_lig
 OpenBabel11021811423D
libRbt.so/2013.1/901 2013/11/27
 32 34  0  0  0  0  0  0  0  0999 V2000
   65.5417    7.0265    0.2770 P   0  0  1  0  0  0  0  0  0  0  0  0
   65.6669    7.2434   -2.4261 P   0  0  1  0  0  0  0  0  0  0  0  0
   67.6779    6.0310   -3.8142 P   0  0  2  0  0  0  0  0  0  0  0  0
   67.5818    8.0861    1.5983 C   0  0  0  0  0  0  0  0  0  0  0  0
   66.6521    7.0013    1.4414 O   0  0  0  0  0  0  0  0  0  0  0  0
   68.2961    8.0507    2.9414 C   0  0  0  0  0  0  0  0  0  0  0  0
   69.7001    8.3373    2.7772 O   0  0  0  0  0  0  0  0  0  0  0  0
   67.7073    9.0815    3.8917 C   0  0  0  0  0  0  0  0  0  0  0  0
   67.1062    8.4469    5.0270 O   0  0  0  0  0  0  0  0  0  0  0  0
   68.8473    9.9784    4.3115 C   0  0  0  0  0  0  0  0  0  0  0  0
   69.0229    9.9634    5.7346 O   0  0  0  0  0  0  0  0  0  0  0  0
   70.0868    9.4515    3.6092 C   0  0  0  0  0  0  0  0  0  0  0  0
   71.1700   14.4279    3.2497 N   0  0  0  0  0  0  0  0  0  0  0  0
   64.8650    5.7143    0.2433 O   0  5  0  0  0  0  0  0  0  0  0  0
   64.9705    5.9628   -2.6568 O   0  5  0  0  0  0  0  0  0  0  0  0
   67.9872    5.3397   -2.5463 O   0  5  0  0  0  0  0  0  0  0  0  0
   70.4969   13.7508    4.2387 C   0  0  1  0  0  0  0  0  0  0  0  0
   70.0532   14.4806    5.2534 N   0  0  0  0  0  0  0  0  0  0  0  0
   64.7476    8.2667    0.4087 O   0  0  0  0  0  0  0  0  0  0  0  0
   64.9126    8.5136   -2.4571 O   0  0  0  0  0  0  0  0  0  0  0  0
   68.7689    6.4010   -4.7398 O   0  0  0  0  0  0  0  0  0  0  0  0
   70.2761   12.4387    4.2200 N   0  0  0  0  0  0  0  0  0  0  0  0
   66.4254    7.1533   -1.0357 O   0  0  0  0  0  0  0  0  0  0  0  0
   66.8635    7.3547   -3.4658 O   0  0  0  0  0  0  0  0  0  0  0  0
   66.5999    5.1549   -4.6210 O   0  0  0  0  0  0  0  0  0  0  0  0
   70.7901   11.8511    3.1150 C   0  0  2  0  0  0  0  0  0  0  0  0
   71.4789   12.4550    2.0755 C   0  0  2  0  0  0  0  0  0  0  0  0
   71.7050   13.8528    2.1109 C   0  0  1  0  0  0  0  0  0  0  0  0
   72.2663   14.5527    1.2787 O   0  0  0  0  0  0  0  0  0  0  0  0
   71.8501   11.5129    1.1102 N   0  0  0  0  0  0  0  0  0  0  0  0
   71.3713   10.4240    1.6173 C   0  0  0  0  0  0  0  0  0  0  0  0
   70.7230   10.5133    2.8053 N   0  0  0  0  0  0  0  0  0  0  0  0
  1  5  1  1  0  0  0
  1 14  1  0  0  0  0
  1 19  2  0  0  0  0
  2 15  1  6  0  0  0
  2 20  2  0  0  0  0
  2 23  1  0  0  0  0
  3 16  1  1  0  0  0
  3 21  2  0  0  0  0
  3 24  1  0  0  0  0
  3 25  1  0  0  0  0
  4  6  1  0  0  0  0
  5  4  1  0  0  0  0
  6  7  1  0  0  0  0
  6  8  2  0  0  0  0
  7 12  1  0  0  0  0
  8  9  1  0  0  0  0
  8 10  1  0  0  0  0
 10 11  1  0  0  0  0
 10 12  2  0  0  0  0
 12 32  1  0  0  0  0
 13 17  1  0  0  0  0
 17 18  1  6  0  0  0
 17 22  1  0  0  0  0
 23  1  1  0  0  0  0
 24  2  1  0  0  0  0
 26 22  1  6  0  0  0
 27 26  1  0  0  0  0
 27 28  1  0  0  0  0
 27 30  1  6  0  0  0
 28 13  1  0  0  0  0
 28 29  1  6  0  0  0
 31 30  1  0  0  0  0
 32 26  1  0  0  0  0
 32 31  1  0  0  0  0
M  CHG  3  14  -1  15  -1  16  -1
M  END
>  <CHROM.1>
172.21898384,-65.58396045,-46.15290331,137.01462467,165.21883889,155.40272027
-178.62425562,-37.88371419,68.19412852,8.97183924,0.67384382,2.23981174,-0.75848973
-1.84654331

>  <Name>
2au4_lig

>  <RI>
0

>  <Rbt.Current_Directory>
/home/itssahil/PROJECTS/Mol_Feturizer/New_Systems/rnas/2au4

>  <Rbt.Executable>
rbdock ($Id: //depot/dev/client3/rdock/2013.1/src/exe/rbdock.cxx#4 $)

>  <Rbt.Library>
libRbt.so (2013.1, Build901 2013/11/27)

>  <Rbt.Parameter_File>
/export/apps/rDock/src/rDock_2013.1_src/data/scripts/dock_solv.prm

>  <Rbt.Receptor>
prm/pocket_docking_6.prm

>  <SCORE>
-43.0569

>  <SCORE.INTER>
-16.1072

>  <SCORE.INTER.CONST>
1

>  <SCORE.INTER.POLAR>
-0.8

>  <SCORE.INTER.ROT>
8

>  <SCORE.INTER.SOLV>
32.5313

>  <SCORE.INTER.VDW>
-27.8486

>  <SCORE.INTER.norm>
-0.503351

>  <SCORE.INTRA>
-26.9496

>  <SCORE.INTRA.DIHEDRAL>
-49.3555

>  <SCORE.INTRA.DIHEDRAL.0>
76.3625

>  <SCORE.INTRA.POLAR>
0

>  <SCORE.INTRA.POLAR.0>
0

>  <SCORE.INTRA.REPUL>
-0.12705

>  <SCORE.INTRA.REPUL.0>
0.12705

>  <SCORE.INTRA.SOLV>
-5.81113

>  <SCORE.INTRA.SOLV.lig_0>
-119.383

>  <SCORE.INTRA.VDW>
1.2689

>  <SCORE.INTRA.VDW.0>
-5.10464

>  <SCORE.INTRA.norm>
-0.842176

>  <SCORE.RESTR>
0

>  <SCORE.RESTR.CAVITY>
0

>  <SCORE.RESTR.norm>
0

>  <SCORE.SYSTEM>
0

>  <SCORE.SYSTEM.CONST>
0

>  <SCORE.SYSTEM.DIHEDRAL>
0

>  <SCORE.SYSTEM.SOLV>
0

>  <SCORE.SYSTEM.norm>
0

>  <SCORE.heavy>
32

>  <SCORE.norm>
-1.34553

>  <RMSD>
7.391

$$$$
2au4_lig
 OpenBabel11021811423D
libRbt.so/2013.1/901 2013/11/27
 32 34  0  0  0  0  0  0  0  0999 V2000
   68.3158    7.1830    2.9203 P   0  0  1  0  0  0  0  0  0  0  0  0
   66.5694    8.1020    1.0562 P   0  0  1  0  0  0  0  0  0  0  0  0
   65.4587    6.3894   -0.7531 P   0  0  2  0  0  0  0  0  0  0  0  0
   69.3657    8.1861    5.1389 C   0  0  0  0  0  0  0  0  0  0  0  0
   68.4021    7.3165    4.5216 O   0  0  0  0  0  0  0  0  0  0  0  0
   68.9010    9.6345    5.1790 C   0  0  0  0  0  0  0  0  0  0  0  0
   69.9831   10.5040    5.5705 O   0  0  0  0  0  0  0  0  0  0  0  0
   68.4038   10.0784    3.8121 C   0  0  0  0  0  0  0  0  0  0  0  0
   67.0085   10.4014    3.8548 O   0  0  0  0  0  0  0  0  0  0  0  0
   69.2283   11.2832    3.4263 C   0  0  0  0  0  0  0  0  0  0  0  0
   68.3976   12.4295    3.1982 O   0  0  0  0  0  0  0  0  0  0  0  0
   70.1870   11.5318    4.5779 C   0  0  0  0  0  0  0  0  0  0  0  0
   73.3587   12.6409    0.7339 N   0  0  0  0  0  0  0  0  0  0  0  0
   69.4406    7.9314    2.3242 O   0  5  0  0  0  0  0  0  0  0  0  0
   65.4427    9.0504    0.9608 O   0  5  0  0  0  0  0  0  0  0  0  0
   66.4092    5.5093   -1.4624 O   0  5  0  0  0  0  0  0  0  0  0  0
   71.9942   12.7896    0.8096 C   0  0  1  0  0  0  0  0  0  0  0  0
   71.3968   13.2884   -0.2643 N   0  0  0  0  0  0  0  0  0  0  0  0
   68.1069    5.7604    2.5759 O   0  0  0  0  0  0  0  0  0  0  0  0
   67.8001    8.3315    0.2711 O   0  0  0  0  0  0  0  0  0  0  0  0
   65.0887    7.6975   -1.3329 O   0  0  0  0  0  0  0  0  0  0  0  0
   71.2713   12.4619    1.8777 N   0  0  0  0  0  0  0  0  0  0  0  0
   66.9763    7.9655    2.5834 O   0  0  0  0  0  0  0  0  0  0  0  0
   66.0283    6.6483    0.7115 O   0  0  0  0  0  0  0  0  0  0  0  0
   64.1133    5.5594   -0.4675 O   0  0  0  0  0  0  0  0  0  0  0  0
   72.0357   11.9654    2.8776 C   0  0  2  0  0  0  0  0  0  0  0  0
   73.4092   11.7830    2.8850 C   0  0  2  0  0  0  0  0  0  0  0  0
   74.1636   12.1367    1.7396 C   0  0  1  0  0  0  0  0  0  0  0  0
   75.3687   12.0240    1.5595 O   0  0  0  0  0  0  0  0  0  0  0  0
   73.8332   11.2426    4.1038 N   0  0  0  0  0  0  0  0  0  0  0  0
   72.7128   11.1349    4.7402 C   0  0  0  0  0  0  0  0  0  0  0  0
   71.5844   11.5357    4.1031 N   0  0  0  0  0  0  0  0  0  0  0  0
  1  5  1  1  0  0  0
  1 14  1  0  0  0  0
  1 19  2  0  0  0  0
  2 15  1  6  0  0  0
  2 20  2  0  0  0  0
  2 23  1  0  0  0  0
  3 16  1  6  0  0  0
  3 21  2  0  0  0  0
  3 24  1  0  0  0  0
  3 25  1  0  0  0  0
  4  6  1  0  0  0  0
  5  4  1  0  0  0  0
  6  7  1  0  0  0  0
  6  8  2  0  0  0  0
  7 12  1  0  0  0  0
  8  9  1  0  0  0  0
  8 10  1  0  0  0  0
 10 11  1  0  0  0  0
 10 12  2  0  0  0  0
 12 32  1  0  0  0  0
 13 17  1  0  0  0  0
 17 18  1  6  0  0  0
 17 22  1  0  0  0  0
 23  1  1  0  0  0  0
 24  2  1  0  0  0  0
 26 22  1  6  0  0  0
 27 26  1  0  0  0  0
 27 28  1  0  0  0  0
 27 30  1  6  0  0  0
 28 13  1  0  0  0  0
 28 29  1  6  0  0  0
 31 30  1  0  0  0  0
 32 26  1  0  0  0  0
 32 31  1  0  0  0  0
M  CHG  3  14  -1  15  -1  16  -1
M  END
>  <CHROM.1>
6.74825602,-170.27789691,109.86434047,-169.26792769,82.20067483,153.26201320
177.76218642,63.37586879,69.02759702,9.35243225,2.12856314,2.92907473,-0.68088166
-1.45627033

>  <Name>
2au4_lig

>  <RI>
0

>  <Rbt.Current_Directory>
/home/itssahil/PROJECTS/Mol_Feturizer/New_Systems/rnas/2au4

>  <Rbt.Executable>
rbdock ($Id: //depot/dev/client3/rdock/2013.1/src/exe/rbdock.cxx#4 $)

>  <Rbt.Library>
libRbt.so (2013.1, Build901 2013/11/27)

>  <Rbt.Parameter_File>
/export/apps/rDock/src/rDock_2013.1_src/data/scripts/dock_solv.prm

>  <Rbt.Receptor>
prm/pocket_docking_7.prm

>  <SCORE>
-40.0122

>  <SCORE.INTER>
-18.0389

>  <SCORE.INTER.CONST>
1

>  <SCORE.INTER.POLAR>
-1.14721

>  <SCORE.INTER.ROT>
8

>  <SCORE.INTER.SOLV>
27.1478

>  <SCORE.INTER.VDW>
-26.1845

>  <SCORE.INTER.norm>
-0.563715

>  <SCORE.INTRA>
-21.9733

>  <SCORE.INTRA.DIHEDRAL>
-44.2149

>  <SCORE.INTRA.DIHEDRAL.0>
76.3625

>  <SCORE.INTRA.POLAR>
0

>  <SCORE.INTRA.POLAR.0>
0

>  <SCORE.INTRA.REPUL>
-0.12705

>  <SCORE.INTRA.REPUL.0>
0.12705

>  <SCORE.INTRA.SOLV>
-0.764235

>  <SCORE.INTRA.SOLV.lig_0>
-119.383

>  <SCORE.INTRA.VDW>
1.15148

>  <SCORE.INTRA.VDW.0>
-5.10464

>  <SCORE.INTRA.norm>
-0.686667

>  <SCORE.RESTR>
0

>  <SCORE.RESTR.CAVITY>
0

>  <SCORE.RESTR.norm>
0

>  <SCORE.SYSTEM>
0

>  <SCORE.SYSTEM.CONST>
0

>  <SCORE.SYSTEM.DIHEDRAL>
0

>  <SCORE.SYSTEM.SOLV>
0

>  <SCORE.SYSTEM.norm>
0

>  <SCORE.heavy>
32

>  <SCORE.norm>
-1.25038

>  <RMSD>
7.392

$$$$
2au4_lig
 OpenBabel11021811423D
libRbt.so/2013.1/901 2013/11/27
 32 34  0  0  0  0  0  0  0  0999 V2000
   70.6933   11.9976    5.2542 P   0  0  1  0  0  0  0  0  0  0  0  0
   72.2211   12.4965    3.0664 P   0  0  1  0  0  0  0  0  0  0  0  0
   73.0308   13.3857    0.6181 P   0  0  2  0  0  0  0  0  0  0  0  0
   70.3785    9.4547    4.5721 C   0  0  0  0  0  0  0  0  0  0  0  0
   69.8546   10.6246    5.2221 O   0  0  0  0  0  0  0  0  0  0  0  0
   69.3935    8.2949    4.5791 C   0  0  0  0  0  0  0  0  0  0  0  0
   68.1640    8.6772    5.2289 O   0  0  0  0  0  0  0  0  0  0  0  0
   69.0665    7.8576    3.1598 C   0  0  0  0  0  0  0  0  0  0  0  0
   69.5096    6.5159    2.9224 O   0  0  0  0  0  0  0  0  0  0  0  0
   67.5678    7.9686    3.0115 C   0  0  0  0  0  0  0  0  0  0  0  0
   66.9852    6.7047    2.6659 O   0  0  0  0  0  0  0  0  0  0  0  0
   67.0408    8.4582    4.3493 C   0  0  0  0  0  0  0  0  0  0  0  0
   64.2177   11.2909    1.1756 N   0  0  0  0  0  0  0  0  0  0  0  0
   69.8841   13.0279    5.9356 O   0  5  0  0  0  0  0  0  0  0  0  0
   72.8788   13.7013    3.6086 O   0  5  0  0  0  0  0  0  0  0  0  0
   72.8622   14.8530    0.6253 O   0  5  0  0  0  0  0  0  0  0  0  0
   64.8407   10.0865    0.9498 C   0  0  1  0  0  0  0  0  0  0  0  0
   64.7031    9.5721   -0.2649 N   0  0  0  0  0  0  0  0  0  0  0  0
   72.0643   11.7024    5.7227 O   0  0  0  0  0  0  0  0  0  0  0  0
   72.8807   11.1788    3.1765 O   0  0  0  0  0  0  0  0  0  0  0  0
   73.0412   12.6490   -0.6630 O   0  0  0  0  0  0  0  0  0  0  0  0
   65.5551    9.4385    1.8666 N   0  0  0  0  0  0  0  0  0  0  0  0
   70.7786   12.3825    3.7164 O   0  0  0  0  0  0  0  0  0  0  0  0
   71.8901   12.7560    1.5340 O   0  0  0  0  0  0  0  0  0  0  0  0
   74.3719   13.0242    1.4252 O   0  0  0  0  0  0  0  0  0  0  0  0
   65.5966   10.1036    3.0441 C   0  0  2  0  0  0  0  0  0  0  0  0
   65.0004   11.3149    3.3557 C   0  0  2  0  0  0  0  0  0  0  0  0
   64.2437   11.9917    2.3680 C   0  0  1  0  0  0  0  0  0  0  0  0
   63.6730   13.0707    2.4555 O   0  0  0  0  0  0  0  0  0  0  0  0
   65.2736   11.6787    4.6786 N   0  0  0  0  0  0  0  0  0  0  0  0
   66.0022   10.6857    5.0724 C   0  0  0  0  0  0  0  0  0  0  0  0
   66.2549    9.6959    4.1801 N   0  0  0  0  0  0  0  0  0  0  0  0
  1  5  1  1  0  0  0
  1 14  1  0  0  0  0
  1 19  2  0  0  0  0
  2 15  1  1  0  0  0
  2 20  2  0  0  0  0
  2 23  1  0  0  0  0
  3 16  1  6  0  0  0
  3 21  2  0  0  0  0
  3 24  1  0  0  0  0
  3 25  1  0  0  0  0
  4  6  1  0  0  0  0
  5  4  1  0  0  0  0
  6  7  1  0  0  0  0
  6  8  2  0  0  0  0
  7 12  1  0  0  0  0
  8  9  1  0  0  0  0
  8 10  1  0  0  0  0
 10 11  1  0  0  0  0
 10 12  2  0  0  0  0
 12 32  1  0  0  0  0
 13 17  1  0  0  0  0
 17 18  1  6  0  0  0
 17 22  1  0  0  0  0
 23  1  1  0  0  0  0
 24  2  1  0  0  0  0
 26 22  1  6  0  0  0
 27 26  1  0  0  0  0
 27 28  1  0  0  0  0
 27 30  1  6  0  0  0
 28 13  1  0  0  0  0
 28 29  1  6  0  0  0
 31 30  1  0  0  0  0
 32 26  1  0  0  0  0
 32 31  1  0  0  0  0
M  CHG  3  14  -1  15  -1  16  -1
M  END
>  <CHROM.1>
177.68420045,-70.62844247,-92.48723775,0.77555252,-176.33830730,145.61221609
-119.58591425,46.38292904,69.20583847,11.08671457,3.06763063,-0.32950007
0.23608381,2.35673214

>  <Name>
2au4_lig

>  <RI>
0

>  <Rbt.Current_Directory>
/home/itssahil/PROJECTS/Mol_Feturizer/New_Systems/rnas/2au4

>  <Rbt.Executable>
rbdock ($Id: //depot/dev/client3/rdock/2013.1/src/exe/rbdock.cxx#4 $)

>  <Rbt.Library>
libRbt.so (2013.1, Build901 2013/11/27)

>  <Rbt.Parameter_File>
/export/apps/rDock/src/rDock_2013.1_src/data/scripts/dock_solv.prm

>  <Rbt.Receptor>
prm/pocket_docking_6.prm

>  <SCORE>
-41.386

>  <SCORE.INTER>
-17.3283

>  <SCORE.INTER.CONST>
1

>  <SCORE.INTER.POLAR>
-2.57522

>  <SCORE.INTER.ROT>
8

>  <SCORE.INTER.SOLV>
20.1483

>  <SCORE.INTER.VDW>
-18.6176

>  <SCORE.INTER.norm>
-0.541511

>  <SCORE.INTRA>
-24.0649

>  <SCORE.INTRA.DIHEDRAL>
-46.399

>  <SCORE.INTRA.DIHEDRAL.0>
76.3625

>  <SCORE.INTRA.POLAR>
0

>  <SCORE.INTRA.POLAR.0>
0

>  <SCORE.INTRA.REPUL>
-0.12705

>  <SCORE.INTRA.REPUL.0>
0.12705

>  <SCORE.INTRA.SOLV>
-5.73594

>  <SCORE.INTRA.SOLV.lig_0>
-119.383

>  <SCORE.INTRA.VDW>
2.63781

>  <SCORE.INTRA.VDW.0>
-5.10464

>  <SCORE.INTRA.norm>
-0.752028

>  <SCORE.RESTR>
0.00720653

>  <SCORE.RESTR.CAVITY>
0.00720653

>  <SCORE.RESTR.norm>
0.000225204

>  <SCORE.SYSTEM>
0

>  <SCORE.SYSTEM.CONST>
0

>  <SCORE.SYSTEM.DIHEDRAL>
0

>  <SCORE.SYSTEM.SOLV>
0

>  <SCORE.SYSTEM.norm>
0

>  <SCORE.heavy>
32

>  <SCORE.norm>
-1.29331

>  <RMSD>
7.402

$$$$
2au4_lig
 OpenBabel11021811423D
libRbt.so/2013.1/901 2013/11/27
 32 34  0  0  0  0  0  0  0  0999 V2000
   68.5477    9.2963    1.8750 P   0  0  1  0  0  0  0  0  0  0  0  0
   67.1214    7.1790    0.9519 P   0  0  1  0  0  0  0  0  0  0  0  0
   65.0447    7.4305   -0.7988 P   0  0  2  0  0  0  0  0  0  0  0  0
   68.7968   11.1898    0.0357 C   0  0  0  0  0  0  0  0  0  0  0  0
   68.5972   10.8374    1.4147 O   0  0  0  0  0  0  0  0  0  0  0  0
   69.3667   12.5910   -0.1302 C   0  0  0  0  0  0  0  0  0  0  0  0
   69.4817   13.2468    1.1492 O   0  0  0  0  0  0  0  0  0  0  0  0
   70.7476   12.5390   -0.7649 C   0  0  0  0  0  0  0  0  0  0  0  0
   70.7481   13.1852   -2.0437 O   0  0  0  0  0  0  0  0  0  0  0  0
   71.6866   13.2315    0.1937 C   0  0  0  0  0  0  0  0  0  0  0  0
   72.3352   14.3479   -0.4302 O   0  0  0  0  0  0  0  0  0  0  0  0
   70.8386   13.6874    1.3685 C   0  0  0  0  0  0  0  0  0  0  0  0
   69.7893   12.3731    6.1891 N   0  0  0  0  0  0  0  0  0  0  0  0
   69.7335    8.6042    1.3312 O   0  5  0  0  0  0  0  0  0  0  0  0
   67.8809    6.7582   -0.2415 O   0  5  0  0  0  0  0  0  0  0  0  0
   65.7023    6.5631   -1.7969 O   0  5  0  0  0  0  0  0  0  0  0  0
   68.9564   12.8877    5.2242 C   0  0  1  0  0  0  0  0  0  0  0  0
   67.6936   13.0818    5.5803 N   0  0  0  0  0  0  0  0  0  0  0  0
   68.2597    9.2455    3.3243 O   0  0  0  0  0  0  0  0  0  0  0  0
   67.3992    6.5590    2.2641 O   0  0  0  0  0  0  0  0  0  0  0  0
   65.1564    8.9000   -0.9083 O   0  0  0  0  0  0  0  0  0  0  0  0
   69.3511   13.1925    3.9904 N   0  0  0  0  0  0  0  0  0  0  0  0
   67.2699    8.7507    1.1070 O   0  0  0  0  0  0  0  0  0  0  0  0
   65.5720    7.0071    0.6432 O   0  0  0  0  0  0  0  0  0  0  0  0
   63.4875    7.0410   -0.7340 O   0  0  0  0  0  0  0  0  0  0  0  0
   70.6659   12.9376    3.7985 C   0  0  2  0  0  0  0  0  0  0  0  0
   71.5722   12.4219    4.7109 C   0  0  2  0  0  0  0  0  0  0  0  0
   71.1355   12.1033    6.0201 C   0  0  1  0  0  0  0  0  0  0  0  0
   71.7935   11.6668    6.9550 O   0  0  0  0  0  0  0  0  0  0  0  0
   72.8429   12.3032    4.1379 N   0  0  0  0  0  0  0  0  0  0  0  0
   72.6275   12.7459    2.9423 C   0  0  0  0  0  0  0  0  0  0  0  0
   71.3690   13.1488    2.6361 N   0  0  0  0  0  0  0  0  0  0  0  0
  1  5  1  6  0  0  0
  1 14  1  0  0  0  0
  1 19  2  0  0  0  0
  2 15  1  6  0  0  0
  2 20  2  0  0  0  0
  2 23  1  0  0  0  0
  3 16  1  6  0  0  0
  3 21  2  0  0  0  0
  3 24  1  0  0  0  0
  3 25  1  0  0  0  0
  4  6  1  0  0  0  0
  5  4  1  0  0  0  0
  6  7  1  0  0  0  0
  6  8  2  0  0  0  0
  7 12  1  0  0  0  0
  8  9  1  0  0  0  0
  8 10  1  0  0  0  0
 10 11  1  0  0  0  0
 10 12  2  0  0  0  0
 12 32  1  0  0  0  0
 13 17  1  0  0  0  0
 17 18  1  1  0  0  0
 17 22  1  0  0  0  0
 23  1  1  0  0  0  0
 24  2  1  0  0  0  0
 26 22  1  1  0  0  0
 27 26  1  0  0  0  0
 27 28  1  0  0  0  0
 27 30  1  1  0  0  0
 28 13  1  0  0  0  0
 28 29  1  1  0  0  0
 31 30  1  0  0  0  0
 32 26  1  0  0  0  0
 32 31  1  0  0  0  0
M  CHG  3  14  -1  15  -1  16  -1
M  END
>  <CHROM.1>
50.83331190,-85.21106288,62.77141233,-3.72007828,-156.70031285,-35.03791201
162.19557571,-40.91082284,68.80361614,10.44029736,1.70433092,2.78225145,-0.85579474
-1.44282992

>  <Name>
2au4_lig

>  <RI>
0

>  <Rbt.Current_Directory>
/home/itssahil/PROJECTS/Mol_Feturizer/New_Systems/rnas/2au4

>  <Rbt.Executable>
rbdock ($Id: //depot/dev/client3/rdock/2013.1/src/exe/rbdock.cxx#4 $)

>  <Rbt.Library>
libRbt.so (2013.1, Build901 2013/11/27)

>  <Rbt.Parameter_File>
/export/apps/rDock/src/rDock_2013.1_src/data/scripts/dock_solv.prm

>  <Rbt.Receptor>
prm/pocket_docking_8.prm

>  <SCORE>
-38.9743

>  <SCORE.INTER>
-14.1928

>  <SCORE.INTER.CONST>
1

>  <SCORE.INTER.POLAR>
-1.92455

>  <SCORE.INTER.ROT>
8

>  <SCORE.INTER.SOLV>
16.1502

>  <SCORE.INTER.VDW>
-17.3634

>  <SCORE.INTER.norm>
-0.443525

>  <SCORE.INTRA>
-24.7815

>  <SCORE.INTRA.DIHEDRAL>
-47.2622

>  <SCORE.INTRA.DIHEDRAL.0>
76.3625

>  <SCORE.INTRA.POLAR>
0

>  <SCORE.INTRA.POLAR.0>
0

>  <SCORE.INTRA.REPUL>
0.043566

>  <SCORE.INTRA.REPUL.0>
0.12705

>  <SCORE.INTRA.SOLV>
-4.19981

>  <SCORE.INTRA.SOLV.lig_0>
-119.383

>  <SCORE.INTRA.VDW>
0.731724

>  <SCORE.INTRA.VDW.0>
-5.10464

>  <SCORE.INTRA.norm>
-0.774421

>  <SCORE.RESTR>
0

>  <SCORE.RESTR.CAVITY>
0

>  <SCORE.RESTR.norm>
0

>  <SCORE.SYSTEM>
0

>  <SCORE.SYSTEM.CONST>
0

>  <SCORE.SYSTEM.DIHEDRAL>
0

>  <SCORE.SYSTEM.SOLV>
0

>  <SCORE.SYSTEM.norm>
0

>  <SCORE.heavy>
32

>  <SCORE.norm>
-1.21795

>  <RMSD>
7.402

$$$$
2au4_lig
 OpenBabel11021811423D
libRbt.so/2013.1/901 2013/11/27
 32 34  0  0  0  0  0  0  0  0999 V2000
   72.4891   12.5399    4.1491 P   0  0  1  0  0  0  0  0  0  0  0  0
   72.6277   13.5883    1.6489 P   0  0  1  0  0  0  0  0  0  0  0  0
   70.4587   12.8257    0.1810 P   0  0  2  0  0  0  0  0  0  0  0  0
   69.8906   13.0022    4.4025 C   0  0  0  0  0  0  0  0  0  0  0  0
   70.9481   12.2433    3.7932 O   0  0  0  0  0  0  0  0  0  0  0  0
   69.2773   12.2894    5.5988 C   0  0  0  0  0  0  0  0  0  0  0  0
   68.2796   11.3412    5.1679 O   0  0  0  0  0  0  0  0  0  0  0  0
   70.3425   11.5375    6.3817 C   0  0  0  0  0  0  0  0  0  0  0  0
   70.4786   12.0717    7.7042 O   0  0  0  0  0  0  0  0  0  0  0  0
   69.9053   10.0927    6.4221 C   0  0  0  0  0  0  0  0  0  0  0  0
   69.7484    9.6352    7.7719 O   0  0  0  0  0  0  0  0  0  0  0  0
   68.5862   10.0240    5.6721 C   0  0  0  0  0  0  0  0  0  0  0  0
   66.6073    8.4732    1.2285 N   0  0  0  0  0  0  0  0  0  0  0  0
   72.5689   12.9985    5.5506 O   0  5  0  0  0  0  0  0  0  0  0  0
   73.0621   14.8277    0.9755 O   0  5  0  0  0  0  0  0  0  0  0  0
   71.2101   13.3759   -0.9652 O   0  5  0  0  0  0  0  0  0  0  0  0
   66.2323    9.5245    2.0309 C   0  0  1  0  0  0  0  0  0  0  0  0
   65.2063   10.2504    1.6074 N   0  0  0  0  0  0  0  0  0  0  0  0
   73.3072   11.3945    3.6965 O   0  0  0  0  0  0  0  0  0  0  0  0
   73.2177   12.2895    1.2638 O   0  0  0  0  0  0  0  0  0  0  0  0
   68.9871   12.9524    0.2299 O   0  0  0  0  0  0  0  0  0  0  0  0
   66.8329    9.8321    3.1778 N   0  0  0  0  0  0  0  0  0  0  0  0
   72.8249   13.7763    3.2117 O   0  0  0  0  0  0  0  0  0  0  0  0
   71.0488   13.4731    1.5112 O   0  0  0  0  0  0  0  0  0  0  0  0
   70.8426   11.2742    0.3428 O   0  0  0  0  0  0  0  0  0  0  0  0
   67.8530    8.9896    3.4609 C   0  0  2  0  0  0  0  0  0  0  0  0
   68.2956    7.9114    2.7117 C   0  0  2  0  0  0  0  0  0  0  0  0
   67.6449    7.5975    1.4934 C   0  0  1  0  0  0  0  0  0  0  0  0
   67.8805    6.6776    0.7216 O   0  0  0  0  0  0  0  0  0  0  0  0
   69.3771    7.2812    3.3365 N   0  0  0  0  0  0  0  0  0  0  0  0
   69.5149    8.0032    4.4004 C   0  0  0  0  0  0  0  0  0  0  0  0
   68.6611    9.0430    4.5719 N   0  0  0  0  0  0  0  0  0  0  0  0
  1  5  1  6  0  0  0
  1 14  1  0  0  0  0
  1 19  2  0  0  0  0
  2 15  1  6  0  0  0
  2 20  2  0  0  0  0
  2 23  1  0  0  0  0
  3 16  1  6  0  0  0
  3 21  2  0  0  0  0
  3 24  1  0  0  0  0
  3 25  1  0  0  0  0
  4  6  1  0  0  0  0
  5  4  1  0  0  0  0
  6  7  1  0  0  0  0
  6  8  2  0  0  0  0
  7 12  1  0  0  0  0
  8  9  1  0  0  0  0
  8 10  1  0  0  0  0
 10 11  1  0  0  0  0
 10 12  2  0  0  0  0
 12 32  1  0  0  0  0
 13 17  1  0  0  0  0
 17 18  1  1  0  0  0
 17 22  1  0  0  0  0
 23  1  1  0  0  0  0
 24  2  1  0  0  0  0
 26 22  1  1  0  0  0
 27 26  1  0  0  0  0
 27 28  1  0  0  0  0
 27 30  1  1  0  0  0
 28 13  1  0  0  0  0
 28 29  1  1  0  0  0
 31 30  1  0  0  0  0
 32 26  1  0  0  0  0
 32 31  1  0  0  0  0
M  CHG  3  14  -1  15  -1  16  -1
M  END
>  <CHROM.1>
31.92251215,-177.09981560,-43.40085496,-83.40349103,-97.39589336,-38.55556748
-58.00295015,84.65058310,70.10828732,11.24739853,3.05688841,-0.30029536,0.76599418
1.75487257

>  <Name>
2au4_lig

>  <RI>
0

>  <Rbt.Current_Directory>
/home/itssahil/PROJECTS/Mol_Feturizer/New_Systems/rnas/2au4

>  <Rbt.Executable>
rbdock ($Id: //depot/dev/client3/rdock/2013.1/src/exe/rbdock.cxx#4 $)

>  <Rbt.Library>
libRbt.so (2013.1, Build901 2013/11/27)

>  <Rbt.Parameter_File>
/export/apps/rDock/src/rDock_2013.1_src/data/scripts/dock_solv.prm

>  <Rbt.Receptor>
prm/pocket_docking_8.prm

>  <SCORE>
-38.0403

>  <SCORE.INTER>
-15.5367

>  <SCORE.INTER.CONST>
1

>  <SCORE.INTER.POLAR>
-1.94617

>  <SCORE.INTER.ROT>
8

>  <SCORE.INTER.SOLV>
24.6617

>  <SCORE.INTER.VDW>
-21.0244

>  <SCORE.INTER.norm>
-0.48552

>  <SCORE.INTRA>
-22.5037

>  <SCORE.INTRA.DIHEDRAL>
-43.4091

>  <SCORE.INTRA.DIHEDRAL.0>
76.3625

>  <SCORE.INTRA.POLAR>
0

>  <SCORE.INTRA.POLAR.0>
0

>  <SCORE.INTRA.REPUL>
0.0242038

>  <SCORE.INTRA.REPUL.0>
0.12705

>  <SCORE.INTRA.SOLV>
-3.19081

>  <SCORE.INTRA.SOLV.lig_0>
-119.383

>  <SCORE.INTRA.VDW>
0.675235

>  <SCORE.INTRA.VDW.0>
-5.10464

>  <SCORE.INTRA.norm>
-0.703241

>  <SCORE.RESTR>
0

>  <SCORE.RESTR.CAVITY>
0

>  <SCORE.RESTR.norm>
0

>  <SCORE.SYSTEM>
0

>  <SCORE.SYSTEM.CONST>
0

>  <SCORE.SYSTEM.DIHEDRAL>
0

>  <SCORE.SYSTEM.SOLV>
0

>  <SCORE.SYSTEM.norm>
0

>  <SCORE.heavy>
32

>  <SCORE.norm>
-1.18876

>  <RMSD>
7.417

$$$$
2au4_lig
 OpenBabel11021811423D
libRbt.so/2013.1/901 2013/11/27
 32 34  0  0  0  0  0  0  0  0999 V2000
   66.2664    6.7890    0.0535 P   0  0  1  0  0  0  0  0  0  0  0  0
   67.6782    6.2180   -2.1938 P   0  0  1  0  0  0  0  0  0  0  0  0
   69.5634    4.3894   -1.4570 P   0  0  2  0  0  0  0  0  0  0  0  0
   67.7008    8.1308    1.8345 C   0  0  0  0  0  0  0  0  0  0  0  0
   66.7584    7.0817    1.5573 O   0  0  0  0  0  0  0  0  0  0  0  0
   68.3974    7.9481    3.1750 C   0  0  0  0  0  0  0  0  0  0  0  0
   69.8138    8.1885    3.0478 O   0  0  0  0  0  0  0  0  0  0  0  0
   67.8406    8.9159    4.2075 C   0  0  0  0  0  0  0  0  0  0  0  0
   67.2006    8.2105    5.2778 O   0  0  0  0  0  0  0  0  0  0  0  0
   69.0118    9.7238    4.7134 C   0  0  0  0  0  0  0  0  0  0  0  0
   69.1700    9.5771    6.1310 O   0  0  0  0  0  0  0  0  0  0  0  0
   70.2365    9.2085    3.9775 C   0  0  0  0  0  0  0  0  0  0  0  0
   72.0392   13.9746    4.2955 N   0  0  0  0  0  0  0  0  0  0  0  0
   65.2216    5.7461    0.0944 O   0  5  0  0  0  0  0  0  0  0  0  0
   66.6230    5.3617   -2.7696 O   0  5  0  0  0  0  0  0  0  0  0  0
   68.4749    3.3983   -1.3376 O   0  5  0  0  0  0  0  0  0  0  0  0
   71.3987   13.2187    5.2484 C   0  0  1  0  0  0  0  0  0  0  0  0
   71.2087   13.7966    6.4270 N   0  0  0  0  0  0  0  0  0  0  0  0
   65.9988    8.0801   -0.6155 O   0  0  0  0  0  0  0  0  0  0  0  0
   67.7810    7.6372   -2.5924 O   0  0  0  0  0  0  0  0  0  0  0  0
   70.0975    5.0501   -0.2479 O   0  0  0  0  0  0  0  0  0  0  0  0
   70.9724   11.9749    5.0441 N   0  0  0  0  0  0  0  0  0  0  0  0
   67.5609    6.1564   -0.6130 O   0  0  0  0  0  0  0  0  0  0  0  0
   69.0836    5.5269   -2.4632 O   0  0  0  0  0  0  0  0  0  0  0  0
   70.7850    3.7098   -2.2485 O   0  0  0  0  0  0  0  0  0  0  0  0
   71.2422   11.5431    3.7906 C   0  0  2  0  0  0  0  0  0  0  0  0
   71.8802   12.2352    2.7738 C   0  0  2  0  0  0  0  0  0  0  0  0
   72.3273   13.5586    3.0080 C   0  0  1  0  0  0  0  0  0  0  0  0
   72.8820   14.3219    2.2287 O   0  0  0  0  0  0  0  0  0  0  0  0
   71.9718   11.4511    1.6189 N   0  0  0  0  0  0  0  0  0  0  0  0
   71.3951   10.3596    2.0036 C   0  0  0  0  0  0  0  0  0  0  0  0
   70.9254   10.3086    3.2750 N   0  0  0  0  0  0  0  0  0  0  0  0
  1  5  1  1  0  0  0
  1 14  1  0  0  0  0
  1 19  2  0  0  0  0
  2 15  1  6  0  0  0
  2 20  2  0  0  0  0
  2 23  1  0  0  0  0
  3 16  1  1  0  0  0
  3 21  2  0  0  0  0
  3 24  1  0  0  0  0
  3 25  1  0  0  0  0
  4  6  1  0  0  0  0
  5  4  1  0  0  0  0
  6  7  1  0  0  0  0
  6  8  2  0  0  0  0
  7 12  1  0  0  0  0
  8  9  1  0  0  0  0
  8 10  1  0  0  0  0
 10 11  1  0  0  0  0
 10 12  2  0  0  0  0
 12 32  1  0  0  0  0
 13 17  1  0  0  0  0
 17 18  1  6  0  0  0
 17 22  1  0  0  0  0
 23  1  1  0  0  0  0
 24  2  1  0  0  0  0
 26 22  1  6  0  0  0
 27 26  1  0  0  0  0
 27 28  1  0  0  0  0
 27 30  1  6  0  0  0
 28 13  1  0  0  0  0
 28 29  1  6  0  0  0
 31 30  1  0  0  0  0
 32 26  1  0  0  0  0
 32 31  1  0  0  0  0
M  CHG  3  14  -1  15  -1  16  -1
M  END
>  <CHROM.1>
-175.09292913,-66.67797278,51.86298755,135.23329555,-159.99689744,167.25142311
-157.89141551,-83.14870830,69.14603753,8.37958729,1.36859370,2.00589517,-0.60401053
-2.18922854

>  <Name>
2au4_lig

>  <RI>
0

>  <Rbt.Current_Directory>
/home/itssahil/PROJECTS/Mol_Feturizer/New_Systems/rnas/2au4

>  <Rbt.Executable>
rbdock ($Id: //depot/dev/client3/rdock/2013.1/src/exe/rbdock.cxx#4 $)

>  <Rbt.Library>
libRbt.so (2013.1, Build901 2013/11/27)

>  <Rbt.Parameter_File>
/export/apps/rDock/src/rDock_2013.1_src/data/scripts/dock_solv.prm

>  <Rbt.Receptor>
prm/blind_docking_80.prm

>  <SCORE>
-40.7189

>  <SCORE.INTER>
-18.1524

>  <SCORE.INTER.CONST>
1

>  <SCORE.INTER.POLAR>
-1.53888

>  <SCORE.INTER.ROT>
8

>  <SCORE.INTER.SOLV>
30.7721

>  <SCORE.INTER.VDW>
-26.1627

>  <SCORE.INTER.norm>
-0.567261

>  <SCORE.INTRA>
-23.1364

>  <SCORE.INTRA.DIHEDRAL>
-43.1016

>  <SCORE.INTRA.DIHEDRAL.0>
76.3625

>  <SCORE.INTRA.POLAR>
0

>  <SCORE.INTRA.POLAR.0>
0

>  <SCORE.INTRA.REPUL>
-0.12705

>  <SCORE.INTRA.REPUL.0>
0.12705

>  <SCORE.INTRA.SOLV>
-4.51021

>  <SCORE.INTRA.SOLV.lig_0>
-119.383

>  <SCORE.INTRA.VDW>
1.30476

>  <SCORE.INTRA.VDW.0>
-5.10464

>  <SCORE.INTRA.norm>
-0.723012

>  <SCORE.RESTR>
0.569838

>  <SCORE.RESTR.CAVITY>
0.569838

>  <SCORE.RESTR.norm>
0.0178074

>  <SCORE.SYSTEM>
0

>  <SCORE.SYSTEM.CONST>
0

>  <SCORE.SYSTEM.DIHEDRAL>
0

>  <SCORE.SYSTEM.SOLV>
0

>  <SCORE.SYSTEM.norm>
0

>  <SCORE.heavy>
32

>  <SCORE.norm>
-1.27247

>  <RMSD>
7.419

$$$$
2au4_lig
 OpenBabel11021811423D
libRbt.so/2013.1/901 2013/11/27
 32 34  0  0  0  0  0  0  0  0999 V2000
   69.4682   13.6140    5.5062 P   0  0  1  0  0  0  0  0  0  0  0  0
   72.0119   13.4773    4.5679 P   0  0  1  0  0  0  0  0  0  0  0  0
   73.1675   11.6148    2.9442 P   0  0  2  0  0  0  0  0  0  0  0  0
   68.5341   11.1438    5.7425 C   0  0  0  0  0  0  0  0  0  0  0  0
   69.4989   12.0410    5.1682 O   0  0  0  0  0  0  0  0  0  0  0  0
   68.6226    9.7419    5.1573 C   0  0  0  0  0  0  0  0  0  0  0  0
   67.3073    9.2361    4.8503 O   0  0  0  0  0  0  0  0  0  0  0  0
   69.4432    9.7438    3.8770 C   0  0  0  0  0  0  0  0  0  0  0  0
   70.6315    8.9578    4.0292 O   0  0  0  0  0  0  0  0  0  0  0  0
   68.5530    9.1782    2.7962 C   0  0  0  0  0  0  0  0  0  0  0  0
   69.1344    8.0091    2.2036 O   0  0  0  0  0  0  0  0  0  0  0  0
   67.2300    8.8442    3.4633 C   0  0  0  0  0  0  0  0  0  0  0  0
   65.2641   10.3487   -1.0019 N   0  0  0  0  0  0  0  0  0  0  0  0
   68.1716   14.1654    5.0640 O   0  5  0  0  0  0  0  0  0  0  0  0
   73.0273   14.4519    4.1237 O   0  5  0  0  0  0  0  0  0  0  0  0
   72.7522   10.5324    2.0293 O   0  5  0  0  0  0  0  0  0  0  0  0
   66.4337    9.6729   -0.7471 C   0  0  1  0  0  0  0  0  0  0  0  0
   67.1746    9.3617   -1.8022 N   0  0  0  0  0  0  0  0  0  0  0  0
   69.9180   13.8059    6.9016 O   0  0  0  0  0  0  0  0  0  0  0  0
   72.1630   12.7892    5.8668 O   0  0  0  0  0  0  0  0  0  0  0  0
   73.9863   11.3033    4.1345 O   0  0  0  0  0  0  0  0  0  0  0  0
   66.8420    9.3325    0.4728 N   0  0  0  0  0  0  0  0  0  0  0  0
   70.5956   14.1916    4.5493 O   0  0  0  0  0  0  0  0  0  0  0  0
   71.8555   12.3704    3.4385 O   0  0  0  0  0  0  0  0  0  0  0  0
   73.9234   12.7434    2.0865 O   0  0  0  0  0  0  0  0  0  0  0  0
   65.9728    9.7297    1.4305 C   0  0  2  0  0  0  0  0  0  0  0  0
   64.7781   10.4110    1.2622 C   0  0  2  0  0  0  0  0  0  0  0  0
   64.3584   10.7662   -0.0432 C   0  0  1  0  0  0  0  0  0  0  0  0
   63.3561   11.3837   -0.3769 O   0  0  0  0  0  0  0  0  0  0  0  0
   64.1601   10.6447    2.4953 N   0  0  0  0  0  0  0  0  0  0  0  0
   65.0032   10.1020    3.3117 C   0  0  0  0  0  0  0  0  0  0  0  0
   66.1140    9.5303    2.7834 N   0  0  0  0  0  0  0  0  0  0  0  0
  1  5  1  6  0  0  0
  1 14  1  0  0  0  0
  1 19  2  0  0  0  0
  2 15  1  6  0  0  0
  2 20  2  0  0  0  0
  2 23  1  0  0  0  0
  3 16  1  6  0  0  0
  3 21  2  0  0  0  0
  3 24  1  0  0  0  0
  3 25  1  0  0  0  0
  4  6  1  0  0  0  0
  5  4  1  0  0  0  0
  6  7  1  0  0  0  0
  6  8  2  0  0  0  0
  7 12  1  0  0  0  0
  8  9  1  0  0  0  0
  8 10  1  0  0  0  0
 10 11  1  0  0  0  0
 10 12  2  0  0  0  0
 12 32  1  0  0  0  0
 13 17  1  0  0  0  0
 17 18  1  1  0  0  0
 17 22  1  0  0  0  0
 23  1  1  0  0  0  0
 24  2  1  0  0  0  0
 26 22  1  1  0  0  0
 27 26  1  0  0  0  0
 27 28  1  0  0  0  0
 27 30  1  1  0  0  0
 28 13  1  0  0  0  0
 28 29  1  1  0  0  0
 31 30  1  0  0  0  0
 32 26  1  0  0  0  0
 32 31  1  0  0  0  0
M  CHG  3  14  -1  15  -1  16  -1
M  END
>  <CHROM.1>
-60.50605260,-155.37673976,173.08497890,-134.99676634,172.48514092,158.88760536
-50.15346053,53.85542902,69.13399674,11.29967434,3.19351208,0.59097109,0.06011363
0.98568777

>  <Name>
2au4_lig

>  <RI>
0

>  <Rbt.Current_Directory>
/home/itssahil/PROJECTS/Mol_Feturizer/New_Systems/rnas/2au4

>  <Rbt.Executable>
rbdock ($Id: //depot/dev/client3/rdock/2013.1/src/exe/rbdock.cxx#4 $)

>  <Rbt.Library>
libRbt.so (2013.1, Build901 2013/11/27)

>  <Rbt.Parameter_File>
/export/apps/rDock/src/rDock_2013.1_src/data/scripts/dock_solv.prm

>  <Rbt.Receptor>
prm/pocket_docking_6.prm

>  <SCORE>
-43.2882

>  <SCORE.INTER>
-17.384

>  <SCORE.INTER.CONST>
1

>  <SCORE.INTER.POLAR>
-3.65232

>  <SCORE.INTER.ROT>
8

>  <SCORE.INTER.SOLV>
23.1823

>  <SCORE.INTER.VDW>
-16.0757

>  <SCORE.INTER.norm>
-0.543249

>  <SCORE.INTRA>
-26.2491

>  <SCORE.INTRA.DIHEDRAL>
-48.1004

>  <SCORE.INTRA.DIHEDRAL.0>
76.3625

>  <SCORE.INTRA.POLAR>
0

>  <SCORE.INTRA.POLAR.0>
0

>  <SCORE.INTRA.REPUL>
-0.0993434

>  <SCORE.INTRA.REPUL.0>
0.12705

>  <SCORE.INTRA.SOLV>
-5.41269

>  <SCORE.INTRA.SOLV.lig_0>
-119.383

>  <SCORE.INTRA.VDW>
1.00411

>  <SCORE.INTRA.VDW.0>
-5.10464

>  <SCORE.INTRA.norm>
-0.820285

>  <SCORE.RESTR>
0.344904

>  <SCORE.RESTR.CAVITY>
0.344904

>  <SCORE.RESTR.norm>
0.0107782

>  <SCORE.SYSTEM>
0

>  <SCORE.SYSTEM.CONST>
0

>  <SCORE.SYSTEM.DIHEDRAL>
0

>  <SCORE.SYSTEM.SOLV>
0

>  <SCORE.SYSTEM.norm>
0

>  <SCORE.heavy>
32

>  <SCORE.norm>
-1.35276

>  <RMSD>
7.419

$$$$
2au4_lig
 OpenBabel11021811423D
libRbt.so/2013.1/901 2013/11/27
 32 34  0  0  0  0  0  0  0  0999 V2000
   67.3875   12.6796    6.7783 P   0  0  1  0  0  0  0  0  0  0  0  0
   66.6878   14.8817    5.3532 P   0  0  1  0  0  0  0  0  0  0  0  0
   68.2492   15.6867    3.2664 P   0  0  2  0  0  0  0  0  0  0  0  0
   68.8075   10.7044    5.7234 C   0  0  0  0  0  0  0  0  0  0  0  0
   68.7106   11.7684    6.6847 O   0  0  0  0  0  0  0  0  0  0  0  0
   70.2383   10.2246    5.5287 C   0  0  0  0  0  0  0  0  0  0  0  0
   70.3685    9.5086    4.2835 O   0  0  0  0  0  0  0  0  0  0  0  0
   71.2021   11.4007    5.5052 C   0  0  0  0  0  0  0  0  0  0  0  0
   72.1128   11.3386    6.6096 O   0  0  0  0  0  0  0  0  0  0  0  0
   71.9387   11.3253    4.1892 C   0  0  0  0  0  0  0  0  0  0  0  0
   73.3542   11.2183    4.3918 O   0  0  0  0  0  0  0  0  0  0  0  0
   71.4025   10.1004    3.4686 C   0  0  0  0  0  0  0  0  0  0  0  0
   68.1396    8.9203   -0.2767 N   0  0  0  0  0  0  0  0  0  0  0  0
   66.2046   11.7958    6.7577 O   0  5  0  0  0  0  0  0  0  0  0  0
   65.2606   14.6676    5.6618 O   0  5  0  0  0  0  0  0  0  0  0  0
   68.1266   15.9267    1.8143 O   0  5  0  0  0  0  0  0  0  0  0  0
   68.3599    8.2832    0.9213 C   0  0  1  0  0  0  0  0  0  0  0  0
   67.6309    7.1999    1.1537 N   0  0  0  0  0  0  0  0  0  0  0  0
   67.5637   13.6566    7.8740 O   0  0  0  0  0  0  0  0  0  0  0  0
   67.4805   15.8467    6.1432 O   0  0  0  0  0  0  0  0  0  0  0  0
   69.2259   14.7000    3.7728 O   0  0  0  0  0  0  0  0  0  0  0  0
   69.2465    8.6917    1.8257 N   0  0  0  0  0  0  0  0  0  0  0  0
   67.4240   13.4775    5.4063 O   0  0  0  0  0  0  0  0  0  0  0  0
   66.8123   15.2794    3.8198 O   0  0  0  0  0  0  0  0  0  0  0  0
   68.5219   17.0933    3.9929 O   0  0  0  0  0  0  0  0  0  0  0  0
   69.9046    9.8048    1.4276 C   0  0  2  0  0  0  0  0  0  0  0  0
   69.7452   10.5070    0.2438 C   0  0  2  0  0  0  0  0  0  0  0  0
   68.7973   10.0583   -0.7083 C   0  0  1  0  0  0  0  0  0  0  0  0
   68.5411   10.5330   -1.8067 O   0  0  0  0  0  0  0  0  0  0  0  0
   70.6096   11.6058    0.1963 N   0  0  0  0  0  0  0  0  0  0  0  0
   71.2230   11.4988    1.3295 C   0  0  0  0  0  0  0  0  0  0  0  0
   70.8802   10.4643    2.1371 N   0  0  0  0  0  0  0  0  0  0  0  0
  1  5  1  1  0  0  0
  1 14  1  0  0  0  0
  1 19  2  0  0  0  0
  2 15  1  1  0  0  0
  2 20  2  0  0  0  0
  2 23  1  0  0  0  0
  3 16  1  6  0  0  0
  3 21  2  0  0  0  0
  3 24  1  0  0  0  0
  3 25  1  0  0  0  0
  4  6  1  0  0  0  0
  5  4  1  0  0  0  0
  6  7  1  0  0  0  0
  6  8  2  0  0  0  0
  7 12  1  0  0  0  0
  8  9  1  0  0  0  0
  8 10  1  0  0  0  0
 10 11  1  0  0  0  0
 10 12  2  0  0  0  0
 12 32  1  0  0  0  0
 13 17  1  0  0  0  0
 17 18  1  6  0  0  0
 17 22  1  0  0  0  0
 23  1  1  0  0  0  0
 24  2  1  0  0  0  0
 26 22  1  6  0  0  0
 27 26  1  0  0  0  0
 27 28  1  0  0  0  0
 27 30  1  6  0  0  0
 28 13  1  0  0  0  0
 28 29  1  6  0  0  0
 31 30  1  0  0  0  0
 32 26  1  0  0  0  0
 32 31  1  0  0  0  0
M  CHG  3  14  -1  15  -1  16  -1
M  END
>  <CHROM.1>
46.28018111,-59.99013170,176.45189669,-160.74363911,164.15062919,-33.05684529
-154.47958143,174.84556567,68.84483980,12.26283802,3.76978894,-2.27606216
1.03759200,-1.77691173

>  <Name>
2au4_lig

>  <RI>
0

>  <Rbt.Current_Directory>
/home/itssahil/PROJECTS/Mol_Feturizer/New_Systems/rnas/2au4

>  <Rbt.Executable>
rbdock ($Id: //depot/dev/client3/rdock/2013.1/src/exe/rbdock.cxx#4 $)

>  <Rbt.Library>
libRbt.so (2013.1, Build901 2013/11/27)

>  <Rbt.Parameter_File>
/export/apps/rDock/src/rDock_2013.1_src/data/scripts/dock_solv.prm

>  <Rbt.Receptor>
prm/pocket_docking_7.prm

>  <SCORE>
-39.1697

>  <SCORE.INTER>
-14.1024

>  <SCORE.INTER.CONST>
1

>  <SCORE.INTER.POLAR>
-2.82953

>  <SCORE.INTER.ROT>
8

>  <SCORE.INTER.SOLV>
11.963

>  <SCORE.INTER.VDW>
-12.8908

>  <SCORE.INTER.norm>
-0.440699

>  <SCORE.INTRA>
-25.0802

>  <SCORE.INTRA.DIHEDRAL>
-48.3099

>  <SCORE.INTRA.DIHEDRAL.0>
76.3625

>  <SCORE.INTRA.POLAR>
0

>  <SCORE.INTRA.POLAR.0>
0

>  <SCORE.INTRA.REPUL>
0.052787

>  <SCORE.INTRA.REPUL.0>
0.12705

>  <SCORE.INTRA.SOLV>
-5.50569

>  <SCORE.INTRA.SOLV.lig_0>
-119.383

>  <SCORE.INTRA.VDW>
1.5637

>  <SCORE.INTRA.VDW.0>
-5.10464

>  <SCORE.INTRA.norm>
-0.783755

>  <SCORE.RESTR>
0.0128248

>  <SCORE.RESTR.CAVITY>
0.0128248

>  <SCORE.RESTR.norm>
0.000400774

>  <SCORE.SYSTEM>
0

>  <SCORE.SYSTEM.CONST>
0

>  <SCORE.SYSTEM.DIHEDRAL>
0

>  <SCORE.SYSTEM.SOLV>
0

>  <SCORE.SYSTEM.norm>
0

>  <SCORE.heavy>
32

>  <SCORE.norm>
-1.22405

>  <RMSD>
7.430

$$$$
2au4_lig
 OpenBabel11021811423D
libRbt.so/2013.1/901 2013/11/27
 32 34  0  0  0  0  0  0  0  0999 V2000
   68.6269   15.7285    3.8544 P   0  0  1  0  0  0  0  0  0  0  0  0
   67.0397   15.0388    1.7628 P   0  0  1  0  0  0  0  0  0  0  0  0
   64.6583   13.8813    2.4182 P   0  0  2  0  0  0  0  0  0  0  0  0
   70.5254   14.4192    2.5460 C   0  0  0  0  0  0  0  0  0  0  0  0
   69.4842   14.4043    3.5367 O   0  0  0  0  0  0  0  0  0  0  0  0
   71.5827   13.3540    2.7970 C   0  0  0  0  0  0  0  0  0  0  0  0
   70.9703   12.1255    3.2396 O   0  0  0  0  0  0  0  0  0  0  0  0
   72.3675   13.0646    1.5270 C   0  0  0  0  0  0  0  0  0  0  0  0
   73.7463   13.4209    1.6847 O   0  0  0  0  0  0  0  0  0  0  0  0
   72.2162   11.5867    1.2567 C   0  0  0  0  0  0  0  0  0  0  0  0
   73.4913   10.9318    1.2226 O   0  0  0  0  0  0  0  0  0  0  0  0
   71.3547   11.0328    2.3785 C   0  0  0  0  0  0  0  0  0  0  0  0
   66.6028    9.4082    3.2983 N   0  0  0  0  0  0  0  0  0  0  0  0
   68.5334   15.8887    5.3194 O   0  5  0  0  0  0  0  0  0  0  0  0
   67.5417   16.2077    1.0146 O   0  5  0  0  0  0  0  0  0  0  0  0
   64.7079   14.2844    3.8382 O   0  5  0  0  0  0  0  0  0  0  0  0
   67.4762   10.0665    4.1311 C   0  0  1  0  0  0  0  0  0  0  0  0
   67.0400   10.3216    5.3573 N   0  0  0  0  0  0  0  0  0  0  0  0
   69.1406   16.8352    3.0192 O   0  0  0  0  0  0  0  0  0  0  0  0
   67.5979   13.6958    1.5013 O   0  0  0  0  0  0  0  0  0  0  0  0
   65.1355   12.5428    2.0125 O   0  0  0  0  0  0  0  0  0  0  0  0
   68.7010   10.4428    3.7720 N   0  0  0  0  0  0  0  0  0  0  0  0
   67.1856   15.3410    3.3132 O   0  0  0  0  0  0  0  0  0  0  0  0
   65.4639   14.9638    1.5721 O   0  0  0  0  0  0  0  0  0  0  0  0
   63.1531   14.0680    1.8890 O   0  0  0  0  0  0  0  0  0  0  0  0
   68.9851   10.1010    2.4941 C   0  0  2  0  0  0  0  0  0  0  0  0
   68.1678    9.4409    1.5908 C   0  0  2  0  0  0  0  0  0  0  0  0
   66.8670    9.0470    1.9893 C   0  0  1  0  0  0  0  0  0  0  0  0
   66.0251    8.4402    1.3408 O   0  0  0  0  0  0  0  0  0  0  0  0
   68.8189    9.2671    0.3648 N   0  0  0  0  0  0  0  0  0  0  0  0
   69.9633    9.8207    0.6015 C   0  0  0  0  0  0  0  0  0  0  0  0
   70.1662   10.3472    1.8349 N   0  0  0  0  0  0  0  0  0  0  0  0
  1  5  1  6  0  0  0
  1 14  1  0  0  0  0
  1 19  2  0  0  0  0
  2 15  1  6  0  0  0
  2 20  2  0  0  0  0
  2 23  1  0  0  0  0
  3 16  1  1  0  0  0
  3 21  2  0  0  0  0
  3 24  1  0  0  0  0
  3 25  1  0  0  0  0
  4  6  1  0  0  0  0
  5  4  1  0  0  0  0
  6  7  1  0  0  0  0
  6  8  2  0  0  0  0
  7 12  1  0  0  0  0
  8  9  1  0  0  0  0
  8 10  1  0  0  0  0
 10 11  1  0  0  0  0
 10 12  2  0  0  0  0
 12 32  1  0  0  0  0
 13 17  1  0  0  0  0
 17 18  1  1  0  0  0
 17 22  1  0  0  0  0
 23  1  1  0  0  0  0
 24  2  1  0  0  0  0
 26 22  1  1  0  0  0
 27 26  1  0  0  0  0
 27 28  1  0  0  0  0
 27 30  1  1  0  0  0
 28 13  1  0  0  0  0
 28 29  1  1  0  0  0
 31 30  1  0  0  0  0
 32 26  1  0  0  0  0
 32 31  1  0  0  0  0
M  CHG  3  14  -1  15  -1  16  -1
M  END
>  <CHROM.1>
-133.98809355,-55.68764543,68.59844325,40.00554740,154.78203212,-37.60618670
-62.43291773,-173.18582281,68.29203411,12.81805477,2.48178805,-2.54067816
-0.05102438,-3.00164380

>  <Name>
2au4_lig

>  <RI>
0

>  <Rbt.Current_Directory>
/home/itssahil/PROJECTS/Mol_Feturizer/New_Systems/rnas/2au4

>  <Rbt.Executable>
rbdock ($Id: //depot/dev/client3/rdock/2013.1/src/exe/rbdock.cxx#4 $)

>  <Rbt.Library>
libRbt.so (2013.1, Build901 2013/11/27)

>  <Rbt.Parameter_File>
/export/apps/rDock/src/rDock_2013.1_src/data/scripts/dock_solv.prm

>  <Rbt.Receptor>
prm/pocket_docking_8.prm

>  <SCORE>
-34.4512

>  <SCORE.INTER>
-12.0964

>  <SCORE.INTER.CONST>
1

>  <SCORE.INTER.POLAR>
-2.38955

>  <SCORE.INTER.ROT>
8

>  <SCORE.INTER.SOLV>
14.1506

>  <SCORE.INTER.VDW>
-13.7493

>  <SCORE.INTER.norm>
-0.378012

>  <SCORE.INTRA>
-22.3549

>  <SCORE.INTRA.DIHEDRAL>
-44.9751

>  <SCORE.INTRA.DIHEDRAL.0>
76.3625

>  <SCORE.INTRA.POLAR>
0

>  <SCORE.INTRA.POLAR.0>
0

>  <SCORE.INTRA.REPUL>
0.0888902

>  <SCORE.INTRA.REPUL.0>
0.12705

>  <SCORE.INTRA.SOLV>
-2.05179

>  <SCORE.INTRA.SOLV.lig_0>
-119.383

>  <SCORE.INTRA.VDW>
0.714136

>  <SCORE.INTRA.VDW.0>
-5.10464

>  <SCORE.INTRA.norm>
-0.698589

>  <SCORE.RESTR>
0

>  <SCORE.RESTR.CAVITY>
0

>  <SCORE.RESTR.norm>
0

>  <SCORE.SYSTEM>
0

>  <SCORE.SYSTEM.CONST>
0

>  <SCORE.SYSTEM.DIHEDRAL>
0

>  <SCORE.SYSTEM.SOLV>
0

>  <SCORE.SYSTEM.norm>
0

>  <SCORE.heavy>
32

>  <SCORE.norm>
-1.0766

>  <RMSD>
7.435

$$$$
2au4_lig
 OpenBabel11021811423D
libRbt.so/2013.1/901 2013/11/27
 32 34  0  0  0  0  0  0  0  0999 V2000
   67.3521    5.9782   -2.9198 P   0  0  1  0  0  0  0  0  0  0  0  0
   67.6874    5.2088   -5.5015 P   0  0  1  0  0  0  0  0  0  0  0  0
   67.3812    3.7756   -7.8021 P   0  0  2  0  0  0  0  0  0  0  0  0
   65.0593    7.2616   -2.5644 C   0  0  0  0  0  0  0  0  0  0  0  0
   66.0620    6.3738   -2.0431 O   0  0  0  0  0  0  0  0  0  0  0  0
   64.1644    7.8330   -1.4744 C   0  0  0  0  0  0  0  0  0  0  0  0
   64.5985    7.3841   -0.1743 O   0  0  0  0  0  0  0  0  0  0  0  0
   64.2003    9.3532   -1.4901 C   0  0  0  0  0  0  0  0  0  0  0  0
   62.9111    9.8927   -1.8057 O   0  0  0  0  0  0  0  0  0  0  0  0
   64.6479    9.7859   -0.1143 C   0  0  0  0  0  0  0  0  0  0  0  0
   63.6684   10.6270    0.5097 O   0  0  0  0  0  0  0  0  0  0  0  0
   64.8559    8.5128    0.6877 C   0  0  0  0  0  0  0  0  0  0  0  0
   68.7789   11.1738    2.5840 N   0  0  0  0  0  0  0  0  0  0  0  0
   68.1463    7.1986   -3.1661 O   0  5  0  0  0  0  0  0  0  0  0  0
   68.1686    6.4870   -6.0609 O   0  5  0  0  0  0  0  0  0  0  0  0
   68.4140    4.6606   -8.3777 O   0  5  0  0  0  0  0  0  0  0  0  0
   67.5558   11.6186    2.1415 C   0  0  1  0  0  0  0  0  0  0  0  0
   67.3480   12.9269    2.2048 N   0  0  0  0  0  0  0  0  0  0  0  0
   67.9887    4.7896   -2.3132 O   0  0  0  0  0  0  0  0  0  0  0  0
   68.6540    4.1887   -5.0450 O   0  0  0  0  0  0  0  0  0  0  0  0
   66.2888    3.2620   -8.6548 O   0  0  0  0  0  0  0  0  0  0  0  0
   66.6047   10.8191    1.6650 N   0  0  0  0  0  0  0  0  0  0  0  0
   66.7047    5.5312   -4.2987 O   0  0  0  0  0  0  0  0  0  0  0  0
   66.7208    4.5313   -6.5654 O   0  0  0  0  0  0  0  0  0  0  0  0
   68.1129    2.5275   -7.1039 O   0  0  0  0  0  0  0  0  0  0  0  0
   66.9829    9.5200    1.6665 C   0  0  2  0  0  0  0  0  0  0  0  0
   68.1893    8.9882    2.0925 C   0  0  2  0  0  0  0  0  0  0  0  0
   69.1911    9.8534    2.5967 C   0  0  1  0  0  0  0  0  0  0  0  0
   70.3137    9.5672    2.9907 O   0  0  0  0  0  0  0  0  0  0  0  0
   68.2042    7.5982    1.9348 N   0  0  0  0  0  0  0  0  0  0  0  0
   67.0315    7.3844    1.4338 C   0  0  0  0  0  0  0  0  0  0  0  0
   66.2260    8.4571    1.2336 N   0  0  0  0  0  0  0  0  0  0  0  0
  1  5  1  1  0  0  0
  1 14  1  0  0  0  0
  1 19  2  0  0  0  0
  2 15  1  6  0  0  0
  2 20  2  0  0  0  0
  2 23  1  0  0  0  0
  3 16  1  6  0  0  0
  3 21  2  0  0  0  0
  3 24  1  0  0  0  0
  3 25  1  0  0  0  0
  4  6  1  0  0  0  0
  5  4  1  0  0  0  0
  6  7  1  0  0  0  0
  6  8  2  0  0  0  0
  7 12  1  0  0  0  0
  8  9  1  0  0  0  0
  8 10  1  0  0  0  0
 10 11  1  0  0  0  0
 10 12  2  0  0  0  0
 12 32  1  0  0  0  0
 13 17  1  0  0  0  0
 17 18  1  6  0  0  0
 17 22  1  0  0  0  0
 23  1  1  0  0  0  0
 24  2  1  0  0  0  0
 26 22  1  6  0  0  0
 27 26  1  0  0  0  0
 27 28  1  0  0  0  0
 27 30  1  6  0  0  0
 28 13  1  0  0  0  0
 28 29  1  6  0  0  0
 31 30  1  0  0  0  0
 32 26  1  0  0  0  0
 32 31  1  0  0  0  0
M  CHG  3  14  -1  15  -1  16  -1
M  END
>  <CHROM.1>
63.76410318,-76.76064464,-47.73100790,2.88580789,-162.87374361,154.80506213
173.51648061,78.57036762,66.91628672,7.22525715,-2.20412801,-1.51563024,-0.31508491
0.98586743

>  <Name>
2au4_lig

>  <RI>
0

>  <Rbt.Current_Directory>
/home/itssahil/PROJECTS/Mol_Feturizer/New_Systems/rnas/2au4

>  <Rbt.Executable>
rbdock ($Id: //depot/dev/client3/rdock/2013.1/src/exe/rbdock.cxx#4 $)

>  <Rbt.Library>
libRbt.so (2013.1, Build901 2013/11/27)

>  <Rbt.Parameter_File>
/export/apps/rDock/src/rDock_2013.1_src/data/scripts/dock_solv.prm

>  <Rbt.Receptor>
prm/pocket_docking_7.prm

>  <SCORE>
-47.1127

>  <SCORE.INTER>
-20.3936

>  <SCORE.INTER.CONST>
1

>  <SCORE.INTER.POLAR>
-1.32501

>  <SCORE.INTER.ROT>
8

>  <SCORE.INTER.SOLV>
30.3493

>  <SCORE.INTER.VDW>
-28.2288

>  <SCORE.INTER.norm>
-0.637301

>  <SCORE.INTRA>
-26.719

>  <SCORE.INTRA.DIHEDRAL>
-48.9897

>  <SCORE.INTRA.DIHEDRAL.0>
76.3625

>  <SCORE.INTRA.POLAR>
0

>  <SCORE.INTRA.POLAR.0>
0

>  <SCORE.INTRA.REPUL>
-0.12705

>  <SCORE.INTRA.REPUL.0>
0.12705

>  <SCORE.INTRA.SOLV>
-5.62187

>  <SCORE.INTRA.SOLV.lig_0>
-119.383

>  <SCORE.INTRA.VDW>
1.22198

>  <SCORE.INTRA.VDW.0>
-5.10464

>  <SCORE.INTRA.norm>
-0.83497

>  <SCORE.RESTR>
0

>  <SCORE.RESTR.CAVITY>
0

>  <SCORE.RESTR.norm>
0

>  <SCORE.SYSTEM>
0

>  <SCORE.SYSTEM.CONST>
0

>  <SCORE.SYSTEM.DIHEDRAL>
0

>  <SCORE.SYSTEM.SOLV>
0

>  <SCORE.SYSTEM.norm>
0

>  <SCORE.heavy>
32

>  <SCORE.norm>
-1.47227

>  <RMSD>
7.442

$$$$
2au4_lig
 OpenBabel11021811423D
libRbt.so/2013.1/901 2013/11/27
 32 34  0  0  0  0  0  0  0  0999 V2000
   69.3461   14.1787    5.4652 P   0  0  1  0  0  0  0  0  0  0  0  0
   68.7742   15.4870    3.1564 P   0  0  1  0  0  0  0  0  0  0  0  0
   67.1383   14.8387    1.0721 P   0  0  2  0  0  0  0  0  0  0  0  0
   70.4568   11.8058    5.0570 C   0  0  0  0  0  0  0  0  0  0  0  0
   70.3987   13.0170    5.8286 O   0  0  0  0  0  0  0  0  0  0  0  0
   71.7589   11.6720    4.2812 C   0  0  0  0  0  0  0  0  0  0  0  0
   71.5840   10.8048    3.1420 O   0  0  0  0  0  0  0  0  0  0  0  0
   72.2287   13.0286    3.7797 C   0  0  0  0  0  0  0  0  0  0  0  0
   73.4801   13.3899    4.3766 O   0  0  0  0  0  0  0  0  0  0  0  0
   72.3568   12.9104    2.2797 C   0  0  0  0  0  0  0  0  0  0  0  0
   73.6940   13.1973    1.8485 O   0  0  0  0  0  0  0  0  0  0  0  0
   71.9708   11.4840    1.9286 C   0  0  0  0  0  0  0  0  0  0  0  0
   67.9638    8.9136    0.0838 N   0  0  0  0  0  0  0  0  0  0  0  0
   67.9944   13.5871    5.4045 O   0  5  0  0  0  0  0  0  0  0  0  0
   67.5114   15.5998    3.9118 O   0  5  0  0  0  0  0  0  0  0  0  0
   67.0217   16.2807    0.7749 O   0  5  0  0  0  0  0  0  0  0  0  0
   68.8249    8.5745    1.1002 C   0  0  1  0  0  0  0  0  0  0  0  0
   68.6002    7.4119    1.6976 N   0  0  0  0  0  0  0  0  0  0  0  0
   69.6072   15.3425    6.3390 O   0  0  0  0  0  0  0  0  0  0  0  0
   69.5012   16.7047    2.7414 O   0  0  0  0  0  0  0  0  0  0  0  0
   66.0640   14.1478    1.8154 O   0  0  0  0  0  0  0  0  0  0  0  0
   69.8423    9.3362    1.4945 N   0  0  0  0  0  0  0  0  0  0  0  0
   69.7714   14.5759    3.9881 O   0  0  0  0  0  0  0  0  0  0  0  0
   68.5031   14.6086    1.8602 O   0  0  0  0  0  0  0  0  0  0  0  0
   67.3900   14.0542   -0.3070 O   0  0  0  0  0  0  0  0  0  0  0  0
   69.9296   10.4806    0.7781 C   0  0  2  0  0  0  0  0  0  0  0  0
   69.1083   10.8986   -0.2565 C   0  0  2  0  0  0  0  0  0  0  0  0
   68.0300   10.0755   -0.6640 C   0  0  1  0  0  0  0  0  0  0  0  0
   67.2251   10.2692   -1.5652 O   0  0  0  0  0  0  0  0  0  0  0  0
   69.5209   12.1414   -0.7489 N   0  0  0  0  0  0  0  0  0  0  0  0
   70.5433   12.3885    0.0031 C   0  0  0  0  0  0  0  0  0  0  0  0
   70.8726   11.4674    0.9427 N   0  0  0  0  0  0  0  0  0  0  0  0
  1  5  1  1  0  0  0
  1 14  1  0  0  0  0
  1 19  2  0  0  0  0
  2 15  1  1  0  0  0
  2 20  2  0  0  0  0
  2 23  1  0  0  0  0
  3 16  1  6  0  0  0
  3 21  2  0  0  0  0
  3 24  1  0  0  0  0
  3 25  1  0  0  0  0
  4  6  1  0  0  0  0
  5  4  1  0  0  0  0
  6  7  1  0  0  0  0
  6  8  2  0  0  0  0
  7 12  1  0  0  0  0
  8  9  1  0  0  0  0
  8 10  1  0  0  0  0
 10 11  1  0  0  0  0
 10 12  2  0  0  0  0
 12 32  1  0  0  0  0
 13 17  1  0  0  0  0
 17 18  1  6  0  0  0
 17 22  1  0  0  0  0
 23  1  1  0  0  0  0
 24  2  1  0  0  0  0
 26 22  1  6  0  0  0
 27 26  1  0  0  0  0
 27 28  1  0  0  0  0
 27 30  1  6  0  0  0
 28 13  1  0  0  0  0
 28 29  1  6  0  0  0
 31 30  1  0  0  0  0
 32 26  1  0  0  0  0
 32 31  1  0  0  0  0
M  CHG  3  14  -1  15  -1  16  -1
M  END
>  <CHROM.1>
53.26676744,-8.90374301,52.86010401,-156.17881468,113.15139252,-32.03110938
167.34339130,40.38177712,69.42672948,12.90560449,2.37260418,-1.47683975,0.68529218
-2.49787954

>  <Name>
2au4_lig

>  <RI>
0

>  <Rbt.Current_Directory>
/home/itssahil/PROJECTS/Mol_Feturizer/New_Systems/rnas/2au4

>  <Rbt.Executable>
rbdock ($Id: //depot/dev/client3/rdock/2013.1/src/exe/rbdock.cxx#4 $)

>  <Rbt.Library>
libRbt.so (2013.1, Build901 2013/11/27)

>  <Rbt.Parameter_File>
/export/apps/rDock/src/rDock_2013.1_src/data/scripts/dock_solv.prm

>  <Rbt.Receptor>
prm/pocket_docking_8.prm

>  <SCORE>
-40.5634

>  <SCORE.INTER>
-19.5188

>  <SCORE.INTER.CONST>
1

>  <SCORE.INTER.POLAR>
-3.51219

>  <SCORE.INTER.ROT>
8

>  <SCORE.INTER.SOLV>
17.676

>  <SCORE.INTER.VDW>
-16.1306

>  <SCORE.INTER.norm>
-0.609963

>  <SCORE.INTRA>
-21.0445

>  <SCORE.INTRA.DIHEDRAL>
-40.3111

>  <SCORE.INTRA.DIHEDRAL.0>
76.3625

>  <SCORE.INTRA.POLAR>
0

>  <SCORE.INTRA.POLAR.0>
0

>  <SCORE.INTRA.REPUL>
0.0697107

>  <SCORE.INTRA.REPUL.0>
0.12705

>  <SCORE.INTRA.SOLV>
-2.76441

>  <SCORE.INTRA.SOLV.lig_0>
-119.383

>  <SCORE.INTRA.VDW>
0.144676

>  <SCORE.INTRA.VDW.0>
-5.10464

>  <SCORE.INTRA.norm>
-0.657642

>  <SCORE.RESTR>
0

>  <SCORE.RESTR.CAVITY>
0

>  <SCORE.RESTR.norm>
0

>  <SCORE.SYSTEM>
0

>  <SCORE.SYSTEM.CONST>
0

>  <SCORE.SYSTEM.DIHEDRAL>
0

>  <SCORE.SYSTEM.SOLV>
0

>  <SCORE.SYSTEM.norm>
0

>  <SCORE.heavy>
32

>  <SCORE.norm>
-1.26761

>  <RMSD>
7.464

$$$$
2au4_lig
 OpenBabel11021811423D
libRbt.so/2013.1/901 2013/11/27
 32 34  0  0  0  0  0  0  0  0999 V2000
   69.0267    7.3160   -0.3016 P   0  0  1  0  0  0  0  0  0  0  0  0
   66.8104    6.7760   -1.7733 P   0  0  1  0  0  0  0  0  0  0  0  0
   64.8040    8.5833   -1.3877 P   0  0  2  0  0  0  0  0  0  0  0  0
   68.3200    7.9394    2.1768 C   0  0  0  0  0  0  0  0  0  0  0  0
   69.3127    7.4160    1.2788 O   0  0  0  0  0  0  0  0  0  0  0  0
   68.8851    8.2403    3.5573 C   0  0  0  0  0  0  0  0  0  0  0  0
   70.2797    8.5968    3.4681 O   0  0  0  0  0  0  0  0  0  0  0  0
   68.1382    9.3961    4.2045 C   0  0  0  0  0  0  0  0  0  0  0  0
   67.4548    8.9656    5.3879 O   0  0  0  0  0  0  0  0  0  0  0  0
   69.1725   10.4480    4.5273 C   0  0  0  0  0  0  0  0  0  0  0  0
   69.1930   10.7428    5.9304 O   0  0  0  0  0  0  0  0  0  0  0  0
   70.5091    9.8866    4.0741 C   0  0  0  0  0  0  0  0  0  0  0  0
   71.0098   14.7177    2.5004 N   0  0  0  0  0  0  0  0  0  0  0  0
   69.1757    8.6609   -0.8931 O   0  5  0  0  0  0  0  0  0  0  0  0
   67.8743    6.5271   -2.7655 O   0  5  0  0  0  0  0  0  0  0  0  0
   63.7916    7.6884   -1.9838 O   0  5  0  0  0  0  0  0  0  0  0  0
   70.2275   14.2050    3.5077 C   0  0  1  0  0  0  0  0  0  0  0  0
   69.4846   15.0766    4.1766 N   0  0  0  0  0  0  0  0  0  0  0  0
   69.7937    6.1765   -0.8489 O   0  0  0  0  0  0  0  0  0  0  0  0
   65.6801    5.8329   -1.6460 O   0  0  0  0  0  0  0  0  0  0  0  0
   64.6301   10.0491   -1.4610 O   0  0  0  0  0  0  0  0  0  0  0  0
   70.1830   12.9140    3.8272 N   0  0  0  0  0  0  0  0  0  0  0  0
   67.4872    6.9311   -0.3470 O   0  0  0  0  0  0  0  0  0  0  0  0
   66.2157    8.2266   -2.0332 O   0  0  0  0  0  0  0  0  0  0  0  0
   65.0047    8.1700    0.1516 O   0  0  0  0  0  0  0  0  0  0  0  0
   70.9958   12.1671    3.0448 C   0  0  2  0  0  0  0  0  0  0  0  0
   71.8135   12.6003    2.0136 C   0  0  2  0  0  0  0  0  0  0  0  0
   71.8487   13.9780    1.6863 C   0  0  1  0  0  0  0  0  0  0  0  0
   72.4857   14.5320    0.8004 O   0  0  0  0  0  0  0  0  0  0  0  0
   72.5021   11.5265    1.4393 N   0  0  0  0  0  0  0  0  0  0  0  0
   72.0650   10.5349    2.1447 C   0  0  0  0  0  0  0  0  0  0  0  0
   71.1669   10.8053    3.1245 N   0  0  0  0  0  0  0  0  0  0  0  0
  1  5  1  1  0  0  0
  1 14  1  0  0  0  0
  1 19  2  0  0  0  0
  2 15  1  6  0  0  0
  2 20  2  0  0  0  0
  2 23  1  0  0  0  0
  3 16  1  6  0  0  0
  3 21  2  0  0  0  0
  3 24  1  0  0  0  0
  3 25  1  0  0  0  0
  4  6  1  0  0  0  0
  5  4  1  0  0  0  0
  6  7  1  0  0  0  0
  6  8  2  0  0  0  0
  7 12  1  0  0  0  0
  8  9  1  0  0  0  0
  8 10  1  0  0  0  0
 10 11  1  0  0  0  0
 10 12  2  0  0  0  0
 12 32  1  0  0  0  0
 13 17  1  0  0  0  0
 17 18  1  6  0  0  0
 17 22  1  0  0  0  0
 23  1  1  0  0  0  0
 24  2  1  0  0  0  0
 26 22  1  6  0  0  0
 27 26  1  0  0  0  0
 27 28  1  0  0  0  0
 27 30  1  6  0  0  0
 28 13  1  0  0  0  0
 28 29  1  6  0  0  0
 31 30  1  0  0  0  0
 32 26  1  0  0  0  0
 32 31  1  0  0  0  0
M  CHG  3  14  -1  15  -1  16  -1
M  END
>  <CHROM.1>
77.54125362,21.31672320,-63.44239223,29.73786263,-167.11264047,146.96225056
178.43204468,163.03894693,68.63042543,9.53967766,1.11632775,2.85967220,-0.96238415
-1.18772870

>  <Name>
2au4_lig

>  <RI>
0

>  <Rbt.Current_Directory>
/home/itssahil/PROJECTS/Mol_Feturizer/New_Systems/rnas/2au4

>  <Rbt.Executable>
rbdock ($Id: //depot/dev/client3/rdock/2013.1/src/exe/rbdock.cxx#4 $)

>  <Rbt.Library>
libRbt.so (2013.1, Build901 2013/11/27)

>  <Rbt.Parameter_File>
/export/apps/rDock/src/rDock_2013.1_src/data/scripts/dock_solv.prm

>  <Rbt.Receptor>
prm/pocket_docking_8.prm

>  <SCORE>
-39.5203

>  <SCORE.INTER>
-13.9941

>  <SCORE.INTER.CONST>
1

>  <SCORE.INTER.POLAR>
-1.07864

>  <SCORE.INTER.ROT>
8

>  <SCORE.INTER.SOLV>
21.1628

>  <SCORE.INTER.VDW>
-21.7215

>  <SCORE.INTER.norm>
-0.437316

>  <SCORE.INTRA>
-25.5262

>  <SCORE.INTRA.DIHEDRAL>
-47.1985

>  <SCORE.INTRA.DIHEDRAL.0>
76.3625

>  <SCORE.INTRA.POLAR>
0

>  <SCORE.INTRA.POLAR.0>
0

>  <SCORE.INTRA.REPUL>
-0.12705

>  <SCORE.INTRA.REPUL.0>
0.12705

>  <SCORE.INTRA.SOLV>
-6.55622

>  <SCORE.INTRA.SOLV.lig_0>
-119.383

>  <SCORE.INTRA.VDW>
1.98641

>  <SCORE.INTRA.VDW.0>
-5.10464

>  <SCORE.INTRA.norm>
-0.797694

>  <SCORE.RESTR>
0

>  <SCORE.RESTR.CAVITY>
0

>  <SCORE.RESTR.norm>
0

>  <SCORE.SYSTEM>
0

>  <SCORE.SYSTEM.CONST>
0

>  <SCORE.SYSTEM.DIHEDRAL>
0

>  <SCORE.SYSTEM.SOLV>
0

>  <SCORE.SYSTEM.norm>
0

>  <SCORE.heavy>
32

>  <SCORE.norm>
-1.23501

>  <RMSD>
7.487

$$$$
2au4_lig
 OpenBabel11021811423D
libRbt.so/2013.1/901 2013/11/27
 32 34  0  0  0  0  0  0  0  0999 V2000
   68.6879    8.3900    1.2064 P   0  0  1  0  0  0  0  0  0  0  0  0
   69.2819    5.9140    0.2652 P   0  0  1  0  0  0  0  0  0  0  0  0
   69.3124    4.5555   -2.1000 P   0  0  2  0  0  0  0  0  0  0  0  0
   70.4459   10.2285    0.4578 C   0  0  0  0  0  0  0  0  0  0  0  0
   69.5610    9.7162    1.4679 O   0  0  0  0  0  0  0  0  0  0  0  0
   71.1203   11.5260    0.8785 C   0  0  0  0  0  0  0  0  0  0  0  0
   70.4601   12.0909    2.0298 O   0  0  0  0  0  0  0  0  0  0  0  0
   72.5782   11.2835    1.2365 C   0  0  0  0  0  0  0  0  0  0  0  0
   73.4490   11.9834    0.3395 O   0  0  0  0  0  0  0  0  0  0  0  0
   72.7577   11.7678    2.6556 C   0  0  0  0  0  0  0  0  0  0  0  0
   73.7558   12.7944    2.7316 O   0  0  0  0  0  0  0  0  0  0  0  0
   71.4051   12.2959    3.1014 C   0  0  0  0  0  0  0  0  0  0  0  0
   67.4168   10.7171    5.8703 N   0  0  0  0  0  0  0  0  0  0  0  0
   68.1649    7.9079    2.5005 O   0  5  0  0  0  0  0  0  0  0  0  0
   70.1096    4.9059    0.9558 O   0  5  0  0  0  0  0  0  0  0  0  0
   68.8712    4.9532   -3.4522 O   0  5  0  0  0  0  0  0  0  0  0  0
   67.4352   11.3759    4.6640 C   0  0  1  0  0  0  0  0  0  0  0  0
   66.2543   11.6541    4.1281 N   0  0  0  0  0  0  0  0  0  0  0  0
   67.7622    8.6482    0.0828 O   0  0  0  0  0  0  0  0  0  0  0  0
   67.8102    5.8787    0.3931 O   0  0  0  0  0  0  0  0  0  0  0  0
   68.4420    3.7090   -1.2575 O   0  0  0  0  0  0  0  0  0  0  0  0
   68.5502   11.7373    4.0341 N   0  0  0  0  0  0  0  0  0  0  0  0
   69.7814    7.3537    0.7058 O   0  0  0  0  0  0  0  0  0  0  0  0
   69.6436    5.8813   -1.2818 O   0  0  0  0  0  0  0  0  0  0  0  0
   70.7491    3.8472   -2.2218 O   0  0  0  0  0  0  0  0  0  0  0  0
   69.6610   11.3816    4.7197 C   0  0  2  0  0  0  0  0  0  0  0  0
   69.7324   10.7191    5.9346 C   0  0  2  0  0  0  0  0  0  0  0  0
   68.5358   10.3419    6.5919 C   0  0  1  0  0  0  0  0  0  0  0  0
   68.4071    9.7785    7.6706 O   0  0  0  0  0  0  0  0  0  0  0  0
   71.0634   10.5316    6.3222 N   0  0  0  0  0  0  0  0  0  0  0  0
   71.6969   11.0816    5.3382 C   0  0  0  0  0  0  0  0  0  0  0  0
   70.9594   11.6171    4.3338 N   0  0  0  0  0  0  0  0  0  0  0  0
  1  5  1  1  0  0  0
  1 14  1  0  0  0  0
  1 19  2  0  0  0  0
  2 15  1  1  0  0  0
  2 20  2  0  0  0  0
  2 23  1  0  0  0  0
  3 16  1  6  0  0  0
  3 21  2  0  0  0  0
  3 24  1  0  0  0  0
  3 25  1  0  0  0  0
  4  6  1  0  0  0  0
  5  4  1  0  0  0  0
  6  7  1  0  0  0  0
  6  8  2  0  0  0  0
  7 12  1  0  0  0  0
  8  9  1  0  0  0  0
  8 10  1  0  0  0  0
 10 11  1  0  0  0  0
 10 12  2  0  0  0  0
 12 32  1  0  0  0  0
 13 17  1  0  0  0  0
 17 18  1  1  0  0  0
 17 22  1  0  0  0  0
 23  1  1  0  0  0  0
 24  2  1  0  0  0  0
 26 22  1  1  0  0  0
 27 26  1  0  0  0  0
 27 28  1  0  0  0  0
 27 30  1  1  0  0  0
 28 13  1  0  0  0  0
 28 29  1  1  0  0  0
 31 30  1  0  0  0  0
 32 26  1  0  0  0  0
 32 31  1  0  0  0  0
M  CHG  3  14  -1  15  -1  16  -1
M  END
>  <CHROM.1>
165.27767805,-129.86419231,143.26399866,-14.40281231,177.01794314,-30.05963258
-176.84700202,64.63256257,69.71036908,8.84379250,1.85985699,1.69603683,-0.68870087
-2.30815164

>  <Name>
2au4_lig

>  <RI>
0

>  <Rbt.Current_Directory>
/home/itssahil/PROJECTS/Mol_Feturizer/New_Systems/rnas/2au4

>  <Rbt.Executable>
rbdock ($Id: //depot/dev/client3/rdock/2013.1/src/exe/rbdock.cxx#4 $)

>  <Rbt.Library>
libRbt.so (2013.1, Build901 2013/11/27)

>  <Rbt.Parameter_File>
/export/apps/rDock/src/rDock_2013.1_src/data/scripts/dock_solv.prm

>  <Rbt.Receptor>
prm/pocket_docking_6.prm

>  <SCORE>
-41.6645

>  <SCORE.INTER>
-17.8639

>  <SCORE.INTER.CONST>
1

>  <SCORE.INTER.POLAR>
-2.09068

>  <SCORE.INTER.ROT>
8

>  <SCORE.INTER.SOLV>
28.6791

>  <SCORE.INTER.VDW>
-23.4334

>  <SCORE.INTER.norm>
-0.558248

>  <SCORE.INTRA>
-23.8005

>  <SCORE.INTRA.DIHEDRAL>
-46.9623

>  <SCORE.INTRA.DIHEDRAL.0>
76.3625

>  <SCORE.INTRA.POLAR>
0

>  <SCORE.INTRA.POLAR.0>
0

>  <SCORE.INTRA.REPUL>
0.0637023

>  <SCORE.INTRA.REPUL.0>
0.12705

>  <SCORE.INTRA.SOLV>
-4.72174

>  <SCORE.INTRA.SOLV.lig_0>
-119.383

>  <SCORE.INTRA.VDW>
1.72299

>  <SCORE.INTRA.VDW.0>
-5.10464

>  <SCORE.INTRA.norm>
-0.743766

>  <SCORE.RESTR>
0

>  <SCORE.RESTR.CAVITY>
0

>  <SCORE.RESTR.norm>
0

>  <SCORE.SYSTEM>
0

>  <SCORE.SYSTEM.CONST>
0

>  <SCORE.SYSTEM.DIHEDRAL>
0

>  <SCORE.SYSTEM.SOLV>
0

>  <SCORE.SYSTEM.norm>
0

>  <SCORE.heavy>
32

>  <SCORE.norm>
-1.30201

>  <RMSD>
7.491

$$$$
2au4_lig
 OpenBabel11021811423D
libRbt.so/2013.1/901 2013/11/27
 32 34  0  0  0  0  0  0  0  0999 V2000
   68.4963    6.6260    2.1009 P   0  0  1  0  0  0  0  0  0  0  0  0
   67.3771    6.5708   -0.3717 P   0  0  1  0  0  0  0  0  0  0  0  0
   69.3959    5.2414   -1.6357 P   0  0  2  0  0  0  0  0  0  0  0  0
   69.2555    7.7176    4.3949 C   0  0  0  0  0  0  0  0  0  0  0  0
   69.1991    7.7906    2.9606 O   0  0  0  0  0  0  0  0  0  0  0  0
   69.9260    8.9355    5.0136 C   0  0  0  0  0  0  0  0  0  0  0  0
   70.9329    9.4654    4.1274 O   0  0  0  0  0  0  0  0  0  0  0  0
   68.9069   10.0308    5.2862 C   0  0  0  0  0  0  0  0  0  0  0  0
   68.8009   10.2936    6.6907 O   0  0  0  0  0  0  0  0  0  0  0  0
   69.3820   11.2542    4.5394 C   0  0  0  0  0  0  0  0  0  0  0  0
   69.5950   12.3567    5.4311 O   0  0  0  0  0  0  0  0  0  0  0  0
   70.6769   10.8588    3.8509 C   0  0  0  0  0  0  0  0  0  0  0  0
   68.5180   13.6037    0.1266 N   0  0  0  0  0  0  0  0  0  0  0  0
   69.4626    5.5236    1.9229 O   0  5  0  0  0  0  0  0  0  0  0  0
   66.0903    6.2410    0.2715 O   0  5  0  0  0  0  0  0  0  0  0  0
   68.8451    5.3750   -2.9995 O   0  5  0  0  0  0  0  0  0  0  0  0
   68.3259   13.6743    1.4859 C   0  0  1  0  0  0  0  0  0  0  0  0
   67.4530   14.5784    1.9100 N   0  0  0  0  0  0  0  0  0  0  0  0
   67.1610    6.3555    2.6754 O   0  0  0  0  0  0  0  0  0  0  0  0
   67.4001    7.3475   -1.6285 O   0  0  0  0  0  0  0  0  0  0  0  0
   70.2853    4.1083   -1.3052 O   0  0  0  0  0  0  0  0  0  0  0  0
   68.9548   12.8976    2.3644 N   0  0  0  0  0  0  0  0  0  0  0  0
   68.2853    7.3222    0.6899 O   0  0  0  0  0  0  0  0  0  0  0  0
   68.1750    5.2179   -0.6132 O   0  0  0  0  0  0  0  0  0  0  0  0
   70.1491    6.6085   -1.2555 O   0  0  0  0  0  0  0  0  0  0  0  0
   69.8029   12.0315    1.7635 C   0  0  2  0  0  0  0  0  0  0  0  0
   70.0560   11.8945    0.4081 C   0  0  2  0  0  0  0  0  0  0  0  0
   69.3776   12.7291   -0.5136 C   0  0  1  0  0  0  0  0  0  0  0  0
   69.4558   12.7329   -1.7348 O   0  0  0  0  0  0  0  0  0  0  0  0
   70.9975   10.8860    0.1767 N   0  0  0  0  0  0  0  0  0  0  0  0
   71.2468   10.4867    1.3810 C   0  0  0  0  0  0  0  0  0  0  0  0
   70.5909   11.1003    2.3975 N   0  0  0  0  0  0  0  0  0  0  0  0
  1  5  1  1  0  0  0
  1 14  1  0  0  0  0
  1 19  2  0  0  0  0
  2 15  1  1  0  0  0
  2 20  2  0  0  0  0
  2 23  1  0  0  0  0
  3 16  1  6  0  0  0
  3 21  2  0  0  0  0
  3 24  1  0  0  0  0
  3 25  1  0  0  0  0
  4  6  1  0  0  0  0
  5  4  1  0  0  0  0
  6  7  1  0  0  0  0
  6  8  2  0  0  0  0
  7 12  1  0  0  0  0
  8  9  1  0  0  0  0
  8 10  1  0  0  0  0
 10 11  1  0  0  0  0
 10 12  2  0  0  0  0
 12 32  1  0  0  0  0
 13 17  1  0  0  0  0
 17 18  1  6  0  0  0
 17 22  1  0  0  0  0
 23  1  1  0  0  0  0
 24  2  1  0  0  0  0
 26 22  1  6  0  0  0
 27 26  1  0  0  0  0
 27 28  1  0  0  0  0
 27 30  1  6  0  0  0
 28 13  1  0  0  0  0
 28 29  1  6  0  0  0
 31 30  1  0  0  0  0
 32 26  1  0  0  0  0
 32 31  1  0  0  0  0
M  CHG  3  14  -1  15  -1  16  -1
M  END
>  <CHROM.1>
-82.43758877,52.30398348,-71.33129915,-31.30009979,-178.37739082,147.36420755
-169.36774653,163.58628983,69.04500134,8.86431180,1.34094132,-3.13400440
-1.46732650,-1.04237758

>  <Name>
2au4_lig

>  <RI>
0

>  <Rbt.Current_Directory>
/home/itssahil/PROJECTS/Mol_Feturizer/New_Systems/rnas/2au4

>  <Rbt.Executable>
rbdock ($Id: //depot/dev/client3/rdock/2013.1/src/exe/rbdock.cxx#4 $)

>  <Rbt.Library>
libRbt.so (2013.1, Build901 2013/11/27)

>  <Rbt.Parameter_File>
/export/apps/rDock/src/rDock_2013.1_src/data/scripts/dock_solv.prm

>  <Rbt.Receptor>
prm/pocket_docking_5.prm

>  <SCORE>
-39.8575

>  <SCORE.INTER>
-13.117

>  <SCORE.INTER.CONST>
1

>  <SCORE.INTER.POLAR>
-0.733083

>  <SCORE.INTER.ROT>
8

>  <SCORE.INTER.SOLV>
30.8509

>  <SCORE.INTER.VDW>
-25.518

>  <SCORE.INTER.norm>
-0.409907

>  <SCORE.INTRA>
-26.7404

>  <SCORE.INTRA.DIHEDRAL>
-49.2655

>  <SCORE.INTRA.DIHEDRAL.0>
76.3625

>  <SCORE.INTRA.POLAR>
0

>  <SCORE.INTRA.POLAR.0>
0

>  <SCORE.INTRA.REPUL>
-0.12705

>  <SCORE.INTRA.REPUL.0>
0.12705

>  <SCORE.INTRA.SOLV>
-4.69834

>  <SCORE.INTRA.SOLV.lig_0>
-119.383

>  <SCORE.INTRA.VDW>
0.876728

>  <SCORE.INTRA.VDW.0>
-5.10464

>  <SCORE.INTRA.norm>
-0.835638

>  <SCORE.RESTR>
0

>  <SCORE.RESTR.CAVITY>
0

>  <SCORE.RESTR.norm>
0

>  <SCORE.SYSTEM>
0

>  <SCORE.SYSTEM.CONST>
0

>  <SCORE.SYSTEM.DIHEDRAL>
0

>  <SCORE.SYSTEM.SOLV>
0

>  <SCORE.SYSTEM.norm>
0

>  <SCORE.heavy>
32

>  <SCORE.norm>
-1.24555

>  <RMSD>
7.492

$$$$
2au4_lig
 OpenBabel11021811423D
libRbt.so/2013.1/901 2013/11/27
 32 34  0  0  0  0  0  0  0  0999 V2000
   72.1243   12.8933    2.1800 P   0  0  1  0  0  0  0  0  0  0  0  0
   72.0945   13.4868    4.8289 P   0  0  1  0  0  0  0  0  0  0  0  0
   69.4853   14.1891    5.2024 P   0  0  2  0  0  0  0  0  0  0  0  0
   70.2159   11.4087    1.0917 C   0  0  0  0  0  0  0  0  0  0  0  0
   71.6161   11.6193    1.3387 O   0  0  0  0  0  0  0  0  0  0  0  0
   69.4300   11.1623    2.3712 C   0  0  0  0  0  0  0  0  0  0  0  0
   68.0189   11.3567    2.1454 O   0  0  0  0  0  0  0  0  0  0  0  0
   69.6417    9.7406    2.8679 C   0  0  0  0  0  0  0  0  0  0  0  0
   70.2961    9.7356    4.1425 O   0  0  0  0  0  0  0  0  0  0  0  0
   68.2729    9.1095    2.9578 C   0  0  0  0  0  0  0  0  0  0  0  0
   67.9922    8.6661    4.2923 O   0  0  0  0  0  0  0  0  0  0  0  0
   67.2813   10.1749    2.5232 C   0  0  0  0  0  0  0  0  0  0  0  0
   64.4382   11.4641   -1.5167 N   0  0  0  0  0  0  0  0  0  0  0  0
   73.5991   12.8560    2.2464 O   0  5  0  0  0  0  0  0  0  0  0  0
   72.0402   12.6864    6.0677 O   0  5  0  0  0  0  0  0  0  0  0  0
   68.7277   15.3932    5.5991 O   0  5  0  0  0  0  0  0  0  0  0  0
   65.1121   12.2709   -0.6310 C   0  0  1  0  0  0  0  0  0  0  0  0
   65.0183   13.5777   -0.8377 N   0  0  0  0  0  0  0  0  0  0  0  0
   71.4356   14.0994    1.6727 O   0  0  0  0  0  0  0  0  0  0  0  0
   73.3647   14.1119    4.4052 O   0  0  0  0  0  0  0  0  0  0  0  0
   69.5142   13.0081    6.0903 O   0  0  0  0  0  0  0  0  0  0  0  0
   65.8278   11.8119    0.3926 N   0  0  0  0  0  0  0  0  0  0  0  0
   71.5629   12.5895    3.6336 O   0  0  0  0  0  0  0  0  0  0  0  0
   70.9911   14.6264    4.9227 O   0  0  0  0  0  0  0  0  0  0  0  0
   68.9771   13.7238    3.7513 O   0  0  0  0  0  0  0  0  0  0  0  0
   65.8131   10.4607    0.4594 C   0  0  2  0  0  0  0  0  0  0  0  0
   65.1642    9.5764   -0.3872 C   0  0  2  0  0  0  0  0  0  0  0  0
   64.4062   10.0818   -1.4718 C   0  0  1  0  0  0  0  0  0  0  0  0
   63.7536    9.4582   -2.2980 O   0  0  0  0  0  0  0  0  0  0  0  0
   65.3860    8.2533    0.0096 N   0  0  0  0  0  0  0  0  0  0  0  0
   66.1379    8.4198    1.0483 C   0  0  0  0  0  0  0  0  0  0  0  0
   66.4519    9.6909    1.4026 N   0  0  0  0  0  0  0  0  0  0  0  0
  1  5  1  6  0  0  0
  1 14  1  0  0  0  0
  1 19  2  0  0  0  0
  2 15  1  1  0  0  0
  2 20  2  0  0  0  0
  2 23  1  0  0  0  0
  3 16  1  1  0  0  0
  3 21  2  0  0  0  0
  3 24  1  0  0  0  0
  3 25  1  0  0  0  0
  4  6  1  0  0  0  0
  5  4  1  0  0  0  0
  6  7  1  0  0  0  0
  6  8  2  0  0  0  0
  7 12  1  0  0  0  0
  8  9  1  0  0  0  0
  8 10  1  0  0  0  0
 10 11  1  0  0  0  0
 10 12  2  0  0  0  0
 12 32  1  0  0  0  0
 13 17  1  0  0  0  0
 17 18  1  1  0  0  0
 17 22  1  0  0  0  0
 23  1  1  0  0  0  0
 24  2  1  0  0  0  0
 26 22  1  1  0  0  0
 27 26  1  0  0  0  0
 27 28  1  0  0  0  0
 27 30  1  1  0  0  0
 28 13  1  0  0  0  0
 28 29  1  1  0  0  0
 31 30  1  0  0  0  0
 32 26  1  0  0  0  0
 32 31  1  0  0  0  0
M  CHG  3  14  -1  15  -1  16  -1
M  END
>  <CHROM.1>
-178.92650025,-151.57672482,165.21587046,162.69344030,-64.22874445,-34.84696837
168.42001326,-55.17912176,68.94181141,11.87994981,2.46740181,-0.41227978
0.62864567,-3.11122080

>  <Name>
2au4_lig

>  <RI>
0

>  <Rbt.Current_Directory>
/home/itssahil/PROJECTS/Mol_Feturizer/New_Systems/rnas/2au4

>  <Rbt.Executable>
rbdock ($Id: //depot/dev/client3/rdock/2013.1/src/exe/rbdock.cxx#4 $)

>  <Rbt.Library>
libRbt.so (2013.1, Build901 2013/11/27)

>  <Rbt.Parameter_File>
/export/apps/rDock/src/rDock_2013.1_src/data/scripts/dock_solv.prm

>  <Rbt.Receptor>
prm/pocket_docking_7.prm

>  <SCORE>
-36.8889

>  <SCORE.INTER>
-11.8201

>  <SCORE.INTER.CONST>
1

>  <SCORE.INTER.POLAR>
-2.83477

>  <SCORE.INTER.ROT>
8

>  <SCORE.INTER.SOLV>
15.66

>  <SCORE.INTER.VDW>
-12.5842

>  <SCORE.INTER.norm>
-0.369377

>  <SCORE.INTRA>
-25.0688

>  <SCORE.INTRA.DIHEDRAL>
-48.1947

>  <SCORE.INTRA.DIHEDRAL.0>
76.3625

>  <SCORE.INTRA.POLAR>
0

>  <SCORE.INTRA.POLAR.0>
0

>  <SCORE.INTRA.REPUL>
0.044515

>  <SCORE.INTRA.REPUL.0>
0.12705

>  <SCORE.INTRA.SOLV>
-3.9133

>  <SCORE.INTRA.SOLV.lig_0>
-119.383

>  <SCORE.INTRA.VDW>
0.762617

>  <SCORE.INTRA.VDW.0>
-5.10464

>  <SCORE.INTRA.norm>
-0.7834

>  <SCORE.RESTR>
0

>  <SCORE.RESTR.CAVITY>
0

>  <SCORE.RESTR.norm>
0

>  <SCORE.SYSTEM>
0

>  <SCORE.SYSTEM.CONST>
0

>  <SCORE.SYSTEM.DIHEDRAL>
0

>  <SCORE.SYSTEM.SOLV>
0

>  <SCORE.SYSTEM.norm>
0

>  <SCORE.heavy>
32

>  <SCORE.norm>
-1.15278

>  <RMSD>
7.516

$$$$
2au4_lig
 OpenBabel11021811423D
libRbt.so/2013.1/901 2013/11/27
 32 34  0  0  0  0  0  0  0  0999 V2000
   68.3659   11.4054    5.9888 P   0  0  1  0  0  0  0  0  0  0  0  0
   71.0386   11.2092    5.5560 P   0  0  1  0  0  0  0  0  0  0  0  0
   72.1333   13.6135    4.8764 P   0  0  2  0  0  0  0  0  0  0  0  0
   67.5790   12.9000    3.9449 C   0  0  0  0  0  0  0  0  0  0  0  0
   68.4349   12.7370    5.0879 O   0  0  0  0  0  0  0  0  0  0  0  0
   68.1289   13.9067    2.9450 C   0  0  0  0  0  0  0  0  0  0  0  0
   68.6177   13.2354    1.7657 O   0  0  0  0  0  0  0  0  0  0  0  0
   67.0487   14.8893    2.5208 C   0  0  0  0  0  0  0  0  0  0  0  0
   67.3807   16.2224    2.9275 O   0  0  0  0  0  0  0  0  0  0  0  0
   66.9452   14.7902    1.0175 C   0  0  0  0  0  0  0  0  0  0  0  0
   67.1997   16.0566    0.3950 O   0  0  0  0  0  0  0  0  0  0  0  0
   67.9739   13.7597    0.5851 C   0  0  0  0  0  0  0  0  0  0  0  0
   67.9140    8.7665   -0.4779 N   0  0  0  0  0  0  0  0  0  0  0  0
   67.4356   11.6436    7.1107 O   0  5  0  0  0  0  0  0  0  0  0  0
   72.3014   11.2191    6.3199 O   0  5  0  0  0  0  0  0  0  0  0  0
   73.0648   13.3675    3.7570 O   0  5  0  0  0  0  0  0  0  0  0  0
   68.7319    9.4667    0.3766 C   0  0  1  0  0  0  0  0  0  0  0  0
   69.6478    8.7596    1.0249 N   0  0  0  0  0  0  0  0  0  0  0  0
   68.1696   10.2421    5.0975 O   0  0  0  0  0  0  0  0  0  0  0  0
   70.7463   10.1029    4.6211 O   0  0  0  0  0  0  0  0  0  0  0  0
   72.6245   13.5728    6.2696 O   0  0  0  0  0  0  0  0  0  0  0  0
   68.6488   10.7804    0.5716 N   0  0  0  0  0  0  0  0  0  0  0  0
   69.8352   11.3183    6.5837 O   0  0  0  0  0  0  0  0  0  0  0  0
   70.9314   12.5757    4.7521 O   0  0  0  0  0  0  0  0  0  0  0  0
   71.4074   15.0257    4.6326 O   0  0  0  0  0  0  0  0  0  0  0  0
   67.6673   11.3445   -0.1693 C   0  0  2  0  0  0  0  0  0  0  0  0
   66.8017   10.7162   -1.0502 C   0  0  2  0  0  0  0  0  0  0  0  0
   66.9041    9.3172   -1.2464 C   0  0  1  0  0  0  0  0  0  0  0  0
   66.2480    8.6053   -1.9948 O   0  0  0  0  0  0  0  0  0  0  0  0
   65.9244   11.6390   -1.6297 N   0  0  0  0  0  0  0  0  0  0  0  0
   66.3085   12.7417   -1.0743 C   0  0  0  0  0  0  0  0  0  0  0  0
   67.3362   12.6786   -0.1913 N   0  0  0  0  0  0  0  0  0  0  0  0
  1  5  1  6  0  0  0
  1 14  1  0  0  0  0
  1 19  2  0  0  0  0
  2 15  1  1  0  0  0
  2 20  2  0  0  0  0
  2 23  1  0  0  0  0
  3 16  1  6  0  0  0
  3 21  2  0  0  0  0
  3 24  1  0  0  0  0
  3 25  1  0  0  0  0
  4  6  1  0  0  0  0
  5  4  1  0  0  0  0
  6  7  1  0  0  0  0
  6  8  2  0  0  0  0
  7 12  1  0  0  0  0
  8  9  1  0  0  0  0
  8 10  1  0  0  0  0
 10 11  1  0  0  0  0
 10 12  2  0  0  0  0
 12 32  1  0  0  0  0
 13 17  1  0  0  0  0
 17 18  1  6  0  0  0
 17 22  1  0  0  0  0
 23  1  1  0  0  0  0
 24  2  1  0  0  0  0
 26 22  1  6  0  0  0
 27 26  1  0  0  0  0
 27 28  1  0  0  0  0
 27 30  1  6  0  0  0
 28 13  1  0  0  0  0
 28 29  1  6  0  0  0
 31 30  1  0  0  0  0
 32 26  1  0  0  0  0
 32 31  1  0  0  0  0
M  CHG  3  14  -1  15  -1  16  -1
M  END
>  <CHROM.1>
-93.31576931,176.79812174,93.60315304,107.57486864,-157.86385123,-23.45544551
-59.58302041,1.48018629,68.98472256,12.14106878,2.93899004,-0.31093302,0.99131124
-2.96652507

>  <Name>
2au4_lig

>  <RI>
0

>  <Rbt.Current_Directory>
/home/itssahil/PROJECTS/Mol_Feturizer/New_Systems/rnas/2au4

>  <Rbt.Executable>
rbdock ($Id: //depot/dev/client3/rdock/2013.1/src/exe/rbdock.cxx#4 $)

>  <Rbt.Library>
libRbt.so (2013.1, Build901 2013/11/27)

>  <Rbt.Parameter_File>
/export/apps/rDock/src/rDock_2013.1_src/data/scripts/dock_solv.prm

>  <Rbt.Receptor>
prm/pocket_docking_8.prm

>  <SCORE>
-36.2872

>  <SCORE.INTER>
-15.2982

>  <SCORE.INTER.CONST>
1

>  <SCORE.INTER.POLAR>
-3.45856

>  <SCORE.INTER.ROT>
8

>  <SCORE.INTER.SOLV>
20.5165

>  <SCORE.INTER.VDW>
-14.4424

>  <SCORE.INTER.norm>
-0.478067

>  <SCORE.INTRA>
-20.989

>  <SCORE.INTRA.DIHEDRAL>
-44.2399

>  <SCORE.INTRA.DIHEDRAL.0>
76.3625

>  <SCORE.INTRA.POLAR>
0

>  <SCORE.INTRA.POLAR.0>
0

>  <SCORE.INTRA.REPUL>
0.174718

>  <SCORE.INTRA.REPUL.0>
0.12705

>  <SCORE.INTRA.SOLV>
-5.13299

>  <SCORE.INTRA.SOLV.lig_0>
-119.383

>  <SCORE.INTRA.VDW>
2.82386

>  <SCORE.INTRA.VDW.0>
-5.10464

>  <SCORE.INTRA.norm>
-0.655907

>  <SCORE.RESTR>
0

>  <SCORE.RESTR.CAVITY>
0

>  <SCORE.RESTR.norm>
0

>  <SCORE.SYSTEM>
0

>  <SCORE.SYSTEM.CONST>
0

>  <SCORE.SYSTEM.DIHEDRAL>
0

>  <SCORE.SYSTEM.SOLV>
0

>  <SCORE.SYSTEM.norm>
0

>  <SCORE.heavy>
32

>  <SCORE.norm>
-1.13397

>  <RMSD>
7.528

$$$$
2au4_lig
 OpenBabel11021811423D
libRbt.so/2013.1/901 2013/11/27
 32 34  0  0  0  0  0  0  0  0999 V2000
   68.0852    8.3251    3.6816 P   0  0  1  0  0  0  0  0  0  0  0  0
   67.0031    7.7356    1.2627 P   0  0  1  0  0  0  0  0  0  0  0  0
   65.1364    7.1177   -0.6279 P   0  0  2  0  0  0  0  0  0  0  0  0
   70.0530   10.0346    3.1962 C   0  0  0  0  0  0  0  0  0  0  0  0
   69.4171    8.7799    2.9014 O   0  0  0  0  0  0  0  0  0  0  0  0
   69.2221   11.2277    2.7473 C   0  0  0  0  0  0  0  0  0  0  0  0
   69.9867   12.4463    2.8506 O   0  0  0  0  0  0  0  0  0  0  0  0
   68.7809   11.0632    1.3014 C   0  0  0  0  0  0  0  0  0  0  0  0
   67.3540   10.9715    1.2086 O   0  0  0  0  0  0  0  0  0  0  0  0
   69.2969   12.2705    0.5555 C   0  0  0  0  0  0  0  0  0  0  0  0
   68.2246   13.0019   -0.0537 O   0  0  0  0  0  0  0  0  0  0  0  0
   70.0221   13.1274    1.5786 C   0  0  0  0  0  0  0  0  0  0  0  0
   73.2127   13.7531   -2.3578 N   0  0  0  0  0  0  0  0  0  0  0  0
   68.1556    6.8703    3.9251 O   0  5  0  0  0  0  0  0  0  0  0  0
   68.0035    8.3470    0.3664 O   0  5  0  0  0  0  0  0  0  0  0  0
   66.3086    7.0134   -1.5204 O   0  5  0  0  0  0  0  0  0  0  0  0
   71.8597   13.5102   -2.3616 C   0  0  1  0  0  0  0  0  0  0  0  0
   71.2824   13.4174   -3.5521 N   0  0  0  0  0  0  0  0  0  0  0  0
   67.8574    9.2549    4.8084 O   0  0  0  0  0  0  0  0  0  0  0  0
   67.1089    6.3075    1.6272 O   0  0  0  0  0  0  0  0  0  0  0  0
   63.8627    7.6636   -1.1411 O   0  0  0  0  0  0  0  0  0  0  0  0
   71.1298   13.3655   -1.2584 N   0  0  0  0  0  0  0  0  0  0  0  0
   66.9507    8.5845    2.6018 O   0  0  0  0  0  0  0  0  0  0  0  0
   65.5611    7.9807    0.6416 O   0  0  0  0  0  0  0  0  0  0  0  0
   64.8514    5.6703    0.0081 O   0  0  0  0  0  0  0  0  0  0  0  0
   71.8747   13.4844   -0.1352 C   0  0  2  0  0  0  0  0  0  0  0  0
   73.2355   13.7279   -0.0416 C   0  0  2  0  0  0  0  0  0  0  0  0
   73.9977   13.8790   -1.2258 C   0  0  1  0  0  0  0  0  0  0  0  0
   75.2012   14.0719   -1.3348 O   0  0  0  0  0  0  0  0  0  0  0  0
   73.6409   13.7814    1.2963 N   0  0  0  0  0  0  0  0  0  0  0  0
   72.5233   13.5706    1.9115 C   0  0  0  0  0  0  0  0  0  0  0  0
   71.4131   13.3816    1.1557 N   0  0  0  0  0  0  0  0  0  0  0  0
  1  5  1  6  0  0  0
  1 14  1  0  0  0  0
  1 19  2  0  0  0  0
  2 15  1  6  0  0  0
  2 20  2  0  0  0  0
  2 23  1  0  0  0  0
  3 16  1  6  0  0  0
  3 21  2  0  0  0  0
  3 24  1  0  0  0  0
  3 25  1  0  0  0  0
  4  6  1  0  0  0  0
  5  4  1  0  0  0  0
  6  7  1  0  0  0  0
  6  8  2  0  0  0  0
  7 12  1  0  0  0  0
  8  9  1  0  0  0  0
  8 10  1  0  0  0  0
 10 11  1  0  0  0  0
 10 12  2  0  0  0  0
 12 32  1  0  0  0  0
 13 17  1  0  0  0  0
 17 18  1  6  0  0  0
 17 22  1  0  0  0  0
 23  1  1  0  0  0  0
 24  2  1  0  0  0  0
 26 22  1  6  0  0  0
 27 26  1  0  0  0  0
 27 28  1  0  0  0  0
 27 30  1  6  0  0  0
 28 13  1  0  0  0  0
 28 29  1  6  0  0  0
 31 30  1  0  0  0  0
 32 26  1  0  0  0  0
 32 31  1  0  0  0  0
M  CHG  3  14  -1  15  -1  16  -1
M  END
>  <CHROM.1>
-142.05950208,-79.82037610,-40.37246307,-170.20806601,-69.02861503,151.45757893
63.57088815,74.33385389,69.01977708,10.31264449,0.84398866,-2.80875474,-0.73252805
-1.33357559

>  <Name>
2au4_lig

>  <RI>
0

>  <Rbt.Current_Directory>
/home/itssahil/PROJECTS/Mol_Feturizer/New_Systems/rnas/2au4

>  <Rbt.Executable>
rbdock ($Id: //depot/dev/client3/rdock/2013.1/src/exe/rbdock.cxx#4 $)

>  <Rbt.Library>
libRbt.so (2013.1, Build901 2013/11/27)

>  <Rbt.Parameter_File>
/export/apps/rDock/src/rDock_2013.1_src/data/scripts/dock_solv.prm

>  <Rbt.Receptor>
prm/pocket_docking_5.prm

>  <SCORE>
-44.5359

>  <SCORE.INTER>
-19.1304

>  <SCORE.INTER.CONST>
1

>  <SCORE.INTER.POLAR>
-1.64551

>  <SCORE.INTER.ROT>
8

>  <SCORE.INTER.SOLV>
26.9641

>  <SCORE.INTER.VDW>
-25.19

>  <SCORE.INTER.norm>
-0.597826

>  <SCORE.INTRA>
-25.4055

>  <SCORE.INTRA.DIHEDRAL>
-47.8262

>  <SCORE.INTRA.DIHEDRAL.0>
76.3625

>  <SCORE.INTRA.POLAR>
0

>  <SCORE.INTRA.POLAR.0>
0

>  <SCORE.INTRA.REPUL>
-0.12705

>  <SCORE.INTRA.REPUL.0>
0.12705

>  <SCORE.INTRA.SOLV>
-2.43805

>  <SCORE.INTRA.SOLV.lig_0>
-119.383

>  <SCORE.INTRA.VDW>
0.361901

>  <SCORE.INTRA.VDW.0>
-5.10464

>  <SCORE.INTRA.norm>
-0.793922

>  <SCORE.RESTR>
0

>  <SCORE.RESTR.CAVITY>
0

>  <SCORE.RESTR.norm>
0

>  <SCORE.SYSTEM>
0

>  <SCORE.SYSTEM.CONST>
0

>  <SCORE.SYSTEM.DIHEDRAL>
0

>  <SCORE.SYSTEM.SOLV>
0

>  <SCORE.SYSTEM.norm>
0

>  <SCORE.heavy>
32

>  <SCORE.norm>
-1.39175

>  <RMSD>
7.532

$$$$
2au4_lig
 OpenBabel11021811423D
libRbt.so/2013.1/901 2013/11/27
 32 34  0  0  0  0  0  0  0  0999 V2000
   66.7041   10.1993    4.6105 P   0  0  1  0  0  0  0  0  0  0  0  0
   66.5989    9.3474    2.0351 P   0  0  1  0  0  0  0  0  0  0  0  0
   68.0499    7.0526    1.7715 P   0  0  2  0  0  0  0  0  0  0  0  0
   67.0989   12.8211    4.6377 C   0  0  0  0  0  0  0  0  0  0  0  0
   67.0442   11.5962    3.8878 O   0  0  0  0  0  0  0  0  0  0  0  0
   67.2218   14.0460    3.7432 C   0  0  0  0  0  0  0  0  0  0  0  0
   68.6072   14.4004    3.5556 O   0  0  0  0  0  0  0  0  0  0  0  0
   66.6091   13.7789    2.3773 C   0  0  0  0  0  0  0  0  0  0  0  0
   65.4836   14.6346    2.1447 O   0  0  0  0  0  0  0  0  0  0  0  0
   67.6991   14.0276    1.3623 C   0  0  0  0  0  0  0  0  0  0  0  0
   67.3178   15.0486    0.4305 O   0  0  0  0  0  0  0  0  0  0  0  0
   68.9287   14.4468    2.1493 C   0  0  0  0  0  0  0  0  0  0  0  0
   73.1235   12.1550    3.9430 N   0  0  0  0  0  0  0  0  0  0  0  0
   67.6016   10.0395    5.7723 O   0  5  0  0  0  0  0  0  0  0  0  0
   65.1610    9.6725    2.1039 O   0  5  0  0  0  0  0  0  0  0  0  0
   69.1436    8.0008    2.0649 O   0  5  0  0  0  0  0  0  0  0  0  0
   72.2322   12.9754    4.5927 C   0  0  1  0  0  0  0  0  0  0  0  0
   72.4847   13.2224    5.8711 N   0  0  0  0  0  0  0  0  0  0  0  0
   65.2393   10.1033    4.7869 O   0  0  0  0  0  0  0  0  0  0  0  0
   67.5319   10.2560    1.3370 O   0  0  0  0  0  0  0  0  0  0  0  0
   68.2280    6.0170    0.7324 O   0  0  0  0  0  0  0  0  0  0  0  0
   71.1646   13.5171    4.0117 N   0  0  0  0  0  0  0  0  0  0  0  0
   67.1315    9.1338    3.5140 O   0  0  0  0  0  0  0  0  0  0  0  0
   66.7528    7.8990    1.3998 O   0  0  0  0  0  0  0  0  0  0  0  0
   67.6208    6.3317    3.1415 O   0  0  0  0  0  0  0  0  0  0  0  0
   71.0605   13.1667    2.7091 C   0  0  2  0  0  0  0  0  0  0  0  0
   71.9091   12.3493    1.9800 C   0  0  2  0  0  0  0  0  0  0  0  0
   73.0413   11.7811    2.6137 C   0  0  1  0  0  0  0  0  0  0  0  0
   73.9039   11.0631    2.1261 O   0  0  0  0  0  0  0  0  0  0  0  0
   71.4676   12.2256    0.6583 N   0  0  0  0  0  0  0  0  0  0  0  0
   70.4042   12.9610    0.6733 C   0  0  0  0  0  0  0  0  0  0  0  0
   70.0720   13.5659    1.8410 N   0  0  0  0  0  0  0  0  0  0  0  0
  1  5  1  6  0  0  0
  1 14  1  0  0  0  0
  1 19  2  0  0  0  0
  2 15  1  6  0  0  0
  2 20  2  0  0  0  0
  2 23  1  0  0  0  0
  3 16  1  1  0  0  0
  3 21  2  0  0  0  0
  3 24  1  0  0  0  0
  3 25  1  0  0  0  0
  4  6  1  0  0  0  0
  5  4  1  0  0  0  0
  6  7  1  0  0  0  0
  6  8  2  0  0  0  0
  7 12  1  0  0  0  0
  8  9  1  0  0  0  0
  8 10  1  0  0  0  0
 10 11  1  0  0  0  0
 10 12  2  0  0  0  0
 12 32  1  0  0  0  0
 13 17  1  0  0  0  0
 17 18  1  6  0  0  0
 17 22  1  0  0  0  0
 23  1  1  0  0  0  0
 24  2  1  0  0  0  0
 26 22  1  6  0  0  0
 27 26  1  0  0  0  0
 27 28  1  0  0  0  0
 27 30  1  6  0  0  0
 28 13  1  0  0  0  0
 28 29  1  6  0  0  0
 31 30  1  0  0  0  0
 32 26  1  0  0  0  0
 32 31  1  0  0  0  0
M  CHG  3  14  -1  15  -1  16  -1
M  END
>  <CHROM.1>
-51.60002008,-45.73073858,-28.53560559,-92.89012745,-171.18668412,-25.05763454
-49.28804695,-153.82526510,68.59173641,11.12229956,2.76898665,2.22711415
-0.03481307,-3.04113701

>  <Name>
2au4_lig

>  <RI>
0

>  <Rbt.Current_Directory>
/home/itssahil/PROJECTS/Mol_Feturizer/New_Systems/rnas/2au4

>  <Rbt.Executable>
rbdock ($Id: //depot/dev/client3/rdock/2013.1/src/exe/rbdock.cxx#4 $)

>  <Rbt.Library>
libRbt.so (2013.1, Build901 2013/11/27)

>  <Rbt.Parameter_File>
/export/apps/rDock/src/rDock_2013.1_src/data/scripts/dock_solv.prm

>  <Rbt.Receptor>
prm/pocket_docking_8.prm

>  <SCORE>
-36.0496

>  <SCORE.INTER>
-11.2015

>  <SCORE.INTER.CONST>
1

>  <SCORE.INTER.POLAR>
-1.54992

>  <SCORE.INTER.ROT>
8

>  <SCORE.INTER.SOLV>
19.7855

>  <SCORE.INTER.VDW>
-17.8298

>  <SCORE.INTER.norm>
-0.350048

>  <SCORE.INTRA>
-24.8481

>  <SCORE.INTRA.DIHEDRAL>
-47.8687

>  <SCORE.INTRA.DIHEDRAL.0>
76.3625

>  <SCORE.INTRA.POLAR>
0

>  <SCORE.INTRA.POLAR.0>
0

>  <SCORE.INTRA.REPUL>
0.0716503

>  <SCORE.INTRA.REPUL.0>
0.12705

>  <SCORE.INTRA.SOLV>
-4.70882

>  <SCORE.INTRA.SOLV.lig_0>
-119.383

>  <SCORE.INTRA.VDW>
1.08238

>  <SCORE.INTRA.VDW.0>
-5.10464

>  <SCORE.INTRA.norm>
-0.776504

>  <SCORE.RESTR>
0

>  <SCORE.RESTR.CAVITY>
0

>  <SCORE.RESTR.norm>
0

>  <SCORE.SYSTEM>
0

>  <SCORE.SYSTEM.CONST>
0

>  <SCORE.SYSTEM.DIHEDRAL>
0

>  <SCORE.SYSTEM.SOLV>
0

>  <SCORE.SYSTEM.norm>
0

>  <SCORE.heavy>
32

>  <SCORE.norm>
-1.12655

>  <RMSD>
7.552

$$$$
2au4_lig
 OpenBabel11021811423D
libRbt.so/2013.1/901 2013/11/27
 32 34  0  0  0  0  0  0  0  0999 V2000
   69.1660    6.7973    0.2556 P   0  0  1  0  0  0  0  0  0  0  0  0
   66.9815    6.6954   -1.3528 P   0  0  1  0  0  0  0  0  0  0  0  0
   67.6899    5.7166   -3.7984 P   0  0  2  0  0  0  0  0  0  0  0  0
   68.9562    9.0598    1.6222 C   0  0  0  0  0  0  0  0  0  0  0  0
   69.6882    7.8527    1.3524 O   0  0  0  0  0  0  0  0  0  0  0  0
   69.2212    9.6009    3.0196 C   0  0  0  0  0  0  0  0  0  0  0  0
   70.6208    9.9050    3.1890 O   0  0  0  0  0  0  0  0  0  0  0  0
   68.4241   10.8726    3.2645 C   0  0  0  0  0  0  0  0  0  0  0  0
   67.4713   10.6849    4.3180 O   0  0  0  0  0  0  0  0  0  0  0  0
   69.4259   11.9442    3.6232 C   0  0  0  0  0  0  0  0  0  0  0  0
   69.1553   12.4950    4.9192 O   0  0  0  0  0  0  0  0  0  0  0  0
   70.7916   11.2800    3.5933 C   0  0  0  0  0  0  0  0  0  0  0  0
   71.2965   13.5481   -0.9528 N   0  0  0  0  0  0  0  0  0  0  0  0
   70.1333    6.7598   -0.8596 O   0  5  0  0  0  0  0  0  0  0  0  0
   66.9300    5.2756   -0.9534 O   0  5  0  0  0  0  0  0  0  0  0  0
   68.4666    6.1474   -4.9784 O   0  5  0  0  0  0  0  0  0  0  0  0
   70.1940   12.9436   -0.3971 C   0  0  1  0  0  0  0  0  0  0  0  0
   69.0931   12.9349   -1.1366 N   0  0  0  0  0  0  0  0  0  0  0  0
   68.7837    5.5477    0.9474 O   0  0  0  0  0  0  0  0  0  0  0  0
   65.7301    7.4458   -1.5860 O   0  0  0  0  0  0  0  0  0  0  0  0
   66.2438    5.4401   -3.9260 O   0  0  0  0  0  0  0  0  0  0  0  0
   70.1860   12.3826    0.8095 N   0  0  0  0  0  0  0  0  0  0  0  0
   67.8367    7.4844   -0.2747 O   0  0  0  0  0  0  0  0  0  0  0  0
   67.8784    6.8137   -2.6593 O   0  0  0  0  0  0  0  0  0  0  0  0
   68.4023    4.4236   -3.1651 O   0  0  0  0  0  0  0  0  0  0  0  0
   71.3882   12.4761    1.4231 C   0  0  2  0  0  0  0  0  0  0  0  0
   72.5447   13.0652    0.9380 C   0  0  2  0  0  0  0  0  0  0  0  0
   72.5361   13.6576   -0.3486 C   0  0  1  0  0  0  0  0  0  0  0  0
   73.4604   14.1961   -0.9428 O   0  0  0  0  0  0  0  0  0  0  0  0
   73.5850   12.9596    1.8673 N   0  0  0  0  0  0  0  0  0  0  0  0
   73.0030   12.3264    2.8329 C   0  0  0  0  0  0  0  0  0  0  0  0
   71.6985   11.9914    2.6716 N   0  0  0  0  0  0  0  0  0  0  0  0
  1  5  1  1  0  0  0
  1 14  1  0  0  0  0
  1 19  2  0  0  0  0
  2 15  1  1  0  0  0
  2 20  2  0  0  0  0
  2 23  1  0  0  0  0
  3 16  1  6  0  0  0
  3 21  2  0  0  0  0
  3 24  1  0  0  0  0
  3 25  1  0  0  0  0
  4  6  1  0  0  0  0
  5  4  1  0  0  0  0
  6  7  1  0  0  0  0
  6  8  2  0  0  0  0
  7 12  1  0  0  0  0
  8  9  1  0  0  0  0
  8 10  1  0  0  0  0
 10 11  1  0  0  0  0
 10 12  2  0  0  0  0
 12 32  1  0  0  0  0
 13 17  1  0  0  0  0
 17 18  1  6  0  0  0
 17 22  1  0  0  0  0
 23  1  1  0  0  0  0
 24  2  1  0  0  0  0
 26 22  1  6  0  0  0
 27 26  1  0  0  0  0
 27 28  1  0  0  0  0
 27 30  1  6  0  0  0
 28 13  1  0  0  0  0
 28 29  1  6  0  0  0
 31 30  1  0  0  0  0
 32 26  1  0  0  0  0
 32 31  1  0  0  0  0
M  CHG  3  14  -1  15  -1  16  -1
M  END
>  <CHROM.1>
114.16597594,42.27744694,171.51941322,60.21779458,155.11490731,77.74985998
-177.45442155,42.21845714,69.36434733,9.24055546,0.12770233,2.38391241,-0.95084324
-1.85183014

>  <Name>
2au4_lig

>  <RI>
0

>  <Rbt.Current_Directory>
/home/itssahil/PROJECTS/Mol_Feturizer/New_Systems/rnas/2au4

>  <Rbt.Executable>
rbdock ($Id: //depot/dev/client3/rdock/2013.1/src/exe/rbdock.cxx#4 $)

>  <Rbt.Library>
libRbt.so (2013.1, Build901 2013/11/27)

>  <Rbt.Parameter_File>
/export/apps/rDock/src/rDock_2013.1_src/data/scripts/dock_solv.prm

>  <Rbt.Receptor>
prm/pocket_docking_3.prm

>  <SCORE>
-15.8208

>  <SCORE.INTER>
-14.5832

>  <SCORE.INTER.CONST>
1

>  <SCORE.INTER.POLAR>
-1.85702

>  <SCORE.INTER.ROT>
8

>  <SCORE.INTER.SOLV>
34.6291

>  <SCORE.INTER.VDW>
-24.0085

>  <SCORE.INTER.norm>
-0.455726

>  <SCORE.INTRA>
-2.08895

>  <SCORE.INTRA.DIHEDRAL>
-0.40349

>  <SCORE.INTRA.DIHEDRAL.0>
76.3625

>  <SCORE.INTRA.POLAR>
0

>  <SCORE.INTRA.POLAR.0>
0

>  <SCORE.INTRA.REPUL>
-0.12705

>  <SCORE.INTRA.REPUL.0>
0.12705

>  <SCORE.INTRA.SOLV>
-4.67664

>  <SCORE.INTRA.SOLV.lig_0>
-119.383

>  <SCORE.INTRA.VDW>
1.08636

>  <SCORE.INTRA.VDW.0>
-5.10464

>  <SCORE.INTRA.norm>
-0.0652798

>  <SCORE.RESTR>
0.851416

>  <SCORE.RESTR.CAVITY>
0.851416

>  <SCORE.RESTR.norm>
0.0266068

>  <SCORE.SYSTEM>
0

>  <SCORE.SYSTEM.CONST>
0

>  <SCORE.SYSTEM.DIHEDRAL>
0

>  <SCORE.SYSTEM.SOLV>
0

>  <SCORE.SYSTEM.norm>
0

>  <SCORE.heavy>
32

>  <SCORE.norm>
-0.494399

>  <RMSD>
7.614

$$$$
2au4_lig
 OpenBabel11021811423D
libRbt.so/2013.1/901 2013/11/27
 32 34  0  0  0  0  0  0  0  0999 V2000
   67.6290    8.4974   -1.6153 P   0  0  1  0  0  0  0  0  0  0  0  0
   68.5511    7.1220    0.5359 P   0  0  1  0  0  0  0  0  0  0  0  0
   70.2065    5.1350   -0.3313 P   0  0  2  0  0  0  0  0  0  0  0  0
   65.6289   10.2371   -1.5555 C   0  0  0  0  0  0  0  0  0  0  0  0
   67.0218    9.9766   -1.7959 O   0  0  0  0  0  0  0  0  0  0  0  0
   65.3262   11.7240   -1.4420 C   0  0  0  0  0  0  0  0  0  0  0  0
   64.4881   11.9854   -0.2976 O   0  0  0  0  0  0  0  0  0  0  0  0
   66.6097   12.5244   -1.2854 C   0  0  0  0  0  0  0  0  0  0  0  0
   66.8058   13.4014   -2.4014 O   0  0  0  0  0  0  0  0  0  0  0  0
   66.4746   13.3043    0.0007 C   0  0  0  0  0  0  0  0  0  0  0  0
   66.5848   14.7147   -0.2333 O   0  0  0  0  0  0  0  0  0  0  0  0
   65.1101   12.9565    0.5703 C   0  0  0  0  0  0  0  0  0  0  0  0
   67.7184   13.1276    4.9560 N   0  0  0  0  0  0  0  0  0  0  0  0
   66.5307    7.5186   -1.7437 O   0  5  0  0  0  0  0  0  0  0  0  0
   69.1754    7.3962    1.8448 O   0  5  0  0  0  0  0  0  0  0  0  0
   69.1643    4.2401   -0.8737 O   0  5  0  0  0  0  0  0  0  0  0  0
   67.9221   13.8298    3.7919 C   0  0  1  0  0  0  0  0  0  0  0  0
   68.9428   14.6766    3.7872 N   0  0  0  0  0  0  0  0  0  0  0  0
   68.8338    8.3748   -2.4637 O   0  0  0  0  0  0  0  0  0  0  0  0
   67.4166    6.1802    0.4384 O   0  0  0  0  0  0  0  0  0  0  0  0
   70.6962    4.9474    1.0503 O   0  0  0  0  0  0  0  0  0  0  0  0
   67.1660   13.6975    2.7048 N   0  0  0  0  0  0  0  0  0  0  0  0
   68.1015    8.5041   -0.0998 O   0  0  0  0  0  0  0  0  0  0  0  0
   69.6848    6.6339   -0.4649 O   0  0  0  0  0  0  0  0  0  0  0  0
   71.4669    5.1095   -1.3269 O   0  0  0  0  0  0  0  0  0  0  0  0
   66.1761   12.7920    2.8797 C   0  0  2  0  0  0  0  0  0  0  0  0
   65.9006   12.0444    4.0133 C   0  0  2  0  0  0  0  0  0  0  0  0
   66.7156   12.1971    5.1617 C   0  0  1  0  0  0  0  0  0  0  0  0
   66.6374   11.6092    6.2320 O   0  0  0  0  0  0  0  0  0  0  0  0
   64.7939   11.2142    3.8056 N   0  0  0  0  0  0  0  0  0  0  0  0
   64.4793   11.5066    2.5860 C   0  0  0  0  0  0  0  0  0  0  0  0
   65.2356   12.4315    1.9439 N   0  0  0  0  0  0  0  0  0  0  0  0
  1  5  1  6  0  0  0
  1 14  1  0  0  0  0
  1 19  2  0  0  0  0
  2 15  1  1  0  0  0
  2 20  2  0  0  0  0
  2 23  1  0  0  0  0
  3 16  1  6  0  0  0
  3 21  2  0  0  0  0
  3 24  1  0  0  0  0
  3 25  1  0  0  0  0
  4  6  1  0  0  0  0
  5  4  1  0  0  0  0
  6  7  1  0  0  0  0
  6  8  2  0  0  0  0
  7 12  1  0  0  0  0
  8  9  1  0  0  0  0
  8 10  1  0  0  0  0
 10 11  1  0  0  0  0
 10 12  2  0  0  0  0
 12 32  1  0  0  0  0
 13 17  1  0  0  0  0
 17 18  1  6  0  0  0
 17 22  1  0  0  0  0
 23  1  1  0  0  0  0
 24  2  1  0  0  0  0
 26 22  1  6  0  0  0
 27 26  1  0  0  0  0
 27 28  1  0  0  0  0
 27 30  1  6  0  0  0
 28 13  1  0  0  0  0
 28 29  1  6  0  0  0
 31 30  1  0  0  0  0
 32 26  1  0  0  0  0
 32 31  1  0  0  0  0
M  CHG  3  14  -1  15  -1  16  -1
M  END
>  <CHROM.1>
22.78108077,169.75888333,74.03994588,-133.38838033,165.78842441,153.00904910
170.27348535,77.20370718,67.50361859,9.82020534,0.69474599,0.70073011,1.06852487
-1.92203523

>  <Name>
2au4_lig

>  <RI>
0

>  <Rbt.Current_Directory>
/home/itssahil/PROJECTS/Mol_Feturizer/New_Systems/rnas/2au4

>  <Rbt.Executable>
rbdock ($Id: //depot/dev/client3/rdock/2013.1/src/exe/rbdock.cxx#4 $)

>  <Rbt.Library>
libRbt.so (2013.1, Build901 2013/11/27)

>  <Rbt.Parameter_File>
/export/apps/rDock/src/rDock_2013.1_src/data/scripts/dock_solv.prm

>  <Rbt.Receptor>
prm/pocket_docking_5.prm

>  <SCORE>
-34.4785

>  <SCORE.INTER>
-9.13789

>  <SCORE.INTER.CONST>
1

>  <SCORE.INTER.POLAR>
-0.890788

>  <SCORE.INTER.ROT>
8

>  <SCORE.INTER.SOLV>
22.9051

>  <SCORE.INTER.VDW>
-19.691

>  <SCORE.INTER.norm>
-0.285559

>  <SCORE.INTRA>
-25.3406

>  <SCORE.INTRA.DIHEDRAL>
-48.5306

>  <SCORE.INTRA.DIHEDRAL.0>
76.3625

>  <SCORE.INTRA.POLAR>
0

>  <SCORE.INTRA.POLAR.0>
0

>  <SCORE.INTRA.REPUL>
-0.12705

>  <SCORE.INTRA.REPUL.0>
0.12705

>  <SCORE.INTRA.SOLV>
-4.27334

>  <SCORE.INTRA.SOLV.lig_0>
-119.383

>  <SCORE.INTRA.VDW>
1.69665

>  <SCORE.INTRA.VDW.0>
-5.10464

>  <SCORE.INTRA.norm>
-0.791893

>  <SCORE.RESTR>
0

>  <SCORE.RESTR.CAVITY>
0

>  <SCORE.RESTR.norm>
0

>  <SCORE.SYSTEM>
0

>  <SCORE.SYSTEM.CONST>
0

>  <SCORE.SYSTEM.DIHEDRAL>
0

>  <SCORE.SYSTEM.SOLV>
0

>  <SCORE.SYSTEM.norm>
0

>  <SCORE.heavy>
32

>  <SCORE.norm>
-1.07745

>  <RMSD>
7.622

$$$$
2au4_lig
 OpenBabel11021811423D
libRbt.so/2013.1/901 2013/11/27
 32 34  0  0  0  0  0  0  0  0999 V2000
   65.3871    7.8819   -1.7032 P   0  0  1  0  0  0  0  0  0  0  0  0
   67.1497    6.4565   -3.1967 P   0  0  1  0  0  0  0  0  0  0  0  0
   68.9566    4.7288   -2.1055 P   0  0  2  0  0  0  0  0  0  0  0  0
   64.3786    9.9338   -0.3603 C   0  0  0  0  0  0  0  0  0  0  0  0
   65.1341    9.4561   -1.4858 O   0  0  0  0  0  0  0  0  0  0  0  0
   64.2380   11.4489   -0.3546 C   0  0  0  0  0  0  0  0  0  0  0  0
   64.3245   11.9615    0.9907 O   0  0  0  0  0  0  0  0  0  0  0  0
   65.3381   12.0948   -1.1824 C   0  0  0  0  0  0  0  0  0  0  0  0
   64.7904   12.7861   -2.3116 O   0  0  0  0  0  0  0  0  0  0  0  0
   66.0638   13.0474   -0.2625 C   0  0  0  0  0  0  0  0  0  0  0  0
   66.0190   14.3897   -0.7648 O   0  0  0  0  0  0  0  0  0  0  0  0
   65.3701   12.9520    1.0855 C   0  0  0  0  0  0  0  0  0  0  0  0
   66.0727   10.6501    5.5881 N   0  0  0  0  0  0  0  0  0  0  0  0
   65.8717    7.3032   -0.4339 O   0  5  0  0  0  0  0  0  0  0  0  0
   66.0082    5.5318   -3.3374 O   0  5  0  0  0  0  0  0  0  0  0  0
   68.3972    3.6353   -1.2853 O   0  5  0  0  0  0  0  0  0  0  0  0
   64.9227   10.7846    4.8471 C   0  0  1  0  0  0  0  0  0  0  0  0
   63.8249   10.2483    5.3631 N   0  0  0  0  0  0  0  0  0  0  0  0
   64.2061    7.3028   -2.3785 O   0  0  0  0  0  0  0  0  0  0  0  0
   68.0721    6.6735   -4.3306 O   0  0  0  0  0  0  0  0  0  0  0  0
   70.3505    5.1723   -1.8948 O   0  0  0  0  0  0  0  0  0  0  0  0
   64.8656   11.4122    3.6751 N   0  0  0  0  0  0  0  0  0  0  0  0
   66.5920    7.8685   -2.7367 O   0  0  0  0  0  0  0  0  0  0  0  0
   68.0102    5.9992   -1.9414 O   0  0  0  0  0  0  0  0  0  0  0  0
   68.7714    4.3478   -3.6550 O   0  0  0  0  0  0  0  0  0  0  0  0
   66.0697   11.9019    3.3001 C   0  0  2  0  0  0  0  0  0  0  0  0
   67.2723   11.8114    3.9823 C   0  0  2  0  0  0  0  0  0  0  0  0
   67.3154   11.1403    5.2289 C   0  0  1  0  0  0  0  0  0  0  0  0
   68.2727   10.9855    5.9753 O   0  0  0  0  0  0  0  0  0  0  0  0
   68.2972   12.4448    3.2713 N   0  0  0  0  0  0  0  0  0  0  0  0
   67.6616   12.8686    2.2281 C   0  0  0  0  0  0  0  0  0  0  0  0
   66.3346   12.6002    2.1458 N   0  0  0  0  0  0  0  0  0  0  0  0
  1  5  1  1  0  0  0
  1 14  1  0  0  0  0
  1 19  2  0  0  0  0
  2 15  1  6  0  0  0
  2 20  2  0  0  0  0
  2 23  1  0  0  0  0
  3 16  1  1  0  0  0
  3 21  2  0  0  0  0
  3 24  1  0  0  0  0
  3 25  1  0  0  0  0
  4  6  1  0  0  0  0
  5  4  1  0  0  0  0
  6  7  1  0  0  0  0
  6  8  2  0  0  0  0
  7 12  1  0  0  0  0
  8  9  1  0  0  0  0
  8 10  1  0  0  0  0
 10 11  1  0  0  0  0
 10 12  2  0  0  0  0
 12 32  1  0  0  0  0
 13 17  1  0  0  0  0
 17 18  1  1  0  0  0
 17 22  1  0  0  0  0
 23  1  1  0  0  0  0
 24  2  1  0  0  0  0
 26 22  1  1  0  0  0
 27 26  1  0  0  0  0
 27 28  1  0  0  0  0
 27 30  1  1  0  0  0
 28 13  1  0  0  0  0
 28 29  1  1  0  0  0
 31 30  1  0  0  0  0
 32 26  1  0  0  0  0
 32 31  1  0  0  0  0
M  CHG  3  14  -1  15  -1  16  -1
M  END
>  <CHROM.1>
-48.94694492,37.81356523,-111.06281478,-142.10379844,-179.05731175,-30.24407521
179.41963486,76.37616750,66.50099140,9.15815731,-0.01176885,1.18959810,1.02696869
-2.06141590

>  <Name>
2au4_lig

>  <RI>
0

>  <Rbt.Current_Directory>
/home/itssahil/PROJECTS/Mol_Feturizer/New_Systems/rnas/2au4

>  <Rbt.Executable>
rbdock ($Id: //depot/dev/client3/rdock/2013.1/src/exe/rbdock.cxx#4 $)

>  <Rbt.Library>
libRbt.so (2013.1, Build901 2013/11/27)

>  <Rbt.Parameter_File>
/export/apps/rDock/src/rDock_2013.1_src/data/scripts/dock_solv.prm

>  <Rbt.Receptor>
prm/pocket_docking_8.prm

>  <SCORE>
-33.5253

>  <SCORE.INTER>
-9.86909

>  <SCORE.INTER.CONST>
1

>  <SCORE.INTER.POLAR>
-0.711223

>  <SCORE.INTER.ROT>
8

>  <SCORE.INTER.SOLV>
30.6605

>  <SCORE.INTER.VDW>
-23.3621

>  <SCORE.INTER.norm>
-0.308409

>  <SCORE.INTRA>
-23.6562

>  <SCORE.INTRA.DIHEDRAL>
-47.8889

>  <SCORE.INTRA.DIHEDRAL.0>
76.3625

>  <SCORE.INTRA.POLAR>
0

>  <SCORE.INTRA.POLAR.0>
0

>  <SCORE.INTRA.REPUL>
0.06315

>  <SCORE.INTRA.REPUL.0>
0.12705

>  <SCORE.INTRA.SOLV>
-6.64873

>  <SCORE.INTRA.SOLV.lig_0>
-119.383

>  <SCORE.INTRA.VDW>
3.29684

>  <SCORE.INTRA.VDW.0>
-5.10464

>  <SCORE.INTRA.norm>
-0.739257

>  <SCORE.RESTR>
0

>  <SCORE.RESTR.CAVITY>
0

>  <SCORE.RESTR.norm>
0

>  <SCORE.SYSTEM>
0

>  <SCORE.SYSTEM.CONST>
0

>  <SCORE.SYSTEM.DIHEDRAL>
0

>  <SCORE.SYSTEM.SOLV>
0

>  <SCORE.SYSTEM.norm>
0

>  <SCORE.heavy>
32

>  <SCORE.norm>
-1.04767

>  <RMSD>
7.624

$$$$
2au4_lig
 OpenBabel11021811423D
libRbt.so/2013.1/901 2013/11/27
 32 34  0  0  0  0  0  0  0  0999 V2000
   68.2600    6.9807    1.1541 P   0  0  1  0  0  0  0  0  0  0  0  0
   68.0769    6.0446   -1.3875 P   0  0  1  0  0  0  0  0  0  0  0  0
   68.0510    5.8034   -4.1045 P   0  0  2  0  0  0  0  0  0  0  0  0
   67.6892    8.7043    3.0864 C   0  0  0  0  0  0  0  0  0  0  0  0
   68.0090    8.4718    1.7046 O   0  0  0  0  0  0  0  0  0  0  0  0
   68.8748    8.4572    4.0077 C   0  0  0  0  0  0  0  0  0  0  0  0
   70.1126    8.5221    3.2703 O   0  0  0  0  0  0  0  0  0  0  0  0
   68.9238    9.4998    5.1136 C   0  0  0  0  0  0  0  0  0  0  0  0
   68.7418    8.8924    6.3985 O   0  0  0  0  0  0  0  0  0  0  0  0
   70.2750   10.1666    5.0149 C   0  0  0  0  0  0  0  0  0  0  0  0
   71.0158   10.0218    6.2341 O   0  0  0  0  0  0  0  0  0  0  0  0
   70.9993    9.4962    3.8603 C   0  0  0  0  0  0  0  0  0  0  0  0
   72.7287   14.2337    3.0654 N   0  0  0  0  0  0  0  0  0  0  0  0
   69.5312    6.4796    1.7144 O   0  5  0  0  0  0  0  0  0  0  0  0
   68.9848    4.9076   -1.1400 O   0  5  0  0  0  0  0  0  0  0  0  0
   68.7110    6.4285   -5.2685 O   0  5  0  0  0  0  0  0  0  0  0  0
   72.4180   13.6054    4.2479 C   0  0  1  0  0  0  0  0  0  0  0  0
   72.5808   14.3197    5.3535 N   0  0  0  0  0  0  0  0  0  0  0  0
   67.0163    6.1993    1.3236 O   0  0  0  0  0  0  0  0  0  0  0  0
   66.6134    5.8547   -1.3123 O   0  0  0  0  0  0  0  0  0  0  0  0
   66.5875    5.5980   -4.1065 O   0  0  0  0  0  0  0  0  0  0  0  0
   71.9723   12.3541    4.3272 N   0  0  0  0  0  0  0  0  0  0  0  0
   68.4736    7.2214   -0.4005 O   0  0  0  0  0  0  0  0  0  0  0  0
   68.4223    6.6575   -2.8124 O   0  0  0  0  0  0  0  0  0  0  0  0
   68.7634    4.3934   -3.8127 O   0  0  0  0  0  0  0  0  0  0  0  0
   71.8604   11.7748    3.1097 C   0  0  2  0  0  0  0  0  0  0  0  0
   72.1506   12.3325    1.8749 C   0  0  2  0  0  0  0  0  0  0  0  0
   72.6237   13.6659    1.8083 C   0  0  1  0  0  0  0  0  0  0  0  0
   72.9046   14.3233    0.8151 O   0  0  0  0  0  0  0  0  0  0  0  0
   71.9047   11.4179    0.8452 N   0  0  0  0  0  0  0  0  0  0  0  0
   71.4900   10.3891    1.5097 C   0  0  0  0  0  0  0  0  0  0  0  0
   71.4253   10.4947    2.8604 N   0  0  0  0  0  0  0  0  0  0  0  0
  1  5  1  1  0  0  0
  1 14  1  0  0  0  0
  1 19  2  0  0  0  0
  2 15  1  1  0  0  0
  2 20  2  0  0  0  0
  2 23  1  0  0  0  0
  3 16  1  6  0  0  0
  3 21  2  0  0  0  0
  3 24  1  0  0  0  0
  3 25  1  0  0  0  0
  4  6  1  0  0  0  0
  5  4  1  0  0  0  0
  6  7  1  0  0  0  0
  6  8  2  0  0  0  0
  7 12  1  0  0  0  0
  8  9  1  0  0  0  0
  8 10  1  0  0  0  0
 10 11  1  0  0  0  0
 10 12  2  0  0  0  0
 12 32  1  0  0  0  0
 13 17  1  0  0  0  0
 17 18  1  6  0  0  0
 17 22  1  0  0  0  0
 23  1  1  0  0  0  0
 24  2  1  0  0  0  0
 26 22  1  6  0  0  0
 27 26  1  0  0  0  0
 27 28  1  0  0  0  0
 27 30  1  6  0  0  0
 28 13  1  0  0  0  0
 28 29  1  6  0  0  0
 31 30  1  0  0  0  0
 32 26  1  0  0  0  0
 32 31  1  0  0  0  0
M  CHG  3  14  -1  15  -1  16  -1
M  END
>  <CHROM.1>
-69.70599853,-65.91927223,-168.27520957,20.56162837,70.76410334,155.92800365
-151.62497328,70.39496345,69.63547096,8.76521970,1.09131045,2.28222678,-0.95063365
-1.73327353

>  <Name>
2au4_lig

>  <RI>
0

>  <Rbt.Current_Directory>
/home/itssahil/PROJECTS/Mol_Feturizer/New_Systems/rnas/2au4

>  <Rbt.Executable>
rbdock ($Id: //depot/dev/client3/rdock/2013.1/src/exe/rbdock.cxx#4 $)

>  <Rbt.Library>
libRbt.so (2013.1, Build901 2013/11/27)

>  <Rbt.Parameter_File>
/export/apps/rDock/src/rDock_2013.1_src/data/scripts/dock_solv.prm

>  <Rbt.Receptor>
prm/blind_docking_80.prm

>  <SCORE>
-39.7472

>  <SCORE.INTER>
-15.2115

>  <SCORE.INTER.CONST>
1

>  <SCORE.INTER.POLAR>
-1.6775

>  <SCORE.INTER.ROT>
8

>  <SCORE.INTER.SOLV>
37.0117

>  <SCORE.INTER.VDW>
-25.82

>  <SCORE.INTER.norm>
-0.475361

>  <SCORE.INTRA>
-25.5254

>  <SCORE.INTRA.DIHEDRAL>
-49.038

>  <SCORE.INTRA.DIHEDRAL.0>
76.3625

>  <SCORE.INTRA.POLAR>
0

>  <SCORE.INTRA.POLAR.0>
0

>  <SCORE.INTRA.REPUL>
-0.12705

>  <SCORE.INTRA.REPUL.0>
0.12705

>  <SCORE.INTRA.SOLV>
-3.12969

>  <SCORE.INTRA.SOLV.lig_0>
-119.383

>  <SCORE.INTRA.VDW>
1.19366

>  <SCORE.INTRA.VDW.0>
-5.10464

>  <SCORE.INTRA.norm>
-0.79767

>  <SCORE.RESTR>
0.989783

>  <SCORE.RESTR.CAVITY>
0.989783

>  <SCORE.RESTR.norm>
0.0309307

>  <SCORE.SYSTEM>
0

>  <SCORE.SYSTEM.CONST>
0

>  <SCORE.SYSTEM.DIHEDRAL>
0

>  <SCORE.SYSTEM.SOLV>
0

>  <SCORE.SYSTEM.norm>
0

>  <SCORE.heavy>
32

>  <SCORE.norm>
-1.2421

>  <RMSD>
7.627

$$$$
2au4_lig
 OpenBabel11021811423D
libRbt.so/2013.1/901 2013/11/27
 32 34  0  0  0  0  0  0  0  0999 V2000
   68.6806    6.4931    1.8661 P   0  0  1  0  0  0  0  0  0  0  0  0
   67.1682    6.7402   -0.3747 P   0  0  1  0  0  0  0  0  0  0  0  0
   64.7606    6.7178   -1.6569 P   0  0  2  0  0  0  0  0  0  0  0  0
   67.8368    8.4810    3.4046 C   0  0  0  0  0  0  0  0  0  0  0  0
   67.5465    7.2513    2.7196 O   0  0  0  0  0  0  0  0  0  0  0  0
   69.0550    8.3693    4.3096 C   0  0  0  0  0  0  0  0  0  0  0  0
   70.2700    8.4285    3.5347 O   0  0  0  0  0  0  0  0  0  0  0  0
   69.0796    9.5041    5.3217 C   0  0  0  0  0  0  0  0  0  0  0  0
   68.9585    9.0012    6.6579 O   0  0  0  0  0  0  0  0  0  0  0  0
   70.3939   10.2222    5.1290 C   0  0  0  0  0  0  0  0  0  0  0  0
   71.1701   10.2171    6.3346 O   0  0  0  0  0  0  0  0  0  0  0  0
   71.1220    9.4898    4.0151 C   0  0  0  0  0  0  0  0  0  0  0  0
   72.6913   14.1886    2.7802 N   0  0  0  0  0  0  0  0  0  0  0  0
   69.5549    7.5056    1.2406 O   0  5  0  0  0  0  0  0  0  0  0  0
   66.9452    8.0663    0.2333 O   0  5  0  0  0  0  0  0  0  0  0  0
   65.4000    6.6584   -2.9869 O   0  5  0  0  0  0  0  0  0  0  0  0
   72.4533   13.6463    4.0207 C   0  0  1  0  0  0  0  0  0  0  0  0
   72.6507   14.4465    5.0598 N   0  0  0  0  0  0  0  0  0  0  0  0
   69.2658    5.4241    2.7033 O   0  0  0  0  0  0  0  0  0  0  0  0
   67.9456    6.6194   -1.6255 O   0  0  0  0  0  0  0  0  0  0  0  0
   64.3200    8.0162   -1.1057 O   0  0  0  0  0  0  0  0  0  0  0  0
   72.0437   12.3954    4.2162 N   0  0  0  0  0  0  0  0  0  0  0  0
   67.8360    5.7998    0.7145 O   0  0  0  0  0  0  0  0  0  0  0  0
   65.7540    6.0527   -0.6045 O   0  0  0  0  0  0  0  0  0  0  0  0
   63.5101    5.7094   -1.6485 O   0  0  0  0  0  0  0  0  0  0  0  0
   71.8884   11.7222    3.0529 C   0  0  2  0  0  0  0  0  0  0  0  0
   72.1053   12.1897    1.7668 C   0  0  2  0  0  0  0  0  0  0  0  0
   72.5409   13.5240    1.5763 C   0  0  1  0  0  0  0  0  0  0  0  0
   72.7574   14.1092    0.5237 O   0  0  0  0  0  0  0  0  0  0  0  0
   71.8337   11.1939    0.8225 N   0  0  0  0  0  0  0  0  0  0  0  0
   71.4772   10.2103    1.5824 C   0  0  0  0  0  0  0  0  0  0  0  0
   71.4745   10.4177    2.9228 N   0  0  0  0  0  0  0  0  0  0  0  0
  1  5  1  1  0  0  0
  1 14  1  0  0  0  0
  1 19  2  0  0  0  0
  2 15  1  1  0  0  0
  2 20  2  0  0  0  0
  2 23  1  0  0  0  0
  3 16  1  6  0  0  0
  3 21  2  0  0  0  0
  3 24  1  0  0  0  0
  3 25  1  0  0  0  0
  4  6  1  0  0  0  0
  5  4  1  0  0  0  0
  6  7  1  0  0  0  0
  6  8  2  0  0  0  0
  7 12  1  0  0  0  0
  8  9  1  0  0  0  0
  8 10  1  0  0  0  0
 10 11  1  0  0  0  0
 10 12  2  0  0  0  0
 12 32  1  0  0  0  0
 13 17  1  0  0  0  0
 17 18  1  6  0  0  0
 17 22  1  0  0  0  0
 23  1  1  0  0  0  0
 24  2  1  0  0  0  0
 26 22  1  6  0  0  0
 27 26  1  0  0  0  0
 27 28  1  0  0  0  0
 27 30  1  6  0  0  0
 28 13  1  0  0  0  0
 28 29  1  6  0  0  0
 31 30  1  0  0  0  0
 32 26  1  0  0  0  0
 32 31  1  0  0  0  0
M  CHG  3  14  -1  15  -1  16  -1
M  END
>  <CHROM.1>
-34.76539270,-26.06693638,62.90186022,77.62358241,-52.76897734,157.89678266
68.89568810,65.71243211,69.03298795,8.96044266,1.77497049,2.97944370,-0.86358909
-1.12539269

>  <Name>
2au4_lig

>  <RI>
0

>  <Rbt.Current_Directory>
/home/itssahil/PROJECTS/Mol_Feturizer/New_Systems/rnas/2au4

>  <Rbt.Executable>
rbdock ($Id: //depot/dev/client3/rdock/2013.1/src/exe/rbdock.cxx#4 $)

>  <Rbt.Library>
libRbt.so (2013.1, Build901 2013/11/27)

>  <Rbt.Parameter_File>
/export/apps/rDock/src/rDock_2013.1_src/data/scripts/dock_solv.prm

>  <Rbt.Receptor>
prm/blind_docking_80.prm

>  <SCORE>
-42.2503

>  <SCORE.INTER>
-19.4598

>  <SCORE.INTER.CONST>
1

>  <SCORE.INTER.POLAR>
-1.81001

>  <SCORE.INTER.ROT>
8

>  <SCORE.INTER.SOLV>
30.0898

>  <SCORE.INTER.VDW>
-25.9031

>  <SCORE.INTER.norm>
-0.608118

>  <SCORE.INTRA>
-23.175

>  <SCORE.INTRA.DIHEDRAL>
-46.7769

>  <SCORE.INTRA.DIHEDRAL.0>
76.3625

>  <SCORE.INTRA.POLAR>
0

>  <SCORE.INTRA.POLAR.0>
0

>  <SCORE.INTRA.REPUL>
-0.12705

>  <SCORE.INTRA.REPUL.0>
0.12705

>  <SCORE.INTRA.SOLV>
-0.490207

>  <SCORE.INTRA.SOLV.lig_0>
-119.383

>  <SCORE.INTRA.VDW>
1.09381

>  <SCORE.INTRA.VDW.0>
-5.10464

>  <SCORE.INTRA.norm>
-0.724218

>  <SCORE.RESTR>
0.384426

>  <SCORE.RESTR.CAVITY>
0.384426

>  <SCORE.RESTR.norm>
0.0120133

>  <SCORE.SYSTEM>
0

>  <SCORE.SYSTEM.CONST>
0

>  <SCORE.SYSTEM.DIHEDRAL>
0

>  <SCORE.SYSTEM.SOLV>
0

>  <SCORE.SYSTEM.norm>
0

>  <SCORE.heavy>
32

>  <SCORE.norm>
-1.32032

>  <RMSD>
7.638

$$$$
2au4_lig
 OpenBabel11021811423D
libRbt.so/2013.1/901 2013/11/27
 32 34  0  0  0  0  0  0  0  0999 V2000
   68.9951    9.0028    0.5017 P   0  0  1  0  0  0  0  0  0  0  0  0
   66.2986    8.8523    0.2267 P   0  0  1  0  0  0  0  0  0  0  0  0
   65.7804    6.3883   -0.8225 P   0  0  2  0  0  0  0  0  0  0  0  0
   71.2681   10.3668    0.4410 C   0  0  0  0  0  0  0  0  0  0  0  0
   69.9274   10.2380    0.9427 O   0  0  0  0  0  0  0  0  0  0  0  0
   72.0925   11.3698    1.2344 C   0  0  0  0  0  0  0  0  0  0  0  0
   71.2431   12.1592    2.0922 O   0  0  0  0  0  0  0  0  0  0  0  0
   73.1170   10.6572    2.1035 C   0  0  0  0  0  0  0  0  0  0  0  0
   74.4509   10.9928    1.7023 O   0  0  0  0  0  0  0  0  0  0  0  0
   72.8515   11.0935    3.5246 C   0  0  0  0  0  0  0  0  0  0  0  0
   74.0054   11.7217    4.0990 O   0  0  0  0  0  0  0  0  0  0  0  0
   71.6836   12.0627    3.4633 C   0  0  0  0  0  0  0  0  0  0  0  0
   66.6487   12.0928    4.3091 N   0  0  0  0  0  0  0  0  0  0  0  0
   68.9909    8.9188   -0.9726 O   0  5  0  0  0  0  0  0  0  0  0  0
   65.1495    8.8899    1.1520 O   0  5  0  0  0  0  0  0  0  0  0  0
   65.5112    7.0565   -2.1118 O   0  5  0  0  0  0  0  0  0  0  0  0
   67.3665   12.6810    3.2949 C   0  0  1  0  0  0  0  0  0  0  0  0
   66.6665   13.3634    2.3986 N   0  0  0  0  0  0  0  0  0  0  0  0
   69.3638    7.8210    1.3103 O   0  0  0  0  0  0  0  0  0  0  0  0
   66.1951    9.4748   -1.1095 O   0  0  0  0  0  0  0  0  0  0  0  0
   64.6573    5.9744    0.0443 O   0  0  0  0  0  0  0  0  0  0  0  0
   68.6897   12.6003    3.1804 N   0  0  0  0  0  0  0  0  0  0  0  0
   67.5539    9.4786    0.9672 O   0  0  0  0  0  0  0  0  0  0  0  0
   66.7331    7.3362    0.0323 O   0  0  0  0  0  0  0  0  0  0  0  0
   66.7106    5.1079   -1.0979 O   0  0  0  0  0  0  0  0  0  0  0  0
   69.2443   11.8736    4.1778 C   0  0  2  0  0  0  0  0  0  0  0  0
   68.5984   11.2494    5.2329 C   0  0  2  0  0  0  0  0  0  0  0  0
   67.1894   11.3456    5.3401 C   0  0  1  0  0  0  0  0  0  0  0  0
   66.4606   10.8846    6.2084 O   0  0  0  0  0  0  0  0  0  0  0  0
   69.5160   10.5942    6.0610 N   0  0  0  0  0  0  0  0  0  0  0  0
   70.6332   10.8596    5.4664 C   0  0  0  0  0  0  0  0  0  0  0  0
   70.5844   11.6125    4.3392 N   0  0  0  0  0  0  0  0  0  0  0  0
  1  5  1  1  0  0  0
  1 14  1  0  0  0  0
  1 19  2  0  0  0  0
  2 15  1  1  0  0  0
  2 20  2  0  0  0  0
  2 23  1  0  0  0  0
  3 16  1  6  0  0  0
  3 21  2  0  0  0  0
  3 24  1  0  0  0  0
  3 25  1  0  0  0  0
  4  6  1  0  0  0  0
  5  4  1  0  0  0  0
  6  7  1  0  0  0  0
  6  8  2  0  0  0  0
  7 12  1  0  0  0  0
  8  9  1  0  0  0  0
  8 10  1  0  0  0  0
 10 11  1  0  0  0  0
 10 12  2  0  0  0  0
 12 32  1  0  0  0  0
 13 17  1  0  0  0  0
 17 18  1  1  0  0  0
 17 22  1  0  0  0  0
 23  1  1  0  0  0  0
 24  2  1  0  0  0  0
 26 22  1  1  0  0  0
 27 26  1  0  0  0  0
 27 28  1  0  0  0  0
 27 30  1  1  0  0  0
 28 13  1  0  0  0  0
 28 29  1  1  0  0  0
 31 30  1  0  0  0  0
 32 26  1  0  0  0  0
 32 31  1  0  0  0  0
M  CHG  3  14  -1  15  -1  16  -1
M  END
>  <CHROM.1>
-51.66127720,153.49633810,51.77567445,-13.09296631,-165.16460900,-31.92401284
155.83736873,71.81426966,68.61966175,9.83472497,1.81551300,-2.27636902,0.17966441
0.93185364

>  <Name>
2au4_lig

>  <RI>
0

>  <Rbt.Current_Directory>
/home/itssahil/PROJECTS/Mol_Feturizer/New_Systems/rnas/2au4

>  <Rbt.Executable>
rbdock ($Id: //depot/dev/client3/rdock/2013.1/src/exe/rbdock.cxx#4 $)

>  <Rbt.Library>
libRbt.so (2013.1, Build901 2013/11/27)

>  <Rbt.Parameter_File>
/export/apps/rDock/src/rDock_2013.1_src/data/scripts/dock_solv.prm

>  <Rbt.Receptor>
prm/pocket_docking_7.prm

>  <SCORE>
-34.8029

>  <SCORE.INTER>
-9.61314

>  <SCORE.INTER.CONST>
1

>  <SCORE.INTER.POLAR>
-1.43217

>  <SCORE.INTER.ROT>
8

>  <SCORE.INTER.SOLV>
19.8571

>  <SCORE.INTER.VDW>
-17.1872

>  <SCORE.INTER.norm>
-0.300411

>  <SCORE.INTRA>
-25.1897

>  <SCORE.INTRA.DIHEDRAL>
-48.1138

>  <SCORE.INTRA.DIHEDRAL.0>
76.3625

>  <SCORE.INTRA.POLAR>
0

>  <SCORE.INTRA.POLAR.0>
0

>  <SCORE.INTRA.REPUL>
0.0573792

>  <SCORE.INTRA.REPUL.0>
0.12705

>  <SCORE.INTRA.SOLV>
-3.97824

>  <SCORE.INTRA.SOLV.lig_0>
-119.383

>  <SCORE.INTRA.VDW>
0.569384

>  <SCORE.INTRA.VDW.0>
-5.10464

>  <SCORE.INTRA.norm>
-0.787179

>  <SCORE.RESTR>
0

>  <SCORE.RESTR.CAVITY>
0

>  <SCORE.RESTR.norm>
0

>  <SCORE.SYSTEM>
0

>  <SCORE.SYSTEM.CONST>
0

>  <SCORE.SYSTEM.DIHEDRAL>
0

>  <SCORE.SYSTEM.SOLV>
0

>  <SCORE.SYSTEM.norm>
0

>  <SCORE.heavy>
32

>  <SCORE.norm>
-1.08759

>  <RMSD>
7.656

$$$$
2au4_lig
 OpenBabel11021811423D
libRbt.so/2013.1/901 2013/11/27
 32 34  0  0  0  0  0  0  0  0999 V2000
   68.7194   15.7164    3.2424 P   0  0  1  0  0  0  0  0  0  0  0  0
   66.6408   15.9941    1.5184 P   0  0  1  0  0  0  0  0  0  0  0  0
   64.7690   14.0409    1.1692 P   0  0  2  0  0  0  0  0  0  0  0  0
   70.8684   14.4271    4.1083 C   0  0  0  0  0  0  0  0  0  0  0  0
   70.1188   14.9589    3.0033 O   0  0  0  0  0  0  0  0  0  0  0  0
   72.0609   13.5968    3.6566 C   0  0  0  0  0  0  0  0  0  0  0  0
   71.9021   12.2205    4.0579 O   0  0  0  0  0  0  0  0  0  0  0  0
   72.2037   13.6384    2.1432 C   0  0  0  0  0  0  0  0  0  0  0  0
   73.4340   14.2662    1.7621 O   0  0  0  0  0  0  0  0  0  0  0  0
   72.1553   12.2058    1.6683 C   0  0  0  0  0  0  0  0  0  0  0  0
   73.3492   11.8542    0.9562 O   0  0  0  0  0  0  0  0  0  0  0  0
   71.9962   11.3482    2.9118 C   0  0  0  0  0  0  0  0  0  0  0  0
   68.4958    8.6149    5.4304 N   0  0  0  0  0  0  0  0  0  0  0  0
   67.7819   14.7793    3.8932 O   0  5  0  0  0  0  0  0  0  0  0  0
   66.0058   16.6557    2.6748 O   0  5  0  0  0  0  0  0  0  0  0  0
   64.5697   12.6312    1.5621 O   0  5  0  0  0  0  0  0  0  0  0  0
   69.5531    9.3431    5.9217 C   0  0  1  0  0  0  0  0  0  0  0  0
   69.7044    9.3441    7.2394 N   0  0  0  0  0  0  0  0  0  0  0  0
   68.9943   17.0341    3.8542 O   0  0  0  0  0  0  0  0  0  0  0  0
   66.3952   16.4957    0.1504 O   0  0  0  0  0  0  0  0  0  0  0  0
   64.5305   14.4598   -0.2278 O   0  0  0  0  0  0  0  0  0  0  0  0
   70.4048   10.0214    5.1567 N   0  0  0  0  0  0  0  0  0  0  0  0
   68.2083   15.9668    1.7603 O   0  0  0  0  0  0  0  0  0  0  0  0
   66.2587   14.4521    1.5545 O   0  0  0  0  0  0  0  0  0  0  0  0
   63.8847   14.9685    2.1378 O   0  0  0  0  0  0  0  0  0  0  0  0
   70.1087    9.9093    3.8413 C   0  0  2  0  0  0  0  0  0  0  0  0
   69.0679    9.2004    3.2633 C   0  0  2  0  0  0  0  0  0  0  0  0
   68.1706    8.4834    4.0922 C   0  0  1  0  0  0  0  0  0  0  0  0
   67.2191    7.7896    3.7596 O   0  0  0  0  0  0  0  0  0  0  0  0
   69.0933    9.3255    1.8702 N   0  0  0  0  0  0  0  0  0  0  0  0
   70.1259   10.0849    1.6997 C   0  0  0  0  0  0  0  0  0  0  0  0
   70.8012   10.4887    2.8045 N   0  0  0  0  0  0  0  0  0  0  0  0
  1  5  1  6  0  0  0
  1 14  1  0  0  0  0
  1 19  2  0  0  0  0
  2 15  1  1  0  0  0
  2 20  2  0  0  0  0
  2 23  1  0  0  0  0
  3 16  1  1  0  0  0
  3 21  2  0  0  0  0
  3 24  1  0  0  0  0
  3 25  1  0  0  0  0
  4  6  1  0  0  0  0
  5  4  1  0  0  0  0
  6  7  1  0  0  0  0
  6  8  2  0  0  0  0
  7 12  1  0  0  0  0
  8  9  1  0  0  0  0
  8 10  1  0  0  0  0
 10 11  1  0  0  0  0
 10 12  2  0  0  0  0
 12 32  1  0  0  0  0
 13 17  1  0  0  0  0
 17 18  1  6  0  0  0
 17 22  1  0  0  0  0
 23  1  1  0  0  0  0
 24  2  1  0  0  0  0
 26 22  1  6  0  0  0
 27 26  1  0  0  0  0
 27 28  1  0  0  0  0
 27 30  1  6  0  0  0
 28 13  1  0  0  0  0
 28 29  1  6  0  0  0
 31 30  1  0  0  0  0
 32 26  1  0  0  0  0
 32 31  1  0  0  0  0
M  CHG  3  14  -1  15  -1  16  -1
M  END
>  <CHROM.1>
-60.02631078,37.53539761,-167.50551136,-115.69341558,172.52672050,-37.90815795
149.41043583,73.02807843,68.66122414,13.00216505,2.76092230,-2.23735890,0.13545500
2.84544129

>  <Name>
2au4_lig

>  <RI>
0

>  <Rbt.Current_Directory>
/home/itssahil/PROJECTS/Mol_Feturizer/New_Systems/rnas/2au4

>  <Rbt.Executable>
rbdock ($Id: //depot/dev/client3/rdock/2013.1/src/exe/rbdock.cxx#4 $)

>  <Rbt.Library>
libRbt.so (2013.1, Build901 2013/11/27)

>  <Rbt.Parameter_File>
/export/apps/rDock/src/rDock_2013.1_src/data/scripts/dock_solv.prm

>  <Rbt.Receptor>
prm/pocket_docking_8.prm

>  <SCORE>
-41.8812

>  <SCORE.INTER>
-16.8706

>  <SCORE.INTER.CONST>
1

>  <SCORE.INTER.POLAR>
-2.36341

>  <SCORE.INTER.ROT>
8

>  <SCORE.INTER.SOLV>
19.8019

>  <SCORE.INTER.VDW>
-18.903

>  <SCORE.INTER.norm>
-0.527207

>  <SCORE.INTRA>
-25.0105

>  <SCORE.INTRA.DIHEDRAL>
-48.2675

>  <SCORE.INTRA.DIHEDRAL.0>
76.3625

>  <SCORE.INTRA.POLAR>
0

>  <SCORE.INTRA.POLAR.0>
0

>  <SCORE.INTRA.REPUL>
0.028002

>  <SCORE.INTRA.REPUL.0>
0.12705

>  <SCORE.INTRA.SOLV>
-6.22764

>  <SCORE.INTRA.SOLV.lig_0>
-119.383

>  <SCORE.INTRA.VDW>
2.09703

>  <SCORE.INTRA.VDW.0>
-5.10464

>  <SCORE.INTRA.norm>
-0.781579

>  <SCORE.RESTR>
0

>  <SCORE.RESTR.CAVITY>
0

>  <SCORE.RESTR.norm>
0

>  <SCORE.SYSTEM>
0

>  <SCORE.SYSTEM.CONST>
0

>  <SCORE.SYSTEM.DIHEDRAL>
0

>  <SCORE.SYSTEM.SOLV>
0

>  <SCORE.SYSTEM.norm>
0

>  <SCORE.heavy>
32

>  <SCORE.norm>
-1.30879

>  <RMSD>
7.698

$$$$
2au4_lig
 OpenBabel11021811423D
libRbt.so/2013.1/901 2013/11/27
 32 34  0  0  0  0  0  0  0  0999 V2000
   68.0005    7.1459    2.8182 P   0  0  1  0  0  0  0  0  0  0  0  0
   66.6048    7.0568    0.4915 P   0  0  1  0  0  0  0  0  0  0  0  0
   64.7581    6.5034   -1.4383 P   0  0  2  0  0  0  0  0  0  0  0  0
   67.3216    9.0070    4.5807 C   0  0  0  0  0  0  0  0  0  0  0  0
   67.1697    8.4498    3.2645 O   0  0  0  0  0  0  0  0  0  0  0  0
   66.4206   10.2115    4.8102 C   0  0  0  0  0  0  0  0  0  0  0  0
   67.0370   11.4111    4.2989 O   0  0  0  0  0  0  0  0  0  0  0  0
   65.0844   10.0259    4.1082 C   0  0  0  0  0  0  0  0  0  0  0  0
   64.0113    9.9708    5.0560 O   0  0  0  0  0  0  0  0  0  0  0  0
   64.9238   11.2015    3.1741 C   0  0  0  0  0  0  0  0  0  0  0  0
   63.7374   11.9476    3.4777 O   0  0  0  0  0  0  0  0  0  0  0  0
   66.1628   12.0618    3.3524 C   0  0  0  0  0  0  0  0  0  0  0  0
   70.5965   12.9933    0.9984 N   0  0  0  0  0  0  0  0  0  0  0  0
   69.1388    7.5763    1.9817 O   0  5  0  0  0  0  0  0  0  0  0  0
   66.0884    8.4143    0.7535 O   0  5  0  0  0  0  0  0  0  0  0  0
   63.4915    5.7535   -1.5593 O   0  5  0  0  0  0  0  0  0  0  0  0
   70.3331   12.8578    2.3407 C   0  0  1  0  0  0  0  0  0  0  0  0
   71.3685   12.9891    3.1591 N   0  0  0  0  0  0  0  0  0  0  0  0
   68.2339    6.3038    4.0110 O   0  0  0  0  0  0  0  0  0  0  0  0
   67.7476    6.8624   -0.4249 O   0  0  0  0  0  0  0  0  0  0  0  0
   65.8103    6.3477   -2.4643 O   0  0  0  0  0  0  0  0  0  0  0  0
   69.1232   12.6121    2.8373 N   0  0  0  0  0  0  0  0  0  0  0  0
   66.9675    6.3859    1.8825 O   0  0  0  0  0  0  0  0  0  0  0  0
   65.4011    6.1560   -0.0231 O   0  0  0  0  0  0  0  0  0  0  0  0
   64.4123    8.0656   -1.2954 O   0  0  0  0  0  0  0  0  0  0  0  0
   68.1849   12.5127    1.8677 C   0  0  2  0  0  0  0  0  0  0  0  0
   68.3631   12.6347    0.4990 C   0  0  2  0  0  0  0  0  0  0  0  0
   69.6575   12.8966   -0.0129 C   0  0  1  0  0  0  0  0  0  0  0  0
   69.9951   13.0579   -1.1780 O   0  0  0  0  0  0  0  0  0  0  0  0
   67.1500   12.4693   -0.1778 N   0  0  0  0  0  0  0  0  0  0  0  0
   66.3344   12.2632    0.8042 C   0  0  0  0  0  0  0  0  0  0  0  0
   66.8458   12.2686    2.0605 N   0  0  0  0  0  0  0  0  0  0  0  0
  1  5  1  1  0  0  0
  1 14  1  0  0  0  0
  1 19  2  0  0  0  0
  2 15  1  1  0  0  0
  2 20  2  0  0  0  0
  2 23  1  0  0  0  0
  3 16  1  6  0  0  0
  3 21  2  0  0  0  0
  3 24  1  0  0  0  0
  3 25  1  0  0  0  0
  4  6  1  0  0  0  0
  5  4  1  0  0  0  0
  6  7  1  0  0  0  0
  6  8  2  0  0  0  0
  7 12  1  0  0  0  0
  8  9  1  0  0  0  0
  8 10  1  0  0  0  0
 10 11  1  0  0  0  0
 10 12  2  0  0  0  0
 12 32  1  0  0  0  0
 13 17  1  0  0  0  0
 17 18  1  1  0  0  0
 17 22  1  0  0  0  0
 23  1  1  0  0  0  0
 24  2  1  0  0  0  0
 26 22  1  1  0  0  0
 27 26  1  0  0  0  0
 27 28  1  0  0  0  0
 27 30  1  1  0  0  0
 28 13  1  0  0  0  0
 28 29  1  1  0  0  0
 31 30  1  0  0  0  0
 32 26  1  0  0  0  0
 32 31  1  0  0  0  0
M  CHG  3  14  -1  15  -1  16  -1
M  END
>  <CHROM.1>
-101.38361057,-56.66913236,-167.27750042,-83.92059665,-178.45328842,-32.46808465
68.48594937,66.69043493,66.98408578,9.47181875,1.53158341,2.43338211,-0.96542610
-1.98262702

>  <Name>
2au4_lig

>  <RI>
0

>  <Rbt.Current_Directory>
/home/itssahil/PROJECTS/Mol_Feturizer/New_Systems/rnas/2au4

>  <Rbt.Executable>
rbdock ($Id: //depot/dev/client3/rdock/2013.1/src/exe/rbdock.cxx#4 $)

>  <Rbt.Library>
libRbt.so (2013.1, Build901 2013/11/27)

>  <Rbt.Parameter_File>
/export/apps/rDock/src/rDock_2013.1_src/data/scripts/dock_solv.prm

>  <Rbt.Receptor>
prm/pocket_docking_5.prm

>  <SCORE>
-40.9382

>  <SCORE.INTER>
-15.1722

>  <SCORE.INTER.CONST>
1

>  <SCORE.INTER.POLAR>
-0.997507

>  <SCORE.INTER.ROT>
8

>  <SCORE.INTER.SOLV>
25.8671

>  <SCORE.INTER.VDW>
-24.3455

>  <SCORE.INTER.norm>
-0.474133

>  <SCORE.INTRA>
-25.766

>  <SCORE.INTRA.DIHEDRAL>
-49.1243

>  <SCORE.INTRA.DIHEDRAL.0>
76.3625

>  <SCORE.INTRA.POLAR>
0

>  <SCORE.INTRA.POLAR.0>
0

>  <SCORE.INTRA.REPUL>
0.0552402

>  <SCORE.INTRA.REPUL.0>
0.12705

>  <SCORE.INTRA.SOLV>
-5.17708

>  <SCORE.INTRA.SOLV.lig_0>
-119.383

>  <SCORE.INTRA.VDW>
1.1085

>  <SCORE.INTRA.VDW.0>
-5.10464

>  <SCORE.INTRA.norm>
-0.805187

>  <SCORE.RESTR>
0

>  <SCORE.RESTR.CAVITY>
0

>  <SCORE.RESTR.norm>
0

>  <SCORE.SYSTEM>
0

>  <SCORE.SYSTEM.CONST>
0

>  <SCORE.SYSTEM.DIHEDRAL>
0

>  <SCORE.SYSTEM.SOLV>
0

>  <SCORE.SYSTEM.norm>
0

>  <SCORE.heavy>
32

>  <SCORE.norm>
-1.27932

>  <RMSD>
7.703

$$$$
2au4_lig
 OpenBabel11021811423D
libRbt.so/2013.1/901 2013/11/27
 32 34  0  0  0  0  0  0  0  0999 V2000
   68.8096    8.3745    0.1746 P   0  0  1  0  0  0  0  0  0  0  0  0
   68.8411    5.8567   -0.8400 P   0  0  1  0  0  0  0  0  0  0  0  0
   68.2097    5.8846   -3.4936 P   0  0  2  0  0  0  0  0  0  0  0  0
   70.8598    9.9441    0.7776 C   0  0  0  0  0  0  0  0  0  0  0  0
   69.7561    9.6478   -0.0941 O   0  0  0  0  0  0  0  0  0  0  0  0
   71.2961   11.3992    0.6900 C   0  0  0  0  0  0  0  0  0  0  0  0
   70.6186   12.1930    1.6855 O   0  0  0  0  0  0  0  0  0  0  0  0
   72.7943   11.5267    0.9176 C   0  0  0  0  0  0  0  0  0  0  0  0
   73.4494   12.0280   -0.2539 O   0  0  0  0  0  0  0  0  0  0  0  0
   72.9722   12.4689    2.0842 C   0  0  0  0  0  0  0  0  0  0  0  0
   73.7546   13.6121    1.7137 O   0  0  0  0  0  0  0  0  0  0  0  0
   71.5762   12.8864    2.5134 C   0  0  0  0  0  0  0  0  0  0  0  0
   68.1885   11.5579    6.0946 N   0  0  0  0  0  0  0  0  0  0  0  0
   69.2106    7.7508    1.4517 O   0  5  0  0  0  0  0  0  0  0  0  0
   69.8202    5.2298    0.0690 O   0  5  0  0  0  0  0  0  0  0  0  0
   68.4649    5.0706   -4.6992 O   0  5  0  0  0  0  0  0  0  0  0  0
   67.9992   11.7662    4.7491 C   0  0  1  0  0  0  0  0  0  0  0  0
   66.7621   11.6077    4.2981 N   0  0  0  0  0  0  0  0  0  0  0  0
   67.4038    8.7767   -0.0446 O   0  0  0  0  0  0  0  0  0  0  0  0
   67.3954    5.7694   -0.5467 O   0  0  0  0  0  0  0  0  0  0  0  0
   68.4307    7.3454   -3.5274 O   0  0  0  0  0  0  0  0  0  0  0  0
   68.9714   12.1120    3.9089 N   0  0  0  0  0  0  0  0  0  0  0  0
   69.2209    7.3886   -0.9998 O   0  0  0  0  0  0  0  0  0  0  0  0
   69.0828    5.2863   -2.3034 O   0  0  0  0  0  0  0  0  0  0  0  0
   66.7056    5.6077   -3.0023 O   0  0  0  0  0  0  0  0  0  0  0  0
   70.1652   12.2351    4.5336 C   0  0  2  0  0  0  0  0  0  0  0  0
   70.4430   12.0442    5.8776 C   0  0  2  0  0  0  0  0  0  0  0  0
   69.3964   11.6768    6.7584 C   0  0  1  0  0  0  0  0  0  0  0  0
   69.4506   11.4918    7.9669 O   0  0  0  0  0  0  0  0  0  0  0  0
   71.7985   12.2669    6.1425 N   0  0  0  0  0  0  0  0  0  0  0  0
   72.2427   12.5720    4.9671 C   0  0  0  0  0  0  0  0  0  0  0  0
   71.3558   12.5830    3.9409 N   0  0  0  0  0  0  0  0  0  0  0  0
  1  5  1  6  0  0  0
  1 14  1  0  0  0  0
  1 19  2  0  0  0  0
  2 15  1  1  0  0  0
  2 20  2  0  0  0  0
  2 23  1  0  0  0  0
  3 16  1  6  0  0  0
  3 21  2  0  0  0  0
  3 24  1  0  0  0  0
  3 25  1  0  0  0  0
  4  6  1  0  0  0  0
  5  4  1  0  0  0  0
  6  7  1  0  0  0  0
  6  8  2  0  0  0  0
  7 12  1  0  0  0  0
  8  9  1  0  0  0  0
  8 10  1  0  0  0  0
 10 11  1  0  0  0  0
 10 12  2  0  0  0  0
 12 32  1  0  0  0  0
 13 17  1  0  0  0  0
 17 18  1  1  0  0  0
 17 22  1  0  0  0  0
 23  1  1  0  0  0  0
 24  2  1  0  0  0  0
 26 22  1  1  0  0  0
 27 26  1  0  0  0  0
 27 28  1  0  0  0  0
 27 30  1  1  0  0  0
 28 13  1  0  0  0  0
 28 29  1  1  0  0  0
 31 30  1  0  0  0  0
 32 26  1  0  0  0  0
 32 31  1  0  0  0  0
M  CHG  3  14  -1  15  -1  16  -1
M  END
>  <CHROM.1>
5.37559621,-78.68479519,-171.72943675,92.43953425,-158.68170177,-27.73515317
161.76116585,-175.98216459,69.68230551,9.42959175,1.18776717,1.87671041,-0.67033223
-2.10090434

>  <Name>
2au4_lig

>  <RI>
0

>  <Rbt.Current_Directory>
/home/itssahil/PROJECTS/Mol_Feturizer/New_Systems/rnas/2au4

>  <Rbt.Executable>
rbdock ($Id: //depot/dev/client3/rdock/2013.1/src/exe/rbdock.cxx#4 $)

>  <Rbt.Library>
libRbt.so (2013.1, Build901 2013/11/27)

>  <Rbt.Parameter_File>
/export/apps/rDock/src/rDock_2013.1_src/data/scripts/dock_solv.prm

>  <Rbt.Receptor>
prm/pocket_docking_8.prm

>  <SCORE>
-41.3535

>  <SCORE.INTER>
-17.7747

>  <SCORE.INTER.CONST>
1

>  <SCORE.INTER.POLAR>
-2.65629

>  <SCORE.INTER.ROT>
8

>  <SCORE.INTER.SOLV>
22.4564

>  <SCORE.INTER.VDW>
-19.4143

>  <SCORE.INTER.norm>
-0.55546

>  <SCORE.INTRA>
-23.5787

>  <SCORE.INTRA.DIHEDRAL>
-46.2017

>  <SCORE.INTRA.DIHEDRAL.0>
76.3625

>  <SCORE.INTRA.POLAR>
0

>  <SCORE.INTRA.POLAR.0>
0

>  <SCORE.INTRA.REPUL>
0.0691573

>  <SCORE.INTRA.REPUL.0>
0.12705

>  <SCORE.INTRA.SOLV>
-5.40041

>  <SCORE.INTRA.SOLV.lig_0>
-119.383

>  <SCORE.INTRA.VDW>
1.87653

>  <SCORE.INTRA.VDW.0>
-5.10464

>  <SCORE.INTRA.norm>
-0.736835

>  <SCORE.RESTR>
0

>  <SCORE.RESTR.CAVITY>
0

>  <SCORE.RESTR.norm>
0

>  <SCORE.SYSTEM>
0

>  <SCORE.SYSTEM.CONST>
0

>  <SCORE.SYSTEM.DIHEDRAL>
0

>  <SCORE.SYSTEM.SOLV>
0

>  <SCORE.SYSTEM.norm>
0

>  <SCORE.heavy>
32

>  <SCORE.norm>
-1.2923

>  <RMSD>
7.736

$$$$
2au4_lig
 OpenBabel11021811423D
libRbt.so/2013.1/901 2013/11/27
 32 34  0  0  0  0  0  0  0  0999 V2000
   68.3401    7.1742    1.9137 P   0  0  1  0  0  0  0  0  0  0  0  0
   67.2001    6.2926   -0.3869 P   0  0  1  0  0  0  0  0  0  0  0  0
   68.4334    8.0908   -2.0258 P   0  0  2  0  0  0  0  0  0  0  0  0
   68.2291    8.0324    4.4200 C   0  0  0  0  0  0  0  0  0  0  0  0
   67.7964    8.1684    3.0562 O   0  0  0  0  0  0  0  0  0  0  0  0
   67.7052    9.1493    5.3109 C   0  0  0  0  0  0  0  0  0  0  0  0
   68.7981    9.8800    5.9043 O   0  0  0  0  0  0  0  0  0  0  0  0
   66.8590   10.1256    4.5088 C   0  0  0  0  0  0  0  0  0  0  0  0
   65.5017   10.1239    4.9678 O   0  0  0  0  0  0  0  0  0  0  0  0
   67.4902   11.4860    4.6858 C   0  0  0  0  0  0  0  0  0  0  0  0
   66.5635   12.4177    5.2597 O   0  0  0  0  0  0  0  0  0  0  0  0
   68.6887   11.2860    5.5972 C   0  0  0  0  0  0  0  0  0  0  0  0
   70.6822   14.4126    2.0877 N   0  0  0  0  0  0  0  0  0  0  0  0
   69.6614    7.6543    1.4616 O   0  5  0  0  0  0  0  0  0  0  0  0
   68.4402    5.4930   -0.3599 O   0  5  0  0  0  0  0  0  0  0  0  0
   69.5111    7.7343   -1.0809 O   0  5  0  0  0  0  0  0  0  0  0  0
   69.3657   14.2065    2.4254 C   0  0  1  0  0  0  0  0  0  0  0  0
   68.4682   14.9105    1.7487 N   0  0  0  0  0  0  0  0  0  0  0  0
   68.1787    5.7817    2.3838 O   0  0  0  0  0  0  0  0  0  0  0  0
   65.8868    5.6287   -0.2523 O   0  0  0  0  0  0  0  0  0  0  0  0
   67.9413    9.4825   -2.0952 O   0  0  0  0  0  0  0  0  0  0  0  0
   68.9670   13.3565    3.3683 N   0  0  0  0  0  0  0  0  0  0  0  0
   67.3051    7.4108    0.7334 O   0  0  0  0  0  0  0  0  0  0  0  0
   67.1862    7.1464   -1.7271 O   0  0  0  0  0  0  0  0  0  0  0  0
   68.8780    7.6331   -3.5001 O   0  0  0  0  0  0  0  0  0  0  0  0
   70.0075   12.7198    3.9535 C   0  0  2  0  0  0  0  0  0  0  0  0
   71.3570   12.8672    3.6759 C   0  0  2  0  0  0  0  0  0  0  0  0
   71.7643   13.7761    2.6688 C   0  0  1  0  0  0  0  0  0  0  0  0
   72.8980   14.0161    2.2759 O   0  0  0  0  0  0  0  0  0  0  0  0
   72.1276   12.0333    4.4931 N   0  0  0  0  0  0  0  0  0  0  0  0
   71.2139   11.4477    5.1961 C   0  0  0  0  0  0  0  0  0  0  0  0
   69.9217   11.7826    4.9557 N   0  0  0  0  0  0  0  0  0  0  0  0
  1  5  1  1  0  0  0
  1 14  1  0  0  0  0
  1 19  2  0  0  0  0
  2 15  1  1  0  0  0
  2 20  2  0  0  0  0
  2 23  1  0  0  0  0
  3 16  1  1  0  0  0
  3 21  2  0  0  0  0
  3 24  1  0  0  0  0
  3 25  1  0  0  0  0
  4  6  1  0  0  0  0
  5  4  1  0  0  0  0
  6  7  1  0  0  0  0
  6  8  2  0  0  0  0
  7 12  1  0  0  0  0
  8  9  1  0  0  0  0
  8 10  1  0  0  0  0
 10 11  1  0  0  0  0
 10 12  2  0  0  0  0
 12 32  1  0  0  0  0
 13 17  1  0  0  0  0
 17 18  1  6  0  0  0
 17 22  1  0  0  0  0
 23  1  1  0  0  0  0
 24  2  1  0  0  0  0
 26 22  1  6  0  0  0
 27 26  1  0  0  0  0
 27 28  1  0  0  0  0
 27 30  1  6  0  0  0
 28 13  1  0  0  0  0
 28 29  1  6  0  0  0
 31 30  1  0  0  0  0
 32 26  1  0  0  0  0
 32 31  1  0  0  0  0
M  CHG  3  14  -1  15  -1  16  -1
M  END
>  <CHROM.1>
-82.09411133,-20.70251804,12.28332885,-120.27568972,174.41898660,143.39581456
-160.28562365,-54.99255466,68.68362671,9.65183654,2.00382635,2.08577463,-1.00724322
-2.02178107

>  <Name>
2au4_lig

>  <RI>
0

>  <Rbt.Current_Directory>
/home/itssahil/PROJECTS/Mol_Feturizer/New_Systems/rnas/2au4

>  <Rbt.Executable>
rbdock ($Id: //depot/dev/client3/rdock/2013.1/src/exe/rbdock.cxx#4 $)

>  <Rbt.Library>
libRbt.so (2013.1, Build901 2013/11/27)

>  <Rbt.Parameter_File>
/export/apps/rDock/src/rDock_2013.1_src/data/scripts/dock_solv.prm

>  <Rbt.Receptor>
prm/pocket_docking_4.prm

>  <SCORE>
-34.0294

>  <SCORE.INTER>
-13.565

>  <SCORE.INTER.CONST>
1

>  <SCORE.INTER.POLAR>
-1.77487

>  <SCORE.INTER.ROT>
8

>  <SCORE.INTER.SOLV>
29.846

>  <SCORE.INTER.VDW>
-22.0091

>  <SCORE.INTER.norm>
-0.423905

>  <SCORE.INTRA>
-21.0421

>  <SCORE.INTRA.DIHEDRAL>
-45.3162

>  <SCORE.INTRA.DIHEDRAL.0>
76.3625

>  <SCORE.INTRA.POLAR>
0

>  <SCORE.INTRA.POLAR.0>
0

>  <SCORE.INTRA.REPUL>
-0.12705

>  <SCORE.INTRA.REPUL.0>
0.12705

>  <SCORE.INTRA.SOLV>
-1.47732

>  <SCORE.INTRA.SOLV.lig_0>
-119.383

>  <SCORE.INTRA.VDW>
2.98987

>  <SCORE.INTRA.VDW.0>
-5.10464

>  <SCORE.INTRA.norm>
-0.657566

>  <SCORE.RESTR>
0.577642

>  <SCORE.RESTR.CAVITY>
0.577642

>  <SCORE.RESTR.norm>
0.0180513

>  <SCORE.SYSTEM>
0

>  <SCORE.SYSTEM.CONST>
0

>  <SCORE.SYSTEM.DIHEDRAL>
0

>  <SCORE.SYSTEM.SOLV>
0

>  <SCORE.SYSTEM.norm>
0

>  <SCORE.heavy>
32

>  <SCORE.norm>
-1.06342

>  <RMSD>
7.745

$$$$
2au4_lig
 OpenBabel11021811423D
libRbt.so/2013.1/901 2013/11/27
 32 34  0  0  0  0  0  0  0  0999 V2000
   69.6876   10.3895    1.3232 P   0  0  1  0  0  0  0  0  0  0  0  0
   71.3929   10.8968    3.3736 P   0  0  1  0  0  0  0  0  0  0  0  0
   72.1273   13.5226    3.4537 P   0  0  2  0  0  0  0  0  0  0  0  0
   67.3918   10.2253    0.0068 C   0  0  0  0  0  0  0  0  0  0  0  0
   68.1768   10.8595    1.0302 O   0  0  0  0  0  0  0  0  0  0  0  0
   65.9644   10.7504   -0.0409 C   0  0  0  0  0  0  0  0  0  0  0  0
   65.7524   11.7384    0.9882 O   0  0  0  0  0  0  0  0  0  0  0  0
   65.6724   11.3944   -1.3872 C   0  0  0  0  0  0  0  0  0  0  0  0
   64.6486   10.6767   -2.0870 O   0  0  0  0  0  0  0  0  0  0  0  0
   65.2413   12.8128   -1.0996 C   0  0  0  0  0  0  0  0  0  0  0  0
   63.9252   13.0687   -1.6081 O   0  0  0  0  0  0  0  0  0  0  0  0
   65.2771   12.9727    0.4105 C   0  0  0  0  0  0  0  0  0  0  0  0
   68.2641   14.9875    4.0277 N   0  0  0  0  0  0  0  0  0  0  0  0
   69.6629    8.9887    1.7901 O   0  5  0  0  0  0  0  0  0  0  0  0
   71.0272    9.8084    4.3008 O   0  5  0  0  0  0  0  0  0  0  0  0
   70.9683   14.0004    2.6728 O   0  5  0  0  0  0  0  0  0  0  0  0
   67.5587   13.8077    4.0361 C   0  0  1  0  0  0  0  0  0  0  0  0
   67.6522   13.0747    5.1375 N   0  0  0  0  0  0  0  0  0  0  0  0
   70.5327   10.7720    0.1718 O   0  0  0  0  0  0  0  0  0  0  0  0
   72.5053   10.7145    2.4182 O   0  0  0  0  0  0  0  0  0  0  0  0
   73.4104   13.2424    2.7761 O   0  0  0  0  0  0  0  0  0  0  0  0
   66.8084   13.3858    3.0213 N   0  0  0  0  0  0  0  0  0  0  0  0
   70.0988   11.3061    2.5524 O   0  0  0  0  0  0  0  0  0  0  0  0
   71.6866   12.2032    4.2293 O   0  0  0  0  0  0  0  0  0  0  0  0
   72.3981   14.5614    4.6488 O   0  0  0  0  0  0  0  0  0  0  0  0
   66.8208   14.2534    1.9832 C   0  0  2  0  0  0  0  0  0  0  0  0
   67.5005   15.4573    1.8918 C   0  0  2  0  0  0  0  0  0  0  0  0
   68.2945   15.8918    2.9813 C   0  0  1  0  0  0  0  0  0  0  0  0
   68.9381   16.9272    3.0866 O   0  0  0  0  0  0  0  0  0  0  0  0
   67.2622   16.0713    0.6575 N   0  0  0  0  0  0  0  0  0  0  0  0
   66.4704   15.2177    0.0951 C   0  0  0  0  0  0  0  0  0  0  0  0
   66.1443   14.1030    0.7958 N   0  0  0  0  0  0  0  0  0  0  0  0
  1  5  1  6  0  0  0
  1 14  1  0  0  0  0
  1 19  2  0  0  0  0
  2 15  1  1  0  0  0
  2 20  2  0  0  0  0
  2 23  1  0  0  0  0
  3 16  1  6  0  0  0
  3 21  2  0  0  0  0
  3 24  1  0  0  0  0
  3 25  1  0  0  0  0
  4  6  1  0  0  0  0
  5  4  1  0  0  0  0
  6  7  1  0  0  0  0
  6  8  2  0  0  0  0
  7 12  1  0  0  0  0
  8  9  1  0  0  0  0
  8 10  1  0  0  0  0
 10 11  1  0  0  0  0
 10 12  2  0  0  0  0
 12 32  1  0  0  0  0
 13 17  1  0  0  0  0
 17 18  1  1  0  0  0
 17 22  1  0  0  0  0
 23  1  1  0  0  0  0
 24  2  1  0  0  0  0
 26 22  1  1  0  0  0
 27 26  1  0  0  0  0
 27 28  1  0  0  0  0
 27 30  1  1  0  0  0
 28 13  1  0  0  0  0
 28 29  1  1  0  0  0
 31 30  1  0  0  0  0
 32 26  1  0  0  0  0
 32 31  1  0  0  0  0
M  CHG  3  14  -1  15  -1  16  -1
M  END
>  <CHROM.1>
-63.22850359,-79.82277781,68.42894281,-1.46962609,175.94715348,-32.98170511
164.93377870,179.09163264,68.78954361,12.59739696,1.92735712,-0.16725032
0.52870154,-2.75117498

>  <Name>
2au4_lig

>  <RI>
0

>  <Rbt.Current_Directory>
/home/itssahil/PROJECTS/Mol_Feturizer/New_Systems/rnas/2au4

>  <Rbt.Executable>
rbdock ($Id: //depot/dev/client3/rdock/2013.1/src/exe/rbdock.cxx#4 $)

>  <Rbt.Library>
libRbt.so (2013.1, Build901 2013/11/27)

>  <Rbt.Parameter_File>
/export/apps/rDock/src/rDock_2013.1_src/data/scripts/dock_solv.prm

>  <Rbt.Receptor>
prm/pocket_docking_7.prm

>  <SCORE>
-42.8104

>  <SCORE.INTER>
-17.0879

>  <SCORE.INTER.CONST>
1

>  <SCORE.INTER.POLAR>
-3.38137

>  <SCORE.INTER.ROT>
8

>  <SCORE.INTER.SOLV>
20.0562

>  <SCORE.INTER.VDW>
-15.7394

>  <SCORE.INTER.norm>
-0.533997

>  <SCORE.INTRA>
-25.7225

>  <SCORE.INTRA.DIHEDRAL>
-50.3909

>  <SCORE.INTRA.DIHEDRAL.0>
76.3625

>  <SCORE.INTRA.POLAR>
0

>  <SCORE.INTRA.POLAR.0>
0

>  <SCORE.INTRA.REPUL>
0.0531079

>  <SCORE.INTRA.REPUL.0>
0.12705

>  <SCORE.INTRA.SOLV>
-0.399843

>  <SCORE.INTRA.SOLV.lig_0>
-119.383

>  <SCORE.INTRA.VDW>
-0.592692

>  <SCORE.INTRA.VDW.0>
-5.10464

>  <SCORE.INTRA.norm>
-0.803829

>  <SCORE.RESTR>
0

>  <SCORE.RESTR.CAVITY>
0

>  <SCORE.RESTR.norm>
0

>  <SCORE.SYSTEM>
0

>  <SCORE.SYSTEM.CONST>
0

>  <SCORE.SYSTEM.DIHEDRAL>
0

>  <SCORE.SYSTEM.SOLV>
0

>  <SCORE.SYSTEM.norm>
0

>  <SCORE.heavy>
32

>  <SCORE.norm>
-1.33783

>  <RMSD>
7.745

$$$$
2au4_lig
 OpenBabel11021811423D
libRbt.so/2013.1/901 2013/11/27
 32 34  0  0  0  0  0  0  0  0999 V2000
   68.9765    6.2998    1.0217 P   0  0  1  0  0  0  0  0  0  0  0  0
   69.8296    5.4619   -1.4154 P   0  0  1  0  0  0  0  0  0  0  0  0
   67.7606    5.6909   -3.1783 P   0  0  2  0  0  0  0  0  0  0  0  0
   68.3503    8.0515    2.9111 C   0  0  0  0  0  0  0  0  0  0  0  0
   69.0945    7.7445    1.7205 O   0  0  0  0  0  0  0  0  0  0  0  0
   69.2450    8.2120    4.1314 C   0  0  0  0  0  0  0  0  0  0  0  0
   70.6193    8.3924    3.7328 O   0  0  0  0  0  0  0  0  0  0  0  0
   68.8243    9.4211    4.9522 C   0  0  0  0  0  0  0  0  0  0  0  0
   68.3714    9.0248    6.2525 O   0  0  0  0  0  0  0  0  0  0  0  0
   70.0364   10.3165    5.0491 C   0  0  0  0  0  0  0  0  0  0  0  0
   70.4097   10.5390    6.4156 O   0  0  0  0  0  0  0  0  0  0  0  0
   71.1498    9.6122    4.2931 C   0  0  0  0  0  0  0  0  0  0  0  0
   72.6628   14.3245    3.0395 N   0  0  0  0  0  0  0  0  0  0  0  0
   69.4500    5.2758    1.9745 O   0  5  0  0  0  0  0  0  0  0  0  0
   71.1443    5.2363   -2.0470 O   0  5  0  0  0  0  0  0  0  0  0  0
   66.7520    5.2545   -2.1916 O   0  5  0  0  0  0  0  0  0  0  0  0
   72.1665   13.8561    4.2328 C   0  0  1  0  0  0  0  0  0  0  0  0
   72.0530   14.7442    5.2113 N   0  0  0  0  0  0  0  0  0  0  0  0
   67.6357    6.1794    0.4100 O   0  0  0  0  0  0  0  0  0  0  0  0
   68.9993    4.3120   -1.0007 O   0  0  0  0  0  0  0  0  0  0  0  0
   68.3406    4.7145   -4.1239 O   0  0  0  0  0  0  0  0  0  0  0  0
   71.8039   12.5926    4.4396 N   0  0  0  0  0  0  0  0  0  0  0  0
   70.0387    6.4005   -0.1538 O   0  0  0  0  0  0  0  0  0  0  0  0
   68.9607    6.3737   -2.3844 O   0  0  0  0  0  0  0  0  0  0  0  0
   67.1515    6.9161   -4.0201 O   0  0  0  0  0  0  0  0  0  0  0  0
   71.9800   11.8253    3.3393 C   0  0  2  0  0  0  0  0  0  0  0  0
   72.4718   12.2141    2.1037 C   0  0  2  0  0  0  0  0  0  0  0  0
   72.8528   13.5630    1.9003 C   0  0  1  0  0  0  0  0  0  0  0  0
   73.2799   14.0859    0.8797 O   0  0  0  0  0  0  0  0  0  0  0  0
   72.5031   11.1322    1.2172 N   0  0  0  0  0  0  0  0  0  0  0  0
   72.0375   10.1802    1.9580 C   0  0  0  0  0  0  0  0  0  0  0  0
   71.6958   10.4842    3.2350 N   0  0  0  0  0  0  0  0  0  0  0  0
  1  5  1  1  0  0  0
  1 14  1  0  0  0  0
  1 19  2  0  0  0  0
  2 15  1  6  0  0  0
  2 20  2  0  0  0  0
  2 23  1  0  0  0  0
  3 16  1  1  0  0  0
  3 21  2  0  0  0  0
  3 24  1  0  0  0  0
  3 25  1  0  0  0  0
  4  6  1  0  0  0  0
  5  4  1  0  0  0  0
  6  7  1  0  0  0  0
  6  8  2  0  0  0  0
  7 12  1  0  0  0  0
  8  9  1  0  0  0  0
  8 10  1  0  0  0  0
 10 11  1  0  0  0  0
 10 12  2  0  0  0  0
 12 32  1  0  0  0  0
 13 17  1  0  0  0  0
 17 18  1  6  0  0  0
 17 22  1  0  0  0  0
 23  1  1  0  0  0  0
 24  2  1  0  0  0  0
 26 22  1  6  0  0  0
 27 26  1  0  0  0  0
 27 28  1  0  0  0  0
 27 30  1  6  0  0  0
 28 13  1  0  0  0  0
 28 29  1  6  0  0  0
 31 30  1  0  0  0  0
 32 26  1  0  0  0  0
 32 31  1  0  0  0  0
M  CHG  3  14  -1  15  -1  16  -1
M  END
>  <CHROM.1>
-61.81967220,-154.25035689,65.49010914,16.29115579,111.43305354,163.12534245
-155.33074201,106.99023026,70.01466100,8.56273734,1.27582594,2.24228984,-1.00111079
-1.83372839

>  <Name>
2au4_lig

>  <RI>
0

>  <Rbt.Current_Directory>
/home/itssahil/PROJECTS/Mol_Feturizer/New_Systems/rnas/2au4

>  <Rbt.Executable>
rbdock ($Id: //depot/dev/client3/rdock/2013.1/src/exe/rbdock.cxx#4 $)

>  <Rbt.Library>
libRbt.so (2013.1, Build901 2013/11/27)

>  <Rbt.Parameter_File>
/export/apps/rDock/src/rDock_2013.1_src/data/scripts/dock_solv.prm

>  <Rbt.Receptor>
prm/blind_docking_80.prm

>  <SCORE>
-34.7742

>  <SCORE.INTER>
-16.1855

>  <SCORE.INTER.CONST>
1

>  <SCORE.INTER.POLAR>
-1.53284

>  <SCORE.INTER.ROT>
8

>  <SCORE.INTER.SOLV>
41.6242

>  <SCORE.INTER.VDW>
-28.489

>  <SCORE.INTER.norm>
-0.505798

>  <SCORE.INTRA>
-19.1611

>  <SCORE.INTRA.DIHEDRAL>
-38.1151

>  <SCORE.INTRA.DIHEDRAL.0>
76.3625

>  <SCORE.INTRA.POLAR>
0

>  <SCORE.INTRA.POLAR.0>
0

>  <SCORE.INTRA.REPUL>
-0.12705

>  <SCORE.INTRA.REPUL.0>
0.12705

>  <SCORE.INTRA.SOLV>
-1.6108

>  <SCORE.INTRA.SOLV.lig_0>
-119.383

>  <SCORE.INTRA.VDW>
1.33715

>  <SCORE.INTRA.VDW.0>
-5.10464

>  <SCORE.INTRA.norm>
-0.598783

>  <SCORE.RESTR>
0.572415

>  <SCORE.RESTR.CAVITY>
0.572415

>  <SCORE.RESTR.norm>
0.017888

>  <SCORE.SYSTEM>
0

>  <SCORE.SYSTEM.CONST>
0

>  <SCORE.SYSTEM.DIHEDRAL>
0

>  <SCORE.SYSTEM.SOLV>
0

>  <SCORE.SYSTEM.norm>
0

>  <SCORE.heavy>
32

>  <SCORE.norm>
-1.08669

>  <RMSD>
7.757

$$$$
2au4_lig
 OpenBabel11021811423D
libRbt.so/2013.1/901 2013/11/27
 32 34  0  0  0  0  0  0  0  0999 V2000
   64.7679    7.9922   -0.9210 P   0  0  1  0  0  0  0  0  0  0  0  0
   63.2667    9.8458   -2.2172 P   0  0  1  0  0  0  0  0  0  0  0  0
   62.7836   12.5140   -1.9205 P   0  0  2  0  0  0  0  0  0  0  0  0
   65.5883    9.8676    0.7644 C   0  0  0  0  0  0  0  0  0  0  0  0
   64.7554    8.7237    0.5123 O   0  0  0  0  0  0  0  0  0  0  0  0
   67.0572    9.5923    0.4780 C   0  0  0  0  0  0  0  0  0  0  0  0
   67.6809   10.7441   -0.1259 O   0  0  0  0  0  0  0  0  0  0  0  0
   67.8038    9.2641    1.7615 C   0  0  0  0  0  0  0  0  0  0  0  0
   68.3079    7.9233    1.7322 O   0  0  0  0  0  0  0  0  0  0  0  0
   68.9293   10.2650    1.8708 C   0  0  0  0  0  0  0  0  0  0  0  0
   70.2036    9.6096    1.9231 O   0  0  0  0  0  0  0  0  0  0  0  0
   68.8302   11.1555    0.6443 C   0  0  0  0  0  0  0  0  0  0  0  0
   70.4415   14.8167    3.8171 N   0  0  0  0  0  0  0  0  0  0  0  0
   66.0771    7.3335   -1.1021 O   0  5  0  0  0  0  0  0  0  0  0  0
   62.6992    9.1828   -3.4073 O   0  5  0  0  0  0  0  0  0  0  0  0
   63.0340   13.7571   -2.6777 O   0  5  0  0  0  0  0  0  0  0  0  0
   70.8068   13.4929    3.7553 C   0  0  1  0  0  0  0  0  0  0  0  0
   71.7043   13.0887    4.6442 N   0  0  0  0  0  0  0  0  0  0  0  0
   63.5198    7.2125   -1.0639 O   0  0  0  0  0  0  0  0  0  0  0  0
   62.5095    9.8668   -0.9484 O   0  0  0  0  0  0  0  0  0  0  0  0
   63.0449   12.4685   -0.4667 O   0  0  0  0  0  0  0  0  0  0  0  0
   70.3119   12.6281    2.8733 N   0  0  0  0  0  0  0  0  0  0  0  0
   64.6938    9.2156   -1.9301 O   0  0  0  0  0  0  0  0  0  0  0  0
   63.6227   11.3454   -2.6040 O   0  0  0  0  0  0  0  0  0  0  0  0
   61.2655   12.0576   -2.1803 O   0  0  0  0  0  0  0  0  0  0  0  0
   69.4083   13.2037    2.0470 C   0  0  2  0  0  0  0  0  0  0  0  0
   68.9849   14.5230    2.0400 C   0  0  2  0  0  0  0  0  0  0  0  0
   69.5215   15.4303    2.9860 C   0  0  1  0  0  0  0  0  0  0  0  0
   69.2502   16.6133    3.1423 O   0  0  0  0  0  0  0  0  0  0  0  0
   68.0367   14.7363    1.0337 N   0  0  0  0  0  0  0  0  0  0  0  0
   67.9495   13.5575    0.5094 C   0  0  0  0  0  0  0  0  0  0  0  0
   68.7212   12.5743    1.0361 N   0  0  0  0  0  0  0  0  0  0  0  0
  1  5  1  1  0  0  0
  1 14  1  0  0  0  0
  1 19  2  0  0  0  0
  2 15  1  6  0  0  0
  2 20  2  0  0  0  0
  2 23  1  0  0  0  0
  3 16  1  6  0  0  0
  3 21  2  0  0  0  0
  3 24  1  0  0  0  0
  3 25  1  0  0  0  0
  4  6  1  0  0  0  0
  5  4  1  0  0  0  0
  6  7  1  0  0  0  0
  6  8  2  0  0  0  0
  7 12  1  0  0  0  0
  8  9  1  0  0  0  0
  8 10  1  0  0  0  0
 10 11  1  0  0  0  0
 10 12  2  0  0  0  0
 12 32  1  0  0  0  0
 13 17  1  0  0  0  0
 17 18  1  1  0  0  0
 17 22  1  0  0  0  0
 23  1  1  0  0  0  0
 24  2  1  0  0  0  0
 26 22  1  1  0  0  0
 27 26  1  0  0  0  0
 27 28  1  0  0  0  0
 27 30  1  1  0  0  0
 28 13  1  0  0  0  0
 28 29  1  1  0  0  0
 31 30  1  0  0  0  0
 32 26  1  0  0  0  0
 32 31  1  0  0  0  0
M  CHG  3  14  -1  15  -1  16  -1
M  END
>  <CHROM.1>
68.28231216,-92.66648276,-165.29500961,141.63575454,-55.08723662,160.89631000
-81.61442773,112.86383343,66.29139782,11.21491898,0.19387930,-2.68905069
-0.58461164,0.07258574

>  <Name>
2au4_lig

>  <RI>
0

>  <Rbt.Current_Directory>
/home/itssahil/PROJECTS/Mol_Feturizer/New_Systems/rnas/2au4

>  <Rbt.Executable>
rbdock ($Id: //depot/dev/client3/rdock/2013.1/src/exe/rbdock.cxx#4 $)

>  <Rbt.Library>
libRbt.so (2013.1, Build901 2013/11/27)

>  <Rbt.Parameter_File>
/export/apps/rDock/src/rDock_2013.1_src/data/scripts/dock_solv.prm

>  <Rbt.Receptor>
prm/pocket_docking_7.prm

>  <SCORE>
-40.5895

>  <SCORE.INTER>
-16.6315

>  <SCORE.INTER.CONST>
1

>  <SCORE.INTER.POLAR>
-2.53774

>  <SCORE.INTER.ROT>
8

>  <SCORE.INTER.SOLV>
18.2942

>  <SCORE.INTER.VDW>
-17.6599

>  <SCORE.INTER.norm>
-0.519734

>  <SCORE.INTRA>
-23.958

>  <SCORE.INTRA.DIHEDRAL>
-45.3091

>  <SCORE.INTRA.DIHEDRAL.0>
76.3625

>  <SCORE.INTRA.POLAR>
0

>  <SCORE.INTRA.POLAR.0>
0

>  <SCORE.INTRA.REPUL>
-0.12705

>  <SCORE.INTRA.REPUL.0>
0.12705

>  <SCORE.INTRA.SOLV>
-3.81679

>  <SCORE.INTRA.SOLV.lig_0>
-119.383

>  <SCORE.INTRA.VDW>
1.24019

>  <SCORE.INTRA.VDW.0>
-5.10464

>  <SCORE.INTRA.norm>
-0.748687

>  <SCORE.RESTR>
0

>  <SCORE.RESTR.CAVITY>
0

>  <SCORE.RESTR.norm>
0

>  <SCORE.SYSTEM>
0

>  <SCORE.SYSTEM.CONST>
0

>  <SCORE.SYSTEM.DIHEDRAL>
0

>  <SCORE.SYSTEM.SOLV>
0

>  <SCORE.SYSTEM.norm>
0

>  <SCORE.heavy>
32

>  <SCORE.norm>
-1.26842

>  <RMSD>
7.785

$$$$
2au4_lig
 OpenBabel11021811423D
libRbt.so/2013.1/901 2013/11/27
 32 34  0  0  0  0  0  0  0  0999 V2000
   68.2061    7.2821    2.3802 P   0  0  1  0  0  0  0  0  0  0  0  0
   69.8092    5.6412    0.9286 P   0  0  1  0  0  0  0  0  0  0  0  0
   69.3933    4.5859   -1.5521 P   0  0  2  0  0  0  0  0  0  0  0  0
   68.2864    8.5210    4.7231 C   0  0  0  0  0  0  0  0  0  0  0  0
   67.9940    7.3294    3.9746 O   0  0  0  0  0  0  0  0  0  0  0  0
   69.7145    8.5426    5.2480 C   0  0  0  0  0  0  0  0  0  0  0  0
   70.6560    8.5796    4.1560 O   0  0  0  0  0  0  0  0  0  0  0  0
   69.9489    9.7657    6.1208 C   0  0  0  0  0  0  0  0  0  0  0  0
   70.2416    9.3833    7.4702 O   0  0  0  0  0  0  0  0  0  0  0  0
   71.1063   10.5159    5.5060 C   0  0  0  0  0  0  0  0  0  0  0  0
   72.1889   10.6532    6.4362 O   0  0  0  0  0  0  0  0  0  0  0  0
   71.5378    9.7144    4.2900 C   0  0  0  0  0  0  0  0  0  0  0  0
   72.0584   14.4124    2.3602 N   0  0  0  0  0  0  0  0  0  0  0  0
   66.8814    7.3079    1.7280 O   0  5  0  0  0  0  0  0  0  0  0  0
   69.9522    6.9381    0.2389 O   0  5  0  0  0  0  0  0  0  0  0  0
   69.3604    5.9566   -2.1012 O   0  5  0  0  0  0  0  0  0  0  0  0
   72.1687   13.9872    3.6627 C   0  0  1  0  0  0  0  0  0  0  0  0
   72.4462   14.9198    4.5640 N   0  0  0  0  0  0  0  0  0  0  0  0
   69.2335    8.2791    2.0109 O   0  0  0  0  0  0  0  0  0  0  0  0
   71.0070    4.9186    1.4045 O   0  0  0  0  0  0  0  0  0  0  0  0
   68.5885    3.5180   -2.1813 O   0  0  0  0  0  0  0  0  0  0  0  0
   72.0106   12.7225    4.0452 N   0  0  0  0  0  0  0  0  0  0  0  0
   68.8297    5.8388    2.1607 O   0  0  0  0  0  0  0  0  0  0  0  0
   68.9853    4.6630   -0.0145 O   0  0  0  0  0  0  0  0  0  0  0  0
   70.9233    4.1007   -1.4878 O   0  0  0  0  0  0  0  0  0  0  0  0
   71.7282   11.9066    3.0036 C   0  0  2  0  0  0  0  0  0  0  0  0
   71.5999   12.2500    1.6674 C   0  0  2  0  0  0  0  0  0  0  0  0
   71.7709   13.6009    1.2774 C   0  0  1  0  0  0  0  0  0  0  0  0
   71.6716   14.0867    0.1586 O   0  0  0  0  0  0  0  0  0  0  0  0
   71.3010   11.1255    0.8906 N   0  0  0  0  0  0  0  0  0  0  0  0
   71.2679   10.1953    1.7882 C   0  0  0  0  0  0  0  0  0  0  0  0
   71.5076   10.5514    3.0748 N   0  0  0  0  0  0  0  0  0  0  0  0
  1  5  1  1  0  0  0
  1 14  1  0  0  0  0
  1 19  2  0  0  0  0
  2 15  1  6  0  0  0
  2 20  2  0  0  0  0
  2 23  1  0  0  0  0
  3 16  1  6  0  0  0
  3 21  2  0  0  0  0
  3 24  1  0  0  0  0
  3 25  1  0  0  0  0
  4  6  1  0  0  0  0
  5  4  1  0  0  0  0
  6  7  1  0  0  0  0
  6  8  2  0  0  0  0
  7 12  1  0  0  0  0
  8  9  1  0  0  0  0
  8 10  1  0  0  0  0
 10 11  1  0  0  0  0
 10 12  2  0  0  0  0
 12 32  1  0  0  0  0
 13 17  1  0  0  0  0
 17 18  1  1  0  0  0
 17 22  1  0  0  0  0
 23  1  1  0  0  0  0
 24  2  1  0  0  0  0
 26 22  1  1  0  0  0
 27 26  1  0  0  0  0
 27 28  1  0  0  0  0
 27 30  1  1  0  0  0
 28 13  1  0  0  0  0
 28 29  1  1  0  0  0
 31 30  1  0  0  0  0
 32 26  1  0  0  0  0
 32 31  1  0  0  0  0
M  CHG  3  14  -1  15  -1  16  -1
M  END
>  <CHROM.1>
-106.74170912,1.38317583,-54.80652384,64.32290734,-91.59683002,151.00093877
-150.70768518,46.12016403,70.21475968,8.65596239,2.16942172,2.31110796,-1.16026418
-1.93296069

>  <Name>
2au4_lig

>  <RI>
0

>  <Rbt.Current_Directory>
/home/itssahil/PROJECTS/Mol_Feturizer/New_Systems/rnas/2au4

>  <Rbt.Executable>
rbdock ($Id: //depot/dev/client3/rdock/2013.1/src/exe/rbdock.cxx#4 $)

>  <Rbt.Library>
libRbt.so (2013.1, Build901 2013/11/27)

>  <Rbt.Parameter_File>
/export/apps/rDock/src/rDock_2013.1_src/data/scripts/dock_solv.prm

>  <Rbt.Receptor>
prm/blind_docking_80.prm

>  <SCORE>
-34.2549

>  <SCORE.INTER>
-16.4944

>  <SCORE.INTER.CONST>
1

>  <SCORE.INTER.POLAR>
-2.26142

>  <SCORE.INTER.ROT>
8

>  <SCORE.INTER.SOLV>
41.2123

>  <SCORE.INTER.VDW>
-26.129

>  <SCORE.INTER.norm>
-0.51545

>  <SCORE.INTRA>
-18.4397

>  <SCORE.INTRA.DIHEDRAL>
-41.2775

>  <SCORE.INTRA.DIHEDRAL.0>
76.3625

>  <SCORE.INTRA.POLAR>
0

>  <SCORE.INTRA.POLAR.0>
0

>  <SCORE.INTRA.REPUL>
-0.12705

>  <SCORE.INTRA.REPUL.0>
0.12705

>  <SCORE.INTRA.SOLV>
-1.73179

>  <SCORE.INTRA.SOLV.lig_0>
-119.383

>  <SCORE.INTRA.VDW>
3.70021

>  <SCORE.INTRA.VDW.0>
-5.10464

>  <SCORE.INTRA.norm>
-0.57624

>  <SCORE.RESTR>
0.679174

>  <SCORE.RESTR.CAVITY>
0.679174

>  <SCORE.RESTR.norm>
0.0212242

>  <SCORE.SYSTEM>
0

>  <SCORE.SYSTEM.CONST>
0

>  <SCORE.SYSTEM.DIHEDRAL>
0

>  <SCORE.SYSTEM.SOLV>
0

>  <SCORE.SYSTEM.norm>
0

>  <SCORE.heavy>
32

>  <SCORE.norm>
-1.07047

>  <RMSD>
7.836

$$$$
2au4_lig
 OpenBabel11021811423D
libRbt.so/2013.1/901 2013/11/27
 32 34  0  0  0  0  0  0  0  0999 V2000
   67.9970   10.9926   -1.2556 P   0  0  1  0  0  0  0  0  0  0  0  0
   67.5354    8.4194   -0.5241 P   0  0  1  0  0  0  0  0  0  0  0  0
   67.0245    6.8481   -2.6945 P   0  0  2  0  0  0  0  0  0  0  0  0
   69.1558   12.2923    0.7440 C   0  0  0  0  0  0  0  0  0  0  0  0
   68.9386   12.1590   -0.6705 O   0  0  0  0  0  0  0  0  0  0  0  0
   70.0729   13.4578    1.0845 C   0  0  0  0  0  0  0  0  0  0  0  0
   69.9631   13.7985    2.4817 O   0  0  0  0  0  0  0  0  0  0  0  0
   71.5230   13.1050    0.7926 C   0  0  0  0  0  0  0  0  0  0  0  0
   72.0570   13.9451   -0.2379 O   0  0  0  0  0  0  0  0  0  0  0  0
   72.2779   13.2878    2.0876 C   0  0  0  0  0  0  0  0  0  0  0  0
   73.3330   14.2479    1.9425 O   0  0  0  0  0  0  0  0  0  0  0  0
   71.2600   13.7553    3.1136 C   0  0  0  0  0  0  0  0  0  0  0  0
   68.4528   11.6894    6.8443 N   0  0  0  0  0  0  0  0  0  0  0  0
   66.5876   11.3546   -1.0040 O   0  5  0  0  0  0  0  0  0  0  0  0
   68.1420    7.3728    0.3213 O   0  5  0  0  0  0  0  0  0  0  0  0
   67.6445    6.5397   -3.9991 O   0  5  0  0  0  0  0  0  0  0  0  0
   68.0780   12.5657    5.8537 C   0  0  1  0  0  0  0  0  0  0  0  0
   66.8069   12.9441    5.8536 N   0  0  0  0  0  0  0  0  0  0  0  0
   68.4451   10.6672   -2.6266 O   0  0  0  0  0  0  0  0  0  0  0  0
   66.0982    8.7374   -0.3935 O   0  0  0  0  0  0  0  0  0  0  0  0
   65.5828    7.1635   -2.6172 O   0  0  0  0  0  0  0  0  0  0  0  0
   68.9096   13.0373    4.9281 N   0  0  0  0  0  0  0  0  0  0  0  0
   68.3581    9.7606   -0.3219 O   0  0  0  0  0  0  0  0  0  0  0  0
   67.8253    8.0622   -2.0451 O   0  0  0  0  0  0  0  0  0  0  0  0
   67.3367    5.6384   -1.6847 O   0  0  0  0  0  0  0  0  0  0  0  0
   70.1647   12.5545    5.0771 C   0  0  2  0  0  0  0  0  0  0  0  0
   70.6256   11.6728    6.0414 C   0  0  2  0  0  0  0  0  0  0  0  0
   69.7272   11.1807    7.0196 C   0  0  1  0  0  0  0  0  0  0  0  0
   69.9600   10.4227    7.9517 O   0  0  0  0  0  0  0  0  0  0  0  0
   71.9887   11.4112    5.8664 N   0  0  0  0  0  0  0  0  0  0  0  0
   72.2580   12.1366    4.8304 C   0  0  0  0  0  0  0  0  0  0  0  0
   71.2463   12.8556    4.2835 N   0  0  0  0  0  0  0  0  0  0  0  0
  1  5  1  1  0  0  0
  1 14  1  0  0  0  0
  1 19  2  0  0  0  0
  2 15  1  1  0  0  0
  2 20  2  0  0  0  0
  2 23  1  0  0  0  0
  3 16  1  6  0  0  0
  3 21  2  0  0  0  0
  3 24  1  0  0  0  0
  3 25  1  0  0  0  0
  4  6  1  0  0  0  0
  5  4  1  0  0  0  0
  6  7  1  0  0  0  0
  6  8  2  0  0  0  0
  7 12  1  0  0  0  0
  8  9  1  0  0  0  0
  8 10  1  0  0  0  0
 10 11  1  0  0  0  0
 10 12  2  0  0  0  0
 12 32  1  0  0  0  0
 13 17  1  0  0  0  0
 17 18  1  1  0  0  0
 17 22  1  0  0  0  0
 23  1  1  0  0  0  0
 24  2  1  0  0  0  0
 26 22  1  1  0  0  0
 27 26  1  0  0  0  0
 27 28  1  0  0  0  0
 27 30  1  1  0  0  0
 28 13  1  0  0  0  0
 28 29  1  1  0  0  0
 31 30  1  0  0  0  0
 32 26  1  0  0  0  0
 32 31  1  0  0  0  0
M  CHG  3  14  -1  15  -1  16  -1
M  END
>  <CHROM.1>
75.03739947,173.17178203,-168.93800903,163.48519523,-179.87032465,-27.94062834
175.52382358,72.79739729,68.99182739,10.73504155,1.31923446,-2.20316621,0.92131627
1.51755923

>  <Name>
2au4_lig

>  <RI>
0

>  <Rbt.Current_Directory>
/home/itssahil/PROJECTS/Mol_Feturizer/New_Systems/rnas/2au4

>  <Rbt.Executable>
rbdock ($Id: //depot/dev/client3/rdock/2013.1/src/exe/rbdock.cxx#4 $)

>  <Rbt.Library>
libRbt.so (2013.1, Build901 2013/11/27)

>  <Rbt.Parameter_File>
/export/apps/rDock/src/rDock_2013.1_src/data/scripts/dock_solv.prm

>  <Rbt.Receptor>
prm/pocket_docking_6.prm

>  <SCORE>
-41.2024

>  <SCORE.INTER>
-14.8591

>  <SCORE.INTER.CONST>
1

>  <SCORE.INTER.POLAR>
-2.33908

>  <SCORE.INTER.ROT>
8

>  <SCORE.INTER.SOLV>
19.0889

>  <SCORE.INTER.VDW>
-17.4055

>  <SCORE.INTER.norm>
-0.464348

>  <SCORE.INTRA>
-26.3432

>  <SCORE.INTRA.DIHEDRAL>
-50.126

>  <SCORE.INTRA.DIHEDRAL.0>
76.3625

>  <SCORE.INTRA.POLAR>
0

>  <SCORE.INTRA.POLAR.0>
0

>  <SCORE.INTRA.REPUL>
0.0687925

>  <SCORE.INTRA.REPUL.0>
0.12705

>  <SCORE.INTRA.SOLV>
-6.17003

>  <SCORE.INTRA.SOLV.lig_0>
-119.383

>  <SCORE.INTRA.VDW>
1.4608

>  <SCORE.INTRA.VDW.0>
-5.10464

>  <SCORE.INTRA.norm>
-0.823226

>  <SCORE.RESTR>
0

>  <SCORE.RESTR.CAVITY>
0

>  <SCORE.RESTR.norm>
0

>  <SCORE.SYSTEM>
0

>  <SCORE.SYSTEM.CONST>
0

>  <SCORE.SYSTEM.DIHEDRAL>
0

>  <SCORE.SYSTEM.SOLV>
0

>  <SCORE.SYSTEM.norm>
0

>  <SCORE.heavy>
32

>  <SCORE.norm>
-1.28757

>  <RMSD>
7.859

$$$$
2au4_lig
 OpenBabel11021811423D
libRbt.so/2013.1/901 2013/11/27
 32 34  0  0  0  0  0  0  0  0999 V2000
   68.5787    6.5028    2.3535 P   0  0  1  0  0  0  0  0  0  0  0  0
   68.6923    6.1840   -0.3400 P   0  0  1  0  0  0  0  0  0  0  0  0
   70.7440    4.5566   -1.1035 P   0  0  2  0  0  0  0  0  0  0  0  0
   68.9573    9.0357    3.0403 C   0  0  0  0  0  0  0  0  0  0  0  0
   69.0753    8.0026    2.0481 O   0  0  0  0  0  0  0  0  0  0  0  0
   69.9737    8.8835    4.1624 C   0  0  0  0  0  0  0  0  0  0  0  0
   71.2464    9.4393    3.7731 O   0  0  0  0  0  0  0  0  0  0  0  0
   69.5030    9.6034    5.4165 C   0  0  0  0  0  0  0  0  0  0  0  0
   69.2827    8.6766    6.4868 O   0  0  0  0  0  0  0  0  0  0  0  0
   70.5837   10.5964    5.7722 C   0  0  0  0  0  0  0  0  0  0  0  0
   71.0988   10.3541    7.0883 O   0  0  0  0  0  0  0  0  0  0  0  0
   71.6741   10.4342    4.7274 C   0  0  0  0  0  0  0  0  0  0  0  0
   72.9739   12.7566    0.3704 N   0  0  0  0  0  0  0  0  0  0  0  0
   69.7645    5.6356    2.5040 O   0  5  0  0  0  0  0  0  0  0  0  0
   67.7563    6.3913   -1.4621 O   0  5  0  0  0  0  0  0  0  0  0  0
   70.9324    5.6483   -2.0803 O   0  5  0  0  0  0  0  0  0  0  0  0
   72.7971   11.4176    0.6261 C   0  0  1  0  0  0  0  0  0  0  0  0
   72.9923   10.5934   -0.3945 N   0  0  0  0  0  0  0  0  0  0  0  0
   67.5565    6.5521    3.4207 O   0  0  0  0  0  0  0  0  0  0  0  0
   69.8105    7.1254   -0.1237 O   0  0  0  0  0  0  0  0  0  0  0  0
   70.8947    3.1495   -1.5292 O   0  0  0  0  0  0  0  0  0  0  0  0
   72.4533   10.9295    1.8153 N   0  0  0  0  0  0  0  0  0  0  0  0
   67.8497    6.1017    1.0015 O   0  0  0  0  0  0  0  0  0  0  0  0
   69.2967    4.7191   -0.4588 O   0  0  0  0  0  0  0  0  0  0  0  0
   71.7189    4.8186    0.1460 O   0  0  0  0  0  0  0  0  0  0  0  0
   72.2997   11.9040    2.7412 C   0  0  2  0  0  0  0  0  0  0  0  0
   72.4571   13.2699    2.5694 C   0  0  2  0  0  0  0  0  0  0  0  0
   72.8237   13.7727    1.2970 C   0  0  1  0  0  0  0  0  0  0  0  0
   73.0290   14.9338    0.9696 O   0  0  0  0  0  0  0  0  0  0  0  0
   72.2123   13.9537    3.7650 N   0  0  0  0  0  0  0  0  0  0  0  0
   71.9296   12.9781    4.5651 C   0  0  0  0  0  0  0  0  0  0  0  0
   71.9527   11.7201    4.0587 N   0  0  0  0  0  0  0  0  0  0  0  0
  1  5  1  6  0  0  0
  1 14  1  0  0  0  0
  1 19  2  0  0  0  0
  2 15  1  6  0  0  0
  2 20  2  0  0  0  0
  2 23  1  0  0  0  0
  3 16  1  6  0  0  0
  3 21  2  0  0  0  0
  3 24  1  0  0  0  0
  3 25  1  0  0  0  0
  4  6  1  0  0  0  0
  5  4  1  0  0  0  0
  6  7  1  0  0  0  0
  6  8  2  0  0  0  0
  7 12  1  0  0  0  0
  8  9  1  0  0  0  0
  8 10  1  0  0  0  0
 10 11  1  0  0  0  0
 10 12  2  0  0  0  0
 12 32  1  0  0  0  0
 13 17  1  0  0  0  0
 17 18  1  1  0  0  0
 17 22  1  0  0  0  0
 23  1  1  0  0  0  0
 24  2  1  0  0  0  0
 26 22  1  1  0  0  0
 27 26  1  0  0  0  0
 27 28  1  0  0  0  0
 27 30  1  1  0  0  0
 28 13  1  0  0  0  0
 28 29  1  1  0  0  0
 31 30  1  0  0  0  0
 32 26  1  0  0  0  0
 32 31  1  0  0  0  0
M  CHG  3  14  -1  15  -1  16  -1
M  END
>  <CHROM.1>
-108.19224694,-154.25892197,-29.86299869,82.26560002,73.63379402,-24.66288276
56.89893702,99.29499594,70.52834194,8.61480589,1.85083800,2.13327655,-0.98541704
-2.18640217

>  <Name>
2au4_lig

>  <RI>
0

>  <Rbt.Current_Directory>
/home/itssahil/PROJECTS/Mol_Feturizer/New_Systems/rnas/2au4

>  <Rbt.Executable>
rbdock ($Id: //depot/dev/client3/rdock/2013.1/src/exe/rbdock.cxx#4 $)

>  <Rbt.Library>
libRbt.so (2013.1, Build901 2013/11/27)

>  <Rbt.Parameter_File>
/export/apps/rDock/src/rDock_2013.1_src/data/scripts/dock_solv.prm

>  <Rbt.Receptor>
prm/blind_docking_80.prm

>  <SCORE>
-36.3902

>  <SCORE.INTER>
-14.9925

>  <SCORE.INTER.CONST>
1

>  <SCORE.INTER.POLAR>
-0.581663

>  <SCORE.INTER.ROT>
8

>  <SCORE.INTER.SOLV>
44.4424

>  <SCORE.INTER.VDW>
-31.8036

>  <SCORE.INTER.norm>
-0.468515

>  <SCORE.INTRA>
-21.4942

>  <SCORE.INTRA.DIHEDRAL>
-44.4445

>  <SCORE.INTRA.DIHEDRAL.0>
76.3625

>  <SCORE.INTRA.POLAR>
0

>  <SCORE.INTRA.POLAR.0>
0

>  <SCORE.INTRA.REPUL>
0.071646

>  <SCORE.INTRA.REPUL.0>
0.12705

>  <SCORE.INTRA.SOLV>
-3.69345

>  <SCORE.INTRA.SOLV.lig_0>
-119.383

>  <SCORE.INTRA.VDW>
2.21652

>  <SCORE.INTRA.VDW.0>
-5.10464

>  <SCORE.INTRA.norm>
-0.671695

>  <SCORE.RESTR>
0.0964769

>  <SCORE.RESTR.CAVITY>
0.0964769

>  <SCORE.RESTR.norm>
0.0030149

>  <SCORE.SYSTEM>
0

>  <SCORE.SYSTEM.CONST>
0

>  <SCORE.SYSTEM.DIHEDRAL>
0

>  <SCORE.SYSTEM.SOLV>
0

>  <SCORE.SYSTEM.norm>
0

>  <SCORE.heavy>
32

>  <SCORE.norm>
-1.13719

>  <RMSD>
7.863

$$$$
2au4_lig
 OpenBabel11021811423D
libRbt.so/2013.1/901 2013/11/27
 32 34  0  0  0  0  0  0  0  0999 V2000
   73.1268   12.5540    3.8450 P   0  0  1  0  0  0  0  0  0  0  0  0
   71.2330   12.9766    5.7435 P   0  0  1  0  0  0  0  0  0  0  0  0
   69.2536   14.0382    7.2913 P   0  0  2  0  0  0  0  0  0  0  0  0
   72.3742   12.5836    1.3027 C   0  0  0  0  0  0  0  0  0  0  0  0
   73.2739   13.0508    2.3215 O   0  0  0  0  0  0  0  0  0  0  0  0
   71.2667   13.5827    1.0017 C   0  0  0  0  0  0  0  0  0  0  0  0
   70.4254   13.1012   -0.0663 O   0  0  0  0  0  0  0  0  0  0  0  0
   70.3970   13.8083    2.2286 C   0  0  0  0  0  0  0  0  0  0  0  0
   70.4893   15.1653    2.6792 O   0  0  0  0  0  0  0  0  0  0  0  0
   68.9837   13.4665    1.8212 C   0  0  0  0  0  0  0  0  0  0  0  0
   68.1066   14.5870    1.9990 O   0  0  0  0  0  0  0  0  0  0  0  0
   69.0471   13.0571    0.3599 C   0  0  0  0  0  0  0  0  0  0  0  0
   65.6745    9.6009    2.0171 N   0  0  0  0  0  0  0  0  0  0  0  0
   72.7312   11.1313    3.8403 O   0  5  0  0  0  0  0  0  0  0  0  0
   70.5438   11.6861    5.5490 O   0  5  0  0  0  0  0  0  0  0  0  0
   70.1239   14.3918    8.4310 O   0  5  0  0  0  0  0  0  0  0  0  0
   65.9375   10.8624    2.4957 C   0  0  1  0  0  0  0  0  0  0  0  0
   65.2239   11.2545    3.5427 N   0  0  0  0  0  0  0  0  0  0  0  0
   74.3212   12.9886    4.6006 O   0  0  0  0  0  0  0  0  0  0  0  0
   72.2539   13.1196    6.8022 O   0  0  0  0  0  0  0  0  0  0  0  0
   68.5227   12.7538    7.2898 O   0  0  0  0  0  0  0  0  0  0  0  0
   66.8496   11.6780    1.9727 N   0  0  0  0  0  0  0  0  0  0  0  0
   71.8894   13.4026    4.3637 O   0  0  0  0  0  0  0  0  0  0  0  0
   70.1324   14.1013    5.9645 O   0  0  0  0  0  0  0  0  0  0  0  0
   68.1958   15.2271    7.0714 O   0  0  0  0  0  0  0  0  0  0  0  0
   67.4867   11.1203    0.9175 C   0  0  2  0  0  0  0  0  0  0  0  0
   67.2846    9.8626    0.3724 C   0  0  2  0  0  0  0  0  0  0  0  0
   66.3100    9.0068    0.9415 C   0  0  1  0  0  0  0  0  0  0  0  0
   66.0155    7.8658    0.6114 O   0  0  0  0  0  0  0  0  0  0  0  0
   68.1394    9.6474   -0.7140 N   0  0  0  0  0  0  0  0  0  0  0  0
   68.7894   10.7645   -0.7540 C   0  0  0  0  0  0  0  0  0  0  0  0
   68.4799   11.7079    0.1701 N   0  0  0  0  0  0  0  0  0  0  0  0
  1  5  1  6  0  0  0
  1 14  1  0  0  0  0
  1 19  2  0  0  0  0
  2 15  1  6  0  0  0
  2 20  2  0  0  0  0
  2 23  1  0  0  0  0
  3 16  1  1  0  0  0
  3 21  2  0  0  0  0
  3 24  1  0  0  0  0
  3 25  1  0  0  0  0
  4  6  1  0  0  0  0
  5  4  1  0  0  0  0
  6  7  1  0  0  0  0
  6  8  2  0  0  0  0
  7 12  1  0  0  0  0
  8  9  1  0  0  0  0
  8 10  1  0  0  0  0
 10 11  1  0  0  0  0
 10 12  2  0  0  0  0
 12 32  1  0  0  0  0
 13 17  1  0  0  0  0
 17 18  1  1  0  0  0
 17 22  1  0  0  0  0
 23  1  1  0  0  0  0
 24  2  1  0  0  0  0
 26 22  1  1  0  0  0
 27 26  1  0  0  0  0
 27 28  1  0  0  0  0
 27 30  1  1  0  0  0
 28 13  1  0  0  0  0
 28 29  1  1  0  0  0
 31 30  1  0  0  0  0
 32 26  1  0  0  0  0
 32 31  1  0  0  0  0
M  CHG  3  14  -1  15  -1  16  -1
M  END
>  <CHROM.1>
37.29945250,-69.72497602,70.79350334,177.37307381,99.22388284,150.25149098
167.35160125,66.82038141,69.70687457,12.44053598,3.37444289,-0.96557518,-0.28605441
-1.91460091

>  <Name>
2au4_lig

>  <RI>
0

>  <Rbt.Current_Directory>
/home/itssahil/PROJECTS/Mol_Feturizer/New_Systems/rnas/2au4

>  <Rbt.Executable>
rbdock ($Id: //depot/dev/client3/rdock/2013.1/src/exe/rbdock.cxx#4 $)

>  <Rbt.Library>
libRbt.so (2013.1, Build901 2013/11/27)

>  <Rbt.Parameter_File>
/export/apps/rDock/src/rDock_2013.1_src/data/scripts/dock_solv.prm

>  <Rbt.Receptor>
prm/pocket_docking_8.prm

>  <SCORE>
-33.9392

>  <SCORE.INTER>
-9.86513

>  <SCORE.INTER.CONST>
1

>  <SCORE.INTER.POLAR>
-2.7154

>  <SCORE.INTER.ROT>
8

>  <SCORE.INTER.SOLV>
16.6231

>  <SCORE.INTER.VDW>
-11.9998

>  <SCORE.INTER.norm>
-0.308285

>  <SCORE.INTRA>
-24.074

>  <SCORE.INTRA.DIHEDRAL>
-44.8862

>  <SCORE.INTRA.DIHEDRAL.0>
76.3625

>  <SCORE.INTRA.POLAR>
0

>  <SCORE.INTRA.POLAR.0>
0

>  <SCORE.INTRA.REPUL>
-0.12705

>  <SCORE.INTRA.REPUL.0>
0.12705

>  <SCORE.INTRA.SOLV>
-2.73045

>  <SCORE.INTRA.SOLV.lig_0>
-119.383

>  <SCORE.INTRA.VDW>
0.369535

>  <SCORE.INTRA.VDW.0>
-5.10464

>  <SCORE.INTRA.norm>
-0.752314

>  <SCORE.RESTR>
0

>  <SCORE.RESTR.CAVITY>
0

>  <SCORE.RESTR.norm>
0

>  <SCORE.SYSTEM>
0

>  <SCORE.SYSTEM.CONST>
0

>  <SCORE.SYSTEM.DIHEDRAL>
0

>  <SCORE.SYSTEM.SOLV>
0

>  <SCORE.SYSTEM.norm>
0

>  <SCORE.heavy>
32

>  <SCORE.norm>
-1.0606

>  <RMSD>
7.869

$$$$
2au4_lig
 OpenBabel11021811423D
libRbt.so/2013.1/901 2013/11/27
 32 34  0  0  0  0  0  0  0  0999 V2000
   68.7256    6.9914    1.7855 P   0  0  1  0  0  0  0  0  0  0  0  0
   67.0815    7.2257   -0.3619 P   0  0  1  0  0  0  0  0  0  0  0  0
   64.5360    7.0242   -1.3214 P   0  0  2  0  0  0  0  0  0  0  0  0
   68.7454    7.9379    4.2622 C   0  0  0  0  0  0  0  0  0  0  0  0
   69.1767    8.0640    2.8970 O   0  0  0  0  0  0  0  0  0  0  0  0
   69.1824    9.1152    5.1215 C   0  0  0  0  0  0  0  0  0  0  0  0
   69.7550   10.1558    4.3033 O   0  0  0  0  0  0  0  0  0  0  0  0
   67.9985    9.6996    5.8763 C   0  0  0  0  0  0  0  0  0  0  0  0
   68.1702    9.5527    7.2911 O   0  0  0  0  0  0  0  0  0  0  0  0
   67.9190   11.1566    5.4874 C   0  0  0  0  0  0  0  0  0  0  0  0
   68.0294   12.0074    6.6364 O   0  0  0  0  0  0  0  0  0  0  0  0
   69.0638   11.4042    4.5203 C   0  0  0  0  0  0  0  0  0  0  0  0
   69.9931   12.1361   -0.4463 N   0  0  0  0  0  0  0  0  0  0  0  0
   69.8061    6.8655    0.7868 O   0  5  0  0  0  0  0  0  0  0  0  0
   67.9929    7.8482   -1.3416 O   0  5  0  0  0  0  0  0  0  0  0  0
   63.4738    7.9539   -1.7559 O   0  5  0  0  0  0  0  0  0  0  0  0
   70.7732   11.5249    0.5064 C   0  0  1  0  0  0  0  0  0  0  0  0
   71.9430   11.0544    0.0949 N   0  0  0  0  0  0  0  0  0  0  0  0
   68.2077    5.7889    2.4726 O   0  0  0  0  0  0  0  0  0  0  0  0
   66.9268    5.7567   -0.3224 O   0  0  0  0  0  0  0  0  0  0  0  0
   64.1963    5.8496   -0.4914 O   0  0  0  0  0  0  0  0  0  0  0  0
   70.4178   11.3930    1.7820 N   0  0  0  0  0  0  0  0  0  0  0  0
   67.4985    7.7175    1.0874 O   0  0  0  0  0  0  0  0  0  0  0  0
   65.6397    7.8688   -0.5434 O   0  0  0  0  0  0  0  0  0  0  0  0
   65.3309    6.5169   -2.6219 O   0  0  0  0  0  0  0  0  0  0  0  0
   69.2014   11.9309    2.0303 C   0  0  2  0  0  0  0  0  0  0  0  0
   68.3535   12.5614    1.1339 C   0  0  2  0  0  0  0  0  0  0  0  0
   68.7475   12.6937   -0.2201 C   0  0  1  0  0  0  0  0  0  0  0  0
   68.1452   13.2365   -1.1367 O   0  0  0  0  0  0  0  0  0  0  0  0
   67.1823   12.9859    1.7705 N   0  0  0  0  0  0  0  0  0  0  0  0
   67.3937   12.5938    2.9844 C   0  0  0  0  0  0  0  0  0  0  0  0
   68.5620   11.9568    3.2471 N   0  0  0  0  0  0  0  0  0  0  0  0
  1  5  1  1  0  0  0
  1 14  1  0  0  0  0
  1 19  2  0  0  0  0
  2 15  1  6  0  0  0
  2 20  2  0  0  0  0
  2 23  1  0  0  0  0
  3 16  1  6  0  0  0
  3 21  2  0  0  0  0
  3 24  1  0  0  0  0
  3 25  1  0  0  0  0
  4  6  1  0  0  0  0
  5  4  1  0  0  0  0
  6  7  1  0  0  0  0
  6  8  2  0  0  0  0
  7 12  1  0  0  0  0
  8  9  1  0  0  0  0
  8 10  1  0  0  0  0
 10 11  1  0  0  0  0
 10 12  2  0  0  0  0
 12 32  1  0  0  0  0
 13 17  1  0  0  0  0
 17 18  1  1  0  0  0
 17 22  1  0  0  0  0
 23  1  1  0  0  0  0
 24  2  1  0  0  0  0
 26 22  1  1  0  0  0
 27 26  1  0  0  0  0
 27 28  1  0  0  0  0
 27 30  1  1  0  0  0
 28 13  1  0  0  0  0
 28 29  1  1  0  0  0
 31 30  1  0  0  0  0
 32 26  1  0  0  0  0
 32 31  1  0  0  0  0
M  CHG  3  14  -1  15  -1  16  -1
M  END
>  <CHROM.1>
-148.13588641,-80.58451966,-161.42515371,8.31173228,-175.07069791,-38.50768528
159.68627846,102.39619219,67.88307140,9.22826229,1.49192191,2.88737352,-1.10039545
-1.01400949

>  <Name>
2au4_lig

>  <RI>
0

>  <Rbt.Current_Directory>
/home/itssahil/PROJECTS/Mol_Feturizer/New_Systems/rnas/2au4

>  <Rbt.Executable>
rbdock ($Id: //depot/dev/client3/rdock/2013.1/src/exe/rbdock.cxx#4 $)

>  <Rbt.Library>
libRbt.so (2013.1, Build901 2013/11/27)

>  <Rbt.Parameter_File>
/export/apps/rDock/src/rDock_2013.1_src/data/scripts/dock_solv.prm

>  <Rbt.Receptor>
prm/pocket_docking_5.prm

>  <SCORE>
-31.9783

>  <SCORE.INTER>
-7.97726

>  <SCORE.INTER.CONST>
1

>  <SCORE.INTER.POLAR>
-0.862321

>  <SCORE.INTER.ROT>
8

>  <SCORE.INTER.SOLV>
28.764

>  <SCORE.INTER.VDW>
-20.9651

>  <SCORE.INTER.norm>
-0.249289

>  <SCORE.INTRA>
-24.001

>  <SCORE.INTRA.DIHEDRAL>
-45.7102

>  <SCORE.INTRA.DIHEDRAL.0>
76.3625

>  <SCORE.INTRA.POLAR>
0

>  <SCORE.INTRA.POLAR.0>
0

>  <SCORE.INTRA.REPUL>
0.0244878

>  <SCORE.INTRA.REPUL.0>
0.12705

>  <SCORE.INTRA.SOLV>
-6.35522

>  <SCORE.INTRA.SOLV.lig_0>
-119.383

>  <SCORE.INTRA.VDW>
1.90921

>  <SCORE.INTRA.VDW.0>
-5.10464

>  <SCORE.INTRA.norm>
-0.750033

>  <SCORE.RESTR>
0

>  <SCORE.RESTR.CAVITY>
0

>  <SCORE.RESTR.norm>
0

>  <SCORE.SYSTEM>
0

>  <SCORE.SYSTEM.CONST>
0

>  <SCORE.SYSTEM.DIHEDRAL>
0

>  <SCORE.SYSTEM.SOLV>
0

>  <SCORE.SYSTEM.norm>
0

>  <SCORE.heavy>
32

>  <SCORE.norm>
-0.999322

>  <RMSD>
7.877

$$$$
2au4_lig
 OpenBabel11021811423D
libRbt.so/2013.1/901 2013/11/27
 32 34  0  0  0  0  0  0  0  0999 V2000
   68.1917    6.9555    1.4950 P   0  0  1  0  0  0  0  0  0  0  0  0
   67.0412    6.6237   -0.9413 P   0  0  1  0  0  0  0  0  0  0  0  0
   64.5453    7.6622   -1.3054 P   0  0  2  0  0  0  0  0  0  0  0  0
   68.9774    9.0043    2.9836 C   0  0  0  0  0  0  0  0  0  0  0  0
   69.2493    8.0982    1.9016 O   0  0  0  0  0  0  0  0  0  0  0  0
   70.0130    8.9114    4.0946 C   0  0  0  0  0  0  0  0  0  0  0  0
   71.2520    9.5264    3.6862 O   0  0  0  0  0  0  0  0  0  0  0  0
   69.5216    9.6167    5.3490 C   0  0  0  0  0  0  0  0  0  0  0  0
   69.3598    8.6885    6.4284 O   0  0  0  0  0  0  0  0  0  0  0  0
   70.5557   10.6647    5.6847 C   0  0  0  0  0  0  0  0  0  0  0  0
   71.0973   10.4584    6.9963 O   0  0  0  0  0  0  0  0  0  0  0  0
   71.6408   10.5485    4.6282 C   0  0  0  0  0  0  0  0  0  0  0  0
   72.8629   12.8963    0.2623 N   0  0  0  0  0  0  0  0  0  0  0  0
   68.9367    5.7684    1.0297 O   0  5  0  0  0  0  0  0  0  0  0  0
   68.2382    6.3429   -1.7577 O   0  5  0  0  0  0  0  0  0  0  0  0
   63.8431    8.5719   -2.2331 O   0  5  0  0  0  0  0  0  0  0  0  0
   72.7680   11.5519    0.5329 C   0  0  1  0  0  0  0  0  0  0  0  0
   73.0330   10.7296   -0.4733 N   0  0  0  0  0  0  0  0  0  0  0  0
   67.1954    6.8269    2.5799 O   0  0  0  0  0  0  0  0  0  0  0  0
   66.2598    5.5103   -0.3639 O   0  0  0  0  0  0  0  0  0  0  0  0
   64.5665    7.9552    0.1429 O   0  0  0  0  0  0  0  0  0  0  0  0
   72.4361   11.0573    1.7228 N   0  0  0  0  0  0  0  0  0  0  0  0
   67.4617    7.5962    0.2393 O   0  0  0  0  0  0  0  0  0  0  0  0
   66.0538    7.5270   -1.7981 O   0  0  0  0  0  0  0  0  0  0  0  0
   63.9701    6.1773   -1.5169 O   0  0  0  0  0  0  0  0  0  0  0  0
   72.2045   12.0312    2.6330 C   0  0  2  0  0  0  0  0  0  0  0  0
   72.2768   13.4021    2.4456 C   0  0  2  0  0  0  0  0  0  0  0  0
   72.6319   13.9119    1.1727 C   0  0  1  0  0  0  0  0  0  0  0  0
   72.7678   15.0798    0.8333 O   0  0  0  0  0  0  0  0  0  0  0  0
   71.9683   14.0834    3.6279 N   0  0  0  0  0  0  0  0  0  0  0  0
   71.7352   13.1015    4.4363 C   0  0  0  0  0  0  0  0  0  0  0  0
   71.8476   11.8414    3.9470 N   0  0  0  0  0  0  0  0  0  0  0  0
  1  5  1  1  0  0  0
  1 14  1  0  0  0  0
  1 19  2  0  0  0  0
  2 15  1  6  0  0  0
  2 20  2  0  0  0  0
  2 23  1  0  0  0  0
  3 16  1  6  0  0  0
  3 21  2  0  0  0  0
  3 24  1  0  0  0  0
  3 25  1  0  0  0  0
  4  6  1  0  0  0  0
  5  4  1  0  0  0  0
  6  7  1  0  0  0  0
  6  8  2  0  0  0  0
  7 12  1  0  0  0  0
  8  9  1  0  0  0  0
  8 10  1  0  0  0  0
 10 11  1  0  0  0  0
 10 12  2  0  0  0  0
 12 32  1  0  0  0  0
 13 17  1  0  0  0  0
 17 18  1  1  0  0  0
 17 22  1  0  0  0  0
 23  1  1  0  0  0  0
 24  2  1  0  0  0  0
 26 22  1  1  0  0  0
 27 26  1  0  0  0  0
 27 28  1  0  0  0  0
 27 30  1  1  0  0  0
 28 13  1  0  0  0  0
 28 29  1  1  0  0  0
 31 30  1  0  0  0  0
 32 26  1  0  0  0  0
 32 31  1  0  0  0  0
M  CHG  3  14  -1  15  -1  16  -1
M  END
>  <CHROM.1>
-146.18382835,-79.22444151,178.46381959,73.79232635,119.63007215,-26.51911132
143.72814475,164.59159726,69.10120586,9.28491941,1.53819941,2.90915336,-0.78939108
-1.24433661

>  <Name>
2au4_lig

>  <RI>
0

>  <Rbt.Current_Directory>
/home/itssahil/PROJECTS/Mol_Feturizer/New_Systems/rnas/2au4

>  <Rbt.Executable>
rbdock ($Id: //depot/dev/client3/rdock/2013.1/src/exe/rbdock.cxx#4 $)

>  <Rbt.Library>
libRbt.so (2013.1, Build901 2013/11/27)

>  <Rbt.Parameter_File>
/export/apps/rDock/src/rDock_2013.1_src/data/scripts/dock_solv.prm

>  <Rbt.Receptor>
prm/blind_docking_80.prm

>  <SCORE>
-32.6264

>  <SCORE.INTER>
-12.9055

>  <SCORE.INTER.CONST>
1

>  <SCORE.INTER.POLAR>
-0.843764

>  <SCORE.INTER.ROT>
8

>  <SCORE.INTER.SOLV>
31.2857

>  <SCORE.INTER.VDW>
-25.153

>  <SCORE.INTER.norm>
-0.403296

>  <SCORE.INTRA>
-19.7209

>  <SCORE.INTRA.DIHEDRAL>
-39.3211

>  <SCORE.INTRA.DIHEDRAL.0>
76.3625

>  <SCORE.INTRA.POLAR>
0

>  <SCORE.INTRA.POLAR.0>
0

>  <SCORE.INTRA.REPUL>
0.113089

>  <SCORE.INTRA.REPUL.0>
0.12705

>  <SCORE.INTRA.SOLV>
-4.97991

>  <SCORE.INTRA.SOLV.lig_0>
-119.383

>  <SCORE.INTRA.VDW>
1.86413

>  <SCORE.INTRA.VDW.0>
-5.10464

>  <SCORE.INTRA.norm>
-0.616279

>  <SCORE.RESTR>
0

>  <SCORE.RESTR.CAVITY>
0

>  <SCORE.RESTR.norm>
0

>  <SCORE.SYSTEM>
0

>  <SCORE.SYSTEM.CONST>
0

>  <SCORE.SYSTEM.DIHEDRAL>
0

>  <SCORE.SYSTEM.SOLV>
0

>  <SCORE.SYSTEM.norm>
0

>  <SCORE.heavy>
32

>  <SCORE.norm>
-1.01957

>  <RMSD>
7.921

$$$$
2au4_lig
 OpenBabel11021811423D
libRbt.so/2013.1/901 2013/11/27
 32 34  0  0  0  0  0  0  0  0999 V2000
   72.7236   12.4008    3.7529 P   0  0  1  0  0  0  0  0  0  0  0  0
   73.8690   11.7413    1.3817 P   0  0  1  0  0  0  0  0  0  0  0  0
   73.5472   13.2902   -0.8404 P   0  0  2  0  0  0  0  0  0  0  0  0
   71.0023   10.3953    3.9668 C   0  0  0  0  0  0  0  0  0  0  0  0
   72.3280   10.9034    4.1899 O   0  0  0  0  0  0  0  0  0  0  0  0
   69.9541   11.1186    4.7997 C   0  0  0  0  0  0  0  0  0  0  0  0
   68.9886   11.7683    3.9476 O   0  0  0  0  0  0  0  0  0  0  0  0
   69.2140   10.1418    5.7001 C   0  0  0  0  0  0  0  0  0  0  0  0
   69.4503   10.4391    7.0816 O   0  0  0  0  0  0  0  0  0  0  0  0
   67.7484   10.2711    5.3600 C   0  0  0  0  0  0  0  0  0  0  0  0
   66.9800   10.6503    6.5098 O   0  0  0  0  0  0  0  0  0  0  0  0
   67.6531   11.3290    4.2742 C   0  0  0  0  0  0  0  0  0  0  0  0
   67.1269   11.6027   -0.7968 N   0  0  0  0  0  0  0  0  0  0  0  0
   71.6755   13.3238    4.2327 O   0  5  0  0  0  0  0  0  0  0  0  0
   75.0207   12.6394    1.5941 O   0  5  0  0  0  0  0  0  0  0  0  0
   73.0933   14.3199    0.1161 O   0  5  0  0  0  0  0  0  0  0  0  0
   67.9383   12.3350    0.0369 C   0  0  1  0  0  0  0  0  0  0  0  0
   68.6993   13.2542   -0.5420 N   0  0  0  0  0  0  0  0  0  0  0  0
   74.1391   12.6378    4.1081 O   0  0  0  0  0  0  0  0  0  0  0  0
   73.9794   10.3042    1.7077 O   0  0  0  0  0  0  0  0  0  0  0  0
   72.9215   13.1946   -2.1759 O   0  0  0  0  0  0  0  0  0  0  0  0
   67.9881   12.1688    1.3562 N   0  0  0  0  0  0  0  0  0  0  0  0
   72.6256   12.3323    2.1698 O   0  0  0  0  0  0  0  0  0  0  0  0
   73.4098   11.8693   -0.1342 O   0  0  0  0  0  0  0  0  0  0  0  0
   75.1354   13.4381   -1.0309 O   0  0  0  0  0  0  0  0  0  0  0  0
   67.1474   11.1969    1.7795 C   0  0  2  0  0  0  0  0  0  0  0  0
   66.3000   10.4144    1.0117 C   0  0  2  0  0  0  0  0  0  0  0  0
   66.2590   10.6047   -0.3913 C   0  0  1  0  0  0  0  0  0  0  0  0
   65.5617   10.0288   -1.2157 O   0  0  0  0  0  0  0  0  0  0  0  0
   65.5861    9.5181    1.8142 N   0  0  0  0  0  0  0  0  0  0  0  0
   66.0377    9.8110    2.9899 C   0  0  0  0  0  0  0  0  0  0  0  0
   66.9682   10.7935    3.0815 N   0  0  0  0  0  0  0  0  0  0  0  0
  1  5  1  1  0  0  0
  1 14  1  0  0  0  0
  1 19  2  0  0  0  0
  2 15  1  1  0  0  0
  2 20  2  0  0  0  0
  2 23  1  0  0  0  0
  3 16  1  1  0  0  0
  3 21  2  0  0  0  0
  3 24  1  0  0  0  0
  3 25  1  0  0  0  0
  4  6  1  0  0  0  0
  5  4  1  0  0  0  0
  6  7  1  0  0  0  0
  6  8  2  0  0  0  0
  7 12  1  0  0  0  0
  8  9  1  0  0  0  0
  8 10  1  0  0  0  0
 10 11  1  0  0  0  0
 10 12  2  0  0  0  0
 12 32  1  0  0  0  0
 13 17  1  0  0  0  0
 17 18  1  1  0  0  0
 17 22  1  0  0  0  0
 23  1  1  0  0  0  0
 24  2  1  0  0  0  0
 26 22  1  1  0  0  0
 27 26  1  0  0  0  0
 27 28  1  0  0  0  0
 27 30  1  1  0  0  0
 28 13  1  0  0  0  0
 28 29  1  1  0  0  0
 31 30  1  0  0  0  0
 32 26  1  0  0  0  0
 32 31  1  0  0  0  0
M  CHG  3  14  -1  15  -1  16  -1
M  END
>  <CHROM.1>
47.72821509,-64.44120545,-42.63597120,118.70291378,-66.14399740,-31.55658461
-82.10461067,-34.11676595,70.50564418,11.69873095,2.07825708,-0.33542980
0.23912535,1.75720785

>  <Name>
2au4_lig

>  <RI>
0

>  <Rbt.Current_Directory>
/home/itssahil/PROJECTS/Mol_Feturizer/New_Systems/rnas/2au4

>  <Rbt.Executable>
rbdock ($Id: //depot/dev/client3/rdock/2013.1/src/exe/rbdock.cxx#4 $)

>  <Rbt.Library>
libRbt.so (2013.1, Build901 2013/11/27)

>  <Rbt.Parameter_File>
/export/apps/rDock/src/rDock_2013.1_src/data/scripts/dock_solv.prm

>  <Rbt.Receptor>
prm/pocket_docking_5.prm

>  <SCORE>
-36.8043

>  <SCORE.INTER>
-11.6697

>  <SCORE.INTER.CONST>
1

>  <SCORE.INTER.POLAR>
-2.01305

>  <SCORE.INTER.ROT>
8

>  <SCORE.INTER.SOLV>
29.4293

>  <SCORE.INTER.VDW>
-19.8128

>  <SCORE.INTER.norm>
-0.364679

>  <SCORE.INTRA>
-25.1737

>  <SCORE.INTRA.DIHEDRAL>
-49.571

>  <SCORE.INTRA.DIHEDRAL.0>
76.3625

>  <SCORE.INTRA.POLAR>
0

>  <SCORE.INTRA.POLAR.0>
0

>  <SCORE.INTRA.REPUL>
0.0587515

>  <SCORE.INTRA.REPUL.0>
0.12705

>  <SCORE.INTRA.SOLV>
-3.84886

>  <SCORE.INTRA.SOLV.lig_0>
-119.383

>  <SCORE.INTRA.VDW>
1.24254

>  <SCORE.INTRA.VDW.0>
-5.10464

>  <SCORE.INTRA.norm>
-0.786677

>  <SCORE.RESTR>
0.0391333

>  <SCORE.RESTR.CAVITY>
0.0391333

>  <SCORE.RESTR.norm>
0.00122292

>  <SCORE.SYSTEM>
0

>  <SCORE.SYSTEM.CONST>
0

>  <SCORE.SYSTEM.DIHEDRAL>
0

>  <SCORE.SYSTEM.SOLV>
0

>  <SCORE.SYSTEM.norm>
0

>  <SCORE.heavy>
32

>  <SCORE.norm>
-1.15013

>  <RMSD>
7.925

$$$$
2au4_lig
 OpenBabel11021811423D
libRbt.so/2013.1/901 2013/11/27
 32 34  0  0  0  0  0  0  0  0999 V2000
   68.0763    8.0515    1.8311 P   0  0  1  0  0  0  0  0  0  0  0  0
   69.5777    6.4774    0.2071 P   0  0  1  0  0  0  0  0  0  0  0  0
   68.0724    5.0835   -1.5906 P   0  0  2  0  0  0  0  0  0  0  0  0
   68.7851    7.9953    4.3855 C   0  0  0  0  0  0  0  0  0  0  0  0
   68.4118    8.7679    3.2324 O   0  0  0  0  0  0  0  0  0  0  0  0
   69.1833    8.8681    5.5666 C   0  0  0  0  0  0  0  0  0  0  0  0
   70.5659    9.2652    5.4608 O   0  0  0  0  0  0  0  0  0  0  0  0
   68.3292   10.1252    5.6193 C   0  0  0  0  0  0  0  0  0  0  0  0
   67.5351   10.1551    6.8115 O   0  0  0  0  0  0  0  0  0  0  0  0
   69.2837   11.2945    5.5734 C   0  0  0  0  0  0  0  0  0  0  0  0
   69.1389   12.1288    6.7306 O   0  0  0  0  0  0  0  0  0  0  0  0
   70.6812   10.7032    5.5058 C   0  0  0  0  0  0  0  0  0  0  0  0
   71.2757   14.5759    2.2324 N   0  0  0  0  0  0  0  0  0  0  0  0
   66.8467    7.2502    1.9944 O   0  5  0  0  0  0  0  0  0  0  0  0
   69.8514    7.6161   -0.6909 O   0  5  0  0  0  0  0  0  0  0  0  0
   68.2698    3.6425   -1.3340 O   0  5  0  0  0  0  0  0  0  0  0  0
   70.4188   14.4607    3.3012 C   0  0  1  0  0  0  0  0  0  0  0  0
   69.6196   15.4946    3.5279 N   0  0  0  0  0  0  0  0  0  0  0  0
   68.1666    9.0588    0.7525 O   0  0  0  0  0  0  0  0  0  0  0  0
   70.5560    5.3766    0.3278 O   0  0  0  0  0  0  0  0  0  0  0  0
   68.9385    5.7874   -2.5593 O   0  0  0  0  0  0  0  0  0  0  0  0
   70.3570   13.3903    4.0892 N   0  0  0  0  0  0  0  0  0  0  0  0
   69.2938    7.0472    1.6601 O   0  0  0  0  0  0  0  0  0  0  0  0
   68.1754    5.8489   -0.1977 O   0  0  0  0  0  0  0  0  0  0  0  0
   66.5400    5.3197   -2.0112 O   0  0  0  0  0  0  0  0  0  0  0  0
   71.2341   12.4305    3.7149 C   0  0  2  0  0  0  0  0  0  0  0  0
   72.1287   12.4646    2.6574 C   0  0  2  0  0  0  0  0  0  0  0  0
   72.1813   13.6116    1.8280 C   0  0  1  0  0  0  0  0  0  0  0  0
   72.8834   13.8063    0.8449 O   0  0  0  0  0  0  0  0  0  0  0  0
   72.8675   11.2784    2.5916 N   0  0  0  0  0  0  0  0  0  0  0  0
   72.3818   10.6180    3.5916 C   0  0  0  0  0  0  0  0  0  0  0  0
   71.4068   11.2107    4.3250 N   0  0  0  0  0  0  0  0  0  0  0  0
  1  5  1  1  0  0  0
  1 14  1  0  0  0  0
  1 19  2  0  0  0  0
  2 15  1  6  0  0  0
  2 20  2  0  0  0  0
  2 23  1  0  0  0  0
  3 16  1  1  0  0  0
  3 21  2  0  0  0  0
  3 24  1  0  0  0  0
  3 25  1  0  0  0  0
  4  6  1  0  0  0  0
  5  4  1  0  0  0  0
  6  7  1  0  0  0  0
  6  8  2  0  0  0  0
  7 12  1  0  0  0  0
  8  9  1  0  0  0  0
  8 10  1  0  0  0  0
 10 11  1  0  0  0  0
 10 12  2  0  0  0  0
 12 32  1  0  0  0  0
 13 17  1  0  0  0  0
 17 18  1  6  0  0  0
 17 22  1  0  0  0  0
 23  1  1  0  0  0  0
 24  2  1  0  0  0  0
 26 22  1  6  0  0  0
 27 26  1  0  0  0  0
 27 28  1  0  0  0  0
 27 30  1  6  0  0  0
 28 13  1  0  0  0  0
 28 29  1  6  0  0  0
 31 30  1  0  0  0  0
 32 26  1  0  0  0  0
 32 31  1  0  0  0  0
M  CHG  3  14  -1  15  -1  16  -1
M  END
>  <CHROM.1>
66.22192857,59.63122445,95.38420418,-83.86514486,174.71480067,149.75723112
-161.43224591,69.25687605,69.55644531,9.22363975,2.16277574,2.05218361,-0.96713311
-2.13338262

>  <Name>
2au4_lig

>  <RI>
0

>  <Rbt.Current_Directory>
/home/itssahil/PROJECTS/Mol_Feturizer/New_Systems/rnas/2au4

>  <Rbt.Executable>
rbdock ($Id: //depot/dev/client3/rdock/2013.1/src/exe/rbdock.cxx#4 $)

>  <Rbt.Library>
libRbt.so (2013.1, Build901 2013/11/27)

>  <Rbt.Parameter_File>
/export/apps/rDock/src/rDock_2013.1_src/data/scripts/dock_solv.prm

>  <Rbt.Receptor>
prm/pocket_docking_5.prm

>  <SCORE>
-39.8155

>  <SCORE.INTER>
-13.6763

>  <SCORE.INTER.CONST>
1

>  <SCORE.INTER.POLAR>
-1.15508

>  <SCORE.INTER.ROT>
8

>  <SCORE.INTER.SOLV>
31.0335

>  <SCORE.INTER.VDW>
-24.5451

>  <SCORE.INTER.norm>
-0.427385

>  <SCORE.INTRA>
-26.1391

>  <SCORE.INTRA.DIHEDRAL>
-48.9469

>  <SCORE.INTRA.DIHEDRAL.0>
76.3625

>  <SCORE.INTRA.POLAR>
0

>  <SCORE.INTRA.POLAR.0>
0

>  <SCORE.INTRA.REPUL>
-0.12705

>  <SCORE.INTRA.REPUL.0>
0.12705

>  <SCORE.INTRA.SOLV>
-5.17357

>  <SCORE.INTRA.SOLV.lig_0>
-119.383

>  <SCORE.INTRA.VDW>
1.55634

>  <SCORE.INTRA.VDW.0>
-5.10464

>  <SCORE.INTRA.norm>
-0.816848

>  <SCORE.RESTR>
0

>  <SCORE.RESTR.CAVITY>
0

>  <SCORE.RESTR.norm>
0

>  <SCORE.SYSTEM>
0

>  <SCORE.SYSTEM.CONST>
0

>  <SCORE.SYSTEM.DIHEDRAL>
0

>  <SCORE.SYSTEM.SOLV>
0

>  <SCORE.SYSTEM.norm>
0

>  <SCORE.heavy>
32

>  <SCORE.norm>
-1.24423

>  <RMSD>
7.963

$$$$
2au4_lig
 OpenBabel11021811423D
libRbt.so/2013.1/901 2013/11/27
 32 34  0  0  0  0  0  0  0  0999 V2000
   69.3588   13.4711    5.4083 P   0  0  1  0  0  0  0  0  0  0  0  0
   71.9960   13.5042    4.7653 P   0  0  1  0  0  0  0  0  0  0  0  0
   73.1919   11.6430    3.1695 P   0  0  2  0  0  0  0  0  0  0  0  0
   68.6919   10.9057    5.3433 C   0  0  0  0  0  0  0  0  0  0  0  0
   69.2126   12.0559    4.6566 O   0  0  0  0  0  0  0  0  0  0  0  0
   68.5328    9.7025    4.4254 C   0  0  0  0  0  0  0  0  0  0  0  0
   67.1484    9.3061    4.3436 O   0  0  0  0  0  0  0  0  0  0  0  0
   69.0189   10.0282    3.0217 C   0  0  0  0  0  0  0  0  0  0  0  0
   70.1472    9.2183    2.6698 O   0  0  0  0  0  0  0  0  0  0  0  0
   67.8553    9.7705    2.0943 C   0  0  0  0  0  0  0  0  0  0  0  0
   68.1887    8.7893    1.1032 O   0  0  0  0  0  0  0  0  0  0  0  0
   66.7107    9.2877    2.9684 C   0  0  0  0  0  0  0  0  0  0  0  0
   62.3705   11.0132    5.0303 N   0  0  0  0  0  0  0  0  0  0  0  0
   68.1393   14.2655    5.1578 O   0  5  0  0  0  0  0  0  0  0  0  0
   72.9765   14.4065    4.1308 O   0  5  0  0  0  0  0  0  0  0  0  0
   74.0743   11.0952    4.2196 O   0  5  0  0  0  0  0  0  0  0  0  0
   63.3055   10.1543    5.5572 C   0  0  1  0  0  0  0  0  0  0  0  0
   63.0591    9.6930    6.7760 N   0  0  0  0  0  0  0  0  0  0  0  0
   69.8111   13.2250    6.7943 O   0  0  0  0  0  0  0  0  0  0  0  0
   72.1738   13.0872    6.1717 O   0  0  0  0  0  0  0  0  0  0  0  0
   73.6914   12.6935    2.2579 O   0  0  0  0  0  0  0  0  0  0  0  0
   64.4085    9.7760    4.9161 N   0  0  0  0  0  0  0  0  0  0  0  0
   70.5562   14.1545    4.6214 O   0  0  0  0  0  0  0  0  0  0  0  0
   71.8741   12.1943    3.8740 O   0  0  0  0  0  0  0  0  0  0  0  0
   72.6358   10.4226    2.2852 O   0  0  0  0  0  0  0  0  0  0  0  0
   64.5006   10.3343    3.6871 C   0  0  2  0  0  0  0  0  0  0  0  0
   63.6090   11.2054    3.0821 C   0  0  2  0  0  0  0  0  0  0  0  0
   62.4395   11.5977    3.7783 C   0  0  1  0  0  0  0  0  0  0  0  0
   61.5382   12.3316    3.3958 O   0  0  0  0  0  0  0  0  0  0  0  0
   64.0518   11.5632    1.8042 N   0  0  0  0  0  0  0  0  0  0  0  0
   65.1581   10.8991    1.7209 C   0  0  0  0  0  0  0  0  0  0  0  0
   65.5180   10.1372    2.7837 N   0  0  0  0  0  0  0  0  0  0  0  0
  1  5  1  6  0  0  0
  1 14  1  0  0  0  0
  1 19  2  0  0  0  0
  2 15  1  6  0  0  0
  2 20  2  0  0  0  0
  2 23  1  0  0  0  0
  3 16  1  1  0  0  0
  3 21  2  0  0  0  0
  3 24  1  0  0  0  0
  3 25  1  0  0  0  0
  4  6  1  0  0  0  0
  5  4  1  0  0  0  0
  6  7  1  0  0  0  0
  6  8  2  0  0  0  0
  7 12  1  0  0  0  0
  8  9  1  0  0  0  0
  8 10  1  0  0  0  0
 10 11  1  0  0  0  0
 10 12  2  0  0  0  0
 12 32  1  0  0  0  0
 13 17  1  0  0  0  0
 17 18  1  6  0  0  0
 17 22  1  0  0  0  0
 23  1  1  0  0  0  0
 24  2  1  0  0  0  0
 26 22  1  6  0  0  0
 27 26  1  0  0  0  0
 27 28  1  0  0  0  0
 27 30  1  6  0  0  0
 28 13  1  0  0  0  0
 28 29  1  6  0  0  0
 31 30  1  0  0  0  0
 32 26  1  0  0  0  0
 32 31  1  0  0  0  0
M  CHG  3  14  -1  15  -1  16  -1
M  END
>  <CHROM.1>
-93.42713054,-171.45228284,70.25210656,-118.00183862,175.42165051,-34.46451267
-67.18551507,36.27078251,68.49684613,11.52789393,4.00228395,0.15788223,0.12698642
0.72862162

>  <Name>
2au4_lig

>  <RI>
0

>  <Rbt.Current_Directory>
/home/itssahil/PROJECTS/Mol_Feturizer/New_Systems/rnas/2au4

>  <Rbt.Executable>
rbdock ($Id: //depot/dev/client3/rdock/2013.1/src/exe/rbdock.cxx#4 $)

>  <Rbt.Library>
libRbt.so (2013.1, Build901 2013/11/27)

>  <Rbt.Parameter_File>
/export/apps/rDock/src/rDock_2013.1_src/data/scripts/dock_solv.prm

>  <Rbt.Receptor>
prm/pocket_docking_8.prm

>  <SCORE>
-43.1018

>  <SCORE.INTER>
-18.4319

>  <SCORE.INTER.CONST>
1

>  <SCORE.INTER.POLAR>
-3.93429

>  <SCORE.INTER.ROT>
8

>  <SCORE.INTER.SOLV>
23.0078

>  <SCORE.INTER.VDW>
-15.7762

>  <SCORE.INTER.norm>
-0.575997

>  <SCORE.INTRA>
-24.6699

>  <SCORE.INTRA.DIHEDRAL>
-48.3743

>  <SCORE.INTRA.DIHEDRAL.0>
76.3625

>  <SCORE.INTRA.POLAR>
0

>  <SCORE.INTRA.POLAR.0>
0

>  <SCORE.INTRA.REPUL>
0.0463789

>  <SCORE.INTRA.REPUL.0>
0.12705

>  <SCORE.INTRA.SOLV>
-5.78839

>  <SCORE.INTRA.SOLV.lig_0>
-119.383

>  <SCORE.INTRA.VDW>
2.17955

>  <SCORE.INTRA.VDW.0>
-5.10464

>  <SCORE.INTRA.norm>
-0.770935

>  <SCORE.RESTR>
0

>  <SCORE.RESTR.CAVITY>
0

>  <SCORE.RESTR.norm>
0

>  <SCORE.SYSTEM>
0

>  <SCORE.SYSTEM.CONST>
0

>  <SCORE.SYSTEM.DIHEDRAL>
0

>  <SCORE.SYSTEM.SOLV>
0

>  <SCORE.SYSTEM.norm>
0

>  <SCORE.heavy>
32

>  <SCORE.norm>
-1.34693

>  <RMSD>
7.964

$$$$
2au4_lig
 OpenBabel11021811423D
libRbt.so/2013.1/901 2013/11/27
 32 34  0  0  0  0  0  0  0  0999 V2000
   71.3773   12.5672    5.2464 P   0  0  1  0  0  0  0  0  0  0  0  0
   71.9405   13.2034    2.6682 P   0  0  1  0  0  0  0  0  0  0  0  0
   74.0439   12.1620    1.2783 P   0  0  2  0  0  0  0  0  0  0  0  0
   69.3696   10.8442    5.4221 C   0  0  0  0  0  0  0  0  0  0  0  0
   70.5860   11.2487    4.7722 O   0  0  0  0  0  0  0  0  0  0  0  0
   68.8516    9.5089    4.9083 C   0  0  0  0  0  0  0  0  0  0  0  0
   67.4827    9.3053    5.3145 O   0  0  0  0  0  0  0  0  0  0  0  0
   68.9107    9.4568    3.3896 C   0  0  0  0  0  0  0  0  0  0  0  0
   69.8163    8.4386    2.9470 O   0  0  0  0  0  0  0  0  0  0  0  0
   67.5048    9.1765    2.9151 C   0  0  0  0  0  0  0  0  0  0  0  0
   67.4485    7.9702    2.1419 O   0  0  0  0  0  0  0  0  0  0  0  0
   66.6477    9.0580    4.1635 C   0  0  0  0  0  0  0  0  0  0  0  0
   63.3351   11.5665    1.1969 N   0  0  0  0  0  0  0  0  0  0  0  0
   70.4534   13.7177    5.1873 O   0  5  0  0  0  0  0  0  0  0  0  0
   71.2288   12.0670    2.0516 O   0  5  0  0  0  0  0  0  0  0  0  0
   74.1267   11.1464    2.3474 O   0  5  0  0  0  0  0  0  0  0  0  0
   64.3307   10.6872    0.8430 C   0  0  1  0  0  0  0  0  0  0  0  0
   64.4686   10.4464   -0.4539 N   0  0  0  0  0  0  0  0  0  0  0  0
   72.0985   12.2596    6.5000 O   0  0  0  0  0  0  0  0  0  0  0  0
   71.2645   14.5090    2.8167 O   0  0  0  0  0  0  0  0  0  0  0  0
   75.2742   12.6309    0.6071 O   0  0  0  0  0  0  0  0  0  0  0  0
   65.1372   10.0903    1.7171 N   0  0  0  0  0  0  0  0  0  0  0  0
   72.4576   12.7497    4.0975 O   0  0  0  0  0  0  0  0  0  0  0  0
   73.2941   13.4369    1.8691 O   0  0  0  0  0  0  0  0  0  0  0  0
   73.0197   11.6377    0.1573 O   0  0  0  0  0  0  0  0  0  0  0  0
   64.8631   10.4506    2.9920 C   0  0  2  0  0  0  0  0  0  0  0  0
   63.8833   11.3247    3.4346 C   0  0  2  0  0  0  0  0  0  0  0  0
   63.0336   11.9520    2.4908 C   0  0  1  0  0  0  0  0  0  0  0  0
   62.1393   12.7621    2.6947 O   0  0  0  0  0  0  0  0  0  0  0  0
   63.9129   11.4417    4.8284 N   0  0  0  0  0  0  0  0  0  0  0  0
   64.8880   10.6485    5.1316 C   0  0  0  0  0  0  0  0  0  0  0  0
   65.5208   10.0098    4.1160 N   0  0  0  0  0  0  0  0  0  0  0  0
  1  5  1  6  0  0  0
  1 14  1  0  0  0  0
  1 19  2  0  0  0  0
  2 15  1  6  0  0  0
  2 20  2  0  0  0  0
  2 23  1  0  0  0  0
  3 16  1  1  0  0  0
  3 21  2  0  0  0  0
  3 24  1  0  0  0  0
  3 25  1  0  0  0  0
  4  6  1  0  0  0  0
  5  4  1  0  0  0  0
  6  7  1  0  0  0  0
  6  8  2  0  0  0  0
  7 12  1  0  0  0  0
  8  9  1  0  0  0  0
  8 10  1  0  0  0  0
 10 11  1  0  0  0  0
 10 12  2  0  0  0  0
 12 32  1  0  0  0  0
 13 17  1  0  0  0  0
 17 18  1  6  0  0  0
 17 22  1  0  0  0  0
 23  1  1  0  0  0  0
 24  2  1  0  0  0  0
 26 22  1  6  0  0  0
 27 26  1  0  0  0  0
 27 28  1  0  0  0  0
 27 30  1  6  0  0  0
 28 13  1  0  0  0  0
 28 29  1  6  0  0  0
 31 30  1  0  0  0  0
 32 26  1  0  0  0  0
 32 31  1  0  0  0  0
M  CHG  3  14  -1  15  -1  16  -1
M  END
>  <CHROM.1>
-55.90832303,-72.04523374,-47.97339961,-165.09127212,-174.77311181,151.89823723
70.33067445,-34.36820743,69.07487864,11.40227951,3.10667753,-0.02973152,0.19726566
1.58426815

>  <Name>
2au4_lig

>  <RI>
0

>  <Rbt.Current_Directory>
/home/itssahil/PROJECTS/Mol_Feturizer/New_Systems/rnas/2au4

>  <Rbt.Executable>
rbdock ($Id: //depot/dev/client3/rdock/2013.1/src/exe/rbdock.cxx#4 $)

>  <Rbt.Library>
libRbt.so (2013.1, Build901 2013/11/27)

>  <Rbt.Parameter_File>
/export/apps/rDock/src/rDock_2013.1_src/data/scripts/dock_solv.prm

>  <Rbt.Receptor>
prm/pocket_docking_8.prm

>  <SCORE>
-44.8291

>  <SCORE.INTER>
-17.8706

>  <SCORE.INTER.CONST>
1

>  <SCORE.INTER.POLAR>
-2.94975

>  <SCORE.INTER.ROT>
8

>  <SCORE.INTER.SOLV>
21.4482

>  <SCORE.INTER.VDW>
-18.1639

>  <SCORE.INTER.norm>
-0.558455

>  <SCORE.INTRA>
-26.9585

>  <SCORE.INTRA.DIHEDRAL>
-49.7542

>  <SCORE.INTRA.DIHEDRAL.0>
76.3625

>  <SCORE.INTRA.POLAR>
0

>  <SCORE.INTRA.POLAR.0>
0

>  <SCORE.INTRA.REPUL>
-0.12705

>  <SCORE.INTRA.REPUL.0>
0.12705

>  <SCORE.INTRA.SOLV>
-5.91537

>  <SCORE.INTRA.SOLV.lig_0>
-119.383

>  <SCORE.INTRA.VDW>
1.51152

>  <SCORE.INTRA.VDW.0>
-5.10464

>  <SCORE.INTRA.norm>
-0.842453

>  <SCORE.RESTR>
0

>  <SCORE.RESTR.CAVITY>
0

>  <SCORE.RESTR.norm>
0

>  <SCORE.SYSTEM>
0

>  <SCORE.SYSTEM.CONST>
0

>  <SCORE.SYSTEM.DIHEDRAL>
0

>  <SCORE.SYSTEM.SOLV>
0

>  <SCORE.SYSTEM.norm>
0

>  <SCORE.heavy>
32

>  <SCORE.norm>
-1.40091

>  <RMSD>
7.979

$$$$
2au4_lig
 OpenBabel11021811423D
libRbt.so/2013.1/901 2013/11/27
 32 34  0  0  0  0  0  0  0  0999 V2000
   68.6016    7.8297    1.9751 P   0  0  1  0  0  0  0  0  0  0  0  0
   69.1529    6.2969   -0.1966 P   0  0  1  0  0  0  0  0  0  0  0  0
   70.2942    4.4656   -1.8652 P   0  0  2  0  0  0  0  0  0  0  0  0
   68.8820    7.6053    4.6022 C   0  0  0  0  0  0  0  0  0  0  0  0
   69.3779    8.1187    3.3547 O   0  0  0  0  0  0  0  0  0  0  0  0
   68.0723    8.6361    5.3751 C   0  0  0  0  0  0  0  0  0  0  0  0
   68.9395    9.4691    6.1716 O   0  0  0  0  0  0  0  0  0  0  0  0
   67.2929    9.5314    4.4245 C   0  0  0  0  0  0  0  0  0  0  0  0
   65.8814    9.3687    4.6094 O   0  0  0  0  0  0  0  0  0  0  0  0
   67.7198   10.9487    4.7233 C   0  0  0  0  0  0  0  0  0  0  0  0
   66.6000   11.7584    5.1063 O   0  0  0  0  0  0  0  0  0  0  0  0
   68.7335   10.8613    5.8511 C   0  0  0  0  0  0  0  0  0  0  0  0
   70.9821   14.3760    2.9088 N   0  0  0  0  0  0  0  0  0  0  0  0
   67.3270    7.1515    2.2851 O   0  5  0  0  0  0  0  0  0  0  0  0
   67.7323    5.8976   -0.1786 O   0  5  0  0  0  0  0  0  0  0  0  0
   71.1910    5.4269   -2.5381 O   0  5  0  0  0  0  0  0  0  0  0  0
   69.6540   14.0324    2.9972 C   0  0  1  0  0  0  0  0  0  0  0  0
   68.8211   14.6972    2.2077 N   0  0  0  0  0  0  0  0  0  0  0  0
   68.6052    9.0656    1.1636 O   0  0  0  0  0  0  0  0  0  0  0  0
   69.6257    7.3114   -1.1614 O   0  0  0  0  0  0  0  0  0  0  0  0
   68.9839    4.1338   -2.4628 O   0  0  0  0  0  0  0  0  0  0  0  0
   69.1850   13.0903    3.8115 N   0  0  0  0  0  0  0  0  0  0  0  0
   69.5526    6.7779    1.2613 O   0  0  0  0  0  0  0  0  0  0  0  0
   70.0362    4.9892   -0.3833 O   0  0  0  0  0  0  0  0  0  0  0  0
   71.1040    3.0998   -1.6214 O   0  0  0  0  0  0  0  0  0  0  0  0
   70.1672   12.5110    4.5398 C   0  0  2  0  0  0  0  0  0  0  0  0
   71.5231   12.7953    4.5134 C   0  0  2  0  0  0  0  0  0  0  0  0
   72.0056   13.8009    3.6405 C   0  0  1  0  0  0  0  0  0  0  0  0
   73.1608   14.1656    3.4670 O   0  0  0  0  0  0  0  0  0  0  0  0
   72.2202   11.9809    5.4122 N   0  0  0  0  0  0  0  0  0  0  0  0
   71.2616   11.2718    5.9124 C   0  0  0  0  0  0  0  0  0  0  0  0
   70.0033   11.5061    5.4635 N   0  0  0  0  0  0  0  0  0  0  0  0
  1  5  1  1  0  0  0
  1 14  1  0  0  0  0
  1 19  2  0  0  0  0
  2 15  1  6  0  0  0
  2 20  2  0  0  0  0
  2 23  1  0  0  0  0
  3 16  1  6  0  0  0
  3 21  2  0  0  0  0
  3 24  1  0  0  0  0
  3 25  1  0  0  0  0
  4  6  1  0  0  0  0
  5  4  1  0  0  0  0
  6  7  1  0  0  0  0
  6  8  2  0  0  0  0
  7 12  1  0  0  0  0
  8  9  1  0  0  0  0
  8 10  1  0  0  0  0
 10 11  1  0  0  0  0
 10 12  2  0  0  0  0
 12 32  1  0  0  0  0
 13 17  1  0  0  0  0
 17 18  1  6  0  0  0
 17 22  1  0  0  0  0
 23  1  1  0  0  0  0
 24  2  1  0  0  0  0
 26 22  1  6  0  0  0
 27 26  1  0  0  0  0
 27 28  1  0  0  0  0
 27 30  1  6  0  0  0
 28 13  1  0  0  0  0
 28 29  1  6  0  0  0
 31 30  1  0  0  0  0
 32 26  1  0  0  0  0
 32 31  1  0  0  0  0
M  CHG  3  14  -1  15  -1  16  -1
M  END
>  <CHROM.1>
6.63227229,-49.37345978,69.83649842,-85.42580833,-97.54377868,146.43731837
-176.79736477,85.26447960,69.44435982,9.00735284,2.28361398,1.60999683,-0.72752453
-2.46871991

>  <Name>
2au4_lig

>  <RI>
0

>  <Rbt.Current_Directory>
/home/itssahil/PROJECTS/Mol_Feturizer/New_Systems/rnas/2au4

>  <Rbt.Executable>
rbdock ($Id: //depot/dev/client3/rdock/2013.1/src/exe/rbdock.cxx#4 $)

>  <Rbt.Library>
libRbt.so (2013.1, Build901 2013/11/27)

>  <Rbt.Parameter_File>
/export/apps/rDock/src/rDock_2013.1_src/data/scripts/dock_solv.prm

>  <Rbt.Receptor>
prm/pocket_docking_6.prm

>  <SCORE>
-43.0061

>  <SCORE.INTER>
-21.2321

>  <SCORE.INTER.CONST>
1

>  <SCORE.INTER.POLAR>
-2.41982

>  <SCORE.INTER.ROT>
8

>  <SCORE.INTER.SOLV>
31.0071

>  <SCORE.INTER.VDW>
-25.3577

>  <SCORE.INTER.norm>
-0.663503

>  <SCORE.INTRA>
-21.774

>  <SCORE.INTRA.DIHEDRAL>
-42.7895

>  <SCORE.INTRA.DIHEDRAL.0>
76.3625

>  <SCORE.INTRA.POLAR>
0

>  <SCORE.INTRA.POLAR.0>
0

>  <SCORE.INTRA.REPUL>
-0.12705

>  <SCORE.INTRA.REPUL.0>
0.12705

>  <SCORE.INTRA.SOLV>
-1.63727

>  <SCORE.INTRA.SOLV.lig_0>
-119.383

>  <SCORE.INTRA.VDW>
1.07458

>  <SCORE.INTRA.VDW.0>
-5.10464

>  <SCORE.INTRA.norm>
-0.680439

>  <SCORE.RESTR>
0

>  <SCORE.RESTR.CAVITY>
0

>  <SCORE.RESTR.norm>
0

>  <SCORE.SYSTEM>
0

>  <SCORE.SYSTEM.CONST>
0

>  <SCORE.SYSTEM.DIHEDRAL>
0

>  <SCORE.SYSTEM.SOLV>
0

>  <SCORE.SYSTEM.norm>
0

>  <SCORE.heavy>
32

>  <SCORE.norm>
-1.34394

>  <RMSD>
7.995

$$$$
2au4_lig
 OpenBabel11021811423D
libRbt.so/2013.1/901 2013/11/27
 32 34  0  0  0  0  0  0  0  0999 V2000
   68.1680    7.7051    3.4302 P   0  0  1  0  0  0  0  0  0  0  0  0
   68.9021    6.3503    1.1952 P   0  0  1  0  0  0  0  0  0  0  0  0
   68.9397    5.1271   -1.2427 P   0  0  2  0  0  0  0  0  0  0  0  0
   66.9718    9.6828    4.7296 C   0  0  0  0  0  0  0  0  0  0  0  0
   66.9472    8.7293    3.6545 O   0  0  0  0  0  0  0  0  0  0  0  0
   65.7361   10.5705    4.7485 C   0  0  0  0  0  0  0  0  0  0  0  0
   66.0423   11.8780    4.2223 O   0  0  0  0  0  0  0  0  0  0  0  0
   64.6254    9.9652    3.9044 C   0  0  0  0  0  0  0  0  0  0  0  0
   63.4919    9.6294    4.7139 O   0  0  0  0  0  0  0  0  0  0  0  0
   64.2634   11.0002    2.8660 C   0  0  0  0  0  0  0  0  0  0  0  0
   62.8807   11.3684    2.9599 O   0  0  0  0  0  0  0  0  0  0  0  0
   65.1599   12.1985    3.1260 C   0  0  0  0  0  0  0  0  0  0  0  0
   65.1786   12.4097   -1.9751 N   0  0  0  0  0  0  0  0  0  0  0  0
   69.3898    8.4840    3.1454 O   0  5  0  0  0  0  0  0  0  0  0  0
   69.7508    7.4618    0.7236 O   0  5  0  0  0  0  0  0  0  0  0  0
   70.3719    5.2136   -0.8925 O   0  5  0  0  0  0  0  0  0  0  0  0
   64.1867   11.9853   -1.1232 C   0  0  1  0  0  0  0  0  0  0  0  0
   63.0656   11.5614   -1.6911 N   0  0  0  0  0  0  0  0  0  0  0  0
   68.1600    6.7136    4.5270 O   0  0  0  0  0  0  0  0  0  0  0  0
   69.5049    5.2144    1.9231 O   0  0  0  0  0  0  0  0  0  0  0  0
   68.4510    5.7153   -2.5072 O   0  0  0  0  0  0  0  0  0  0  0  0
   64.3014   11.9786    0.2025 N   0  0  0  0  0  0  0  0  0  0  0  0
   67.7452    6.9559    2.0959 O   0  0  0  0  0  0  0  0  0  0  0  0
   68.1029    5.7702   -0.0498 O   0  0  0  0  0  0  0  0  0  0  0  0
   68.4966    3.5838   -1.1934 O   0  0  0  0  0  0  0  0  0  0  0  0
   65.5067   12.4369    0.6121 C   0  0  2  0  0  0  0  0  0  0  0  0
   66.5570   12.8821   -0.1743 C   0  0  2  0  0  0  0  0  0  0  0  0
   66.4185   12.8822   -1.5839 C   0  0  1  0  0  0  0  0  0  0  0  0
   67.2405   13.2134   -2.4278 O   0  0  0  0  0  0  0  0  0  0  0  0
   67.6407   13.2755    0.6182 N   0  0  0  0  0  0  0  0  0  0  0  0
   67.1855   13.0468    1.8067 C   0  0  0  0  0  0  0  0  0  0  0  0
   65.9289   12.5481    1.9158 N   0  0  0  0  0  0  0  0  0  0  0  0
  1  5  1  1  0  0  0
  1 14  1  0  0  0  0
  1 19  2  0  0  0  0
  2 15  1  6  0  0  0
  2 20  2  0  0  0  0
  2 23  1  0  0  0  0
  3 16  1  1  0  0  0
  3 21  2  0  0  0  0
  3 24  1  0  0  0  0
  3 25  1  0  0  0  0
  4  6  1  0  0  0  0
  5  4  1  0  0  0  0
  6  7  1  0  0  0  0
  6  8  2  0  0  0  0
  7 12  1  0  0  0  0
  8  9  1  0  0  0  0
  8 10  1  0  0  0  0
 10 11  1  0  0  0  0
 10 12  2  0  0  0  0
 12 32  1  0  0  0  0
 13 17  1  0  0  0  0
 17 18  1  6  0  0  0
 17 22  1  0  0  0  0
 23  1  1  0  0  0  0
 24  2  1  0  0  0  0
 26 22  1  6  0  0  0
 27 26  1  0  0  0  0
 27 28  1  0  0  0  0
 27 30  1  6  0  0  0
 28 13  1  0  0  0  0
 28 29  1  6  0  0  0
 31 30  1  0  0  0  0
 32 26  1  0  0  0  0
 32 31  1  0  0  0  0
M  CHG  3  14  -1  15  -1  16  -1
M  END
>  <CHROM.1>
-61.85758923,-62.76506823,0.40278924,-103.20628210,178.95048192,154.66391668
153.65243856,62.66004860,67.00400503,9.15459874,1.28921303,0.09283708,-1.04144742
1.82282765

>  <Name>
2au4_lig

>  <RI>
0

>  <Rbt.Current_Directory>
/home/itssahil/PROJECTS/Mol_Feturizer/New_Systems/rnas/2au4

>  <Rbt.Executable>
rbdock ($Id: //depot/dev/client3/rdock/2013.1/src/exe/rbdock.cxx#4 $)

>  <Rbt.Library>
libRbt.so (2013.1, Build901 2013/11/27)

>  <Rbt.Parameter_File>
/export/apps/rDock/src/rDock_2013.1_src/data/scripts/dock_solv.prm

>  <Rbt.Receptor>
prm/pocket_docking_7.prm

>  <SCORE>
-44.6185

>  <SCORE.INTER>
-20.0297

>  <SCORE.INTER.CONST>
1

>  <SCORE.INTER.POLAR>
-2.00418

>  <SCORE.INTER.ROT>
8

>  <SCORE.INTER.SOLV>
29.035

>  <SCORE.INTER.VDW>
-25.2842

>  <SCORE.INTER.norm>
-0.625928

>  <SCORE.INTRA>
-24.5888

>  <SCORE.INTRA.DIHEDRAL>
-47.7042

>  <SCORE.INTRA.DIHEDRAL.0>
76.3625

>  <SCORE.INTRA.POLAR>
0

>  <SCORE.INTRA.POLAR.0>
0

>  <SCORE.INTRA.REPUL>
-0.12705

>  <SCORE.INTRA.REPUL.0>
0.12705

>  <SCORE.INTRA.SOLV>
-4.97013

>  <SCORE.INTRA.SOLV.lig_0>
-119.383

>  <SCORE.INTRA.VDW>
2.38361

>  <SCORE.INTRA.VDW.0>
-5.10464

>  <SCORE.INTRA.norm>
-0.7684

>  <SCORE.RESTR>
0

>  <SCORE.RESTR.CAVITY>
0

>  <SCORE.RESTR.norm>
0

>  <SCORE.SYSTEM>
0

>  <SCORE.SYSTEM.CONST>
0

>  <SCORE.SYSTEM.DIHEDRAL>
0

>  <SCORE.SYSTEM.SOLV>
0

>  <SCORE.SYSTEM.norm>
0

>  <SCORE.heavy>
32

>  <SCORE.norm>
-1.39433

>  <RMSD>
8.011

$$$$
2au4_lig
 OpenBabel11021811423D
libRbt.so/2013.1/901 2013/11/27
 32 34  0  0  0  0  0  0  0  0999 V2000
   71.7000   13.4465    3.7899 P   0  0  1  0  0  0  0  0  0  0  0  0
   72.4087   12.8551    1.2370 P   0  0  1  0  0  0  0  0  0  0  0  0
   70.2151   12.7846   -0.3828 P   0  0  2  0  0  0  0  0  0  0  0  0
   70.8255   13.1838    6.2793 C   0  0  0  0  0  0  0  0  0  0  0  0
   71.0870   12.5818    5.0007 O   0  0  0  0  0  0  0  0  0  0  0  0
   70.1562   12.2215    7.2496 C   0  0  0  0  0  0  0  0  0  0  0  0
   69.0507   11.5474    6.6142 O   0  0  0  0  0  0  0  0  0  0  0  0
   71.1428   11.1693    7.7310 C   0  0  0  0  0  0  0  0  0  0  0  0
   71.3607   11.2795    9.1429 O   0  0  0  0  0  0  0  0  0  0  0  0
   70.5462    9.8280    7.3769 C   0  0  0  0  0  0  0  0  0  0  0  0
   70.3616    9.0171    8.5451 O   0  0  0  0  0  0  0  0  0  0  0  0
   69.2152   10.1163    6.7041 C   0  0  0  0  0  0  0  0  0  0  0  0
   67.2720   10.3594    1.9891 N   0  0  0  0  0  0  0  0  0  0  0  0
   70.7077   14.4638    3.3883 O   0  5  0  0  0  0  0  0  0  0  0  0
   73.4718   13.8406    1.5144 O   0  5  0  0  0  0  0  0  0  0  0  0
   70.0517   11.4375    0.2002 O   0  5  0  0  0  0  0  0  0  0  0  0
   67.0698   11.1969    3.0603 C   0  0  1  0  0  0  0  0  0  0  0  0
   66.2503   12.2203    2.8598 N   0  0  0  0  0  0  0  0  0  0  0  0
   73.0750   13.8540    4.1498 O   0  0  0  0  0  0  0  0  0  0  0  0
   72.7027   11.6564    0.4245 O   0  0  0  0  0  0  0  0  0  0  0  0
   70.7016   12.9357   -1.7701 O   0  0  0  0  0  0  0  0  0  0  0  0
   67.6396   11.0279    4.2509 N   0  0  0  0  0  0  0  0  0  0  0  0
   71.8013   12.3761    2.6219 O   0  0  0  0  0  0  0  0  0  0  0  0
   71.1850   13.6167    0.5678 O   0  0  0  0  0  0  0  0  0  0  0  0
   68.8219   13.5718   -0.2424 O   0  0  0  0  0  0  0  0  0  0  0  0
   68.4387    9.9366    4.2831 C   0  0  2  0  0  0  0  0  0  0  0  0
   68.6976    9.0440    3.2555 C   0  0  2  0  0  0  0  0  0  0  0  0
   68.0825    9.2383    1.9945 C   0  0  1  0  0  0  0  0  0  0  0  0
   68.1742    8.5455    0.9899 O   0  0  0  0  0  0  0  0  0  0  0  0
   69.5770    8.0409    3.6768 N   0  0  0  0  0  0  0  0  0  0  0  0
   69.7878    8.3841    4.9055 C   0  0  0  0  0  0  0  0  0  0  0  0
   69.1603    9.4947    5.3667 N   0  0  0  0  0  0  0  0  0  0  0  0
  1  5  1  1  0  0  0
  1 14  1  0  0  0  0
  1 19  2  0  0  0  0
  2 15  1  1  0  0  0
  2 20  2  0  0  0  0
  2 23  1  0  0  0  0
  3 16  1  1  0  0  0
  3 21  2  0  0  0  0
  3 24  1  0  0  0  0
  3 25  1  0  0  0  0
  4  6  1  0  0  0  0
  5  4  1  0  0  0  0
  6  7  1  0  0  0  0
  6  8  2  0  0  0  0
  7 12  1  0  0  0  0
  8  9  1  0  0  0  0
  8 10  1  0  0  0  0
 10 11  1  0  0  0  0
 10 12  2  0  0  0  0
 12 32  1  0  0  0  0
 13 17  1  0  0  0  0
 17 18  1  1  0  0  0
 17 22  1  0  0  0  0
 23  1  1  0  0  0  0
 24  2  1  0  0  0  0
 26 22  1  1  0  0  0
 27 26  1  0  0  0  0
 27 28  1  0  0  0  0
 27 30  1  1  0  0  0
 28 13  1  0  0  0  0
 28 29  1  1  0  0  0
 31 30  1  0  0  0  0
 32 26  1  0  0  0  0
 32 31  1  0  0  0  0
M  CHG  3  14  -1  15  -1  16  -1
M  END
>  <CHROM.1>
-65.86527665,35.20513206,37.85953787,-47.63866156,175.87152824,-31.04385616
-178.58512432,153.82368487,70.22176440,11.63741114,3.35106558,-1.39981755
0.73030492,1.79849062

>  <Name>
2au4_lig

>  <RI>
0

>  <Rbt.Current_Directory>
/home/itssahil/PROJECTS/Mol_Feturizer/New_Systems/rnas/2au4

>  <Rbt.Executable>
rbdock ($Id: //depot/dev/client3/rdock/2013.1/src/exe/rbdock.cxx#4 $)

>  <Rbt.Library>
libRbt.so (2013.1, Build901 2013/11/27)

>  <Rbt.Parameter_File>
/export/apps/rDock/src/rDock_2013.1_src/data/scripts/dock_solv.prm

>  <Rbt.Receptor>
prm/pocket_docking_8.prm

>  <SCORE>
-39.8889

>  <SCORE.INTER>
-15.2206

>  <SCORE.INTER.CONST>
1

>  <SCORE.INTER.POLAR>
-2.56269

>  <SCORE.INTER.ROT>
8

>  <SCORE.INTER.SOLV>
19.9385

>  <SCORE.INTER.VDW>
-17.1843

>  <SCORE.INTER.norm>
-0.475644

>  <SCORE.INTRA>
-24.6683

>  <SCORE.INTRA.DIHEDRAL>
-47.9845

>  <SCORE.INTRA.DIHEDRAL.0>
76.3625

>  <SCORE.INTRA.POLAR>
0

>  <SCORE.INTRA.POLAR.0>
0

>  <SCORE.INTRA.REPUL>
0.0605653

>  <SCORE.INTRA.REPUL.0>
0.12705

>  <SCORE.INTRA.SOLV>
-2.54524

>  <SCORE.INTRA.SOLV.lig_0>
-119.383

>  <SCORE.INTRA.VDW>
0.293758

>  <SCORE.INTRA.VDW.0>
-5.10464

>  <SCORE.INTRA.norm>
-0.770884

>  <SCORE.RESTR>
0

>  <SCORE.RESTR.CAVITY>
0

>  <SCORE.RESTR.norm>
0

>  <SCORE.SYSTEM>
0

>  <SCORE.SYSTEM.CONST>
0

>  <SCORE.SYSTEM.DIHEDRAL>
0

>  <SCORE.SYSTEM.SOLV>
0

>  <SCORE.SYSTEM.norm>
0

>  <SCORE.heavy>
32

>  <SCORE.norm>
-1.24653

>  <RMSD>
8.047

$$$$
2au4_lig
 OpenBabel11021811423D
libRbt.so/2013.1/901 2013/11/27
 32 34  0  0  0  0  0  0  0  0999 V2000
   70.4214   10.0175    5.2353 P   0  0  1  0  0  0  0  0  0  0  0  0
   68.9270    8.9211    3.2519 P   0  0  1  0  0  0  0  0  0  0  0  0
   68.7196    6.3244    2.4424 P   0  0  2  0  0  0  0  0  0  0  0  0
   72.6243   11.0054    4.1391 C   0  0  0  0  0  0  0  0  0  0  0  0
   71.9770   10.4262    5.2842 O   0  0  0  0  0  0  0  0  0  0  0  0
   72.0952   12.3941    3.8121 C   0  0  0  0  0  0  0  0  0  0  0  0
   73.0960   13.1683    3.1197 O   0  0  0  0  0  0  0  0  0  0  0  0
   70.8632   12.3058    2.9251 C   0  0  0  0  0  0  0  0  0  0  0  0
   69.7106   12.8297    3.5959 O   0  0  0  0  0  0  0  0  0  0  0  0
   71.1739   13.1002    1.6791 C   0  0  0  0  0  0  0  0  0  0  0  0
   70.2305   14.1640    1.4927 O   0  0  0  0  0  0  0  0  0  0  0  0
   72.5781   13.6499    1.8615 C   0  0  0  0  0  0  0  0  0  0  0  0
   72.9586   12.9501   -3.1815 N   0  0  0  0  0  0  0  0  0  0  0  0
   70.2565    8.7113    5.9043 O   0  5  0  0  0  0  0  0  0  0  0  0
   67.9300    8.9665    4.3391 O   0  5  0  0  0  0  0  0  0  0  0  0
   68.6039    6.7185    1.0238 O   0  5  0  0  0  0  0  0  0  0  0  0
   71.8845   13.3799   -2.4390 C   0  0  1  0  0  0  0  0  0  0  0  0
   70.7756   13.6534   -3.1132 N   0  0  0  0  0  0  0  0  0  0  0  0
   69.6144   11.1786    5.6675 O   0  0  0  0  0  0  0  0  0  0  0  0
   68.5431    9.3051    1.8776 O   0  0  0  0  0  0  0  0  0  0  0  0
   67.5033    6.0424    3.2330 O   0  0  0  0  0  0  0  0  0  0  0  0
   71.9085   13.5249   -1.1165 N   0  0  0  0  0  0  0  0  0  0  0  0
   70.1722    9.8047    3.6820 O   0  0  0  0  0  0  0  0  0  0  0  0
   69.5431    7.4572    3.2011 O   0  0  0  0  0  0  0  0  0  0  0  0
   69.6966    5.0528    2.5387 O   0  0  0  0  0  0  0  0  0  0  0  0
   73.1115   13.1992   -0.5899 C   0  0  2  0  0  0  0  0  0  0  0  0
   74.2410   12.7602   -1.2618 C   0  0  2  0  0  0  0  0  0  0  0  0
   74.1982   12.6109   -2.6696 C   0  0  1  0  0  0  0  0  0  0  0  0
   75.0816   12.2159   -3.4186 O   0  0  0  0  0  0  0  0  0  0  0  0
   75.2914   12.5238   -0.3686 N   0  0  0  0  0  0  0  0  0  0  0  0
   74.7408   12.8280    0.7611 C   0  0  0  0  0  0  0  0  0  0  0  0
   73.4489   13.2408    0.7423 N   0  0  0  0  0  0  0  0  0  0  0  0
  1  5  1  1  0  0  0
  1 14  1  0  0  0  0
  1 19  2  0  0  0  0
  2 15  1  1  0  0  0
  2 20  2  0  0  0  0
  2 23  1  0  0  0  0
  3 16  1  6  0  0  0
  3 21  2  0  0  0  0
  3 24  1  0  0  0  0
  3 25  1  0  0  0  0
  4  6  1  0  0  0  0
  5  4  1  0  0  0  0
  6  7  1  0  0  0  0
  6  8  2  0  0  0  0
  7 12  1  0  0  0  0
  8  9  1  0  0  0  0
  8 10  1  0  0  0  0
 10 11  1  0  0  0  0
 10 12  2  0  0  0  0
 12 32  1  0  0  0  0
 13 17  1  0  0  0  0
 17 18  1  1  0  0  0
 17 22  1  0  0  0  0
 23  1  1  0  0  0  0
 24  2  1  0  0  0  0
 26 22  1  1  0  0  0
 27 26  1  0  0  0  0
 27 28  1  0  0  0  0
 27 30  1  1  0  0  0
 28 13  1  0  0  0  0
 28 29  1  1  0  0  0
 31 30  1  0  0  0  0
 32 26  1  0  0  0  0
 32 31  1  0  0  0  0
M  CHG  3  14  -1  15  -1  16  -1
M  END
>  <CHROM.1>
137.94808494,24.78941415,62.29654232,153.89745347,67.20197501,161.33740780
159.15074412,81.49737961,71.03232996,10.69772672,1.95324557,-2.78155665,-0.99693936
-1.90137152

>  <Name>
2au4_lig

>  <RI>
0

>  <Rbt.Current_Directory>
/home/itssahil/PROJECTS/Mol_Feturizer/New_Systems/rnas/2au4

>  <Rbt.Executable>
rbdock ($Id: //depot/dev/client3/rdock/2013.1/src/exe/rbdock.cxx#4 $)

>  <Rbt.Library>
libRbt.so (2013.1, Build901 2013/11/27)

>  <Rbt.Parameter_File>
/export/apps/rDock/src/rDock_2013.1_src/data/scripts/dock_solv.prm

>  <Rbt.Receptor>
prm/blind_docking_80.prm

>  <SCORE>
-33.655

>  <SCORE.INTER>
-13.0637

>  <SCORE.INTER.CONST>
1

>  <SCORE.INTER.POLAR>
-1.50536

>  <SCORE.INTER.ROT>
8

>  <SCORE.INTER.SOLV>
30.9282

>  <SCORE.INTER.VDW>
-22.934

>  <SCORE.INTER.norm>
-0.40824

>  <SCORE.INTRA>
-23.3051

>  <SCORE.INTRA.DIHEDRAL>
-45.3805

>  <SCORE.INTRA.DIHEDRAL.0>
76.3625

>  <SCORE.INTRA.POLAR>
0

>  <SCORE.INTRA.POLAR.0>
0

>  <SCORE.INTRA.REPUL>
-0.12705

>  <SCORE.INTRA.REPUL.0>
0.12705

>  <SCORE.INTRA.SOLV>
-1.96108

>  <SCORE.INTRA.SOLV.lig_0>
-119.383

>  <SCORE.INTRA.VDW>
1.0009

>  <SCORE.INTRA.VDW.0>
-5.10464

>  <SCORE.INTRA.norm>
-0.728285

>  <SCORE.RESTR>
2.71373

>  <SCORE.RESTR.CAVITY>
2.71373

>  <SCORE.RESTR.norm>
0.0848042

>  <SCORE.SYSTEM>
0

>  <SCORE.SYSTEM.CONST>
0

>  <SCORE.SYSTEM.DIHEDRAL>
0

>  <SCORE.SYSTEM.SOLV>
0

>  <SCORE.SYSTEM.norm>
0

>  <SCORE.heavy>
32

>  <SCORE.norm>
-1.05172

>  <RMSD>
8.055

$$$$
2au4_lig
 OpenBabel11021811423D
libRbt.so/2013.1/901 2013/11/27
 32 34  0  0  0  0  0  0  0  0999 V2000
   67.7937    9.2568   -1.5322 P   0  0  1  0  0  0  0  0  0  0  0  0
   68.9258    6.7935   -1.3912 P   0  0  1  0  0  0  0  0  0  0  0  0
   70.6902    4.7465   -1.0210 P   0  0  2  0  0  0  0  0  0  0  0  0
   67.0666    9.3195    1.0169 C   0  0  0  0  0  0  0  0  0  0  0  0
   67.2631   10.0235   -0.2207 O   0  0  0  0  0  0  0  0  0  0  0  0
   68.2949    9.3656    1.9139 C   0  0  0  0  0  0  0  0  0  0  0  0
   68.4079   10.6532    2.5539 O   0  0  0  0  0  0  0  0  0  0  0  0
   68.2113    8.3010    2.9965 C   0  0  0  0  0  0  0  0  0  0  0  0
   69.2634    7.3393    2.8515 O   0  0  0  0  0  0  0  0  0  0  0  0
   68.3152    9.0242    4.3181 C   0  0  0  0  0  0  0  0  0  0  0  0
   69.4343    8.5534    5.0810 O   0  0  0  0  0  0  0  0  0  0  0  0
   68.4691   10.4987    3.9877 C   0  0  0  0  0  0  0  0  0  0  0  0
   65.5853   14.7076    3.7998 N   0  0  0  0  0  0  0  0  0  0  0  0
   66.7096    8.3951   -2.0449 O   0  5  0  0  0  0  0  0  0  0  0  0
   67.7153    6.1514   -0.8429 O   0  5  0  0  0  0  0  0  0  0  0  0
   69.4996    3.9132   -1.2842 O   0  5  0  0  0  0  0  0  0  0  0  0
   66.5444   14.2672    2.9190 C   0  0  1  0  0  0  0  0  0  0  0  0
   66.7701   15.0368    1.8627 N   0  0  0  0  0  0  0  0  0  0  0  0
   68.4425   10.2414   -2.4244 O   0  0  0  0  0  0  0  0  0  0  0  0
   69.2002    6.7412   -2.8422 O   0  0  0  0  0  0  0  0  0  0  0  0
   71.6821    4.3207   -0.0115 O   0  0  0  0  0  0  0  0  0  0  0  0
   67.2351   13.1410    3.0778 N   0  0  0  0  0  0  0  0  0  0  0  0
   68.9277    8.3152   -0.9428 O   0  0  0  0  0  0  0  0  0  0  0  0
   70.1904    6.2069   -0.6284 O   0  0  0  0  0  0  0  0  0  0  0  0
   71.4536    4.9962   -2.4122 O   0  0  0  0  0  0  0  0  0  0  0  0
   66.8837   12.4825    4.2063 C   0  0  2  0  0  0  0  0  0  0  0  0
   65.9330   12.8530    5.1436 C   0  0  2  0  0  0  0  0  0  0  0  0
   65.2069   14.0552    4.9595 C   0  0  1  0  0  0  0  0  0  0  0  0
   64.3561   14.5477    5.6882 O   0  0  0  0  0  0  0  0  0  0  0  0
   65.8575   11.9114    6.1756 N   0  0  0  0  0  0  0  0  0  0  0  0
   66.7488   11.0516    5.8038 C   0  0  0  0  0  0  0  0  0  0  0  0
   67.4169   11.2950    4.6487 N   0  0  0  0  0  0  0  0  0  0  0  0
  1  5  1  1  0  0  0
  1 14  1  0  0  0  0
  1 19  2  0  0  0  0
  2 15  1  1  0  0  0
  2 20  2  0  0  0  0
  2 23  1  0  0  0  0
  3 16  1  6  0  0  0
  3 21  2  0  0  0  0
  3 24  1  0  0  0  0
  3 25  1  0  0  0  0
  4  6  1  0  0  0  0
  5  4  1  0  0  0  0
  6  7  1  0  0  0  0
  6  8  2  0  0  0  0
  7 12  1  0  0  0  0
  8  9  1  0  0  0  0
  8 10  1  0  0  0  0
 10 11  1  0  0  0  0
 10 12  2  0  0  0  0
 12 32  1  0  0  0  0
 13 17  1  0  0  0  0
 17 18  1  1  0  0  0
 17 22  1  0  0  0  0
 23  1  1  0  0  0  0
 24  2  1  0  0  0  0
 26 22  1  1  0  0  0
 27 26  1  0  0  0  0
 27 28  1  0  0  0  0
 27 30  1  1  0  0  0
 28 13  1  0  0  0  0
 28 29  1  1  0  0  0
 31 30  1  0  0  0  0
 32 26  1  0  0  0  0
 32 31  1  0  0  0  0
M  CHG  3  14  -1  15  -1  16  -1
M  END
>  <CHROM.1>
72.02374949,-66.54286426,-37.77364754,76.60233019,92.33776351,-30.91518774
132.71783168,76.36860871,68.12133863,9.25450379,1.30239452,0.72172666,1.07608021
-1.67585656

>  <Name>
2au4_lig

>  <RI>
0

>  <Rbt.Current_Directory>
/home/itssahil/PROJECTS/Mol_Feturizer/New_Systems/rnas/2au4

>  <Rbt.Executable>
rbdock ($Id: //depot/dev/client3/rdock/2013.1/src/exe/rbdock.cxx#4 $)

>  <Rbt.Library>
libRbt.so (2013.1, Build901 2013/11/27)

>  <Rbt.Parameter_File>
/export/apps/rDock/src/rDock_2013.1_src/data/scripts/dock_solv.prm

>  <Rbt.Receptor>
prm/pocket_docking_7.prm

>  <SCORE>
-32.5645

>  <SCORE.INTER>
-9.77466

>  <SCORE.INTER.CONST>
1

>  <SCORE.INTER.POLAR>
-0.997046

>  <SCORE.INTER.ROT>
8

>  <SCORE.INTER.SOLV>
27.6429

>  <SCORE.INTER.VDW>
-21.3406

>  <SCORE.INTER.norm>
-0.305458

>  <SCORE.INTRA>
-22.7898

>  <SCORE.INTRA.DIHEDRAL>
-43.7506

>  <SCORE.INTRA.DIHEDRAL.0>
76.3625

>  <SCORE.INTRA.POLAR>
0

>  <SCORE.INTRA.POLAR.0>
0

>  <SCORE.INTRA.REPUL>
0.0610016

>  <SCORE.INTRA.REPUL.0>
0.12705

>  <SCORE.INTRA.SOLV>
-4.70082

>  <SCORE.INTRA.SOLV.lig_0>
-119.383

>  <SCORE.INTRA.VDW>
1.13091

>  <SCORE.INTRA.VDW.0>
-5.10464

>  <SCORE.INTRA.norm>
-0.712181

>  <SCORE.RESTR>
0

>  <SCORE.RESTR.CAVITY>
0

>  <SCORE.RESTR.norm>
0

>  <SCORE.SYSTEM>
0

>  <SCORE.SYSTEM.CONST>
0

>  <SCORE.SYSTEM.DIHEDRAL>
0

>  <SCORE.SYSTEM.SOLV>
0

>  <SCORE.SYSTEM.norm>
0

>  <SCORE.heavy>
32

>  <SCORE.norm>
-1.01764

>  <RMSD>
8.088

$$$$
2au4_lig
 OpenBabel11021811423D
libRbt.so/2013.1/901 2013/11/27
 32 34  0  0  0  0  0  0  0  0999 V2000
   69.1968    8.4066    0.7382 P   0  0  1  0  0  0  0  0  0  0  0  0
   69.2920    5.6937    0.7608 P   0  0  1  0  0  0  0  0  0  0  0  0
   69.8290    4.3616   -1.5582 P   0  0  2  0  0  0  0  0  0  0  0  0
   71.0623   10.2834    0.5707 C   0  0  0  0  0  0  0  0  0  0  0  0
   70.3116    9.3689    1.3867 O   0  0  0  0  0  0  0  0  0  0  0  0
   72.1904   10.9569    1.3384 C   0  0  0  0  0  0  0  0  0  0  0  0
   73.3367   11.1551    0.4858 O   0  0  0  0  0  0  0  0  0  0  0  0
   71.7484   12.3130    1.8656 C   0  0  0  0  0  0  0  0  0  0  0  0
   71.7532   12.3319    3.2982 O   0  0  0  0  0  0  0  0  0  0  0  0
   72.7172   13.3272    1.3060 C   0  0  0  0  0  0  0  0  0  0  0  0
   73.3806   14.0453    2.3550 O   0  0  0  0  0  0  0  0  0  0  0  0
   73.7170   12.5474    0.4697 C   0  0  0  0  0  0  0  0  0  0  0  0
   71.0283   13.7013   -3.7144 N   0  0  0  0  0  0  0  0  0  0  0  0
   68.1773    8.1088    1.7642 O   0  5  0  0  0  0  0  0  0  0  0  0
   69.4195    5.4080    2.2031 O   0  5  0  0  0  0  0  0  0  0  0  0
   69.7945    5.6533   -2.2735 O   0  5  0  0  0  0  0  0  0  0  0  0
   70.5967   13.1904   -2.5134 C   0  0  1  0  0  0  0  0  0  0  0  0
   69.2961   12.9523   -2.4093 N   0  0  0  0  0  0  0  0  0  0  0  0
   68.7915    8.9674   -0.5685 O   0  0  0  0  0  0  0  0  0  0  0  0
   67.9577    5.7256    0.1265 O   0  0  0  0  0  0  0  0  0  0  0  0
   68.6488    3.4725   -1.5805 O   0  0  0  0  0  0  0  0  0  0  0  0
   71.4021   12.9302   -1.4865 N   0  0  0  0  0  0  0  0  0  0  0  0
   70.0142    7.0740    0.4617 O   0  0  0  0  0  0  0  0  0  0  0  0
   70.1917    4.6533   -0.0350 O   0  0  0  0  0  0  0  0  0  0  0  0
   71.1037    3.5300   -2.0720 O   0  0  0  0  0  0  0  0  0  0  0  0
   72.6929   13.2260   -1.7636 C   0  0  2  0  0  0  0  0  0  0  0  0
   73.2114   13.7414   -2.9406 C   0  0  2  0  0  0  0  0  0  0  0  0
   72.3402   14.0123   -4.0240 C   0  0  1  0  0  0  0  0  0  0  0  0
   72.6209   14.4411   -5.1353 O   0  0  0  0  0  0  0  0  0  0  0  0
   74.5967   13.9103   -2.8427 N   0  0  0  0  0  0  0  0  0  0  0  0
   74.8213   13.4944   -1.6391 C   0  0  0  0  0  0  0  0  0  0  0  0
   73.7599   13.0658   -0.9115 N   0  0  0  0  0  0  0  0  0  0  0  0
  1  5  1  1  0  0  0
  1 14  1  0  0  0  0
  1 19  2  0  0  0  0
  2 15  1  1  0  0  0
  2 20  2  0  0  0  0
  2 23  1  0  0  0  0
  3 16  1  6  0  0  0
  3 21  2  0  0  0  0
  3 24  1  0  0  0  0
  3 25  1  0  0  0  0
  4  6  1  0  0  0  0
  5  4  1  0  0  0  0
  6  7  1  0  0  0  0
  6  8  2  0  0  0  0
  7 12  1  0  0  0  0
  8  9  1  0  0  0  0
  8 10  1  0  0  0  0
 10 11  1  0  0  0  0
 10 12  2  0  0  0  0
 12 32  1  0  0  0  0
 13 17  1  0  0  0  0
 17 18  1  6  0  0  0
 17 22  1  0  0  0  0
 23  1  1  0  0  0  0
 24  2  1  0  0  0  0
 26 22  1  6  0  0  0
 27 26  1  0  0  0  0
 27 28  1  0  0  0  0
 27 30  1  6  0  0  0
 28 13  1  0  0  0  0
 28 29  1  6  0  0  0
 31 30  1  0  0  0  0
 32 26  1  0  0  0  0
 32 31  1  0  0  0  0
M  CHG  3  14  -1  15  -1  16  -1
M  END
>  <CHROM.1>
-152.23102395,-82.59737253,54.45616171,144.44369744,-172.03856532,66.47985264
139.68826737,156.98039453,70.96942851,9.62115269,-0.49672490,-3.12585764
-1.18423748,-1.70191076

>  <Name>
2au4_lig

>  <RI>
0

>  <Rbt.Current_Directory>
/home/itssahil/PROJECTS/Mol_Feturizer/New_Systems/rnas/2au4

>  <Rbt.Executable>
rbdock ($Id: //depot/dev/client3/rdock/2013.1/src/exe/rbdock.cxx#4 $)

>  <Rbt.Library>
libRbt.so (2013.1, Build901 2013/11/27)

>  <Rbt.Parameter_File>
/export/apps/rDock/src/rDock_2013.1_src/data/scripts/dock_solv.prm

>  <Rbt.Receptor>
prm/blind_docking_80.prm

>  <SCORE>
-24.0068

>  <SCORE.INTER>
-24.6293

>  <SCORE.INTER.CONST>
1

>  <SCORE.INTER.POLAR>
-2.0819

>  <SCORE.INTER.ROT>
8

>  <SCORE.INTER.SOLV>
40.2738

>  <SCORE.INTER.VDW>
-31.8378

>  <SCORE.INTER.norm>
-0.769665

>  <SCORE.INTRA>
-0.500923

>  <SCORE.INTRA.DIHEDRAL>
1.9824

>  <SCORE.INTRA.DIHEDRAL.0>
76.3625

>  <SCORE.INTRA.POLAR>
0

>  <SCORE.INTRA.POLAR.0>
0

>  <SCORE.INTRA.REPUL>
-0.12705

>  <SCORE.INTRA.REPUL.0>
0.12705

>  <SCORE.INTRA.SOLV>
-3.40169

>  <SCORE.INTRA.SOLV.lig_0>
-119.383

>  <SCORE.INTRA.VDW>
0.843966

>  <SCORE.INTRA.VDW.0>
-5.10464

>  <SCORE.INTRA.norm>
-0.0156538

>  <SCORE.RESTR>
1.12337

>  <SCORE.RESTR.CAVITY>
1.12337

>  <SCORE.RESTR.norm>
0.0351053

>  <SCORE.SYSTEM>
0

>  <SCORE.SYSTEM.CONST>
0

>  <SCORE.SYSTEM.DIHEDRAL>
0

>  <SCORE.SYSTEM.SOLV>
0

>  <SCORE.SYSTEM.norm>
0

>  <SCORE.heavy>
32

>  <SCORE.norm>
-0.750213

>  <RMSD>
8.102

$$$$
2au4_lig
 OpenBabel11021811423D
libRbt.so/2013.1/901 2013/11/27
 32 34  0  0  0  0  0  0  0  0999 V2000
   71.8592   13.6841    4.9350 P   0  0  1  0  0  0  0  0  0  0  0  0
   72.3829   13.5026    2.2775 P   0  0  1  0  0  0  0  0  0  0  0  0
   73.6339   13.1141   -0.1152 P   0  0  2  0  0  0  0  0  0  0  0  0
   69.8664   11.9918    5.3769 C   0  0  0  0  0  0  0  0  0  0  0  0
   70.9939   12.3766    4.5729 O   0  0  0  0  0  0  0  0  0  0  0  0
   69.1455   10.7719    4.8223 C   0  0  0  0  0  0  0  0  0  0  0  0
   67.9917   11.1700    4.0539 O   0  0  0  0  0  0  0  0  0  0  0  0
   70.0661    9.9675    3.9177 C   0  0  0  0  0  0  0  0  0  0  0  0
   70.3053    8.6631    4.4602 O   0  0  0  0  0  0  0  0  0  0  0  0
   69.3792    9.8798    2.5758 C   0  0  0  0  0  0  0  0  0  0  0  0
   69.1540    8.5156    2.1959 O   0  0  0  0  0  0  0  0  0  0  0  0
   68.0631   10.6244    2.7196 C   0  0  0  0  0  0  0  0  0  0  0  0
   66.0094   15.1433    1.5247 N   0  0  0  0  0  0  0  0  0  0  0  0
   70.9905   14.8721    4.8138 O   0  5  0  0  0  0  0  0  0  0  0  0
   71.8237   12.1393    2.1947 O   0  5  0  0  0  0  0  0  0  0  0  0
   72.8588   14.1424   -0.8383 O   0  5  0  0  0  0  0  0  0  0  0  0
   65.8622   14.3929    2.6669 C   0  0  1  0  0  0  0  0  0  0  0  0
   65.0720   14.8983    3.6046 N   0  0  0  0  0  0  0  0  0  0  0  0
   72.5958   13.4297    6.1915 O   0  0  0  0  0  0  0  0  0  0  0  0
   71.5547   14.6675    1.9025 O   0  0  0  0  0  0  0  0  0  0  0  0
   73.2098   11.6992   -0.1627 O   0  0  0  0  0  0  0  0  0  0  0  0
   66.4562   13.2185    2.8636 N   0  0  0  0  0  0  0  0  0  0  0  0
   72.9181   13.7317    3.7531 O   0  0  0  0  0  0  0  0  0  0  0  0
   73.7169   13.5476    1.4152 O   0  0  0  0  0  0  0  0  0  0  0  0
   75.1655   13.2036   -0.5913 O   0  0  0  0  0  0  0  0  0  0  0  0
   67.2197   12.8506    1.8089 C   0  0  2  0  0  0  0  0  0  0  0  0
   67.4228   13.5430    0.6261 C   0  0  2  0  0  0  0  0  0  0  0  0
   66.7825   14.7916    0.4328 C   0  0  1  0  0  0  0  0  0  0  0  0
   66.8258   15.5236   -0.5469 O   0  0  0  0  0  0  0  0  0  0  0  0
   68.2793   12.8357   -0.2243 N   0  0  0  0  0  0  0  0  0  0  0  0
   68.5324   11.7838    0.4838 C   0  0  0  0  0  0  0  0  0  0  0  0
   67.9537   11.6926    1.7071 N   0  0  0  0  0  0  0  0  0  0  0  0
  1  5  1  6  0  0  0
  1 14  1  0  0  0  0
  1 19  2  0  0  0  0
  2 15  1  6  0  0  0
  2 20  2  0  0  0  0
  2 23  1  0  0  0  0
  3 16  1  6  0  0  0
  3 21  2  0  0  0  0
  3 24  1  0  0  0  0
  3 25  1  0  0  0  0
  4  6  1  0  0  0  0
  5  4  1  0  0  0  0
  6  7  1  0  0  0  0
  6  8  2  0  0  0  0
  7 12  1  0  0  0  0
  8  9  1  0  0  0  0
  8 10  1  0  0  0  0
 10 11  1  0  0  0  0
 10 12  2  0  0  0  0
 12 32  1  0  0  0  0
 13 17  1  0  0  0  0
 17 18  1  6  0  0  0
 17 22  1  0  0  0  0
 23  1  1  0  0  0  0
 24  2  1  0  0  0  0
 26 22  1  6  0  0  0
 27 26  1  0  0  0  0
 27 28  1  0  0  0  0
 27 30  1  6  0  0  0
 28 13  1  0  0  0  0
 28 29  1  6  0  0  0
 31 30  1  0  0  0  0
 32 26  1  0  0  0  0
 32 31  1  0  0  0  0
M  CHG  3  14  -1  15  -1  16  -1
M  END
>  <CHROM.1>
-63.41520830,-62.86896885,69.06619128,-98.04807181,177.03217787,-33.11281763
45.37984979,55.68206926,70.21381879,12.79896013,2.34898319,-0.07939856,-0.05444524
2.08916812

>  <Name>
2au4_lig

>  <RI>
0

>  <Rbt.Current_Directory>
/home/itssahil/PROJECTS/Mol_Feturizer/New_Systems/rnas/2au4

>  <Rbt.Executable>
rbdock ($Id: //depot/dev/client3/rdock/2013.1/src/exe/rbdock.cxx#4 $)

>  <Rbt.Library>
libRbt.so (2013.1, Build901 2013/11/27)

>  <Rbt.Parameter_File>
/export/apps/rDock/src/rDock_2013.1_src/data/scripts/dock_solv.prm

>  <Rbt.Receptor>
prm/pocket_docking_8.prm

>  <SCORE>
-40.379

>  <SCORE.INTER>
-14.7617

>  <SCORE.INTER.CONST>
1

>  <SCORE.INTER.POLAR>
-2.52251

>  <SCORE.INTER.ROT>
8

>  <SCORE.INTER.SOLV>
18.439

>  <SCORE.INTER.VDW>
-16.5125

>  <SCORE.INTER.norm>
-0.461304

>  <SCORE.INTRA>
-25.6172

>  <SCORE.INTRA.DIHEDRAL>
-50.4857

>  <SCORE.INTRA.DIHEDRAL.0>
76.3625

>  <SCORE.INTRA.POLAR>
0

>  <SCORE.INTRA.POLAR.0>
0

>  <SCORE.INTRA.REPUL>
0.0525465

>  <SCORE.INTRA.REPUL.0>
0.12705

>  <SCORE.INTRA.SOLV>
-2.58362

>  <SCORE.INTRA.SOLV.lig_0>
-119.383

>  <SCORE.INTRA.VDW>
0.654701

>  <SCORE.INTRA.VDW.0>
-5.10464

>  <SCORE.INTRA.norm>
-0.800539

>  <SCORE.RESTR>
0

>  <SCORE.RESTR.CAVITY>
0

>  <SCORE.RESTR.norm>
0

>  <SCORE.SYSTEM>
0

>  <SCORE.SYSTEM.CONST>
0

>  <SCORE.SYSTEM.DIHEDRAL>
0

>  <SCORE.SYSTEM.SOLV>
0

>  <SCORE.SYSTEM.norm>
0

>  <SCORE.heavy>
32

>  <SCORE.norm>
-1.26184

>  <RMSD>
8.118

$$$$
2au4_lig
 OpenBabel11021811423D
libRbt.so/2013.1/901 2013/11/27
 32 34  0  0  0  0  0  0  0  0999 V2000
   68.7265    7.5688    3.4700 P   0  0  1  0  0  0  0  0  0  0  0  0
   68.9196    6.3244    1.0651 P   0  0  1  0  0  0  0  0  0  0  0  0
   69.6361    4.6516   -0.9669 P   0  0  2  0  0  0  0  0  0  0  0  0
   70.1466    9.8074    3.5181 C   0  0  0  0  0  0  0  0  0  0  0  0
   70.1212    8.3713    3.4666 O   0  0  0  0  0  0  0  0  0  0  0  0
   71.5528   10.3582    3.7046 C   0  0  0  0  0  0  0  0  0  0  0  0
   72.2192   10.4898    2.4323 O   0  0  0  0  0  0  0  0  0  0  0  0
   71.5115   11.7276    4.3648 C   0  0  0  0  0  0  0  0  0  0  0  0
   72.1483   11.6969    5.6479 O   0  0  0  0  0  0  0  0  0  0  0  0
   72.2214   12.6764    3.4289 C   0  0  0  0  0  0  0  0  0  0  0  0
   73.3403   13.3007    4.0728 O   0  0  0  0  0  0  0  0  0  0  0  0
   72.6765   11.8454    2.2416 C   0  0  0  0  0  0  0  0  0  0  0  0
   73.7923   13.4393   -2.4787 N   0  0  0  0  0  0  0  0  0  0  0  0
   68.4223    7.1591    4.8558 O   0  5  0  0  0  0  0  0  0  0  0  0
   67.4806    6.2542    0.7449 O   0  5  0  0  0  0  0  0  0  0  0  0
   70.9363    4.0227   -1.2753 O   0  5  0  0  0  0  0  0  0  0  0  0
   74.6261   12.9392   -1.5069 C   0  0  1  0  0  0  0  0  0  0  0  0
   75.9117   12.8550   -1.8217 N   0  0  0  0  0  0  0  0  0  0  0  0
   67.7353    8.3416    2.6912 O   0  0  0  0  0  0  0  0  0  0  0  0
   69.7368    7.4484    0.5629 O   0  0  0  0  0  0  0  0  0  0  0  0
   69.2159    5.8720   -1.6866 O   0  0  0  0  0  0  0  0  0  0  0  0
   74.2122   12.5523   -0.3028 N   0  0  0  0  0  0  0  0  0  0  0  0
   69.0817    6.2618    2.6418 O   0  0  0  0  0  0  0  0  0  0  0  0
   69.6021    4.9690    0.5935 O   0  0  0  0  0  0  0  0  0  0  0  0
   68.4845    3.5431   -1.1272 O   0  0  0  0  0  0  0  0  0  0  0  0
   72.8774   12.7096   -0.1478 C   0  0  2  0  0  0  0  0  0  0  0  0
   71.9685   13.2028   -1.0701 C   0  0  2  0  0  0  0  0  0  0  0  0
   72.4259   13.6106   -2.3471 C   0  0  1  0  0  0  0  0  0  0  0  0
   71.7781   14.0880   -3.2690 O   0  0  0  0  0  0  0  0  0  0  0  0
   70.6748   13.2134   -0.5378 N   0  0  0  0  0  0  0  0  0  0  0  0
   70.8809   12.7369    0.6465 C   0  0  0  0  0  0  0  0  0  0  0  0
   72.1531   12.4055    0.9804 N   0  0  0  0  0  0  0  0  0  0  0  0
  1  5  1  1  0  0  0
  1 14  1  0  0  0  0
  1 19  2  0  0  0  0
  2 15  1  6  0  0  0
  2 20  2  0  0  0  0
  2 23  1  0  0  0  0
  3 16  1  6  0  0  0
  3 21  2  0  0  0  0
  3 24  1  0  0  0  0
  3 25  1  0  0  0  0
  4  6  1  0  0  0  0
  5  4  1  0  0  0  0
  6  7  1  0  0  0  0
  6  8  2  0  0  0  0
  7 12  1  0  0  0  0
  8  9  1  0  0  0  0
  8 10  1  0  0  0  0
 10 11  1  0  0  0  0
 10 12  2  0  0  0  0
 12 32  1  0  0  0  0
 13 17  1  0  0  0  0
 17 18  1  1  0  0  0
 17 22  1  0  0  0  0
 23  1  1  0  0  0  0
 24  2  1  0  0  0  0
 26 22  1  1  0  0  0
 27 26  1  0  0  0  0
 27 28  1  0  0  0  0
 27 30  1  1  0  0  0
 28 13  1  0  0  0  0
 28 29  1  1  0  0  0
 31 30  1  0  0  0  0
 32 26  1  0  0  0  0
 32 31  1  0  0  0  0
M  CHG  3  14  -1  15  -1  16  -1
M  END
>  <CHROM.1>
-95.89273487,-75.47944029,141.63448711,85.56717771,171.85652643,-111.10898872
-87.81298556,65.41925172,70.81559359,9.36754186,1.03911190,2.86977424,-1.05387618
-1.98613103

>  <Name>
2au4_lig

>  <RI>
0

>  <Rbt.Current_Directory>
/home/itssahil/PROJECTS/Mol_Feturizer/New_Systems/rnas/2au4

>  <Rbt.Executable>
rbdock ($Id: //depot/dev/client3/rdock/2013.1/src/exe/rbdock.cxx#4 $)

>  <Rbt.Library>
libRbt.so (2013.1, Build901 2013/11/27)

>  <Rbt.Parameter_File>
/export/apps/rDock/src/rDock_2013.1_src/data/scripts/dock_solv.prm

>  <Rbt.Receptor>
prm/blind_docking_80.prm

>  <SCORE>
-30.8393

>  <SCORE.INTER>
-29.8595

>  <SCORE.INTER.CONST>
1

>  <SCORE.INTER.POLAR>
-2.5344

>  <SCORE.INTER.ROT>
8

>  <SCORE.INTER.SOLV>
32.7328

>  <SCORE.INTER.VDW>
-31.3026

>  <SCORE.INTER.norm>
-0.933108

>  <SCORE.INTRA>
-1.28267

>  <SCORE.INTRA.DIHEDRAL>
1.01217

>  <SCORE.INTRA.DIHEDRAL.0>
76.3625

>  <SCORE.INTRA.POLAR>
0

>  <SCORE.INTRA.POLAR.0>
0

>  <SCORE.INTRA.REPUL>
-0.106229

>  <SCORE.INTRA.REPUL.0>
0.12705

>  <SCORE.INTRA.SOLV>
-6.03513

>  <SCORE.INTRA.SOLV.lig_0>
-119.383

>  <SCORE.INTRA.VDW>
1.75995

>  <SCORE.INTRA.VDW.0>
-5.10464

>  <SCORE.INTRA.norm>
-0.0400836

>  <SCORE.RESTR>
0.302882

>  <SCORE.RESTR.CAVITY>
0.302882

>  <SCORE.RESTR.norm>
0.00946507

>  <SCORE.SYSTEM>
0

>  <SCORE.SYSTEM.CONST>
0

>  <SCORE.SYSTEM.DIHEDRAL>
0

>  <SCORE.SYSTEM.SOLV>
0

>  <SCORE.SYSTEM.norm>
0

>  <SCORE.heavy>
32

>  <SCORE.norm>
-0.963727

>  <RMSD>
8.154

$$$$
2au4_lig
 OpenBabel11021811423D
libRbt.so/2013.1/901 2013/11/27
 32 34  0  0  0  0  0  0  0  0999 V2000
   65.4767    6.3750   -1.3986 P   0  0  1  0  0  0  0  0  0  0  0  0
   67.3198    5.6849   -3.2684 P   0  0  1  0  0  0  0  0  0  0  0  0
   69.3257    4.4189   -1.9213 P   0  0  2  0  0  0  0  0  0  0  0  0
   65.8193    8.8940   -0.6451 C   0  0  0  0  0  0  0  0  0  0  0  0
   66.1985    7.8090   -1.5081 O   0  0  0  0  0  0  0  0  0  0  0  0
   64.3688    9.3113   -0.8379 C   0  0  0  0  0  0  0  0  0  0  0  0
   64.0917   10.5306   -0.1191 O   0  0  0  0  0  0  0  0  0  0  0  0
   64.0673    9.5467   -2.3097 C   0  0  0  0  0  0  0  0  0  0  0  0
   63.0916    8.6130   -2.7883 O   0  0  0  0  0  0  0  0  0  0  0  0
   63.5621   10.9653   -2.4224 C   0  0  0  0  0  0  0  0  0  0  0  0
   62.2434   11.0039   -2.9842 O   0  0  0  0  0  0  0  0  0  0  0  0
   63.5655   11.5336   -1.0137 C   0  0  0  0  0  0  0  0  0  0  0  0
   66.4204   14.5936    1.9108 N   0  0  0  0  0  0  0  0  0  0  0  0
   65.2003    6.0944    0.0247 O   0  5  0  0  0  0  0  0  0  0  0  0
   66.3852    5.3178   -4.3499 O   0  5  0  0  0  0  0  0  0  0  0  0
   68.5962    3.4073   -1.1303 O   0  5  0  0  0  0  0  0  0  0  0  0
   65.7781   13.4234    2.2391 C   0  0  1  0  0  0  0  0  0  0  0  0
   65.9035   13.0166    3.4952 N   0  0  0  0  0  0  0  0  0  0  0  0
   64.3818    6.3206   -2.3908 O   0  0  0  0  0  0  0  0  0  0  0  0
   67.8855    7.0487   -3.2085 O   0  0  0  0  0  0  0  0  0  0  0  0
   69.6188    5.7441   -1.3366 O   0  0  0  0  0  0  0  0  0  0  0  0
   65.0572   12.7075    1.3798 N   0  0  0  0  0  0  0  0  0  0  0  0
   66.6169    5.3804   -1.8793 O   0  0  0  0  0  0  0  0  0  0  0  0
   68.5262    4.6506   -3.2792 O   0  0  0  0  0  0  0  0  0  0  0  0
   70.7044    3.7695   -2.4294 O   0  0  0  0  0  0  0  0  0  0  0  0
   65.0301   13.2663    0.1479 C   0  0  2  0  0  0  0  0  0  0  0  0
   65.6459   14.4362   -0.2668 C   0  0  2  0  0  0  0  0  0  0  0  0
   66.4093   15.1865    0.6609 C   0  0  1  0  0  0  0  0  0  0  0  0
   66.9968   16.2448    0.4811 O   0  0  0  0  0  0  0  0  0  0  0  0
   65.3830   14.6856   -1.6180 N   0  0  0  0  0  0  0  0  0  0  0  0
   64.6407   13.6726   -1.9260 C   0  0  0  0  0  0  0  0  0  0  0  0
   64.3696   12.7696   -0.9508 N   0  0  0  0  0  0  0  0  0  0  0  0
  1  5  1  6  0  0  0
  1 14  1  0  0  0  0
  1 19  2  0  0  0  0
  2 15  1  6  0  0  0
  2 20  2  0  0  0  0
  2 23  1  0  0  0  0
  3 16  1  1  0  0  0
  3 21  2  0  0  0  0
  3 24  1  0  0  0  0
  3 25  1  0  0  0  0
  4  6  1  0  0  0  0
  5  4  1  0  0  0  0
  6  7  1  0  0  0  0
  6  8  2  0  0  0  0
  7 12  1  0  0  0  0
  8  9  1  0  0  0  0
  8 10  1  0  0  0  0
 10 11  1  0  0  0  0
 10 12  2  0  0  0  0
 12 32  1  0  0  0  0
 13 17  1  0  0  0  0
 17 18  1  1  0  0  0
 17 22  1  0  0  0  0
 23  1  1  0  0  0  0
 24  2  1  0  0  0  0
 26 22  1  1  0  0  0
 27 26  1  0  0  0  0
 27 28  1  0  0  0  0
 27 30  1  1  0  0  0
 28 13  1  0  0  0  0
 28 29  1  1  0  0  0
 31 30  1  0  0  0  0
 32 26  1  0  0  0  0
 32 31  1  0  0  0  0
M  CHG  3  14  -1  15  -1  16  -1
M  END
>  <CHROM.1>
-37.12985251,-74.68804752,84.69069725,-170.71232458,-62.10253138,-32.24490306
-52.30083998,-154.91311471,66.10561014,9.00173864,-1.27015869,1.24914891
0.44218455,-2.71763757

>  <Name>
2au4_lig

>  <RI>
0

>  <Rbt.Current_Directory>
/home/itssahil/PROJECTS/Mol_Feturizer/New_Systems/rnas/2au4

>  <Rbt.Executable>
rbdock ($Id: //depot/dev/client3/rdock/2013.1/src/exe/rbdock.cxx#4 $)

>  <Rbt.Library>
libRbt.so (2013.1, Build901 2013/11/27)

>  <Rbt.Parameter_File>
/export/apps/rDock/src/rDock_2013.1_src/data/scripts/dock_solv.prm

>  <Rbt.Receptor>
prm/pocket_docking_7.prm

>  <SCORE>
-44.1607

>  <SCORE.INTER>
-20.3103

>  <SCORE.INTER.CONST>
1

>  <SCORE.INTER.POLAR>
-0.910685

>  <SCORE.INTER.ROT>
8

>  <SCORE.INTER.SOLV>
34.5177

>  <SCORE.INTER.VDW>
-30.9438

>  <SCORE.INTER.norm>
-0.634698

>  <SCORE.INTRA>
-23.8504

>  <SCORE.INTRA.DIHEDRAL>
-48.3972

>  <SCORE.INTRA.DIHEDRAL.0>
76.3625

>  <SCORE.INTRA.POLAR>
0

>  <SCORE.INTRA.POLAR.0>
0

>  <SCORE.INTRA.REPUL>
0.0561328

>  <SCORE.INTRA.REPUL.0>
0.12705

>  <SCORE.INTRA.SOLV>
-2.11029

>  <SCORE.INTRA.SOLV.lig_0>
-119.383

>  <SCORE.INTRA.VDW>
1.12267

>  <SCORE.INTRA.VDW.0>
-5.10464

>  <SCORE.INTRA.norm>
-0.745325

>  <SCORE.RESTR>
0

>  <SCORE.RESTR.CAVITY>
0

>  <SCORE.RESTR.norm>
0

>  <SCORE.SYSTEM>
0

>  <SCORE.SYSTEM.CONST>
0

>  <SCORE.SYSTEM.DIHEDRAL>
0

>  <SCORE.SYSTEM.SOLV>
0

>  <SCORE.SYSTEM.norm>
0

>  <SCORE.heavy>
32

>  <SCORE.norm>
-1.38002

>  <RMSD>
8.165

$$$$
2au4_lig
 OpenBabel11021811423D
libRbt.so/2013.1/901 2013/11/27
 32 34  0  0  0  0  0  0  0  0999 V2000
   69.3162    8.7249    4.2234 P   0  0  1  0  0  0  0  0  0  0  0  0
   70.7182   10.9054    5.0292 P   0  0  1  0  0  0  0  0  0  0  0  0
   72.7377   12.3547    3.9059 P   0  0  2  0  0  0  0  0  0  0  0  0
   69.0621    9.6359    1.7463 C   0  0  0  0  0  0  0  0  0  0  0  0
   68.6428    9.6835    3.1202 O   0  0  0  0  0  0  0  0  0  0  0  0
   68.4027   10.7142    0.8990 C   0  0  0  0  0  0  0  0  0  0  0  0
   67.1146   11.0694    1.4421 O   0  0  0  0  0  0  0  0  0  0  0  0
   69.2637   11.9669    0.8561 C   0  0  0  0  0  0  0  0  0  0  0  0
   69.7157   12.2323   -0.4774 O   0  0  0  0  0  0  0  0  0  0  0  0
   68.4042   13.0959    1.3727 C   0  0  0  0  0  0  0  0  0  0  0  0
   68.2729   14.1375    0.3960 O   0  0  0  0  0  0  0  0  0  0  0  0
   67.0509   12.4883    1.6991 C   0  0  0  0  0  0  0  0  0  0  0  0
   67.4145   15.7089    5.6439 N   0  0  0  0  0  0  0  0  0  0  0  0
   68.5357    8.8243    5.4731 O   0  5  0  0  0  0  0  0  0  0  0  0
   70.0020   11.7620    4.0641 O   0  5  0  0  0  0  0  0  0  0  0  0
   74.1999   12.5145    4.0392 O   0  5  0  0  0  0  0  0  0  0  0  0
   67.9413   15.8161    4.3788 C   0  0  1  0  0  0  0  0  0  0  0  0
   68.6545   16.9062    4.1294 N   0  0  0  0  0  0  0  0  0  0  0  0
   69.5680    7.4033    3.6100 O   0  0  0  0  0  0  0  0  0  0  0  0
   70.2901   10.8630    6.4429 O   0  0  0  0  0  0  0  0  0  0  0  0
   71.8530   13.5342    4.0055 O   0  0  0  0  0  0  0  0  0  0  0  0
   67.7747   14.9014    3.4268 N   0  0  0  0  0  0  0  0  0  0  0  0
   70.7216    9.4211    4.4695 O   0  0  0  0  0  0  0  0  0  0  0  0
   72.2590   11.2924    4.9918 O   0  0  0  0  0  0  0  0  0  0  0  0
   72.4327   11.6041    2.5188 O   0  0  0  0  0  0  0  0  0  0  0  0
   67.0281   13.8555    3.8501 C   0  0  2  0  0  0  0  0  0  0  0  0
   66.4612   13.6688    5.1005 C   0  0  2  0  0  0  0  0  0  0  0  0
   66.6488   14.6521    6.1026 C   0  0  1  0  0  0  0  0  0  0  0  0
   66.2475   14.6444    7.2587 O   0  0  0  0  0  0  0  0  0  0  0  0
   65.7604   12.4592    5.1541 N   0  0  0  0  0  0  0  0  0  0  0  0
   65.9456   12.0024    3.9587 C   0  0  0  0  0  0  0  0  0  0  0  0
   66.6841   12.7532    3.1039 N   0  0  0  0  0  0  0  0  0  0  0  0
  1  5  1  6  0  0  0
  1 14  1  0  0  0  0
  1 19  2  0  0  0  0
  2 15  1  6  0  0  0
  2 20  2  0  0  0  0
  2 23  1  0  0  0  0
  3 16  1  1  0  0  0
  3 21  2  0  0  0  0
  3 24  1  0  0  0  0
  3 25  1  0  0  0  0
  4  6  1  0  0  0  0
  5  4  1  0  0  0  0
  6  7  1  0  0  0  0
  6  8  2  0  0  0  0
  7 12  1  0  0  0  0
  8  9  1  0  0  0  0
  8 10  1  0  0  0  0
 10 11  1  0  0  0  0
 10 12  2  0  0  0  0
 12 32  1  0  0  0  0
 13 17  1  0  0  0  0
 17 18  1  1  0  0  0
 17 22  1  0  0  0  0
 23  1  1  0  0  0  0
 24  2  1  0  0  0  0
 26 22  1  1  0  0  0
 27 26  1  0  0  0  0
 27 28  1  0  0  0  0
 27 30  1  1  0  0  0
 28 13  1  0  0  0  0
 28 29  1  1  0  0  0
 31 30  1  0  0  0  0
 32 26  1  0  0  0  0
 32 31  1  0  0  0  0
M  CHG  3  14  -1  15  -1  16  -1
M  END
>  <CHROM.1>
-170.28393092,-59.93924390,-178.20528404,-28.06343682,-174.24115107,151.89331015
61.25415140,-5.30207678,69.19175314,12.01913989,3.72874426,0.80334951,0.17985552
-2.84161562

>  <Name>
2au4_lig

>  <RI>
0

>  <Rbt.Current_Directory>
/home/itssahil/PROJECTS/Mol_Feturizer/New_Systems/rnas/2au4

>  <Rbt.Executable>
rbdock ($Id: //depot/dev/client3/rdock/2013.1/src/exe/rbdock.cxx#4 $)

>  <Rbt.Library>
libRbt.so (2013.1, Build901 2013/11/27)

>  <Rbt.Parameter_File>
/export/apps/rDock/src/rDock_2013.1_src/data/scripts/dock_solv.prm

>  <Rbt.Receptor>
prm/pocket_docking_8.prm

>  <SCORE>
-34.7295

>  <SCORE.INTER>
-8.37511

>  <SCORE.INTER.CONST>
1

>  <SCORE.INTER.POLAR>
-2.41781

>  <SCORE.INTER.ROT>
8

>  <SCORE.INTER.SOLV>
20.2395

>  <SCORE.INTER.VDW>
-13.2039

>  <SCORE.INTER.norm>
-0.261722

>  <SCORE.INTRA>
-26.3543

>  <SCORE.INTRA.DIHEDRAL>
-48.3658

>  <SCORE.INTRA.DIHEDRAL.0>
76.3625

>  <SCORE.INTRA.POLAR>
0

>  <SCORE.INTRA.POLAR.0>
0

>  <SCORE.INTRA.REPUL>
-0.12705

>  <SCORE.INTRA.REPUL.0>
0.12705

>  <SCORE.INTRA.SOLV>
-2.90846

>  <SCORE.INTRA.SOLV.lig_0>
-119.383

>  <SCORE.INTRA.VDW>
-0.0819635

>  <SCORE.INTRA.VDW.0>
-5.10464

>  <SCORE.INTRA.norm>
-0.823573

>  <SCORE.RESTR>
0

>  <SCORE.RESTR.CAVITY>
0

>  <SCORE.RESTR.norm>
0

>  <SCORE.SYSTEM>
0

>  <SCORE.SYSTEM.CONST>
0

>  <SCORE.SYSTEM.DIHEDRAL>
0

>  <SCORE.SYSTEM.SOLV>
0

>  <SCORE.SYSTEM.norm>
0

>  <SCORE.heavy>
32

>  <SCORE.norm>
-1.0853

>  <RMSD>
8.179

$$$$
2au4_lig
 OpenBabel11021811423D
libRbt.so/2013.1/901 2013/11/27
 32 34  0  0  0  0  0  0  0  0999 V2000
   71.4475   12.7696    4.4502 P   0  0  1  0  0  0  0  0  0  0  0  0
   72.2074   13.3192    1.9027 P   0  0  1  0  0  0  0  0  0  0  0  0
   73.0332   13.0506   -0.6832 P   0  0  2  0  0  0  0  0  0  0  0  0
   70.9970   10.1625    4.6250 C   0  0  0  0  0  0  0  0  0  0  0  0
   70.4681   11.4969    4.5521 O   0  0  0  0  0  0  0  0  0  0  0  0
   69.9161    9.0999    4.4904 C   0  0  0  0  0  0  0  0  0  0  0  0
   68.9633    9.2059    5.5679 O   0  0  0  0  0  0  0  0  0  0  0  0
   69.1680    9.2565    3.1757 C   0  0  0  0  0  0  0  0  0  0  0  0
   69.3634    8.1121    2.3360 O   0  0  0  0  0  0  0  0  0  0  0  0
   67.7101    9.4276    3.5296 C   0  0  0  0  0  0  0  0  0  0  0  0
   66.9059    8.4047    2.9271 O   0  0  0  0  0  0  0  0  0  0  0  0
   67.6267    9.3574    5.0446 C   0  0  0  0  0  0  0  0  0  0  0  0
   64.1230   12.9964    4.3039 N   0  0  0  0  0  0  0  0  0  0  0  0
   70.6414   13.9576    4.1041 O   0  5  0  0  0  0  0  0  0  0  0  0
   70.7723   13.4519    1.5846 O   0  5  0  0  0  0  0  0  0  0  0  0
   73.5826   12.0058   -1.5707 O   0  5  0  0  0  0  0  0  0  0  0  0
   64.4682   11.9400    3.4948 C   0  0  1  0  0  0  0  0  0  0  0  0
   63.8086   11.8374    2.3487 N   0  0  0  0  0  0  0  0  0  0  0  0
   72.3218   12.7891    5.6424 O   0  0  0  0  0  0  0  0  0  0  0  0
   73.0381   14.5256    2.0979 O   0  0  0  0  0  0  0  0  0  0  0  0
   73.7248   14.3503   -0.5547 O   0  0  0  0  0  0  0  0  0  0  0  0
   65.4070   11.0481    3.8009 N   0  0  0  0  0  0  0  0  0  0  0  0
   72.3482   12.4085    3.1939 O   0  0  0  0  0  0  0  0  0  0  0  0
   72.8877   12.4288    0.7759 O   0  0  0  0  0  0  0  0  0  0  0  0
   71.5073   13.3245   -1.1043 O   0  0  0  0  0  0  0  0  0  0  0  0
   65.9812   11.3034    4.9991 C   0  0  2  0  0  0  0  0  0  0  0  0
   65.6950   12.3395    5.8734 C   0  0  2  0  0  0  0  0  0  0  0  0
   64.6930   13.2805    5.5319 C   0  0  1  0  0  0  0  0  0  0  0  0
   64.3273   14.2632    6.1629 O   0  0  0  0  0  0  0  0  0  0  0  0
   66.5040   12.2677    7.0126 N   0  0  0  0  0  0  0  0  0  0  0  0
   67.2120   11.2160    6.7584 C   0  0  0  0  0  0  0  0  0  0  0  0
   66.9819   10.5681    5.5892 N   0  0  0  0  0  0  0  0  0  0  0  0
  1  5  1  1  0  0  0
  1 14  1  0  0  0  0
  1 19  2  0  0  0  0
  2 15  1  6  0  0  0
  2 20  2  0  0  0  0
  2 23  1  0  0  0  0
  3 16  1  6  0  0  0
  3 21  2  0  0  0  0
  3 24  1  0  0  0  0
  3 25  1  0  0  0  0
  4  6  1  0  0  0  0
  5  4  1  0  0  0  0
  6  7  1  0  0  0  0
  6  8  2  0  0  0  0
  7 12  1  0  0  0  0
  8  9  1  0  0  0  0
  8 10  1  0  0  0  0
 10 11  1  0  0  0  0
 10 12  2  0  0  0  0
 12 32  1  0  0  0  0
 13 17  1  0  0  0  0
 17 18  1  6  0  0  0
 17 22  1  0  0  0  0
 23  1  1  0  0  0  0
 24  2  1  0  0  0  0
 26 22  1  6  0  0  0
 27 26  1  0  0  0  0
 27 28  1  0  0  0  0
 27 30  1  6  0  0  0
 28 13  1  0  0  0  0
 28 29  1  6  0  0  0
 31 30  1  0  0  0  0
 32 26  1  0  0  0  0
 32 31  1  0  0  0  0
M  CHG  3  14  -1  15  -1  16  -1
M  END
>  <CHROM.1>
168.12862078,-49.48673190,-175.29597032,-61.85448244,-170.79360149,153.91061703
113.98091783,69.66859995,69.44589112,11.93578765,3.26868125,-0.43328204,-0.40359462
2.62374173

>  <Name>
2au4_lig

>  <RI>
0

>  <Rbt.Current_Directory>
/home/itssahil/PROJECTS/Mol_Feturizer/New_Systems/rnas/2au4

>  <Rbt.Executable>
rbdock ($Id: //depot/dev/client3/rdock/2013.1/src/exe/rbdock.cxx#4 $)

>  <Rbt.Library>
libRbt.so (2013.1, Build901 2013/11/27)

>  <Rbt.Parameter_File>
/export/apps/rDock/src/rDock_2013.1_src/data/scripts/dock_solv.prm

>  <Rbt.Receptor>
prm/pocket_docking_7.prm

>  <SCORE>
-37.7005

>  <SCORE.INTER>
-12.1651

>  <SCORE.INTER.CONST>
1

>  <SCORE.INTER.POLAR>
-2.13143

>  <SCORE.INTER.ROT>
8

>  <SCORE.INTER.SOLV>
17.6689

>  <SCORE.INTER.VDW>
-15.8283

>  <SCORE.INTER.norm>
-0.38016

>  <SCORE.INTRA>
-25.5354

>  <SCORE.INTRA.DIHEDRAL>
-47.5327

>  <SCORE.INTRA.DIHEDRAL.0>
76.3625

>  <SCORE.INTRA.POLAR>
0

>  <SCORE.INTRA.POLAR.0>
0

>  <SCORE.INTRA.REPUL>
-0.12705

>  <SCORE.INTRA.REPUL.0>
0.12705

>  <SCORE.INTRA.SOLV>
-6.0112

>  <SCORE.INTRA.SOLV.lig_0>
-119.383

>  <SCORE.INTRA.VDW>
1.87183

>  <SCORE.INTRA.VDW.0>
-5.10464

>  <SCORE.INTRA.norm>
-0.79798

>  <SCORE.RESTR>
0

>  <SCORE.RESTR.CAVITY>
0

>  <SCORE.RESTR.norm>
0

>  <SCORE.SYSTEM>
0

>  <SCORE.SYSTEM.CONST>
0

>  <SCORE.SYSTEM.DIHEDRAL>
0

>  <SCORE.SYSTEM.SOLV>
0

>  <SCORE.SYSTEM.norm>
0

>  <SCORE.heavy>
32

>  <SCORE.norm>
-1.17814

>  <RMSD>
8.200

$$$$
2au4_lig
 OpenBabel11021811423D
libRbt.so/2013.1/901 2013/11/27
 32 34  0  0  0  0  0  0  0  0999 V2000
   68.4796    7.4426    2.7720 P   0  0  1  0  0  0  0  0  0  0  0  0
   68.3626    6.5599    0.2075 P   0  0  1  0  0  0  0  0  0  0  0  0
   68.5582    4.9138   -1.9588 P   0  0  2  0  0  0  0  0  0  0  0  0
   69.5057    9.3414    4.3121 C   0  0  0  0  0  0  0  0  0  0  0  0
   69.7202    8.2150    3.4456 O   0  0  0  0  0  0  0  0  0  0  0  0
   70.7025    9.6218    5.2090 C   0  0  0  0  0  0  0  0  0  0  0  0
   71.8067   10.1353    4.4361 O   0  0  0  0  0  0  0  0  0  0  0  0
   70.3485   10.6478    6.2742 C   0  0  0  0  0  0  0  0  0  0  0  0
   70.4344   10.0755    7.5850 O   0  0  0  0  0  0  0  0  0  0  0  0
   71.3266   11.7871    6.1141 C   0  0  0  0  0  0  0  0  0  0  0  0
   72.0775   11.9997    7.3170 O   0  0  0  0  0  0  0  0  0  0  0  0
   72.2440   11.4049    4.9655 C   0  0  0  0  0  0  0  0  0  0  0  0
   72.6212   12.4032   -0.0273 N   0  0  0  0  0  0  0  0  0  0  0  0
   67.9767    6.4356    3.7280 O   0  5  0  0  0  0  0  0  0  0  0  0
   66.9572    6.2429    0.5277 O   0  5  0  0  0  0  0  0  0  0  0  0
   68.6344    3.4461   -2.1041 O   0  5  0  0  0  0  0  0  0  0  0  0
   72.6920   11.1974    0.6291 C   0  0  1  0  0  0  0  0  0  0  0  0
   72.8911   10.1268   -0.1281 N   0  0  0  0  0  0  0  0  0  0  0  0
   67.5564    8.4439    2.1963 O   0  0  0  0  0  0  0  0  0  0  0  0
   68.6866    7.7426   -0.6170 O   0  0  0  0  0  0  0  0  0  0  0  0
   69.2950    5.7887   -2.8947 O   0  0  0  0  0  0  0  0  0  0  0  0
   72.5766   11.0638    1.9480 N   0  0  0  0  0  0  0  0  0  0  0  0
   69.1697    6.6707    1.5686 O   0  0  0  0  0  0  0  0  0  0  0  0
   69.0172    5.2853   -0.4796 O   0  0  0  0  0  0  0  0  0  0  0  0
   67.0110    5.3459   -1.9678 O   0  0  0  0  0  0  0  0  0  0  0  0
   72.3828   12.2520    2.5655 C   0  0  2  0  0  0  0  0  0  0  0  0
   72.2988   13.5067    1.9838 C   0  0  2  0  0  0  0  0  0  0  0  0
   72.4242   13.6312    0.5784 C   0  0  1  0  0  0  0  0  0  0  0  0
   72.4009   14.6501   -0.0988 O   0  0  0  0  0  0  0  0  0  0  0  0
   72.0946   14.4931    2.9546 N   0  0  0  0  0  0  0  0  0  0  0  0
   72.0697   13.7863    4.0371 C   0  0  0  0  0  0  0  0  0  0  0  0
   72.2314   12.4448    3.9183 N   0  0  0  0  0  0  0  0  0  0  0  0
  1  5  1  1  0  0  0
  1 14  1  0  0  0  0
  1 19  2  0  0  0  0
  2 15  1  1  0  0  0
  2 20  2  0  0  0  0
  2 23  1  0  0  0  0
  3 16  1  6  0  0  0
  3 21  2  0  0  0  0
  3 24  1  0  0  0  0
  3 25  1  0  0  0  0
  4  6  1  0  0  0  0
  5  4  1  0  0  0  0
  6  7  1  0  0  0  0
  6  8  2  0  0  0  0
  7 12  1  0  0  0  0
  8  9  1  0  0  0  0
  8 10  1  0  0  0  0
 10 11  1  0  0  0  0
 10 12  2  0  0  0  0
 12 32  1  0  0  0  0
 13 17  1  0  0  0  0
 17 18  1  1  0  0  0
 17 22  1  0  0  0  0
 23  1  1  0  0  0  0
 24  2  1  0  0  0  0
 26 22  1  1  0  0  0
 27 26  1  0  0  0  0
 27 28  1  0  0  0  0
 27 30  1  1  0  0  0
 28 13  1  0  0  0  0
 28 29  1  1  0  0  0
 31 30  1  0  0  0  0
 32 26  1  0  0  0  0
 32 31  1  0  0  0  0
M  CHG  3  14  -1  15  -1  16  -1
M  END
>  <CHROM.1>
-85.03288585,-42.63527270,-148.50980705,70.21230681,160.03025806,-27.40055273
-142.34361392,71.17156819,70.17179283,9.13639532,1.89919870,2.42585727,-1.00232787
-1.76680489

>  <Name>
2au4_lig

>  <RI>
0

>  <Rbt.Current_Directory>
/home/itssahil/PROJECTS/Mol_Feturizer/New_Systems/rnas/2au4

>  <Rbt.Executable>
rbdock ($Id: //depot/dev/client3/rdock/2013.1/src/exe/rbdock.cxx#4 $)

>  <Rbt.Library>
libRbt.so (2013.1, Build901 2013/11/27)

>  <Rbt.Parameter_File>
/export/apps/rDock/src/rDock_2013.1_src/data/scripts/dock_solv.prm

>  <Rbt.Receptor>
prm/blind_docking_80.prm

>  <SCORE>
-35.7092

>  <SCORE.INTER>
-12.8826

>  <SCORE.INTER.CONST>
1

>  <SCORE.INTER.POLAR>
-1.65996

>  <SCORE.INTER.ROT>
8

>  <SCORE.INTER.SOLV>
39.3809

>  <SCORE.INTER.VDW>
-25.1155

>  <SCORE.INTER.norm>
-0.402581

>  <SCORE.INTRA>
-23.222

>  <SCORE.INTRA.DIHEDRAL>
-45.1777

>  <SCORE.INTRA.DIHEDRAL.0>
76.3625

>  <SCORE.INTRA.POLAR>
0

>  <SCORE.INTRA.POLAR.0>
0

>  <SCORE.INTRA.REPUL>
0.0754108

>  <SCORE.INTRA.REPUL.0>
0.12705

>  <SCORE.INTRA.SOLV>
-6.43087

>  <SCORE.INTRA.SOLV.lig_0>
-119.383

>  <SCORE.INTRA.VDW>
2.20523

>  <SCORE.INTRA.VDW.0>
-5.10464

>  <SCORE.INTRA.norm>
-0.725687

>  <SCORE.RESTR>
0.395349

>  <SCORE.RESTR.CAVITY>
0.395349

>  <SCORE.RESTR.norm>
0.0123546

>  <SCORE.SYSTEM>
0

>  <SCORE.SYSTEM.CONST>
0

>  <SCORE.SYSTEM.DIHEDRAL>
0

>  <SCORE.SYSTEM.SOLV>
0

>  <SCORE.SYSTEM.norm>
0

>  <SCORE.heavy>
32

>  <SCORE.norm>
-1.11591

>  <RMSD>
8.225

$$$$
2au4_lig
 OpenBabel11021811423D
libRbt.so/2013.1/901 2013/11/27
 32 34  0  0  0  0  0  0  0  0999 V2000
   68.1693    7.6123    3.3903 P   0  0  1  0  0  0  0  0  0  0  0  0
   69.1065    6.2521    1.2361 P   0  0  1  0  0  0  0  0  0  0  0  0
   69.3392    4.8602   -1.0983 P   0  0  2  0  0  0  0  0  0  0  0  0
   66.9235    9.9354    3.1034 C   0  0  0  0  0  0  0  0  0  0  0  0
   66.8648    8.5500    3.4818 O   0  0  0  0  0  0  0  0  0  0  0  0
   65.6255   10.4230    2.4768 C   0  0  0  0  0  0  0  0  0  0  0  0
   65.4048   11.8147    2.7846 O   0  0  0  0  0  0  0  0  0  0  0  0
   65.6671   10.2702    0.9643 C   0  0  0  0  0  0  0  0  0  0  0  0
   64.6731    9.3407    0.5160 O   0  0  0  0  0  0  0  0  0  0  0  0
   65.4245   11.6446    0.3876 C   0  0  0  0  0  0  0  0  0  0  0  0
   64.2687   11.6551   -0.4609 O   0  0  0  0  0  0  0  0  0  0  0  0
   65.2339   12.5774    1.5711 C   0  0  0  0  0  0  0  0  0  0  0  0
   67.9480   15.9806    4.2392 N   0  0  0  0  0  0  0  0  0  0  0  0
   69.3403    8.4622    3.0948 O   0  5  0  0  0  0  0  0  0  0  0  0
   69.8112    7.4480    0.7347 O   0  5  0  0  0  0  0  0  0  0  0  0
   70.6769    4.6629   -0.5043 O   0  5  0  0  0  0  0  0  0  0  0  0
   67.0854   15.0086    4.6872 C   0  0  1  0  0  0  0  0  0  0  0  0
   66.9179   14.9312    6.0006 N   0  0  0  0  0  0  0  0  0  0  0  0
   68.1852    6.7101    4.5616 O   0  0  0  0  0  0  0  0  0  0  0  0
   69.8406    5.2285    2.0086 O   0  0  0  0  0  0  0  0  0  0  0  0
   69.1923    5.6341   -2.3487 O   0  0  0  0  0  0  0  0  0  0  0  0
   66.4305   14.1723    3.8855 N   0  0  0  0  0  0  0  0  0  0  0  0
   67.8684    6.7321    2.1039 O   0  0  0  0  0  0  0  0  0  0  0  0
   68.4067    5.5326    0.0041 O   0  0  0  0  0  0  0  0  0  0  0  0
   68.6581    3.4203   -1.3068 O   0  0  0  0  0  0  0  0  0  0  0  0
   66.7124   14.3917    2.5805 C   0  0  2  0  0  0  0  0  0  0  0  0
   67.5648   15.3438    2.0451 C   0  0  2  0  0  0  0  0  0  0  0  0
   68.2539   16.2264    2.9126 C   0  0  1  0  0  0  0  0  0  0  0  0
   69.0193   17.1352    2.6200 O   0  0  0  0  0  0  0  0  0  0  0  0
   67.5918   15.2594    0.6489 N   0  0  0  0  0  0  0  0  0  0  0  0
   66.7710   14.2833    0.4352 C   0  0  0  0  0  0  0  0  0  0  0  0
   66.1931   13.6976    1.5135 N   0  0  0  0  0  0  0  0  0  0  0  0
  1  5  1  1  0  0  0
  1 14  1  0  0  0  0
  1 19  2  0  0  0  0
  2 15  1  6  0  0  0
  2 20  2  0  0  0  0
  2 23  1  0  0  0  0
  3 16  1  1  0  0  0
  3 21  2  0  0  0  0
  3 24  1  0  0  0  0
  3 25  1  0  0  0  0
  4  6  1  0  0  0  0
  5  4  1  0  0  0  0
  6  7  1  0  0  0  0
  6  8  2  0  0  0  0
  7 12  1  0  0  0  0
  8  9  1  0  0  0  0
  8 10  1  0  0  0  0
 10 11  1  0  0  0  0
 10 12  2  0  0  0  0
 12 32  1  0  0  0  0
 13 17  1  0  0  0  0
 17 18  1  6  0  0  0
 17 22  1  0  0  0  0
 23  1  1  0  0  0  0
 24  2  1  0  0  0  0
 26 22  1  6  0  0  0
 27 26  1  0  0  0  0
 27 28  1  0  0  0  0
 27 30  1  6  0  0  0
 28 13  1  0  0  0  0
 28 29  1  6  0  0  0
 31 30  1  0  0  0  0
 32 26  1  0  0  0  0
 32 31  1  0  0  0  0
M  CHG  3  14  -1  15  -1  16  -1
M  END
>  <CHROM.1>
8.87017539,-60.87383105,18.77253193,147.94591444,146.15574323,-30.63158262
148.80457528,67.54473498,67.67269558,9.87566658,1.72327163,-1.01924322,-1.16135272
0.77724644

>  <Name>
2au4_lig

>  <RI>
0

>  <Rbt.Current_Directory>
/home/itssahil/PROJECTS/Mol_Feturizer/New_Systems/rnas/2au4

>  <Rbt.Executable>
rbdock ($Id: //depot/dev/client3/rdock/2013.1/src/exe/rbdock.cxx#4 $)

>  <Rbt.Library>
libRbt.so (2013.1, Build901 2013/11/27)

>  <Rbt.Parameter_File>
/export/apps/rDock/src/rDock_2013.1_src/data/scripts/dock_solv.prm

>  <Rbt.Receptor>
prm/pocket_docking_8.prm

>  <SCORE>
-45.3926

>  <SCORE.INTER>
-25.0685

>  <SCORE.INTER.CONST>
1

>  <SCORE.INTER.POLAR>
-3.07895

>  <SCORE.INTER.ROT>
8

>  <SCORE.INTER.SOLV>
30.2574

>  <SCORE.INTER.VDW>
-25.4683

>  <SCORE.INTER.norm>
-0.783391

>  <SCORE.INTRA>
-20.3539

>  <SCORE.INTRA.DIHEDRAL>
-41.4938

>  <SCORE.INTRA.DIHEDRAL.0>
76.3625

>  <SCORE.INTRA.POLAR>
0

>  <SCORE.INTRA.POLAR.0>
0

>  <SCORE.INTRA.REPUL>
0.0619357

>  <SCORE.INTRA.REPUL.0>
0.12705

>  <SCORE.INTRA.SOLV>
-4.73048

>  <SCORE.INTRA.SOLV.lig_0>
-119.383

>  <SCORE.INTRA.VDW>
2.44858

>  <SCORE.INTRA.VDW.0>
-5.10464

>  <SCORE.INTRA.norm>
-0.63606

>  <SCORE.RESTR>
0.0298519

>  <SCORE.RESTR.CAVITY>
0.0298519

>  <SCORE.RESTR.norm>
0.000932872

>  <SCORE.SYSTEM>
0

>  <SCORE.SYSTEM.CONST>
0

>  <SCORE.SYSTEM.DIHEDRAL>
0

>  <SCORE.SYSTEM.SOLV>
0

>  <SCORE.SYSTEM.norm>
0

>  <SCORE.heavy>
32

>  <SCORE.norm>
-1.41852

>  <RMSD>
8.243

$$$$
2au4_lig
 OpenBabel11021811423D
libRbt.so/2013.1/901 2013/11/27
 32 34  0  0  0  0  0  0  0  0999 V2000
   69.9869   15.3309    4.1865 P   0  0  1  0  0  0  0  0  0  0  0  0
   71.5670   13.8462    2.5529 P   0  0  1  0  0  0  0  0  0  0  0  0
   73.1405   13.0152    0.4855 P   0  0  2  0  0  0  0  0  0  0  0  0
   68.1326   14.0450    5.5788 C   0  0  0  0  0  0  0  0  0  0  0  0
   68.9722   14.1028    4.4137 O   0  0  0  0  0  0  0  0  0  0  0  0
   68.4039   12.8138    6.4309 C   0  0  0  0  0  0  0  0  0  0  0  0
   67.4308   11.7844    6.1595 O   0  0  0  0  0  0  0  0  0  0  0  0
   69.7864   12.2514    6.1398 C   0  0  0  0  0  0  0  0  0  0  0  0
   70.6257   12.3302    7.2984 O   0  0  0  0  0  0  0  0  0  0  0  0
   69.5847   10.8173    5.7121 C   0  0  0  0  0  0  0  0  0  0  0  0
   70.2910    9.9143    6.5735 O   0  0  0  0  0  0  0  0  0  0  0  0
   68.0889   10.5601    5.7705 C   0  0  0  0  0  0  0  0  0  0  0  0
   64.1653   10.4776    2.5047 N   0  0  0  0  0  0  0  0  0  0  0  0
   69.2065   16.5837    4.1378 O   0  5  0  0  0  0  0  0  0  0  0  0
   72.7594   14.1293    3.3751 O   0  5  0  0  0  0  0  0  0  0  0  0
   72.5238   11.7580    0.0160 O   0  5  0  0  0  0  0  0  0  0  0  0
   64.2623   11.0794    3.7368 C   0  0  1  0  0  0  0  0  0  0  0  0
   63.1887   11.7351    4.1569 N   0  0  0  0  0  0  0  0  0  0  0  0
   71.1123   15.1952    5.1358 O   0  0  0  0  0  0  0  0  0  0  0  0
   70.8246   12.5815    2.7342 O   0  0  0  0  0  0  0  0  0  0  0  0
   74.2044   12.9790    1.5106 O   0  0  0  0  0  0  0  0  0  0  0  0
   65.3500   11.0304    4.5017 N   0  0  0  0  0  0  0  0  0  0  0  0
   70.5459   15.0475    2.7279 O   0  0  0  0  0  0  0  0  0  0  0  0
   71.9777   13.9620    1.0222 O   0  0  0  0  0  0  0  0  0  0  0  0
   73.6903   13.8197   -0.7916 O   0  0  0  0  0  0  0  0  0  0  0  0
   66.3466   10.3195    3.9256 C   0  0  2  0  0  0  0  0  0  0  0  0
   66.3334    9.6842    2.6944 C   0  0  2  0  0  0  0  0  0  0  0  0
   65.1672    9.7458    1.8928 C   0  0  1  0  0  0  0  0  0  0  0  0
   64.9680    9.2303    0.8010 O   0  0  0  0  0  0  0  0  0  0  0  0
   67.5558    9.0500    2.4480 N   0  0  0  0  0  0  0  0  0  0  0  0
   68.2144    9.3361    3.5233 C   0  0  0  0  0  0  0  0  0  0  0  0
   67.5890   10.0850    4.4655 N   0  0  0  0  0  0  0  0  0  0  0  0
  1  5  1  1  0  0  0
  1 14  1  0  0  0  0
  1 19  2  0  0  0  0
  2 15  1  1  0  0  0
  2 20  2  0  0  0  0
  2 23  1  0  0  0  0
  3 16  1  6  0  0  0
  3 21  2  0  0  0  0
  3 24  1  0  0  0  0
  3 25  1  0  0  0  0
  4  6  1  0  0  0  0
  5  4  1  0  0  0  0
  6  7  1  0  0  0  0
  6  8  2  0  0  0  0
  7 12  1  0  0  0  0
  8  9  1  0  0  0  0
  8 10  1  0  0  0  0
 10 11  1  0  0  0  0
 10 12  2  0  0  0  0
 12 32  1  0  0  0  0
 13 17  1  0  0  0  0
 17 18  1  1  0  0  0
 17 22  1  0  0  0  0
 23  1  1  0  0  0  0
 24  2  1  0  0  0  0
 26 22  1  1  0  0  0
 27 26  1  0  0  0  0
 27 28  1  0  0  0  0
 27 30  1  1  0  0  0
 28 13  1  0  0  0  0
 28 29  1  1  0  0  0
 31 30  1  0  0  0  0
 32 26  1  0  0  0  0
 32 31  1  0  0  0  0
M  CHG  3  14  -1  15  -1  16  -1
M  END
>  <CHROM.1>
-59.59576501,-61.09879908,89.41271060,-99.02900839,-119.28056308,-27.41590295
-72.77174627,58.67804553,69.31555880,12.40956275,3.44547235,-0.01646787,0.52800372
1.08641504

>  <Name>
2au4_lig

>  <RI>
0

>  <Rbt.Current_Directory>
/home/itssahil/PROJECTS/Mol_Feturizer/New_Systems/rnas/2au4

>  <Rbt.Executable>
rbdock ($Id: //depot/dev/client3/rdock/2013.1/src/exe/rbdock.cxx#4 $)

>  <Rbt.Library>
libRbt.so (2013.1, Build901 2013/11/27)

>  <Rbt.Parameter_File>
/export/apps/rDock/src/rDock_2013.1_src/data/scripts/dock_solv.prm

>  <Rbt.Receptor>
prm/pocket_docking_7.prm

>  <SCORE>
-40.699

>  <SCORE.INTER>
-19.4808

>  <SCORE.INTER.CONST>
1

>  <SCORE.INTER.POLAR>
-3.48211

>  <SCORE.INTER.ROT>
8

>  <SCORE.INTER.SOLV>
19.0835

>  <SCORE.INTER.VDW>
-16.6747

>  <SCORE.INTER.norm>
-0.608775

>  <SCORE.INTRA>
-21.2182

>  <SCORE.INTRA.DIHEDRAL>
-42.736

>  <SCORE.INTRA.DIHEDRAL.0>
76.3625

>  <SCORE.INTRA.POLAR>
0

>  <SCORE.INTRA.POLAR.0>
0

>  <SCORE.INTRA.REPUL>
0.0696768

>  <SCORE.INTRA.REPUL.0>
0.12705

>  <SCORE.INTRA.SOLV>
-2.31014

>  <SCORE.INTRA.SOLV.lig_0>
-119.383

>  <SCORE.INTRA.VDW>
0.956449

>  <SCORE.INTRA.VDW.0>
-5.10464

>  <SCORE.INTRA.norm>
-0.66307

>  <SCORE.RESTR>
0

>  <SCORE.RESTR.CAVITY>
0

>  <SCORE.RESTR.norm>
0

>  <SCORE.SYSTEM>
0

>  <SCORE.SYSTEM.CONST>
0

>  <SCORE.SYSTEM.DIHEDRAL>
0

>  <SCORE.SYSTEM.SOLV>
0

>  <SCORE.SYSTEM.norm>
0

>  <SCORE.heavy>
32

>  <SCORE.norm>
-1.27184

>  <RMSD>
8.254

$$$$
2au4_lig
 OpenBabel11021811423D
libRbt.so/2013.1/901 2013/11/27
 32 34  0  0  0  0  0  0  0  0999 V2000
   70.4618   11.4684    6.8792 P   0  0  1  0  0  0  0  0  0  0  0  0
   71.1974   14.0701    6.6356 P   0  0  1  0  0  0  0  0  0  0  0  0
   69.5856   15.8245    5.3070 P   0  0  2  0  0  0  0  0  0  0  0  0
   69.9935   10.3780    4.5081 C   0  0  0  0  0  0  0  0  0  0  0  0
   69.6819   10.4483    5.9094 O   0  0  0  0  0  0  0  0  0  0  0  0
   69.2993    9.2146    3.8153 C   0  0  0  0  0  0  0  0  0  0  0  0
   68.0014    8.9781    4.3983 O   0  0  0  0  0  0  0  0  0  0  0  0
   69.1107    9.5047    2.3345 C   0  0  0  0  0  0  0  0  0  0  0  0
   69.8533    8.5783    1.5325 O   0  0  0  0  0  0  0  0  0  0  0  0
   67.6298    9.3941    2.0609 C   0  0  0  0  0  0  0  0  0  0  0  0
   67.3584    8.3968    1.0670 O   0  0  0  0  0  0  0  0  0  0  0  0
   66.9767    9.0302    3.3831 C   0  0  0  0  0  0  0  0  0  0  0  0
   63.3959   12.2298    1.6491 N   0  0  0  0  0  0  0  0  0  0  0  0
   69.6911   11.6105    8.1309 O   0  5  0  0  0  0  0  0  0  0  0  0
   70.5327   14.5745    7.8530 O   0  5  0  0  0  0  0  0  0  0  0  0
   69.4321   16.8530    6.3558 O   0  5  0  0  0  0  0  0  0  0  0  0
   64.2465   11.4092    0.9471 C   0  0  1  0  0  0  0  0  0  0  0  0
   64.1386   11.4432   -0.3744 N   0  0  0  0  0  0  0  0  0  0  0  0
   71.8872   11.0781    6.9269 O   0  0  0  0  0  0  0  0  0  0  0  0
   72.6210   13.6763    6.6773 O   0  0  0  0  0  0  0  0  0  0  0  0
   68.5886   14.7408    5.1827 O   0  0  0  0  0  0  0  0  0  0  0  0
   65.1457   10.6115    1.5180 N   0  0  0  0  0  0  0  0  0  0  0  0
   70.3606   12.8397    6.0859 O   0  0  0  0  0  0  0  0  0  0  0  0
   71.0182   15.1516    5.4852 O   0  0  0  0  0  0  0  0  0  0  0  0
   69.7162   16.5627    3.8862 O   0  0  0  0  0  0  0  0  0  0  0  0
   65.1248   10.7039    2.8677 C   0  0  2  0  0  0  0  0  0  0  0  0
   64.3049   11.5002    3.6510 C   0  0  2  0  0  0  0  0  0  0  0  0
   63.3534   12.3438    3.0271 C   0  0  1  0  0  0  0  0  0  0  0  0
   62.5712   13.1249    3.5521 O   0  0  0  0  0  0  0  0  0  0  0  0
   64.5848   11.3185    5.0096 N   0  0  0  0  0  0  0  0  0  0  0  0
   65.5357   10.4437    4.9608 C   0  0  0  0  0  0  0  0  0  0  0  0
   65.9330   10.0114    3.7380 N   0  0  0  0  0  0  0  0  0  0  0  0
  1  5  1  6  0  0  0
  1 14  1  0  0  0  0
  1 19  2  0  0  0  0
  2 15  1  1  0  0  0
  2 20  2  0  0  0  0
  2 23  1  0  0  0  0
  3 16  1  1  0  0  0
  3 21  2  0  0  0  0
  3 24  1  0  0  0  0
  3 25  1  0  0  0  0
  4  6  1  0  0  0  0
  5  4  1  0  0  0  0
  6  7  1  0  0  0  0
  6  8  2  0  0  0  0
  7 12  1  0  0  0  0
  8  9  1  0  0  0  0
  8 10  1  0  0  0  0
 10 11  1  0  0  0  0
 10 12  2  0  0  0  0
 12 32  1  0  0  0  0
 13 17  1  0  0  0  0
 17 18  1  6  0  0  0
 17 22  1  0  0  0  0
 23  1  1  0  0  0  0
 24  2  1  0  0  0  0
 26 22  1  6  0  0  0
 27 26  1  0  0  0  0
 27 28  1  0  0  0  0
 27 30  1  6  0  0  0
 28 13  1  0  0  0  0
 28 29  1  6  0  0  0
 31 30  1  0  0  0  0
 32 26  1  0  0  0  0
 32 31  1  0  0  0  0
M  CHG  3  14  -1  15  -1  16  -1
M  END
>  <CHROM.1>
163.67101421,-73.89537605,78.08810143,34.15420105,171.35088186,153.04872947
-171.72333604,-43.82610640,68.21118277,12.07945509,4.50760324,-0.60098256
0.49525822,-2.84091275

>  <Name>
2au4_lig

>  <RI>
0

>  <Rbt.Current_Directory>
/home/itssahil/PROJECTS/Mol_Feturizer/New_Systems/rnas/2au4

>  <Rbt.Executable>
rbdock ($Id: //depot/dev/client3/rdock/2013.1/src/exe/rbdock.cxx#4 $)

>  <Rbt.Library>
libRbt.so (2013.1, Build901 2013/11/27)

>  <Rbt.Parameter_File>
/export/apps/rDock/src/rDock_2013.1_src/data/scripts/dock_solv.prm

>  <Rbt.Receptor>
prm/pocket_docking_8.prm

>  <SCORE>
-44.8002

>  <SCORE.INTER>
-18.1284

>  <SCORE.INTER.CONST>
1

>  <SCORE.INTER.POLAR>
-3.68047

>  <SCORE.INTER.ROT>
8

>  <SCORE.INTER.SOLV>
11.2082

>  <SCORE.INTER.VDW>
-12.4868

>  <SCORE.INTER.norm>
-0.566513

>  <SCORE.INTRA>
-26.6718

>  <SCORE.INTRA.DIHEDRAL>
-49.8151

>  <SCORE.INTRA.DIHEDRAL.0>
76.3625

>  <SCORE.INTRA.POLAR>
0

>  <SCORE.INTRA.POLAR.0>
0

>  <SCORE.INTRA.REPUL>
-0.12705

>  <SCORE.INTRA.REPUL.0>
0.12705

>  <SCORE.INTRA.SOLV>
-4.81267

>  <SCORE.INTRA.SOLV.lig_0>
-119.383

>  <SCORE.INTRA.VDW>
1.27729

>  <SCORE.INTRA.VDW.0>
-5.10464

>  <SCORE.INTRA.norm>
-0.833494

>  <SCORE.RESTR>
0

>  <SCORE.RESTR.CAVITY>
0

>  <SCORE.RESTR.norm>
0

>  <SCORE.SYSTEM>
0

>  <SCORE.SYSTEM.CONST>
0

>  <SCORE.SYSTEM.DIHEDRAL>
0

>  <SCORE.SYSTEM.SOLV>
0

>  <SCORE.SYSTEM.norm>
0

>  <SCORE.heavy>
32

>  <SCORE.norm>
-1.40001

>  <RMSD>
8.254

$$$$
2au4_lig
 OpenBabel11021811423D
libRbt.so/2013.1/901 2013/11/27
 32 34  0  0  0  0  0  0  0  0999 V2000
   69.5089   14.4551    3.2503 P   0  0  1  0  0  0  0  0  0  0  0  0
   71.7751   13.4554    2.1393 P   0  0  1  0  0  0  0  0  0  0  0  0
   73.5971   11.5945    1.3281 P   0  0  2  0  0  0  0  0  0  0  0  0
   69.8415   14.6566    5.8732 C   0  0  0  0  0  0  0  0  0  0  0  0
   68.9492   14.4920    4.7586 O   0  0  0  0  0  0  0  0  0  0  0  0
   70.0263   13.3707    6.6655 C   0  0  0  0  0  0  0  0  0  0  0  0
   68.7498   12.7637    6.9526 O   0  0  0  0  0  0  0  0  0  0  0  0
   70.8638   12.3716    5.8827 C   0  0  0  0  0  0  0  0  0  0  0  0
   72.0967   12.0960    6.5588 O   0  0  0  0  0  0  0  0  0  0  0  0
   70.0268   11.1219    5.7490 C   0  0  0  0  0  0  0  0  0  0  0  0
   70.6889    9.9891    6.3274 O   0  0  0  0  0  0  0  0  0  0  0  0
   68.7176   11.4055    6.4650 C   0  0  0  0  0  0  0  0  0  0  0  0
   66.9267    8.9002    2.3929 N   0  0  0  0  0  0  0  0  0  0  0  0
   68.5322   13.7419    2.4029 O   0  5  0  0  0  0  0  0  0  0  0  0
   70.9626   13.5261    0.9093 O   0  5  0  0  0  0  0  0  0  0  0  0
   73.2825   12.0327   -0.0467 O   0  5  0  0  0  0  0  0  0  0  0  0
   68.1603    8.8191    2.9940 C   0  0  1  0  0  0  0  0  0  0  0  0
   69.0260    7.9757    2.4479 N   0  0  0  0  0  0  0  0  0  0  0  0
   69.9581   15.8143    2.8802 O   0  0  0  0  0  0  0  0  0  0  0  0
   72.8785   14.4143    2.3550 O   0  0  0  0  0  0  0  0  0  0  0  0
   73.9356   10.1807    1.5942 O   0  0  0  0  0  0  0  0  0  0  0  0
   68.5120    9.5300    4.0625 N   0  0  0  0  0  0  0  0  0  0  0  0
   70.7979   13.5384    3.3861 O   0  0  0  0  0  0  0  0  0  0  0  0
   72.3676   11.9860    2.2618 O   0  0  0  0  0  0  0  0  0  0  0  0
   74.7815   12.5183    1.8977 O   0  0  0  0  0  0  0  0  0  0  0  0
   67.5150   10.3406    4.4860 C   0  0  2  0  0  0  0  0  0  0  0  0
   66.2486   10.4832    3.9422 C   0  0  2  0  0  0  0  0  0  0  0  0
   65.8906    9.7193    2.8044 C   0  0  1  0  0  0  0  0  0  0  0  0
   64.8372    9.7321    2.1818 O   0  0  0  0  0  0  0  0  0  0  0  0
   65.5008   11.4221    4.6608 N   0  0  0  0  0  0  0  0  0  0  0  0
   66.3454   11.7792    5.5724 C   0  0  0  0  0  0  0  0  0  0  0  0
   67.5710   11.1980    5.5592 N   0  0  0  0  0  0  0  0  0  0  0  0
  1  5  1  1  0  0  0
  1 14  1  0  0  0  0
  1 19  2  0  0  0  0
  2 15  1  6  0  0  0
  2 20  2  0  0  0  0
  2 23  1  0  0  0  0
  3 16  1  6  0  0  0
  3 21  2  0  0  0  0
  3 24  1  0  0  0  0
  3 25  1  0  0  0  0
  4  6  1  0  0  0  0
  5  4  1  0  0  0  0
  6  7  1  0  0  0  0
  6  8  2  0  0  0  0
  7 12  1  0  0  0  0
  8  9  1  0  0  0  0
  8 10  1  0  0  0  0
 10 11  1  0  0  0  0
 10 12  2  0  0  0  0
 12 32  1  0  0  0  0
 13 17  1  0  0  0  0
 17 18  1  6  0  0  0
 17 22  1  0  0  0  0
 23  1  1  0  0  0  0
 24  2  1  0  0  0  0
 26 22  1  6  0  0  0
 27 26  1  0  0  0  0
 27 28  1  0  0  0  0
 27 30  1  6  0  0  0
 28 13  1  0  0  0  0
 28 29  1  6  0  0  0
 31 30  1  0  0  0  0
 32 26  1  0  0  0  0
 32 31  1  0  0  0  0
M  CHG  3  14  -1  15  -1  16  -1
M  END
>  <CHROM.1>
156.75065272,-34.79932438,-47.20748844,-48.07926120,-106.86630901,148.45520834
-170.01910012,76.24905733,69.93241544,12.04079087,3.55216130,0.01505937,0.49920894
0.68383420

>  <Name>
2au4_lig

>  <RI>
0

>  <Rbt.Current_Directory>
/home/itssahil/PROJECTS/Mol_Feturizer/New_Systems/rnas/2au4

>  <Rbt.Executable>
rbdock ($Id: //depot/dev/client3/rdock/2013.1/src/exe/rbdock.cxx#4 $)

>  <Rbt.Library>
libRbt.so (2013.1, Build901 2013/11/27)

>  <Rbt.Parameter_File>
/export/apps/rDock/src/rDock_2013.1_src/data/scripts/dock_solv.prm

>  <Rbt.Receptor>
prm/pocket_docking_8.prm

>  <SCORE>
-43.2285

>  <SCORE.INTER>
-19.5008

>  <SCORE.INTER.CONST>
1

>  <SCORE.INTER.POLAR>
-4.23653

>  <SCORE.INTER.ROT>
8

>  <SCORE.INTER.SOLV>
22.7135

>  <SCORE.INTER.VDW>
-15.3833

>  <SCORE.INTER.norm>
-0.6094

>  <SCORE.INTRA>
-23.7277

>  <SCORE.INTRA.DIHEDRAL>
-42.4302

>  <SCORE.INTRA.DIHEDRAL.0>
76.3625

>  <SCORE.INTRA.POLAR>
0

>  <SCORE.INTRA.POLAR.0>
0

>  <SCORE.INTRA.REPUL>
-0.12705

>  <SCORE.INTRA.REPUL.0>
0.12705

>  <SCORE.INTRA.SOLV>
-3.48814

>  <SCORE.INTRA.SOLV.lig_0>
-119.383

>  <SCORE.INTRA.VDW>
-0.133285

>  <SCORE.INTRA.VDW.0>
-5.10464

>  <SCORE.INTRA.norm>
-0.741491

>  <SCORE.RESTR>
0

>  <SCORE.RESTR.CAVITY>
0

>  <SCORE.RESTR.norm>
0

>  <SCORE.SYSTEM>
0

>  <SCORE.SYSTEM.CONST>
0

>  <SCORE.SYSTEM.DIHEDRAL>
0

>  <SCORE.SYSTEM.SOLV>
0

>  <SCORE.SYSTEM.norm>
0

>  <SCORE.heavy>
32

>  <SCORE.norm>
-1.35089

>  <RMSD>
8.297

$$$$
2au4_lig
 OpenBabel11021811423D
libRbt.so/2013.1/901 2013/11/27
 32 34  0  0  0  0  0  0  0  0999 V2000
   69.3527    8.7243    4.4994 P   0  0  1  0  0  0  0  0  0  0  0  0
   68.2982    6.7615    2.9487 P   0  0  1  0  0  0  0  0  0  0  0  0
   69.4271    5.9703    0.5949 P   0  0  2  0  0  0  0  0  0  0  0  0
   71.6947    9.8377    3.9461 C   0  0  0  0  0  0  0  0  0  0  0  0
   70.2856    9.9962    4.1809 O   0  0  0  0  0  0  0  0  0  0  0  0
   72.4788   11.1103    4.2309 C   0  0  0  0  0  0  0  0  0  0  0  0
   73.0883   11.6117    3.0237 O   0  0  0  0  0  0  0  0  0  0  0  0
   71.5664   12.1915    4.7886 C   0  0  0  0  0  0  0  0  0  0  0  0
   71.9425   12.5388    6.1268 O   0  0  0  0  0  0  0  0  0  0  0  0
   71.6930   13.3785    3.8638 C   0  0  0  0  0  0  0  0  0  0  0  0
   72.1491   14.5404    4.5696 O   0  0  0  0  0  0  0  0  0  0  0  0
   72.6854   12.9772    2.7862 C   0  0  0  0  0  0  0  0  0  0  0  0
   73.5184   12.9868   -2.2509 N   0  0  0  0  0  0  0  0  0  0  0  0
   70.0551    7.8552    5.4648 O   0  5  0  0  0  0  0  0  0  0  0  0
   68.0241    6.2136    4.2914 O   0  5  0  0  0  0  0  0  0  0  0  0
   68.1467    5.8296   -0.1277 O   0  5  0  0  0  0  0  0  0  0  0  0
   74.4080   12.7991   -1.2199 C   0  0  1  0  0  0  0  0  0  0  0  0
   75.6721   12.5934   -1.5645 N   0  0  0  0  0  0  0  0  0  0  0  0
   67.9850    9.2037    4.7924 O   0  0  0  0  0  0  0  0  0  0  0  0
   67.1827    7.2050    2.0871 O   0  0  0  0  0  0  0  0  0  0  0  0
   70.5966    5.1622    0.1911 O   0  0  0  0  0  0  0  0  0  0  0  0
   74.0666   12.8181    0.0661 N   0  0  0  0  0  0  0  0  0  0  0  0
   69.3138    7.9703    3.1029 O   0  0  0  0  0  0  0  0  0  0  0  0
   69.1524    5.6937    2.1392 O   0  0  0  0  0  0  0  0  0  0  0  0
   69.8497    7.5201    0.5833 O   0  0  0  0  0  0  0  0  0  0  0  0
   72.7439   13.0443    0.2389 C   0  0  2  0  0  0  0  0  0  0  0  0
   71.7823   13.2425   -0.7387 C   0  0  2  0  0  0  0  0  0  0  0  0
   72.1628   13.2196   -2.1028 C   0  0  1  0  0  0  0  0  0  0  0  0
   71.4617   13.3975   -3.0899 O   0  0  0  0  0  0  0  0  0  0  0  0
   70.5230   13.4467   -0.1645 N   0  0  0  0  0  0  0  0  0  0  0  0
   70.7990   13.3614    1.0959 C   0  0  0  0  0  0  0  0  0  0  0  0
   72.0882   13.1245    1.4446 N   0  0  0  0  0  0  0  0  0  0  0  0
  1  5  1  6  0  0  0
  1 14  1  0  0  0  0
  1 19  2  0  0  0  0
  2 15  1  1  0  0  0
  2 20  2  0  0  0  0
  2 23  1  0  0  0  0
  3 16  1  6  0  0  0
  3 21  2  0  0  0  0
  3 24  1  0  0  0  0
  3 25  1  0  0  0  0
  4  6  1  0  0  0  0
  5  4  1  0  0  0  0
  6  7  1  0  0  0  0
  6  8  2  0  0  0  0
  7 12  1  0  0  0  0
  8  9  1  0  0  0  0
  8 10  1  0  0  0  0
 10 11  1  0  0  0  0
 10 12  2  0  0  0  0
 12 32  1  0  0  0  0
 13 17  1  0  0  0  0
 17 18  1  1  0  0  0
 17 22  1  0  0  0  0
 23  1  1  0  0  0  0
 24  2  1  0  0  0  0
 26 22  1  1  0  0  0
 27 26  1  0  0  0  0
 27 28  1  0  0  0  0
 27 30  1  1  0  0  0
 28 13  1  0  0  0  0
 28 29  1  1  0  0  0
 31 30  1  0  0  0  0
 32 26  1  0  0  0  0
 32 31  1  0  0  0  0
M  CHG  3  14  -1  15  -1  16  -1
M  END
>  <CHROM.1>
43.68048757,-24.71500083,-69.24379797,-115.92319393,-156.36634247,-69.86039289
-170.83400304,172.60059592,70.77673951,10.04255592,1.98216116,-3.11323430
-1.03989410,-1.89974056

>  <Name>
2au4_lig

>  <RI>
0

>  <Rbt.Current_Directory>
/home/itssahil/PROJECTS/Mol_Feturizer/New_Systems/rnas/2au4

>  <Rbt.Executable>
rbdock ($Id: //depot/dev/client3/rdock/2013.1/src/exe/rbdock.cxx#4 $)

>  <Rbt.Library>
libRbt.so (2013.1, Build901 2013/11/27)

>  <Rbt.Parameter_File>
/export/apps/rDock/src/rDock_2013.1_src/data/scripts/dock_solv.prm

>  <Rbt.Receptor>
prm/blind_docking_80.prm

>  <SCORE>
-36.8829

>  <SCORE.INTER>
-22.0841

>  <SCORE.INTER.CONST>
1

>  <SCORE.INTER.POLAR>
-1.91906

>  <SCORE.INTER.ROT>
8

>  <SCORE.INTER.SOLV>
38.5615

>  <SCORE.INTER.VDW>
-30.113

>  <SCORE.INTER.norm>
-0.690127

>  <SCORE.INTRA>
-14.7988

>  <SCORE.INTRA.DIHEDRAL>
-26.0511

>  <SCORE.INTRA.DIHEDRAL.0>
76.3625

>  <SCORE.INTRA.POLAR>
0

>  <SCORE.INTRA.POLAR.0>
0

>  <SCORE.INTRA.REPUL>
-0.126121

>  <SCORE.INTRA.REPUL.0>
0.12705

>  <SCORE.INTRA.SOLV>
-7.25575

>  <SCORE.INTRA.SOLV.lig_0>
-119.383

>  <SCORE.INTRA.VDW>
2.48521

>  <SCORE.INTRA.VDW.0>
-5.10464

>  <SCORE.INTRA.norm>
-0.462464

>  <SCORE.RESTR>
0

>  <SCORE.RESTR.CAVITY>
0

>  <SCORE.RESTR.norm>
0

>  <SCORE.SYSTEM>
0

>  <SCORE.SYSTEM.CONST>
0

>  <SCORE.SYSTEM.DIHEDRAL>
0

>  <SCORE.SYSTEM.SOLV>
0

>  <SCORE.SYSTEM.norm>
0

>  <SCORE.heavy>
32

>  <SCORE.norm>
-1.15259

>  <RMSD>
8.309

$$$$
2au4_lig
 OpenBabel11021811423D
libRbt.so/2013.1/901 2013/11/27
 32 34  0  0  0  0  0  0  0  0999 V2000
   71.8240   11.0789    4.4924 P   0  0  1  0  0  0  0  0  0  0  0  0
   69.9293    9.2396    5.1219 P   0  0  1  0  0  0  0  0  0  0  0  0
   68.7895    7.3670    3.4986 P   0  0  2  0  0  0  0  0  0  0  0  0
   73.3969   11.1298    2.3584 C   0  0  0  0  0  0  0  0  0  0  0  0
   73.2645   10.9814    3.7818 O   0  0  0  0  0  0  0  0  0  0  0  0
   72.9327   12.4941    1.8699 C   0  0  0  0  0  0  0  0  0  0  0  0
   74.0443   13.2524    1.3506 O   0  0  0  0  0  0  0  0  0  0  0  0
   71.8984   12.3471    0.7648 C   0  0  0  0  0  0  0  0  0  0  0  0
   70.6335   12.8822    1.1728 O   0  0  0  0  0  0  0  0  0  0  0  0
   72.4415   13.0901   -0.4324 C   0  0  0  0  0  0  0  0  0  0  0  0
   71.5457   14.1296   -0.8486 O   0  0  0  0  0  0  0  0  0  0  0  0
   73.7792   13.6693   -0.0056 C   0  0  0  0  0  0  0  0  0  0  0  0
   75.0386   12.3871   -4.7843 N   0  0  0  0  0  0  0  0  0  0  0  0
   72.0250   11.3718    5.9258 O   0  5  0  0  0  0  0  0  0  0  0  0
   70.1708    9.3323    6.5749 O   0  5  0  0  0  0  0  0  0  0  0  0
   67.4752    8.0044    3.7169 O   0  5  0  0  0  0  0  0  0  0  0  0
   73.8228   12.7816   -4.2786 C   0  0  1  0  0  0  0  0  0  0  0  0
   72.8177   12.8394   -5.1420 N   0  0  0  0  0  0  0  0  0  0  0  0
   70.9516   11.9477    3.6737 O   0  0  0  0  0  0  0  0  0  0  0  0
   68.8397   10.0204    4.5002 O   0  0  0  0  0  0  0  0  0  0  0  0
   68.8744    5.9114    3.2580 O   0  0  0  0  0  0  0  0  0  0  0  0
   73.6177   13.0940   -3.0014 N   0  0  0  0  0  0  0  0  0  0  0  0
   71.2808    9.5923    4.3699 O   0  0  0  0  0  0  0  0  0  0  0  0
   69.7152    7.7099    4.7486 O   0  0  0  0  0  0  0  0  0  0  0  0
   69.5291    8.1273    2.2921 O   0  0  0  0  0  0  0  0  0  0  0  0
   74.7440   12.9770   -2.2610 C   0  0  2  0  0  0  0  0  0  0  0  0
   76.0036   12.5886   -2.6881 C   0  0  2  0  0  0  0  0  0  0  0  0
   76.2045   12.2591   -4.0509 C   0  0  1  0  0  0  0  0  0  0  0  0
   77.2309   11.8763   -4.5963 O   0  0  0  0  0  0  0  0  0  0  0  0
   76.9121   12.5884   -1.6242 N   0  0  0  0  0  0  0  0  0  0  0  0
   76.1591   12.9677   -0.6439 C   0  0  0  0  0  0  0  0  0  0  0  0
   74.8547   13.2245   -0.9131 N   0  0  0  0  0  0  0  0  0  0  0  0
  1  5  1  6  0  0  0
  1 14  1  0  0  0  0
  1 19  2  0  0  0  0
  2 15  1  1  0  0  0
  2 20  2  0  0  0  0
  2 23  1  0  0  0  0
  3 16  1  1  0  0  0
  3 21  2  0  0  0  0
  3 24  1  0  0  0  0
  3 25  1  0  0  0  0
  4  6  1  0  0  0  0
  5  4  1  0  0  0  0
  6  7  1  0  0  0  0
  6  8  2  0  0  0  0
  7 12  1  0  0  0  0
  8  9  1  0  0  0  0
  8 10  1  0  0  0  0
 10 11  1  0  0  0  0
 10 12  2  0  0  0  0
 12 32  1  0  0  0  0
 13 17  1  0  0  0  0
 17 18  1  1  0  0  0
 17 22  1  0  0  0  0
 23  1  1  0  0  0  0
 24  2  1  0  0  0  0
 26 22  1  1  0  0  0
 27 26  1  0  0  0  0
 27 28  1  0  0  0  0
 27 30  1  1  0  0  0
 28 13  1  0  0  0  0
 28 29  1  1  0  0  0
 31 30  1  0  0  0  0
 32 26  1  0  0  0  0
 32 31  1  0  0  0  0
M  CHG  3  14  -1  15  -1  16  -1
M  END
>  <CHROM.1>
-160.06777937,-66.47318751,-55.54194179,113.67432925,61.19476074,153.59917031
172.83770875,151.10737631,72.19146559,11.05487629,1.37018668,-2.40810976
-0.77106235,-1.73394138

>  <Name>
2au4_lig

>  <RI>
0

>  <Rbt.Current_Directory>
/home/itssahil/PROJECTS/Mol_Feturizer/New_Systems/rnas/2au4

>  <Rbt.Executable>
rbdock ($Id: //depot/dev/client3/rdock/2013.1/src/exe/rbdock.cxx#4 $)

>  <Rbt.Library>
libRbt.so (2013.1, Build901 2013/11/27)

>  <Rbt.Parameter_File>
/export/apps/rDock/src/rDock_2013.1_src/data/scripts/dock_solv.prm

>  <Rbt.Receptor>
prm/blind_docking_80.prm

>  <SCORE>
-44.3374

>  <SCORE.INTER>
-19.737

>  <SCORE.INTER.CONST>
1

>  <SCORE.INTER.POLAR>
-2.19678

>  <SCORE.INTER.ROT>
8

>  <SCORE.INTER.SOLV>
27.8796

>  <SCORE.INTER.VDW>
-24.0619

>  <SCORE.INTER.norm>
-0.61678

>  <SCORE.INTRA>
-24.9379

>  <SCORE.INTRA.DIHEDRAL>
-48.7468

>  <SCORE.INTRA.DIHEDRAL.0>
76.3625

>  <SCORE.INTRA.POLAR>
0

>  <SCORE.INTRA.POLAR.0>
0

>  <SCORE.INTRA.REPUL>
-0.12705

>  <SCORE.INTRA.REPUL.0>
0.12705

>  <SCORE.INTRA.SOLV>
-3.66152

>  <SCORE.INTRA.SOLV.lig_0>
-119.383

>  <SCORE.INTRA.VDW>
1.90149

>  <SCORE.INTRA.VDW.0>
-5.10464

>  <SCORE.INTRA.norm>
-0.77931

>  <SCORE.RESTR>
0.337473

>  <SCORE.RESTR.CAVITY>
0.337473

>  <SCORE.RESTR.norm>
0.010546

>  <SCORE.SYSTEM>
0

>  <SCORE.SYSTEM.CONST>
0

>  <SCORE.SYSTEM.DIHEDRAL>
0

>  <SCORE.SYSTEM.SOLV>
0

>  <SCORE.SYSTEM.norm>
0

>  <SCORE.heavy>
32

>  <SCORE.norm>
-1.38554

>  <RMSD>
8.345

$$$$
2au4_lig
 OpenBabel11021811423D
libRbt.so/2013.1/901 2013/11/27
 32 34  0  0  0  0  0  0  0  0999 V2000
   64.6357   10.5674    1.1384 P   0  0  1  0  0  0  0  0  0  0  0  0
   66.5909   11.3113   -0.5917 P   0  0  1  0  0  0  0  0  0  0  0  0
   68.0989    9.2998   -1.6502 P   0  0  2  0  0  0  0  0  0  0  0  0
   65.3364   10.8447    3.6806 C   0  0  0  0  0  0  0  0  0  0  0  0
   64.3177   10.9400    2.6712 O   0  0  0  0  0  0  0  0  0  0  0  0
   64.8072   11.1571    5.0727 C   0  0  0  0  0  0  0  0  0  0  0  0
   65.8024   10.8577    6.0728 O   0  0  0  0  0  0  0  0  0  0  0  0
   64.4397   12.6279    5.1915 C   0  0  0  0  0  0  0  0  0  0  0  0
   63.0351   12.7875    5.4248 O   0  0  0  0  0  0  0  0  0  0  0  0
   65.2473   13.1802    6.3417 C   0  0  0  0  0  0  0  0  0  0  0  0
   64.3964   13.7241    7.3597 O   0  0  0  0  0  0  0  0  0  0  0  0
   66.0659   12.0217    6.8846 C   0  0  0  0  0  0  0  0  0  0  0  0
   70.8192   10.2686    6.2523 N   0  0  0  0  0  0  0  0  0  0  0  0
   65.1110    9.1704    1.0823 O   0  5  0  0  0  0  0  0  0  0  0  0
   65.5564   11.1795   -1.6360 O   0  5  0  0  0  0  0  0  0  0  0  0
   68.5421   10.4269   -2.4954 O   0  5  0  0  0  0  0  0  0  0  0  0
   69.6231    9.5961    6.1697 C   0  0  1  0  0  0  0  0  0  0  0  0
   69.6947    8.3016    5.8901 N   0  0  0  0  0  0  0  0  0  0  0  0
   63.4944   10.9962    0.3019 O   0  0  0  0  0  0  0  0  0  0  0  0
   67.6437   12.3405   -0.7169 O   0  0  0  0  0  0  0  0  0  0  0  0
   67.2821    8.2149   -2.2332 O   0  0  0  0  0  0  0  0  0  0  0  0
   68.4366   10.1690    6.3558 N   0  0  0  0  0  0  0  0  0  0  0  0
   65.8651   11.5146    0.8041 O   0  0  0  0  0  0  0  0  0  0  0  0
   67.2993    9.9004   -0.4106 O   0  0  0  0  0  0  0  0  0  0  0  0
   69.3914    8.6472   -0.9543 O   0  0  0  0  0  0  0  0  0  0  0  0
   68.5459   11.4881    6.6361 C   0  0  2  0  0  0  0  0  0  0  0  0
   69.7048   12.2406    6.7376 C   0  0  2  0  0  0  0  0  0  0  0  0
   70.9597   11.6150    6.5370 C   0  0  1  0  0  0  0  0  0  0  0  0
   72.0759   12.1111    6.6104 O   0  0  0  0  0  0  0  0  0  0  0  0
   69.4082   13.5731    7.0439 N   0  0  0  0  0  0  0  0  0  0  0  0
   68.1172   13.5403    7.1071 C   0  0  0  0  0  0  0  0  0  0  0  0
   67.5045   12.3515    6.8813 N   0  0  0  0  0  0  0  0  0  0  0  0
  1  5  1  1  0  0  0
  1 14  1  0  0  0  0
  1 19  2  0  0  0  0
  2 15  1  6  0  0  0
  2 20  2  0  0  0  0
  2 23  1  0  0  0  0
  3 16  1  6  0  0  0
  3 21  2  0  0  0  0
  3 24  1  0  0  0  0
  3 25  1  0  0  0  0
  4  6  1  0  0  0  0
  5  4  1  0  0  0  0
  6  7  1  0  0  0  0
  6  8  2  0  0  0  0
  7 12  1  0  0  0  0
  8  9  1  0  0  0  0
  8 10  1  0  0  0  0
 10 11  1  0  0  0  0
 10 12  2  0  0  0  0
 12 32  1  0  0  0  0
 13 17  1  0  0  0  0
 17 18  1  1  0  0  0
 17 22  1  0  0  0  0
 23  1  1  0  0  0  0
 24  2  1  0  0  0  0
 26 22  1  1  0  0  0
 27 26  1  0  0  0  0
 27 28  1  0  0  0  0
 27 30  1  1  0  0  0
 28 13  1  0  0  0  0
 28 29  1  1  0  0  0
 31 30  1  0  0  0  0
 32 26  1  0  0  0  0
 32 31  1  0  0  0  0
M  CHG  3  14  -1  15  -1  16  -1
M  END
>  <CHROM.1>
58.25636818,45.28012501,26.13086696,171.43136434,-176.41756708,-24.31521434
172.69686576,63.03862192,67.02584509,11.04937181,2.99549827,1.73419895,0.24625203
-1.84620699

>  <Name>
2au4_lig

>  <RI>
0

>  <Rbt.Current_Directory>
/home/itssahil/PROJECTS/Mol_Feturizer/New_Systems/rnas/2au4

>  <Rbt.Executable>
rbdock ($Id: //depot/dev/client3/rdock/2013.1/src/exe/rbdock.cxx#4 $)

>  <Rbt.Library>
libRbt.so (2013.1, Build901 2013/11/27)

>  <Rbt.Parameter_File>
/export/apps/rDock/src/rDock_2013.1_src/data/scripts/dock_solv.prm

>  <Rbt.Receptor>
prm/pocket_docking_7.prm

>  <SCORE>
-28.8317

>  <SCORE.INTER>
-4.1162

>  <SCORE.INTER.CONST>
1

>  <SCORE.INTER.POLAR>
-1.55105

>  <SCORE.INTER.ROT>
8

>  <SCORE.INTER.SOLV>
23.8676

>  <SCORE.INTER.VDW>
-14.4632

>  <SCORE.INTER.norm>
-0.128631

>  <SCORE.INTRA>
-24.7155

>  <SCORE.INTRA.DIHEDRAL>
-48.4495

>  <SCORE.INTRA.DIHEDRAL.0>
76.3625

>  <SCORE.INTRA.POLAR>
0

>  <SCORE.INTRA.POLAR.0>
0

>  <SCORE.INTRA.REPUL>
0.0715596

>  <SCORE.INTRA.REPUL.0>
0.12705

>  <SCORE.INTRA.SOLV>
-4.71003

>  <SCORE.INTRA.SOLV.lig_0>
-119.383

>  <SCORE.INTRA.VDW>
1.5065

>  <SCORE.INTRA.VDW.0>
-5.10464

>  <SCORE.INTRA.norm>
-0.772358

>  <SCORE.RESTR>
0

>  <SCORE.RESTR.CAVITY>
0

>  <SCORE.RESTR.norm>
0

>  <SCORE.SYSTEM>
0

>  <SCORE.SYSTEM.CONST>
0

>  <SCORE.SYSTEM.DIHEDRAL>
0

>  <SCORE.SYSTEM.SOLV>
0

>  <SCORE.SYSTEM.norm>
0

>  <SCORE.heavy>
32

>  <SCORE.norm>
-0.900989

>  <RMSD>
8.354

$$$$
2au4_lig
 OpenBabel11021811423D
libRbt.so/2013.1/901 2013/11/27
 32 34  0  0  0  0  0  0  0  0999 V2000
   69.9097   14.2299    5.1111 P   0  0  1  0  0  0  0  0  0  0  0  0
   72.0787   12.8484    4.2414 P   0  0  1  0  0  0  0  0  0  0  0  0
   72.5441   12.2479    1.6216 P   0  0  2  0  0  0  0  0  0  0  0  0
   68.0785   14.6399    3.2378 C   0  0  0  0  0  0  0  0  0  0  0  0
   68.3846   14.3327    4.6081 O   0  0  0  0  0  0  0  0  0  0  0  0
   68.2353   13.4347    2.3223 C   0  0  0  0  0  0  0  0  0  0  0  0
   67.7967   12.2321    2.9869 O   0  0  0  0  0  0  0  0  0  0  0  0
   67.4093   13.6084    1.0573 C   0  0  0  0  0  0  0  0  0  0  0  0
   68.2517   13.6695   -0.1000 O   0  0  0  0  0  0  0  0  0  0  0  0
   66.4767   12.4227    0.9879 C   0  0  0  0  0  0  0  0  0  0  0  0
   66.6756   11.6756   -0.2198 O   0  0  0  0  0  0  0  0  0  0  0  0
   66.7794   11.5687    2.2070 C   0  0  0  0  0  0  0  0  0  0  0  0
   61.6783   11.3559    2.1972 N   0  0  0  0  0  0  0  0  0  0  0  0
   70.5464   15.5534    4.9577 O   0  5  0  0  0  0  0  0  0  0  0  0
   72.9134   14.0203    3.9132 O   0  5  0  0  0  0  0  0  0  0  0  0
   72.5882   11.0591    0.7462 O   0  5  0  0  0  0  0  0  0  0  0  0
   62.5428   11.6094    1.1590 C   0  0  1  0  0  0  0  0  0  0  0  0
   61.9893   11.8385   -0.0243 N   0  0  0  0  0  0  0  0  0  0  0  0
   69.9294   13.5454    6.4216 O   0  0  0  0  0  0  0  0  0  0  0  0
   72.2119   12.1883    5.5567 O   0  0  0  0  0  0  0  0  0  0  0  0
   73.6799   13.1931    1.6425 O   0  0  0  0  0  0  0  0  0  0  0  0
   63.8670   11.6371    1.2874 N   0  0  0  0  0  0  0  0  0  0  0  0
   70.5571   13.2504    4.0425 O   0  0  0  0  0  0  0  0  0  0  0  0
   72.2960   11.7498    3.1139 O   0  0  0  0  0  0  0  0  0  0  0  0
   71.2028   13.0697    1.2957 O   0  0  0  0  0  0  0  0  0  0  0  0
   64.2612   11.3880    2.5575 C   0  0  2  0  0  0  0  0  0  0  0  0
   63.4614   11.1239    3.6576 C   0  0  2  0  0  0  0  0  0  0  0  0
   62.0536   11.0985    3.5036 C   0  0  1  0  0  0  0  0  0  0  0  0
   61.1994   10.9085    4.3589 O   0  0  0  0  0  0  0  0  0  0  0  0
   64.2400   10.9189    4.8017 N   0  0  0  0  0  0  0  0  0  0  0  0
   65.4343   11.0698    4.3295 C   0  0  0  0  0  0  0  0  0  0  0  0
   65.5594   11.3510    3.0085 N   0  0  0  0  0  0  0  0  0  0  0  0
  1  5  1  6  0  0  0
  1 14  1  0  0  0  0
  1 19  2  0  0  0  0
  2 15  1  6  0  0  0
  2 20  2  0  0  0  0
  2 23  1  0  0  0  0
  3 16  1  6  0  0  0
  3 21  2  0  0  0  0
  3 24  1  0  0  0  0
  3 25  1  0  0  0  0
  4  6  1  0  0  0  0
  5  4  1  0  0  0  0
  6  7  1  0  0  0  0
  6  8  2  0  0  0  0
  7 12  1  0  0  0  0
  8  9  1  0  0  0  0
  8 10  1  0  0  0  0
 10 11  1  0  0  0  0
 10 12  2  0  0  0  0
 12 32  1  0  0  0  0
 13 17  1  0  0  0  0
 17 18  1  1  0  0  0
 17 22  1  0  0  0  0
 23  1  1  0  0  0  0
 24  2  1  0  0  0  0
 26 22  1  1  0  0  0
 27 26  1  0  0  0  0
 27 28  1  0  0  0  0
 27 30  1  1  0  0  0
 28 13  1  0  0  0  0
 28 29  1  1  0  0  0
 31 30  1  0  0  0  0
 32 26  1  0  0  0  0
 32 31  1  0  0  0  0
M  CHG  3  14  -1  15  -1  16  -1
M  END
>  <CHROM.1>
63.52799078,-72.38284155,-174.71161153,37.37723987,78.61172555,145.50822883
-177.49977528,-34.30818467,68.19439539,12.55486052,2.94622877,0.13279061
0.16014177,1.36008241

>  <Name>
2au4_lig

>  <RI>
0

>  <Rbt.Current_Directory>
/home/itssahil/PROJECTS/Mol_Feturizer/New_Systems/rnas/2au4

>  <Rbt.Executable>
rbdock ($Id: //depot/dev/client3/rdock/2013.1/src/exe/rbdock.cxx#4 $)

>  <Rbt.Library>
libRbt.so (2013.1, Build901 2013/11/27)

>  <Rbt.Parameter_File>
/export/apps/rDock/src/rDock_2013.1_src/data/scripts/dock_solv.prm

>  <Rbt.Receptor>
prm/pocket_docking_6.prm

>  <SCORE>
-38.4757

>  <SCORE.INTER>
-11.5898

>  <SCORE.INTER.CONST>
1

>  <SCORE.INTER.POLAR>
-2.92613

>  <SCORE.INTER.ROT>
8

>  <SCORE.INTER.SOLV>
16.598

>  <SCORE.INTER.VDW>
-12.4388

>  <SCORE.INTER.norm>
-0.362182

>  <SCORE.INTRA>
-26.8858

>  <SCORE.INTRA.DIHEDRAL>
-48.3193

>  <SCORE.INTRA.DIHEDRAL.0>
76.3625

>  <SCORE.INTRA.POLAR>
0

>  <SCORE.INTRA.POLAR.0>
0

>  <SCORE.INTRA.REPUL>
-0.12705

>  <SCORE.INTRA.REPUL.0>
0.12705

>  <SCORE.INTRA.SOLV>
-5.61961

>  <SCORE.INTRA.SOLV.lig_0>
-119.383

>  <SCORE.INTRA.VDW>
0.718851

>  <SCORE.INTRA.VDW.0>
-5.10464

>  <SCORE.INTRA.norm>
-0.840183

>  <SCORE.RESTR>
0

>  <SCORE.RESTR.CAVITY>
0

>  <SCORE.RESTR.norm>
0

>  <SCORE.SYSTEM>
0

>  <SCORE.SYSTEM.CONST>
0

>  <SCORE.SYSTEM.DIHEDRAL>
0

>  <SCORE.SYSTEM.SOLV>
0

>  <SCORE.SYSTEM.norm>
0

>  <SCORE.heavy>
32

>  <SCORE.norm>
-1.20236

>  <RMSD>
8.369

$$$$
2au4_lig
 OpenBabel11021811423D
libRbt.so/2013.1/901 2013/11/27
 32 34  0  0  0  0  0  0  0  0999 V2000
   69.0217    9.5713    1.2118 P   0  0  1  0  0  0  0  0  0  0  0  0
   68.2494    9.4303   -1.3869 P   0  0  1  0  0  0  0  0  0  0  0  0
   68.0938    7.0536   -2.7165 P   0  0  2  0  0  0  0  0  0  0  0  0
   71.0001   11.2403    0.6362 C   0  0  0  0  0  0  0  0  0  0  0  0
   69.6387   11.0493    1.0555 O   0  0  0  0  0  0  0  0  0  0  0  0
   71.5367   12.6143    1.0097 C   0  0  0  0  0  0  0  0  0  0  0  0
   70.4736   13.4595    1.4952 O   0  0  0  0  0  0  0  0  0  0  0  0
   72.5917   12.5024    2.0991 C   0  0  0  0  0  0  0  0  0  0  0  0
   73.8681   12.9469    1.6235 O   0  0  0  0  0  0  0  0  0  0  0  0
   72.1133   13.3567    3.2488 C   0  0  0  0  0  0  0  0  0  0  0  0
   73.0647   14.3818    3.5651 O   0  0  0  0  0  0  0  0  0  0  0  0
   70.7919   13.9634    2.8097 C   0  0  0  0  0  0  0  0  0  0  0  0
   69.6656   12.5646    7.5890 N   0  0  0  0  0  0  0  0  0  0  0  0
   69.8621    8.8077    2.1560 O   0  5  0  0  0  0  0  0  0  0  0  0
   66.8754    9.0505   -1.0048 O   0  5  0  0  0  0  0  0  0  0  0  0
   68.1474    6.4469   -1.3710 O   0  5  0  0  0  0  0  0  0  0  0  0
   70.8929   12.7891    7.0120 C   0  0  1  0  0  0  0  0  0  0  0  0
   71.9503   12.6183    7.7942 N   0  0  0  0  0  0  0  0  0  0  0  0
   67.5662    9.6894    1.4436 O   0  0  0  0  0  0  0  0  0  0  0  0
   68.5662   10.8360   -1.7141 O   0  0  0  0  0  0  0  0  0  0  0  0
   68.7433    6.3774   -3.8588 O   0  0  0  0  0  0  0  0  0  0  0  0
   71.0595   13.1548    5.7434 N   0  0  0  0  0  0  0  0  0  0  0  0
   69.2340    8.9570   -0.2366 O   0  0  0  0  0  0  0  0  0  0  0  0
   68.6934    8.5257   -2.6156 O   0  0  0  0  0  0  0  0  0  0  0  0
   66.5552    7.3236   -3.0914 O   0  0  0  0  0  0  0  0  0  0  0  0
   69.8814   13.2785    5.0898 C   0  0  2  0  0  0  0  0  0  0  0  0
   68.6067   13.0729    5.5923 C   0  0  2  0  0  0  0  0  0  0  0  0
   68.4472   12.6834    6.9448 C   0  0  1  0  0  0  0  0  0  0  0  0
   67.4108   12.4364    7.5468 O   0  0  0  0  0  0  0  0  0  0  0  0
   67.6402   13.2989    4.6065 N   0  0  0  0  0  0  0  0  0  0  0  0
   68.3772   13.6188    3.5934 C   0  0  0  0  0  0  0  0  0  0  0  0
   69.7216   13.6374    3.7723 N   0  0  0  0  0  0  0  0  0  0  0  0
  1  5  1  6  0  0  0
  1 14  1  0  0  0  0
  1 19  2  0  0  0  0
  2 15  1  1  0  0  0
  2 20  2  0  0  0  0
  2 23  1  0  0  0  0
  3 16  1  1  0  0  0
  3 21  2  0  0  0  0
  3 24  1  0  0  0  0
  3 25  1  0  0  0  0
  4  6  1  0  0  0  0
  5  4  1  0  0  0  0
  6  7  1  0  0  0  0
  6  8  2  0  0  0  0
  7 12  1  0  0  0  0
  8  9  1  0  0  0  0
  8 10  1  0  0  0  0
 10 11  1  0  0  0  0
 10 12  2  0  0  0  0
 12 32  1  0  0  0  0
 13 17  1  0  0  0  0
 17 18  1  6  0  0  0
 17 22  1  0  0  0  0
 23  1  1  0  0  0  0
 24  2  1  0  0  0  0
 26 22  1  6  0  0  0
 27 26  1  0  0  0  0
 27 28  1  0  0  0  0
 27 30  1  6  0  0  0
 28 13  1  0  0  0  0
 28 29  1  6  0  0  0
 31 30  1  0  0  0  0
 32 26  1  0  0  0  0
 32 31  1  0  0  0  0
M  CHG  3  14  -1  15  -1  16  -1
M  END
>  <CHROM.1>
56.61418074,-61.13958289,-43.87366845,-9.49040520,-159.85519000,142.48749400
-76.21081372,-30.86976541,69.46346136,10.90819777,1.73512628,1.84697886,-0.56067816
-2.02502993

>  <Name>
2au4_lig

>  <RI>
0

>  <Rbt.Current_Directory>
/home/itssahil/PROJECTS/Mol_Feturizer/New_Systems/rnas/2au4

>  <Rbt.Executable>
rbdock ($Id: //depot/dev/client3/rdock/2013.1/src/exe/rbdock.cxx#4 $)

>  <Rbt.Library>
libRbt.so (2013.1, Build901 2013/11/27)

>  <Rbt.Parameter_File>
/export/apps/rDock/src/rDock_2013.1_src/data/scripts/dock_solv.prm

>  <Rbt.Receptor>
prm/pocket_docking_7.prm

>  <SCORE>
-43.4739

>  <SCORE.INTER>
-18.0944

>  <SCORE.INTER.CONST>
1

>  <SCORE.INTER.POLAR>
-3.18614

>  <SCORE.INTER.ROT>
8

>  <SCORE.INTER.SOLV>
17.3307

>  <SCORE.INTER.VDW>
-16.1527

>  <SCORE.INTER.norm>
-0.565449

>  <SCORE.INTRA>
-25.3952

>  <SCORE.INTRA.DIHEDRAL>
-47.2398

>  <SCORE.INTRA.DIHEDRAL.0>
76.3625

>  <SCORE.INTRA.POLAR>
0

>  <SCORE.INTRA.POLAR.0>
0

>  <SCORE.INTRA.REPUL>
-0.12705

>  <SCORE.INTRA.REPUL.0>
0.12705

>  <SCORE.INTRA.SOLV>
-5.18374

>  <SCORE.INTRA.SOLV.lig_0>
-119.383

>  <SCORE.INTRA.VDW>
1.45181

>  <SCORE.INTRA.VDW.0>
-5.10464

>  <SCORE.INTRA.norm>
-0.7936

>  <SCORE.RESTR>
0.0156251

>  <SCORE.RESTR.CAVITY>
0.0156251

>  <SCORE.RESTR.norm>
0.000488283

>  <SCORE.SYSTEM>
0

>  <SCORE.SYSTEM.CONST>
0

>  <SCORE.SYSTEM.DIHEDRAL>
0

>  <SCORE.SYSTEM.SOLV>
0

>  <SCORE.SYSTEM.norm>
0

>  <SCORE.heavy>
32

>  <SCORE.norm>
-1.35856

>  <RMSD>
8.374

$$$$
2au4_lig
 OpenBabel11021811423D
libRbt.so/2013.1/901 2013/11/27
 32 34  0  0  0  0  0  0  0  0999 V2000
   69.0404    9.1292    0.1789 P   0  0  1  0  0  0  0  0  0  0  0  0
   68.5676    7.1404   -1.6073 P   0  0  1  0  0  0  0  0  0  0  0  0
   65.9386    6.7817   -2.2401 P   0  0  2  0  0  0  0  0  0  0  0  0
   71.3766   10.2925    0.6473 C   0  0  0  0  0  0  0  0  0  0  0  0
   70.0214   10.4048    0.1820 O   0  0  0  0  0  0  0  0  0  0  0  0
   72.1128   11.6239    0.6218 C   0  0  0  0  0  0  0  0  0  0  0  0
   71.2028   12.7012    0.3190 O   0  0  0  0  0  0  0  0  0  0  0  0
   72.7569   11.9089    1.9696 C   0  0  0  0  0  0  0  0  0  0  0  0
   74.1843   11.9571    1.8550 O   0  0  0  0  0  0  0  0  0  0  0  0
   72.2047   13.2344    2.4371 C   0  0  0  0  0  0  0  0  0  0  0  0
   73.2541   14.1883    2.6492 O   0  0  0  0  0  0  0  0  0  0  0  0
   71.2551   13.7091    1.3508 C   0  0  0  0  0  0  0  0  0  0  0  0
   66.2344   13.8192    0.4308 N   0  0  0  0  0  0  0  0  0  0  0  0
   69.4241    8.2374    1.2916 O   0  5  0  0  0  0  0  0  0  0  0  0
   69.1035    6.6276   -2.8832 O   0  5  0  0  0  0  0  0  0  0  0  0
   64.7659    7.6002   -2.6088 O   0  5  0  0  0  0  0  0  0  0  0  0
   67.2700   13.5055   -0.4170 C   0  0  1  0  0  0  0  0  0  0  0  0
   66.9358   13.1865   -1.6603 N   0  0  0  0  0  0  0  0  0  0  0  0
   67.6461    9.6063    0.0586 O   0  0  0  0  0  0  0  0  0  0  0  0
   68.4555    6.2451   -0.4370 O   0  0  0  0  0  0  0  0  0  0  0  0
   65.8339    5.7882   -1.1511 O   0  0  0  0  0  0  0  0  0  0  0  0
   68.5508   13.5116   -0.0562 N   0  0  0  0  0  0  0  0  0  0  0  0
   69.4244    8.4054   -1.1808 O   0  0  0  0  0  0  0  0  0  0  0  0
   67.1356    7.7706   -1.8852 O   0  0  0  0  0  0  0  0  0  0  0  0
   66.4743    6.0377   -3.5592 O   0  0  0  0  0  0  0  0  0  0  0  0
   68.7133   13.8631    1.2402 C   0  0  2  0  0  0  0  0  0  0  0  0
   67.7304   14.1925    2.1595 C   0  0  2  0  0  0  0  0  0  0  0  0
   66.3719   14.1814    1.7587 C   0  0  1  0  0  0  0  0  0  0  0  0
   65.3825   14.4649    2.4207 O   0  0  0  0  0  0  0  0  0  0  0  0
   68.2941   14.5011    3.4022 N   0  0  0  0  0  0  0  0  0  0  0  0
   69.5540   14.3425    3.1587 C   0  0  0  0  0  0  0  0  0  0  0  0
   69.9118   13.9647    1.9061 N   0  0  0  0  0  0  0  0  0  0  0  0
  1  5  1  1  0  0  0
  1 14  1  0  0  0  0
  1 19  2  0  0  0  0
  2 15  1  6  0  0  0
  2 20  2  0  0  0  0
  2 23  1  0  0  0  0
  3 16  1  6  0  0  0
  3 21  2  0  0  0  0
  3 24  1  0  0  0  0
  3 25  1  0  0  0  0
  4  6  1  0  0  0  0
  5  4  1  0  0  0  0
  6  7  1  0  0  0  0
  6  8  2  0  0  0  0
  7 12  1  0  0  0  0
  8  9  1  0  0  0  0
  8 10  1  0  0  0  0
 10 11  1  0  0  0  0
 10 12  2  0  0  0  0
 12 32  1  0  0  0  0
 13 17  1  0  0  0  0
 17 18  1  6  0  0  0
 17 22  1  0  0  0  0
 23  1  1  0  0  0  0
 24  2  1  0  0  0  0
 26 22  1  6  0  0  0
 27 26  1  0  0  0  0
 27 28  1  0  0  0  0
 27 30  1  6  0  0  0
 28 13  1  0  0  0  0
 28 29  1  6  0  0  0
 31 30  1  0  0  0  0
 32 26  1  0  0  0  0
 32 31  1  0  0  0  0
M  CHG  3  14  -1  15  -1  16  -1
M  END
>  <CHROM.1>
30.62034725,-179.51368421,-173.42490601,8.34270738,-177.57055285,-30.77204450
-174.98052091,70.26437782,68.75755033,10.55717592,0.10790880,-1.95998221
-0.21211633,0.42924925

>  <Name>
2au4_lig

>  <RI>
0

>  <Rbt.Current_Directory>
/home/itssahil/PROJECTS/Mol_Feturizer/New_Systems/rnas/2au4

>  <Rbt.Executable>
rbdock ($Id: //depot/dev/client3/rdock/2013.1/src/exe/rbdock.cxx#4 $)

>  <Rbt.Library>
libRbt.so (2013.1, Build901 2013/11/27)

>  <Rbt.Parameter_File>
/export/apps/rDock/src/rDock_2013.1_src/data/scripts/dock_solv.prm

>  <Rbt.Receptor>
prm/pocket_docking_6.prm

>  <SCORE>
-45.2057

>  <SCORE.INTER>
-19.0639

>  <SCORE.INTER.CONST>
1

>  <SCORE.INTER.POLAR>
-2

>  <SCORE.INTER.ROT>
8

>  <SCORE.INTER.SOLV>
22.3845

>  <SCORE.INTER.VDW>
-22.4375

>  <SCORE.INTER.norm>
-0.595748

>  <SCORE.INTRA>
-26.1417

>  <SCORE.INTRA.DIHEDRAL>
-50.4075

>  <SCORE.INTRA.DIHEDRAL.0>
76.3625

>  <SCORE.INTRA.POLAR>
0

>  <SCORE.INTRA.POLAR.0>
0

>  <SCORE.INTRA.REPUL>
0.0614778

>  <SCORE.INTRA.REPUL.0>
0.12705

>  <SCORE.INTRA.SOLV>
-4.40227

>  <SCORE.INTRA.SOLV.lig_0>
-119.383

>  <SCORE.INTRA.VDW>
0.955765

>  <SCORE.INTRA.VDW.0>
-5.10464

>  <SCORE.INTRA.norm>
-0.816929

>  <SCORE.RESTR>
0

>  <SCORE.RESTR.CAVITY>
0

>  <SCORE.RESTR.norm>
0

>  <SCORE.SYSTEM>
0

>  <SCORE.SYSTEM.CONST>
0

>  <SCORE.SYSTEM.DIHEDRAL>
0

>  <SCORE.SYSTEM.SOLV>
0

>  <SCORE.SYSTEM.norm>
0

>  <SCORE.heavy>
32

>  <SCORE.norm>
-1.41268

>  <RMSD>
8.391

$$$$
2au4_lig
 OpenBabel11021811423D
libRbt.so/2013.1/901 2013/11/27
 32 34  0  0  0  0  0  0  0  0999 V2000
   68.3023    7.3373    3.4500 P   0  0  1  0  0  0  0  0  0  0  0  0
   68.8908    6.3055    1.0090 P   0  0  1  0  0  0  0  0  0  0  0  0
   69.6757    4.6648   -1.0240 P   0  0  2  0  0  0  0  0  0  0  0  0
   69.5569    9.5114    4.3043 C   0  0  0  0  0  0  0  0  0  0  0  0
   69.5522    8.3507    3.4566 O   0  0  0  0  0  0  0  0  0  0  0  0
   70.8806   10.2604    4.2579 C   0  0  0  0  0  0  0  0  0  0  0  0
   70.9276   11.1375    3.1139 O   0  0  0  0  0  0  0  0  0  0  0  0
   71.0676   11.1014    5.5111 C   0  0  0  0  0  0  0  0  0  0  0  0
   72.1956   10.6473    6.2689 O   0  0  0  0  0  0  0  0  0  0  0  0
   71.2629   12.5251    5.0470 C   0  0  0  0  0  0  0  0  0  0  0  0
   72.5214   13.0484    5.4924 O   0  0  0  0  0  0  0  0  0  0  0  0
   71.1982   12.4929    3.5298 C   0  0  0  0  0  0  0  0  0  0  0  0
   67.6859   13.3799   -0.0679 N   0  0  0  0  0  0  0  0  0  0  0  0
   68.0839    6.8500    4.8268 O   0  5  0  0  0  0  0  0  0  0  0  0
   67.5081    6.2299    0.4986 O   0  5  0  0  0  0  0  0  0  0  0  0
   70.9547    3.9972   -1.3394 O   0  5  0  0  0  0  0  0  0  0  0  0
   68.5406   12.3125    0.0725 C   0  0  1  0  0  0  0  0  0  0  0  0
   68.4582   11.3675   -0.8545 N   0  0  0  0  0  0  0  0  0  0  0  0
   67.1917    7.9624    2.7003 O   0  0  0  0  0  0  0  0  0  0  0  0
   69.7307    7.4821    0.7030 O   0  0  0  0  0  0  0  0  0  0  0  0
   69.2786    5.8855   -1.7562 O   0  0  0  0  0  0  0  0  0  0  0  0
   69.4201   12.1929    1.0639 N   0  0  0  0  0  0  0  0  0  0  0  0
   68.8498    6.1243    2.5844 O   0  0  0  0  0  0  0  0  0  0  0  0
   69.6702    5.0054    0.5319 O   0  0  0  0  0  0  0  0  0  0  0  0
   68.4932    3.5852   -1.1535 O   0  0  0  0  0  0  0  0  0  0  0  0
   69.3747   13.2437    1.9149 C   0  0  2  0  0  0  0  0  0  0  0  0
   68.5488   14.3543    1.8484 C   0  0  2  0  0  0  0  0  0  0  0  0
   67.6185   14.4660    0.7862 C   0  0  1  0  0  0  0  0  0  0  0  0
   66.8350   15.3774    0.5556 O   0  0  0  0  0  0  0  0  0  0  0  0
   68.8009   15.2269    2.9123 N   0  0  0  0  0  0  0  0  0  0  0  0
   69.7430   14.6014    3.5393 C   0  0  0  0  0  0  0  0  0  0  0  0
   70.1586   13.4144    3.0314 N   0  0  0  0  0  0  0  0  0  0  0  0
  1  5  1  1  0  0  0
  1 14  1  0  0  0  0
  1 19  2  0  0  0  0
  2 15  1  6  0  0  0
  2 20  2  0  0  0  0
  2 23  1  0  0  0  0
  3 16  1  6  0  0  0
  3 21  2  0  0  0  0
  3 24  1  0  0  0  0
  3 25  1  0  0  0  0
  4  6  1  0  0  0  0
  5  4  1  0  0  0  0
  6  7  1  0  0  0  0
  6  8  2  0  0  0  0
  7 12  1  0  0  0  0
  8  9  1  0  0  0  0
  8 10  1  0  0  0  0
 10 11  1  0  0  0  0
 10 12  2  0  0  0  0
 12 32  1  0  0  0  0
 13 17  1  0  0  0  0
 17 18  1  6  0  0  0
 17 22  1  0  0  0  0
 23  1  1  0  0  0  0
 24  2  1  0  0  0  0
 26 22  1  6  0  0  0
 27 26  1  0  0  0  0
 27 28  1  0  0  0  0
 27 30  1  6  0  0  0
 28 13  1  0  0  0  0
 28 29  1  6  0  0  0
 31 30  1  0  0  0  0
 32 26  1  0  0  0  0
 32 31  1  0  0  0  0
M  CHG  3  14  -1  15  -1  16  -1
M  END
>  <CHROM.1>
-56.68935790,-73.38790855,148.22422817,82.61482618,174.52236456,-26.28721049
-77.47209323,53.96641105,69.34209141,9.46520452,1.95272588,-1.70580718,-1.14015283
0.20213347

>  <Name>
2au4_lig

>  <RI>
0

>  <Rbt.Current_Directory>
/home/itssahil/PROJECTS/Mol_Feturizer/New_Systems/rnas/2au4

>  <Rbt.Executable>
rbdock ($Id: //depot/dev/client3/rdock/2013.1/src/exe/rbdock.cxx#4 $)

>  <Rbt.Library>
libRbt.so (2013.1, Build901 2013/11/27)

>  <Rbt.Parameter_File>
/export/apps/rDock/src/rDock_2013.1_src/data/scripts/dock_solv.prm

>  <Rbt.Receptor>
prm/pocket_docking_7.prm

>  <SCORE>
-49.8519

>  <SCORE.INTER>
-24.8871

>  <SCORE.INTER.CONST>
1

>  <SCORE.INTER.POLAR>
-2.27826

>  <SCORE.INTER.ROT>
8

>  <SCORE.INTER.SOLV>
29.2464

>  <SCORE.INTER.VDW>
-27.6793

>  <SCORE.INTER.norm>
-0.77772

>  <SCORE.INTRA>
-24.97

>  <SCORE.INTRA.DIHEDRAL>
-48.2184

>  <SCORE.INTRA.DIHEDRAL.0>
76.3625

>  <SCORE.INTRA.POLAR>
0

>  <SCORE.INTRA.POLAR.0>
0

>  <SCORE.INTRA.REPUL>
0.0710396

>  <SCORE.INTRA.REPUL.0>
0.12705

>  <SCORE.INTRA.SOLV>
-5.6705

>  <SCORE.INTRA.SOLV.lig_0>
-119.383

>  <SCORE.INTRA.VDW>
1.61927

>  <SCORE.INTRA.VDW.0>
-5.10464

>  <SCORE.INTRA.norm>
-0.780312

>  <SCORE.RESTR>
0.00519481

>  <SCORE.RESTR.CAVITY>
0.00519481

>  <SCORE.RESTR.norm>
0.000162338

>  <SCORE.SYSTEM>
0

>  <SCORE.SYSTEM.CONST>
0

>  <SCORE.SYSTEM.DIHEDRAL>
0

>  <SCORE.SYSTEM.SOLV>
0

>  <SCORE.SYSTEM.norm>
0

>  <SCORE.heavy>
32

>  <SCORE.norm>
-1.55787

>  <RMSD>
8.420

$$$$
2au4_lig
 OpenBabel11021811423D
libRbt.so/2013.1/901 2013/11/27
 32 34  0  0  0  0  0  0  0  0999 V2000
   67.9522    5.7585   -3.2743 P   0  0  1  0  0  0  0  0  0  0  0  0
   69.9400    5.1596   -1.5252 P   0  0  1  0  0  0  0  0  0  0  0  0
   69.1646    6.1908    0.8781 P   0  0  2  0  0  0  0  0  0  0  0  0
   65.6179    5.8428   -2.0195 C   0  0  0  0  0  0  0  0  0  0  0  0
   66.3556    5.5651   -3.2213 O   0  0  0  0  0  0  0  0  0  0  0  0
   65.7325    7.2979   -1.5894 C   0  0  0  0  0  0  0  0  0  0  0  0
   65.1210    8.1653   -2.5661 O   0  0  0  0  0  0  0  0  0  0  0  0
   65.0400    7.5208   -0.2541 C   0  0  0  0  0  0  0  0  0  0  0  0
   65.9810    7.9180    0.7508 O   0  0  0  0  0  0  0  0  0  0  0  0
   64.0038    8.5953   -0.4824 C   0  0  0  0  0  0  0  0  0  0  0  0
   64.2309    9.7254    0.3704 O   0  0  0  0  0  0  0  0  0  0  0  0
   64.1139    8.9917   -1.9446 C   0  0  0  0  0  0  0  0  0  0  0  0
   59.8478   11.3184   -3.5108 N   0  0  0  0  0  0  0  0  0  0  0  0
   68.4722    5.0575   -4.4655 O   0  5  0  0  0  0  0  0  0  0  0  0
   70.3377    3.9814   -0.7303 O   0  5  0  0  0  0  0  0  0  0  0  0
   69.9280    5.1439    1.5869 O   0  5  0  0  0  0  0  0  0  0  0  0
   60.9323   11.8399   -2.8462 C   0  0  1  0  0  0  0  0  0  0  0  0
   60.8786   13.1333   -2.5575 N   0  0  0  0  0  0  0  0  0  0  0  0
   68.2618    7.1886   -3.0620 O   0  0  0  0  0  0  0  0  0  0  0  0
   70.7359    5.5620   -2.7034 O   0  0  0  0  0  0  0  0  0  0  0  0
   67.7096    6.0337    0.6725 O   0  0  0  0  0  0  0  0  0  0  0  0
   61.9963   11.1251   -2.4890 N   0  0  0  0  0  0  0  0  0  0  0  0
   68.4362    4.9615   -1.9894 O   0  0  0  0  0  0  0  0  0  0  0  0
   69.8384    6.4089   -0.5485 O   0  0  0  0  0  0  0  0  0  0  0  0
   69.4271    7.5958    1.6114 O   0  0  0  0  0  0  0  0  0  0  0  0
   61.8849    9.8275   -2.8554 C   0  0  2  0  0  0  0  0  0  0  0  0
   60.8333    9.2221   -3.5243 C   0  0  2  0  0  0  0  0  0  0  0  0
   59.7080    9.9974   -3.8968 C   0  0  1  0  0  0  0  0  0  0  0  0
   58.6877    9.6312   -4.4646 O   0  0  0  0  0  0  0  0  0  0  0  0
   61.0869    7.8606   -3.7225 N   0  0  0  0  0  0  0  0  0  0  0  0
   62.2499    7.7336   -3.1719 C   0  0  0  0  0  0  0  0  0  0  0  0
   62.8138    8.8401   -2.6265 N   0  0  0  0  0  0  0  0  0  0  0  0
  1  5  1  6  0  0  0
  1 14  1  0  0  0  0
  1 19  2  0  0  0  0
  2 15  1  1  0  0  0
  2 20  2  0  0  0  0
  2 23  1  0  0  0  0
  3 16  1  1  0  0  0
  3 21  2  0  0  0  0
  3 24  1  0  0  0  0
  3 25  1  0  0  0  0
  4  6  1  0  0  0  0
  5  4  1  0  0  0  0
  6  7  1  0  0  0  0
  6  8  2  0  0  0  0
  7 12  1  0  0  0  0
  8  9  1  0  0  0  0
  8 10  1  0  0  0  0
 10 11  1  0  0  0  0
 10 12  2  0  0  0  0
 12 32  1  0  0  0  0
 13 17  1  0  0  0  0
 17 18  1  1  0  0  0
 17 22  1  0  0  0  0
 23  1  1  0  0  0  0
 24  2  1  0  0  0  0
 26 22  1  1  0  0  0
 27 26  1  0  0  0  0
 27 28  1  0  0  0  0
 27 30  1  1  0  0  0
 28 13  1  0  0  0  0
 28 29  1  1  0  0  0
 31 30  1  0  0  0  0
 32 26  1  0  0  0  0
 32 31  1  0  0  0  0
M  CHG  3  14  -1  15  -1  16  -1
M  END
>  <CHROM.1>
164.37258286,-156.82204756,58.37762681,64.89341187,61.63001300,-142.94816780
-167.89243137,-41.75631619,65.76198801,7.49550152,-1.79634309,0.01880285
0.54736461,-2.05331213

>  <Name>
2au4_lig

>  <RI>
0

>  <Rbt.Current_Directory>
/home/itssahil/PROJECTS/Mol_Feturizer/New_Systems/rnas/2au4

>  <Rbt.Executable>
rbdock ($Id: //depot/dev/client3/rdock/2013.1/src/exe/rbdock.cxx#4 $)

>  <Rbt.Library>
libRbt.so (2013.1, Build901 2013/11/27)

>  <Rbt.Parameter_File>
/export/apps/rDock/src/rDock_2013.1_src/data/scripts/dock_solv.prm

>  <Rbt.Receptor>
prm/blind_docking_80.prm

>  <SCORE>
-17.7877

>  <SCORE.INTER>
-15.6765

>  <SCORE.INTER.CONST>
1

>  <SCORE.INTER.POLAR>
-0.6235

>  <SCORE.INTER.ROT>
8

>  <SCORE.INTER.SOLV>
35.5207

>  <SCORE.INTER.VDW>
-29.1462

>  <SCORE.INTER.norm>
-0.48989

>  <SCORE.INTRA>
-4.76687

>  <SCORE.INTRA.DIHEDRAL>
-8.08586

>  <SCORE.INTRA.DIHEDRAL.0>
76.3625

>  <SCORE.INTRA.POLAR>
0

>  <SCORE.INTRA.POLAR.0>
0

>  <SCORE.INTRA.REPUL>
-0.12705

>  <SCORE.INTRA.REPUL.0>
0.12705

>  <SCORE.INTRA.SOLV>
-0.260933

>  <SCORE.INTRA.SOLV.lig_0>
-119.383

>  <SCORE.INTRA.VDW>
0.0417717

>  <SCORE.INTRA.VDW.0>
-5.10464

>  <SCORE.INTRA.norm>
-0.148965

>  <SCORE.RESTR>
2.65561

>  <SCORE.RESTR.CAVITY>
2.65561

>  <SCORE.RESTR.norm>
0.0829877

>  <SCORE.SYSTEM>
0

>  <SCORE.SYSTEM.CONST>
0

>  <SCORE.SYSTEM.DIHEDRAL>
0

>  <SCORE.SYSTEM.SOLV>
0

>  <SCORE.SYSTEM.norm>
0

>  <SCORE.heavy>
32

>  <SCORE.norm>
-0.555867

>  <RMSD>
8.433

$$$$
2au4_lig
 OpenBabel11021811423D
libRbt.so/2013.1/901 2013/11/27
 32 34  0  0  0  0  0  0  0  0999 V2000
   67.8667    9.0119    3.9357 P   0  0  1  0  0  0  0  0  0  0  0  0
   67.8375    7.5113    1.6737 P   0  0  1  0  0  0  0  0  0  0  0  0
   65.5902    7.6411    0.1331 P   0  0  2  0  0  0  0  0  0  0  0  0
   70.4190    9.6268    4.3072 C   0  0  0  0  0  0  0  0  0  0  0  0
   69.2070    9.8187    3.5589 O   0  0  0  0  0  0  0  0  0  0  0  0
   71.4946   10.6395    3.9425 C   0  0  0  0  0  0  0  0  0  0  0  0
   71.3924   11.0099    2.5523 O   0  0  0  0  0  0  0  0  0  0  0  0
   71.3551   11.8993    4.7827 C   0  0  0  0  0  0  0  0  0  0  0  0
   72.5026   12.0860    5.6201 O   0  0  0  0  0  0  0  0  0  0  0  0
   71.1982   13.0463    3.8132 C   0  0  0  0  0  0  0  0  0  0  0  0
   72.2340   14.0218    3.9908 O   0  0  0  0  0  0  0  0  0  0  0  0
   71.2595   12.4411    2.4214 C   0  0  0  0  0  0  0  0  0  0  0  0
   67.5352   15.8526    1.6741 N   0  0  0  0  0  0  0  0  0  0  0  0
   68.2490    7.7195    4.5394 O   0  5  0  0  0  0  0  0  0  0  0  0
   69.2929    7.7203    1.5467 O   0  5  0  0  0  0  0  0  0  0  0  0
   65.2316    7.6635   -1.2995 O   0  5  0  0  0  0  0  0  0  0  0  0
   68.5746   15.8787    2.5733 C   0  0  1  0  0  0  0  0  0  0  0  0
   68.6322   16.9339    3.3747 N   0  0  0  0  0  0  0  0  0  0  0  0
   66.9529    9.9246    4.6555 O   0  0  0  0  0  0  0  0  0  0  0  0
   67.3164    6.2503    2.2410 O   0  0  0  0  0  0  0  0  0  0  0  0
   65.0226    8.6487    1.0531 O   0  0  0  0  0  0  0  0  0  0  0  0
   69.4925   14.9204    2.6729 N   0  0  0  0  0  0  0  0  0  0  0  0
   67.2334    8.7160    2.5104 O   0  0  0  0  0  0  0  0  0  0  0  0
   67.1772    7.7186    0.2432 O   0  0  0  0  0  0  0  0  0  0  0  0
   65.2666    6.1793    0.7153 O   0  0  0  0  0  0  0  0  0  0  0  0
   69.2821   13.9192    1.7874 C   0  0  2  0  0  0  0  0  0  0  0  0
   68.2659   13.8141    0.8514 C   0  0  2  0  0  0  0  0  0  0  0  0
   67.2967   14.8429    0.7590 C   0  0  1  0  0  0  0  0  0  0  0  0
   66.3255   14.9069    0.0173 O   0  0  0  0  0  0  0  0  0  0  0  0
   68.3852   12.6289    0.1178 N   0  0  0  0  0  0  0  0  0  0  0  0
   69.4425   12.1052    0.6468 C   0  0  0  0  0  0  0  0  0  0  0  0
   70.0526   12.7894    1.6465 N   0  0  0  0  0  0  0  0  0  0  0  0
  1  5  1  6  0  0  0
  1 14  1  0  0  0  0
  1 19  2  0  0  0  0
  2 15  1  6  0  0  0
  2 20  2  0  0  0  0
  2 23  1  0  0  0  0
  3 16  1  6  0  0  0
  3 21  2  0  0  0  0
  3 24  1  0  0  0  0
  3 25  1  0  0  0  0
  4  6  1  0  0  0  0
  5  4  1  0  0  0  0
  6  7  1  0  0  0  0
  6  8  2  0  0  0  0
  7 12  1  0  0  0  0
  8  9  1  0  0  0  0
  8 10  1  0  0  0  0
 10 11  1  0  0  0  0
 10 12  2  0  0  0  0
 12 32  1  0  0  0  0
 13 17  1  0  0  0  0
 17 18  1  1  0  0  0
 17 22  1  0  0  0  0
 23  1  1  0  0  0  0
 24  2  1  0  0  0  0
 26 22  1  1  0  0  0
 27 26  1  0  0  0  0
 27 28  1  0  0  0  0
 27 30  1  1  0  0  0
 28 13  1  0  0  0  0
 28 29  1  1  0  0  0
 31 30  1  0  0  0  0
 32 26  1  0  0  0  0
 32 31  1  0  0  0  0
M  CHG  3  14  -1  15  -1  16  -1
M  END
>  <CHROM.1>
-28.93750327,-54.58508610,-171.80298240,-32.38242971,-170.59185288,149.31804090
79.36191386,-176.03418093,68.44364776,10.74208286,2.23002449,-2.16421308
-0.70667940,-0.19137032

>  <Name>
2au4_lig

>  <RI>
0

>  <Rbt.Current_Directory>
/home/itssahil/PROJECTS/Mol_Feturizer/New_Systems/rnas/2au4

>  <Rbt.Executable>
rbdock ($Id: //depot/dev/client3/rdock/2013.1/src/exe/rbdock.cxx#4 $)

>  <Rbt.Library>
libRbt.so (2013.1, Build901 2013/11/27)

>  <Rbt.Parameter_File>
/export/apps/rDock/src/rDock_2013.1_src/data/scripts/dock_solv.prm

>  <Rbt.Receptor>
prm/pocket_docking_6.prm

>  <SCORE>
-44.0836

>  <SCORE.INTER>
-18.5725

>  <SCORE.INTER.CONST>
1

>  <SCORE.INTER.POLAR>
-2.64471

>  <SCORE.INTER.ROT>
8

>  <SCORE.INTER.SOLV>
25.7254

>  <SCORE.INTER.VDW>
-21.0744

>  <SCORE.INTER.norm>
-0.580391

>  <SCORE.INTRA>
-25.9138

>  <SCORE.INTRA.DIHEDRAL>
-48.3157

>  <SCORE.INTRA.DIHEDRAL.0>
76.3625

>  <SCORE.INTRA.POLAR>
0

>  <SCORE.INTRA.POLAR.0>
0

>  <SCORE.INTRA.REPUL>
-0.0596261

>  <SCORE.INTRA.REPUL.0>
0.12705

>  <SCORE.INTRA.SOLV>
-5.39983

>  <SCORE.INTRA.SOLV.lig_0>
-119.383

>  <SCORE.INTRA.VDW>
1.24204

>  <SCORE.INTRA.VDW.0>
-5.10464

>  <SCORE.INTRA.norm>
-0.809808

>  <SCORE.RESTR>
0.402746

>  <SCORE.RESTR.CAVITY>
0.402746

>  <SCORE.RESTR.norm>
0.0125858

>  <SCORE.SYSTEM>
0

>  <SCORE.SYSTEM.CONST>
0

>  <SCORE.SYSTEM.DIHEDRAL>
0

>  <SCORE.SYSTEM.SOLV>
0

>  <SCORE.SYSTEM.norm>
0

>  <SCORE.heavy>
32

>  <SCORE.norm>
-1.37761

>  <RMSD>
8.433

$$$$
2au4_lig
 OpenBabel11021811423D
libRbt.so/2013.1/901 2013/11/27
 32 34  0  0  0  0  0  0  0  0999 V2000
   68.3613    8.8417    2.6711 P   0  0  1  0  0  0  0  0  0  0  0  0
   68.3659    7.0136    0.6642 P   0  0  1  0  0  0  0  0  0  0  0  0
   68.8084    5.9288   -1.7992 P   0  0  2  0  0  0  0  0  0  0  0  0
   70.4776   10.1625    3.5695 C   0  0  0  0  0  0  0  0  0  0  0  0
   69.8930    9.3226    2.5603 O   0  0  0  0  0  0  0  0  0  0  0  0
   71.5927   11.0408    3.0213 C   0  0  0  0  0  0  0  0  0  0  0  0
   71.0946   11.8989    1.9745 O   0  0  0  0  0  0  0  0  0  0  0  0
   72.1766   11.9171    4.1184 C   0  0  0  0  0  0  0  0  0  0  0  0
   73.5518   11.5923    4.3558 O   0  0  0  0  0  0  0  0  0  0  0  0
   72.0291   13.3453    3.6505 C   0  0  0  0  0  0  0  0  0  0  0  0
   73.3022   14.0007    3.5739 O   0  0  0  0  0  0  0  0  0  0  0  0
   71.3717   13.2815    2.2827 C   0  0  0  0  0  0  0  0  0  0  0  0
   66.7693   13.9238    0.1679 N   0  0  0  0  0  0  0  0  0  0  0  0
   68.3148    7.5971    3.4645 O   0  5  0  0  0  0  0  0  0  0  0  0
   69.7007    6.6590    1.1844 O   0  5  0  0  0  0  0  0  0  0  0  0
   70.0549    5.3255   -1.2860 O   0  5  0  0  0  0  0  0  0  0  0  0
   67.7278   12.9756   -0.1000 C   0  0  1  0  0  0  0  0  0  0  0  0
   67.4337   12.0931   -1.0454 N   0  0  0  0  0  0  0  0  0  0  0  0
   67.5297   10.0004    3.0606 O   0  0  0  0  0  0  0  0  0  0  0  0
   67.2075    6.1372    0.9360 O   0  0  0  0  0  0  0  0  0  0  0  0
   68.7099    6.3277   -3.2188 O   0  0  0  0  0  0  0  0  0  0  0  0
   68.9004   12.9099    0.5257 N   0  0  0  0  0  0  0  0  0  0  0  0
   68.0083    8.4749    1.1674 O   0  0  0  0  0  0  0  0  0  0  0  0
   68.4791    7.2078   -0.9089 O   0  0  0  0  0  0  0  0  0  0  0  0
   67.5884    4.9397   -1.4617 O   0  0  0  0  0  0  0  0  0  0  0  0
   69.0381   13.8848    1.4538 C   0  0  2  0  0  0  0  0  0  0  0  0
   68.1272   14.8746    1.7860 C   0  0  2  0  0  0  0  0  0  0  0  0
   66.8838   14.9304    1.1099 C   0  0  1  0  0  0  0  0  0  0  0  0
   65.9775   15.7401    1.2525 O   0  0  0  0  0  0  0  0  0  0  0  0
   68.6342   15.6994    2.7958 N   0  0  0  0  0  0  0  0  0  0  0  0
   69.7940   15.1669    3.0037 C   0  0  0  0  0  0  0  0  0  0  0  0
   70.1336   14.0845    2.2600 N   0  0  0  0  0  0  0  0  0  0  0  0
  1  5  1  1  0  0  0
  1 14  1  0  0  0  0
  1 19  2  0  0  0  0
  2 15  1  1  0  0  0
  2 20  2  0  0  0  0
  2 23  1  0  0  0  0
  3 16  1  1  0  0  0
  3 21  2  0  0  0  0
  3 24  1  0  0  0  0
  3 25  1  0  0  0  0
  4  6  1  0  0  0  0
  5  4  1  0  0  0  0
  6  7  1  0  0  0  0
  6  8  2  0  0  0  0
  7 12  1  0  0  0  0
  8  9  1  0  0  0  0
  8 10  1  0  0  0  0
 10 11  1  0  0  0  0
 10 12  2  0  0  0  0
 12 32  1  0  0  0  0
 13 17  1  0  0  0  0
 17 18  1  6  0  0  0
 17 22  1  0  0  0  0
 23  1  1  0  0  0  0
 24  2  1  0  0  0  0
 26 22  1  6  0  0  0
 27 26  1  0  0  0  0
 27 28  1  0  0  0  0
 27 30  1  6  0  0  0
 28 13  1  0  0  0  0
 28 29  1  6  0  0  0
 31 30  1  0  0  0  0
 32 26  1  0  0  0  0
 32 31  1  0  0  0  0
M  CHG  3  14  -1  15  -1  16  -1
M  END
>  <CHROM.1>
-87.48470330,-42.08805119,-55.24923812,59.65316764,-151.75057285,-32.53890278
85.96814476,66.78591689,69.14843914,10.34559738,1.32876653,-1.75695488,-0.67707034
0.24282729

>  <Name>
2au4_lig

>  <RI>
0

>  <Rbt.Current_Directory>
/home/itssahil/PROJECTS/Mol_Feturizer/New_Systems/rnas/2au4

>  <Rbt.Executable>
rbdock ($Id: //depot/dev/client3/rdock/2013.1/src/exe/rbdock.cxx#4 $)

>  <Rbt.Library>
libRbt.so (2013.1, Build901 2013/11/27)

>  <Rbt.Parameter_File>
/export/apps/rDock/src/rDock_2013.1_src/data/scripts/dock_solv.prm

>  <Rbt.Receptor>
prm/pocket_docking_6.prm

>  <SCORE>
-41.0332

>  <SCORE.INTER>
-17.3073

>  <SCORE.INTER.CONST>
1

>  <SCORE.INTER.POLAR>
-2.09838

>  <SCORE.INTER.ROT>
8

>  <SCORE.INTER.SOLV>
19.28

>  <SCORE.INTER.VDW>
-19.9036

>  <SCORE.INTER.norm>
-0.540853

>  <SCORE.INTRA>
-23.7526

>  <SCORE.INTRA.DIHEDRAL>
-45.1313

>  <SCORE.INTRA.DIHEDRAL.0>
76.3625

>  <SCORE.INTRA.POLAR>
0

>  <SCORE.INTRA.POLAR.0>
0

>  <SCORE.INTRA.REPUL>
0.0549526

>  <SCORE.INTRA.REPUL.0>
0.12705

>  <SCORE.INTRA.SOLV>
-5.62183

>  <SCORE.INTRA.SOLV.lig_0>
-119.383

>  <SCORE.INTRA.VDW>
1.34922

>  <SCORE.INTRA.VDW.0>
-5.10464

>  <SCORE.INTRA.norm>
-0.742269

>  <SCORE.RESTR>
0.0266307

>  <SCORE.RESTR.CAVITY>
0.0266307

>  <SCORE.RESTR.norm>
0.000832209

>  <SCORE.SYSTEM>
0

>  <SCORE.SYSTEM.CONST>
0

>  <SCORE.SYSTEM.DIHEDRAL>
0

>  <SCORE.SYSTEM.SOLV>
0

>  <SCORE.SYSTEM.norm>
0

>  <SCORE.heavy>
32

>  <SCORE.norm>
-1.28229

>  <RMSD>
8.434

$$$$
2au4_lig
 OpenBabel11021811423D
libRbt.so/2013.1/901 2013/11/27
 32 34  0  0  0  0  0  0  0  0999 V2000
   73.3643   11.8693    1.5812 P   0  0  1  0  0  0  0  0  0  0  0  0
   72.1336   13.5243    3.3464 P   0  0  1  0  0  0  0  0  0  0  0  0
   71.4373   12.4599    5.7594 P   0  0  2  0  0  0  0  0  0  0  0  0
   71.8121   13.0044   -0.2443 C   0  0  0  0  0  0  0  0  0  0  0  0
   73.1241   12.8366    0.3179 O   0  0  0  0  0  0  0  0  0  0  0  0
   71.8269   13.8365   -1.5182 C   0  0  0  0  0  0  0  0  0  0  0  0
   73.1267   14.4268   -1.7237 O   0  0  0  0  0  0  0  0  0  0  0  0
   71.4981   12.9753   -2.7277 C   0  0  0  0  0  0  0  0  0  0  0  0
   70.2754   13.4004   -3.3418 O   0  0  0  0  0  0  0  0  0  0  0  0
   72.6610   13.1130   -3.6811 C   0  0  0  0  0  0  0  0  0  0  0  0
   72.2340   13.6259   -4.9503 O   0  0  0  0  0  0  0  0  0  0  0  0
   73.6464   14.0609   -3.0196 C   0  0  0  0  0  0  0  0  0  0  0  0
   76.7933   10.4237   -4.7324 N   0  0  0  0  0  0  0  0  0  0  0  0
   73.2558   10.4678    1.1285 O   0  5  0  0  0  0  0  0  0  0  0  0
   73.2075   14.3865    2.8159 O   0  5  0  0  0  0  0  0  0  0  0  0
   70.5271   11.6119    4.9635 O   0  5  0  0  0  0  0  0  0  0  0  0
   75.5138   10.7292   -5.1315 C   0  0  1  0  0  0  0  0  0  0  0  0
   75.0044    9.9776   -6.0984 N   0  0  0  0  0  0  0  0  0  0  0  0
   74.5732   12.3241    2.3009 O   0  0  0  0  0  0  0  0  0  0  0  0
   70.7508   14.0363    3.4415 O   0  0  0  0  0  0  0  0  0  0  0  0
   70.9009   13.6042    6.5256 O   0  0  0  0  0  0  0  0  0  0  0  0
   74.7878   11.7117   -4.6041 N   0  0  0  0  0  0  0  0  0  0  0  0
   72.1068   12.1845    2.4975 O   0  0  0  0  0  0  0  0  0  0  0  0
   72.5704   13.0126    4.7860 O   0  0  0  0  0  0  0  0  0  0  0  0
   72.2633   11.5163    6.7634 O   0  0  0  0  0  0  0  0  0  0  0  0
   75.4555   12.3725   -3.6303 C   0  0  2  0  0  0  0  0  0  0  0  0
   76.7396   12.1319   -3.1687 C   0  0  2  0  0  0  0  0  0  0  0  0
   77.4986   11.0818   -3.7409 C   0  0  1  0  0  0  0  0  0  0  0  0
   78.6274   10.7127   -3.4460 O   0  0  0  0  0  0  0  0  0  0  0  0
   77.0783   13.0279   -2.1491 N   0  0  0  0  0  0  0  0  0  0  0  0
   76.0001   13.7363   -2.0616 C   0  0  0  0  0  0  0  0  0  0  0  0
   74.9751   13.4305   -2.8956 N   0  0  0  0  0  0  0  0  0  0  0  0
  1  5  1  6  0  0  0
  1 14  1  0  0  0  0
  1 19  2  0  0  0  0
  2 15  1  6  0  0  0
  2 20  2  0  0  0  0
  2 23  1  0  0  0  0
  3 16  1  6  0  0  0
  3 21  2  0  0  0  0
  3 24  1  0  0  0  0
  3 25  1  0  0  0  0
  4  6  1  0  0  0  0
  5  4  1  0  0  0  0
  6  7  1  0  0  0  0
  6  8  2  0  0  0  0
  7 12  1  0  0  0  0
  8  9  1  0  0  0  0
  8 10  1  0  0  0  0
 10 11  1  0  0  0  0
 10 12  2  0  0  0  0
 12 32  1  0  0  0  0
 13 17  1  0  0  0  0
 17 18  1  1  0  0  0
 17 22  1  0  0  0  0
 23  1  1  0  0  0  0
 24  2  1  0  0  0  0
 26 22  1  1  0  0  0
 27 26  1  0  0  0  0
 27 28  1  0  0  0  0
 27 30  1  1  0  0  0
 28 13  1  0  0  0  0
 28 29  1  1  0  0  0
 31 30  1  0  0  0  0
 32 26  1  0  0  0  0
 32 31  1  0  0  0  0
M  CHG  3  14  -1  15  -1  16  -1
M  END
>  <CHROM.1>
72.84265997,14.98655988,42.65222956,-9.20903300,-173.75231099,141.67420958
-77.66326155,161.02444911,73.43622608,12.55938354,0.05741256,-1.99590946
0.41872047,-1.47807003

>  <Name>
2au4_lig

>  <RI>
0

>  <Rbt.Current_Directory>
/home/itssahil/PROJECTS/Mol_Feturizer/New_Systems/rnas/2au4

>  <Rbt.Executable>
rbdock ($Id: //depot/dev/client3/rdock/2013.1/src/exe/rbdock.cxx#4 $)

>  <Rbt.Library>
libRbt.so (2013.1, Build901 2013/11/27)

>  <Rbt.Parameter_File>
/export/apps/rDock/src/rDock_2013.1_src/data/scripts/dock_solv.prm

>  <Rbt.Receptor>
prm/blind_docking_80.prm

>  <SCORE>
-42.156

>  <SCORE.INTER>
-19.4303

>  <SCORE.INTER.CONST>
1

>  <SCORE.INTER.POLAR>
-2.61826

>  <SCORE.INTER.ROT>
8

>  <SCORE.INTER.SOLV>
27.4722

>  <SCORE.INTER.VDW>
-22.3167

>  <SCORE.INTER.norm>
-0.607197

>  <SCORE.INTRA>
-23.5652

>  <SCORE.INTRA.DIHEDRAL>
-45.7811

>  <SCORE.INTRA.DIHEDRAL.0>
76.3625

>  <SCORE.INTRA.POLAR>
0

>  <SCORE.INTRA.POLAR.0>
0

>  <SCORE.INTRA.REPUL>
-0.12705

>  <SCORE.INTRA.REPUL.0>
0.12705

>  <SCORE.INTRA.SOLV>
-4.86359

>  <SCORE.INTRA.SOLV.lig_0>
-119.383

>  <SCORE.INTRA.VDW>
2.39237

>  <SCORE.INTRA.VDW.0>
-5.10464

>  <SCORE.INTRA.norm>
-0.736413

>  <SCORE.RESTR>
0.839551

>  <SCORE.RESTR.CAVITY>
0.839551

>  <SCORE.RESTR.norm>
0.026236

>  <SCORE.SYSTEM>
0

>  <SCORE.SYSTEM.CONST>
0

>  <SCORE.SYSTEM.DIHEDRAL>
0

>  <SCORE.SYSTEM.SOLV>
0

>  <SCORE.SYSTEM.norm>
0

>  <SCORE.heavy>
32

>  <SCORE.norm>
-1.31737

>  <RMSD>
8.435

$$$$
2au4_lig
 OpenBabel11021811423D
libRbt.so/2013.1/901 2013/11/27
 32 34  0  0  0  0  0  0  0  0999 V2000
   71.0278   10.5628    2.0674 P   0  0  1  0  0  0  0  0  0  0  0  0
   68.9556    8.9232    1.4454 P   0  0  1  0  0  0  0  0  0  0  0  0
   68.4653    7.0680    3.3841 P   0  0  2  0  0  0  0  0  0  0  0  0
   73.5675   10.5464    1.3055 C   0  0  0  0  0  0  0  0  0  0  0  0
   72.5912   10.2835    2.3270 O   0  0  0  0  0  0  0  0  0  0  0  0
   74.1224   11.9612    1.3812 C   0  0  0  0  0  0  0  0  0  0  0  0
   74.6191   12.3811    0.0939 O   0  0  0  0  0  0  0  0  0  0  0  0
   73.0437   12.9400    1.8182 C   0  0  0  0  0  0  0  0  0  0  0  0
   73.3718   13.5339    3.0801 O   0  0  0  0  0  0  0  0  0  0  0  0
   72.9495   13.9866    0.7337 C   0  0  0  0  0  0  0  0  0  0  0  0
   73.2064   15.2979    1.2539 O   0  0  0  0  0  0  0  0  0  0  0  0
   73.9819   13.6100   -0.3148 C   0  0  0  0  0  0  0  0  0  0  0  0
   74.5108   11.9088   -5.0995 N   0  0  0  0  0  0  0  0  0  0  0  0
   70.3670   10.7869    3.3689 O   0  5  0  0  0  0  0  0  0  0  0  0
   68.2983   10.1937    1.0823 O   0  5  0  0  0  0  0  0  0  0  0  0
   68.1857    7.0206    4.8335 O   0  5  0  0  0  0  0  0  0  0  0  0
   75.4031   11.8658   -4.0547 C   0  0  1  0  0  0  0  0  0  0  0  0
   76.5796   11.3088   -4.3089 N   0  0  0  0  0  0  0  0  0  0  0  0
   70.9003   11.5663    0.9890 O   0  0  0  0  0  0  0  0  0  0  0  0
   68.7082    7.7055    0.6455 O   0  0  0  0  0  0  0  0  0  0  0  0
   69.6231    6.3354    2.8301 O   0  0  0  0  0  0  0  0  0  0  0  0
   75.1463   12.3466   -2.8407 N   0  0  0  0  0  0  0  0  0  0  0  0
   70.5217    9.1705    1.4968 O   0  0  0  0  0  0  0  0  0  0  0  0
   68.6073    8.5969    2.9611 O   0  0  0  0  0  0  0  0  0  0  0  0
   67.1443    6.6046    2.5961 O   0  0  0  0  0  0  0  0  0  0  0  0
   73.9068   12.8823   -2.7565 C   0  0  2  0  0  0  0  0  0  0  0  0
   72.9492   12.9662   -3.7543 C   0  0  2  0  0  0  0  0  0  0  0  0
   73.2390   12.4498   -5.0411 C   0  0  1  0  0  0  0  0  0  0  0  0
   72.5318   12.4583   -6.0397 O   0  0  0  0  0  0  0  0  0  0  0  0
   71.7903   13.5910   -3.2813 N   0  0  0  0  0  0  0  0  0  0  0  0
   72.1156   13.8397   -2.0548 C   0  0  0  0  0  0  0  0  0  0  0  0
   73.3500   13.4603   -1.6402 N   0  0  0  0  0  0  0  0  0  0  0  0
  1  5  1  1  0  0  0
  1 14  1  0  0  0  0
  1 19  2  0  0  0  0
  2 15  1  6  0  0  0
  2 20  2  0  0  0  0
  2 23  1  0  0  0  0
  3 16  1  1  0  0  0
  3 21  2  0  0  0  0
  3 24  1  0  0  0  0
  3 25  1  0  0  0  0
  4  6  1  0  0  0  0
  5  4  1  0  0  0  0
  6  7  1  0  0  0  0
  6  8  2  0  0  0  0
  7 12  1  0  0  0  0
  8  9  1  0  0  0  0
  8 10  1  0  0  0  0
 10 11  1  0  0  0  0
 10 12  2  0  0  0  0
 12 32  1  0  0  0  0
 13 17  1  0  0  0  0
 17 18  1  6  0  0  0
 17 22  1  0  0  0  0
 23  1  1  0  0  0  0
 24  2  1  0  0  0  0
 26 22  1  6  0  0  0
 27 26  1  0  0  0  0
 27 28  1  0  0  0  0
 27 30  1  6  0  0  0
 28 13  1  0  0  0  0
 28 29  1  6  0  0  0
 31 30  1  0  0  0  0
 32 26  1  0  0  0  0
 32 31  1  0  0  0  0
M  CHG  3  14  -1  15  -1  16  -1
M  END
>  <CHROM.1>
-155.29425352,37.26935295,178.20262258,-155.49023294,90.33032455,-45.94443803
165.39070846,147.21066524,71.63261607,10.86364836,0.28569909,-2.59268870
-0.85049750,-1.76641633

>  <Name>
2au4_lig

>  <RI>
0

>  <Rbt.Current_Directory>
/home/itssahil/PROJECTS/Mol_Feturizer/New_Systems/rnas/2au4

>  <Rbt.Executable>
rbdock ($Id: //depot/dev/client3/rdock/2013.1/src/exe/rbdock.cxx#4 $)

>  <Rbt.Library>
libRbt.so (2013.1, Build901 2013/11/27)

>  <Rbt.Parameter_File>
/export/apps/rDock/src/rDock_2013.1_src/data/scripts/dock_solv.prm

>  <Rbt.Receptor>
prm/blind_docking_80.prm

>  <SCORE>
-31.1954

>  <SCORE.INTER>
-14.9449

>  <SCORE.INTER.CONST>
1

>  <SCORE.INTER.POLAR>
-0.938636

>  <SCORE.INTER.ROT>
8

>  <SCORE.INTER.SOLV>
25.7826

>  <SCORE.INTER.VDW>
-24.362

>  <SCORE.INTER.norm>
-0.467029

>  <SCORE.INTRA>
-19.2071

>  <SCORE.INTRA.DIHEDRAL>
-39.8845

>  <SCORE.INTRA.DIHEDRAL.0>
76.3625

>  <SCORE.INTRA.POLAR>
0

>  <SCORE.INTRA.POLAR.0>
0

>  <SCORE.INTRA.REPUL>
-0.0229983

>  <SCORE.INTRA.REPUL.0>
0.12705

>  <SCORE.INTRA.SOLV>
-1.88179

>  <SCORE.INTRA.SOLV.lig_0>
-119.383

>  <SCORE.INTRA.VDW>
1.79105

>  <SCORE.INTRA.VDW.0>
-5.10464

>  <SCORE.INTRA.norm>
-0.600221

>  <SCORE.RESTR>
2.95664

>  <SCORE.RESTR.CAVITY>
2.95664

>  <SCORE.RESTR.norm>
0.092395

>  <SCORE.SYSTEM>
0

>  <SCORE.SYSTEM.CONST>
0

>  <SCORE.SYSTEM.DIHEDRAL>
0

>  <SCORE.SYSTEM.SOLV>
0

>  <SCORE.SYSTEM.norm>
0

>  <SCORE.heavy>
32

>  <SCORE.norm>
-0.974855

>  <RMSD>
8.435

$$$$
2au4_lig
 OpenBabel11021811423D
libRbt.so/2013.1/901 2013/11/27
 32 34  0  0  0  0  0  0  0  0999 V2000
   72.8616    4.1619   -2.6763 P   0  0  1  0  0  0  0  0  0  0  0  0
   74.7169    3.1495   -4.3799 P   0  0  1  0  0  0  0  0  0  0  0  0
   75.5855    1.8116   -6.5926 P   0  0  2  0  0  0  0  0  0  0  0  0
   70.7189    3.6741   -1.1925 C   0  0  0  0  0  0  0  0  0  0  0  0
   71.3136    3.7601   -2.4981 O   0  0  0  0  0  0  0  0  0  0  0  0
   70.9320    4.9375   -0.3717 C   0  0  0  0  0  0  0  0  0  0  0  0
   70.0856    6.0026   -0.8506 O   0  0  0  0  0  0  0  0  0  0  0  0
   70.6041    4.6901    1.0925 C   0  0  0  0  0  0  0  0  0  0  0  0
   71.7691    4.8462    1.9117 O   0  0  0  0  0  0  0  0  0  0  0  0
   69.5380    5.6913    1.4684 C   0  0  0  0  0  0  0  0  0  0  0  0
   69.9700    6.5287    2.5492 O   0  0  0  0  0  0  0  0  0  0  0  0
   69.2671    6.5158    0.2218 C   0  0  0  0  0  0  0  0  0  0  0  0
   65.8517    5.9621   -3.5326 N   0  0  0  0  0  0  0  0  0  0  0  0
   72.9442    5.3315   -3.5740 O   0  5  0  0  0  0  0  0  0  0  0  0
   74.7296    4.5684   -4.7857 O   0  5  0  0  0  0  0  0  0  0  0  0
   76.6215    2.8631   -6.5451 O   0  5  0  0  0  0  0  0  0  0  0  0
   67.2249    5.9511   -3.5938 C   0  0  1  0  0  0  0  0  0  0  0  0
   67.7583    5.7767   -4.7956 N   0  0  0  0  0  0  0  0  0  0  0  0
   73.4944    4.2066   -1.3407 O   0  0  0  0  0  0  0  0  0  0  0  0
   75.8960    2.5583   -3.7138 O   0  0  0  0  0  0  0  0  0  0  0  0
   75.0186    1.3904   -7.8908 O   0  0  0  0  0  0  0  0  0  0  0  0
   68.0152    6.1064   -2.5345 N   0  0  0  0  0  0  0  0  0  0  0  0
   73.4531    2.9093   -3.4517 O   0  0  0  0  0  0  0  0  0  0  0  0
   74.3791    2.2683   -5.6584 O   0  0  0  0  0  0  0  0  0  0  0  0
   76.1463    0.5108   -5.8350 O   0  0  0  0  0  0  0  0  0  0  0  0
   67.3094    6.2770   -1.3929 C   0  0  2  0  0  0  0  0  0  0  0  0
   65.9322    6.3009   -1.2424 C   0  0  2  0  0  0  0  0  0  0  0  0
   65.1056    6.1344   -2.3805 C   0  0  1  0  0  0  0  0  0  0  0  0
   63.8835    6.1517   -2.4405 O   0  0  0  0  0  0  0  0  0  0  0  0
   65.5810    6.5019    0.0968 N   0  0  0  0  0  0  0  0  0  0  0  0
   66.7434    6.5855    0.6570 C   0  0  0  0  0  0  0  0  0  0  0  0
   67.8364    6.4657   -0.1372 N   0  0  0  0  0  0  0  0  0  0  0  0
  1  5  1  1  0  0  0
  1 14  1  0  0  0  0
  1 19  2  0  0  0  0
  2 15  1  6  0  0  0
  2 20  2  0  0  0  0
  2 23  1  0  0  0  0
  3 16  1  6  0  0  0
  3 21  2  0  0  0  0
  3 24  1  0  0  0  0
  3 25  1  0  0  0  0
  4  6  1  0  0  0  0
  5  4  1  0  0  0  0
  6  7  1  0  0  0  0
  6  8  2  0  0  0  0
  7 12  1  0  0  0  0
  8  9  1  0  0  0  0
  8 10  1  0  0  0  0
 10 11  1  0  0  0  0
 10 12  2  0  0  0  0
 12 32  1  0  0  0  0
 13 17  1  0  0  0  0
 17 18  1  6  0  0  0
 17 22  1  0  0  0  0
 23  1  1  0  0  0  0
 24  2  1  0  0  0  0
 26 22  1  6  0  0  0
 27 26  1  0  0  0  0
 27 28  1  0  0  0  0
 27 30  1  6  0  0  0
 28 13  1  0  0  0  0
 28 29  1  6  0  0  0
 31 30  1  0  0  0  0
 32 26  1  0  0  0  0
 32 31  1  0  0  0  0
M  CHG  3  14  -1  15  -1  16  -1
M  END
>  <CHROM.1>
-124.36087375,-24.43549131,-31.66268528,74.05556813,52.86117561,-14.79535418
152.71176984,87.29118409,71.19224979,4.47219102,-2.66357901,-0.56702956,-0.30496108
1.33347903

>  <Name>
2au4_lig

>  <RI>
0

>  <Rbt.Current_Directory>
/home/itssahil/PROJECTS/Mol_Feturizer/New_Systems/rnas/2au4

>  <Rbt.Executable>
rbdock ($Id: //depot/dev/client3/rdock/2013.1/src/exe/rbdock.cxx#4 $)

>  <Rbt.Library>
libRbt.so (2013.1, Build901 2013/11/27)

>  <Rbt.Parameter_File>
/export/apps/rDock/src/rDock_2013.1_src/data/scripts/dock_solv.prm

>  <Rbt.Receptor>
prm/pocket_docking_8.prm

>  <SCORE>
-38.3707

>  <SCORE.INTER>
-21.1194

>  <SCORE.INTER.CONST>
1

>  <SCORE.INTER.POLAR>
-1.77035

>  <SCORE.INTER.ROT>
8

>  <SCORE.INTER.SOLV>
47.7118

>  <SCORE.INTER.VDW>
-33.0157

>  <SCORE.INTER.norm>
-0.659981

>  <SCORE.INTRA>
-17.3106

>  <SCORE.INTRA.DIHEDRAL>
-40.9556

>  <SCORE.INTRA.DIHEDRAL.0>
76.3625

>  <SCORE.INTRA.POLAR>
0

>  <SCORE.INTRA.POLAR.0>
0

>  <SCORE.INTRA.REPUL>
0.0367658

>  <SCORE.INTRA.REPUL.0>
0.12705

>  <SCORE.INTRA.SOLV>
-2.7615

>  <SCORE.INTRA.SOLV.lig_0>
-119.383

>  <SCORE.INTRA.VDW>
4.36409

>  <SCORE.INTRA.VDW.0>
-5.10464

>  <SCORE.INTRA.norm>
-0.540957

>  <SCORE.RESTR>
0.0593132

>  <SCORE.RESTR.CAVITY>
0.0593132

>  <SCORE.RESTR.norm>
0.00185354

>  <SCORE.SYSTEM>
0

>  <SCORE.SYSTEM.CONST>
0

>  <SCORE.SYSTEM.DIHEDRAL>
0

>  <SCORE.SYSTEM.SOLV>
0

>  <SCORE.SYSTEM.norm>
0

>  <SCORE.heavy>
32

>  <SCORE.norm>
-1.19908

>  <RMSD>
8.471

$$$$
2au4_lig
 OpenBabel11021811423D
libRbt.so/2013.1/901 2013/11/27
 32 34  0  0  0  0  0  0  0  0999 V2000
   68.7022    7.8379    3.1654 P   0  0  1  0  0  0  0  0  0  0  0  0
   68.6388    6.4176    0.8528 P   0  0  1  0  0  0  0  0  0  0  0  0
   68.9575    5.5719   -1.7209 P   0  0  2  0  0  0  0  0  0  0  0  0
   69.9077   10.0705    3.9353 C   0  0  0  0  0  0  0  0  0  0  0  0
   69.9313    8.6374    3.8283 O   0  0  0  0  0  0  0  0  0  0  0  0
   71.1078   10.7238    3.2657 C   0  0  0  0  0  0  0  0  0  0  0  0
   70.6821   11.5857    2.1904 O   0  0  0  0  0  0  0  0  0  0  0  0
   71.8925   11.5600    4.2645 C   0  0  0  0  0  0  0  0  0  0  0  0
   73.2126   11.0339    4.4475 O   0  0  0  0  0  0  0  0  0  0  0  0
   71.9396   12.9624    3.7064 C   0  0  0  0  0  0  0  0  0  0  0  0
   73.2916   13.3994    3.5135 O   0  0  0  0  0  0  0  0  0  0  0  0
   71.1916   12.9221    2.3850 C   0  0  0  0  0  0  0  0  0  0  0  0
   66.6015   14.1477    0.5154 N   0  0  0  0  0  0  0  0  0  0  0  0
   68.6372    6.4910    3.7675 O   0  5  0  0  0  0  0  0  0  0  0  0
   69.3367    5.2177    1.3541 O   0  5  0  0  0  0  0  0  0  0  0  0
   67.5225    5.2269   -1.7741 O   0  5  0  0  0  0  0  0  0  0  0  0
   67.3780   13.0412    0.2658 C   0  0  1  0  0  0  0  0  0  0  0  0
   66.8807   12.1539   -0.5853 N   0  0  0  0  0  0  0  0  0  0  0  0
   67.5100    8.7123    3.1753 O   0  0  0  0  0  0  0  0  0  0  0  0
   67.1620    6.4681    0.8468 O   0  0  0  0  0  0  0  0  0  0  0  0
   69.9618    4.5194   -1.4609 O   0  0  0  0  0  0  0  0  0  0  0  0
   68.5692   12.8315    0.8207 N   0  0  0  0  0  0  0  0  0  0  0  0
   69.1726    7.6759    1.6579 O   0  0  0  0  0  0  0  0  0  0  0  0
   69.1484    6.7105   -0.6236 O   0  0  0  0  0  0  0  0  0  0  0  0
   69.3500    6.3257   -3.0842 O   0  0  0  0  0  0  0  0  0  0  0  0
   68.9255   13.8338    1.6567 C   0  0  2  0  0  0  0  0  0  0  0  0
   68.2071   14.9780    1.9641 C   0  0  2  0  0  0  0  0  0  0  0  0
   66.9409   15.1859    1.3642 C   0  0  1  0  0  0  0  0  0  0  0  0
   66.1849   16.1390    1.4972 O   0  0  0  0  0  0  0  0  0  0  0  0
   68.9099   15.7789    2.8706 N   0  0  0  0  0  0  0  0  0  0  0  0
   69.9848   15.0824    3.0483 C   0  0  0  0  0  0  0  0  0  0  0  0
   70.0955   13.9104    2.3746 N   0  0  0  0  0  0  0  0  0  0  0  0
  1  5  1  1  0  0  0
  1 14  1  0  0  0  0
  1 19  2  0  0  0  0
  2 15  1  1  0  0  0
  2 20  2  0  0  0  0
  2 23  1  0  0  0  0
  3 16  1  6  0  0  0
  3 21  2  0  0  0  0
  3 24  1  0  0  0  0
  3 25  1  0  0  0  0
  4  6  1  0  0  0  0
  5  4  1  0  0  0  0
  6  7  1  0  0  0  0
  6  8  2  0  0  0  0
  7 12  1  0  0  0  0
  8  9  1  0  0  0  0
  8 10  1  0  0  0  0
 10 11  1  0  0  0  0
 10 12  2  0  0  0  0
 12 32  1  0  0  0  0
 13 17  1  0  0  0  0
 17 18  1  6  0  0  0
 17 22  1  0  0  0  0
 23  1  1  0  0  0  0
 24  2  1  0  0  0  0
 26 22  1  6  0  0  0
 27 26  1  0  0  0  0
 27 28  1  0  0  0  0
 27 30  1  6  0  0  0
 28 13  1  0  0  0  0
 28 29  1  6  0  0  0
 31 30  1  0  0  0  0
 32 26  1  0  0  0  0
 32 31  1  0  0  0  0
M  CHG  3  14  -1  15  -1  16  -1
M  END
>  <CHROM.1>
-151.47924032,-73.09620918,56.29058497,118.34542578,-123.54670835,-31.82581645
151.47500125,58.49746518,69.18192143,9.98266013,1.54221738,-1.66090446,-0.81004507
0.23346162

>  <Name>
2au4_lig

>  <RI>
0

>  <Rbt.Current_Directory>
/home/itssahil/PROJECTS/Mol_Feturizer/New_Systems/rnas/2au4

>  <Rbt.Executable>
rbdock ($Id: //depot/dev/client3/rdock/2013.1/src/exe/rbdock.cxx#4 $)

>  <Rbt.Library>
libRbt.so (2013.1, Build901 2013/11/27)

>  <Rbt.Parameter_File>
/export/apps/rDock/src/rDock_2013.1_src/data/scripts/dock_solv.prm

>  <Rbt.Receptor>
prm/pocket_docking_7.prm

>  <SCORE>
-42.3908

>  <SCORE.INTER>
-21.3839

>  <SCORE.INTER.CONST>
1

>  <SCORE.INTER.POLAR>
-2.09596

>  <SCORE.INTER.ROT>
8

>  <SCORE.INTER.SOLV>
25.1904

>  <SCORE.INTER.VDW>
-24.5996

>  <SCORE.INTER.norm>
-0.668248

>  <SCORE.INTRA>
-21.0069

>  <SCORE.INTRA.DIHEDRAL>
-41.3538

>  <SCORE.INTRA.DIHEDRAL.0>
76.3625

>  <SCORE.INTRA.POLAR>
0

>  <SCORE.INTRA.POLAR.0>
0

>  <SCORE.INTRA.REPUL>
0.0799068

>  <SCORE.INTRA.REPUL.0>
0.12705

>  <SCORE.INTRA.SOLV>
-4.73614

>  <SCORE.INTRA.SOLV.lig_0>
-119.383

>  <SCORE.INTRA.VDW>
1.63859

>  <SCORE.INTRA.VDW.0>
-5.10464

>  <SCORE.INTRA.norm>
-0.656464

>  <SCORE.RESTR>
0

>  <SCORE.RESTR.CAVITY>
0

>  <SCORE.RESTR.norm>
0

>  <SCORE.SYSTEM>
0

>  <SCORE.SYSTEM.CONST>
0

>  <SCORE.SYSTEM.DIHEDRAL>
0

>  <SCORE.SYSTEM.SOLV>
0

>  <SCORE.SYSTEM.norm>
0

>  <SCORE.heavy>
32

>  <SCORE.norm>
-1.32471

>  <RMSD>
8.490

$$$$
2au4_lig
 OpenBabel11021811423D
libRbt.so/2013.1/901 2013/11/27
 32 34  0  0  0  0  0  0  0  0999 V2000
   72.9430   12.5344    3.5258 P   0  0  1  0  0  0  0  0  0  0  0  0
   72.9324   11.1867    1.1693 P   0  0  1  0  0  0  0  0  0  0  0  0
   74.1016   12.8874   -0.6143 P   0  0  2  0  0  0  0  0  0  0  0  0
   71.3351   10.8542    4.7994 C   0  0  0  0  0  0  0  0  0  0  0  0
   71.4891   11.9312    3.8602 O   0  0  0  0  0  0  0  0  0  0  0  0
   70.4111   11.2158    5.9530 C   0  0  0  0  0  0  0  0  0  0  0  0
   69.2333   11.8917    5.4671 O   0  0  0  0  0  0  0  0  0  0  0  0
   69.9696    9.9674    6.7009 C   0  0  0  0  0  0  0  0  0  0  0  0
   70.4505    9.9821    8.0505 O   0  0  0  0  0  0  0  0  0  0  0  0
   68.4601    9.9559    6.6626 C   0  0  0  0  0  0  0  0  0  0  0  0
   67.9071    9.9558    7.9856 O   0  0  0  0  0  0  0  0  0  0  0  0
   68.0421   11.2029    5.9028 C   0  0  0  0  0  0  0  0  0  0  0  0
   66.2508   12.6549    1.3476 N   0  0  0  0  0  0  0  0  0  0  0  0
   72.9987   13.9270    4.0141 O   0  5  0  0  0  0  0  0  0  0  0  0
   74.1039   10.4058    1.6117 O   0  5  0  0  0  0  0  0  0  0  0  0
   73.3725   14.0972   -0.1831 O   0  5  0  0  0  0  0  0  0  0  0  0
   67.1063   13.3132    2.1988 C   0  0  1  0  0  0  0  0  0  0  0  0
   67.5360   14.5018    1.7970 N   0  0  0  0  0  0  0  0  0  0  0  0
   73.9685   11.5582    3.9517 O   0  0  0  0  0  0  0  0  0  0  0  0
   71.5755   10.6109    1.2729 O   0  0  0  0  0  0  0  0  0  0  0  0
   74.6070   12.7830   -1.9991 O   0  0  0  0  0  0  0  0  0  0  0  0
   67.5052   12.8261    3.3711 N   0  0  0  0  0  0  0  0  0  0  0  0
   72.9402   12.5739    1.9387 O   0  0  0  0  0  0  0  0  0  0  0  0
   73.1675   11.6270   -0.3394 O   0  0  0  0  0  0  0  0  0  0  0  0
   75.3274   12.6457    0.3954 O   0  0  0  0  0  0  0  0  0  0  0  0
   66.9701   11.6099    3.6264 C   0  0  2  0  0  0  0  0  0  0  0  0
   66.1049   10.8793    2.8281 C   0  0  2  0  0  0  0  0  0  0  0  0
   65.6898   11.4126    1.5833 C   0  0  1  0  0  0  0  0  0  0  0  0
   64.9191   10.9251    0.7673 O   0  0  0  0  0  0  0  0  0  0  0  0
   65.7710    9.6648    3.4371 N   0  0  0  0  0  0  0  0  0  0  0  0
   66.4409    9.7386    4.5406 C   0  0  0  0  0  0  0  0  0  0  0  0
   67.1862   10.8519    4.7528 N   0  0  0  0  0  0  0  0  0  0  0  0
  1  5  1  1  0  0  0
  1 14  1  0  0  0  0
  1 19  2  0  0  0  0
  2 15  1  1  0  0  0
  2 20  2  0  0  0  0
  2 23  1  0  0  0  0
  3 16  1  1  0  0  0
  3 21  2  0  0  0  0
  3 24  1  0  0  0  0
  3 25  1  0  0  0  0
  4  6  1  0  0  0  0
  5  4  1  0  0  0  0
  6  7  1  0  0  0  0
  6  8  2  0  0  0  0
  7 12  1  0  0  0  0
  8  9  1  0  0  0  0
  8 10  1  0  0  0  0
 10 11  1  0  0  0  0
 10 12  2  0  0  0  0
 12 32  1  0  0  0  0
 13 17  1  0  0  0  0
 17 18  1  1  0  0  0
 17 22  1  0  0  0  0
 23  1  1  0  0  0  0
 24  2  1  0  0  0  0
 26 22  1  1  0  0  0
 27 26  1  0  0  0  0
 27 28  1  0  0  0  0
 27 30  1  1  0  0  0
 28 13  1  0  0  0  0
 28 29  1  1  0  0  0
 31 30  1  0  0  0  0
 32 26  1  0  0  0  0
 32 31  1  0  0  0  0
M  CHG  3  14  -1  15  -1  16  -1
M  END
>  <CHROM.1>
-114.00559452,-56.91762417,-71.38140457,44.36033682,122.05016985,-37.43106026
-67.49339658,-80.20546780,70.49072212,11.70978648,2.88910062,-0.56272477
0.05157019,1.85040117

>  <Name>
2au4_lig

>  <RI>
0

>  <Rbt.Current_Directory>
/home/itssahil/PROJECTS/Mol_Feturizer/New_Systems/rnas/2au4

>  <Rbt.Executable>
rbdock ($Id: //depot/dev/client3/rdock/2013.1/src/exe/rbdock.cxx#4 $)

>  <Rbt.Library>
libRbt.so (2013.1, Build901 2013/11/27)

>  <Rbt.Parameter_File>
/export/apps/rDock/src/rDock_2013.1_src/data/scripts/dock_solv.prm

>  <Rbt.Receptor>
prm/pocket_docking_6.prm

>  <SCORE>
-29.6521

>  <SCORE.INTER>
-9.60539

>  <SCORE.INTER.CONST>
1

>  <SCORE.INTER.POLAR>
-1.28286

>  <SCORE.INTER.ROT>
8

>  <SCORE.INTER.SOLV>
26.9154

>  <SCORE.INTER.VDW>
-20.0325

>  <SCORE.INTER.norm>
-0.300169

>  <SCORE.INTRA>
-20.059

>  <SCORE.INTRA.DIHEDRAL>
-39.2503

>  <SCORE.INTRA.DIHEDRAL.0>
76.3625

>  <SCORE.INTRA.POLAR>
0

>  <SCORE.INTRA.POLAR.0>
0

>  <SCORE.INTRA.REPUL>
0.0943802

>  <SCORE.INTRA.REPUL.0>
0.12705

>  <SCORE.INTRA.SOLV>
-5.4721

>  <SCORE.INTRA.SOLV.lig_0>
-119.383

>  <SCORE.INTRA.VDW>
1.83035

>  <SCORE.INTRA.VDW.0>
-5.10464

>  <SCORE.INTRA.norm>
-0.626842

>  <SCORE.RESTR>
0.0122736

>  <SCORE.RESTR.CAVITY>
0.0122736

>  <SCORE.RESTR.norm>
0.000383549

>  <SCORE.SYSTEM>
0

>  <SCORE.SYSTEM.CONST>
0

>  <SCORE.SYSTEM.DIHEDRAL>
0

>  <SCORE.SYSTEM.SOLV>
0

>  <SCORE.SYSTEM.norm>
0

>  <SCORE.heavy>
32

>  <SCORE.norm>
-0.926627

>  <RMSD>
8.522

$$$$
2au4_lig
 OpenBabel11021811423D
libRbt.so/2013.1/901 2013/11/27
 32 34  0  0  0  0  0  0  0  0999 V2000
   68.9947    9.2776    3.9048 P   0  0  1  0  0  0  0  0  0  0  0  0
   67.8887   11.0198    5.6686 P   0  0  1  0  0  0  0  0  0  0  0  0
   65.2551   11.7048    5.4801 P   0  0  2  0  0  0  0  0  0  0  0  0
   69.8698   10.0557    1.5259 C   0  0  0  0  0  0  0  0  0  0  0  0
   70.1396    9.4113    2.7819 O   0  0  0  0  0  0  0  0  0  0  0  0
   71.0204   10.9388    1.0659 C   0  0  0  0  0  0  0  0  0  0  0  0
   70.5977   12.3145    0.9712 O   0  0  0  0  0  0  0  0  0  0  0  0
   72.1817   10.8634    2.0449 C   0  0  0  0  0  0  0  0  0  0  0  0
   73.3403   10.2954    1.4222 O   0  0  0  0  0  0  0  0  0  0  0  0
   72.4494   12.2774    2.5024 C   0  0  0  0  0  0  0  0  0  0  0  0
   73.7932   12.6756    2.1992 O   0  0  0  0  0  0  0  0  0  0  0  0
   71.4483   13.1587    1.7757 C   0  0  0  0  0  0  0  0  0  0  0  0
   67.0354   15.5707    2.6564 N   0  0  0  0  0  0  0  0  0  0  0  0
   67.7025    9.0330    3.2330 O   0  5  0  0  0  0  0  0  0  0  0  0
   67.9505    9.9120    6.6418 O   0  5  0  0  0  0  0  0  0  0  0  0
   64.0396   11.1837    4.8226 O   0  5  0  0  0  0  0  0  0  0  0  0
   67.4492   14.8904    1.5359 C   0  0  1  0  0  0  0  0  0  0  0  0
   66.5923   14.8472    0.5245 N   0  0  0  0  0  0  0  0  0  0  0  0
   69.4702    8.3528    4.9559 O   0  0  0  0  0  0  0  0  0  0  0  0
   68.0600   12.4156    6.1223 O   0  0  0  0  0  0  0  0  0  0  0  0
   65.5603   13.1499    5.4312 O   0  0  0  0  0  0  0  0  0  0  0  0
   68.6348   14.2962    1.4255 N   0  0  0  0  0  0  0  0  0  0  0  0
   68.9526   10.7378    4.5262 O   0  0  0  0  0  0  0  0  0  0  0  0
   66.5084   10.9209    4.8874 O   0  0  0  0  0  0  0  0  0  0  0  0
   65.2412   11.2384    7.0173 O   0  0  0  0  0  0  0  0  0  0  0  0
   69.3835   14.4412    2.5431 C   0  0  2  0  0  0  0  0  0  0  0  0
   69.0454   15.1067    3.7103 C   0  0  2  0  0  0  0  0  0  0  0  0
   67.7795   15.7341    3.8111 C   0  0  1  0  0  0  0  0  0  0  0  0
   67.3245   16.3805    4.7452 O   0  0  0  0  0  0  0  0  0  0  0  0
   70.0865   15.0380    4.6423 N   0  0  0  0  0  0  0  0  0  0  0  0
   70.9679   14.3509    3.9919 C   0  0  0  0  0  0  0  0  0  0  0  0
   70.6516   13.9465    2.7364 N   0  0  0  0  0  0  0  0  0  0  0  0
  1  5  1  6  0  0  0
  1 14  1  0  0  0  0
  1 19  2  0  0  0  0
  2 15  1  1  0  0  0
  2 20  2  0  0  0  0
  2 23  1  0  0  0  0
  3 16  1  6  0  0  0
  3 21  2  0  0  0  0
  3 24  1  0  0  0  0
  3 25  1  0  0  0  0
  4  6  1  0  0  0  0
  5  4  1  0  0  0  0
  6  7  1  0  0  0  0
  6  8  2  0  0  0  0
  7 12  1  0  0  0  0
  8  9  1  0  0  0  0
  8 10  1  0  0  0  0
 10 11  1  0  0  0  0
 10 12  2  0  0  0  0
 12 32  1  0  0  0  0
 13 17  1  0  0  0  0
 17 18  1  6  0  0  0
 17 22  1  0  0  0  0
 23  1  1  0  0  0  0
 24  2  1  0  0  0  0
 26 22  1  6  0  0  0
 27 26  1  0  0  0  0
 27 28  1  0  0  0  0
 27 30  1  6  0  0  0
 28 13  1  0  0  0  0
 28 29  1  6  0  0  0
 31 30  1  0  0  0  0
 32 26  1  0  0  0  0
 32 31  1  0  0  0  0
M  CHG  3  14  -1  15  -1  16  -1
M  END
>  <CHROM.1>
36.78533879,46.57056316,-164.92151619,-117.95492221,139.26517419,-33.36969934
178.30586761,90.65252565,68.70285062,12.12311655,3.70279660,-0.19791068,-0.52606195
2.85241191

>  <Name>
2au4_lig

>  <RI>
0

>  <Rbt.Current_Directory>
/home/itssahil/PROJECTS/Mol_Feturizer/New_Systems/rnas/2au4

>  <Rbt.Executable>
rbdock ($Id: //depot/dev/client3/rdock/2013.1/src/exe/rbdock.cxx#4 $)

>  <Rbt.Library>
libRbt.so (2013.1, Build901 2013/11/27)

>  <Rbt.Parameter_File>
/export/apps/rDock/src/rDock_2013.1_src/data/scripts/dock_solv.prm

>  <Rbt.Receptor>
prm/pocket_docking_8.prm

>  <SCORE>
-33.8979

>  <SCORE.INTER>
-10.9319

>  <SCORE.INTER.CONST>
1

>  <SCORE.INTER.POLAR>
-1.61554

>  <SCORE.INTER.ROT>
8

>  <SCORE.INTER.SOLV>
11.5063

>  <SCORE.INTER.VDW>
-14.6716

>  <SCORE.INTER.norm>
-0.341621

>  <SCORE.INTRA>
-22.966

>  <SCORE.INTRA.DIHEDRAL>
-44.1221

>  <SCORE.INTRA.DIHEDRAL.0>
76.3625

>  <SCORE.INTRA.POLAR>
0

>  <SCORE.INTRA.POLAR.0>
0

>  <SCORE.INTRA.REPUL>
0.0514272

>  <SCORE.INTRA.REPUL.0>
0.12705

>  <SCORE.INTRA.SOLV>
-3.50894

>  <SCORE.INTRA.SOLV.lig_0>
-119.383

>  <SCORE.INTRA.VDW>
0.592358

>  <SCORE.INTRA.VDW.0>
-5.10464

>  <SCORE.INTRA.norm>
-0.717688

>  <SCORE.RESTR>
0

>  <SCORE.RESTR.CAVITY>
0

>  <SCORE.RESTR.norm>
0

>  <SCORE.SYSTEM>
0

>  <SCORE.SYSTEM.CONST>
0

>  <SCORE.SYSTEM.DIHEDRAL>
0

>  <SCORE.SYSTEM.SOLV>
0

>  <SCORE.SYSTEM.norm>
0

>  <SCORE.heavy>
32

>  <SCORE.norm>
-1.05931

>  <RMSD>
8.553

$$$$
2au4_lig
 OpenBabel11021811423D
libRbt.so/2013.1/901 2013/11/27
 32 34  0  0  0  0  0  0  0  0999 V2000
   67.7646   15.5749    2.6406 P   0  0  1  0  0  0  0  0  0  0  0  0
   69.9395   13.9531    2.5465 P   0  0  1  0  0  0  0  0  0  0  0  0
   72.4117   13.1127    1.7576 P   0  0  2  0  0  0  0  0  0  0  0  0
   66.3812   15.5992    0.3787 C   0  0  0  0  0  0  0  0  0  0  0  0
   67.6455   15.7498    1.0454 O   0  0  0  0  0  0  0  0  0  0  0  0
   66.5020   15.7243   -1.1330 C   0  0  0  0  0  0  0  0  0  0  0  0
   66.3211   14.4402   -1.7645 O   0  0  0  0  0  0  0  0  0  0  0  0
   65.4503   16.6767   -1.6803 C   0  0  0  0  0  0  0  0  0  0  0  0
   66.0619   17.8275   -2.2757 O   0  0  0  0  0  0  0  0  0  0  0  0
   64.6540   15.8969   -2.6991 C   0  0  0  0  0  0  0  0  0  0  0  0
   64.7145   16.5169   -3.9906 O   0  0  0  0  0  0  0  0  0  0  0  0
   65.2591   14.5043   -2.7399 C   0  0  0  0  0  0  0  0  0  0  0  0
   64.2937    9.8605   -0.8504 N   0  0  0  0  0  0  0  0  0  0  0  0
   67.3725   16.8450    3.2840 O   0  5  0  0  0  0  0  0  0  0  0  0
   69.8220   13.1330    3.7679 O   0  5  0  0  0  0  0  0  0  0  0  0
   73.8117   13.5765    1.8356 O   0  5  0  0  0  0  0  0  0  0  0  0
   65.4881   10.5353   -0.9390 C   0  0  1  0  0  0  0  0  0  0  0  0
   66.5569    9.9019   -0.4748 N   0  0  0  0  0  0  0  0  0  0  0  0
   67.1004   14.3120    3.0279 O   0  0  0  0  0  0  0  0  0  0  0  0
   69.3713   13.4693    1.2711 O   0  0  0  0  0  0  0  0  0  0  0  0
   71.8543   12.6584    0.4665 O   0  0  0  0  0  0  0  0  0  0  0  0
   65.6135   11.7548   -1.4565 N   0  0  0  0  0  0  0  0  0  0  0  0
   69.3269   15.3849    2.8483 O   0  0  0  0  0  0  0  0  0  0  0  0
   71.4770   14.2779    2.3099 O   0  0  0  0  0  0  0  0  0  0  0  0
   72.2013   11.9467    2.8424 O   0  0  0  0  0  0  0  0  0  0  0  0
   64.4299   12.2507   -1.8852 C   0  0  2  0  0  0  0  0  0  0  0  0
   63.1864   11.6417   -1.8340 C   0  0  2  0  0  0  0  0  0  0  0  0
   63.0706   10.3432   -1.2803 C   0  0  1  0  0  0  0  0  0  0  0  0
   62.0685    9.6486   -1.1759 O   0  0  0  0  0  0  0  0  0  0  0  0
   62.2018   12.4733   -2.3782 N   0  0  0  0  0  0  0  0  0  0  0  0
   62.8988   13.5085   -2.7165 C   0  0  0  0  0  0  0  0  0  0  0  0
   64.2319   13.4799   -2.4682 N   0  0  0  0  0  0  0  0  0  0  0  0
  1  5  1  6  0  0  0
  1 14  1  0  0  0  0
  1 19  2  0  0  0  0
  2 15  1  1  0  0  0
  2 20  2  0  0  0  0
  2 23  1  0  0  0  0
  3 16  1  6  0  0  0
  3 21  2  0  0  0  0
  3 24  1  0  0  0  0
  3 25  1  0  0  0  0
  4  6  1  0  0  0  0
  5  4  1  0  0  0  0
  6  7  1  0  0  0  0
  6  8  2  0  0  0  0
  7 12  1  0  0  0  0
  8  9  1  0  0  0  0
  8 10  1  0  0  0  0
 10 11  1  0  0  0  0
 10 12  2  0  0  0  0
 12 32  1  0  0  0  0
 13 17  1  0  0  0  0
 17 18  1  6  0  0  0
 17 22  1  0  0  0  0
 23  1  1  0  0  0  0
 24  2  1  0  0  0  0
 26 22  1  6  0  0  0
 27 26  1  0  0  0  0
 27 28  1  0  0  0  0
 27 30  1  6  0  0  0
 28 13  1  0  0  0  0
 28 29  1  6  0  0  0
 31 30  1  0  0  0  0
 32 26  1  0  0  0  0
 32 31  1  0  0  0  0
M  CHG  3  14  -1  15  -1  16  -1
M  END
>  <CHROM.1>
-82.57432644,-86.68277151,-170.66050720,108.33393197,-176.67014669,-30.35899797
-79.22666315,74.75865767,67.30551908,13.72041688,0.22306309,0.08339052,-0.55817187
-0.06363612

>  <Name>
2au4_lig

>  <RI>
0

>  <Rbt.Current_Directory>
/home/itssahil/PROJECTS/Mol_Feturizer/New_Systems/rnas/2au4

>  <Rbt.Executable>
rbdock ($Id: //depot/dev/client3/rdock/2013.1/src/exe/rbdock.cxx#4 $)

>  <Rbt.Library>
libRbt.so (2013.1, Build901 2013/11/27)

>  <Rbt.Parameter_File>
/export/apps/rDock/src/rDock_2013.1_src/data/scripts/dock_solv.prm

>  <Rbt.Receptor>
prm/pocket_docking_8.prm

>  <SCORE>
-39.9422

>  <SCORE.INTER>
-13.8724

>  <SCORE.INTER.CONST>
1

>  <SCORE.INTER.POLAR>
-1.25

>  <SCORE.INTER.ROT>
8

>  <SCORE.INTER.SOLV>
15.3123

>  <SCORE.INTER.VDW>
-19.119

>  <SCORE.INTER.norm>
-0.433512

>  <SCORE.INTRA>
-26.0698

>  <SCORE.INTRA.DIHEDRAL>
-49.5382

>  <SCORE.INTRA.DIHEDRAL.0>
76.3625

>  <SCORE.INTRA.POLAR>
0

>  <SCORE.INTRA.POLAR.0>
0

>  <SCORE.INTRA.REPUL>
0.0627975

>  <SCORE.INTRA.REPUL.0>
0.12705

>  <SCORE.INTRA.SOLV>
-6.27489

>  <SCORE.INTRA.SOLV.lig_0>
-119.383

>  <SCORE.INTRA.VDW>
1.52271

>  <SCORE.INTRA.VDW.0>
-5.10464

>  <SCORE.INTRA.norm>
-0.814683

>  <SCORE.RESTR>
0

>  <SCORE.RESTR.CAVITY>
0

>  <SCORE.RESTR.norm>
0

>  <SCORE.SYSTEM>
0

>  <SCORE.SYSTEM.CONST>
0

>  <SCORE.SYSTEM.DIHEDRAL>
0

>  <SCORE.SYSTEM.SOLV>
0

>  <SCORE.SYSTEM.norm>
0

>  <SCORE.heavy>
32

>  <SCORE.norm>
-1.24819

>  <RMSD>
8.556

$$$$
2au4_lig
 OpenBabel11021811423D
libRbt.so/2013.1/901 2013/11/27
 32 34  0  0  0  0  0  0  0  0999 V2000
   68.5817    8.2253    0.6596 P   0  0  1  0  0  0  0  0  0  0  0  0
   68.1235    6.6679   -1.5162 P   0  0  1  0  0  0  0  0  0  0  0  0
   69.3632    4.3117   -2.1097 P   0  0  2  0  0  0  0  0  0  0  0  0
   69.4379   10.2205    2.1816 C   0  0  0  0  0  0  0  0  0  0  0  0
   69.2551    9.6722    0.8657 O   0  0  0  0  0  0  0  0  0  0  0  0
   70.0620   11.6080    2.1523 C   0  0  0  0  0  0  0  0  0  0  0  0
   70.1356   12.1029    0.7996 O   0  0  0  0  0  0  0  0  0  0  0  0
   69.2374   12.5868    2.9736 C   0  0  0  0  0  0  0  0  0  0  0  0
   69.9886   13.0782    4.0904 O   0  0  0  0  0  0  0  0  0  0  0  0
   68.8524   13.7108    2.0416 C   0  0  0  0  0  0  0  0  0  0  0  0
   69.3339   14.9727    2.5231 O   0  0  0  0  0  0  0  0  0  0  0  0
   69.4669   13.3775    0.6931 C   0  0  0  0  0  0  0  0  0  0  0  0
   65.0276   15.2862   -0.9549 N   0  0  0  0  0  0  0  0  0  0  0  0
   69.4634    7.2054    1.2623 O   0  5  0  0  0  0  0  0  0  0  0  0
   67.1094    6.1120   -0.5993 O   0  5  0  0  0  0  0  0  0  0  0  0
   68.9617    4.4829   -3.5207 O   0  5  0  0  0  0  0  0  0  0  0  0
   65.7445   15.5966    0.1761 C   0  0  1  0  0  0  0  0  0  0  0  0
   65.2200   16.5214    0.9691 N   0  0  0  0  0  0  0  0  0  0  0  0
   67.1602    8.3051    1.0583 O   0  0  0  0  0  0  0  0  0  0  0  0
   67.7973    6.8794   -2.9418 O   0  0  0  0  0  0  0  0  0  0  0  0
   68.5802    3.4287   -1.2202 O   0  0  0  0  0  0  0  0  0  0  0  0
   66.9017   15.0251    0.5001 N   0  0  0  0  0  0  0  0  0  0  0  0
   68.6340    8.0450   -0.9168 O   0  0  0  0  0  0  0  0  0  0  0  0
   69.4213    5.7544   -1.4373 O   0  0  0  0  0  0  0  0  0  0  0  0
   70.8989    3.8419   -2.0716 O   0  0  0  0  0  0  0  0  0  0  0  0
   67.2882   14.1039   -0.4124 C   0  0  2  0  0  0  0  0  0  0  0  0
   66.6300   13.7318   -1.5735 C   0  0  2  0  0  0  0  0  0  0  0  0
   65.3989   14.3499   -1.9032 C   0  0  1  0  0  0  0  0  0  0  0  0
   64.6735   14.1326   -2.8645 O   0  0  0  0  0  0  0  0  0  0  0  0
   67.3459   12.7432   -2.2569 N   0  0  0  0  0  0  0  0  0  0  0  0
   68.3682   12.5844   -1.4811 C   0  0  0  0  0  0  0  0  0  0  0  0
   68.4320   13.3432   -0.3587 N   0  0  0  0  0  0  0  0  0  0  0  0
  1  5  1  1  0  0  0
  1 14  1  0  0  0  0
  1 19  2  0  0  0  0
  2 15  1  1  0  0  0
  2 20  2  0  0  0  0
  2 23  1  0  0  0  0
  3 16  1  6  0  0  0
  3 21  2  0  0  0  0
  3 24  1  0  0  0  0
  3 25  1  0  0  0  0
  4  6  1  0  0  0  0
  5  4  1  0  0  0  0
  6  7  1  0  0  0  0
  6  8  2  0  0  0  0
  7 12  1  0  0  0  0
  8  9  1  0  0  0  0
  8 10  1  0  0  0  0
 10 11  1  0  0  0  0
 10 12  2  0  0  0  0
 12 32  1  0  0  0  0
 13 17  1  0  0  0  0
 17 18  1  1  0  0  0
 17 22  1  0  0  0  0
 23  1  1  0  0  0  0
 24  2  1  0  0  0  0
 26 22  1  1  0  0  0
 27 26  1  0  0  0  0
 27 28  1  0  0  0  0
 27 30  1  1  0  0  0
 28 13  1  0  0  0  0
 28 29  1  1  0  0  0
 31 30  1  0  0  0  0
 32 26  1  0  0  0  0
 32 31  1  0  0  0  0
M  CHG  3  14  -1  15  -1  16  -1
M  END
>  <CHROM.1>
-64.52333679,28.16866565,55.06140263,8.29453202,-178.71787397,152.43602223
176.51652950,72.54142617,68.22925414,10.08006462,-0.28144114,-1.27137149
-0.89355756,0.44249829

>  <Name>
2au4_lig

>  <RI>
0

>  <Rbt.Current_Directory>
/home/itssahil/PROJECTS/Mol_Feturizer/New_Systems/rnas/2au4

>  <Rbt.Executable>
rbdock ($Id: //depot/dev/client3/rdock/2013.1/src/exe/rbdock.cxx#4 $)

>  <Rbt.Library>
libRbt.so (2013.1, Build901 2013/11/27)

>  <Rbt.Parameter_File>
/export/apps/rDock/src/rDock_2013.1_src/data/scripts/dock_solv.prm

>  <Rbt.Receptor>
prm/pocket_docking_7.prm

>  <SCORE>
-41.541

>  <SCORE.INTER>
-14.876

>  <SCORE.INTER.CONST>
1

>  <SCORE.INTER.POLAR>
-1.5235

>  <SCORE.INTER.ROT>
8

>  <SCORE.INTER.SOLV>
30.4642

>  <SCORE.INTER.VDW>
-23.9271

>  <SCORE.INTER.norm>
-0.464876

>  <SCORE.INTRA>
-26.665

>  <SCORE.INTRA.DIHEDRAL>
-50.0829

>  <SCORE.INTRA.DIHEDRAL.0>
76.3625

>  <SCORE.INTRA.POLAR>
0

>  <SCORE.INTRA.POLAR.0>
0

>  <SCORE.INTRA.REPUL>
-0.12705

>  <SCORE.INTRA.REPUL.0>
0.12705

>  <SCORE.INTRA.SOLV>
-4.92908

>  <SCORE.INTRA.SOLV.lig_0>
-119.383

>  <SCORE.INTRA.VDW>
1.4762

>  <SCORE.INTRA.VDW.0>
-5.10464

>  <SCORE.INTRA.norm>
-0.833282

>  <SCORE.RESTR>
0

>  <SCORE.RESTR.CAVITY>
0

>  <SCORE.RESTR.norm>
0

>  <SCORE.SYSTEM>
0

>  <SCORE.SYSTEM.CONST>
0

>  <SCORE.SYSTEM.DIHEDRAL>
0

>  <SCORE.SYSTEM.SOLV>
0

>  <SCORE.SYSTEM.norm>
0

>  <SCORE.heavy>
32

>  <SCORE.norm>
-1.29816

>  <RMSD>
8.593

$$$$
2au4_lig
 OpenBabel11021811423D
libRbt.so/2013.1/901 2013/11/27
 32 34  0  0  0  0  0  0  0  0999 V2000
   70.9984   10.4591    2.6338 P   0  0  1  0  0  0  0  0  0  0  0  0
   71.7815   11.8397    4.8361 P   0  0  1  0  0  0  0  0  0  0  0  0
   71.1016   11.1020    7.3727 P   0  0  2  0  0  0  0  0  0  0  0  0
   73.2870   10.5959    1.3019 C   0  0  0  0  0  0  0  0  0  0  0  0
   72.5690   10.1522    2.4652 O   0  0  0  0  0  0  0  0  0  0  0  0
   73.7383   12.0448    1.4142 C   0  0  0  0  0  0  0  0  0  0  0  0
   74.8412   12.3034    0.5215 O   0  0  0  0  0  0  0  0  0  0  0  0
   72.6033   12.9915    1.0561 C   0  0  0  0  0  0  0  0  0  0  0  0
   72.2293   13.7922    2.1838 O   0  0  0  0  0  0  0  0  0  0  0  0
   73.1049   13.8525   -0.0786 C   0  0  0  0  0  0  0  0  0  0  0  0
   73.0682   15.2431    0.2693 O   0  0  0  0  0  0  0  0  0  0  0  0
   74.5287   13.4036   -0.3589 C   0  0  0  0  0  0  0  0  0  0  0  0
   72.5087   13.5322   -5.0461 N   0  0  0  0  0  0  0  0  0  0  0  0
   70.4269   10.7361    1.3006 O   0  5  0  0  0  0  0  0  0  0  0  0
   72.9915   11.0062    4.6972 O   0  5  0  0  0  0  0  0  0  0  0  0
   70.3370   10.0068    8.0029 O   0  5  0  0  0  0  0  0  0  0  0  0
   72.0253   14.0612   -3.8730 C   0  0  1  0  0  0  0  0  0  0  0  0
   70.8642   14.6977   -3.9496 N   0  0  0  0  0  0  0  0  0  0  0  0
   70.4026    9.4133    3.4927 O   0  0  0  0  0  0  0  0  0  0  0  0
   71.8962   13.2453    5.2773 O   0  0  0  0  0  0  0  0  0  0  0  0
   70.9486   12.4878    7.8627 O   0  0  0  0  0  0  0  0  0  0  0  0
   72.6503   13.9620   -2.7024 N   0  0  0  0  0  0  0  0  0  0  0  0
   71.0015   11.8177    3.4550 O   0  0  0  0  0  0  0  0  0  0  0  0
   70.7735   11.0964    5.8142 O   0  0  0  0  0  0  0  0  0  0  0  0
   72.6612   10.7184    7.4069 O   0  0  0  0  0  0  0  0  0  0  0  0
   73.8145   13.2799   -2.8025 C   0  0  2  0  0  0  0  0  0  0  0  0
   74.3728   12.7168   -3.9387 C   0  0  2  0  0  0  0  0  0  0  0  0
   73.6941   12.8312   -5.1767 C   0  0  1  0  0  0  0  0  0  0  0  0
   74.0210   12.3807   -6.2665 O   0  0  0  0  0  0  0  0  0  0  0  0
   75.5876   12.0909   -3.6390 N   0  0  0  0  0  0  0  0  0  0  0  0
   75.6825   12.3107   -2.3683 C   0  0  0  0  0  0  0  0  0  0  0  0
   74.6831   13.0076   -1.7723 N   0  0  0  0  0  0  0  0  0  0  0  0
  1  5  1  6  0  0  0
  1 14  1  0  0  0  0
  1 19  2  0  0  0  0
  2 15  1  6  0  0  0
  2 20  2  0  0  0  0
  2 23  1  0  0  0  0
  3 16  1  1  0  0  0
  3 21  2  0  0  0  0
  3 24  1  0  0  0  0
  3 25  1  0  0  0  0
  4  6  1  0  0  0  0
  5  4  1  0  0  0  0
  6  7  1  0  0  0  0
  6  8  2  0  0  0  0
  7 12  1  0  0  0  0
  8  9  1  0  0  0  0
  8 10  1  0  0  0  0
 10 11  1  0  0  0  0
 10 12  2  0  0  0  0
 12 32  1  0  0  0  0
 13 17  1  0  0  0  0
 17 18  1  1  0  0  0
 17 22  1  0  0  0  0
 23  1  1  0  0  0  0
 24  2  1  0  0  0  0
 26 22  1  1  0  0  0
 27 26  1  0  0  0  0
 27 28  1  0  0  0  0
 27 30  1  1  0  0  0
 28 13  1  0  0  0  0
 28 29  1  1  0  0  0
 31 30  1  0  0  0  0
 32 26  1  0  0  0  0
 32 31  1  0  0  0  0
M  CHG  3  14  -1  15  -1  16  -1
M  END
>  <CHROM.1>
21.03482564,36.60909674,-160.80598776,158.32892629,83.02811359,135.22536135
-55.84369463,74.62027697,72.47289711,12.12398952,1.49028043,1.82240047,0.41087292
1.67447875

>  <Name>
2au4_lig

>  <RI>
0

>  <Rbt.Current_Directory>
/home/itssahil/PROJECTS/Mol_Feturizer/New_Systems/rnas/2au4

>  <Rbt.Executable>
rbdock ($Id: //depot/dev/client3/rdock/2013.1/src/exe/rbdock.cxx#4 $)

>  <Rbt.Library>
libRbt.so (2013.1, Build901 2013/11/27)

>  <Rbt.Parameter_File>
/export/apps/rDock/src/rDock_2013.1_src/data/scripts/dock_solv.prm

>  <Rbt.Receptor>
prm/blind_docking_80.prm

>  <SCORE>
-32.6233

>  <SCORE.INTER>
-11.7945

>  <SCORE.INTER.CONST>
1

>  <SCORE.INTER.POLAR>
-0.590398

>  <SCORE.INTER.ROT>
8

>  <SCORE.INTER.SOLV>
24.5645

>  <SCORE.INTER.VDW>
-23.0165

>  <SCORE.INTER.norm>
-0.368579

>  <SCORE.INTRA>
-22.2545

>  <SCORE.INTRA.DIHEDRAL>
-43.1929

>  <SCORE.INTRA.DIHEDRAL.0>
76.3625

>  <SCORE.INTRA.POLAR>
0

>  <SCORE.INTRA.POLAR.0>
0

>  <SCORE.INTRA.REPUL>
-0.12705

>  <SCORE.INTRA.REPUL.0>
0.12705

>  <SCORE.INTRA.SOLV>
-2.43717

>  <SCORE.INTRA.SOLV.lig_0>
-119.383

>  <SCORE.INTRA.VDW>
1.19576

>  <SCORE.INTRA.VDW.0>
-5.10464

>  <SCORE.INTRA.norm>
-0.695453

>  <SCORE.RESTR>
1.42572

>  <SCORE.RESTR.CAVITY>
1.42572

>  <SCORE.RESTR.norm>
0.0445538

>  <SCORE.SYSTEM>
0

>  <SCORE.SYSTEM.CONST>
0

>  <SCORE.SYSTEM.DIHEDRAL>
0

>  <SCORE.SYSTEM.SOLV>
0

>  <SCORE.SYSTEM.norm>
0

>  <SCORE.heavy>
32

>  <SCORE.norm>
-1.01948

>  <RMSD>
8.616

$$$$
2au4_lig
 OpenBabel11021811423D
libRbt.so/2013.1/901 2013/11/27
 32 34  0  0  0  0  0  0  0  0999 V2000
   71.1331   13.0003    4.8693 P   0  0  1  0  0  0  0  0  0  0  0  0
   72.4067   13.1299    2.4754 P   0  0  1  0  0  0  0  0  0  0  0  0
   72.7220   10.6860    1.3055 P   0  0  2  0  0  0  0  0  0  0  0  0
   68.5517   12.9438    4.2662 C   0  0  0  0  0  0  0  0  0  0  0  0
   69.6099   12.5746    5.1660 O   0  0  0  0  0  0  0  0  0  0  0  0
   67.1939   12.4312    4.7233 C   0  0  0  0  0  0  0  0  0  0  0  0
   66.1438   12.9637    3.8903 O   0  0  0  0  0  0  0  0  0  0  0  0
   67.1382   10.9133    4.6482 C   0  0  0  0  0  0  0  0  0  0  0  0
   66.9692   10.3420    5.9512 O   0  0  0  0  0  0  0  0  0  0  0  0
   65.9736   10.5708    3.7500 C   0  0  0  0  0  0  0  0  0  0  0  0
   65.0103    9.7595    4.4355 O   0  0  0  0  0  0  0  0  0  0  0  0
   65.3597   11.8929    3.3230 C   0  0  0  0  0  0  0  0  0  0  0  0
   65.4099   15.0180   -0.7141 N   0  0  0  0  0  0  0  0  0  0  0  0
   71.1954   14.4705    4.7446 O   0  5  0  0  0  0  0  0  0  0  0  0
   71.8412   14.4529    2.1466 O   0  5  0  0  0  0  0  0  0  0  0  0
   71.6139   10.0360    2.0340 O   0  5  0  0  0  0  0  0  0  0  0  0
   65.4752   15.3216    0.6250 C   0  0  1  0  0  0  0  0  0  0  0  0
   65.5597   16.6090    0.9324 N   0  0  0  0  0  0  0  0  0  0  0  0
   72.0143   12.2999    5.8280 O   0  0  0  0  0  0  0  0  0  0  0  0
   73.7562   13.0271    3.0685 O   0  0  0  0  0  0  0  0  0  0  0  0
   74.1054   10.5769    1.8136 O   0  0  0  0  0  0  0  0  0  0  0  0
   65.4543   14.4093    1.5935 N   0  0  0  0  0  0  0  0  0  0  0  0
   71.3885   12.3778    3.4314 O   0  0  0  0  0  0  0  0  0  0  0  0
   72.3749   12.2339    1.1633 O   0  0  0  0  0  0  0  0  0  0  0  0
   72.6966   10.1769   -0.2179 O   0  0  0  0  0  0  0  0  0  0  0  0
   65.3605   13.1507    1.1060 C   0  0  2  0  0  0  0  0  0  0  0  0
   65.2906   12.7578   -0.2208 C   0  0  2  0  0  0  0  0  0  0  0  0
   65.3136   13.7419   -1.2393 C   0  0  1  0  0  0  0  0  0  0  0  0
   65.2373   13.5834   -2.4503 O   0  0  0  0  0  0  0  0  0  0  0  0
   65.2005   11.3655   -0.3239 N   0  0  0  0  0  0  0  0  0  0  0  0
   65.2205   11.0145    0.9204 C   0  0  0  0  0  0  0  0  0  0  0  0
   65.3133   11.9964    1.8514 N   0  0  0  0  0  0  0  0  0  0  0  0
  1  5  1  1  0  0  0
  1 14  1  0  0  0  0
  1 19  2  0  0  0  0
  2 15  1  6  0  0  0
  2 20  2  0  0  0  0
  2 23  1  0  0  0  0
  3 16  1  1  0  0  0
  3 21  2  0  0  0  0
  3 24  1  0  0  0  0
  3 25  1  0  0  0  0
  4  6  1  0  0  0  0
  5  4  1  0  0  0  0
  6  7  1  0  0  0  0
  6  8  2  0  0  0  0
  7 12  1  0  0  0  0
  8  9  1  0  0  0  0
  8 10  1  0  0  0  0
 10 11  1  0  0  0  0
 10 12  2  0  0  0  0
 12 32  1  0  0  0  0
 13 17  1  0  0  0  0
 17 18  1  1  0  0  0
 17 22  1  0  0  0  0
 23  1  1  0  0  0  0
 24  2  1  0  0  0  0
 26 22  1  1  0  0  0
 27 26  1  0  0  0  0
 27 28  1  0  0  0  0
 27 30  1  1  0  0  0
 28 13  1  0  0  0  0
 28 29  1  1  0  0  0
 31 30  1  0  0  0  0
 32 26  1  0  0  0  0
 32 31  1  0  0  0  0
M  CHG  3  14  -1  15  -1  16  -1
M  END
>  <CHROM.1>
57.14451567,-64.93386774,69.86833375,172.71018036,179.40167691,-30.93498848
149.31763807,-170.70738236,68.89943745,12.45577394,2.41603288,0.27760327
-0.07276805,1.81765850

>  <Name>
2au4_lig

>  <RI>
0

>  <Rbt.Current_Directory>
/home/itssahil/PROJECTS/Mol_Feturizer/New_Systems/rnas/2au4

>  <Rbt.Executable>
rbdock ($Id: //depot/dev/client3/rdock/2013.1/src/exe/rbdock.cxx#4 $)

>  <Rbt.Library>
libRbt.so (2013.1, Build901 2013/11/27)

>  <Rbt.Parameter_File>
/export/apps/rDock/src/rDock_2013.1_src/data/scripts/dock_solv.prm

>  <Rbt.Receptor>
prm/pocket_docking_7.prm

>  <SCORE>
-35.3684

>  <SCORE.INTER>
-9.92203

>  <SCORE.INTER.CONST>
1

>  <SCORE.INTER.POLAR>
-2.83652

>  <SCORE.INTER.ROT>
8

>  <SCORE.INTER.SOLV>
24.0101

>  <SCORE.INTER.VDW>
-14.0963

>  <SCORE.INTER.norm>
-0.310063

>  <SCORE.INTRA>
-25.4463

>  <SCORE.INTRA.DIHEDRAL>
-49.6032

>  <SCORE.INTRA.DIHEDRAL.0>
76.3625

>  <SCORE.INTRA.POLAR>
0

>  <SCORE.INTRA.POLAR.0>
0

>  <SCORE.INTRA.REPUL>
0.0609349

>  <SCORE.INTRA.REPUL.0>
0.12705

>  <SCORE.INTRA.SOLV>
-4.76203

>  <SCORE.INTRA.SOLV.lig_0>
-119.383

>  <SCORE.INTRA.VDW>
1.4316

>  <SCORE.INTRA.VDW.0>
-5.10464

>  <SCORE.INTRA.norm>
-0.795198

>  <SCORE.RESTR>
0

>  <SCORE.RESTR.CAVITY>
0

>  <SCORE.RESTR.norm>
0

>  <SCORE.SYSTEM>
0

>  <SCORE.SYSTEM.CONST>
0

>  <SCORE.SYSTEM.DIHEDRAL>
0

>  <SCORE.SYSTEM.SOLV>
0

>  <SCORE.SYSTEM.norm>
0

>  <SCORE.heavy>
32

>  <SCORE.norm>
-1.10526

>  <RMSD>
8.633

$$$$
2au4_lig
 OpenBabel11021811423D
libRbt.so/2013.1/901 2013/11/27
 32 34  0  0  0  0  0  0  0  0999 V2000
   72.7851   12.0650    3.9919 P   0  0  1  0  0  0  0  0  0  0  0  0
   70.9224   14.0172    4.2899 P   0  0  1  0  0  0  0  0  0  0  0  0
   68.9772   15.8078    3.6186 P   0  0  2  0  0  0  0  0  0  0  0  0
   73.4284   11.2843    1.5409 C   0  0  0  0  0  0  0  0  0  0  0  0
   72.8717   10.9597    2.8256 O   0  0  0  0  0  0  0  0  0  0  0  0
   72.8569   12.5730    0.9680 C   0  0  0  0  0  0  0  0  0  0  0  0
   73.9125   13.4150    0.4611 O   0  0  0  0  0  0  0  0  0  0  0  0
   71.8956   12.2755   -0.1722 C   0  0  0  0  0  0  0  0  0  0  0  0
   70.5665   12.6990    0.1548 O   0  0  0  0  0  0  0  0  0  0  0  0
   72.4198   13.0161   -1.3793 C   0  0  0  0  0  0  0  0  0  0  0  0
   71.4475   13.9419   -1.8831 O   0  0  0  0  0  0  0  0  0  0  0  0
   73.6728   13.7439   -0.9237 C   0  0  0  0  0  0  0  0  0  0  0  0
   75.3055   12.5555   -5.6129 N   0  0  0  0  0  0  0  0  0  0  0  0
   72.0406   11.4907    5.1306 O   0  5  0  0  0  0  0  0  0  0  0  0
   69.7632   13.1708    4.6331 O   0  5  0  0  0  0  0  0  0  0  0  0
   68.7768   15.8648    5.0808 O   0  5  0  0  0  0  0  0  0  0  0  0
   74.0383   12.8721   -5.1845 C   0  0  1  0  0  0  0  0  0  0  0  0
   73.0874   12.8694   -6.1091 N   0  0  0  0  0  0  0  0  0  0  0  0
   74.1322   12.6378    4.2004 O   0  0  0  0  0  0  0  0  0  0  0  0
   71.7488   14.6122    5.3607 O   0  0  0  0  0  0  0  0  0  0  0  0
   68.0077   15.0875    2.7671 O   0  0  0  0  0  0  0  0  0  0  0  0
   73.7347   13.1677   -3.9231 N   0  0  0  0  0  0  0  0  0  0  0  0
   71.8773   13.1880    3.3323 O   0  0  0  0  0  0  0  0  0  0  0  0
   70.4200   15.1915    3.3444 O   0  0  0  0  0  0  0  0  0  0  0  0
   69.1236   17.3093    3.0667 O   0  0  0  0  0  0  0  0  0  0  0  0
   74.8177   13.1191   -3.1135 C   0  0  2  0  0  0  0  0  0  0  0  0
   76.1233   12.8113   -3.4606 C   0  0  2  0  0  0  0  0  0  0  0  0
   76.4291   12.4985   -4.8079 C   0  0  1  0  0  0  0  0  0  0  0  0
   77.5094   12.1820   -5.2876 O   0  0  0  0  0  0  0  0  0  0  0  0
   76.9619   12.8649   -2.3422 N   0  0  0  0  0  0  0  0  0  0  0  0
   76.1270   13.1938   -1.4112 C   0  0  0  0  0  0  0  0  0  0  0  0
   74.8285   13.3695   -1.7617 N   0  0  0  0  0  0  0  0  0  0  0  0
  1  5  1  6  0  0  0
  1 14  1  0  0  0  0
  1 19  2  0  0  0  0
  2 15  1  1  0  0  0
  2 20  2  0  0  0  0
  2 23  1  0  0  0  0
  3 16  1  1  0  0  0
  3 21  2  0  0  0  0
  3 24  1  0  0  0  0
  3 25  1  0  0  0  0
  4  6  1  0  0  0  0
  5  4  1  0  0  0  0
  6  7  1  0  0  0  0
  6  8  2  0  0  0  0
  7 12  1  0  0  0  0
  8  9  1  0  0  0  0
  8 10  1  0  0  0  0
 10 11  1  0  0  0  0
 10 12  2  0  0  0  0
 12 32  1  0  0  0  0
 13 17  1  0  0  0  0
 17 18  1  1  0  0  0
 17 22  1  0  0  0  0
 23  1  1  0  0  0  0
 24  2  1  0  0  0  0
 26 22  1  1  0  0  0
 27 26  1  0  0  0  0
 27 28  1  0  0  0  0
 27 30  1  1  0  0  0
 28 13  1  0  0  0  0
 28 29  1  1  0  0  0
 31 30  1  0  0  0  0
 32 26  1  0  0  0  0
 32 31  1  0  0  0  0
M  CHG  3  14  -1  15  -1  16  -1
M  END
>  <CHROM.1>
173.85029526,-76.37432029,37.91438025,133.45603046,-48.49487336,157.12950515
147.40850211,36.10725777,72.55536971,13.40367902,0.75904376,-2.22718844,0.58298194
-1.36251944

>  <Name>
2au4_lig

>  <RI>
0

>  <Rbt.Current_Directory>
/home/itssahil/PROJECTS/Mol_Feturizer/New_Systems/rnas/2au4

>  <Rbt.Executable>
rbdock ($Id: //depot/dev/client3/rdock/2013.1/src/exe/rbdock.cxx#4 $)

>  <Rbt.Library>
libRbt.so (2013.1, Build901 2013/11/27)

>  <Rbt.Parameter_File>
/export/apps/rDock/src/rDock_2013.1_src/data/scripts/dock_solv.prm

>  <Rbt.Receptor>
prm/pocket_docking_8.prm

>  <SCORE>
-45.6917

>  <SCORE.INTER>
-21.8971

>  <SCORE.INTER.CONST>
1

>  <SCORE.INTER.POLAR>
-2.11734

>  <SCORE.INTER.ROT>
8

>  <SCORE.INTER.SOLV>
20.2399

>  <SCORE.INTER.VDW>
-23.2202

>  <SCORE.INTER.norm>
-0.684285

>  <SCORE.INTRA>
-23.9885

>  <SCORE.INTRA.DIHEDRAL>
-46.3315

>  <SCORE.INTRA.DIHEDRAL.0>
76.3625

>  <SCORE.INTRA.POLAR>
0

>  <SCORE.INTRA.POLAR.0>
0

>  <SCORE.INTRA.REPUL>
-0.12705

>  <SCORE.INTRA.REPUL.0>
0.12705

>  <SCORE.INTRA.SOLV>
-3.47831

>  <SCORE.INTRA.SOLV.lig_0>
-119.383

>  <SCORE.INTRA.VDW>
1.55166

>  <SCORE.INTRA.VDW.0>
-5.10464

>  <SCORE.INTRA.norm>
-0.74964

>  <SCORE.RESTR>
0.193854

>  <SCORE.RESTR.CAVITY>
0.193854

>  <SCORE.RESTR.norm>
0.00605795

>  <SCORE.SYSTEM>
0

>  <SCORE.SYSTEM.CONST>
0

>  <SCORE.SYSTEM.DIHEDRAL>
0

>  <SCORE.SYSTEM.SOLV>
0

>  <SCORE.SYSTEM.norm>
0

>  <SCORE.heavy>
32

>  <SCORE.norm>
-1.42787

>  <RMSD>
8.657

$$$$
2au4_lig
 OpenBabel11021811423D
libRbt.so/2013.1/901 2013/11/27
 32 34  0  0  0  0  0  0  0  0999 V2000
   63.9800    7.7918   -1.8931 P   0  0  1  0  0  0  0  0  0  0  0  0
   66.2481    6.4482   -1.2450 P   0  0  1  0  0  0  0  0  0  0  0  0
   67.6259    5.6088   -3.4444 P   0  0  2  0  0  0  0  0  0  0  0  0
   61.7795    8.4295   -3.2278 C   0  0  0  0  0  0  0  0  0  0  0  0
   62.7280    7.4238   -2.8346 O   0  0  0  0  0  0  0  0  0  0  0  0
   61.0555    9.0433   -2.0385 C   0  0  0  0  0  0  0  0  0  0  0  0
   61.8884   10.0257   -1.3893 O   0  0  0  0  0  0  0  0  0  0  0  0
   59.7717    9.7263   -2.4836 C   0  0  0  0  0  0  0  0  0  0  0  0
   58.6255    9.0854   -1.9106 O   0  0  0  0  0  0  0  0  0  0  0  0
   59.8721   11.1639   -2.0324 C   0  0  0  0  0  0  0  0  0  0  0  0
   58.7912   11.5097   -1.1559 O   0  0  0  0  0  0  0  0  0  0  0  0
   61.2076   11.2966   -1.3210 C   0  0  0  0  0  0  0  0  0  0  0  0
   65.8785   13.2833   -1.8697 N   0  0  0  0  0  0  0  0  0  0  0  0
   64.5711    9.0585   -2.3695 O   0  5  0  0  0  0  0  0  0  0  0  0
   67.0308    7.6992   -1.2651 O   0  5  0  0  0  0  0  0  0  0  0  0
   68.3451    6.8986   -3.4231 O   0  5  0  0  0  0  0  0  0  0  0  0
   65.4781   12.1810   -1.1527 C   0  0  1  0  0  0  0  0  0  0  0  0
   66.4292   11.5282   -0.4982 N   0  0  0  0  0  0  0  0  0  0  0  0
   63.5656    7.6525   -0.4806 O   0  0  0  0  0  0  0  0  0  0  0  0
   65.7570    5.9015    0.0370 O   0  0  0  0  0  0  0  0  0  0  0  0
   66.4992    5.4059   -4.3788 O   0  0  0  0  0  0  0  0  0  0  0  0
   64.2184   11.7574   -1.0868 N   0  0  0  0  0  0  0  0  0  0  0  0
   65.0055    6.6236   -2.2153 O   0  0  0  0  0  0  0  0  0  0  0  0
   67.0965    5.3174   -1.9708 O   0  0  0  0  0  0  0  0  0  0  0  0
   68.6967    4.4334   -3.6740 O   0  0  0  0  0  0  0  0  0  0  0  0
   63.3799   12.5384   -1.8063 C   0  0  2  0  0  0  0  0  0  0  0  0
   63.6978   13.6608   -2.5539 C   0  0  2  0  0  0  0  0  0  0  0  0
   65.0437   14.0983   -2.6130 C   0  0  1  0  0  0  0  0  0  0  0  0
   65.5008   15.0720   -3.1966 O   0  0  0  0  0  0  0  0  0  0  0  0
   62.5549   14.1993   -3.1545 N   0  0  0  0  0  0  0  0  0  0  0  0
   61.6396   13.3857   -2.7396 C   0  0  0  0  0  0  0  0  0  0  0  0
   62.0221   12.3641   -1.9335 N   0  0  0  0  0  0  0  0  0  0  0  0
  1  5  1  6  0  0  0
  1 14  1  0  0  0  0
  1 19  2  0  0  0  0
  2 15  1  1  0  0  0
  2 20  2  0  0  0  0
  2 23  1  0  0  0  0
  3 16  1  6  0  0  0
  3 21  2  0  0  0  0
  3 24  1  0  0  0  0
  3 25  1  0  0  0  0
  4  6  1  0  0  0  0
  5  4  1  0  0  0  0
  6  7  1  0  0  0  0
  6  8  2  0  0  0  0
  7 12  1  0  0  0  0
  8  9  1  0  0  0  0
  8 10  1  0  0  0  0
 10 11  1  0  0  0  0
 10 12  2  0  0  0  0
 12 32  1  0  0  0  0
 13 17  1  0  0  0  0
 17 18  1  1  0  0  0
 17 22  1  0  0  0  0
 23  1  1  0  0  0  0
 24  2  1  0  0  0  0
 26 22  1  1  0  0  0
 27 26  1  0  0  0  0
 27 28  1  0  0  0  0
 27 30  1  1  0  0  0
 28 13  1  0  0  0  0
 28 29  1  1  0  0  0
 31 30  1  0  0  0  0
 32 26  1  0  0  0  0
 32 31  1  0  0  0  0
M  CHG  3  14  -1  15  -1  16  -1
M  END
>  <CHROM.1>
-43.69247470,-59.77864156,52.35133225,79.18906588,-61.71279654,-41.16265522
-166.70793009,-54.10145338,64.22070588,9.27383001,-2.11842605,0.91182071
-0.08995686,-3.13971177

>  <Name>
2au4_lig

>  <RI>
0

>  <Rbt.Current_Directory>
/home/itssahil/PROJECTS/Mol_Feturizer/New_Systems/rnas/2au4

>  <Rbt.Executable>
rbdock ($Id: //depot/dev/client3/rdock/2013.1/src/exe/rbdock.cxx#4 $)

>  <Rbt.Library>
libRbt.so (2013.1, Build901 2013/11/27)

>  <Rbt.Parameter_File>
/export/apps/rDock/src/rDock_2013.1_src/data/scripts/dock_solv.prm

>  <Rbt.Receptor>
prm/pocket_docking_8.prm

>  <SCORE>
-38.1605

>  <SCORE.INTER>
-15.0063

>  <SCORE.INTER.CONST>
1

>  <SCORE.INTER.POLAR>
0

>  <SCORE.INTER.ROT>
8

>  <SCORE.INTER.SOLV>
28.2253

>  <SCORE.INTER.VDW>
-28.346

>  <SCORE.INTER.norm>
-0.468946

>  <SCORE.INTRA>
-23.1542

>  <SCORE.INTRA.DIHEDRAL>
-47.7632

>  <SCORE.INTRA.DIHEDRAL.0>
76.3625

>  <SCORE.INTRA.POLAR>
0

>  <SCORE.INTRA.POLAR.0>
0

>  <SCORE.INTRA.REPUL>
0.00813606

>  <SCORE.INTRA.REPUL.0>
0.12705

>  <SCORE.INTRA.SOLV>
1.50264

>  <SCORE.INTRA.SOLV.lig_0>
-119.383

>  <SCORE.INTRA.VDW>
-0.0646054

>  <SCORE.INTRA.VDW.0>
-5.10464

>  <SCORE.INTRA.norm>
-0.723569

>  <SCORE.RESTR>
0

>  <SCORE.RESTR.CAVITY>
0

>  <SCORE.RESTR.norm>
0

>  <SCORE.SYSTEM>
0

>  <SCORE.SYSTEM.CONST>
0

>  <SCORE.SYSTEM.DIHEDRAL>
0

>  <SCORE.SYSTEM.SOLV>
0

>  <SCORE.SYSTEM.norm>
0

>  <SCORE.heavy>
32

>  <SCORE.norm>
-1.19251

>  <RMSD>
8.873

$$$$
2au4_lig
 OpenBabel11021811423D
libRbt.so/2013.1/901 2013/11/27
 32 34  0  0  0  0  0  0  0  0999 V2000
   72.0380   13.6050    4.4222 P   0  0  1  0  0  0  0  0  0  0  0  0
   71.3984   11.0781    5.1805 P   0  0  1  0  0  0  0  0  0  0  0  0
   69.5450    9.1806    4.5440 P   0  0  2  0  0  0  0  0  0  0  0  0
   71.1876   13.9328    1.9322 C   0  0  0  0  0  0  0  0  0  0  0  0
   71.5658   14.5223    3.1873 O   0  0  0  0  0  0  0  0  0  0  0  0
   72.1749   12.8727    1.4663 C   0  0  0  0  0  0  0  0  0  0  0  0
   71.6924   12.2186    0.2749 O   0  0  0  0  0  0  0  0  0  0  0  0
   73.5264   13.4959    1.1537 C   0  0  0  0  0  0  0  0  0  0  0  0
   74.5377   12.9951    2.0365 O   0  0  0  0  0  0  0  0  0  0  0  0
   73.8377   13.1468   -0.2821 C   0  0  0  0  0  0  0  0  0  0  0  0
   75.0655   12.4130   -0.3835 O   0  0  0  0  0  0  0  0  0  0  0  0
   72.6692   12.3159   -0.7832 C   0  0  0  0  0  0  0  0  0  0  0  0
   73.5592   14.3259   -5.3913 N   0  0  0  0  0  0  0  0  0  0  0  0
   73.4025   13.1115    4.1475 O   0  5  0  0  0  0  0  0  0  0  0  0
   72.1772   10.1607    4.3260 O   0  5  0  0  0  0  0  0  0  0  0  0
   70.1070    9.3735    3.1918 O   0  5  0  0  0  0  0  0  0  0  0  0
   74.4493   13.8250   -4.4713 C   0  0  1  0  0  0  0  0  0  0  0  0
   75.7308   13.8653   -4.8109 N   0  0  0  0  0  0  0  0  0  0  0  0
   71.7495   14.3239    5.6816 O   0  0  0  0  0  0  0  0  0  0  0  0
   71.9410   11.5186    6.4825 O   0  0  0  0  0  0  0  0  0  0  0  0
   68.0922    8.9731    4.7181 O   0  0  0  0  0  0  0  0  0  0  0  0
   74.0920   13.3217   -3.2925 N   0  0  0  0  0  0  0  0  0  0  0  0
   71.0450   12.3698    4.3303 O   0  0  0  0  0  0  0  0  0  0  0  0
   69.9698   10.4304    5.4351 O   0  0  0  0  0  0  0  0  0  0  0  0
   70.3220    7.9638    5.2486 O   0  0  0  0  0  0  0  0  0  0  0  0
   72.7525   13.3618   -3.1061 C   0  0  2  0  0  0  0  0  0  0  0  0
   71.7891   13.8463   -3.9761 C   0  0  2  0  0  0  0  0  0  0  0  0
   72.1867   14.3791   -5.2268 C   0  0  1  0  0  0  0  0  0  0  0  0
   71.4847   14.8686   -6.1015 O   0  0  0  0  0  0  0  0  0  0  0  0
   70.5098   13.7167   -3.4248 N   0  0  0  0  0  0  0  0  0  0  0  0
   70.7770   13.1747   -2.2817 C   0  0  0  0  0  0  0  0  0  0  0  0
   72.0777   12.9216   -1.9922 N   0  0  0  0  0  0  0  0  0  0  0  0
  1  5  1  6  0  0  0
  1 14  1  0  0  0  0
  1 19  2  0  0  0  0
  2 15  1  6  0  0  0
  2 20  2  0  0  0  0
  2 23  1  0  0  0  0
  3 16  1  6  0  0  0
  3 21  2  0  0  0  0
  3 24  1  0  0  0  0
  3 25  1  0  0  0  0
  4  6  1  0  0  0  0
  5  4  1  0  0  0  0
  6  7  1  0  0  0  0
  6  8  2  0  0  0  0
  7 12  1  0  0  0  0
  8  9  1  0  0  0  0
  8 10  1  0  0  0  0
 10 11  1  0  0  0  0
 10 12  2  0  0  0  0
 12 32  1  0  0  0  0
 13 17  1  0  0  0  0
 17 18  1  1  0  0  0
 17 22  1  0  0  0  0
 23  1  1  0  0  0  0
 24  2  1  0  0  0  0
 26 22  1  1  0  0  0
 27 26  1  0  0  0  0
 27 28  1  0  0  0  0
 27 30  1  1  0  0  0
 28 13  1  0  0  0  0
 28 29  1  1  0  0  0
 31 30  1  0  0  0  0
 32 26  1  0  0  0  0
 32 31  1  0  0  0  0
M  CHG  3  14  -1  15  -1  16  -1
M  END
>  <CHROM.1>
74.29537910,-92.85558348,-35.11549895,174.44418552,-46.18724260,168.81443133
166.36834200,-12.42773009,71.95324584,12.36883500,1.26141478,-1.89686766
-0.77207310,-1.47190612

>  <Name>
2au4_lig

>  <RI>
0

>  <Rbt.Current_Directory>
/home/itssahil/PROJECTS/Mol_Feturizer/New_Systems/rnas/2au4

>  <Rbt.Executable>
rbdock ($Id: //depot/dev/client3/rdock/2013.1/src/exe/rbdock.cxx#4 $)

>  <Rbt.Library>
libRbt.so (2013.1, Build901 2013/11/27)

>  <Rbt.Parameter_File>
/export/apps/rDock/src/rDock_2013.1_src/data/scripts/dock_solv.prm

>  <Rbt.Receptor>
prm/blind_docking_80.prm

>  <SCORE>
-37.1494

>  <SCORE.INTER>
-18.8659

>  <SCORE.INTER.CONST>
1

>  <SCORE.INTER.POLAR>
-2.61486

>  <SCORE.INTER.ROT>
8

>  <SCORE.INTER.SOLV>
27.4472

>  <SCORE.INTER.VDW>
-21.9434

>  <SCORE.INTER.norm>
-0.589558

>  <SCORE.INTRA>
-19.6674

>  <SCORE.INTRA.DIHEDRAL>
-40.8379

>  <SCORE.INTRA.DIHEDRAL.0>
76.3625

>  <SCORE.INTRA.POLAR>
0

>  <SCORE.INTRA.POLAR.0>
0

>  <SCORE.INTRA.REPUL>
-0.121826

>  <SCORE.INTRA.REPUL.0>
0.12705

>  <SCORE.INTRA.SOLV>
-2.67865

>  <SCORE.INTRA.SOLV.lig_0>
-119.383

>  <SCORE.INTRA.VDW>
2.70002

>  <SCORE.INTRA.VDW.0>
-5.10464

>  <SCORE.INTRA.norm>
-0.614606

>  <SCORE.RESTR>
1.38381

>  <SCORE.RESTR.CAVITY>
1.38381

>  <SCORE.RESTR.norm>
0.0432442

>  <SCORE.SYSTEM>
0

>  <SCORE.SYSTEM.CONST>
0

>  <SCORE.SYSTEM.DIHEDRAL>
0

>  <SCORE.SYSTEM.SOLV>
0

>  <SCORE.SYSTEM.norm>
0

>  <SCORE.heavy>
32

>  <SCORE.norm>
-1.16092

>  <RMSD>
8.909

$$$$
2au4_lig
 OpenBabel11021811423D
libRbt.so/2013.1/901 2013/11/27
 32 34  0  0  0  0  0  0  0  0999 V2000
   72.3483   11.7515    0.6592 P   0  0  1  0  0  0  0  0  0  0  0  0
   73.3639   12.5300   -1.7350 P   0  0  1  0  0  0  0  0  0  0  0  0
   71.9144   13.5567   -3.8051 P   0  0  2  0  0  0  0  0  0  0  0  0
   70.4342   10.5062    2.0066 C   0  0  0  0  0  0  0  0  0  0  0  0
   71.3479   10.5138    0.8972 O   0  0  0  0  0  0  0  0  0  0  0  0
   71.0366    9.8732    3.2523 C   0  0  0  0  0  0  0  0  0  0  0  0
   72.1044   10.6919    3.7717 O   0  0  0  0  0  0  0  0  0  0  0  0
   69.9845    9.7164    4.3391 C   0  0  0  0  0  0  0  0  0  0  0  0
   69.7626    8.3335    4.6412 O   0  0  0  0  0  0  0  0  0  0  0  0
   70.5020   10.4598    5.5474 C   0  0  0  0  0  0  0  0  0  0  0  0
   70.6281    9.5879    6.6788 O   0  0  0  0  0  0  0  0  0  0  0  0
   71.8531   11.0302    5.1522 C   0  0  0  0  0  0  0  0  0  0  0  0
   71.1434   14.8837    8.4253 N   0  0  0  0  0  0  0  0  0  0  0  0
   71.5448   12.9678    0.4228 O   0  5  0  0  0  0  0  0  0  0  0  0
   73.7135   13.7410   -0.9673 O   0  5  0  0  0  0  0  0  0  0  0  0
   72.3542   12.6326   -4.8700 O   0  5  0  0  0  0  0  0  0  0  0  0
   71.0063   13.5310    8.6275 C   0  0  1  0  0  0  0  0  0  0  0  0
   70.6318   13.1531    9.8424 N   0  0  0  0  0  0  0  0  0  0  0  0
   73.3772   11.7378    1.7209 O   0  0  0  0  0  0  0  0  0  0  0  0
   74.2917   12.0084   -2.7601 O   0  0  0  0  0  0  0  0  0  0  0  0
   72.6124   14.8445   -3.6090 O   0  0  0  0  0  0  0  0  0  0  0  0
   71.2229   12.6154    7.6864 N   0  0  0  0  0  0  0  0  0  0  0  0
   73.0561   11.3615   -0.7073 O   0  0  0  0  0  0  0  0  0  0  0  0
   71.9511   12.7662   -2.4229 O   0  0  0  0  0  0  0  0  0  0  0  0
   70.3475   13.8509   -4.0025 O   0  0  0  0  0  0  0  0  0  0  0  0
   71.5920   13.1717    6.5096 C   0  0  2  0  0  0  0  0  0  0  0  0
   71.7537   14.5172    6.2209 C   0  0  2  0  0  0  0  0  0  0  0  0
   71.5187   15.4787    7.2342 C   0  0  1  0  0  0  0  0  0  0  0  0
   71.5876   16.6979    7.1549 O   0  0  0  0  0  0  0  0  0  0  0  0
   72.1434   14.6976    4.8895 N   0  0  0  0  0  0  0  0  0  0  0  0
   72.1902   13.4760    4.4683 C   0  0  0  0  0  0  0  0  0  0  0  0
   71.8810   12.4926    5.3497 N   0  0  0  0  0  0  0  0  0  0  0  0
  1  5  1  1  0  0  0
  1 14  1  0  0  0  0
  1 19  2  0  0  0  0
  2 15  1  1  0  0  0
  2 20  2  0  0  0  0
  2 23  1  0  0  0  0
  3 16  1  6  0  0  0
  3 21  2  0  0  0  0
  3 24  1  0  0  0  0
  3 25  1  0  0  0  0
  4  6  1  0  0  0  0
  5  4  1  0  0  0  0
  6  7  1  0  0  0  0
  6  8  2  0  0  0  0
  7 12  1  0  0  0  0
  8  9  1  0  0  0  0
  8 10  1  0  0  0  0
 10 11  1  0  0  0  0
 10 12  2  0  0  0  0
 12 32  1  0  0  0  0
 13 17  1  0  0  0  0
 17 18  1  6  0  0  0
 17 22  1  0  0  0  0
 23  1  1  0  0  0  0
 24  2  1  0  0  0  0
 26 22  1  6  0  0  0
 27 26  1  0  0  0  0
 27 28  1  0  0  0  0
 27 30  1  6  0  0  0
 28 13  1  0  0  0  0
 28 29  1  6  0  0  0
 31 30  1  0  0  0  0
 32 26  1  0  0  0  0
 32 31  1  0  0  0  0
M  CHG  3  14  -1  15  -1  16  -1
M  END
>  <CHROM.1>
-62.00345522,35.06394623,76.88466767,67.55069264,-89.89367898,175.11184301
142.13451049,83.29475975,71.83885668,12.49779541,2.20081386,0.97549079,-1.33659573
-2.15138540

>  <Name>
2au4_lig

>  <RI>
0

>  <Rbt.Current_Directory>
/home/itssahil/PROJECTS/Mol_Feturizer/New_Systems/rnas/2au4

>  <Rbt.Executable>
rbdock ($Id: //depot/dev/client3/rdock/2013.1/src/exe/rbdock.cxx#4 $)

>  <Rbt.Library>
libRbt.so (2013.1, Build901 2013/11/27)

>  <Rbt.Parameter_File>
/export/apps/rDock/src/rDock_2013.1_src/data/scripts/dock_solv.prm

>  <Rbt.Receptor>
prm/blind_docking_80.prm

>  <SCORE>
-24.7229

>  <SCORE.INTER>
-7.02111

>  <SCORE.INTER.CONST>
1

>  <SCORE.INTER.POLAR>
0

>  <SCORE.INTER.ROT>
8

>  <SCORE.INTER.SOLV>
26.1511

>  <SCORE.INTER.VDW>
-22.3311

>  <SCORE.INTER.norm>
-0.21941

>  <SCORE.INTRA>
-18.7007

>  <SCORE.INTRA.DIHEDRAL>
-35.9149

>  <SCORE.INTRA.DIHEDRAL.0>
76.3625

>  <SCORE.INTRA.POLAR>
0

>  <SCORE.INTRA.POLAR.0>
0

>  <SCORE.INTRA.REPUL>
-0.12705

>  <SCORE.INTRA.REPUL.0>
0.12705

>  <SCORE.INTRA.SOLV>
-1.71765

>  <SCORE.INTRA.SOLV.lig_0>
-119.383

>  <SCORE.INTRA.VDW>
0.750882

>  <SCORE.INTRA.VDW.0>
-5.10464

>  <SCORE.INTRA.norm>
-0.584396

>  <SCORE.RESTR>
0.998842

>  <SCORE.RESTR.CAVITY>
0.998842

>  <SCORE.RESTR.norm>
0.0312138

>  <SCORE.SYSTEM>
0

>  <SCORE.SYSTEM.CONST>
0

>  <SCORE.SYSTEM.DIHEDRAL>
0

>  <SCORE.SYSTEM.SOLV>
0

>  <SCORE.SYSTEM.norm>
0

>  <SCORE.heavy>
32

>  <SCORE.norm>
-0.772591

>  <RMSD>
8.999

$$$$
2au4_lig
 OpenBabel11021811423D
libRbt.so/2013.1/901 2013/11/27
 32 34  0  0  0  0  0  0  0  0999 V2000
   68.6051    8.9392    0.8185 P   0  0  1  0  0  0  0  0  0  0  0  0
   67.2629    6.9433   -0.4402 P   0  0  1  0  0  0  0  0  0  0  0  0
   67.9496    6.2322   -2.9825 P   0  0  2  0  0  0  0  0  0  0  0  0
   68.9926   10.8373    2.6289 C   0  0  0  0  0  0  0  0  0  0  0  0
   68.1384   10.2436    1.6372 O   0  0  0  0  0  0  0  0  0  0  0  0
   70.1763   11.5697    2.0141 C   0  0  0  0  0  0  0  0  0  0  0  0
   69.7633   12.8450    1.4820 O   0  0  0  0  0  0  0  0  0  0  0  0
   71.2573   11.8153    3.0552 C   0  0  0  0  0  0  0  0  0  0  0  0
   72.4608   11.1143    2.7190 O   0  0  0  0  0  0  0  0  0  0  0  0
   71.4893   13.3070    3.0889 C   0  0  0  0  0  0  0  0  0  0  0  0
   72.8529   13.6275    2.7824 O   0  0  0  0  0  0  0  0  0  0  0  0
   70.5487   13.9094    2.0595 C   0  0  0  0  0  0  0  0  0  0  0  0
   65.9523   16.1319    2.0623 N   0  0  0  0  0  0  0  0  0  0  0  0
   69.3575    9.3763   -0.3746 O   0  5  0  0  0  0  0  0  0  0  0  0
   68.2086    6.0533    0.2609 O   0  5  0  0  0  0  0  0  0  0  0  0
   66.5662    5.9775   -3.4325 O   0  5  0  0  0  0  0  0  0  0  0  0
   66.4339   15.1250    1.2600 C   0  0  1  0  0  0  0  0  0  0  0  0
   65.5986   14.6523    0.3447 N   0  0  0  0  0  0  0  0  0  0  0  0
   69.2106    7.9789    1.7659 O   0  0  0  0  0  0  0  0  0  0  0  0
   65.8705    6.5079   -0.6754 O   0  0  0  0  0  0  0  0  0  0  0  0
   68.7848    5.1161   -2.4919 O   0  0  0  0  0  0  0  0  0  0  0  0
   67.6627   14.6237    1.3573 N   0  0  0  0  0  0  0  0  0  0  0  0
   67.2233    8.3308    0.3278 O   0  0  0  0  0  0  0  0  0  0  0  0
   67.8983    7.3418   -1.8411 O   0  0  0  0  0  0  0  0  0  0  0  0
   68.7397    6.9784   -4.1656 O   0  0  0  0  0  0  0  0  0  0  0  0
   68.3809   15.2212    2.3359 C   0  0  2  0  0  0  0  0  0  0  0  0
   67.9752   16.2372    3.1862 C   0  0  2  0  0  0  0  0  0  0  0  0
   66.6639   16.7597    3.0689 C   0  0  1  0  0  0  0  0  0  0  0  0
   66.1467   17.6644    3.7104 O   0  0  0  0  0  0  0  0  0  0  0  0
   69.0039   16.5912    4.0657 N   0  0  0  0  0  0  0  0  0  0  0  0
   69.9449   15.7843    3.6976 C   0  0  0  0  0  0  0  0  0  0  0  0
   69.6797   14.9289    2.6790 N   0  0  0  0  0  0  0  0  0  0  0  0
  1  5  1  1  0  0  0
  1 14  1  0  0  0  0
  1 19  2  0  0  0  0
  2 15  1  1  0  0  0
  2 20  2  0  0  0  0
  2 23  1  0  0  0  0
  3 16  1  6  0  0  0
  3 21  2  0  0  0  0
  3 24  1  0  0  0  0
  3 25  1  0  0  0  0
  4  6  1  0  0  0  0
  5  4  1  0  0  0  0
  6  7  1  0  0  0  0
  6  8  2  0  0  0  0
  7 12  1  0  0  0  0
  8  9  1  0  0  0  0
  8 10  1  0  0  0  0
 10 11  1  0  0  0  0
 10 12  2  0  0  0  0
 12 32  1  0  0  0  0
 13 17  1  0  0  0  0
 17 18  1  6  0  0  0
 17 22  1  0  0  0  0
 23  1  1  0  0  0  0
 24  2  1  0  0  0  0
 26 22  1  6  0  0  0
 27 26  1  0  0  0  0
 27 28  1  0  0  0  0
 27 30  1  6  0  0  0
 28 13  1  0  0  0  0
 28 29  1  6  0  0  0
 31 30  1  0  0  0  0
 32 26  1  0  0  0  0
 32 31  1  0  0  0  0
M  CHG  3  14  -1  15  -1  16  -1
M  END
>  <CHROM.1>
-87.78726774,42.68822968,69.49481815,77.03469929,72.57986331,-26.34191422
-175.43310594,72.80303650,68.50138989,10.93869726,0.84158919,-1.64840678
-0.40974880,0.44380098

>  <Name>
2au4_lig

>  <RI>
0

>  <Rbt.Current_Directory>
/home/itssahil/PROJECTS/Mol_Feturizer/New_Systems/rnas/2au4

>  <Rbt.Executable>
rbdock ($Id: //depot/dev/client3/rdock/2013.1/src/exe/rbdock.cxx#4 $)

>  <Rbt.Library>
libRbt.so (2013.1, Build901 2013/11/27)

>  <Rbt.Parameter_File>
/export/apps/rDock/src/rDock_2013.1_src/data/scripts/dock_solv.prm

>  <Rbt.Receptor>
prm/pocket_docking_8.prm

>  <SCORE>
-43.4064

>  <SCORE.INTER>
-18.5007

>  <SCORE.INTER.CONST>
1

>  <SCORE.INTER.POLAR>
-3.1259

>  <SCORE.INTER.ROT>
8

>  <SCORE.INTER.SOLV>
21.1364

>  <SCORE.INTER.VDW>
-17.893

>  <SCORE.INTER.norm>
-0.578148

>  <SCORE.INTRA>
-24.9057

>  <SCORE.INTRA.DIHEDRAL>
-49.0421

>  <SCORE.INTRA.DIHEDRAL.0>
76.3625

>  <SCORE.INTRA.POLAR>
0

>  <SCORE.INTRA.POLAR.0>
0

>  <SCORE.INTRA.REPUL>
0.0745527

>  <SCORE.INTRA.REPUL.0>
0.12705

>  <SCORE.INTRA.SOLV>
-3.46811

>  <SCORE.INTRA.SOLV.lig_0>
-119.383

>  <SCORE.INTRA.VDW>
0.976686

>  <SCORE.INTRA.VDW.0>
-5.10464

>  <SCORE.INTRA.norm>
-0.778302

>  <SCORE.RESTR>
0

>  <SCORE.RESTR.CAVITY>
0

>  <SCORE.RESTR.norm>
0

>  <SCORE.SYSTEM>
0

>  <SCORE.SYSTEM.CONST>
0

>  <SCORE.SYSTEM.DIHEDRAL>
0

>  <SCORE.SYSTEM.SOLV>
0

>  <SCORE.SYSTEM.norm>
0

>  <SCORE.heavy>
32

>  <SCORE.norm>
-1.35645

>  <RMSD>
8.999

$$$$
2au4_lig
 OpenBabel11021811423D
libRbt.so/2013.1/901 2013/11/27
 32 34  0  0  0  0  0  0  0  0999 V2000
   68.9337    9.6896    3.9279 P   0  0  1  0  0  0  0  0  0  0  0  0
   67.8778    7.5015    2.7167 P   0  0  1  0  0  0  0  0  0  0  0  0
   66.2870    7.8141    0.5230 P   0  0  2  0  0  0  0  0  0  0  0  0
   66.9786   11.2938    3.1313 C   0  0  0  0  0  0  0  0  0  0  0  0
   68.1351   10.5089    2.7964 O   0  0  0  0  0  0  0  0  0  0  0  0
   66.4479   12.0839    1.9440 C   0  0  0  0  0  0  0  0  0  0  0  0
   66.0112   13.3939    2.3606 O   0  0  0  0  0  0  0  0  0  0  0  0
   67.5265   12.2552    0.8858 C   0  0  0  0  0  0  0  0  0  0  0  0
   67.1593   11.5945   -0.3314 O   0  0  0  0  0  0  0  0  0  0  0  0
   67.6837   13.7416    0.6705 C   0  0  0  0  0  0  0  0  0  0  0  0
   67.4309   14.0981   -0.6952 O   0  0  0  0  0  0  0  0  0  0  0  0
   66.6873   14.4158    1.5977 C   0  0  0  0  0  0  0  0  0  0  0  0
   66.5959   16.8300    6.0954 N   0  0  0  0  0  0  0  0  0  0  0  0
   70.2693    9.3413    3.4029 O   0  5  0  0  0  0  0  0  0  0  0  0
   69.1013    7.6085    1.8983 O   0  5  0  0  0  0  0  0  0  0  0  0
   65.2817    8.7649    0.0067 O   0  5  0  0  0  0  0  0  0  0  0  0
   65.7003   15.9287    5.5708 C   0  0  1  0  0  0  0  0  0  0  0  0
   64.6512   15.6344    6.3269 N   0  0  0  0  0  0  0  0  0  0  0  0
   68.8074   10.4123    5.2117 O   0  0  0  0  0  0  0  0  0  0  0  0
   67.3562    6.1732    3.1002 O   0  0  0  0  0  0  0  0  0  0  0  0
   65.9719    6.3721    0.5959 O   0  0  0  0  0  0  0  0  0  0  0  0
   65.8351   15.3609    4.3749 N   0  0  0  0  0  0  0  0  0  0  0  0
   68.0893    8.3499    4.0403 O   0  0  0  0  0  0  0  0  0  0  0  0
   66.7143    8.2945    1.9802 O   0  0  0  0  0  0  0  0  0  0  0  0
   67.6414    7.9980   -0.3210 O   0  0  0  0  0  0  0  0  0  0  0  0
   66.9544   15.7749    3.7374 C   0  0  2  0  0  0  0  0  0  0  0  0
   67.9055   16.6745    4.1910 C   0  0  2  0  0  0  0  0  0  0  0  0
   67.7466   17.2701    5.4662 C   0  0  1  0  0  0  0  0  0  0  0  0
   68.4653   18.0954    6.0139 O   0  0  0  0  0  0  0  0  0  0  0  0
   68.9196   16.8475    3.2429 N   0  0  0  0  0  0  0  0  0  0  0  0
   68.5240   16.0590    2.2976 C   0  0  0  0  0  0  0  0  0  0  0  0
   67.3688   15.3744    2.4892 N   0  0  0  0  0  0  0  0  0  0  0  0
  1  5  1  6  0  0  0
  1 14  1  0  0  0  0
  1 19  2  0  0  0  0
  2 15  1  6  0  0  0
  2 20  2  0  0  0  0
  2 23  1  0  0  0  0
  3 16  1  6  0  0  0
  3 21  2  0  0  0  0
  3 24  1  0  0  0  0
  3 25  1  0  0  0  0
  4  6  1  0  0  0  0
  5  4  1  0  0  0  0
  6  7  1  0  0  0  0
  6  8  2  0  0  0  0
  7 12  1  0  0  0  0
  8  9  1  0  0  0  0
  8 10  1  0  0  0  0
 10 11  1  0  0  0  0
 10 12  2  0  0  0  0
 12 32  1  0  0  0  0
 13 17  1  0  0  0  0
 17 18  1  6  0  0  0
 17 22  1  0  0  0  0
 23  1  1  0  0  0  0
 24  2  1  0  0  0  0
 26 22  1  6  0  0  0
 27 26  1  0  0  0  0
 27 28  1  0  0  0  0
 27 30  1  6  0  0  0
 28 13  1  0  0  0  0
 28 29  1  6  0  0  0
 31 30  1  0  0  0  0
 32 26  1  0  0  0  0
 32 31  1  0  0  0  0
M  CHG  3  14  -1  15  -1  16  -1
M  END
>  <CHROM.1>
-162.50040706,35.34446049,-175.26370185,-141.02020808,174.91693030,-32.90024212
56.28466858,60.66927511,67.40057339,11.68771851,2.72324194,-1.50542421,-1.26608960
0.36376575

>  <Name>
2au4_lig

>  <RI>
0

>  <Rbt.Current_Directory>
/home/itssahil/PROJECTS/Mol_Feturizer/New_Systems/rnas/2au4

>  <Rbt.Executable>
rbdock ($Id: //depot/dev/client3/rdock/2013.1/src/exe/rbdock.cxx#4 $)

>  <Rbt.Library>
libRbt.so (2013.1, Build901 2013/11/27)

>  <Rbt.Parameter_File>
/export/apps/rDock/src/rDock_2013.1_src/data/scripts/dock_solv.prm

>  <Rbt.Receptor>
prm/pocket_docking_8.prm

>  <SCORE>
-41.0916

>  <SCORE.INTER>
-14.8735

>  <SCORE.INTER.CONST>
1

>  <SCORE.INTER.POLAR>
-2.73229

>  <SCORE.INTER.ROT>
8

>  <SCORE.INTER.SOLV>
20.4266

>  <SCORE.INTER.VDW>
-16.5503

>  <SCORE.INTER.norm>
-0.464798

>  <SCORE.INTRA>
-26.2258

>  <SCORE.INTRA.DIHEDRAL>
-49.5978

>  <SCORE.INTRA.DIHEDRAL.0>
76.3625

>  <SCORE.INTRA.POLAR>
0

>  <SCORE.INTRA.POLAR.0>
0

>  <SCORE.INTRA.REPUL>
0.0534532

>  <SCORE.INTRA.REPUL.0>
0.12705

>  <SCORE.INTRA.SOLV>
-5.69171

>  <SCORE.INTRA.SOLV.lig_0>
-119.383

>  <SCORE.INTRA.VDW>
1.15173

>  <SCORE.INTRA.VDW.0>
-5.10464

>  <SCORE.INTRA.norm>
-0.819555

>  <SCORE.RESTR>
0.00770447

>  <SCORE.RESTR.CAVITY>
0.00770447

>  <SCORE.RESTR.norm>
0.000240765

>  <SCORE.SYSTEM>
0

>  <SCORE.SYSTEM.CONST>
0

>  <SCORE.SYSTEM.DIHEDRAL>
0

>  <SCORE.SYSTEM.SOLV>
0

>  <SCORE.SYSTEM.norm>
0

>  <SCORE.heavy>
32

>  <SCORE.norm>
-1.28411

>  <RMSD>
9.067

$$$$
2au4_lig
 OpenBabel11021811423D
libRbt.so/2013.1/901 2013/11/27
 32 34  0  0  0  0  0  0  0  0999 V2000
   69.5339   10.8419    2.7967 P   0  0  1  0  0  0  0  0  0  0  0  0
   67.6180    9.1330    3.6789 P   0  0  1  0  0  0  0  0  0  0  0  0
   67.6533    7.6825    1.3690 P   0  0  2  0  0  0  0  0  0  0  0  0
   70.8074   12.4729    1.1388 C   0  0  0  0  0  0  0  0  0  0  0  0
   69.5622   11.9934    1.6730 O   0  0  0  0  0  0  0  0  0  0  0  0
   71.3940   13.6106    1.9616 C   0  0  0  0  0  0  0  0  0  0  0  0
   70.4167   14.6536    2.1547 O   0  0  0  0  0  0  0  0  0  0  0  0
   71.8370   13.1136    3.3288 C   0  0  0  0  0  0  0  0  0  0  0  0
   73.2543   13.2498    3.4887 O   0  0  0  0  0  0  0  0  0  0  0  0
   71.0934   13.9431    4.3483 C   0  0  0  0  0  0  0  0  0  0  0  0
   72.0011   14.6422    5.2106 O   0  0  0  0  0  0  0  0  0  0  0  0
   70.2359   14.9195    3.5618 C   0  0  0  0  0  0  0  0  0  0  0  0
   66.9242   13.9668    7.3289 N   0  0  0  0  0  0  0  0  0  0  0  0
   70.4597    9.7653    2.3911 O   0  5  0  0  0  0  0  0  0  0  0  0
   68.8389    8.5073    4.2230 O   0  5  0  0  0  0  0  0  0  0  0  0
   67.6795    8.8691    0.4901 O   0  5  0  0  0  0  0  0  0  0  0  0
   68.2981   13.9956    7.3617 C   0  0  1  0  0  0  0  0  0  0  0  0
   68.8637   13.7364    8.5330 N   0  0  0  0  0  0  0  0  0  0  0  0
   69.6709   11.4756    4.1256 O   0  0  0  0  0  0  0  0  0  0  0  0
   66.5959    9.6827    4.5937 O   0  0  0  0  0  0  0  0  0  0  0  0
   67.0618    6.4174    0.8857 O   0  0  0  0  0  0  0  0  0  0  0  0
   69.0592   14.2601    6.3027 N   0  0  0  0  0  0  0  0  0  0  0  0
   68.0530   10.2828    2.6763 O   0  0  0  0  0  0  0  0  0  0  0  0
   66.9075    8.0864    2.7171 O   0  0  0  0  0  0  0  0  0  0  0  0
   69.1511    7.3869    1.8687 O   0  0  0  0  0  0  0  0  0  0  0  0
   68.3231   14.4958    5.1922 C   0  0  2  0  0  0  0  0  0  0  0  0
   66.9428   14.4874    5.0717 C   0  0  2  0  0  0  0  0  0  0  0  0
   66.1475   14.2035    6.2089 C   0  0  1  0  0  0  0  0  0  0  0  0
   64.9283   14.1293    6.2836 O   0  0  0  0  0  0  0  0  0  0  0  0
   66.5557   14.7772    3.7590 N   0  0  0  0  0  0  0  0  0  0  0  0
   67.7022   14.9379    3.1831 C   0  0  0  0  0  0  0  0  0  0  0  0
   68.8159   14.7929    3.9436 N   0  0  0  0  0  0  0  0  0  0  0  0
  1  5  1  6  0  0  0
  1 14  1  0  0  0  0
  1 19  2  0  0  0  0
  2 15  1  1  0  0  0
  2 20  2  0  0  0  0
  2 23  1  0  0  0  0
  3 16  1  6  0  0  0
  3 21  2  0  0  0  0
  3 24  1  0  0  0  0
  3 25  1  0  0  0  0
  4  6  1  0  0  0  0
  5  4  1  0  0  0  0
  6  7  1  0  0  0  0
  6  8  2  0  0  0  0
  7 12  1  0  0  0  0
  8  9  1  0  0  0  0
  8 10  1  0  0  0  0
 10 11  1  0  0  0  0
 10 12  2  0  0  0  0
 12 32  1  0  0  0  0
 13 17  1  0  0  0  0
 17 18  1  6  0  0  0
 17 22  1  0  0  0  0
 23  1  1  0  0  0  0
 24  2  1  0  0  0  0
 26 22  1  6  0  0  0
 27 26  1  0  0  0  0
 27 28  1  0  0  0  0
 27 30  1  6  0  0  0
 28 13  1  0  0  0  0
 28 29  1  6  0  0  0
 31 30  1  0  0  0  0
 32 26  1  0  0  0  0
 32 31  1  0  0  0  0
M  CHG  3  14  -1  15  -1  16  -1
M  END
>  <CHROM.1>
-45.92025284,-19.05251272,-67.46925058,-52.19790010,-87.67737963,154.74025012
-178.20093301,-66.78730846,68.74848765,11.72807686,3.64045956,-1.71082931
0.52544270,0.56384884

>  <Name>
2au4_lig

>  <RI>
0

>  <Rbt.Current_Directory>
/home/itssahil/PROJECTS/Mol_Feturizer/New_Systems/rnas/2au4

>  <Rbt.Executable>
rbdock ($Id: //depot/dev/client3/rdock/2013.1/src/exe/rbdock.cxx#4 $)

>  <Rbt.Library>
libRbt.so (2013.1, Build901 2013/11/27)

>  <Rbt.Parameter_File>
/export/apps/rDock/src/rDock_2013.1_src/data/scripts/dock_solv.prm

>  <Rbt.Receptor>
prm/pocket_docking_7.prm

>  <SCORE>
-32.2162

>  <SCORE.INTER>
-10.3292

>  <SCORE.INTER.CONST>
1

>  <SCORE.INTER.POLAR>
-2.39224

>  <SCORE.INTER.ROT>
8

>  <SCORE.INTER.SOLV>
9.05285

>  <SCORE.INTER.VDW>
-10.863

>  <SCORE.INTER.norm>
-0.322788

>  <SCORE.INTRA>
-21.887

>  <SCORE.INTRA.DIHEDRAL>
-44.3012

>  <SCORE.INTRA.DIHEDRAL.0>
76.3625

>  <SCORE.INTRA.POLAR>
0

>  <SCORE.INTRA.POLAR.0>
0

>  <SCORE.INTRA.REPUL>
-0.12705

>  <SCORE.INTRA.REPUL.0>
0.12705

>  <SCORE.INTRA.SOLV>
3.02848

>  <SCORE.INTRA.SOLV.lig_0>
-119.383

>  <SCORE.INTRA.VDW>
-0.615356

>  <SCORE.INTRA.VDW.0>
-5.10464

>  <SCORE.INTRA.norm>
-0.683967

>  <SCORE.RESTR>
0

>  <SCORE.RESTR.CAVITY>
0

>  <SCORE.RESTR.norm>
0

>  <SCORE.SYSTEM>
0

>  <SCORE.SYSTEM.CONST>
0

>  <SCORE.SYSTEM.DIHEDRAL>
0

>  <SCORE.SYSTEM.SOLV>
0

>  <SCORE.SYSTEM.norm>
0

>  <SCORE.heavy>
32

>  <SCORE.norm>
-1.00675

>  <RMSD>
9.152

$$$$
2au4_lig
 OpenBabel11021811423D
libRbt.so/2013.1/901 2013/11/27
 32 34  0  0  0  0  0  0  0  0999 V2000
   72.5081   12.8493    4.6118 P   0  0  1  0  0  0  0  0  0  0  0  0
   73.4497   11.6797    2.3502 P   0  0  1  0  0  0  0  0  0  0  0  0
   71.6369   11.2678    0.3540 P   0  0  2  0  0  0  0  0  0  0  0  0
   70.2647   11.4512    4.4044 C   0  0  0  0  0  0  0  0  0  0  0  0
   71.0333   12.6023    4.0173 O   0  0  0  0  0  0  0  0  0  0  0  0
   69.8419   11.4984    5.8654 C   0  0  0  0  0  0  0  0  0  0  0  0
   68.7839   12.4598    6.0568 O   0  0  0  0  0  0  0  0  0  0  0  0
   69.3389   10.1386    6.3245 C   0  0  0  0  0  0  0  0  0  0  0  0
   70.1816    9.6008    7.3509 O   0  0  0  0  0  0  0  0  0  0  0  0
   67.9327   10.3506    6.8323 C   0  0  0  0  0  0  0  0  0  0  0  0
   67.8104    9.9518    8.2042 O   0  0  0  0  0  0  0  0  0  0  0  0
   67.6392   11.8323    6.6727 C   0  0  0  0  0  0  0  0  0  0  0  0
   65.2362   14.8491    3.3273 N   0  0  0  0  0  0  0  0  0  0  0  0
   73.0145   14.1368    4.0952 O   0  5  0  0  0  0  0  0  0  0  0  0
   73.7483   13.0530    1.8996 O   0  5  0  0  0  0  0  0  0  0  0  0
   72.6793   10.4527   -0.3020 O   0  5  0  0  0  0  0  0  0  0  0  0
   66.4712   15.0036    3.9109 C   0  0  1  0  0  0  0  0  0  0  0  0
   67.1503   16.0909    3.5707 N   0  0  0  0  0  0  0  0  0  0  0  0
   72.4787   12.5952    6.0681 O   0  0  0  0  0  0  0  0  0  0  0  0
   74.3277   10.5607    1.9497 O   0  0  0  0  0  0  0  0  0  0  0  0
   71.3815   12.6494   -0.1042 O   0  0  0  0  0  0  0  0  0  0  0  0
   66.9951   14.1392    4.7764 N   0  0  0  0  0  0  0  0  0  0  0  0
   73.3496   11.6867    3.9334 O   0  0  0  0  0  0  0  0  0  0  0  0
   71.9646   11.3229    1.9117 O   0  0  0  0  0  0  0  0  0  0  0  0
   70.2532   10.4528    0.3125 O   0  0  0  0  0  0  0  0  0  0  0  0
   66.1705   13.0933    5.0145 C   0  0  2  0  0  0  0  0  0  0  0  0
   64.9169   12.8607    4.4720 C   0  0  2  0  0  0  0  0  0  0  0  0
   64.3738   13.7911    3.5525 C   0  0  1  0  0  0  0  0  0  0  0  0
   63.2835   13.7624    2.9976 O   0  0  0  0  0  0  0  0  0  0  0  0
   64.3739   11.6695    4.9654 N   0  0  0  0  0  0  0  0  0  0  0  0
   65.3137   11.2682    5.7577 C   0  0  0  0  0  0  0  0  0  0  0  0
   66.4243   12.0399    5.8607 N   0  0  0  0  0  0  0  0  0  0  0  0
  1  5  1  6  0  0  0
  1 14  1  0  0  0  0
  1 19  2  0  0  0  0
  2 15  1  6  0  0  0
  2 20  2  0  0  0  0
  2 23  1  0  0  0  0
  3 16  1  6  0  0  0
  3 21  2  0  0  0  0
  3 24  1  0  0  0  0
  3 25  1  0  0  0  0
  4  6  1  0  0  0  0
  5  4  1  0  0  0  0
  6  7  1  0  0  0  0
  6  8  2  0  0  0  0
  7 12  1  0  0  0  0
  8  9  1  0  0  0  0
  8 10  1  0  0  0  0
 10 11  1  0  0  0  0
 10 12  2  0  0  0  0
 12 32  1  0  0  0  0
 13 17  1  0  0  0  0
 17 18  1  1  0  0  0
 17 22  1  0  0  0  0
 23  1  1  0  0  0  0
 24  2  1  0  0  0  0
 26 22  1  1  0  0  0
 27 26  1  0  0  0  0
 27 28  1  0  0  0  0
 27 30  1  1  0  0  0
 28 13  1  0  0  0  0
 28 29  1  1  0  0  0
 31 30  1  0  0  0  0
 32 26  1  0  0  0  0
 32 31  1  0  0  0  0
M  CHG  3  14  -1  15  -1  16  -1
M  END
>  <CHROM.1>
-176.91654540,45.59866128,48.36109085,73.86237759,67.67285489,-27.66938315
61.61825069,63.62903721,69.66220313,12.18072903,3.85894150,-0.31774747,-0.26154884
1.87035360

>  <Name>
2au4_lig

>  <RI>
0

>  <Rbt.Current_Directory>
/home/itssahil/PROJECTS/Mol_Feturizer/New_Systems/rnas/2au4

>  <Rbt.Executable>
rbdock ($Id: //depot/dev/client3/rdock/2013.1/src/exe/rbdock.cxx#4 $)

>  <Rbt.Library>
libRbt.so (2013.1, Build901 2013/11/27)

>  <Rbt.Parameter_File>
/export/apps/rDock/src/rDock_2013.1_src/data/scripts/dock_solv.prm

>  <Rbt.Receptor>
prm/pocket_docking_7.prm

>  <SCORE>
-39.8682

>  <SCORE.INTER>
-14.5428

>  <SCORE.INTER.CONST>
1

>  <SCORE.INTER.POLAR>
-3.70044

>  <SCORE.INTER.ROT>
8

>  <SCORE.INTER.SOLV>
26.9464

>  <SCORE.INTER.VDW>
-15.2759

>  <SCORE.INTER.norm>
-0.454464

>  <SCORE.INTRA>
-25.3253

>  <SCORE.INTRA.DIHEDRAL>
-49.9006

>  <SCORE.INTRA.DIHEDRAL.0>
76.3625

>  <SCORE.INTRA.POLAR>
0

>  <SCORE.INTRA.POLAR.0>
0

>  <SCORE.INTRA.REPUL>
0.0716436

>  <SCORE.INTRA.REPUL.0>
0.12705

>  <SCORE.INTRA.SOLV>
-3.6693

>  <SCORE.INTRA.SOLV.lig_0>
-119.383

>  <SCORE.INTRA.VDW>
1.1014

>  <SCORE.INTRA.VDW.0>
-5.10464

>  <SCORE.INTRA.norm>
-0.791417

>  <SCORE.RESTR>
0

>  <SCORE.RESTR.CAVITY>
0

>  <SCORE.RESTR.norm>
0

>  <SCORE.SYSTEM>
0

>  <SCORE.SYSTEM.CONST>
0

>  <SCORE.SYSTEM.DIHEDRAL>
0

>  <SCORE.SYSTEM.SOLV>
0

>  <SCORE.SYSTEM.norm>
0

>  <SCORE.heavy>
32

>  <SCORE.norm>
-1.24588

>  <RMSD>
9.404

$$$$
2au4_lig
 OpenBabel11021811423D
libRbt.so/2013.1/901 2013/11/27
 32 34  0  0  0  0  0  0  0  0999 V2000
   72.6879   13.7413    0.8544 P   0  0  1  0  0  0  0  0  0  0  0  0
   74.2149   14.0025   -1.3749 P   0  0  1  0  0  0  0  0  0  0  0  0
   73.2396   13.1714   -3.7830 P   0  0  2  0  0  0  0  0  0  0  0  0
   70.5935   14.3825    2.3486 C   0  0  0  0  0  0  0  0  0  0  0  0
   71.7710   14.8045    1.6407 O   0  0  0  0  0  0  0  0  0  0  0  0
   69.6730   15.5446    2.6916 C   0  0  0  0  0  0  0  0  0  0  0  0
   68.4750   15.4968    1.8899 O   0  0  0  0  0  0  0  0  0  0  0  0
   69.2682   15.4967    4.1566 C   0  0  0  0  0  0  0  0  0  0  0  0
   69.7622   16.6417    4.8621 O   0  0  0  0  0  0  0  0  0  0  0  0
   67.7590   15.4520    4.1833 C   0  0  0  0  0  0  0  0  0  0  0  0
   67.2195   16.5624    4.9127 O   0  0  0  0  0  0  0  0  0  0  0  0
   67.3045   15.4857    2.7344 C   0  0  0  0  0  0  0  0  0  0  0  0
   65.4951   12.3849   -0.8957 N   0  0  0  0  0  0  0  0  0  0  0  0
   73.6075   13.1073    1.8204 O   0  5  0  0  0  0  0  0  0  0  0  0
   75.2005   14.9486   -1.9331 O   0  5  0  0  0  0  0  0  0  0  0  0
   72.0034   13.2912   -4.5821 O   0  5  0  0  0  0  0  0  0  0  0  0
   66.3520   13.4538   -1.0089 C   0  0  1  0  0  0  0  0  0  0  0  0
   66.7780   13.7386   -2.2322 N   0  0  0  0  0  0  0  0  0  0  0  0
   71.8158   12.9046    0.0026 O   0  0  0  0  0  0  0  0  0  0  0  0
   74.6272   12.6309   -1.0113 O   0  0  0  0  0  0  0  0  0  0  0  0
   73.8136   11.8384   -3.5043 O   0  0  0  0  0  0  0  0  0  0  0  0
   66.7559   14.1921    0.0219 N   0  0  0  0  0  0  0  0  0  0  0  0
   73.5494   14.6724   -0.1001 O   0  0  0  0  0  0  0  0  0  0  0  0
   72.9945   13.8987   -2.3874 O   0  0  0  0  0  0  0  0  0  0  0  0
   74.3744   14.0833   -4.4622 O   0  0  0  0  0  0  0  0  0  0  0  0
   66.2241   13.7684    1.1916 C   0  0  2  0  0  0  0  0  0  0  0  0
   65.3577   12.7063    1.3943 C   0  0  2  0  0  0  0  0  0  0  0  0
   64.9374   11.9309    0.2860 C   0  0  1  0  0  0  0  0  0  0  0  0
   64.1649   10.9819    0.2724 O   0  0  0  0  0  0  0  0  0  0  0  0
   65.0283   12.5837    2.7484 N   0  0  0  0  0  0  0  0  0  0  0  0
   65.7018   13.5589    3.2654 C   0  0  0  0  0  0  0  0  0  0  0  0
   66.4455   14.3251    2.4290 N   0  0  0  0  0  0  0  0  0  0  0  0
  1  5  1  1  0  0  0
  1 14  1  0  0  0  0
  1 19  2  0  0  0  0
  2 15  1  6  0  0  0
  2 20  2  0  0  0  0
  2 23  1  0  0  0  0
  3 16  1  6  0  0  0
  3 21  2  0  0  0  0
  3 24  1  0  0  0  0
  3 25  1  0  0  0  0
  4  6  1  0  0  0  0
  5  4  1  0  0  0  0
  6  7  1  0  0  0  0
  6  8  2  0  0  0  0
  7 12  1  0  0  0  0
  8  9  1  0  0  0  0
  8 10  1  0  0  0  0
 10 11  1  0  0  0  0
 10 12  2  0  0  0  0
 12 32  1  0  0  0  0
 13 17  1  0  0  0  0
 17 18  1  6  0  0  0
 17 22  1  0  0  0  0
 23  1  1  0  0  0  0
 24  2  1  0  0  0  0
 26 22  1  6  0  0  0
 27 26  1  0  0  0  0
 27 28  1  0  0  0  0
 27 30  1  6  0  0  0
 28 13  1  0  0  0  0
 28 29  1  6  0  0  0
 31 30  1  0  0  0  0
 32 26  1  0  0  0  0
 32 31  1  0  0  0  0
M  CHG  3  14  -1  15  -1  16  -1
M  END
>  <CHROM.1>
-82.80631265,-167.17993179,-175.75661536,109.02341843,-164.24312754,-35.86322189
-159.53829388,69.83191625,70.13227770,13.88820021,0.23837087,-0.50074447
0.19024364,1.15438960

>  <Name>
2au4_lig

>  <RI>
0

>  <Rbt.Current_Directory>
/home/itssahil/PROJECTS/Mol_Feturizer/New_Systems/rnas/2au4

>  <Rbt.Executable>
rbdock ($Id: //depot/dev/client3/rdock/2013.1/src/exe/rbdock.cxx#4 $)

>  <Rbt.Library>
libRbt.so (2013.1, Build901 2013/11/27)

>  <Rbt.Parameter_File>
/export/apps/rDock/src/rDock_2013.1_src/data/scripts/dock_solv.prm

>  <Rbt.Receptor>
prm/pocket_docking_8.prm

>  <SCORE>
-39.6905

>  <SCORE.INTER>
-14.4417

>  <SCORE.INTER.CONST>
1

>  <SCORE.INTER.POLAR>
-1.79983

>  <SCORE.INTER.ROT>
8

>  <SCORE.INTER.SOLV>
26.9218

>  <SCORE.INTER.VDW>
-21.5357

>  <SCORE.INTER.norm>
-0.451304

>  <SCORE.INTRA>
-25.2488

>  <SCORE.INTRA.DIHEDRAL>
-48.0555

>  <SCORE.INTRA.DIHEDRAL.0>
76.3625

>  <SCORE.INTRA.POLAR>
0

>  <SCORE.INTRA.POLAR.0>
0

>  <SCORE.INTRA.REPUL>
0.0393303

>  <SCORE.INTRA.REPUL.0>
0.12705

>  <SCORE.INTRA.SOLV>
-5.8481

>  <SCORE.INTRA.SOLV.lig_0>
-119.383

>  <SCORE.INTRA.VDW>
1.50633

>  <SCORE.INTRA.VDW.0>
-5.10464

>  <SCORE.INTRA.norm>
-0.789025

>  <SCORE.RESTR>
0

>  <SCORE.RESTR.CAVITY>
0

>  <SCORE.RESTR.norm>
0

>  <SCORE.SYSTEM>
0

>  <SCORE.SYSTEM.CONST>
0

>  <SCORE.SYSTEM.DIHEDRAL>
0

>  <SCORE.SYSTEM.SOLV>
0

>  <SCORE.SYSTEM.norm>
0

>  <SCORE.heavy>
32

>  <SCORE.norm>
-1.24033

>  <RMSD>
9.667

$$$$
2au4_lig
 OpenBabel11021811423D
libRbt.so/2013.1/901 2013/11/27
 32 34  0  0  0  0  0  0  0  0999 V2000
   70.1719   16.1774    5.4520 P   0  0  1  0  0  0  0  0  0  0  0  0
   71.3330   13.8934    6.3490 P   0  0  1  0  0  0  0  0  0  0  0  0
   72.5450   12.6137    4.2671 P   0  0  2  0  0  0  0  0  0  0  0  0
   68.8098   15.9038    3.1936 C   0  0  0  0  0  0  0  0  0  0  0  0
   69.7540   16.6560    3.9736 O   0  0  0  0  0  0  0  0  0  0  0  0
   67.3980   16.4632    3.2908 C   0  0  0  0  0  0  0  0  0  0  0  0
   66.4271   15.4521    2.9516 O   0  0  0  0  0  0  0  0  0  0  0  0
   67.1072   16.9487    4.7023 C   0  0  0  0  0  0  0  0  0  0  0  0
   66.8769   18.3627    4.7202 O   0  0  0  0  0  0  0  0  0  0  0  0
   65.8868   16.1939    5.1725 C   0  0  0  0  0  0  0  0  0  0  0  0
   64.8230   17.0909    5.5188 O   0  0  0  0  0  0  0  0  0  0  0  0
   65.4764   15.2872    4.0251 C   0  0  0  0  0  0  0  0  0  0  0  0
   66.0156   10.3928    2.6758 N   0  0  0  0  0  0  0  0  0  0  0  0
   71.0274   17.2168    6.0592 O   0  5  0  0  0  0  0  0  0  0  0  0
   71.8021   14.6607    7.5191 O   0  5  0  0  0  0  0  0  0  0  0  0
   73.3317   11.3720    4.1237 O   0  5  0  0  0  0  0  0  0  0  0  0
   66.1643   11.5287    1.9159 C   0  0  1  0  0  0  0  0  0  0  0  0
   66.4911   11.3461    0.6436 N   0  0  0  0  0  0  0  0  0  0  0  0
   68.9593   15.7105    6.1575 O   0  0  0  0  0  0  0  0  0  0  0  0
   70.1499   13.0156    6.4638 O   0  0  0  0  0  0  0  0  0  0  0  0
   72.9066   13.8128    3.4827 O   0  0  0  0  0  0  0  0  0  0  0  0
   65.9963   12.7621    2.3863 N   0  0  0  0  0  0  0  0  0  0  0  0
   71.0802   14.9093    5.1571 O   0  0  0  0  0  0  0  0  0  0  0  0
   72.5447   13.0197    5.8072 O   0  0  0  0  0  0  0  0  0  0  0  0
   70.9998   12.2711    3.9917 O   0  0  0  0  0  0  0  0  0  0  0  0
   65.6617   12.7663    3.6973 C   0  0  2  0  0  0  0  0  0  0  0  0
   65.4923   11.6744    4.5332 C   0  0  2  0  0  0  0  0  0  0  0  0
   65.6746   10.3683    4.0162 C   0  0  1  0  0  0  0  0  0  0  0  0
   65.5446    9.2977    4.5945 O   0  0  0  0  0  0  0  0  0  0  0  0
   65.1450   12.0849    5.8247 N   0  0  0  0  0  0  0  0  0  0  0  0
   65.1265   13.3707    5.6887 C   0  0  0  0  0  0  0  0  0  0  0  0
   65.4185   13.8799    4.4660 N   0  0  0  0  0  0  0  0  0  0  0  0
  1  5  1  6  0  0  0
  1 14  1  0  0  0  0
  1 19  2  0  0  0  0
  2 15  1  1  0  0  0
  2 20  2  0  0  0  0
  2 23  1  0  0  0  0
  3 16  1  6  0  0  0
  3 21  2  0  0  0  0
  3 24  1  0  0  0  0
  3 25  1  0  0  0  0
  4  6  1  0  0  0  0
  5  4  1  0  0  0  0
  6  7  1  0  0  0  0
  6  8  2  0  0  0  0
  7 12  1  0  0  0  0
  8  9  1  0  0  0  0
  8 10  1  0  0  0  0
 10 11  1  0  0  0  0
 10 12  2  0  0  0  0
 12 32  1  0  0  0  0
 13 17  1  0  0  0  0
 17 18  1  6  0  0  0
 17 22  1  0  0  0  0
 23  1  1  0  0  0  0
 24  2  1  0  0  0  0
 26 22  1  6  0  0  0
 27 26  1  0  0  0  0
 27 28  1  0  0  0  0
 27 30  1  6  0  0  0
 28 13  1  0  0  0  0
 28 29  1  6  0  0  0
 31 30  1  0  0  0  0
 32 26  1  0  0  0  0
 32 31  1  0  0  0  0
M  CHG  3  14  -1  15  -1  16  -1
M  END
>  <CHROM.1>
-173.66219420,-51.32576398,-154.30554888,-158.05950975,96.89995106,-29.18992796
-161.83350262,-153.75253115,68.63269290,13.99246536,4.59211169,0.24657828
-0.17945331,0.25279338

>  <Name>
2au4_lig

>  <RI>
0

>  <Rbt.Current_Directory>
/home/itssahil/PROJECTS/Mol_Feturizer/New_Systems/rnas/2au4

>  <Rbt.Executable>
rbdock ($Id: //depot/dev/client3/rdock/2013.1/src/exe/rbdock.cxx#4 $)

>  <Rbt.Library>
libRbt.so (2013.1, Build901 2013/11/27)

>  <Rbt.Parameter_File>
/export/apps/rDock/src/rDock_2013.1_src/data/scripts/dock_solv.prm

>  <Rbt.Receptor>
prm/pocket_docking_8.prm

>  <SCORE>
-39.6301

>  <SCORE.INTER>
-18.2113

>  <SCORE.INTER.CONST>
1

>  <SCORE.INTER.POLAR>
-3.6688

>  <SCORE.INTER.ROT>
8

>  <SCORE.INTER.SOLV>
19.8807

>  <SCORE.INTER.VDW>
-15.4718

>  <SCORE.INTER.norm>
-0.569104

>  <SCORE.INTRA>
-21.9005

>  <SCORE.INTRA.DIHEDRAL>
-43.9127

>  <SCORE.INTRA.DIHEDRAL.0>
76.3625

>  <SCORE.INTRA.POLAR>
0

>  <SCORE.INTRA.POLAR.0>
0

>  <SCORE.INTRA.REPUL>
0.0660767

>  <SCORE.INTRA.REPUL.0>
0.12705

>  <SCORE.INTRA.SOLV>
-3.01404

>  <SCORE.INTRA.SOLV.lig_0>
-119.383

>  <SCORE.INTRA.VDW>
1.23253

>  <SCORE.INTRA.VDW.0>
-5.10464

>  <SCORE.INTRA.norm>
-0.68439

>  <SCORE.RESTR>
0.481744

>  <SCORE.RESTR.CAVITY>
0.481744

>  <SCORE.RESTR.norm>
0.0150545

>  <SCORE.SYSTEM>
0

>  <SCORE.SYSTEM.CONST>
0

>  <SCORE.SYSTEM.DIHEDRAL>
0

>  <SCORE.SYSTEM.SOLV>
0

>  <SCORE.SYSTEM.norm>
0

>  <SCORE.heavy>
32

>  <SCORE.norm>
-1.23844

>  <RMSD>
9.854

$$$$
2au4_lig
 OpenBabel11021811423D
libRbt.so/2013.1/901 2013/11/27
 32 34  0  0  0  0  0  0  0  0999 V2000
   71.1529   15.3087    6.2937 P   0  0  1  0  0  0  0  0  0  0  0  0
   71.9544   13.2199    4.7562 P   0  0  1  0  0  0  0  0  0  0  0  0
   72.0181   11.0082    3.1610 P   0  0  2  0  0  0  0  0  0  0  0  0
   68.5131   15.2519    6.5364 C   0  0  0  0  0  0  0  0  0  0  0  0
   69.8010   15.3627    7.1648 O   0  0  0  0  0  0  0  0  0  0  0  0
   68.1695   16.4720    5.6947 C   0  0  0  0  0  0  0  0  0  0  0  0
   68.9595   16.4951    4.4882 O   0  0  0  0  0  0  0  0  0  0  0  0
   66.7004   16.4590    5.3021 C   0  0  0  0  0  0  0  0  0  0  0  0
   66.0075   17.5749    5.8745 O   0  0  0  0  0  0  0  0  0  0  0  0
   66.6591   16.5101    3.7935 C   0  0  0  0  0  0  0  0  0  0  0  0
   65.9324   17.6570    3.3325 O   0  0  0  0  0  0  0  0  0  0  0  0
   68.1039   16.5634    3.3278 C   0  0  0  0  0  0  0  0  0  0  0  0
   66.3945   13.7464   -0.5721 N   0  0  0  0  0  0  0  0  0  0  0  0
   71.3276   16.6083    5.6145 O   0  5  0  0  0  0  0  0  0  0  0  0
   72.9410   13.9657    3.9508 O   0  5  0  0  0  0  0  0  0  0  0  0
   72.7883   10.3629    4.2434 O   0  5  0  0  0  0  0  0  0  0  0  0
   65.7802   14.7819    0.0912 C   0  0  1  0  0  0  0  0  0  0  0  0
   64.5643   15.1081   -0.3259 N   0  0  0  0  0  0  0  0  0  0  0  0
   72.2368   14.7620    7.1378 O   0  0  0  0  0  0  0  0  0  0  0  0
   72.3885   12.4739    5.9556 O   0  0  0  0  0  0  0  0  0  0  0  0
   72.7146   11.5226    1.9633 O   0  0  0  0  0  0  0  0  0  0  0  0
   66.3340   15.4462    1.1026 N   0  0  0  0  0  0  0  0  0  0  0  0
   70.8047   14.2237    5.1884 O   0  0  0  0  0  0  0  0  0  0  0  0
   71.1891   12.2100    3.7973 O   0  0  0  0  0  0  0  0  0  0  0  0
   70.8648    9.9963    2.6848 O   0  0  0  0  0  0  0  0  0  0  0  0
   67.5697   14.9828    1.4009 C   0  0  2  0  0  0  0  0  0  0  0  0
   68.2596   13.9501    0.7866 C   0  0  2  0  0  0  0  0  0  0  0  0
   67.6554   13.2531   -0.2882 C   0  0  1  0  0  0  0  0  0  0  0  0
   68.1004   12.3088   -0.9268 O   0  0  0  0  0  0  0  0  0  0  0  0
   69.5130   13.7662    1.3802 N   0  0  0  0  0  0  0  0  0  0  0  0
   69.4997   14.6793    2.2956 C   0  0  0  0  0  0  0  0  0  0  0  0
   68.3932   15.4576    2.3941 N   0  0  0  0  0  0  0  0  0  0  0  0
  1  5  1  1  0  0  0
  1 14  1  0  0  0  0
  1 19  2  0  0  0  0
  2 15  1  6  0  0  0
  2 20  2  0  0  0  0
  2 23  1  0  0  0  0
  3 16  1  1  0  0  0
  3 21  2  0  0  0  0
  3 24  1  0  0  0  0
  3 25  1  0  0  0  0
  4  6  1  0  0  0  0
  5  4  1  0  0  0  0
  6  7  1  0  0  0  0
  6  8  2  0  0  0  0
  7 12  1  0  0  0  0
  8  9  1  0  0  0  0
  8 10  1  0  0  0  0
 10 11  1  0  0  0  0
 10 12  2  0  0  0  0
 12 32  1  0  0  0  0
 13 17  1  0  0  0  0
 17 18  1  1  0  0  0
 17 22  1  0  0  0  0
 23  1  1  0  0  0  0
 24  2  1  0  0  0  0
 26 22  1  1  0  0  0
 27 26  1  0  0  0  0
 27 28  1  0  0  0  0
 27 30  1  1  0  0  0
 28 13  1  0  0  0  0
 28 29  1  1  0  0  0
 31 30  1  0  0  0  0
 32 26  1  0  0  0  0
 32 31  1  0  0  0  0
M  CHG  3  14  -1  15  -1  16  -1
M  END
>  <CHROM.1>
76.41736352,-72.20431858,48.10983037,72.44780564,-69.37880791,160.60481934
-141.55444326,66.65461432,69.52669182,14.24325724,3.55409787,0.14846682,-0.62823180
0.93046918

>  <Name>
2au4_lig

>  <RI>
0

>  <Rbt.Current_Directory>
/home/itssahil/PROJECTS/Mol_Feturizer/New_Systems/rnas/2au4

>  <Rbt.Executable>
rbdock ($Id: //depot/dev/client3/rdock/2013.1/src/exe/rbdock.cxx#4 $)

>  <Rbt.Library>
libRbt.so (2013.1, Build901 2013/11/27)

>  <Rbt.Parameter_File>
/export/apps/rDock/src/rDock_2013.1_src/data/scripts/dock_solv.prm

>  <Rbt.Receptor>
prm/pocket_docking_8.prm

>  <SCORE>
-32.2082

>  <SCORE.INTER>
-9.35021

>  <SCORE.INTER.CONST>
1

>  <SCORE.INTER.POLAR>
-2.37407

>  <SCORE.INTER.ROT>
8

>  <SCORE.INTER.SOLV>
24.5001

>  <SCORE.INTER.VDW>
-15.4199

>  <SCORE.INTER.norm>
-0.292194

>  <SCORE.INTRA>
-22.858

>  <SCORE.INTRA.DIHEDRAL>
-46.0561

>  <SCORE.INTRA.DIHEDRAL.0>
76.3625

>  <SCORE.INTRA.POLAR>
0

>  <SCORE.INTRA.POLAR.0>
0

>  <SCORE.INTRA.REPUL>
-0.0101052

>  <SCORE.INTRA.REPUL.0>
0.12705

>  <SCORE.INTRA.SOLV>
0.130811

>  <SCORE.INTRA.SOLV.lig_0>
-119.383

>  <SCORE.INTRA.VDW>
0.155178

>  <SCORE.INTRA.VDW.0>
-5.10464

>  <SCORE.INTRA.norm>
-0.714312

>  <SCORE.RESTR>
0

>  <SCORE.RESTR.CAVITY>
0

>  <SCORE.RESTR.norm>
0

>  <SCORE.SYSTEM>
0

>  <SCORE.SYSTEM.CONST>
0

>  <SCORE.SYSTEM.DIHEDRAL>
0

>  <SCORE.SYSTEM.SOLV>
0

>  <SCORE.SYSTEM.norm>
0

>  <SCORE.heavy>
32

>  <SCORE.norm>
-1.00651

>  <RMSD>
10.019

$$$$
2au4_lig
 OpenBabel11021811423D
libRbt.so/2013.1/901 2013/11/27
 32 34  0  0  0  0  0  0  0  0999 V2000
   70.8592   10.9205    3.8795 P   0  0  1  0  0  0  0  0  0  0  0  0
   68.7022    9.2770    4.0045 P   0  0  1  0  0  0  0  0  0  0  0  0
   66.4749    9.8596    2.5416 P   0  0  2  0  0  0  0  0  0  0  0  0
   69.9318   12.8060    5.4967 C   0  0  0  0  0  0  0  0  0  0  0  0
   70.8813   12.4076    4.4939 O   0  0  0  0  0  0  0  0  0  0  0  0
   70.4495   12.5818    6.9099 C   0  0  0  0  0  0  0  0  0  0  0  0
   69.4825   13.0300    7.8816 O   0  0  0  0  0  0  0  0  0  0  0  0
   70.7230   11.1062    7.1553 C   0  0  0  0  0  0  0  0  0  0  0  0
   72.1161   10.8772    7.3998 O   0  0  0  0  0  0  0  0  0  0  0  0
   69.8897   10.7085    8.3502 C   0  0  0  0  0  0  0  0  0  0  0  0
   70.7110   10.2011    9.4104 O   0  0  0  0  0  0  0  0  0  0  0  0
   69.1506   11.9600    8.7917 C   0  0  0  0  0  0  0  0  0  0  0  0
   64.5122   13.9830    8.1142 N   0  0  0  0  0  0  0  0  0  0  0  0
   70.3646   10.9925    2.4899 O   0  5  0  0  0  0  0  0  0  0  0  0
   69.4465    8.3892    3.0902 O   0  5  0  0  0  0  0  0  0  0  0  0
   65.4902    9.8890    3.6420 O   0  5  0  0  0  0  0  0  0  0  0  0
   65.7479   14.5715    7.9857 C   0  0  1  0  0  0  0  0  0  0  0  0
   65.7561   15.8519    7.6402 N   0  0  0  0  0  0  0  0  0  0  0  0
   72.1540   10.2694    4.1725 O   0  0  0  0  0  0  0  0  0  0  0  0
   67.7867    8.7036    5.0127 O   0  0  0  0  0  0  0  0  0  0  0  0
   66.6894    8.6148    1.7745 O   0  0  0  0  0  0  0  0  0  0  0  0
   66.8974   13.9331    8.1900 N   0  0  0  0  0  0  0  0  0  0  0  0
   69.7466   10.2044    4.7566 O   0  0  0  0  0  0  0  0  0  0  0  0
   67.8819   10.3194    3.1295 O   0  0  0  0  0  0  0  0  0  0  0  0
   66.1202   11.0393    1.5105 O   0  0  0  0  0  0  0  0  0  0  0  0
   66.7071   12.6399    8.5391 C   0  0  2  0  0  0  0  0  0  0  0  0
   65.5036   11.9702    8.6903 C   0  0  2  0  0  0  0  0  0  0  0  0
   64.2891   12.6648    8.4694 C   0  0  1  0  0  0  0  0  0  0  0  0
   63.1443   12.2465    8.5788 O   0  0  0  0  0  0  0  0  0  0  0  0
   65.7178   10.6387    9.0623 N   0  0  0  0  0  0  0  0  0  0  0  0
   67.0090   10.5908    9.1117 C   0  0  0  0  0  0  0  0  0  0  0  0
   67.6939   11.7244    8.8189 N   0  0  0  0  0  0  0  0  0  0  0  0
  1  5  1  1  0  0  0
  1 14  1  0  0  0  0
  1 19  2  0  0  0  0
  2 15  1  6  0  0  0
  2 20  2  0  0  0  0
  2 23  1  0  0  0  0
  3 16  1  1  0  0  0
  3 21  2  0  0  0  0
  3 24  1  0  0  0  0
  3 25  1  0  0  0  0
  4  6  1  0  0  0  0
  5  4  1  0  0  0  0
  6  7  1  0  0  0  0
  6  8  2  0  0  0  0
  7 12  1  0  0  0  0
  8  9  1  0  0  0  0
  8 10  1  0  0  0  0
 10 11  1  0  0  0  0
 10 12  2  0  0  0  0
 12 32  1  0  0  0  0
 13 17  1  0  0  0  0
 17 18  1  1  0  0  0
 17 22  1  0  0  0  0
 23  1  1  0  0  0  0
 24  2  1  0  0  0  0
 26 22  1  1  0  0  0
 27 26  1  0  0  0  0
 27 28  1  0  0  0  0
 27 30  1  1  0  0  0
 28 13  1  0  0  0  0
 28 29  1  1  0  0  0
 31 30  1  0  0  0  0
 32 26  1  0  0  0  0
 32 31  1  0  0  0  0
M  CHG  3  14  -1  15  -1  16  -1
M  END
>  <CHROM.1>
108.49932499,47.41447338,76.36674752,178.35038514,91.93158986,-26.37946637
136.76312992,82.85531952,68.14794802,11.20529712,5.83257589,-1.09745894,-0.11365007
1.12776371

>  <Name>
2au4_lig

>  <RI>
0

>  <Rbt.Current_Directory>
/home/itssahil/PROJECTS/Mol_Feturizer/New_Systems/rnas/2au4

>  <Rbt.Executable>
rbdock ($Id: //depot/dev/client3/rdock/2013.1/src/exe/rbdock.cxx#4 $)

>  <Rbt.Library>
libRbt.so (2013.1, Build901 2013/11/27)

>  <Rbt.Parameter_File>
/export/apps/rDock/src/rDock_2013.1_src/data/scripts/dock_solv.prm

>  <Rbt.Receptor>
prm/pocket_docking_8.prm

>  <SCORE>
-26.0524

>  <SCORE.INTER>
-5.48793

>  <SCORE.INTER.CONST>
1

>  <SCORE.INTER.POLAR>
-1.73503

>  <SCORE.INTER.ROT>
8

>  <SCORE.INTER.SOLV>
12.9785

>  <SCORE.INTER.VDW>
-11.1347

>  <SCORE.INTER.norm>
-0.171498

>  <SCORE.INTRA>
-20.5644

>  <SCORE.INTRA.DIHEDRAL>
-41.883

>  <SCORE.INTRA.DIHEDRAL.0>
76.3625

>  <SCORE.INTRA.POLAR>
0

>  <SCORE.INTRA.POLAR.0>
0

>  <SCORE.INTRA.REPUL>
0.0709565

>  <SCORE.INTRA.REPUL.0>
0.12705

>  <SCORE.INTRA.SOLV>
-2.48552

>  <SCORE.INTRA.SOLV.lig_0>
-119.383

>  <SCORE.INTRA.VDW>
1.26502

>  <SCORE.INTRA.VDW.0>
-5.10464

>  <SCORE.INTRA.norm>
-0.642639

>  <SCORE.RESTR>
0

>  <SCORE.RESTR.CAVITY>
0

>  <SCORE.RESTR.norm>
0

>  <SCORE.SYSTEM>
0

>  <SCORE.SYSTEM.CONST>
0

>  <SCORE.SYSTEM.DIHEDRAL>
0

>  <SCORE.SYSTEM.SOLV>
0

>  <SCORE.SYSTEM.norm>
0

>  <SCORE.heavy>
32

>  <SCORE.norm>
-0.814137

>  <RMSD>
10.261

$$$$
2au4_lig
 OpenBabel11021811423D
libRbt.so/2013.1/901 2013/11/27
 32 34  0  0  0  0  0  0  0  0999 V2000
   57.2527   -4.7626   -6.6527 P   0  0  1  0  0  0  0  0  0  0  0  0
   56.8948   -7.4484   -6.4860 P   0  0  1  0  0  0  0  0  0  0  0  0
   55.2172   -7.8336   -4.3699 P   0  0  2  0  0  0  0  0  0  0  0  0
   56.7531   -3.4635   -8.9095 C   0  0  0  0  0  0  0  0  0  0  0  0
   56.5129   -3.6120   -7.5003 O   0  0  0  0  0  0  0  0  0  0  0  0
   55.9744   -2.3040   -9.5134 C   0  0  0  0  0  0  0  0  0  0  0  0
   55.0044   -1.7995   -8.5728 O   0  0  0  0  0  0  0  0  0  0  0  0
   56.9096   -1.1656   -9.8903 C   0  0  0  0  0  0  0  0  0  0  0  0
   56.9020   -0.9438  -11.3058 O   0  0  0  0  0  0  0  0  0  0  0  0
   56.4211    0.0547   -9.1470 C   0  0  0  0  0  0  0  0  0  0  0  0
   56.0852    1.1145  -10.0526 O   0  0  0  0  0  0  0  0  0  0  0  0
   55.2016   -0.3862   -8.3560 C   0  0  0  0  0  0  0  0  0  0  0  0
   53.5927    2.3534   -4.3594 N   0  0  0  0  0  0  0  0  0  0  0  0
   58.5729   -5.0210   -7.2618 O   0  5  0  0  0  0  0  0  0  0  0  0
   56.0314   -8.4884   -7.0785 O   0  5  0  0  0  0  0  0  0  0  0  0
   55.0980   -7.3244   -2.9887 O   0  5  0  0  0  0  0  0  0  0  0  0
   53.1429    2.3584   -5.6583 C   0  0  1  0  0  0  0  0  0  0  0  0
   52.1497    3.1932   -5.9332 N   0  0  0  0  0  0  0  0  0  0  0  0
   57.1520   -4.4290   -5.2158 O   0  0  0  0  0  0  0  0  0  0  0  0
   58.3514   -7.4642   -6.7342 O   0  0  0  0  0  0  0  0  0  0  0  0
   55.0000   -9.2682   -4.6502 O   0  0  0  0  0  0  0  0  0  0  0  0
   53.6474    1.5896   -6.6201 N   0  0  0  0  0  0  0  0  0  0  0  0
   56.3350   -6.0296   -6.9221 O   0  0  0  0  0  0  0  0  0  0  0  0
   56.6623   -7.4433   -4.9140 O   0  0  0  0  0  0  0  0  0  0  0  0
   54.2406   -6.9760   -5.3140 O   0  0  0  0  0  0  0  0  0  0  0  0
   54.6535    0.8048   -6.1701 C   0  0  2  0  0  0  0  0  0  0  0  0
   55.1665    0.7368   -4.8848 C   0  0  2  0  0  0  0  0  0  0  0  0
   54.6181    1.5624   -3.8729 C   0  0  1  0  0  0  0  0  0  0  0  0
   54.9570    1.6535   -2.7006 O   0  0  0  0  0  0  0  0  0  0  0  0
   56.2066   -0.1960   -4.8124 N   0  0  0  0  0  0  0  0  0  0  0  0
   56.2546   -0.6218   -6.0324 C   0  0  0  0  0  0  0  0  0  0  0  0
   55.3760   -0.0928   -6.9201 N   0  0  0  0  0  0  0  0  0  0  0  0
  1  5  1  6  0  0  0
  1 14  1  0  0  0  0
  1 19  2  0  0  0  0
  2 15  1  6  0  0  0
  2 20  2  0  0  0  0
  2 23  1  0  0  0  0
  3 16  1  1  0  0  0
  3 21  2  0  0  0  0
  3 24  1  0  0  0  0
  3 25  1  0  0  0  0
  4  6  1  0  0  0  0
  5  4  1  0  0  0  0
  6  7  1  0  0  0  0
  6  8  2  0  0  0  0
  7 12  1  0  0  0  0
  8  9  1  0  0  0  0
  8 10  1  0  0  0  0
 10 11  1  0  0  0  0
 10 12  2  0  0  0  0
 12 32  1  0  0  0  0
 13 17  1  0  0  0  0
 17 18  1  6  0  0  0
 17 22  1  0  0  0  0
 23  1  1  0  0  0  0
 24  2  1  0  0  0  0
 26 22  1  6  0  0  0
 27 26  1  0  0  0  0
 27 28  1  0  0  0  0
 27 30  1  6  0  0  0
 28 13  1  0  0  0  0
 28 29  1  6  0  0  0
 31 30  1  0  0  0  0
 32 26  1  0  0  0  0
 32 31  1  0  0  0  0
M  CHG  3  14  -1  15  -1  16  -1
M  END
>  <CHROM.1>
30.67722710,-168.11558894,-160.83438495,-10.56862895,-179.03247709,-125.61653146
168.04666954,-31.60743135,55.80385372,-3.13181669,-6.45235246,-1.14306053
1.12831384,-0.48707876

>  <Name>
2au4_lig

>  <RI>
0

>  <Rbt.Current_Directory>
/home/afrankz/demos/rdock_decoys_rna/rnas/2au4

>  <Rbt.Executable>
rbdock ($Id: //depot/dev/client3/rdock/2013.1/src/exe/rbdock.cxx#4 $)

>  <Rbt.Library>
libRbt.so (2013.1, Build901 2013/11/27)

>  <Rbt.Parameter_File>
/export/apps/rDock/src/rDock_2013.1_src/data/scripts/dock_solv.prm

>  <Rbt.Receptor>
prm/blind_docking_60.prm

>  <SCORE>
-0.142532

>  <SCORE.INTER>
-4.87105

>  <SCORE.INTER.CONST>
1

>  <SCORE.INTER.POLAR>
-0.213964

>  <SCORE.INTER.ROT>
8

>  <SCORE.INTER.SOLV>
36.5391

>  <SCORE.INTER.VDW>
-23.6472

>  <SCORE.INTER.norm>
-0.15222

>  <SCORE.INTRA>
-2.50228

>  <SCORE.INTRA.DIHEDRAL>
-0.821778

>  <SCORE.INTRA.DIHEDRAL.0>
76.3625

>  <SCORE.INTRA.POLAR>
0

>  <SCORE.INTRA.POLAR.0>
0

>  <SCORE.INTRA.REPUL>
-0.12705

>  <SCORE.INTRA.REPUL.0>
0.12705

>  <SCORE.INTRA.SOLV>
-5.82044

>  <SCORE.INTRA.SOLV.lig_0>
-119.383

>  <SCORE.INTRA.VDW>
1.45408

>  <SCORE.INTRA.VDW.0>
-5.10464

>  <SCORE.INTRA.norm>
-0.0781962

>  <SCORE.RESTR>
7.23079

>  <SCORE.RESTR.CAVITY>
7.23079

>  <SCORE.RESTR.norm>
0.225962

>  <SCORE.SYSTEM>
0

>  <SCORE.SYSTEM.CONST>
0

>  <SCORE.SYSTEM.DIHEDRAL>
0

>  <SCORE.SYSTEM.SOLV>
0

>  <SCORE.SYSTEM.norm>
0

>  <SCORE.heavy>
32

>  <SCORE.norm>
-0.00445413

>  <RMSD>
19.258

$$$$
2au4_lig
 OpenBabel11021811423D
libRbt.so/2013.1/901 2013/11/27
 32 34  0  0  0  0  0  0  0  0999 V2000
   57.3469   -5.4759   -6.3736 P   0  0  1  0  0  0  0  0  0  0  0  0
   55.3694   -6.8685   -5.1408 P   0  0  1  0  0  0  0  0  0  0  0  0
   54.1702   -7.4411   -2.7586 P   0  0  2  0  0  0  0  0  0  0  0  0
   58.2444   -3.2443   -7.4893 C   0  0  0  0  0  0  0  0  0  0  0  0
   57.8311   -3.9429   -6.3032 O   0  0  0  0  0  0  0  0  0  0  0  0
   57.0652   -2.7514   -8.3151 C   0  0  0  0  0  0  0  0  0  0  0  0
   55.9180   -2.5178   -7.4726 O   0  0  0  0  0  0  0  0  0  0  0  0
   57.4097   -1.4502   -9.0226 C   0  0  0  0  0  0  0  0  0  0  0  0
   57.3872   -1.6193  -10.4452 O   0  0  0  0  0  0  0  0  0  0  0  0
   56.3818   -0.4362   -8.5801 C   0  0  0  0  0  0  0  0  0  0  0  0
   55.6600    0.0940   -9.6999 O   0  0  0  0  0  0  0  0  0  0  0  0
   55.4460   -1.1629   -7.6297 C   0  0  0  0  0  0  0  0  0  0  0  0
   53.4252    2.6941   -4.9639 N   0  0  0  0  0  0  0  0  0  0  0  0
   56.8948   -5.7643   -7.7496 O   0  5  0  0  0  0  0  0  0  0  0  0
   54.6489   -7.2865   -6.3591 O   0  5  0  0  0  0  0  0  0  0  0  0
   55.2109   -7.0432   -1.7891 O   0  5  0  0  0  0  0  0  0  0  0  0
   53.2232    2.3411   -6.2770 C   0  0  1  0  0  0  0  0  0  0  0  0
   52.3883    3.1045   -6.9691 N   0  0  0  0  0  0  0  0  0  0  0  0
   58.3767   -6.3259   -5.7385 O   0  0  0  0  0  0  0  0  0  0  0  0
   56.3690   -7.7664   -4.5259 O   0  0  0  0  0  0  0  0  0  0  0  0
   54.1027   -8.8368   -3.2397 O   0  0  0  0  0  0  0  0  0  0  0  0
   53.8129    1.3027   -6.8642 N   0  0  0  0  0  0  0  0  0  0  0  0
   56.0697   -5.4750   -5.4308 O   0  0  0  0  0  0  0  0  0  0  0  0
   54.2961   -6.4917   -4.0312 O   0  0  0  0  0  0  0  0  0  0  0  0
   52.7356   -7.0387   -2.1581 O   0  0  0  0  0  0  0  0  0  0  0  0
   54.6336    0.6376   -6.0188 C   0  0  2  0  0  0  0  0  0  0  0  0
   54.8933    0.9235   -4.6882 C   0  0  2  0  0  0  0  0  0  0  0  0
   54.2574    2.0327   -4.0786 C   0  0  1  0  0  0  0  0  0  0  0  0
   54.3839    2.4458   -2.9337 O   0  0  0  0  0  0  0  0  0  0  0  0
   55.8009    0.0053   -4.1494 N   0  0  0  0  0  0  0  0  0  0  0  0
   56.0268   -0.7594   -5.1674 C   0  0  0  0  0  0  0  0  0  0  0  0
   55.3844   -0.4721   -6.3269 N   0  0  0  0  0  0  0  0  0  0  0  0
  1  5  1  6  0  0  0
  1 14  1  0  0  0  0
  1 19  2  0  0  0  0
  2 15  1  6  0  0  0
  2 20  2  0  0  0  0
  2 23  1  0  0  0  0
  3 16  1  1  0  0  0
  3 21  2  0  0  0  0
  3 24  1  0  0  0  0
  3 25  1  0  0  0  0
  4  6  1  0  0  0  0
  5  4  1  0  0  0  0
  6  7  1  0  0  0  0
  6  8  2  0  0  0  0
  7 12  1  0  0  0  0
  8  9  1  0  0  0  0
  8 10  1  0  0  0  0
 10 11  1  0  0  0  0
 10 12  2  0  0  0  0
 12 32  1  0  0  0  0
 13 17  1  0  0  0  0
 17 18  1  6  0  0  0
 17 22  1  0  0  0  0
 23  1  1  0  0  0  0
 24  2  1  0  0  0  0
 26 22  1  6  0  0  0
 27 26  1  0  0  0  0
 27 28  1  0  0  0  0
 27 30  1  6  0  0  0
 28 13  1  0  0  0  0
 28 29  1  6  0  0  0
 31 30  1  0  0  0  0
 32 26  1  0  0  0  0
 32 31  1  0  0  0  0
M  CHG  3  14  -1  15  -1  16  -1
M  END
>  <CHROM.1>
-22.80735708,-73.23043025,83.25708875,27.58804873,79.48307154,-158.91524773
-174.81133054,111.32360143,55.49419753,-3.20223986,-5.73220799,-1.45862913
0.95881377,-0.35217409

>  <Name>
2au4_lig

>  <RI>
0

>  <Rbt.Current_Directory>
/home/afrankz/demos/rdock_decoys_rna/rnas/2au4

>  <Rbt.Executable>
rbdock ($Id: //depot/dev/client3/rdock/2013.1/src/exe/rbdock.cxx#4 $)

>  <Rbt.Library>
libRbt.so (2013.1, Build901 2013/11/27)

>  <Rbt.Parameter_File>
/export/apps/rDock/src/rDock_2013.1_src/data/scripts/dock_solv.prm

>  <Rbt.Receptor>
prm/blind_docking_60.prm

>  <SCORE>
-8.44941

>  <SCORE.INTER>
-6.97959

>  <SCORE.INTER.CONST>
1

>  <SCORE.INTER.POLAR>
-0.972902

>  <SCORE.INTER.ROT>
8

>  <SCORE.INTER.SOLV>
31.8285

>  <SCORE.INTER.VDW>
-20.9529

>  <SCORE.INTER.norm>
-0.218112

>  <SCORE.INTRA>
-9.22908

>  <SCORE.INTRA.DIHEDRAL>
-15.7752

>  <SCORE.INTRA.DIHEDRAL.0>
76.3625

>  <SCORE.INTRA.POLAR>
0

>  <SCORE.INTRA.POLAR.0>
0

>  <SCORE.INTRA.REPUL>
-0.12705

>  <SCORE.INTRA.REPUL.0>
0.12705

>  <SCORE.INTRA.SOLV>
-3.67677

>  <SCORE.INTRA.SOLV.lig_0>
-119.383

>  <SCORE.INTRA.VDW>
1.13214

>  <SCORE.INTRA.VDW.0>
-5.10464

>  <SCORE.INTRA.norm>
-0.288409

>  <SCORE.RESTR>
7.75926

>  <SCORE.RESTR.CAVITY>
7.75926

>  <SCORE.RESTR.norm>
0.242477

>  <SCORE.SYSTEM>
0

>  <SCORE.SYSTEM.CONST>
0

>  <SCORE.SYSTEM.DIHEDRAL>
0

>  <SCORE.SYSTEM.SOLV>
0

>  <SCORE.SYSTEM.norm>
0

>  <SCORE.heavy>
32

>  <SCORE.norm>
-0.264044

>  <RMSD>
19.280

$$$$
2au4_lig
 OpenBabel11021811423D
libRbt.so/2013.1/901 2013/11/27
 32 34  0  0  0  0  0  0  0  0999 V2000
   56.8689   -4.3909   -6.2856 P   0  0  1  0  0  0  0  0  0  0  0  0
   55.8690   -6.9147   -6.2949 P   0  0  1  0  0  0  0  0  0  0  0  0
   55.0755   -7.9871   -3.9156 P   0  0  2  0  0  0  0  0  0  0  0  0
   56.4592   -3.5456   -8.7652 C   0  0  0  0  0  0  0  0  0  0  0  0
   55.9279   -3.8155   -7.4573 O   0  0  0  0  0  0  0  0  0  0  0  0
   55.8089   -2.3352   -9.4190 C   0  0  0  0  0  0  0  0  0  0  0  0
   54.8711   -1.7136   -8.5166 O   0  0  0  0  0  0  0  0  0  0  0  0
   56.8571   -1.3024   -9.8028 C   0  0  0  0  0  0  0  0  0  0  0  0
   56.9022   -1.1220  -11.2235 O   0  0  0  0  0  0  0  0  0  0  0  0
   56.4714   -0.0201   -9.1047 C   0  0  0  0  0  0  0  0  0  0  0  0
   56.2588    1.0401  -10.0464 O   0  0  0  0  0  0  0  0  0  0  0  0
   55.1980   -0.3198   -8.3328 C   0  0  0  0  0  0  0  0  0  0  0  0
   53.4970    2.3953   -4.3577 N   0  0  0  0  0  0  0  0  0  0  0  0
   58.1944   -3.7478   -6.3876 O   0  5  0  0  0  0  0  0  0  0  0  0
   54.5861   -6.1909   -6.3877 O   0  5  0  0  0  0  0  0  0  0  0  0
   55.2011   -7.5686   -2.5049 O   0  5  0  0  0  0  0  0  0  0  0  0
   53.0403    2.3665   -5.6539 C   0  0  1  0  0  0  0  0  0  0  0  0
   52.0112    3.1555   -5.9322 N   0  0  0  0  0  0  0  0  0  0  0  0
   56.1189   -4.3448   -5.0123 O   0  0  0  0  0  0  0  0  0  0  0  0
   56.0653   -8.1742   -7.0423 O   0  0  0  0  0  0  0  0  0  0  0  0
   55.1702   -9.4178   -4.2736 O   0  0  0  0  0  0  0  0  0  0  0  0
   53.5715    1.6086   -6.6100 N   0  0  0  0  0  0  0  0  0  0  0  0
   57.0336   -5.9154   -6.6967 O   0  0  0  0  0  0  0  0  0  0  0  0
   56.1714   -7.1990   -4.7610 O   0  0  0  0  0  0  0  0  0  0  0  0
   53.6954   -7.4062   -4.4974 O   0  0  0  0  0  0  0  0  0  0  0  0
   54.6122    0.8721   -6.1573 C   0  0  2  0  0  0  0  0  0  0  0  0
   55.1346    0.8404   -4.8743 C   0  0  2  0  0  0  0  0  0  0  0  0
   54.5575    1.6538   -3.8686 C   0  0  1  0  0  0  0  0  0  0  0  0
   54.8986    1.7725   -2.6994 O   0  0  0  0  0  0  0  0  0  0  0  0
   56.2135   -0.0469   -4.7976 N   0  0  0  0  0  0  0  0  0  0  0  0
   56.2727   -0.4842   -6.0130 C   0  0  0  0  0  0  0  0  0  0  0  0
   55.3677   -0.0029   -6.9014 N   0  0  0  0  0  0  0  0  0  0  0  0
  1  5  1  6  0  0  0
  1 14  1  0  0  0  0
  1 19  2  0  0  0  0
  2 15  1  6  0  0  0
  2 20  2  0  0  0  0
  2 23  1  0  0  0  0
  3 16  1  1  0  0  0
  3 21  2  0  0  0  0
  3 24  1  0  0  0  0
  3 25  1  0  0  0  0
  4  6  1  0  0  0  0
  5  4  1  0  0  0  0
  6  7  1  0  0  0  0
  6  8  2  0  0  0  0
  7 12  1  0  0  0  0
  8  9  1  0  0  0  0
  8 10  1  0  0  0  0
 10 11  1  0  0  0  0
 10 12  2  0  0  0  0
 12 32  1  0  0  0  0
 13 17  1  0  0  0  0
 17 18  1  6  0  0  0
 17 22  1  0  0  0  0
 23  1  1  0  0  0  0
 24  2  1  0  0  0  0
 26 22  1  6  0  0  0
 27 26  1  0  0  0  0
 27 28  1  0  0  0  0
 27 30  1  6  0  0  0
 28 13  1  0  0  0  0
 28 29  1  6  0  0  0
 31 30  1  0  0  0  0
 32 26  1  0  0  0  0
 32 31  1  0  0  0  0
M  CHG  3  14  -1  15  -1  16  -1
M  END
>  <CHROM.1>
38.07666512,34.93420151,-152.18127074,3.45433621,-145.17539664,-117.48792640
-82.06248246,55.92722850,55.50415918,-3.00603699,-6.26413509,-1.31076731
1.17383894,-0.40832635

>  <Name>
2au4_lig

>  <RI>
0

>  <Rbt.Current_Directory>
/home/afrankz/demos/rdock_decoys_rna/rnas/2au4

>  <Rbt.Executable>
rbdock ($Id: //depot/dev/client3/rdock/2013.1/src/exe/rbdock.cxx#4 $)

>  <Rbt.Library>
libRbt.so (2013.1, Build901 2013/11/27)

>  <Rbt.Parameter_File>
/export/apps/rDock/src/rDock_2013.1_src/data/scripts/dock_solv.prm

>  <Rbt.Receptor>
prm/blind_docking_60.prm

>  <SCORE>
6.82478

>  <SCORE.INTER>
-2.26598

>  <SCORE.INTER.CONST>
1

>  <SCORE.INTER.POLAR>
-0.346099

>  <SCORE.INTER.ROT>
8

>  <SCORE.INTER.SOLV>
32.6145

>  <SCORE.INTER.VDW>
-20.1618

>  <SCORE.INTER.norm>
-0.0708119

>  <SCORE.INTRA>
0.738761

>  <SCORE.INTRA.DIHEDRAL>
4.11026

>  <SCORE.INTRA.DIHEDRAL.0>
76.3625

>  <SCORE.INTRA.POLAR>
0

>  <SCORE.INTRA.POLAR.0>
0

>  <SCORE.INTRA.REPUL>
-0.12705

>  <SCORE.INTRA.REPUL.0>
0.12705

>  <SCORE.INTRA.SOLV>
-4.97957

>  <SCORE.INTRA.SOLV.lig_0>
-119.383

>  <SCORE.INTRA.VDW>
1.80866

>  <SCORE.INTRA.VDW.0>
-5.10464

>  <SCORE.INTRA.norm>
0.0230863

>  <SCORE.RESTR>
8.352

>  <SCORE.RESTR.CAVITY>
8.352

>  <SCORE.RESTR.norm>
0.261

>  <SCORE.SYSTEM>
0

>  <SCORE.SYSTEM.CONST>
0

>  <SCORE.SYSTEM.DIHEDRAL>
0

>  <SCORE.SYSTEM.SOLV>
0

>  <SCORE.SYSTEM.norm>
0

>  <SCORE.heavy>
32

>  <SCORE.norm>
0.213274

>  <RMSD>
19.292

$$$$
2au4_lig
 OpenBabel11021811423D
libRbt.so/2013.1/901 2013/11/27
 32 34  0  0  0  0  0  0  0  0999 V2000
   56.4705   -1.5437   -5.3385 P   0  0  1  0  0  0  0  0  0  0  0  0
   55.7951   -0.7877   -7.8568 P   0  0  1  0  0  0  0  0  0  0  0  0
   56.8878   -0.1429  -10.2716 P   0  0  2  0  0  0  0  0  0  0  0  0
   56.9572   -4.0269   -6.1308 C   0  0  0  0  0  0  0  0  0  0  0  0
   57.4632   -2.7729   -5.6437 O   0  0  0  0  0  0  0  0  0  0  0  0
   58.0260   -5.1092   -6.1716 C   0  0  0  0  0  0  0  0  0  0  0  0
   57.6502   -6.2251   -5.3386 O   0  0  0  0  0  0  0  0  0  0  0  0
   58.2223   -5.6189   -7.5908 C   0  0  0  0  0  0  0  0  0  0  0  0
   59.5443   -5.3286   -8.0609 O   0  0  0  0  0  0  0  0  0  0  0  0
   57.9756   -7.1081   -7.5497 C   0  0  0  0  0  0  0  0  0  0  0  0
   59.1258   -7.8376   -7.9978 O   0  0  0  0  0  0  0  0  0  0  0  0
   57.6498   -7.4478   -6.1055 C   0  0  0  0  0  0  0  0  0  0  0  0
   53.6582   -8.5731   -3.1277 N   0  0  0  0  0  0  0  0  0  0  0  0
   55.0790   -2.0329   -5.4117 O   0  5  0  0  0  0  0  0  0  0  0  0
   56.0902   -2.1118   -8.4381 O   0  5  0  0  0  0  0  0  0  0  0  0
   57.3931    1.0501  -10.9805 O   0  5  0  0  0  0  0  0  0  0  0  0
   54.7902   -7.8510   -2.8332 C   0  0  1  0  0  0  0  0  0  0  0  0
   54.8777   -7.3726   -1.5993 N   0  0  0  0  0  0  0  0  0  0  0  0
   56.9466   -0.8419   -4.1274 O   0  0  0  0  0  0  0  0  0  0  0  0
   54.4100   -0.4343   -7.4826 O   0  0  0  0  0  0  0  0  0  0  0  0
   55.8561   -0.9944  -10.8996 O   0  0  0  0  0  0  0  0  0  0  0  0
   55.7706   -7.6224   -3.7034 N   0  0  0  0  0  0  0  0  0  0  0  0
   56.7174   -0.5878   -6.5817 O   0  0  0  0  0  0  0  0  0  0  0  0
   56.3364    0.3260   -8.8528 O   0  0  0  0  0  0  0  0  0  0  0  0
   58.1404   -1.0675   -9.8759 O   0  0  0  0  0  0  0  0  0  0  0  0
   55.5229   -8.1839   -4.9092 C   0  0  2  0  0  0  0  0  0  0  0  0
   54.4143   -8.9230   -5.2892 C   0  0  2  0  0  0  0  0  0  0  0  0
   53.3799   -9.1574   -4.3504 C   0  0  1  0  0  0  0  0  0  0  0  0
   52.3502   -9.8014   -4.4999 O   0  0  0  0  0  0  0  0  0  0  0  0
   54.5239   -9.3361   -6.6213 N   0  0  0  0  0  0  0  0  0  0  0  0
   55.6673   -8.8316   -6.9530 C   0  0  0  0  0  0  0  0  0  0  0  0
   56.3438   -8.1287   -6.0107 N   0  0  0  0  0  0  0  0  0  0  0  0
  1  5  1  6  0  0  0
  1 14  1  0  0  0  0
  1 19  2  0  0  0  0
  2 15  1  6  0  0  0
  2 20  2  0  0  0  0
  2 23  1  0  0  0  0
  3 16  1  6  0  0  0
  3 21  2  0  0  0  0
  3 24  1  0  0  0  0
  3 25  1  0  0  0  0
  4  6  1  0  0  0  0
  5  4  1  0  0  0  0
  6  7  1  0  0  0  0
  6  8  2  0  0  0  0
  7 12  1  0  0  0  0
  8  9  1  0  0  0  0
  8 10  1  0  0  0  0
 10 11  1  0  0  0  0
 10 12  2  0  0  0  0
 12 32  1  0  0  0  0
 13 17  1  0  0  0  0
 17 18  1  1  0  0  0
 17 22  1  0  0  0  0
 23  1  1  0  0  0  0
 24  2  1  0  0  0  0
 26 22  1  1  0  0  0
 27 26  1  0  0  0  0
 27 28  1  0  0  0  0
 27 30  1  1  0  0  0
 28 13  1  0  0  0  0
 28 29  1  1  0  0  0
 31 30  1  0  0  0  0
 32 26  1  0  0  0  0
 32 31  1  0  0  0  0
M  CHG  3  14  -1  15  -1  16  -1
M  END
>  <CHROM.1>
9.86968724,-65.73316901,-177.11529670,120.30495279,-172.10150042,-36.05521150
90.67151769,7.14194828,56.27253836,-4.26715983,-6.65477516,1.24203392,1.00240977
-0.19225228

>  <Name>
2au4_lig

>  <RI>
0

>  <Rbt.Current_Directory>
/home/afrankz/demos/rdock_decoys_rna/rnas/2au4

>  <Rbt.Executable>
rbdock ($Id: //depot/dev/client3/rdock/2013.1/src/exe/rbdock.cxx#4 $)

>  <Rbt.Library>
libRbt.so (2013.1, Build901 2013/11/27)

>  <Rbt.Parameter_File>
/export/apps/rDock/src/rDock_2013.1_src/data/scripts/dock_solv.prm

>  <Rbt.Receptor>
prm/blind_docking_60.prm

>  <SCORE>
-13.8244

>  <SCORE.INTER>
-1.4047

>  <SCORE.INTER.CONST>
1

>  <SCORE.INTER.POLAR>
-0.0514549

>  <SCORE.INTER.ROT>
8

>  <SCORE.INTER.SOLV>
29.773

>  <SCORE.INTER.VDW>
-19.6226

>  <SCORE.INTER.norm>
-0.0438968

>  <SCORE.INTRA>
-22.6183

>  <SCORE.INTRA.DIHEDRAL>
-44.9943

>  <SCORE.INTRA.DIHEDRAL.0>
76.3625

>  <SCORE.INTRA.POLAR>
0

>  <SCORE.INTRA.POLAR.0>
0

>  <SCORE.INTRA.REPUL>
0.0383152

>  <SCORE.INTRA.REPUL.0>
0.12705

>  <SCORE.INTRA.SOLV>
-5.71381

>  <SCORE.INTRA.SOLV.lig_0>
-119.383

>  <SCORE.INTRA.VDW>
2.54421

>  <SCORE.INTRA.VDW.0>
-5.10464

>  <SCORE.INTRA.norm>
-0.706822

>  <SCORE.RESTR>
10.1986

>  <SCORE.RESTR.CAVITY>
10.1986

>  <SCORE.RESTR.norm>
0.318706

>  <SCORE.SYSTEM>
0

>  <SCORE.SYSTEM.CONST>
0

>  <SCORE.SYSTEM.DIHEDRAL>
0

>  <SCORE.SYSTEM.SOLV>
0

>  <SCORE.SYSTEM.norm>
0

>  <SCORE.heavy>
32

>  <SCORE.norm>
-0.432012

>  <RMSD>
19.331

$$$$
2au4_lig
 OpenBabel11021811423D
libRbt.so/2013.1/901 2013/11/27
 32 34  0  0  0  0  0  0  0  0999 V2000
   56.2210   -1.3478   -5.1424 P   0  0  1  0  0  0  0  0  0  0  0  0
   55.8476   -0.7550   -7.7651 P   0  0  1  0  0  0  0  0  0  0  0  0
   56.4322    0.0285  -10.3116 P   0  0  2  0  0  0  0  0  0  0  0  0
   56.5505   -3.9449   -5.5635 C   0  0  0  0  0  0  0  0  0  0  0  0
   57.1256   -2.6292   -5.5018 O   0  0  0  0  0  0  0  0  0  0  0  0
   57.6025   -5.0330   -5.7209 C   0  0  0  0  0  0  0  0  0  0  0  0
   57.2955   -6.1615   -4.8767 O   0  0  0  0  0  0  0  0  0  0  0  0
   57.6643   -5.5179   -7.1609 C   0  0  0  0  0  0  0  0  0  0  0  0
   58.9402   -5.2274   -7.7446 O   0  0  0  0  0  0  0  0  0  0  0  0
   57.4106   -7.0060   -7.1235 C   0  0  0  0  0  0  0  0  0  0  0  0
   58.5093   -7.7345   -7.6877 O   0  0  0  0  0  0  0  0  0  0  0  0
   57.2153   -7.3700   -5.6618 C   0  0  0  0  0  0  0  0  0  0  0  0
   53.3523   -8.2613   -2.4448 N   0  0  0  0  0  0  0  0  0  0  0  0
   54.7998   -1.7461   -5.1916 O   0  5  0  0  0  0  0  0  0  0  0  0
   56.3344   -2.0921   -8.1566 O   0  5  0  0  0  0  0  0  0  0  0  0
   56.9265    1.2297  -11.0146 O   0  5  0  0  0  0  0  0  0  0  0  0
   54.4910   -7.5149   -2.2552 C   0  0  1  0  0  0  0  0  0  0  0  0
   54.6250   -6.9382   -1.0684 N   0  0  0  0  0  0  0  0  0  0  0  0
   56.7697   -0.7084   -3.9274 O   0  0  0  0  0  0  0  0  0  0  0  0
   54.3963   -0.4892   -7.6828 O   0  0  0  0  0  0  0  0  0  0  0  0
   55.0923   -0.5114  -10.6230 O   0  0  0  0  0  0  0  0  0  0  0  0
   55.4345   -7.3548   -3.1798 N   0  0  0  0  0  0  0  0  0  0  0  0
   56.4985   -0.3782   -6.3684 O   0  0  0  0  0  0  0  0  0  0  0  0
   56.4906    0.3169   -8.7463 O   0  0  0  0  0  0  0  0  0  0  0  0
   57.5111   -1.1475  -10.4947 O   0  0  0  0  0  0  0  0  0  0  0  0
   55.1422   -8.0125   -4.3254 C   0  0  2  0  0  0  0  0  0  0  0  0
   54.0235   -8.7826   -4.5998 C   0  0  2  0  0  0  0  0  0  0  0  0
   53.0288   -8.9431   -3.6043 C   0  0  1  0  0  0  0  0  0  0  0  0
   51.9976   -9.5996   -3.6599 O   0  0  0  0  0  0  0  0  0  0  0  0
   54.0822   -9.3016   -5.8976 N   0  0  0  0  0  0  0  0  0  0  0  0
   55.2086   -8.8226   -6.3146 C   0  0  0  0  0  0  0  0  0  0  0  0
   55.9181   -8.0443   -5.4599 N   0  0  0  0  0  0  0  0  0  0  0  0
  1  5  1  6  0  0  0
  1 14  1  0  0  0  0
  1 19  2  0  0  0  0
  2 15  1  6  0  0  0
  2 20  2  0  0  0  0
  2 23  1  0  0  0  0
  3 16  1  6  0  0  0
  3 21  2  0  0  0  0
  3 24  1  0  0  0  0
  3 25  1  0  0  0  0
  4  6  1  0  0  0  0
  5  4  1  0  0  0  0
  6  7  1  0  0  0  0
  6  8  2  0  0  0  0
  7 12  1  0  0  0  0
  8  9  1  0  0  0  0
  8 10  1  0  0  0  0
 10 11  1  0  0  0  0
 10 12  2  0  0  0  0
 12 32  1  0  0  0  0
 13 17  1  0  0  0  0
 17 18  1  1  0  0  0
 17 22  1  0  0  0  0
 23  1  1  0  0  0  0
 24  2  1  0  0  0  0
 26 22  1  1  0  0  0
 27 26  1  0  0  0  0
 27 28  1  0  0  0  0
 27 30  1  1  0  0  0
 28 13  1  0  0  0  0
 28 29  1  1  0  0  0
 31 30  1  0  0  0  0
 32 26  1  0  0  0  0
 32 31  1  0  0  0  0
M  CHG  3  14  -1  15  -1  16  -1
M  END
>  <CHROM.1>
-11.42628467,-58.80307145,172.77008483,137.90192917,-171.82353423,-29.65015420
72.86831560,48.06199689,55.94254393,-4.12437922,-6.34057212,1.13650368,1.12917934
-0.14402142

>  <Name>
2au4_lig

>  <RI>
0

>  <Rbt.Current_Directory>
/home/afrankz/demos/rdock_decoys_rna/rnas/2au4

>  <Rbt.Executable>
rbdock ($Id: //depot/dev/client3/rdock/2013.1/src/exe/rbdock.cxx#4 $)

>  <Rbt.Library>
libRbt.so (2013.1, Build901 2013/11/27)

>  <Rbt.Parameter_File>
/export/apps/rDock/src/rDock_2013.1_src/data/scripts/dock_solv.prm

>  <Rbt.Receptor>
prm/blind_docking_60.prm

>  <SCORE>
-3.8561

>  <SCORE.INTER>
11.9835

>  <SCORE.INTER.CONST>
1

>  <SCORE.INTER.POLAR>
-0.0636775

>  <SCORE.INTER.ROT>
8

>  <SCORE.INTER.SOLV>
27.112

>  <SCORE.INTER.VDW>
-9.76941

>  <SCORE.INTER.norm>
0.374485

>  <SCORE.INTRA>
-24.6469

>  <SCORE.INTRA.DIHEDRAL>
-47.6284

>  <SCORE.INTRA.DIHEDRAL.0>
76.3625

>  <SCORE.INTRA.POLAR>
0

>  <SCORE.INTRA.POLAR.0>
0

>  <SCORE.INTRA.REPUL>
0.0648681

>  <SCORE.INTRA.REPUL.0>
0.12705

>  <SCORE.INTRA.SOLV>
-5.21502

>  <SCORE.INTRA.SOLV.lig_0>
-119.383

>  <SCORE.INTRA.VDW>
1.45047

>  <SCORE.INTRA.VDW.0>
-5.10464

>  <SCORE.INTRA.norm>
-0.770216

>  <SCORE.RESTR>
8.80732

>  <SCORE.RESTR.CAVITY>
8.80732

>  <SCORE.RESTR.norm>
0.275229

>  <SCORE.SYSTEM>
0

>  <SCORE.SYSTEM.CONST>
0

>  <SCORE.SYSTEM.DIHEDRAL>
0

>  <SCORE.SYSTEM.SOLV>
0

>  <SCORE.SYSTEM.norm>
0

>  <SCORE.heavy>
32

>  <SCORE.norm>
-0.120503

>  <RMSD>
19.389

$$$$
2au4_lig
 OpenBabel11021811423D
libRbt.so/2013.1/901 2013/11/27
 32 34  0  0  0  0  0  0  0  0999 V2000
   56.8795   -1.8661   -6.9483 P   0  0  1  0  0  0  0  0  0  0  0  0
   55.3702   -0.2057   -5.4204 P   0  0  1  0  0  0  0  0  0  0  0  0
   53.5449    1.1516   -6.9260 P   0  0  2  0  0  0  0  0  0  0  0  0
   55.8137   -3.8252   -5.5141 C   0  0  0  0  0  0  0  0  0  0  0  0
   55.7002   -2.9094   -6.6160 O   0  0  0  0  0  0  0  0  0  0  0  0
   56.9746   -4.7948   -5.6806 C   0  0  0  0  0  0  0  0  0  0  0  0
   56.8609   -5.8876   -4.7462 O   0  0  0  0  0  0  0  0  0  0  0  0
   56.9971   -5.3713   -7.0876 C   0  0  0  0  0  0  0  0  0  0  0  0
   58.1874   -4.9799   -7.7824 O   0  0  0  0  0  0  0  0  0  0  0  0
   56.9248   -6.8721   -6.9374 C   0  0  0  0  0  0  0  0  0  0  0  0
   58.0620   -7.5091   -7.5350 O   0  0  0  0  0  0  0  0  0  0  0  0
   56.8724   -7.1505   -5.4451 C   0  0  0  0  0  0  0  0  0  0  0  0
   53.3444   -8.2165   -1.9120 N   0  0  0  0  0  0  0  0  0  0  0  0
   58.1733   -2.5712   -6.8506 O   0  5  0  0  0  0  0  0  0  0  0  0
   54.4386   -1.2938   -5.0648 O   0  5  0  0  0  0  0  0  0  0  0  0
   53.3871    1.6385   -8.3114 O   0  5  0  0  0  0  0  0  0  0  0  0
   54.3934   -7.3299   -1.8575 C   0  0  1  0  0  0  0  0  0  0  0  0
   54.5269   -6.6458   -0.7291 N   0  0  0  0  0  0  0  0  0  0  0  0
   56.5267   -1.1324   -8.1825 O   0  0  0  0  0  0  0  0  0  0  0  0
   55.5736    0.9281   -4.4950 O   0  0  0  0  0  0  0  0  0  0  0  0
   53.4759    2.1016   -5.7961 O   0  0  0  0  0  0  0  0  0  0  0  0
   55.2539   -7.1379   -2.8543 N   0  0  0  0  0  0  0  0  0  0  0  0
   56.7867   -0.8469   -5.7347 O   0  0  0  0  0  0  0  0  0  0  0  0
   54.9358    0.3813   -6.8318 O   0  0  0  0  0  0  0  0  0  0  0  0
   52.4746   -0.0194   -6.6737 O   0  0  0  0  0  0  0  0  0  0  0  0
   54.9757   -7.9172   -3.9248 C   0  0  2  0  0  0  0  0  0  0  0  0
   53.9444   -8.8320   -4.0631 C   0  0  2  0  0  0  0  0  0  0  0  0
   53.0375   -9.0244   -2.9922 C   0  0  1  0  0  0  0  0  0  0  0  0
   52.0920   -9.7986   -2.9275 O   0  0  0  0  0  0  0  0  0  0  0  0
   53.9882   -9.4458   -5.3195 N   0  0  0  0  0  0  0  0  0  0  0  0
   55.0213   -8.8752   -5.8477 C   0  0  0  0  0  0  0  0  0  0  0  0
   55.6809   -7.9519   -5.1045 N   0  0  0  0  0  0  0  0  0  0  0  0
  1  5  1  1  0  0  0
  1 14  1  0  0  0  0
  1 19  2  0  0  0  0
  2 15  1  1  0  0  0
  2 20  2  0  0  0  0
  2 23  1  0  0  0  0
  3 16  1  6  0  0  0
  3 21  2  0  0  0  0
  3 24  1  0  0  0  0
  3 25  1  0  0  0  0
  4  6  1  0  0  0  0
  5  4  1  0  0  0  0
  6  7  1  0  0  0  0
  6  8  2  0  0  0  0
  7 12  1  0  0  0  0
  8  9  1  0  0  0  0
  8 10  1  0  0  0  0
 10 11  1  0  0  0  0
 10 12  2  0  0  0  0
 12 32  1  0  0  0  0
 13 17  1  0  0  0  0
 17 18  1  1  0  0  0
 17 22  1  0  0  0  0
 23  1  1  0  0  0  0
 24  2  1  0  0  0  0
 26 22  1  1  0  0  0
 27 26  1  0  0  0  0
 27 28  1  0  0  0  0
 27 30  1  1  0  0  0
 28 13  1  0  0  0  0
 28 29  1  1  0  0  0
 31 30  1  0  0  0  0
 32 26  1  0  0  0  0
 32 31  1  0  0  0  0
M  CHG  3  14  -1  15  -1  16  -1
M  END
>  <CHROM.1>
43.70703718,61.82707157,178.07500785,-165.85455753,-62.59680791,-28.89256981
-51.97735033,66.97307655,55.30678665,-3.86383908,-5.53250825,-1.55496339
-0.68780981,2.85597218

>  <Name>
2au4_lig

>  <RI>
0

>  <Rbt.Current_Directory>
/home/afrankz/demos/rdock_decoys_rna/rnas/2au4

>  <Rbt.Executable>
rbdock ($Id: //depot/dev/client3/rdock/2013.1/src/exe/rbdock.cxx#4 $)

>  <Rbt.Library>
libRbt.so (2013.1, Build901 2013/11/27)

>  <Rbt.Parameter_File>
/export/apps/rDock/src/rDock_2013.1_src/data/scripts/dock_solv.prm

>  <Rbt.Receptor>
prm/blind_docking_60.prm

>  <SCORE>
-1.38216

>  <SCORE.INTER>
13.2105

>  <SCORE.INTER.CONST>
1

>  <SCORE.INTER.POLAR>
-0.242002

>  <SCORE.INTER.ROT>
8

>  <SCORE.INTER.SOLV>
32.2496

>  <SCORE.INTER.VDW>
-10.0695

>  <SCORE.INTER.norm>
0.412828

>  <SCORE.INTRA>
-24.4634

>  <SCORE.INTRA.DIHEDRAL>
-50.4633

>  <SCORE.INTRA.DIHEDRAL.0>
76.3625

>  <SCORE.INTRA.POLAR>
0

>  <SCORE.INTRA.POLAR.0>
0

>  <SCORE.INTRA.REPUL>
0.0667991

>  <SCORE.INTRA.REPUL.0>
0.12705

>  <SCORE.INTRA.SOLV>
-2.53561

>  <SCORE.INTRA.SOLV.lig_0>
-119.383

>  <SCORE.INTRA.VDW>
1.70207

>  <SCORE.INTRA.VDW.0>
-5.10464

>  <SCORE.INTRA.norm>
-0.764482

>  <SCORE.RESTR>
9.87075

>  <SCORE.RESTR.CAVITY>
9.87075

>  <SCORE.RESTR.norm>
0.308461

>  <SCORE.SYSTEM>
0

>  <SCORE.SYSTEM.CONST>
0

>  <SCORE.SYSTEM.DIHEDRAL>
0

>  <SCORE.SYSTEM.SOLV>
0

>  <SCORE.SYSTEM.norm>
0

>  <SCORE.heavy>
32

>  <SCORE.norm>
-0.0431926

>  <RMSD>
19.406

$$$$
2au4_lig
 OpenBabel11021811423D
libRbt.so/2013.1/901 2013/11/27
 32 34  0  0  0  0  0  0  0  0999 V2000
   56.9104   -5.2747   -6.6638 P   0  0  1  0  0  0  0  0  0  0  0  0
   55.9430   -7.4369   -5.3377 P   0  0  1  0  0  0  0  0  0  0  0  0
   54.3763   -8.6892   -3.4889 P   0  0  2  0  0  0  0  0  0  0  0  0
   56.8207   -2.9386   -7.9149 C   0  0  0  0  0  0  0  0  0  0  0  0
   56.1757   -4.1804   -7.5870 O   0  0  0  0  0  0  0  0  0  0  0  0
   56.0773   -2.1637   -8.9930 C   0  0  0  0  0  0  0  0  0  0  0  0
   54.8295   -1.6525   -8.4815 O   0  0  0  0  0  0  0  0  0  0  0  0
   56.9093   -0.9884   -9.4818 C   0  0  0  0  0  0  0  0  0  0  0  0
   57.2506   -1.1425  -10.8648 O   0  0  0  0  0  0  0  0  0  0  0  0
   56.0723    0.2495   -9.2639 C   0  0  0  0  0  0  0  0  0  0  0  0
   55.8460    0.9468  -10.4963 O   0  0  0  0  0  0  0  0  0  0  0  0
   54.7601   -0.2221   -8.6617 C   0  0  0  0  0  0  0  0  0  0  0  0
   56.0597    0.1990   -3.7423 N   0  0  0  0  0  0  0  0  0  0  0  0
   57.5715   -6.2625   -7.5400 O   0  5  0  0  0  0  0  0  0  0  0  0
   55.2924   -8.4322   -6.2119 O   0  5  0  0  0  0  0  0  0  0  0  0
   53.3733   -9.0328   -4.5171 O   0  5  0  0  0  0  0  0  0  0  0  0
   56.5775   -0.6239   -4.7140 C   0  0  1  0  0  0  0  0  0  0  0  0
   57.5550   -1.4369   -4.3362 N   0  0  0  0  0  0  0  0  0  0  0  0
   57.6886   -4.5687   -5.6235 O   0  0  0  0  0  0  0  0  0  0  0  0
   57.3816   -7.5556   -5.0217 O   0  0  0  0  0  0  0  0  0  0  0  0
   53.9572   -8.4834   -2.0868 O   0  0  0  0  0  0  0  0  0  0  0  0
   56.1514   -0.6413   -5.9745 N   0  0  0  0  0  0  0  0  0  0  0  0
   55.6892   -5.9958   -5.9503 O   0  0  0  0  0  0  0  0  0  0  0  0
   55.1403   -7.3762   -3.9676 O   0  0  0  0  0  0  0  0  0  0  0  0
   55.5346   -9.8019   -3.5168 O   0  0  0  0  0  0  0  0  0  0  0  0
   55.1502    0.2437   -6.1863 C   0  0  2  0  0  0  0  0  0  0  0  0
   54.5722    1.1063   -5.2689 C   0  0  2  0  0  0  0  0  0  0  0  0
   55.0374    1.1117   -3.9310 C   0  0  1  0  0  0  0  0  0  0  0  0
   54.6338    1.7809   -2.9894 O   0  0  0  0  0  0  0  0  0  0  0  0
   53.5621    1.8666   -5.8679 N   0  0  0  0  0  0  0  0  0  0  0  0
   53.5936    1.4235   -7.0822 C   0  0  0  0  0  0  0  0  0  0  0  0
   54.4996    0.4585   -7.3782 N   0  0  0  0  0  0  0  0  0  0  0  0
  1  5  1  6  0  0  0
  1 14  1  0  0  0  0
  1 19  2  0  0  0  0
  2 15  1  6  0  0  0
  2 20  2  0  0  0  0
  2 23  1  0  0  0  0
  3 16  1  6  0  0  0
  3 21  2  0  0  0  0
  3 24  1  0  0  0  0
  3 25  1  0  0  0  0
  4  6  1  0  0  0  0
  5  4  1  0  0  0  0
  6  7  1  0  0  0  0
  6  8  2  0  0  0  0
  7 12  1  0  0  0  0
  8  9  1  0  0  0  0
  8 10  1  0  0  0  0
 10 11  1  0  0  0  0
 10 12  2  0  0  0  0
 12 32  1  0  0  0  0
 13 17  1  0  0  0  0
 17 18  1  1  0  0  0
 17 22  1  0  0  0  0
 23  1  1  0  0  0  0
 24  2  1  0  0  0  0
 26 22  1  1  0  0  0
 27 26  1  0  0  0  0
 27 28  1  0  0  0  0
 27 30  1  1  0  0  0
 28 13  1  0  0  0  0
 28 29  1  1  0  0  0
 31 30  1  0  0  0  0
 32 26  1  0  0  0  0
 32 31  1  0  0  0  0
M  CHG  3  14  -1  15  -1  16  -1
M  END
>  <CHROM.1>
-95.49983330,-106.14723607,-60.69856801,69.88376739,169.44513500,48.14363762
159.85724967,28.45971345,55.66699700,-3.57110305,-6.07439612,-1.59355513
1.22879426,-0.28053619

>  <Name>
2au4_lig

>  <RI>
0

>  <Rbt.Current_Directory>
/home/afrankz/demos/rdock_decoys_rna/rnas/2au4

>  <Rbt.Executable>
rbdock ($Id: //depot/dev/client3/rdock/2013.1/src/exe/rbdock.cxx#4 $)

>  <Rbt.Library>
libRbt.so (2013.1, Build901 2013/11/27)

>  <Rbt.Parameter_File>
/export/apps/rDock/src/rDock_2013.1_src/data/scripts/dock_solv.prm

>  <Rbt.Receptor>
prm/blind_docking_60.prm

>  <SCORE>
4.5366

>  <SCORE.INTER>
-1.15311

>  <SCORE.INTER.CONST>
1

>  <SCORE.INTER.POLAR>
0

>  <SCORE.INTER.ROT>
8

>  <SCORE.INTER.SOLV>
33.8747

>  <SCORE.INTER.VDW>
-20.9937

>  <SCORE.INTER.norm>
-0.0360347

>  <SCORE.INTRA>
-0.780123

>  <SCORE.INTRA.DIHEDRAL>
1.17929

>  <SCORE.INTRA.DIHEDRAL.0>
76.3625

>  <SCORE.INTRA.POLAR>
0

>  <SCORE.INTRA.POLAR.0>
0

>  <SCORE.INTRA.REPUL>
-0.12705

>  <SCORE.INTRA.REPUL.0>
0.12705

>  <SCORE.INTRA.SOLV>
-3.28293

>  <SCORE.INTRA.SOLV.lig_0>
-119.383

>  <SCORE.INTRA.VDW>
0.906946

>  <SCORE.INTRA.VDW.0>
-5.10464

>  <SCORE.INTRA.norm>
-0.0243788

>  <SCORE.RESTR>
6.46983

>  <SCORE.RESTR.CAVITY>
6.46983

>  <SCORE.RESTR.norm>
0.202182

>  <SCORE.SYSTEM>
0

>  <SCORE.SYSTEM.CONST>
0

>  <SCORE.SYSTEM.DIHEDRAL>
0

>  <SCORE.SYSTEM.SOLV>
0

>  <SCORE.SYSTEM.norm>
0

>  <SCORE.heavy>
32

>  <SCORE.norm>
0.141769

>  <RMSD>
19.425

$$$$
2au4_lig
 OpenBabel11021811423D
libRbt.so/2013.1/901 2013/11/27
 32 34  0  0  0  0  0  0  0  0999 V2000
   56.3243   -1.4421   -5.8138 P   0  0  1  0  0  0  0  0  0  0  0  0
   55.2699   -0.4379   -8.1049 P   0  0  1  0  0  0  0  0  0  0  0  0
   56.6490   -0.1327  -10.4385 P   0  0  2  0  0  0  0  0  0  0  0  0
   56.7313   -4.0602   -5.7128 C   0  0  0  0  0  0  0  0  0  0  0  0
   57.2696   -2.7305   -5.6247 O   0  0  0  0  0  0  0  0  0  0  0  0
   57.7902   -5.0945   -6.0656 C   0  0  0  0  0  0  0  0  0  0  0  0
   57.5603   -6.3224   -5.3448 O   0  0  0  0  0  0  0  0  0  0  0  0
   57.7656   -5.4040   -7.5543 C   0  0  0  0  0  0  0  0  0  0  0  0
   58.9946   -5.0136   -8.1788 O   0  0  0  0  0  0  0  0  0  0  0  0
   57.5420   -6.8922   -7.6793 C   0  0  0  0  0  0  0  0  0  0  0  0
   58.6141   -7.5201   -8.3951 O   0  0  0  0  0  0  0  0  0  0  0  0
   57.4504   -7.4313   -6.2622 C   0  0  0  0  0  0  0  0  0  0  0  0
   53.7152   -8.6196   -2.9907 N   0  0  0  0  0  0  0  0  0  0  0  0
   54.9229   -1.8489   -5.5870 O   0  5  0  0  0  0  0  0  0  0  0  0
   54.5514   -1.4826   -8.8601 O   0  5  0  0  0  0  0  0  0  0  0  0
   55.5628   -0.4765  -11.3783 O   0  5  0  0  0  0  0  0  0  0  0  0
   54.8348   -7.8468   -2.7932 C   0  0  1  0  0  0  0  0  0  0  0  0
   54.9857   -7.3296   -1.5813 N   0  0  0  0  0  0  0  0  0  0  0  0
   56.9021   -0.3163   -5.0490 O   0  0  0  0  0  0  0  0  0  0  0  0
   54.5451    0.4027   -7.1294 O   0  0  0  0  0  0  0  0  0  0  0  0
   57.5931   -1.1758   -9.9861 O   0  0  0  0  0  0  0  0  0  0  0  0
   55.7448   -7.6067   -3.7339 N   0  0  0  0  0  0  0  0  0  0  0  0
   56.4938   -1.1170   -7.3584 O   0  0  0  0  0  0  0  0  0  0  0  0
   55.9901    0.5234   -9.1454 O   0  0  0  0  0  0  0  0  0  0  0  0
   57.4934    1.0841  -11.0608 O   0  0  0  0  0  0  0  0  0  0  0  0
   55.4394   -8.2122   -4.9047 C   0  0  2  0  0  0  0  0  0  0  0  0
   54.3381   -9.0036   -5.1886 C   0  0  2  0  0  0  0  0  0  0  0  0
   53.3791   -9.2495   -4.1756 C   0  0  1  0  0  0  0  0  0  0  0  0
   52.3681   -9.9361   -4.2375 O   0  0  0  0  0  0  0  0  0  0  0  0
   54.3746   -9.4510   -6.5136 N   0  0  0  0  0  0  0  0  0  0  0  0
   55.4722   -8.9134   -6.9356 C   0  0  0  0  0  0  0  0  0  0  0  0
   56.1818   -8.1581   -6.0606 N   0  0  0  0  0  0  0  0  0  0  0  0
  1  5  1  1  0  0  0
  1 14  1  0  0  0  0
  1 19  2  0  0  0  0
  2 15  1  6  0  0  0
  2 20  2  0  0  0  0
  2 23  1  0  0  0  0
  3 16  1  6  0  0  0
  3 21  2  0  0  0  0
  3 24  1  0  0  0  0
  3 25  1  0  0  0  0
  4  6  1  0  0  0  0
  5  4  1  0  0  0  0
  6  7  1  0  0  0  0
  6  8  2  0  0  0  0
  7 12  1  0  0  0  0
  8  9  1  0  0  0  0
  8 10  1  0  0  0  0
 10 11  1  0  0  0  0
 10 12  2  0  0  0  0
 12 32  1  0  0  0  0
 13 17  1  0  0  0  0
 17 18  1  1  0  0  0
 17 22  1  0  0  0  0
 23  1  1  0  0  0  0
 24  2  1  0  0  0  0
 26 22  1  1  0  0  0
 27 26  1  0  0  0  0
 27 28  1  0  0  0  0
 27 30  1  1  0  0  0
 28 13  1  0  0  0  0
 28 29  1  1  0  0  0
 31 30  1  0  0  0  0
 32 26  1  0  0  0  0
 32 31  1  0  0  0  0
M  CHG  3  14  -1  15  -1  16  -1
M  END
>  <CHROM.1>
19.91309494,-100.66493880,76.05260781,142.07301408,156.92292273,-25.30623876
150.26472052,-38.80817615,56.03607841,-4.15552230,-6.78442462,1.29100948
1.04717976,-0.24357472

>  <Name>
2au4_lig

>  <RI>
0

>  <Rbt.Current_Directory>
/home/afrankz/demos/rdock_decoys_rna/rnas/2au4

>  <Rbt.Executable>
rbdock ($Id: //depot/dev/client3/rdock/2013.1/src/exe/rbdock.cxx#4 $)

>  <Rbt.Library>
libRbt.so (2013.1, Build901 2013/11/27)

>  <Rbt.Parameter_File>
/export/apps/rDock/src/rDock_2013.1_src/data/scripts/dock_solv.prm

>  <Rbt.Receptor>
prm/blind_docking_60.prm

>  <SCORE>
-12.0827

>  <SCORE.INTER>
0.11954

>  <SCORE.INTER.CONST>
1

>  <SCORE.INTER.POLAR>
-0.121411

>  <SCORE.INTER.ROT>
8

>  <SCORE.INTER.SOLV>
29.472

>  <SCORE.INTER.VDW>
-18.2729

>  <SCORE.INTER.norm>
0.00373564

>  <SCORE.INTRA>
-22.3666

>  <SCORE.INTRA.DIHEDRAL>
-44.0753

>  <SCORE.INTRA.DIHEDRAL.0>
76.3625

>  <SCORE.INTRA.POLAR>
0

>  <SCORE.INTRA.POLAR.0>
0

>  <SCORE.INTRA.REPUL>
0.0716024

>  <SCORE.INTRA.REPUL.0>
0.12705

>  <SCORE.INTRA.SOLV>
-5.25184

>  <SCORE.INTRA.SOLV.lig_0>
-119.383

>  <SCORE.INTRA.VDW>
1.93893

>  <SCORE.INTRA.VDW.0>
-5.10464

>  <SCORE.INTRA.norm>
-0.698957

>  <SCORE.RESTR>
10.1644

>  <SCORE.RESTR.CAVITY>
10.1644

>  <SCORE.RESTR.norm>
0.317638

>  <SCORE.SYSTEM>
0

>  <SCORE.SYSTEM.CONST>
0

>  <SCORE.SYSTEM.DIHEDRAL>
0

>  <SCORE.SYSTEM.SOLV>
0

>  <SCORE.SYSTEM.norm>
0

>  <SCORE.heavy>
32

>  <SCORE.norm>
-0.377584

>  <RMSD>
19.465

$$$$
2au4_lig
 OpenBabel11021811423D
libRbt.so/2013.1/901 2013/11/27
 32 34  0  0  0  0  0  0  0  0999 V2000
   65.0481  -11.9273    1.2680 P   0  0  1  0  0  0  0  0  0  0  0  0
   65.2583   -9.4616    2.3840 P   0  0  1  0  0  0  0  0  0  0  0  0
   66.1562   -7.3122    0.9646 P   0  0  2  0  0  0  0  0  0  0  0  0
   62.8886  -13.4488    1.0386 C   0  0  0  0  0  0  0  0  0  0  0  0
   63.7323  -12.4246    0.4863 O   0  0  0  0  0  0  0  0  0  0  0  0
   61.5094  -12.9269    1.4136 C   0  0  0  0  0  0  0  0  0  0  0  0
   61.2156  -13.2168    2.7956 O   0  0  0  0  0  0  0  0  0  0  0  0
   61.4312  -11.4211    1.2156 C   0  0  0  0  0  0  0  0  0  0  0  0
   60.4725  -11.0867    0.2048 O   0  0  0  0  0  0  0  0  0  0  0  0
   61.0406  -10.8327    2.5503 C   0  0  0  0  0  0  0  0  0  0  0  0
   59.8181  -10.0897    2.4525 O   0  0  0  0  0  0  0  0  0  0  0  0
   60.8856  -12.0039    3.5050 C   0  0  0  0  0  0  0  0  0  0  0  0
   62.8555   -8.7201    6.8818 N   0  0  0  0  0  0  0  0  0  0  0  0
   64.8905  -12.2413    2.7023 O   0  5  0  0  0  0  0  0  0  0  0  0
   64.2280   -9.7616    3.3972 O   0  5  0  0  0  0  0  0  0  0  0  0
   65.5067   -6.4349   -0.0303 O   0  5  0  0  0  0  0  0  0  0  0  0
   62.0110   -8.4817    5.8236 C   0  0  1  0  0  0  0  0  0  0  0  0
   61.6476   -7.2204    5.6342 N   0  0  0  0  0  0  0  0  0  0  0  0
   66.2407  -12.3995    0.5326 O   0  0  0  0  0  0  0  0  0  0  0  0
   66.6908   -9.5941    2.7217 O   0  0  0  0  0  0  0  0  0  0  0  0
   67.0756   -8.3804    0.5200 O   0  0  0  0  0  0  0  0  0  0  0  0
   61.5607   -9.4307    5.0067 N   0  0  0  0  0  0  0  0  0  0  0  0
   64.9689  -10.3504    1.1024 O   0  0  0  0  0  0  0  0  0  0  0  0
   65.0130   -7.9872    1.8446 O   0  0  0  0  0  0  0  0  0  0  0  0
   66.9248   -6.3893    2.0314 O   0  0  0  0  0  0  0  0  0  0  0  0
   62.0316  -10.6548    5.3389 C   0  0  2  0  0  0  0  0  0  0  0  0
   62.8812  -10.9822    6.3833 C   0  0  2  0  0  0  0  0  0  0  0  0
   63.3516   -9.9598    7.2434 C   0  0  1  0  0  0  0  0  0  0  0  0
   64.1186  -10.0584    8.1917 O   0  0  0  0  0  0  0  0  0  0  0  0
   63.1425  -12.3564    6.4007 N   0  0  0  0  0  0  0  0  0  0  0  0
   62.4496  -12.7620    5.3872 C   0  0  0  0  0  0  0  0  0  0  0  0
   61.7523  -11.8327    4.6873 N   0  0  0  0  0  0  0  0  0  0  0  0
  1  5  1  6  0  0  0
  1 14  1  0  0  0  0
  1 19  2  0  0  0  0
  2 15  1  1  0  0  0
  2 20  2  0  0  0  0
  2 23  1  0  0  0  0
  3 16  1  6  0  0  0
  3 21  2  0  0  0  0
  3 24  1  0  0  0  0
  3 25  1  0  0  0  0
  4  6  1  0  0  0  0
  5  4  1  0  0  0  0
  6  7  1  0  0  0  0
  6  8  2  0  0  0  0
  7 12  1  0  0  0  0
  8  9  1  0  0  0  0
  8 10  1  0  0  0  0
 10 11  1  0  0  0  0
 10 12  2  0  0  0  0
 12 32  1  0  0  0  0
 13 17  1  0  0  0  0
 17 18  1  6  0  0  0
 17 22  1  0  0  0  0
 23  1  1  0  0  0  0
 24  2  1  0  0  0  0
 26 22  1  6  0  0  0
 27 26  1  0  0  0  0
 27 28  1  0  0  0  0
 27 30  1  6  0  0  0
 28 13  1  0  0  0  0
 28 29  1  6  0  0  0
 31 30  1  0  0  0  0
 32 26  1  0  0  0  0
 32 31  1  0  0  0  0
M  CHG  3  14  -1  15  -1  16  -1
M  END
>  <CHROM.1>
-22.54854119,-62.86847792,146.82794592,-125.02925317,113.72855357,157.79195038
135.28357176,167.75242019,63.69780623,-10.26145947,2.95878710,0.36031297
-0.80338228,-2.10627456

>  <Name>
2au4_lig

>  <RI>
0

>  <Rbt.Current_Directory>
/home/itssahil/PROJECTS/Mol_Feturizer/New_Systems/rnas/2au4

>  <Rbt.Executable>
rbdock ($Id: //depot/dev/client3/rdock/2013.1/src/exe/rbdock.cxx#4 $)

>  <Rbt.Library>
libRbt.so (2013.1, Build901 2013/11/27)

>  <Rbt.Parameter_File>
/export/apps/rDock/src/rDock_2013.1_src/data/scripts/dock_solv.prm

>  <Rbt.Receptor>
prm/blind_docking_100.prm

>  <SCORE>
-41.4914

>  <SCORE.INTER>
-24.8651

>  <SCORE.INTER.CONST>
1

>  <SCORE.INTER.POLAR>
-2.85918

>  <SCORE.INTER.ROT>
8

>  <SCORE.INTER.SOLV>
29.6303

>  <SCORE.INTER.VDW>
-25.8562

>  <SCORE.INTER.norm>
-0.777033

>  <SCORE.INTRA>
-17.2546

>  <SCORE.INTRA.DIHEDRAL>
-37.4658

>  <SCORE.INTRA.DIHEDRAL.0>
76.3625

>  <SCORE.INTRA.POLAR>
0

>  <SCORE.INTRA.POLAR.0>
0

>  <SCORE.INTRA.REPUL>
-0.12705

>  <SCORE.INTRA.REPUL.0>
0.12705

>  <SCORE.INTRA.SOLV>
2.82136

>  <SCORE.INTRA.SOLV.lig_0>
-119.383

>  <SCORE.INTRA.VDW>
0.702873

>  <SCORE.INTRA.VDW.0>
-5.10464

>  <SCORE.INTRA.norm>
-0.539205

>  <SCORE.RESTR>
0.628207

>  <SCORE.RESTR.CAVITY>
0.628207

>  <SCORE.RESTR.norm>
0.0196315

>  <SCORE.SYSTEM>
0

>  <SCORE.SYSTEM.CONST>
0

>  <SCORE.SYSTEM.DIHEDRAL>
0

>  <SCORE.SYSTEM.SOLV>
0

>  <SCORE.SYSTEM.norm>
0

>  <SCORE.heavy>
32

>  <SCORE.norm>
-1.29661

>  <RMSD>
19.492

$$$$
2au4_lig
 OpenBabel11021811423D
libRbt.so/2013.1/901 2013/11/27
 32 34  0  0  0  0  0  0  0  0999 V2000
   56.7521   -1.8232   -6.1552 P   0  0  1  0  0  0  0  0  0  0  0  0
   54.8548   -0.3109   -7.3727 P   0  0  1  0  0  0  0  0  0  0  0  0
   53.6885    1.3940   -5.5912 P   0  0  2  0  0  0  0  0  0  0  0  0
   55.5394   -4.1137   -6.7152 C   0  0  0  0  0  0  0  0  0  0  0  0
   55.5614   -2.8886   -5.9639 O   0  0  0  0  0  0  0  0  0  0  0  0
   56.7766   -4.9662   -6.4745 C   0  0  0  0  0  0  0  0  0  0  0  0
   56.6076   -5.7856   -5.2997 O   0  0  0  0  0  0  0  0  0  0  0  0
   57.0386   -5.8816   -7.6603 C   0  0  0  0  0  0  0  0  0  0  0  0
   58.2855   -5.5609   -8.2891 O   0  0  0  0  0  0  0  0  0  0  0  0
   57.0502   -7.2914   -7.1193 C   0  0  0  0  0  0  0  0  0  0  0  0
   58.3022   -7.9387   -7.3834 O   0  0  0  0  0  0  0  0  0  0  0  0
   56.8059   -7.1779   -5.6245 C   0  0  0  0  0  0  0  0  0  0  0  0
   53.3457   -8.1176   -1.9899 N   0  0  0  0  0  0  0  0  0  0  0  0
   56.7495   -0.9018   -5.0012 O   0  5  0  0  0  0  0  0  0  0  0  0
   54.6893    0.5081   -8.5893 O   0  5  0  0  0  0  0  0  0  0  0  0
   54.0125    2.0143   -4.2907 O   0  5  0  0  0  0  0  0  0  0  0  0
   54.3754   -7.2069   -1.9996 C   0  0  1  0  0  0  0  0  0  0  0  0
   54.5074   -6.4574   -0.9134 N   0  0  0  0  0  0  0  0  0  0  0  0
   57.9855   -2.5537   -6.5175 O   0  0  0  0  0  0  0  0  0  0  0  0
   53.8528   -1.3418   -7.0310 O   0  0  0  0  0  0  0  0  0  0  0  0
   52.5662    0.4381   -5.6953 O   0  0  0  0  0  0  0  0  0  0  0  0
   55.2192   -7.0534   -3.0170 N   0  0  0  0  0  0  0  0  0  0  0  0
   56.2790   -1.0070   -7.4320 O   0  0  0  0  0  0  0  0  0  0  0  0
   54.9999    0.6675   -6.1290 O   0  0  0  0  0  0  0  0  0  0  0  0
   53.4644    2.5629   -6.6702 O   0  0  0  0  0  0  0  0  0  0  0  0
   54.9454   -7.8978   -4.0380 C   0  0  2  0  0  0  0  0  0  0  0  0
   53.9329   -8.8409   -4.1108 C   0  0  2  0  0  0  0  0  0  0  0  0
   53.0437   -8.9917   -3.0186 C   0  0  1  0  0  0  0  0  0  0  0  0
   52.1164   -9.7811   -2.8977 O   0  0  0  0  0  0  0  0  0  0  0  0
   53.9750   -9.5237   -5.3310 N   0  0  0  0  0  0  0  0  0  0  0  0
   54.9887   -8.9619   -5.9044 C   0  0  0  0  0  0  0  0  0  0  0  0
   55.6366   -7.9841   -5.2233 N   0  0  0  0  0  0  0  0  0  0  0  0
  1  5  1  1  0  0  0
  1 14  1  0  0  0  0
  1 19  2  0  0  0  0
  2 15  1  6  0  0  0
  2 20  2  0  0  0  0
  2 23  1  0  0  0  0
  3 16  1  1  0  0  0
  3 21  2  0  0  0  0
  3 24  1  0  0  0  0
  3 25  1  0  0  0  0
  4  6  1  0  0  0  0
  5  4  1  0  0  0  0
  6  7  1  0  0  0  0
  6  8  2  0  0  0  0
  7 12  1  0  0  0  0
  8  9  1  0  0  0  0
  8 10  1  0  0  0  0
 10 11  1  0  0  0  0
 10 12  2  0  0  0  0
 12 32  1  0  0  0  0
 13 17  1  0  0  0  0
 17 18  1  1  0  0  0
 17 22  1  0  0  0  0
 23  1  1  0  0  0  0
 24  2  1  0  0  0  0
 26 22  1  1  0  0  0
 27 26  1  0  0  0  0
 27 28  1  0  0  0  0
 27 30  1  1  0  0  0
 28 13  1  0  0  0  0
 28 29  1  1  0  0  0
 31 30  1  0  0  0  0
 32 26  1  0  0  0  0
 32 31  1  0  0  0  0
M  CHG  3  14  -1  15  -1  16  -1
M  END
>  <CHROM.1>
-162.71371194,173.69659994,168.54846186,85.06959232,59.00907019,-44.12344397
56.47213336,75.16398881,55.22442542,-3.86795551,-5.60880445,-1.59960223,-0.77380884
2.88314152

>  <Name>
2au4_lig

>  <RI>
0

>  <Rbt.Current_Directory>
/home/afrankz/demos/rdock_decoys_rna/rnas/2au4

>  <Rbt.Executable>
rbdock ($Id: //depot/dev/client3/rdock/2013.1/src/exe/rbdock.cxx#4 $)

>  <Rbt.Library>
libRbt.so (2013.1, Build901 2013/11/27)

>  <Rbt.Parameter_File>
/export/apps/rDock/src/rDock_2013.1_src/data/scripts/dock_solv.prm

>  <Rbt.Receptor>
prm/blind_docking_60.prm

>  <SCORE>
-11.6776

>  <SCORE.INTER>
1.62998

>  <SCORE.INTER.CONST>
1

>  <SCORE.INTER.POLAR>
-0.160307

>  <SCORE.INTER.ROT>
8

>  <SCORE.INTER.SOLV>
28.7526

>  <SCORE.INTER.VDW>
-16.8965

>  <SCORE.INTER.norm>
0.0509368

>  <SCORE.INTRA>
-22.866

>  <SCORE.INTRA.DIHEDRAL>
-46.6951

>  <SCORE.INTRA.DIHEDRAL.0>
76.3625

>  <SCORE.INTRA.POLAR>
0

>  <SCORE.INTRA.POLAR.0>
0

>  <SCORE.INTRA.REPUL>
-0.0110455

>  <SCORE.INTRA.REPUL.0>
0.12705

>  <SCORE.INTRA.SOLV>
-3.22406

>  <SCORE.INTRA.SOLV.lig_0>
-119.383

>  <SCORE.INTRA.VDW>
2.14884

>  <SCORE.INTRA.VDW.0>
-5.10464

>  <SCORE.INTRA.norm>
-0.714561

>  <SCORE.RESTR>
9.55842

>  <SCORE.RESTR.CAVITY>
9.55842

>  <SCORE.RESTR.norm>
0.298701

>  <SCORE.SYSTEM>
0

>  <SCORE.SYSTEM.CONST>
0

>  <SCORE.SYSTEM.DIHEDRAL>
0

>  <SCORE.SYSTEM.SOLV>
0

>  <SCORE.SYSTEM.norm>
0

>  <SCORE.heavy>
32

>  <SCORE.norm>
-0.364923

>  <RMSD>
19.494

$$$$
2au4_lig
 OpenBabel11021811423D
libRbt.so/2013.1/901 2013/11/27
 32 34  0  0  0  0  0  0  0  0999 V2000
   57.1682   -2.1942   -5.5986 P   0  0  1  0  0  0  0  0  0  0  0  0
   55.7665   -0.9374   -7.5544 P   0  0  1  0  0  0  0  0  0  0  0  0
   54.0578    0.7532   -6.2648 P   0  0  2  0  0  0  0  0  0  0  0  0
   55.3984   -4.1686   -5.6077 C   0  0  0  0  0  0  0  0  0  0  0  0
   55.8511   -2.9292   -5.0379 O   0  0  0  0  0  0  0  0  0  0  0  0
   56.5247   -5.1781   -5.7744 C   0  0  0  0  0  0  0  0  0  0  0  0
   56.5393   -6.1087   -4.6726 O   0  0  0  0  0  0  0  0  0  0  0  0
   56.3537   -5.9678   -7.0628 C   0  0  0  0  0  0  0  0  0  0  0  0
   57.4380   -5.7165   -7.9651 O   0  0  0  0  0  0  0  0  0  0  0  0
   56.3016   -7.4247   -6.6691 C   0  0  0  0  0  0  0  0  0  0  0  0
   57.3456   -8.1726   -7.3068 O   0  0  0  0  0  0  0  0  0  0  0  0
   56.4539   -7.4652   -5.1584 C   0  0  0  0  0  0  0  0  0  0  0  0
   53.3335   -7.7760   -1.1294 N   0  0  0  0  0  0  0  0  0  0  0  0
   58.0348   -1.8440   -4.4553 O   0  5  0  0  0  0  0  0  0  0  0  0
   56.7279   -0.8876   -8.6730 O   0  5  0  0  0  0  0  0  0  0  0  0
   53.2172   -0.4239   -5.9662 O   0  5  0  0  0  0  0  0  0  0  0  0
   54.3656   -6.8999   -1.3679 C   0  0  1  0  0  0  0  0  0  0  0  0
   54.6029   -5.9998   -0.4231 N   0  0  0  0  0  0  0  0  0  0  0  0
   57.7092   -2.9877   -6.7228 O   0  0  0  0  0  0  0  0  0  0  0  0
   54.8135   -2.0614   -7.4454 O   0  0  0  0  0  0  0  0  0  0  0  0
   53.4309    2.0745   -6.4772 O   0  0  0  0  0  0  0  0  0  0  0  0
   55.1139   -6.9183   -2.4682 N   0  0  0  0  0  0  0  0  0  0  0  0
   56.5798   -0.8460   -6.1954 O   0  0  0  0  0  0  0  0  0  0  0  0
   54.9348    0.4167   -7.5510 O   0  0  0  0  0  0  0  0  0  0  0  0
   55.1647    0.8937   -5.1092 O   0  0  0  0  0  0  0  0  0  0  0  0
   54.7406   -7.8993   -3.3219 C   0  0  2  0  0  0  0  0  0  0  0  0
   53.7179   -8.8202   -3.1611 C   0  0  2  0  0  0  0  0  0  0  0  0
   52.9312   -8.7869   -1.9837 C   0  0  1  0  0  0  0  0  0  0  0  0
   52.0124   -9.5288   -1.6630 O   0  0  0  0  0  0  0  0  0  0  0  0
   53.6423   -9.6781   -4.2636 N   0  0  0  0  0  0  0  0  0  0  0  0
   54.6039   -9.2305   -5.0032 C   0  0  0  0  0  0  0  0  0  0  0  0
   55.3196   -8.1766   -4.5376 N   0  0  0  0  0  0  0  0  0  0  0  0
  1  5  1  1  0  0  0
  1 14  1  0  0  0  0
  1 19  2  0  0  0  0
  2 15  1  6  0  0  0
  2 20  2  0  0  0  0
  2 23  1  0  0  0  0
  3 16  1  1  0  0  0
  3 21  2  0  0  0  0
  3 24  1  0  0  0  0
  3 25  1  0  0  0  0
  4  6  1  0  0  0  0
  5  4  1  0  0  0  0
  6  7  1  0  0  0  0
  6  8  2  0  0  0  0
  7 12  1  0  0  0  0
  8  9  1  0  0  0  0
  8 10  1  0  0  0  0
 10 11  1  0  0  0  0
 10 12  2  0  0  0  0
 12 32  1  0  0  0  0
 13 17  1  0  0  0  0
 17 18  1  1  0  0  0
 17 22  1  0  0  0  0
 23  1  1  0  0  0  0
 24  2  1  0  0  0  0
 26 22  1  1  0  0  0
 27 26  1  0  0  0  0
 27 28  1  0  0  0  0
 27 30  1  1  0  0  0
 28 13  1  0  0  0  0
 28 29  1  1  0  0  0
 31 30  1  0  0  0  0
 32 26  1  0  0  0  0
 32 31  1  0  0  0  0
M  CHG  3  14  -1  15  -1  16  -1
M  END
>  <CHROM.1>
-130.90447736,-85.02194355,-51.24397109,97.68981794,47.33343791,-25.43717762
-73.39900106,-166.87005041,55.36707823,-4.16618198,-5.27637371,-1.39410908
-0.87545644,2.87666212

>  <Name>
2au4_lig

>  <RI>
0

>  <Rbt.Current_Directory>
/home/afrankz/demos/rdock_decoys_rna/rnas/2au4

>  <Rbt.Executable>
rbdock ($Id: //depot/dev/client3/rdock/2013.1/src/exe/rbdock.cxx#4 $)

>  <Rbt.Library>
libRbt.so (2013.1, Build901 2013/11/27)

>  <Rbt.Parameter_File>
/export/apps/rDock/src/rDock_2013.1_src/data/scripts/dock_solv.prm

>  <Rbt.Receptor>
prm/blind_docking_60.prm

>  <SCORE>
-1.54052

>  <SCORE.INTER>
12.1424

>  <SCORE.INTER.CONST>
1

>  <SCORE.INTER.POLAR>
-0.457139

>  <SCORE.INTER.ROT>
8

>  <SCORE.INTER.SOLV>
31.5381

>  <SCORE.INTER.VDW>
-9.82726

>  <SCORE.INTER.norm>
0.379451

>  <SCORE.INTRA>
-22.2445

>  <SCORE.INTRA.DIHEDRAL>
-46.991

>  <SCORE.INTRA.DIHEDRAL.0>
76.3625

>  <SCORE.INTRA.POLAR>
0

>  <SCORE.INTRA.POLAR.0>
0

>  <SCORE.INTRA.REPUL>
0.0715616

>  <SCORE.INTRA.REPUL.0>
0.12705

>  <SCORE.INTRA.SOLV>
-2.1423

>  <SCORE.INTRA.SOLV.lig_0>
-119.383

>  <SCORE.INTRA.VDW>
1.96435

>  <SCORE.INTRA.VDW.0>
-5.10464

>  <SCORE.INTRA.norm>
-0.69514

>  <SCORE.RESTR>
8.56151

>  <SCORE.RESTR.CAVITY>
8.56151

>  <SCORE.RESTR.norm>
0.267547

>  <SCORE.SYSTEM>
0

>  <SCORE.SYSTEM.CONST>
0

>  <SCORE.SYSTEM.DIHEDRAL>
0

>  <SCORE.SYSTEM.SOLV>
0

>  <SCORE.SYSTEM.norm>
0

>  <SCORE.heavy>
32

>  <SCORE.norm>
-0.0481411

>  <RMSD>
19.509

$$$$
2au4_lig
 OpenBabel11021811423D
libRbt.so/2013.1/901 2013/11/27
 32 34  0  0  0  0  0  0  0  0999 V2000
   56.3728   -2.2282   -7.0040 P   0  0  1  0  0  0  0  0  0  0  0  0
   54.7718   -0.1982   -7.8320 P   0  0  1  0  0  0  0  0  0  0  0  0
   54.2088    0.9860   -5.4401 P   0  0  2  0  0  0  0  0  0  0  0  0
   56.9406   -4.2624   -5.4008 C   0  0  0  0  0  0  0  0  0  0  0  0
   56.0774   -3.6887   -6.3965 O   0  0  0  0  0  0  0  0  0  0  0  0
   57.8939   -5.2959   -5.9827 C   0  0  0  0  0  0  0  0  0  0  0  0
   57.6653   -6.5893   -5.3869 O   0  0  0  0  0  0  0  0  0  0  0  0
   57.6988   -5.4223   -7.4856 C   0  0  0  0  0  0  0  0  0  0  0  0
   58.8788   -5.0185   -8.1909 O   0  0  0  0  0  0  0  0  0  0  0  0
   57.3745   -6.8723   -7.7554 C   0  0  0  0  0  0  0  0  0  0  0  0
   58.3283   -7.4597   -8.6506 O   0  0  0  0  0  0  0  0  0  0  0  0
   57.3959   -7.5732   -6.4081 C   0  0  0  0  0  0  0  0  0  0  0  0
   53.7214   -8.5766   -3.0085 N   0  0  0  0  0  0  0  0  0  0  0  0
   56.9062   -1.3695   -5.9275 O   0  5  0  0  0  0  0  0  0  0  0  0
   55.7212    0.0390   -8.9367 O   0  5  0  0  0  0  0  0  0  0  0  0
   53.5329   -0.2566   -5.0155 O   0  5  0  0  0  0  0  0  0  0  0  0
   54.8677   -7.8326   -2.8600 C   0  0  1  0  0  0  0  0  0  0  0  0
   55.0673   -7.2925   -1.6652 N   0  0  0  0  0  0  0  0  0  0  0  0
   57.1244   -2.3856   -8.2675 O   0  0  0  0  0  0  0  0  0  0  0  0
   53.3341    0.0898   -8.0154 O   0  0  0  0  0  0  0  0  0  0  0  0
   53.4134    2.1258   -5.9423 O   0  0  0  0  0  0  0  0  0  0  0  0
   55.7575   -7.6408   -3.8306 N   0  0  0  0  0  0  0  0  0  0  0  0
   54.9175   -1.7078   -7.3668 O   0  0  0  0  0  0  0  0  0  0  0  0
   55.2775    0.6062   -6.5583 O   0  0  0  0  0  0  0  0  0  0  0  0
   55.1313    1.5018   -4.2303 O   0  0  0  0  0  0  0  0  0  0  0  0
   55.4022   -8.2637   -4.9780 C   0  0  2  0  0  0  0  0  0  0  0  0
   54.2712   -9.0287   -5.2129 C   0  0  2  0  0  0  0  0  0  0  0  0
   53.3343   -9.2232   -4.1685 C   0  0  1  0  0  0  0  0  0  0  0  0
   52.3026   -9.8811   -4.1866 O   0  0  0  0  0  0  0  0  0  0  0  0
   54.2576   -9.5071   -6.5275 N   0  0  0  0  0  0  0  0  0  0  0  0
   55.3580   -9.0116   -6.9920 C   0  0  0  0  0  0  0  0  0  0  0  0
   56.1132   -8.2577   -6.1547 N   0  0  0  0  0  0  0  0  0  0  0  0
  1  5  1  1  0  0  0
  1 14  1  0  0  0  0
  1 19  2  0  0  0  0
  2 15  1  6  0  0  0
  2 20  2  0  0  0  0
  2 23  1  0  0  0  0
  3 16  1  1  0  0  0
  3 21  2  0  0  0  0
  3 24  1  0  0  0  0
  3 25  1  0  0  0  0
  4  6  1  0  0  0  0
  5  4  1  0  0  0  0
  6  7  1  0  0  0  0
  6  8  2  0  0  0  0
  7 12  1  0  0  0  0
  8  9  1  0  0  0  0
  8 10  1  0  0  0  0
 10 11  1  0  0  0  0
 10 12  2  0  0  0  0
 12 32  1  0  0  0  0
 13 17  1  0  0  0  0
 17 18  1  1  0  0  0
 17 22  1  0  0  0  0
 23  1  1  0  0  0  0
 24  2  1  0  0  0  0
 26 22  1  1  0  0  0
 27 26  1  0  0  0  0
 27 28  1  0  0  0  0
 27 30  1  1  0  0  0
 28 13  1  0  0  0  0
 28 29  1  1  0  0  0
 31 30  1  0  0  0  0
 32 26  1  0  0  0  0
 32 31  1  0  0  0  0
M  CHG  3  14  -1  15  -1  16  -1
M  END
>  <CHROM.1>
-36.50895847,52.60614262,54.63423842,-118.62919329,-101.69511757,-15.94390153
172.34487020,156.97936849,55.53696754,-4.08103751,-6.10298752,-1.63886065
-0.78104101,2.92349156

>  <Name>
2au4_lig

>  <RI>
0

>  <Rbt.Current_Directory>
/home/afrankz/demos/rdock_decoys_rna/rnas/2au4

>  <Rbt.Executable>
rbdock ($Id: //depot/dev/client3/rdock/2013.1/src/exe/rbdock.cxx#4 $)

>  <Rbt.Library>
libRbt.so (2013.1, Build901 2013/11/27)

>  <Rbt.Parameter_File>
/export/apps/rDock/src/rDock_2013.1_src/data/scripts/dock_solv.prm

>  <Rbt.Receptor>
prm/blind_docking_60.prm

>  <SCORE>
-9.10021

>  <SCORE.INTER>
-0.232653

>  <SCORE.INTER.CONST>
1

>  <SCORE.INTER.POLAR>
-0.248579

>  <SCORE.INTER.ROT>
8

>  <SCORE.INTER.SOLV>
29.468

>  <SCORE.INTER.VDW>
-18.0825

>  <SCORE.INTER.norm>
-0.00727042

>  <SCORE.INTRA>
-19.4791

>  <SCORE.INTRA.DIHEDRAL>
-40.4539

>  <SCORE.INTRA.DIHEDRAL.0>
76.3625

>  <SCORE.INTRA.POLAR>
0

>  <SCORE.INTRA.POLAR.0>
0

>  <SCORE.INTRA.REPUL>
0.0443959

>  <SCORE.INTRA.REPUL.0>
0.12705

>  <SCORE.INTRA.SOLV>
-0.934872

>  <SCORE.INTRA.SOLV.lig_0>
-119.383

>  <SCORE.INTRA.VDW>
0.993299

>  <SCORE.INTRA.VDW.0>
-5.10464

>  <SCORE.INTRA.norm>
-0.608723

>  <SCORE.RESTR>
10.6116

>  <SCORE.RESTR.CAVITY>
10.6116

>  <SCORE.RESTR.norm>
0.331611

>  <SCORE.SYSTEM>
0

>  <SCORE.SYSTEM.CONST>
0

>  <SCORE.SYSTEM.DIHEDRAL>
0

>  <SCORE.SYSTEM.SOLV>
0

>  <SCORE.SYSTEM.norm>
0

>  <SCORE.heavy>
32

>  <SCORE.norm>
-0.284382

>  <RMSD>
19.515

$$$$
2au4_lig
 OpenBabel11021811423D
libRbt.so/2013.1/901 2013/11/27
 32 34  0  0  0  0  0  0  0  0999 V2000
   55.8576   -2.4117   -7.7404 P   0  0  1  0  0  0  0  0  0  0  0  0
   55.5139   -0.4259   -5.9216 P   0  0  1  0  0  0  0  0  0  0  0  0
   53.7232    1.4178   -5.0078 P   0  0  2  0  0  0  0  0  0  0  0  0
   55.5604   -4.8693   -8.6904 C   0  0  0  0  0  0  0  0  0  0  0  0
   55.0041   -3.7562   -7.9712 O   0  0  0  0  0  0  0  0  0  0  0  0
   56.7351   -5.5047   -7.9610 C   0  0  0  0  0  0  0  0  0  0  0  0
   56.7049   -5.1668   -6.5592 O   0  0  0  0  0  0  0  0  0  0  0  0
   56.6914   -7.0196   -8.0871 C   0  0  0  0  0  0  0  0  0  0  0  0
   57.8287   -7.5063   -8.8100 O   0  0  0  0  0  0  0  0  0  0  0  0
   56.6680   -7.5665   -6.6798 C   0  0  0  0  0  0  0  0  0  0  0  0
   57.7852   -8.4330   -6.4408 O   0  0  0  0  0  0  0  0  0  0  0  0
   56.7096   -6.3639   -5.7529 C   0  0  0  0  0  0  0  0  0  0  0  0
   53.8281   -9.1758   -2.6132 N   0  0  0  0  0  0  0  0  0  0  0  0
   57.2898   -2.7670   -7.6839 O   0  5  0  0  0  0  0  0  0  0  0  0
   56.3789   -0.2891   -4.7338 O   0  5  0  0  0  0  0  0  0  0  0  0
   54.8834    1.8817   -4.2205 O   0  5  0  0  0  0  0  0  0  0  0  0
   54.9094   -9.5503   -3.3749 C   0  0  1  0  0  0  0  0  0  0  0  0
   55.2684  -10.8249   -3.2994 N   0  0  0  0  0  0  0  0  0  0  0  0
   55.3860   -1.3839   -8.6931 O   0  0  0  0  0  0  0  0  0  0  0  0
   55.8306    0.3173   -7.1589 O   0  0  0  0  0  0  0  0  0  0  0  0
   52.3714    1.4318   -4.4108 O   0  0  0  0  0  0  0  0  0  0  0  0
   55.5861   -8.7170   -4.1612 N   0  0  0  0  0  0  0  0  0  0  0  0
   55.4077   -1.9665   -6.2845 O   0  0  0  0  0  0  0  0  0  0  0  0
   54.0248   -0.0672   -5.4982 O   0  0  0  0  0  0  0  0  0  0  0  0
   53.6809    2.2431   -6.3853 O   0  0  0  0  0  0  0  0  0  0  0  0
   55.0852   -7.4607   -4.1234 C   0  0  2  0  0  0  0  0  0  0  0  0
   54.0054   -6.9997   -3.3876 C   0  0  2  0  0  0  0  0  0  0  0  0
   53.2958   -7.9002   -2.5559 C   0  0  1  0  0  0  0  0  0  0  0  0
   52.3132   -7.6786   -1.8610 O   0  0  0  0  0  0  0  0  0  0  0  0
   53.7931   -5.6359   -3.6157 N   0  0  0  0  0  0  0  0  0  0  0  0
   54.7374   -5.3666   -4.4570 C   0  0  0  0  0  0  0  0  0  0  0  0
   55.5615   -6.3789   -4.8256 N   0  0  0  0  0  0  0  0  0  0  0  0
  1  5  1  6  0  0  0
  1 14  1  0  0  0  0
  1 19  2  0  0  0  0
  2 15  1  1  0  0  0
  2 20  2  0  0  0  0
  2 23  1  0  0  0  0
  3 16  1  1  0  0  0
  3 21  2  0  0  0  0
  3 24  1  0  0  0  0
  3 25  1  0  0  0  0
  4  6  1  0  0  0  0
  5  4  1  0  0  0  0
  6  7  1  0  0  0  0
  6  8  2  0  0  0  0
  7 12  1  0  0  0  0
  8  9  1  0  0  0  0
  8 10  1  0  0  0  0
 10 11  1  0  0  0  0
 10 12  2  0  0  0  0
 12 32  1  0  0  0  0
 13 17  1  0  0  0  0
 17 18  1  6  0  0  0
 17 22  1  0  0  0  0
 23  1  1  0  0  0  0
 24  2  1  0  0  0  0
 26 22  1  6  0  0  0
 27 26  1  0  0  0  0
 27 28  1  0  0  0  0
 27 30  1  6  0  0  0
 28 13  1  0  0  0  0
 28 29  1  6  0  0  0
 31 30  1  0  0  0  0
 32 26  1  0  0  0  0
 32 31  1  0  0  0  0
M  CHG  3  14  -1  15  -1  16  -1
M  END
>  <CHROM.1>
-29.71115481,-122.55811654,-37.29246961,20.44699840,65.75043749,165.08889259
-154.31551099,63.74366300,55.22979750,-3.92432725,-5.68107950,-1.69841446
-0.96488730,2.88149877

>  <Name>
2au4_lig

>  <RI>
0

>  <Rbt.Current_Directory>
/home/afrankz/demos/rdock_decoys_rna/rnas/2au4

>  <Rbt.Executable>
rbdock ($Id: //depot/dev/client3/rdock/2013.1/src/exe/rbdock.cxx#4 $)

>  <Rbt.Library>
libRbt.so (2013.1, Build901 2013/11/27)

>  <Rbt.Parameter_File>
/export/apps/rDock/src/rDock_2013.1_src/data/scripts/dock_solv.prm

>  <Rbt.Receptor>
prm/blind_docking_60.prm

>  <SCORE>
3.04366

>  <SCORE.INTER>
10.0199

>  <SCORE.INTER.CONST>
1

>  <SCORE.INTER.POLAR>
0

>  <SCORE.INTER.ROT>
8

>  <SCORE.INTER.SOLV>
29.615

>  <SCORE.INTER.VDW>
-12.125

>  <SCORE.INTER.norm>
0.313123

>  <SCORE.INTRA>
-20.0968

>  <SCORE.INTRA.DIHEDRAL>
-42.7181

>  <SCORE.INTRA.DIHEDRAL.0>
76.3625

>  <SCORE.INTRA.POLAR>
0

>  <SCORE.INTRA.POLAR.0>
0

>  <SCORE.INTRA.REPUL>
-0.12705

>  <SCORE.INTRA.REPUL.0>
0.12705

>  <SCORE.INTRA.SOLV>
-3.10134

>  <SCORE.INTRA.SOLV.lig_0>
-119.383

>  <SCORE.INTRA.VDW>
3.44814

>  <SCORE.INTRA.VDW.0>
-5.10464

>  <SCORE.INTRA.norm>
-0.628026

>  <SCORE.RESTR>
13.1206

>  <SCORE.RESTR.CAVITY>
13.1206

>  <SCORE.RESTR.norm>
0.410018

>  <SCORE.SYSTEM>
0

>  <SCORE.SYSTEM.CONST>
0

>  <SCORE.SYSTEM.DIHEDRAL>
0

>  <SCORE.SYSTEM.SOLV>
0

>  <SCORE.SYSTEM.norm>
0

>  <SCORE.heavy>
32

>  <SCORE.norm>
0.0951142

>  <RMSD>
19.526

$$$$
2au4_lig
 OpenBabel11021811423D
libRbt.so/2013.1/901 2013/11/27
 32 34  0  0  0  0  0  0  0  0999 V2000
   54.6241   -7.8881   -3.6198 P   0  0  1  0  0  0  0  0  0  0  0  0
   54.0147   -6.5952   -1.3119 P   0  0  1  0  0  0  0  0  0  0  0  0
   54.1995   -5.3615    1.1139 P   0  0  2  0  0  0  0  0  0  0  0  0
   54.8891   -6.7096   -5.9802 C   0  0  0  0  0  0  0  0  0  0  0  0
   55.2217   -6.7454   -4.5824 O   0  0  0  0  0  0  0  0  0  0  0  0
   56.0956   -6.4105   -6.8579 C   0  0  0  0  0  0  0  0  0  0  0  0
   56.0751   -5.0370   -7.2978 O   0  0  0  0  0  0  0  0  0  0  0  0
   57.3891   -6.6468   -6.0939 C   0  0  0  0  0  0  0  0  0  0  0  0
   58.1475   -7.7080   -6.6869 O   0  0  0  0  0  0  0  0  0  0  0  0
   58.1541   -5.3454   -6.1328 C   0  0  0  0  0  0  0  0  0  0  0  0
   59.4389   -5.5165   -6.7461 O   0  0  0  0  0  0  0  0  0  0  0  0
   57.3015   -4.3719   -6.9281 C   0  0  0  0  0  0  0  0  0  0  0  0
   54.9718    0.1696   -6.8126 N   0  0  0  0  0  0  0  0  0  0  0  0
   53.1497   -7.8293   -3.6781 O   0  5  0  0  0  0  0  0  0  0  0  0
   53.4468   -5.5202   -2.1486 O   0  5  0  0  0  0  0  0  0  0  0  0
   53.5791   -6.4993    1.8222 O   0  5  0  0  0  0  0  0  0  0  0  0
   55.0060   -0.7680   -7.8173 C   0  0  1  0  0  0  0  0  0  0  0  0
   54.3471   -0.4642   -8.9275 N   0  0  0  0  0  0  0  0  0  0  0  0
   55.3269   -9.1580   -3.9020 O   0  0  0  0  0  0  0  0  0  0  0  0
   53.1229   -7.5762   -0.6594 O   0  0  0  0  0  0  0  0  0  0  0  0
   53.3744   -4.2044    0.7085 O   0  0  0  0  0  0  0  0  0  0  0  0
   55.6536   -1.9270   -7.7274 N   0  0  0  0  0  0  0  0  0  0  0  0
   55.0754   -7.3934   -2.1804 O   0  0  0  0  0  0  0  0  0  0  0  0
   54.9196   -5.9279   -0.1890 O   0  0  0  0  0  0  0  0  0  0  0  0
   55.4319   -4.8256    1.9941 O   0  0  0  0  0  0  0  0  0  0  0  0
   56.2736   -2.0730   -6.5337 C   0  0  2  0  0  0  0  0  0  0  0  0
   56.2901   -1.1833   -5.4717 C   0  0  2  0  0  0  0  0  0  0  0  0
   55.5959    0.0462   -5.5842 C   0  0  1  0  0  0  0  0  0  0  0  0
   55.5215    0.9539   -4.7668 O   0  0  0  0  0  0  0  0  0  0  0  0
   57.0429   -1.6915   -4.4078 N   0  0  0  0  0  0  0  0  0  0  0  0
   57.4253   -2.8307   -4.8853 C   0  0  0  0  0  0  0  0  0  0  0  0
   57.0241   -3.1555   -6.1397 N   0  0  0  0  0  0  0  0  0  0  0  0
  1  5  1  6  0  0  0
  1 14  1  0  0  0  0
  1 19  2  0  0  0  0
  2 15  1  6  0  0  0
  2 20  2  0  0  0  0
  2 23  1  0  0  0  0
  3 16  1  1  0  0  0
  3 21  2  0  0  0  0
  3 24  1  0  0  0  0
  3 25  1  0  0  0  0
  4  6  1  0  0  0  0
  5  4  1  0  0  0  0
  6  7  1  0  0  0  0
  6  8  2  0  0  0  0
  7 12  1  0  0  0  0
  8  9  1  0  0  0  0
  8 10  1  0  0  0  0
 10 11  1  0  0  0  0
 10 12  2  0  0  0  0
 12 32  1  0  0  0  0
 13 17  1  0  0  0  0
 17 18  1  6  0  0  0
 17 22  1  0  0  0  0
 23  1  1  0  0  0  0
 24  2  1  0  0  0  0
 26 22  1  6  0  0  0
 27 26  1  0  0  0  0
 27 28  1  0  0  0  0
 27 30  1  6  0  0  0
 28 13  1  0  0  0  0
 28 29  1  6  0  0  0
 31 30  1  0  0  0  0
 32 26  1  0  0  0  0
 32 31  1  0  0  0  0
M  CHG  3  14  -1  15  -1  16  -1
M  END
>  <CHROM.1>
-57.73696374,-49.95136016,63.95603314,-102.62821002,-137.30167494,-58.77273528
97.88202009,81.99368345,55.38821810,-4.85437640,-3.88895584,-2.39602611,1.20752749
-0.19127068

>  <Name>
2au4_lig

>  <RI>
0

>  <Rbt.Current_Directory>
/home/afrankz/demos/rdock_decoys_rna/rnas/2au4

>  <Rbt.Executable>
rbdock ($Id: //depot/dev/client3/rdock/2013.1/src/exe/rbdock.cxx#4 $)

>  <Rbt.Library>
libRbt.so (2013.1, Build901 2013/11/27)

>  <Rbt.Parameter_File>
/export/apps/rDock/src/rDock_2013.1_src/data/scripts/dock_solv.prm

>  <Rbt.Receptor>
prm/blind_docking_60.prm

>  <SCORE>
-17.0007

>  <SCORE.INTER>
-8.46103

>  <SCORE.INTER.CONST>
1

>  <SCORE.INTER.POLAR>
-0.578531

>  <SCORE.INTER.ROT>
8

>  <SCORE.INTER.SOLV>
20.8083

>  <SCORE.INTER.VDW>
-19.5817

>  <SCORE.INTER.norm>
-0.264407

>  <SCORE.INTRA>
-16.4433

>  <SCORE.INTRA.DIHEDRAL>
-31.4699

>  <SCORE.INTRA.DIHEDRAL.0>
76.3625

>  <SCORE.INTRA.POLAR>
0

>  <SCORE.INTRA.POLAR.0>
0

>  <SCORE.INTRA.REPUL>
-0.0964475

>  <SCORE.INTRA.REPUL.0>
0.12705

>  <SCORE.INTRA.SOLV>
-4.45912

>  <SCORE.INTRA.SOLV.lig_0>
-119.383

>  <SCORE.INTRA.VDW>
2.0035

>  <SCORE.INTRA.VDW.0>
-5.10464

>  <SCORE.INTRA.norm>
-0.513852

>  <SCORE.RESTR>
7.90364

>  <SCORE.RESTR.CAVITY>
7.90364

>  <SCORE.RESTR.norm>
0.246989

>  <SCORE.SYSTEM>
0

>  <SCORE.SYSTEM.CONST>
0

>  <SCORE.SYSTEM.DIHEDRAL>
0

>  <SCORE.SYSTEM.SOLV>
0

>  <SCORE.SYSTEM.norm>
0

>  <SCORE.heavy>
32

>  <SCORE.norm>
-0.531271

>  <RMSD>
19.545

$$$$
2au4_lig
 OpenBabel11021811423D
libRbt.so/2013.1/901 2013/11/27
 32 34  0  0  0  0  0  0  0  0999 V2000
   57.2157   -2.9422   -6.1929 P   0  0  1  0  0  0  0  0  0  0  0  0
   55.8796   -1.0597   -7.6213 P   0  0  1  0  0  0  0  0  0  0  0  0
   55.0395    0.3901   -5.4689 P   0  0  2  0  0  0  0  0  0  0  0  0
   58.2419   -5.3817   -6.3546 C   0  0  0  0  0  0  0  0  0  0  0  0
   57.0854   -4.5461   -6.1816 O   0  0  0  0  0  0  0  0  0  0  0  0
   57.8844   -6.8579   -6.4481 C   0  0  0  0  0  0  0  0  0  0  0  0
   57.4654   -7.3609   -5.1629 O   0  0  0  0  0  0  0  0  0  0  0  0
   56.7506   -7.0757   -7.4378 C   0  0  0  0  0  0  0  0  0  0  0  0
   57.1861   -7.8681   -8.5492 O   0  0  0  0  0  0  0  0  0  0  0  0
   55.6448   -7.7681   -6.6775 C   0  0  0  0  0  0  0  0  0  0  0  0
   55.3183   -9.0316   -7.2719 O   0  0  0  0  0  0  0  0  0  0  0  0
   56.1532   -7.9545   -5.2584 C   0  0  0  0  0  0  0  0  0  0  0  0
   53.5879   -8.5532   -0.8850 N   0  0  0  0  0  0  0  0  0  0  0  0
   57.1288   -2.4529   -4.8023 O   0  5  0  0  0  0  0  0  0  0  0  0
   56.9860   -0.9937   -8.5958 O   0  5  0  0  0  0  0  0  0  0  0  0
   55.6137    1.2447   -4.4100 O   0  5  0  0  0  0  0  0  0  0  0  0
   54.4271   -9.4296   -1.5311 C   0  0  1  0  0  0  0  0  0  0  0  0
   54.6050  -10.6089   -0.9510 N   0  0  0  0  0  0  0  0  0  0  0  0
   58.3687   -2.5682   -7.0395 O   0  0  0  0  0  0  0  0  0  0  0  0
   54.4962   -0.7650   -8.0493 O   0  0  0  0  0  0  0  0  0  0  0  0
   54.2276   -0.7905   -5.1070 O   0  0  0  0  0  0  0  0  0  0  0  0
   55.0448   -9.1551   -2.6773 N   0  0  0  0  0  0  0  0  0  0  0  0
   55.8933   -2.4969   -6.9501 O   0  0  0  0  0  0  0  0  0  0  0  0
   56.2323   -0.1049   -6.4010 O   0  0  0  0  0  0  0  0  0  0  0  0
   54.1786    1.3170   -6.4590 O   0  0  0  0  0  0  0  0  0  0  0  0
   54.7496   -7.9152   -3.1312 C   0  0  2  0  0  0  0  0  0  0  0  0
   53.9192   -6.9730   -2.5460 C   0  0  2  0  0  0  0  0  0  0  0  0
   53.2690   -7.2815   -1.3261 C   0  0  1  0  0  0  0  0  0  0  0  0
   52.4897   -6.5895   -0.6847 O   0  0  0  0  0  0  0  0  0  0  0  0
   53.8655   -5.8080   -3.3187 N   0  0  0  0  0  0  0  0  0  0  0  0
   54.6493   -6.1150   -4.3002 C   0  0  0  0  0  0  0  0  0  0  0  0
   55.2262   -7.3425   -4.2866 N   0  0  0  0  0  0  0  0  0  0  0  0
  1  5  1  1  0  0  0
  1 14  1  0  0  0  0
  1 19  2  0  0  0  0
  2 15  1  6  0  0  0
  2 20  2  0  0  0  0
  2 23  1  0  0  0  0
  3 16  1  1  0  0  0
  3 21  2  0  0  0  0
  3 24  1  0  0  0  0
  3 25  1  0  0  0  0
  4  6  1  0  0  0  0
  5  4  1  0  0  0  0
  6  7  1  0  0  0  0
  6  8  2  0  0  0  0
  7 12  1  0  0  0  0
  8  9  1  0  0  0  0
  8 10  1  0  0  0  0
 10 11  1  0  0  0  0
 10 12  2  0  0  0  0
 12 32  1  0  0  0  0
 13 17  1  0  0  0  0
 17 18  1  6  0  0  0
 17 22  1  0  0  0  0
 23  1  1  0  0  0  0
 24  2  1  0  0  0  0
 26 22  1  6  0  0  0
 27 26  1  0  0  0  0
 27 28  1  0  0  0  0
 27 30  1  6  0  0  0
 28 13  1  0  0  0  0
 28 29  1  6  0  0  0
 31 30  1  0  0  0  0
 32 26  1  0  0  0  0
 32 31  1  0  0  0  0
M  CHG  3  14  -1  15  -1  16  -1
M  END
>  <CHROM.1>
-103.47890208,58.30471767,179.45144027,-71.61573446,-174.40236937,-106.88032274
-158.54568359,159.79238199,55.64625370,-4.48365276,-5.25762405,-1.34695984
-0.97647300,2.90505033

>  <Name>
2au4_lig

>  <RI>
0

>  <Rbt.Current_Directory>
/home/afrankz/demos/rdock_decoys_rna/rnas/2au4

>  <Rbt.Executable>
rbdock ($Id: //depot/dev/client3/rdock/2013.1/src/exe/rbdock.cxx#4 $)

>  <Rbt.Library>
libRbt.so (2013.1, Build901 2013/11/27)

>  <Rbt.Parameter_File>
/export/apps/rDock/src/rDock_2013.1_src/data/scripts/dock_solv.prm

>  <Rbt.Receptor>
prm/blind_docking_60.prm

>  <SCORE>
0.85021

>  <SCORE.INTER>
-5.1161

>  <SCORE.INTER.CONST>
1

>  <SCORE.INTER.POLAR>
0

>  <SCORE.INTER.ROT>
8

>  <SCORE.INTER.SOLV>
32.2711

>  <SCORE.INTER.VDW>
-23.1011

>  <SCORE.INTER.norm>
-0.159878

>  <SCORE.INTRA>
-2.42612

>  <SCORE.INTRA.DIHEDRAL>
-1.32783

>  <SCORE.INTRA.DIHEDRAL.0>
76.3625

>  <SCORE.INTRA.POLAR>
0

>  <SCORE.INTRA.POLAR.0>
0

>  <SCORE.INTRA.REPUL>
-0.12705

>  <SCORE.INTRA.REPUL.0>
0.12705

>  <SCORE.INTRA.SOLV>
-3.90884

>  <SCORE.INTRA.SOLV.lig_0>
-119.383

>  <SCORE.INTRA.VDW>
0.827459

>  <SCORE.INTRA.VDW.0>
-5.10464

>  <SCORE.INTRA.norm>
-0.0758164

>  <SCORE.RESTR>
8.39244

>  <SCORE.RESTR.CAVITY>
8.39244

>  <SCORE.RESTR.norm>
0.262264

>  <SCORE.SYSTEM>
0

>  <SCORE.SYSTEM.CONST>
0

>  <SCORE.SYSTEM.DIHEDRAL>
0

>  <SCORE.SYSTEM.SOLV>
0

>  <SCORE.SYSTEM.norm>
0

>  <SCORE.heavy>
32

>  <SCORE.norm>
0.0265691

>  <RMSD>
19.553

$$$$
2au4_lig
 OpenBabel11021811423D
libRbt.so/2013.1/901 2013/11/27
 32 34  0  0  0  0  0  0  0  0999 V2000
   66.3213  -11.4989    2.5186 P   0  0  1  0  0  0  0  0  0  0  0  0
   66.5630   -8.8873    1.8181 P   0  0  1  0  0  0  0  0  0  0  0  0
   68.5985   -7.6321    3.1302 P   0  0  2  0  0  0  0  0  0  0  0  0
   64.7269  -12.6383    0.7326 C   0  0  0  0  0  0  0  0  0  0  0  0
   64.9926  -12.3073    2.1057 O   0  0  0  0  0  0  0  0  0  0  0  0
   63.3036  -13.1319    0.5179 C   0  0  0  0  0  0  0  0  0  0  0  0
   62.6041  -13.2262    1.7757 O   0  0  0  0  0  0  0  0  0  0  0  0
   62.5342  -12.1805   -0.3850 C   0  0  0  0  0  0  0  0  0  0  0  0
   62.1571  -12.8267   -1.6070 O   0  0  0  0  0  0  0  0  0  0  0  0
   61.3178  -11.7396    0.3937 C   0  0  0  0  0  0  0  0  0  0  0  0
   60.1080  -12.0776   -0.2977 O   0  0  0  0  0  0  0  0  0  0  0  0
   61.3889  -12.4483    1.7352 C   0  0  0  0  0  0  0  0  0  0  0  0
   62.7066  -11.4665    6.5691 N   0  0  0  0  0  0  0  0  0  0  0  0
   66.0693  -10.7989    3.7943 O   0  5  0  0  0  0  0  0  0  0  0  0
   67.0393   -8.1074    0.6593 O   0  5  0  0  0  0  0  0  0  0  0  0
   69.5114   -7.4754    1.9798 O   0  5  0  0  0  0  0  0  0  0  0  0
   62.9403  -12.5899    5.8122 C   0  0  1  0  0  0  0  0  0  0  0  0
   63.5990  -13.5743    6.4090 N   0  0  0  0  0  0  0  0  0  0  0  0
   67.4840  -12.4027    2.3863 O   0  0  0  0  0  0  0  0  0  0  0  0
   65.3190   -8.4970    2.5136 O   0  0  0  0  0  0  0  0  0  0  0  0
   69.1424   -7.6894    4.5031 O   0  0  0  0  0  0  0  0  0  0  0  0
   62.5438  -12.7283    4.5495 N   0  0  0  0  0  0  0  0  0  0  0  0
   66.4252  -10.4039    1.3739 O   0  0  0  0  0  0  0  0  0  0  0  0
   67.7314   -8.9469    2.8934 O   0  0  0  0  0  0  0  0  0  0  0  0
   67.4960   -6.4655    3.0668 O   0  0  0  0  0  0  0  0  0  0  0  0
   61.8843  -11.6359    4.0998 C   0  0  2  0  0  0  0  0  0  0  0  0
   61.6070  -10.4678    4.7916 C   0  0  2  0  0  0  0  0  0  0  0  0
   62.0359  -10.3371    6.1351 C   0  0  1  0  0  0  0  0  0  0  0  0
   61.8609   -9.3983    6.9003 O   0  0  0  0  0  0  0  0  0  0  0  0
   60.9027   -9.5670    3.9857 N   0  0  0  0  0  0  0  0  0  0  0  0
   60.8012  -10.2346    2.8830 C   0  0  0  0  0  0  0  0  0  0  0  0
   61.3498  -11.4744    2.8435 N   0  0  0  0  0  0  0  0  0  0  0  0
  1  5  1  6  0  0  0
  1 14  1  0  0  0  0
  1 19  2  0  0  0  0
  2 15  1  6  0  0  0
  2 20  2  0  0  0  0
  2 23  1  0  0  0  0
  3 16  1  6  0  0  0
  3 21  2  0  0  0  0
  3 24  1  0  0  0  0
  3 25  1  0  0  0  0
  4  6  1  0  0  0  0
  5  4  1  0  0  0  0
  6  7  1  0  0  0  0
  6  8  2  0  0  0  0
  7 12  1  0  0  0  0
  8  9  1  0  0  0  0
  8 10  1  0  0  0  0
 10 11  1  0  0  0  0
 10 12  2  0  0  0  0
 12 32  1  0  0  0  0
 13 17  1  0  0  0  0
 17 18  1  1  0  0  0
 17 22  1  0  0  0  0
 23  1  1  0  0  0  0
 24  2  1  0  0  0  0
 26 22  1  1  0  0  0
 27 26  1  0  0  0  0
 27 28  1  0  0  0  0
 27 30  1  1  0  0  0
 28 13  1  0  0  0  0
 28 29  1  1  0  0  0
 31 30  1  0  0  0  0
 32 26  1  0  0  0  0
 32 31  1  0  0  0  0
M  CHG  3  14  -1  15  -1  16  -1
M  END
>  <CHROM.1>
155.35131611,163.43464621,-74.70978946,-3.83046619,-167.85007032,-32.69956926
127.26358091,39.92423140,64.57819613,-10.56664537,2.78450994,-0.14497203
-0.51520259,-1.86313979

>  <Name>
2au4_lig

>  <RI>
0

>  <Rbt.Current_Directory>
/home/itssahil/PROJECTS/Mol_Feturizer/New_Systems/rnas/2au4

>  <Rbt.Executable>
rbdock ($Id: //depot/dev/client3/rdock/2013.1/src/exe/rbdock.cxx#4 $)

>  <Rbt.Library>
libRbt.so (2013.1, Build901 2013/11/27)

>  <Rbt.Parameter_File>
/export/apps/rDock/src/rDock_2013.1_src/data/scripts/dock_solv.prm

>  <Rbt.Receptor>
prm/blind_docking_100.prm

>  <SCORE>
-34.9753

>  <SCORE.INTER>
-11.7529

>  <SCORE.INTER.CONST>
1

>  <SCORE.INTER.POLAR>
-2.09466

>  <SCORE.INTER.ROT>
8

>  <SCORE.INTER.SOLV>
19.6669

>  <SCORE.INTER.VDW>
-16.3421

>  <SCORE.INTER.norm>
-0.367279

>  <SCORE.INTRA>
-23.7908

>  <SCORE.INTRA.DIHEDRAL>
-46.0859

>  <SCORE.INTRA.DIHEDRAL.0>
76.3625

>  <SCORE.INTRA.POLAR>
0

>  <SCORE.INTRA.POLAR.0>
0

>  <SCORE.INTRA.REPUL>
0.0542925

>  <SCORE.INTRA.REPUL.0>
0.12705

>  <SCORE.INTRA.SOLV>
-5.67429

>  <SCORE.INTRA.SOLV.lig_0>
-119.383

>  <SCORE.INTRA.VDW>
1.8178

>  <SCORE.INTRA.VDW.0>
-5.10464

>  <SCORE.INTRA.norm>
-0.743464

>  <SCORE.RESTR>
0.568478

>  <SCORE.RESTR.CAVITY>
0.568478

>  <SCORE.RESTR.norm>
0.0177649

>  <SCORE.SYSTEM>
0

>  <SCORE.SYSTEM.CONST>
0

>  <SCORE.SYSTEM.DIHEDRAL>
0

>  <SCORE.SYSTEM.SOLV>
0

>  <SCORE.SYSTEM.norm>
0

>  <SCORE.heavy>
32

>  <SCORE.norm>
-1.09298

>  <RMSD>
19.604

$$$$
2au4_lig
 OpenBabel11021811423D
libRbt.so/2013.1/901 2013/11/27
 32 34  0  0  0  0  0  0  0  0999 V2000
   57.0589   -1.9000   -6.7926 P   0  0  1  0  0  0  0  0  0  0  0  0
   55.1495   -0.5034   -8.1241 P   0  0  1  0  0  0  0  0  0  0  0  0
   55.9799    0.4192  -10.5531 P   0  0  2  0  0  0  0  0  0  0  0  0
   55.8454   -3.9361   -5.6041 C   0  0  0  0  0  0  0  0  0  0  0  0
   55.8763   -2.9856   -6.6818 O   0  0  0  0  0  0  0  0  0  0  0  0
   57.0047   -4.9200   -5.6626 C   0  0  0  0  0  0  0  0  0  0  0  0
   56.8282   -5.9706   -4.6903 O   0  0  0  0  0  0  0  0  0  0  0  0
   57.1013   -5.5569   -7.0401 C   0  0  0  0  0  0  0  0  0  0  0  0
   58.3327   -5.2042   -7.6822 O   0  0  0  0  0  0  0  0  0  0  0  0
   57.0067   -7.0494   -6.8301 C   0  0  0  0  0  0  0  0  0  0  0  0
   58.1699   -7.7194   -7.3343 O   0  0  0  0  0  0  0  0  0  0  0  0
   56.8675   -7.2625   -5.3327 C   0  0  0  0  0  0  0  0  0  0  0  0
   53.1968   -8.2283   -1.9180 N   0  0  0  0  0  0  0  0  0  0  0  0
   56.9892   -1.0063   -5.6190 O   0  5  0  0  0  0  0  0  0  0  0  0
   54.2870   -1.5419   -8.7206 O   0  5  0  0  0  0  0  0  0  0  0  0
   55.0683    0.8656  -11.6259 O   0  5  0  0  0  0  0  0  0  0  0  0
   54.2579   -7.3582   -1.8357 C   0  0  1  0  0  0  0  0  0  0  0  0
   54.3620   -6.6629   -0.7111 N   0  0  0  0  0  0  0  0  0  0  0  0
   58.3184   -2.6051   -7.1133 O   0  0  0  0  0  0  0  0  0  0  0  0
   54.8221    0.0605   -6.7981 O   0  0  0  0  0  0  0  0  0  0  0  0
   56.4774   -0.9723  -10.5371 O   0  0  0  0  0  0  0  0  0  0  0  0
   55.1569   -7.1924   -2.8027 N   0  0  0  0  0  0  0  0  0  0  0  0
   56.6339   -1.0603   -8.0710 O   0  0  0  0  0  0  0  0  0  0  0  0
   55.2684    0.6992   -9.1560 O   0  0  0  0  0  0  0  0  0  0  0  0
   57.2419    1.4124  -10.5123 O   0  0  0  0  0  0  0  0  0  0  0  0
   54.9046   -7.9798   -3.8736 C   0  0  2  0  0  0  0  0  0  0  0  0
   53.8637   -8.8793   -4.0388 C   0  0  2  0  0  0  0  0  0  0  0  0
   52.9157   -9.0440   -2.9994 C   0  0  1  0  0  0  0  0  0  0  0  0
   51.9557   -9.8018   -2.9601 O   0  0  0  0  0  0  0  0  0  0  0  0
   53.9426   -9.5088   -5.2856 N   0  0  0  0  0  0  0  0  0  0  0  0
   55.0035   -8.9615   -5.7825 C   0  0  0  0  0  0  0  0  0  0  0  0
   55.6511   -8.0403   -5.0264 N   0  0  0  0  0  0  0  0  0  0  0  0
  1  5  1  1  0  0  0
  1 14  1  0  0  0  0
  1 19  2  0  0  0  0
  2 15  1  6  0  0  0
  2 20  2  0  0  0  0
  2 23  1  0  0  0  0
  3 16  1  6  0  0  0
  3 21  2  0  0  0  0
  3 24  1  0  0  0  0
  3 25  1  0  0  0  0
  4  6  1  0  0  0  0
  5  4  1  0  0  0  0
  6  7  1  0  0  0  0
  6  8  2  0  0  0  0
  7 12  1  0  0  0  0
  8  9  1  0  0  0  0
  8 10  1  0  0  0  0
 10 11  1  0  0  0  0
 10 12  2  0  0  0  0
 12 32  1  0  0  0  0
 13 17  1  0  0  0  0
 17 18  1  1  0  0  0
 17 22  1  0  0  0  0
 23  1  1  0  0  0  0
 24  2  1  0  0  0  0
 26 22  1  1  0  0  0
 27 26  1  0  0  0  0
 27 28  1  0  0  0  0
 27 30  1  1  0  0  0
 28 13  1  0  0  0  0
 28 29  1  1  0  0  0
 31 30  1  0  0  0  0
 32 26  1  0  0  0  0
 32 31  1  0  0  0  0
M  CHG  3  14  -1  15  -1  16  -1
M  END
>  <CHROM.1>
-63.69718788,-87.58833940,127.34693142,-171.42890472,-65.98023749,-31.09271590
50.67804907,-64.21251554,55.73050564,-4.07964535,-6.51057553,-1.34932672
-0.76441866,2.68786544

>  <Name>
2au4_lig

>  <RI>
0

>  <Rbt.Current_Directory>
/home/afrankz/demos/rdock_decoys_rna/rnas/2au4

>  <Rbt.Executable>
rbdock ($Id: //depot/dev/client3/rdock/2013.1/src/exe/rbdock.cxx#4 $)

>  <Rbt.Library>
libRbt.so (2013.1, Build901 2013/11/27)

>  <Rbt.Parameter_File>
/export/apps/rDock/src/rDock_2013.1_src/data/scripts/dock_solv.prm

>  <Rbt.Receptor>
prm/blind_docking_60.prm

>  <SCORE>
0.893609

>  <SCORE.INTER>
14.9532

>  <SCORE.INTER.CONST>
1

>  <SCORE.INTER.POLAR>
-0.280975

>  <SCORE.INTER.ROT>
8

>  <SCORE.INTER.SOLV>
26.0271

>  <SCORE.INTER.VDW>
-6.70362

>  <SCORE.INTER.norm>
0.467288

>  <SCORE.INTRA>
-22.7179

>  <SCORE.INTRA.DIHEDRAL>
-47.3976

>  <SCORE.INTRA.DIHEDRAL.0>
76.3625

>  <SCORE.INTRA.POLAR>
0

>  <SCORE.INTRA.POLAR.0>
0

>  <SCORE.INTRA.REPUL>
0.0603976

>  <SCORE.INTRA.REPUL.0>
0.12705

>  <SCORE.INTRA.SOLV>
-2.59808

>  <SCORE.INTRA.SOLV.lig_0>
-119.383

>  <SCORE.INTRA.VDW>
1.97791

>  <SCORE.INTRA.VDW.0>
-5.10464

>  <SCORE.INTRA.norm>
-0.709935

>  <SCORE.RESTR>
8.6583

>  <SCORE.RESTR.CAVITY>
8.6583

>  <SCORE.RESTR.norm>
0.270572

>  <SCORE.SYSTEM>
0

>  <SCORE.SYSTEM.CONST>
0

>  <SCORE.SYSTEM.DIHEDRAL>
0

>  <SCORE.SYSTEM.SOLV>
0

>  <SCORE.SYSTEM.norm>
0

>  <SCORE.heavy>
32

>  <SCORE.norm>
0.0279253

>  <RMSD>
19.605

$$$$
2au4_lig
 OpenBabel11021811423D
libRbt.so/2013.1/901 2013/11/27
 32 34  0  0  0  0  0  0  0  0999 V2000
   68.0515  -10.7738    1.1138 P   0  0  1  0  0  0  0  0  0  0  0  0
   67.6480   -8.6427    2.7463 P   0  0  1  0  0  0  0  0  0  0  0  0
   69.8192   -7.0052    2.9580 P   0  0  2  0  0  0  0  0  0  0  0  0
   65.8036  -12.1184    1.5256 C   0  0  0  0  0  0  0  0  0  0  0  0
   66.8836  -11.7751    0.6417 O   0  0  0  0  0  0  0  0  0  0  0  0
   64.8420  -13.1224    0.9069 C   0  0  0  0  0  0  0  0  0  0  0  0
   63.7202  -13.3567    1.7827 O   0  0  0  0  0  0  0  0  0  0  0  0
   64.3099  -12.6098   -0.4222 C   0  0  0  0  0  0  0  0  0  0  0  0
   64.7253  -13.4564   -1.5009 O   0  0  0  0  0  0  0  0  0  0  0  0
   62.8050  -12.5844   -0.3007 C   0  0  0  0  0  0  0  0  0  0  0  0
   62.1893  -13.4081   -1.3000 O   0  0  0  0  0  0  0  0  0  0  0  0
   62.4799  -13.0928    1.0933 C   0  0  0  0  0  0  0  0  0  0  0  0
   57.8999  -10.8916    1.5878 N   0  0  0  0  0  0  0  0  0  0  0  0
   69.2548  -11.5695    1.4296 O   0  5  0  0  0  0  0  0  0  0  0  0
   67.1668   -7.9114    1.5582 O   0  5  0  0  0  0  0  0  0  0  0  0
   68.8011   -6.1608    3.6149 O   0  5  0  0  0  0  0  0  0  0  0  0
   58.3128  -11.8565    0.7000 C   0  0  1  0  0  0  0  0  0  0  0  0
   57.4039  -12.2875   -0.1644 N   0  0  0  0  0  0  0  0  0  0  0  0
   68.1341   -9.6565    0.1490 O   0  0  0  0  0  0  0  0  0  0  0  0
   67.0857   -8.3428    4.0795 O   0  0  0  0  0  0  0  0  0  0  0  0
   70.3623   -6.6177    1.6394 O   0  0  0  0  0  0  0  0  0  0  0  0
   59.5454  -12.3569    0.6699 N   0  0  0  0  0  0  0  0  0  0  0  0
   67.4771  -10.1966    2.4766 O   0  0  0  0  0  0  0  0  0  0  0  0
   69.2264   -8.4777    2.8281 O   0  0  0  0  0  0  0  0  0  0  0  0
   71.0460   -7.2067    3.9755 O   0  0  0  0  0  0  0  0  0  0  0  0
   60.3428  -11.8048    1.6132 C   0  0  2  0  0  0  0  0  0  0  0  0
   60.0096  -10.8329    2.5429 C   0  0  2  0  0  0  0  0  0  0  0  0
   58.6931  -10.3107    2.5610 C   0  0  1  0  0  0  0  0  0  0  0  0
   58.2313   -9.4403    3.2868 O   0  0  0  0  0  0  0  0  0  0  0  0
   61.1082  -10.5179    3.3496 N   0  0  0  0  0  0  0  0  0  0  0  0
   62.0151  -11.3021    2.8655 C   0  0  0  0  0  0  0  0  0  0  0  0
   61.6658  -12.1082    1.8320 N   0  0  0  0  0  0  0  0  0  0  0  0
  1  5  1  6  0  0  0
  1 14  1  0  0  0  0
  1 19  2  0  0  0  0
  2 15  1  6  0  0  0
  2 20  2  0  0  0  0
  2 23  1  0  0  0  0
  3 16  1  1  0  0  0
  3 21  2  0  0  0  0
  3 24  1  0  0  0  0
  3 25  1  0  0  0  0
  4  6  1  0  0  0  0
  5  4  1  0  0  0  0
  6  7  1  0  0  0  0
  6  8  2  0  0  0  0
  7 12  1  0  0  0  0
  8  9  1  0  0  0  0
  8 10  1  0  0  0  0
 10 11  1  0  0  0  0
 10 12  2  0  0  0  0
 12 32  1  0  0  0  0
 13 17  1  0  0  0  0
 17 18  1  6  0  0  0
 17 22  1  0  0  0  0
 23  1  1  0  0  0  0
 24  2  1  0  0  0  0
 26 22  1  6  0  0  0
 27 26  1  0  0  0  0
 27 28  1  0  0  0  0
 27 30  1  6  0  0  0
 28 13  1  0  0  0  0
 28 29  1  6  0  0  0
 31 30  1  0  0  0  0
 32 26  1  0  0  0  0
 32 31  1  0  0  0  0
M  CHG  3  14  -1  15  -1  16  -1
M  END
>  <CHROM.1>
103.39230490,50.25883325,27.12418619,-175.42940394,-177.52345779,-167.14952342
-137.46679229,60.03658067,64.88161541,-10.41210838,1.71055714,-0.37299017
-0.11388734,-2.51857761

>  <Name>
2au4_lig

>  <RI>
0

>  <Rbt.Current_Directory>
/home/itssahil/PROJECTS/Mol_Feturizer/New_Systems/rnas/2au4

>  <Rbt.Executable>
rbdock ($Id: //depot/dev/client3/rdock/2013.1/src/exe/rbdock.cxx#4 $)

>  <Rbt.Library>
libRbt.so (2013.1, Build901 2013/11/27)

>  <Rbt.Parameter_File>
/export/apps/rDock/src/rDock_2013.1_src/data/scripts/dock_solv.prm

>  <Rbt.Receptor>
prm/blind_docking_80.prm

>  <SCORE>
-24.181

>  <SCORE.INTER>
-15.786

>  <SCORE.INTER.CONST>
1

>  <SCORE.INTER.POLAR>
-2.14149

>  <SCORE.INTER.ROT>
8

>  <SCORE.INTER.SOLV>
30.7099

>  <SCORE.INTER.VDW>
-22.5557

>  <SCORE.INTER.norm>
-0.493313

>  <SCORE.INTRA>
-11.5785

>  <SCORE.INTRA.DIHEDRAL>
-22.8829

>  <SCORE.INTRA.DIHEDRAL.0>
76.3625

>  <SCORE.INTRA.POLAR>
0

>  <SCORE.INTRA.POLAR.0>
0

>  <SCORE.INTRA.REPUL>
-0.12705

>  <SCORE.INTRA.REPUL.0>
0.12705

>  <SCORE.INTRA.SOLV>
-5.1331

>  <SCORE.INTRA.SOLV.lig_0>
-119.383

>  <SCORE.INTRA.VDW>
3.0648

>  <SCORE.INTRA.VDW.0>
-5.10464

>  <SCORE.INTRA.norm>
-0.361827

>  <SCORE.RESTR>
3.18343

>  <SCORE.RESTR.CAVITY>
3.18343

>  <SCORE.RESTR.norm>
0.0994821

>  <SCORE.SYSTEM>
0

>  <SCORE.SYSTEM.CONST>
0

>  <SCORE.SYSTEM.DIHEDRAL>
0

>  <SCORE.SYSTEM.SOLV>
0

>  <SCORE.SYSTEM.norm>
0

>  <SCORE.heavy>
32

>  <SCORE.norm>
-0.755657

>  <RMSD>
19.646

$$$$
2au4_lig
 OpenBabel11021811423D
libRbt.so/2013.1/901 2013/11/27
 32 34  0  0  0  0  0  0  0  0999 V2000
   54.4988   -8.2230   -3.5651 P   0  0  1  0  0  0  0  0  0  0  0  0
   54.0113   -7.0788   -1.1521 P   0  0  1  0  0  0  0  0  0  0  0  0
   54.0259   -5.4548    1.0395 P   0  0  2  0  0  0  0  0  0  0  0  0
   55.0418   -6.6190   -5.6054 C   0  0  0  0  0  0  0  0  0  0  0  0
   55.3819   -7.7851   -4.8370 O   0  0  0  0  0  0  0  0  0  0  0  0
   56.0962   -6.2824   -6.6496 C   0  0  0  0  0  0  0  0  0  0  0  0
   55.9568   -4.9158   -7.0892 O   0  0  0  0  0  0  0  0  0  0  0  0
   57.4947   -6.4592   -6.0791 C   0  0  0  0  0  0  0  0  0  0  0  0
   58.2021   -7.4962   -6.7697 O   0  0  0  0  0  0  0  0  0  0  0  0
   58.1927   -5.1292   -6.2349 C   0  0  0  0  0  0  0  0  0  0  0  0
   59.3816   -5.2563   -7.0264 O   0  0  0  0  0  0  0  0  0  0  0  0
   57.1957   -4.1988   -6.9039 C   0  0  0  0  0  0  0  0  0  0  0  0
   54.7957    0.2913   -6.5228 N   0  0  0  0  0  0  0  0  0  0  0  0
   53.0703   -8.1041   -3.9202 O   0  5  0  0  0  0  0  0  0  0  0  0
   52.6151   -6.7138   -1.4612 O   0  5  0  0  0  0  0  0  0  0  0  0
   54.7033   -4.2276    1.5044 O   0  5  0  0  0  0  0  0  0  0  0  0
   54.7328   -0.6493   -7.5232 C   0  0  1  0  0  0  0  0  0  0  0  0
   53.9419   -0.3644   -8.5491 N   0  0  0  0  0  0  0  0  0  0  0  0
   55.0282   -9.4999   -3.0400 O   0  0  0  0  0  0  0  0  0  0  0  0
   54.3068   -8.3317   -0.4266 O   0  0  0  0  0  0  0  0  0  0  0  0
   53.9901   -6.6525    1.9046 O   0  0  0  0  0  0  0  0  0  0  0  0
   55.4119   -1.7936   -7.5082 N   0  0  0  0  0  0  0  0  0  0  0  0
   54.8347   -7.0873   -2.5079 O   0  0  0  0  0  0  0  0  0  0  0  0
   54.6754   -5.8771   -0.3520 O   0  0  0  0  0  0  0  0  0  0  0  0
   52.5196   -5.0788    0.6267 O   0  0  0  0  0  0  0  0  0  0  0  0
   56.1705   -1.9214   -6.3951 C   0  0  2  0  0  0  0  0  0  0  0  0
   56.2914   -1.0272   -5.3436 C   0  0  2  0  0  0  0  0  0  0  0  0
   55.5618    0.1864   -5.3757 C   0  0  1  0  0  0  0  0  0  0  0  0
   55.5636    1.0955   -4.5566 O   0  0  0  0  0  0  0  0  0  0  0  0
   57.1747   -1.5147   -4.3744 N   0  0  0  0  0  0  0  0  0  0  0  0
   57.5236   -2.6472   -4.8919 C   0  0  0  0  0  0  0  0  0  0  0  0
   56.9857   -2.9856   -6.0901 N   0  0  0  0  0  0  0  0  0  0  0  0
  1  5  1  6  0  0  0
  1 14  1  0  0  0  0
  1 19  2  0  0  0  0
  2 15  1  6  0  0  0
  2 20  2  0  0  0  0
  2 23  1  0  0  0  0
  3 16  1  1  0  0  0
  3 21  2  0  0  0  0
  3 24  1  0  0  0  0
  3 25  1  0  0  0  0
  4  6  1  0  0  0  0
  5  4  1  0  0  0  0
  6  7  1  0  0  0  0
  6  8  2  0  0  0  0
  7 12  1  0  0  0  0
  8  9  1  0  0  0  0
  8 10  1  0  0  0  0
 10 11  1  0  0  0  0
 10 12  2  0  0  0  0
 12 32  1  0  0  0  0
 13 17  1  0  0  0  0
 17 18  1  6  0  0  0
 17 22  1  0  0  0  0
 23  1  1  0  0  0  0
 24  2  1  0  0  0  0
 26 22  1  6  0  0  0
 27 26  1  0  0  0  0
 27 28  1  0  0  0  0
 27 30  1  6  0  0  0
 28 13  1  0  0  0  0
 28 29  1  6  0  0  0
 31 30  1  0  0  0  0
 32 26  1  0  0  0  0
 32 31  1  0  0  0  0
M  CHG  3  14  -1  15  -1  16  -1
M  END
>  <CHROM.1>
43.84804023,-68.54260598,-173.14028666,-161.44566631,172.74629481,-60.67974103
173.08734572,60.24949198,55.29786409,-4.94333467,-3.81006845,-2.31963001
1.16707460,-0.17313756

>  <Name>
2au4_lig

>  <RI>
0

>  <Rbt.Current_Directory>
/home/afrankz/demos/rdock_decoys_rna/rnas/2au4

>  <Rbt.Executable>
rbdock ($Id: //depot/dev/client3/rdock/2013.1/src/exe/rbdock.cxx#4 $)

>  <Rbt.Library>
libRbt.so (2013.1, Build901 2013/11/27)

>  <Rbt.Parameter_File>
/export/apps/rDock/src/rDock_2013.1_src/data/scripts/dock_solv.prm

>  <Rbt.Receptor>
prm/blind_docking_60.prm

>  <SCORE>
-21.6767

>  <SCORE.INTER>
-8.80702

>  <SCORE.INTER.CONST>
1

>  <SCORE.INTER.POLAR>
-0.442438

>  <SCORE.INTER.ROT>
8

>  <SCORE.INTER.SOLV>
23.1078

>  <SCORE.INTER.VDW>
-21.0325

>  <SCORE.INTER.norm>
-0.27522

>  <SCORE.INTRA>
-20.8006

>  <SCORE.INTRA.DIHEDRAL>
-37.5695

>  <SCORE.INTRA.DIHEDRAL.0>
76.3625

>  <SCORE.INTRA.POLAR>
0

>  <SCORE.INTRA.POLAR.0>
0

>  <SCORE.INTRA.REPUL>
-0.104269

>  <SCORE.INTRA.REPUL.0>
0.12705

>  <SCORE.INTRA.SOLV>
-6.44155

>  <SCORE.INTRA.SOLV.lig_0>
-119.383

>  <SCORE.INTRA.VDW>
1.72633

>  <SCORE.INTRA.VDW.0>
-5.10464

>  <SCORE.INTRA.norm>
-0.650017

>  <SCORE.RESTR>
7.93092

>  <SCORE.RESTR.CAVITY>
7.93092

>  <SCORE.RESTR.norm>
0.247841

>  <SCORE.SYSTEM>
0

>  <SCORE.SYSTEM.CONST>
0

>  <SCORE.SYSTEM.DIHEDRAL>
0

>  <SCORE.SYSTEM.SOLV>
0

>  <SCORE.SYSTEM.norm>
0

>  <SCORE.heavy>
32

>  <SCORE.norm>
-0.677396

>  <RMSD>
19.660

$$$$
2au4_lig
 OpenBabel11021811423D
libRbt.so/2013.1/901 2013/11/27
 32 34  0  0  0  0  0  0  0  0999 V2000
   61.6307  -12.8647    0.0116 P   0  0  1  0  0  0  0  0  0  0  0  0
   60.7234  -10.8118    1.5386 P   0  0  1  0  0  0  0  0  0  0  0  0
   62.8014   -9.4919    2.7134 P   0  0  2  0  0  0  0  0  0  0  0  0
   64.1263  -12.4040   -0.7568 C   0  0  0  0  0  0  0  0  0  0  0  0
   62.8569  -13.0253   -1.0181 O   0  0  0  0  0  0  0  0  0  0  0  0
   65.0546  -13.2957    0.0548 C   0  0  0  0  0  0  0  0  0  0  0  0
   66.3856  -12.7416    0.0927 O   0  0  0  0  0  0  0  0  0  0  0  0
   64.5549  -13.4335    1.4845 C   0  0  0  0  0  0  0  0  0  0  0  0
   64.2011  -14.7913    1.7747 O   0  0  0  0  0  0  0  0  0  0  0  0
   65.6770  -12.9619    2.3783 C   0  0  0  0  0  0  0  0  0  0  0  0
   66.0872  -13.9941    3.2851 O   0  0  0  0  0  0  0  0  0  0  0  0
   66.8190  -12.5663    1.4583 C   0  0  0  0  0  0  0  0  0  0  0  0
   67.0300   -8.7401    4.8319 N   0  0  0  0  0  0  0  0  0  0  0  0
   60.3656  -12.9739   -0.7421 O   0  5  0  0  0  0  0  0  0  0  0  0
   59.4739  -10.5077    0.8144 O   0  5  0  0  0  0  0  0  0  0  0  0
   63.1946  -10.9097    2.8419 O   0  5  0  0  0  0  0  0  0  0  0  0
   66.5265  -10.0101    4.9837 C   0  0  1  0  0  0  0  0  0  0  0  0
   66.0128  -10.3008    6.1714 N   0  0  0  0  0  0  0  0  0  0  0  0
   61.8763  -13.7394    1.1782 O   0  0  0  0  0  0  0  0  0  0  0  0
   60.7043  -11.7284    2.6975 O   0  0  0  0  0  0  0  0  0  0  0  0
   62.7436   -8.6291    3.9118 O   0  0  0  0  0  0  0  0  0  0  0  0
   66.5295  -10.9283    4.0206 N   0  0  0  0  0  0  0  0  0  0  0  0
   61.7832  -11.3597    0.4931 O   0  0  0  0  0  0  0  0  0  0  0  0
   61.3757   -9.4400    2.0054 O   0  0  0  0  0  0  0  0  0  0  0  0
   63.7600   -8.7948    1.6290 O   0  0  0  0  0  0  0  0  0  0  0  0
   67.0843  -10.4653    2.8767 C   0  0  2  0  0  0  0  0  0  0  0  0
   67.6133   -9.2069    2.6392 C   0  0  2  0  0  0  0  0  0  0  0  0
   67.6018   -8.2412    3.6753 C   0  0  1  0  0  0  0  0  0  0  0  0
   67.9985   -7.0841    3.6394 O   0  0  0  0  0  0  0  0  0  0  0  0
   68.0936   -9.1077    1.3290 N   0  0  0  0  0  0  0  0  0  0  0  0
   67.8289  -10.2868    0.8690 C   0  0  0  0  0  0  0  0  0  0  0  0
   67.2297  -11.1705    1.7055 N   0  0  0  0  0  0  0  0  0  0  0  0
  1  5  1  6  0  0  0
  1 14  1  0  0  0  0
  1 19  2  0  0  0  0
  2 15  1  6  0  0  0
  2 20  2  0  0  0  0
  2 23  1  0  0  0  0
  3 16  1  1  0  0  0
  3 21  2  0  0  0  0
  3 24  1  0  0  0  0
  3 25  1  0  0  0  0
  4  6  1  0  0  0  0
  5  4  1  0  0  0  0
  6  7  1  0  0  0  0
  6  8  2  0  0  0  0
  7 12  1  0  0  0  0
  8  9  1  0  0  0  0
  8 10  1  0  0  0  0
 10 11  1  0  0  0  0
 10 12  2  0  0  0  0
 12 32  1  0  0  0  0
 13 17  1  0  0  0  0
 17 18  1  6  0  0  0
 17 22  1  0  0  0  0
 23  1  1  0  0  0  0
 24  2  1  0  0  0  0
 26 22  1  6  0  0  0
 27 26  1  0  0  0  0
 27 28  1  0  0  0  0
 27 30  1  6  0  0  0
 28 13  1  0  0  0  0
 28 29  1  6  0  0  0
 31 30  1  0  0  0  0
 32 26  1  0  0  0  0
 32 31  1  0  0  0  0
M  CHG  3  14  -1  15  -1  16  -1
M  END
>  <CHROM.1>
151.94400236,-77.65442400,-2.79546694,169.86408259,88.96336270,146.33438864
179.75611940,-175.25433099,64.15789856,-11.11630387,1.93608194,-2.58626080
-0.14423565,0.58813400

>  <Name>
2au4_lig

>  <RI>
0

>  <Rbt.Current_Directory>
/home/itssahil/PROJECTS/Mol_Feturizer/New_Systems/rnas/2au4

>  <Rbt.Executable>
rbdock ($Id: //depot/dev/client3/rdock/2013.1/src/exe/rbdock.cxx#4 $)

>  <Rbt.Library>
libRbt.so (2013.1, Build901 2013/11/27)

>  <Rbt.Parameter_File>
/export/apps/rDock/src/rDock_2013.1_src/data/scripts/dock_solv.prm

>  <Rbt.Receptor>
prm/blind_docking_80.prm

>  <SCORE>
-44.9389

>  <SCORE.INTER>
-23.7546

>  <SCORE.INTER.CONST>
1

>  <SCORE.INTER.POLAR>
-1.93167

>  <SCORE.INTER.ROT>
8

>  <SCORE.INTER.SOLV>
25.9316

>  <SCORE.INTER.VDW>
-26.9747

>  <SCORE.INTER.norm>
-0.742331

>  <SCORE.INTRA>
-21.9093

>  <SCORE.INTRA.DIHEDRAL>
-44.1505

>  <SCORE.INTRA.DIHEDRAL.0>
76.3625

>  <SCORE.INTRA.POLAR>
0

>  <SCORE.INTRA.POLAR.0>
0

>  <SCORE.INTRA.REPUL>
-0.12705

>  <SCORE.INTRA.REPUL.0>
0.12705

>  <SCORE.INTRA.SOLV>
2.58831

>  <SCORE.INTRA.SOLV.lig_0>
-119.383

>  <SCORE.INTRA.VDW>
-0.492955

>  <SCORE.INTRA.VDW.0>
-5.10464

>  <SCORE.INTRA.norm>
-0.684665

>  <SCORE.RESTR>
0.72504

>  <SCORE.RESTR.CAVITY>
0.72504

>  <SCORE.RESTR.norm>
0.0226575

>  <SCORE.SYSTEM>
0

>  <SCORE.SYSTEM.CONST>
0

>  <SCORE.SYSTEM.DIHEDRAL>
0

>  <SCORE.SYSTEM.SOLV>
0

>  <SCORE.SYSTEM.norm>
0

>  <SCORE.heavy>
32

>  <SCORE.norm>
-1.40434

>  <RMSD>
19.676

$$$$
2au4_lig
 OpenBabel11021811423D
libRbt.so/2013.1/901 2013/11/27
 32 34  0  0  0  0  0  0  0  0999 V2000
   55.3930   -6.6584   -5.4124 P   0  0  1  0  0  0  0  0  0  0  0  0
   54.5829   -7.6710   -3.0275 P   0  0  1  0  0  0  0  0  0  0  0  0
   53.9913   -6.3093   -0.7392 P   0  0  2  0  0  0  0  0  0  0  0  0
   56.6153   -4.6374   -6.6174 C   0  0  0  0  0  0  0  0  0  0  0  0
   55.4148   -5.1768   -6.0398 O   0  0  0  0  0  0  0  0  0  0  0  0
   57.1846   -3.4838   -5.8046 C   0  0  0  0  0  0  0  0  0  0  0  0
   57.5204   -2.3749   -6.6636 O   0  0  0  0  0  0  0  0  0  0  0  0
   56.1749   -3.0004   -4.7753 C   0  0  0  0  0  0  0  0  0  0  0  0
   56.6610   -3.2094   -3.4438 O   0  0  0  0  0  0  0  0  0  0  0  0
   55.9537   -1.5318   -5.0483 C   0  0  0  0  0  0  0  0  0  0  0  0
   56.2818   -0.7354   -3.9019 O   0  0  0  0  0  0  0  0  0  0  0  0
   56.8455   -1.1767   -6.2255 C   0  0  0  0  0  0  0  0  0  0  0  0
   56.5783   -0.2376  -11.2368 N   0  0  0  0  0  0  0  0  0  0  0  0
   54.4292   -7.4782   -6.1740 O   0  5  0  0  0  0  0  0  0  0  0  0
   53.1391   -7.9691   -2.9589 O   0  5  0  0  0  0  0  0  0  0  0  0
   53.1008   -5.5829   -1.6668 O   0  5  0  0  0  0  0  0  0  0  0  0
   57.5670   -0.8672  -10.5187 C   0  0  1  0  0  0  0  0  0  0  0  0
   58.6137   -1.2963  -11.2110 N   0  0  0  0  0  0  0  0  0  0  0  0
   56.7875   -7.1200   -5.2433 O   0  0  0  0  0  0  0  0  0  0  0  0
   55.5366   -8.7175   -3.4505 O   0  0  0  0  0  0  0  0  0  0  0  0
   54.7364   -5.5702    0.3013 O   0  0  0  0  0  0  0  0  0  0  0  0
   57.5214   -1.0549   -9.2021 N   0  0  0  0  0  0  0  0  0  0  0  0
   54.7859   -6.4090   -3.9669 O   0  0  0  0  0  0  0  0  0  0  0  0
   55.0472   -7.1245   -1.6094 O   0  0  0  0  0  0  0  0  0  0  0  0
   53.1440   -7.4746   -0.0288 O   0  0  0  0  0  0  0  0  0  0  0  0
   56.3904   -0.5534   -8.6547 C   0  0  2  0  0  0  0  0  0  0  0  0
   55.3487    0.0920   -9.3014 C   0  0  2  0  0  0  0  0  0  0  0  0
   55.4133    0.2839  -10.7032 C   0  0  1  0  0  0  0  0  0  0  0  0
   54.6067    0.8478  -11.4305 O   0  0  0  0  0  0  0  0  0  0  0  0
   54.3538    0.4667   -8.3920 N   0  0  0  0  0  0  0  0  0  0  0  0
   54.8480    0.0336   -7.2784 C   0  0  0  0  0  0  0  0  0  0  0  0
   56.0531   -0.5874   -7.3223 N   0  0  0  0  0  0  0  0  0  0  0  0
  1  5  1  6  0  0  0
  1 14  1  0  0  0  0
  1 19  2  0  0  0  0
  2 15  1  1  0  0  0
  2 20  2  0  0  0  0
  2 23  1  0  0  0  0
  3 16  1  6  0  0  0
  3 21  2  0  0  0  0
  3 24  1  0  0  0  0
  3 25  1  0  0  0  0
  4  6  1  0  0  0  0
  5  4  1  0  0  0  0
  6  7  1  0  0  0  0
  6  8  2  0  0  0  0
  7 12  1  0  0  0  0
  8  9  1  0  0  0  0
  8 10  1  0  0  0  0
 10 11  1  0  0  0  0
 10 12  2  0  0  0  0
 12 32  1  0  0  0  0
 13 17  1  0  0  0  0
 17 18  1  1  0  0  0
 17 22  1  0  0  0  0
 23  1  1  0  0  0  0
 24  2  1  0  0  0  0
 26 22  1  1  0  0  0
 27 26  1  0  0  0  0
 27 28  1  0  0  0  0
 27 30  1  1  0  0  0
 28 13  1  0  0  0  0
 28 29  1  1  0  0  0
 31 30  1  0  0  0  0
 32 26  1  0  0  0  0
 32 31  1  0  0  0  0
M  CHG  3  14  -1  15  -1  16  -1
M  END
>  <CHROM.1>
-118.05383239,-106.53780987,-31.96164982,-132.81317391,-112.11345192,-36.45946577
179.06168051,-31.04789897,55.49842274,-3.98214077,-5.46585957,-2.39753170
1.31241075,-0.02416728

>  <Name>
2au4_lig

>  <RI>
0

>  <Rbt.Current_Directory>
/home/afrankz/demos/rdock_decoys_rna/rnas/2au4

>  <Rbt.Executable>
rbdock ($Id: //depot/dev/client3/rdock/2013.1/src/exe/rbdock.cxx#4 $)

>  <Rbt.Library>
libRbt.so (2013.1, Build901 2013/11/27)

>  <Rbt.Parameter_File>
/export/apps/rDock/src/rDock_2013.1_src/data/scripts/dock_solv.prm

>  <Rbt.Receptor>
prm/blind_docking_60.prm

>  <SCORE>
-15.6511

>  <SCORE.INTER>
-6.29835

>  <SCORE.INTER.CONST>
1

>  <SCORE.INTER.POLAR>
-0.864288

>  <SCORE.INTER.ROT>
8

>  <SCORE.INTER.SOLV>
24.2609

>  <SCORE.INTER.VDW>
-18.3382

>  <SCORE.INTER.norm>
-0.196823

>  <SCORE.INTRA>
-19.1053

>  <SCORE.INTRA.DIHEDRAL>
-38.267

>  <SCORE.INTRA.DIHEDRAL.0>
76.3625

>  <SCORE.INTRA.POLAR>
0

>  <SCORE.INTRA.POLAR.0>
0

>  <SCORE.INTRA.REPUL>
0.0361428

>  <SCORE.INTRA.REPUL.0>
0.12705

>  <SCORE.INTRA.SOLV>
-5.171

>  <SCORE.INTRA.SOLV.lig_0>
-119.383

>  <SCORE.INTRA.VDW>
2.43296

>  <SCORE.INTRA.VDW.0>
-5.10464

>  <SCORE.INTRA.norm>
-0.597041

>  <SCORE.RESTR>
9.75251

>  <SCORE.RESTR.CAVITY>
9.75251

>  <SCORE.RESTR.norm>
0.304766

>  <SCORE.SYSTEM>
0

>  <SCORE.SYSTEM.CONST>
0

>  <SCORE.SYSTEM.DIHEDRAL>
0

>  <SCORE.SYSTEM.SOLV>
0

>  <SCORE.SYSTEM.norm>
0

>  <SCORE.heavy>
32

>  <SCORE.norm>
-0.489098

>  <RMSD>
19.700

$$$$
2au4_lig
 OpenBabel11021811423D
libRbt.so/2013.1/901 2013/11/27
 32 34  0  0  0  0  0  0  0  0999 V2000
   67.5348  -10.8852    1.6752 P   0  0  1  0  0  0  0  0  0  0  0  0
   66.6843   -8.3178    1.9091 P   0  0  1  0  0  0  0  0  0  0  0  0
   68.7712   -7.0991    3.1741 P   0  0  2  0  0  0  0  0  0  0  0  0
   65.3552  -12.1521    0.8536 C   0  0  0  0  0  0  0  0  0  0  0  0
   66.0560  -10.9114    1.0412 O   0  0  0  0  0  0  0  0  0  0  0  0
   65.1667  -12.9166    2.1557 C   0  0  0  0  0  0  0  0  0  0  0  0
   64.1730  -12.2754    2.9813 O   0  0  0  0  0  0  0  0  0  0  0  0
   64.7117  -14.3416    1.8824 C   0  0  0  0  0  0  0  0  0  0  0  0
   65.6922  -15.2866    2.3281 O   0  0  0  0  0  0  0  0  0  0  0  0
   63.4070  -14.5242    2.6204 C   0  0  0  0  0  0  0  0  0  0  0  0
   63.4915  -15.5983    3.5666 O   0  0  0  0  0  0  0  0  0  0  0  0
   63.1249  -13.2072    3.3226 C   0  0  0  0  0  0  0  0  0  0  0  0
   59.8085   -9.3470    3.7306 N   0  0  0  0  0  0  0  0  0  0  0  0
   67.6524  -11.9953    2.6419 O   0  5  0  0  0  0  0  0  0  0  0  0
   67.0493   -8.1399    0.4902 O   0  5  0  0  0  0  0  0  0  0  0  0
   69.0927   -5.7854    3.7675 O   0  5  0  0  0  0  0  0  0  0  0  0
   61.0540   -9.4903    4.2944 C   0  0  1  0  0  0  0  0  0  0  0  0
   61.4698   -8.4925    5.0627 N   0  0  0  0  0  0  0  0  0  0  0  0
   68.5165  -10.7511    0.5778 O   0  0  0  0  0  0  0  0  0  0  0  0
   65.2715   -8.5212    2.2912 O   0  0  0  0  0  0  0  0  0  0  0  0
   69.5668   -7.6125    2.0394 O   0  0  0  0  0  0  0  0  0  0  0  0
   61.8325  -10.5538    4.1108 N   0  0  0  0  0  0  0  0  0  0  0  0
   67.5324   -9.5245    2.4930 O   0  0  0  0  0  0  0  0  0  0  0  0
   67.2427   -7.0752    2.7272 O   0  0  0  0  0  0  0  0  0  0  0  0
   68.7805   -8.2009    4.3431 O   0  0  0  0  0  0  0  0  0  0  0  0
   61.2546  -11.4757    3.3065 C   0  0  2  0  0  0  0  0  0  0  0  0
   60.0106  -11.4115    2.6996 C   0  0  2  0  0  0  0  0  0  0  0  0
   59.1945  -10.2724    2.9059 C   0  0  1  0  0  0  0  0  0  0  0  0
   58.0698  -10.0560    2.4750 O   0  0  0  0  0  0  0  0  0  0  0  0
   59.7656  -12.5626    1.9432 N   0  0  0  0  0  0  0  0  0  0  0  0
   60.8534  -13.2339    2.1382 C   0  0  0  0  0  0  0  0  0  0  0  0
   61.8031  -12.6794    2.9321 N   0  0  0  0  0  0  0  0  0  0  0  0
  1  5  1  6  0  0  0
  1 14  1  0  0  0  0
  1 19  2  0  0  0  0
  2 15  1  6  0  0  0
  2 20  2  0  0  0  0
  2 23  1  0  0  0  0
  3 16  1  1  0  0  0
  3 21  2  0  0  0  0
  3 24  1  0  0  0  0
  3 25  1  0  0  0  0
  4  6  1  0  0  0  0
  5  4  1  0  0  0  0
  6  7  1  0  0  0  0
  6  8  2  0  0  0  0
  7 12  1  0  0  0  0
  8  9  1  0  0  0  0
  8 10  1  0  0  0  0
 10 11  1  0  0  0  0
 10 12  2  0  0  0  0
 12 32  1  0  0  0  0
 13 17  1  0  0  0  0
 17 18  1  1  0  0  0
 17 22  1  0  0  0  0
 23  1  1  0  0  0  0
 24  2  1  0  0  0  0
 26 22  1  1  0  0  0
 27 26  1  0  0  0  0
 27 28  1  0  0  0  0
 27 30  1  1  0  0  0
 28 13  1  0  0  0  0
 28 29  1  1  0  0  0
 31 30  1  0  0  0  0
 32 26  1  0  0  0  0
 32 31  1  0  0  0  0
M  CHG  3  14  -1  15  -1  16  -1
M  END
>  <CHROM.1>
-32.16966663,-50.31450583,173.32176320,72.70663083,58.73354041,-55.42264639
-33.24513130,-82.23216938,64.83864617,-10.49349589,2.58646388,-0.45850075
-0.15414961,-2.97047038

>  <Name>
2au4_lig

>  <RI>
0

>  <Rbt.Current_Directory>
/home/itssahil/PROJECTS/Mol_Feturizer/New_Systems/rnas/2au4

>  <Rbt.Executable>
rbdock ($Id: //depot/dev/client3/rdock/2013.1/src/exe/rbdock.cxx#4 $)

>  <Rbt.Library>
libRbt.so (2013.1, Build901 2013/11/27)

>  <Rbt.Parameter_File>
/export/apps/rDock/src/rDock_2013.1_src/data/scripts/dock_solv.prm

>  <Rbt.Receptor>
prm/blind_docking_100.prm

>  <SCORE>
-32.6252

>  <SCORE.INTER>
-15.8815

>  <SCORE.INTER.CONST>
1

>  <SCORE.INTER.POLAR>
-2.03843

>  <SCORE.INTER.ROT>
8

>  <SCORE.INTER.SOLV>
28.0155

>  <SCORE.INTER.VDW>
-22.0648

>  <SCORE.INTER.norm>
-0.496298

>  <SCORE.INTRA>
-18.9145

>  <SCORE.INTRA.DIHEDRAL>
-37.7849

>  <SCORE.INTRA.DIHEDRAL.0>
76.3625

>  <SCORE.INTRA.POLAR>
0

>  <SCORE.INTRA.POLAR.0>
0

>  <SCORE.INTRA.REPUL>
-0.080335

>  <SCORE.INTRA.REPUL.0>
0.12705

>  <SCORE.INTRA.SOLV>
-3.09264

>  <SCORE.INTRA.SOLV.lig_0>
-119.383

>  <SCORE.INTRA.VDW>
1.92593

>  <SCORE.INTRA.VDW.0>
-5.10464

>  <SCORE.INTRA.norm>
-0.591079

>  <SCORE.RESTR>
2.17086

>  <SCORE.RESTR.CAVITY>
2.17086

>  <SCORE.RESTR.norm>
0.0678393

>  <SCORE.SYSTEM>
0

>  <SCORE.SYSTEM.CONST>
0

>  <SCORE.SYSTEM.DIHEDRAL>
0

>  <SCORE.SYSTEM.SOLV>
0

>  <SCORE.SYSTEM.norm>
0

>  <SCORE.heavy>
32

>  <SCORE.norm>
-1.01954

>  <RMSD>
19.749

$$$$
2au4_lig
 OpenBabel11021811423D
libRbt.so/2013.1/901 2013/11/27
 32 34  0  0  0  0  0  0  0  0999 V2000
   57.3877   -2.1627   -6.0613 P   0  0  1  0  0  0  0  0  0  0  0  0
   55.3604   -0.3573   -6.0569 P   0  0  1  0  0  0  0  0  0  0  0  0
   54.8129   -0.0276   -8.7087 P   0  0  2  0  0  0  0  0  0  0  0  0
   56.2275   -4.4332   -5.3337 C   0  0  0  0  0  0  0  0  0  0  0  0
   56.1848   -3.2300   -6.1187 O   0  0  0  0  0  0  0  0  0  0  0  0
   57.2271   -5.4453   -5.8739 C   0  0  0  0  0  0  0  0  0  0  0  0
   57.0325   -6.7322   -5.2524 O   0  0  0  0  0  0  0  0  0  0  0  0
   57.0653   -5.6125   -7.3767 C   0  0  0  0  0  0  0  0  0  0  0  0
   58.2437   -5.1833   -8.0695 O   0  0  0  0  0  0  0  0  0  0  0  0
   56.7970   -7.0787   -7.6187 C   0  0  0  0  0  0  0  0  0  0  0  0
   57.7875   -7.6522   -8.4824 O   0  0  0  0  0  0  0  0  0  0  0  0
   56.8171   -7.7478   -6.2552 C   0  0  0  0  0  0  0  0  0  0  0  0
   53.2477   -9.0095   -2.8297 N   0  0  0  0  0  0  0  0  0  0  0  0
   57.6950   -1.8753   -4.6458 O   0  5  0  0  0  0  0  0  0  0  0  0
   54.4791   -1.5246   -5.8599 O   0  5  0  0  0  0  0  0  0  0  0  0
   53.7593   -1.0527   -8.8509 O   0  5  0  0  0  0  0  0  0  0  0  0
   54.3828   -8.2512   -2.6678 C   0  0  1  0  0  0  0  0  0  0  0  0
   54.6015   -7.7728   -1.4503 N   0  0  0  0  0  0  0  0  0  0  0  0
   58.4596   -2.6099   -6.9764 O   0  0  0  0  0  0  0  0  0  0  0  0
   55.6830    0.5284   -4.9189 O   0  0  0  0  0  0  0  0  0  0  0  0
   56.2201   -0.3674   -9.0061 O   0  0  0  0  0  0  0  0  0  0  0  0
   55.2445   -7.9888   -3.6473 N   0  0  0  0  0  0  0  0  0  0  0  0
   56.7237   -0.8648   -6.6895 O   0  0  0  0  0  0  0  0  0  0  0  0
   54.7511    0.5369   -7.2206 O   0  0  0  0  0  0  0  0  0  0  0  0
   54.4001    1.2511   -9.5891 O   0  0  0  0  0  0  0  0  0  0  0  0
   54.8730   -8.5557   -4.8183 C   0  0  2  0  0  0  0  0  0  0  0  0
   53.7514   -9.3299   -5.0679 C   0  0  2  0  0  0  0  0  0  0  0  0
   52.8446   -9.6000   -4.0139 C   0  0  1  0  0  0  0  0  0  0  0  0
   51.8257  -10.2771   -4.0436 O   0  0  0  0  0  0  0  0  0  0  0  0
   53.7146   -9.7365   -6.4060 N   0  0  0  0  0  0  0  0  0  0  0  0
   54.7934   -9.1940   -6.8686 C   0  0  0  0  0  0  0  0  0  0  0  0
   55.5544   -8.4713   -6.0094 N   0  0  0  0  0  0  0  0  0  0  0  0
  1  5  1  6  0  0  0
  1 14  1  0  0  0  0
  1 19  2  0  0  0  0
  2 15  1  1  0  0  0
  2 20  2  0  0  0  0
  2 23  1  0  0  0  0
  3 16  1  6  0  0  0
  3 21  2  0  0  0  0
  3 24  1  0  0  0  0
  3 25  1  0  0  0  0
  4  6  1  0  0  0  0
  5  4  1  0  0  0  0
  6  7  1  0  0  0  0
  6  8  2  0  0  0  0
  7 12  1  0  0  0  0
  8  9  1  0  0  0  0
  8 10  1  0  0  0  0
 10 11  1  0  0  0  0
 10 12  2  0  0  0  0
 12 32  1  0  0  0  0
 13 17  1  0  0  0  0
 17 18  1  1  0  0  0
 17 22  1  0  0  0  0
 23  1  1  0  0  0  0
 24  2  1  0  0  0  0
 26 22  1  1  0  0  0
 27 26  1  0  0  0  0
 27 28  1  0  0  0  0
 27 30  1  1  0  0  0
 28 13  1  0  0  0  0
 28 29  1  1  0  0  0
 31 30  1  0  0  0  0
 32 26  1  0  0  0  0
 32 31  1  0  0  0  0
M  CHG  3  14  -1  15  -1  16  -1
M  END
>  <CHROM.1>
-49.28373452,-45.02124024,76.82421388,-167.29393293,-72.85809930,-21.08994446
53.40863168,-70.48601753,55.60098984,-4.41260247,-6.16205607,-1.37969990
-0.79263145,2.96589296

>  <Name>
2au4_lig

>  <RI>
0

>  <Rbt.Current_Directory>
/home/afrankz/demos/rdock_decoys_rna/rnas/2au4

>  <Rbt.Executable>
rbdock ($Id: //depot/dev/client3/rdock/2013.1/src/exe/rbdock.cxx#4 $)

>  <Rbt.Library>
libRbt.so (2013.1, Build901 2013/11/27)

>  <Rbt.Parameter_File>
/export/apps/rDock/src/rDock_2013.1_src/data/scripts/dock_solv.prm

>  <Rbt.Receptor>
prm/blind_docking_60.prm

>  <SCORE>
-8.17881

>  <SCORE.INTER>
2.68812

>  <SCORE.INTER.CONST>
1

>  <SCORE.INTER.POLAR>
0

>  <SCORE.INTER.ROT>
8

>  <SCORE.INTER.SOLV>
32.0356

>  <SCORE.INTER.VDW>
-17.8198

>  <SCORE.INTER.norm>
0.0840037

>  <SCORE.INTRA>
-21.8453

>  <SCORE.INTRA.DIHEDRAL>
-47.3608

>  <SCORE.INTRA.DIHEDRAL.0>
76.3625

>  <SCORE.INTRA.POLAR>
0

>  <SCORE.INTRA.POLAR.0>
0

>  <SCORE.INTRA.REPUL>
0.0669256

>  <SCORE.INTRA.REPUL.0>
0.12705

>  <SCORE.INTRA.SOLV>
-1.26048

>  <SCORE.INTRA.SOLV.lig_0>
-119.383

>  <SCORE.INTRA.VDW>
2.13065

>  <SCORE.INTRA.VDW.0>
-5.10464

>  <SCORE.INTRA.norm>
-0.682667

>  <SCORE.RESTR>
10.9784

>  <SCORE.RESTR.CAVITY>
10.9784

>  <SCORE.RESTR.norm>
0.343076

>  <SCORE.SYSTEM>
0

>  <SCORE.SYSTEM.CONST>
0

>  <SCORE.SYSTEM.DIHEDRAL>
0

>  <SCORE.SYSTEM.SOLV>
0

>  <SCORE.SYSTEM.norm>
0

>  <SCORE.heavy>
32

>  <SCORE.norm>
-0.255588

>  <RMSD>
19.756

$$$$
2au4_lig
 OpenBabel11021811423D
libRbt.so/2013.1/901 2013/11/27
 32 34  0  0  0  0  0  0  0  0999 V2000
   56.3075   -7.5703   -5.6410 P   0  0  1  0  0  0  0  0  0  0  0  0
   54.7808   -8.1403   -3.4699 P   0  0  1  0  0  0  0  0  0  0  0  0
   54.0901   -7.0020   -1.0892 P   0  0  2  0  0  0  0  0  0  0  0  0
   55.1796   -5.3053   -6.4336 C   0  0  0  0  0  0  0  0  0  0  0  0
   55.7427   -6.0884   -5.3681 O   0  0  0  0  0  0  0  0  0  0  0  0
   56.2452   -4.6576   -7.3056 C   0  0  0  0  0  0  0  0  0  0  0  0
   55.8834   -3.2981   -7.6234 O   0  0  0  0  0  0  0  0  0  0  0  0
   57.5874   -4.6389   -6.5910 C   0  0  0  0  0  0  0  0  0  0  0  0
   58.5505   -5.4374   -7.2893 O   0  0  0  0  0  0  0  0  0  0  0  0
   58.0214   -3.1937   -6.5313 C   0  0  0  0  0  0  0  0  0  0  0  0
   59.2846   -3.0035   -7.1826 O   0  0  0  0  0  0  0  0  0  0  0  0
   56.9319   -2.3913   -7.2215 C   0  0  0  0  0  0  0  0  0  0  0  0
   53.3943    1.2257   -6.5365 N   0  0  0  0  0  0  0  0  0  0  0  0
   55.3851   -8.2635   -6.5627 O   0  5  0  0  0  0  0  0  0  0  0  0
   53.8025   -7.5569   -4.4084 O   0  5  0  0  0  0  0  0  0  0  0  0
   54.1986   -8.2761   -0.3501 O   0  5  0  0  0  0  0  0  0  0  0  0
   53.5794    0.3772   -7.6020 C   0  0  1  0  0  0  0  0  0  0  0  0
   52.7271    0.5049   -8.6102 N   0  0  0  0  0  0  0  0  0  0  0  0
   57.7467   -7.4745   -5.9661 O   0  0  0  0  0  0  0  0  0  0  0  0
   54.5003   -9.4360   -2.8172 O   0  0  0  0  0  0  0  0  0  0  0  0
   52.7747   -6.5432   -1.5824 O   0  0  0  0  0  0  0  0  0  0  0  0
   54.5473   -0.5339   -7.6642 N   0  0  0  0  0  0  0  0  0  0  0  0
   56.1769   -8.2544   -4.2144 O   0  0  0  0  0  0  0  0  0  0  0  0
   55.0813   -7.0705   -2.3340 O   0  0  0  0  0  0  0  0  0  0  0  0
   54.7323   -5.8362   -0.1897 O   0  0  0  0  0  0  0  0  0  0  0  0
   55.3264   -0.5260   -6.5581 C   0  0  2  0  0  0  0  0  0  0  0  0
   55.2106    0.2904   -5.4446 C   0  0  2  0  0  0  0  0  0  0  0  0
   54.1749    1.2553   -5.3948 C   0  0  1  0  0  0  0  0  0  0  0  0
   53.9373    2.0695   -4.5127 O   0  0  0  0  0  0  0  0  0  0  0  0
   56.2067   -0.0021   -4.5068 N   0  0  0  0  0  0  0  0  0  0  0  0
   56.8468   -0.9553   -5.1015 C   0  0  0  0  0  0  0  0  0  0  0  0
   56.4069   -1.3434   -6.3245 N   0  0  0  0  0  0  0  0  0  0  0  0
  1  5  1  1  0  0  0
  1 14  1  0  0  0  0
  1 19  2  0  0  0  0
  2 15  1  6  0  0  0
  2 20  2  0  0  0  0
  2 23  1  0  0  0  0
  3 16  1  1  0  0  0
  3 21  2  0  0  0  0
  3 24  1  0  0  0  0
  3 25  1  0  0  0  0
  4  6  1  0  0  0  0
  5  4  1  0  0  0  0
  6  7  1  0  0  0  0
  6  8  2  0  0  0  0
  7 12  1  0  0  0  0
  8  9  1  0  0  0  0
  8 10  1  0  0  0  0
 10 11  1  0  0  0  0
 10 12  2  0  0  0  0
 12 32  1  0  0  0  0
 13 17  1  0  0  0  0
 17 18  1  6  0  0  0
 17 22  1  0  0  0  0
 23  1  1  0  0  0  0
 24  2  1  0  0  0  0
 26 22  1  6  0  0  0
 27 26  1  0  0  0  0
 27 28  1  0  0  0  0
 27 30  1  6  0  0  0
 28 13  1  0  0  0  0
 28 29  1  6  0  0  0
 31 30  1  0  0  0  0
 32 26  1  0  0  0  0
 32 31  1  0  0  0  0
M  CHG  3  14  -1  15  -1  16  -1
M  END
>  <CHROM.1>
-40.82522844,8.50274363,65.06610612,-137.79630203,-79.28962992,-52.23755986
50.15071170,84.52174087,55.42304494,-4.47549305,-4.99475680,-1.60293018,0.92860396
-0.40631227

>  <Name>
2au4_lig

>  <RI>
0

>  <Rbt.Current_Directory>
/home/afrankz/demos/rdock_decoys_rna/rnas/2au4

>  <Rbt.Executable>
rbdock ($Id: //depot/dev/client3/rdock/2013.1/src/exe/rbdock.cxx#4 $)

>  <Rbt.Library>
libRbt.so (2013.1, Build901 2013/11/27)

>  <Rbt.Parameter_File>
/export/apps/rDock/src/rDock_2013.1_src/data/scripts/dock_solv.prm

>  <Rbt.Receptor>
prm/blind_docking_60.prm

>  <SCORE>
-21.6393

>  <SCORE.INTER>
-10.6755

>  <SCORE.INTER.CONST>
1

>  <SCORE.INTER.POLAR>
-0.52587

>  <SCORE.INTER.ROT>
8

>  <SCORE.INTER.SOLV>
27.9568

>  <SCORE.INTER.VDW>
-23.6164

>  <SCORE.INTER.norm>
-0.333609

>  <SCORE.INTRA>
-18.6816

>  <SCORE.INTRA.DIHEDRAL>
-38.8934

>  <SCORE.INTRA.DIHEDRAL.0>
76.3625

>  <SCORE.INTRA.POLAR>
0

>  <SCORE.INTRA.POLAR.0>
0

>  <SCORE.INTRA.REPUL>
-0.0626066

>  <SCORE.INTRA.REPUL.0>
0.12705

>  <SCORE.INTRA.SOLV>
-2.44621

>  <SCORE.INTRA.SOLV.lig_0>
-119.383

>  <SCORE.INTRA.VDW>
2.30122

>  <SCORE.INTRA.VDW.0>
-5.10464

>  <SCORE.INTRA.norm>
-0.5838

>  <SCORE.RESTR>
7.71775

>  <SCORE.RESTR.CAVITY>
7.71775

>  <SCORE.RESTR.norm>
0.24118

>  <SCORE.SYSTEM>
0

>  <SCORE.SYSTEM.CONST>
0

>  <SCORE.SYSTEM.DIHEDRAL>
0

>  <SCORE.SYSTEM.SOLV>
0

>  <SCORE.SYSTEM.norm>
0

>  <SCORE.heavy>
32

>  <SCORE.norm>
-0.676229

>  <RMSD>
19.760

$$$$
2au4_lig
 OpenBabel11021811423D
libRbt.so/2013.1/901 2013/11/27
 32 34  0  0  0  0  0  0  0  0999 V2000
   55.4553   -7.5125   -5.3668 P   0  0  1  0  0  0  0  0  0  0  0  0
   54.5628   -7.8265   -2.8224 P   0  0  1  0  0  0  0  0  0  0  0  0
   53.9213   -6.7739   -0.3890 P   0  0  2  0  0  0  0  0  0  0  0  0
   56.5840   -5.4517   -6.5956 C   0  0  0  0  0  0  0  0  0  0  0  0
   56.7341   -6.7230   -5.9421 O   0  0  0  0  0  0  0  0  0  0  0  0
   57.2997   -4.3299   -5.8575 C   0  0  0  0  0  0  0  0  0  0  0  0
   58.0431   -3.5084   -6.7809 O   0  0  0  0  0  0  0  0  0  0  0  0
   56.3026   -3.4438   -5.1275 C   0  0  0  0  0  0  0  0  0  0  0  0
   56.5027   -3.5074   -3.7102 O   0  0  0  0  0  0  0  0  0  0  0  0
   56.5174   -2.0410   -5.6436 C   0  0  0  0  0  0  0  0  0  0  0  0
   56.8579   -1.1425   -4.5792 O   0  0  0  0  0  0  0  0  0  0  0  0
   57.6439   -2.1267   -6.6589 C   0  0  0  0  0  0  0  0  0  0  0  0
   54.2508    0.7711   -9.1400 N   0  0  0  0  0  0  0  0  0  0  0  0
   54.2618   -6.6584   -5.5306 O   0  5  0  0  0  0  0  0  0  0  0  0
   53.3601   -7.2157   -3.4211 O   0  5  0  0  0  0  0  0  0  0  0  0
   54.0083   -7.9519    0.4976 O   0  5  0  0  0  0  0  0  0  0  0  0
   54.3307    0.4750   -7.8000 C   0  0  1  0  0  0  0  0  0  0  0  0
   53.3963    1.0072   -7.0236 N   0  0  0  0  0  0  0  0  0  0  0  0
   55.4640   -8.8865   -5.9129 O   0  0  0  0  0  0  0  0  0  0  0  0
   54.5503   -9.2483   -2.4202 O   0  0  0  0  0  0  0  0  0  0  0  0
   52.6296   -6.4068   -1.0061 O   0  0  0  0  0  0  0  0  0  0  0  0
   55.2721   -0.3000   -7.2673 N   0  0  0  0  0  0  0  0  0  0  0  0
   55.7797   -7.6049   -3.8156 O   0  0  0  0  0  0  0  0  0  0  0  0
   54.9857   -6.9602   -1.5590 O   0  0  0  0  0  0  0  0  0  0  0  0
   54.4883   -5.4974    0.4045 O   0  0  0  0  0  0  0  0  0  0  0  0
   56.1389   -0.7617   -8.1979 C   0  0  2  0  0  0  0  0  0  0  0  0
   56.1318   -0.5136   -9.5611 C   0  0  2  0  0  0  0  0  0  0  0  0
   55.1222    0.3132  -10.1119 C   0  0  1  0  0  0  0  0  0  0  0  0
   54.9463    0.6187  -11.2837 O   0  0  0  0  0  0  0  0  0  0  0  0
   57.1928   -1.1713  -10.1926 N   0  0  0  0  0  0  0  0  0  0  0  0
   57.7601   -1.7622   -9.1921 C   0  0  0  0  0  0  0  0  0  0  0  0
   57.2143   -1.5854   -7.9630 N   0  0  0  0  0  0  0  0  0  0  0  0
  1  5  1  6  0  0  0
  1 14  1  0  0  0  0
  1 19  2  0  0  0  0
  2 15  1  6  0  0  0
  2 20  2  0  0  0  0
  2 23  1  0  0  0  0
  3 16  1  1  0  0  0
  3 21  2  0  0  0  0
  3 24  1  0  0  0  0
  3 25  1  0  0  0  0
  4  6  1  0  0  0  0
  5  4  1  0  0  0  0
  6  7  1  0  0  0  0
  6  8  2  0  0  0  0
  7 12  1  0  0  0  0
  8  9  1  0  0  0  0
  8 10  1  0  0  0  0
 10 11  1  0  0  0  0
 10 12  2  0  0  0  0
 12 32  1  0  0  0  0
 13 17  1  0  0  0  0
 17 18  1  6  0  0  0
 17 22  1  0  0  0  0
 23  1  1  0  0  0  0
 24  2  1  0  0  0  0
 26 22  1  6  0  0  0
 27 26  1  0  0  0  0
 27 28  1  0  0  0  0
 27 30  1  6  0  0  0
 28 13  1  0  0  0  0
 28 29  1  6  0  0  0
 31 30  1  0  0  0  0
 32 26  1  0  0  0  0
 32 31  1  0  0  0  0
M  CHG  3  14  -1  15  -1  16  -1
M  END
>  <CHROM.1>
-5.05578741,-29.54244223,84.07112041,134.53120351,117.46450618,138.65124384
157.94897767,58.13006220,55.42347804,-4.35786498,-5.23112107,-1.93169545
1.14309147,-0.43840596

>  <Name>
2au4_lig

>  <RI>
0

>  <Rbt.Current_Directory>
/home/afrankz/demos/rdock_decoys_rna/rnas/2au4

>  <Rbt.Executable>
rbdock ($Id: //depot/dev/client3/rdock/2013.1/src/exe/rbdock.cxx#4 $)

>  <Rbt.Library>
libRbt.so (2013.1, Build901 2013/11/27)

>  <Rbt.Parameter_File>
/export/apps/rDock/src/rDock_2013.1_src/data/scripts/dock_solv.prm

>  <Rbt.Receptor>
prm/blind_docking_60.prm

>  <SCORE>
-18.6869

>  <SCORE.INTER>
-8.71475

>  <SCORE.INTER.CONST>
1

>  <SCORE.INTER.POLAR>
-0.87178

>  <SCORE.INTER.ROT>
8

>  <SCORE.INTER.SOLV>
22.1278

>  <SCORE.INTER.VDW>
-19.2132

>  <SCORE.INTER.norm>
-0.272336

>  <SCORE.INTRA>
-17.4407

>  <SCORE.INTRA.DIHEDRAL>
-37.0102

>  <SCORE.INTRA.DIHEDRAL.0>
76.3625

>  <SCORE.INTRA.POLAR>
0

>  <SCORE.INTRA.POLAR.0>
0

>  <SCORE.INTRA.REPUL>
-0.12705

>  <SCORE.INTRA.REPUL.0>
0.12705

>  <SCORE.INTRA.SOLV>
-3.74403

>  <SCORE.INTRA.SOLV.lig_0>
-119.383

>  <SCORE.INTRA.VDW>
3.57168

>  <SCORE.INTRA.VDW.0>
-5.10464

>  <SCORE.INTRA.norm>
-0.545021

>  <SCORE.RESTR>
7.46852

>  <SCORE.RESTR.CAVITY>
7.46852

>  <SCORE.RESTR.norm>
0.233391

>  <SCORE.SYSTEM>
0

>  <SCORE.SYSTEM.CONST>
0

>  <SCORE.SYSTEM.DIHEDRAL>
0

>  <SCORE.SYSTEM.SOLV>
0

>  <SCORE.SYSTEM.norm>
0

>  <SCORE.heavy>
32

>  <SCORE.norm>
-0.583966

>  <RMSD>
19.800

$$$$
2au4_lig
 OpenBabel11021811423D
libRbt.so/2013.1/901 2013/11/27
 32 34  0  0  0  0  0  0  0  0999 V2000
   57.3048   -2.7647   -5.7272 P   0  0  1  0  0  0  0  0  0  0  0  0
   56.2173   -1.8848   -8.0538 P   0  0  1  0  0  0  0  0  0  0  0  0
   54.3180   -0.0024   -7.5153 P   0  0  2  0  0  0  0  0  0  0  0  0
   57.0545   -4.9568   -7.1977 C   0  0  0  0  0  0  0  0  0  0  0  0
   56.7506   -4.2538   -5.9815 O   0  0  0  0  0  0  0  0  0  0  0  0
   57.0450   -6.4674   -7.0146 C   0  0  0  0  0  0  0  0  0  0  0  0
   57.0679   -6.8089   -5.6135 O   0  0  0  0  0  0  0  0  0  0  0  0
   55.7968   -7.0770   -7.6333 C   0  0  0  0  0  0  0  0  0  0  0  0
   56.1366   -7.9506   -8.7169 O   0  0  0  0  0  0  0  0  0  0  0  0
   55.0945   -7.8300   -6.5287 C   0  0  0  0  0  0  0  0  0  0  0  0
   54.9474   -9.2177   -6.8584 O   0  0  0  0  0  0  0  0  0  0  0  0
   55.9485   -7.6585   -5.2843 C   0  0  0  0  0  0  0  0  0  0  0  0
   53.7084   -8.5023   -0.7747 N   0  0  0  0  0  0  0  0  0  0  0  0
   57.2238   -2.4725   -4.2820 O   0  5  0  0  0  0  0  0  0  0  0  0
   57.6160   -1.8534   -8.5235 O   0  5  0  0  0  0  0  0  0  0  0  0
   54.8559    0.4258   -6.2081 O   0  5  0  0  0  0  0  0  0  0  0  0
   54.4198   -9.3681   -1.5710 C   0  0  1  0  0  0  0  0  0  0  0  0
   54.5501  -10.6087   -1.1205 N   0  0  0  0  0  0  0  0  0  0  0  0
   58.5889   -2.6101   -6.4437 O   0  0  0  0  0  0  0  0  0  0  0  0
   55.3104   -2.9641   -8.4970 O   0  0  0  0  0  0  0  0  0  0  0  0
   53.2655   -1.0379   -7.5783 O   0  0  0  0  0  0  0  0  0  0  0  0
   54.9620   -9.0264   -2.7372 N   0  0  0  0  0  0  0  0  0  0  0  0
   56.2250   -1.8667   -6.4676 O   0  0  0  0  0  0  0  0  0  0  0  0
   55.5396   -0.4929   -8.4119 O   0  0  0  0  0  0  0  0  0  0  0  0
   53.8012    1.2986   -8.3032 O   0  0  0  0  0  0  0  0  0  0  0  0
   54.7303   -7.7298   -3.0465 C   0  0  2  0  0  0  0  0  0  0  0  0
   54.0280   -6.7932   -2.3054 C   0  0  2  0  0  0  0  0  0  0  0  0
   53.4568   -7.1737   -1.0663 C   0  0  1  0  0  0  0  0  0  0  0  0
   52.7899   -6.4947   -0.2971 O   0  0  0  0  0  0  0  0  0  0  0  0
   54.0043   -5.5567   -2.9592 N   0  0  0  0  0  0  0  0  0  0  0  0
   54.6787   -5.8202   -4.0306 C   0  0  0  0  0  0  0  0  0  0  0  0
   55.1553   -7.0811   -4.1817 N   0  0  0  0  0  0  0  0  0  0  0  0
  1  5  1  6  0  0  0
  1 14  1  0  0  0  0
  1 19  2  0  0  0  0
  2 15  1  6  0  0  0
  2 20  2  0  0  0  0
  2 23  1  0  0  0  0
  3 16  1  1  0  0  0
  3 21  2  0  0  0  0
  3 24  1  0  0  0  0
  3 25  1  0  0  0  0
  4  6  1  0  0  0  0
  5  4  1  0  0  0  0
  6  7  1  0  0  0  0
  6  8  2  0  0  0  0
  7 12  1  0  0  0  0
  8  9  1  0  0  0  0
  8 10  1  0  0  0  0
 10 11  1  0  0  0  0
 10 12  2  0  0  0  0
 12 32  1  0  0  0  0
 13 17  1  0  0  0  0
 17 18  1  6  0  0  0
 17 22  1  0  0  0  0
 23  1  1  0  0  0  0
 24  2  1  0  0  0  0
 26 22  1  6  0  0  0
 27 26  1  0  0  0  0
 27 28  1  0  0  0  0
 27 30  1  6  0  0  0
 28 13  1  0  0  0  0
 28 29  1  6  0  0  0
 31 30  1  0  0  0  0
 32 26  1  0  0  0  0
 32 31  1  0  0  0  0
M  CHG  3  14  -1  15  -1  16  -1
M  END
>  <CHROM.1>
-161.84507322,-41.60719616,72.98873964,-14.48768920,152.84041815,-131.12333409
-71.81563103,-153.80721239,55.46654160,-4.58198112,-5.58847897,1.31721122
1.06079827,-0.36913096

>  <Name>
2au4_lig

>  <RI>
0

>  <Rbt.Current_Directory>
/home/afrankz/demos/rdock_decoys_rna/rnas/2au4

>  <Rbt.Executable>
rbdock ($Id: //depot/dev/client3/rdock/2013.1/src/exe/rbdock.cxx#4 $)

>  <Rbt.Library>
libRbt.so (2013.1, Build901 2013/11/27)

>  <Rbt.Parameter_File>
/export/apps/rDock/src/rDock_2013.1_src/data/scripts/dock_solv.prm

>  <Rbt.Receptor>
prm/blind_docking_60.prm

>  <SCORE>
13.233

>  <SCORE.INTER>
1.27562

>  <SCORE.INTER.CONST>
1

>  <SCORE.INTER.POLAR>
0

>  <SCORE.INTER.ROT>
8

>  <SCORE.INTER.SOLV>
26.5295

>  <SCORE.INTER.VDW>
-16.9261

>  <SCORE.INTER.norm>
0.0398632

>  <SCORE.INTRA>
0.130596

>  <SCORE.INTRA.DIHEDRAL>
0.964575

>  <SCORE.INTRA.DIHEDRAL.0>
76.3625

>  <SCORE.INTRA.POLAR>
0

>  <SCORE.INTRA.POLAR.0>
0

>  <SCORE.INTRA.REPUL>
-0.12705

>  <SCORE.INTRA.REPUL.0>
0.12705

>  <SCORE.INTRA.SOLV>
-3.35284

>  <SCORE.INTRA.SOLV.lig_0>
-119.383

>  <SCORE.INTRA.VDW>
1.95997

>  <SCORE.INTRA.VDW.0>
-5.10464

>  <SCORE.INTRA.norm>
0.00408114

>  <SCORE.RESTR>
11.8268

>  <SCORE.RESTR.CAVITY>
11.8268

>  <SCORE.RESTR.norm>
0.369588

>  <SCORE.SYSTEM>
0

>  <SCORE.SYSTEM.CONST>
0

>  <SCORE.SYSTEM.DIHEDRAL>
0

>  <SCORE.SYSTEM.SOLV>
0

>  <SCORE.SYSTEM.norm>
0

>  <SCORE.heavy>
32

>  <SCORE.norm>
0.413532

>  <RMSD>
19.802

$$$$
2au4_lig
 OpenBabel11021811423D
libRbt.so/2013.1/901 2013/11/27
 32 34  0  0  0  0  0  0  0  0999 V2000
   57.0890   -3.6991   -6.1145 P   0  0  1  0  0  0  0  0  0  0  0  0
   56.5034   -1.8310   -7.9950 P   0  0  1  0  0  0  0  0  0  0  0  0
   54.9512   -0.1572   -6.5018 P   0  0  2  0  0  0  0  0  0  0  0  0
   56.9152   -6.2675   -6.7498 C   0  0  0  0  0  0  0  0  0  0  0  0
   56.5469   -5.1941   -5.8679 O   0  0  0  0  0  0  0  0  0  0  0  0
   56.6137   -7.6365   -6.1576 C   0  0  0  0  0  0  0  0  0  0  0  0
   56.6325   -7.5813   -4.7165 O   0  0  0  0  0  0  0  0  0  0  0  0
   55.2420   -8.1234   -6.5980 C   0  0  0  0  0  0  0  0  0  0  0  0
   55.3511   -9.3089   -7.3952 O   0  0  0  0  0  0  0  0  0  0  0  0
   54.4555   -8.3880   -5.3364 C   0  0  0  0  0  0  0  0  0  0  0  0
   54.0201   -9.7528   -5.2726 O   0  0  0  0  0  0  0  0  0  0  0  0
   55.3828   -8.0625   -4.1782 C   0  0  0  0  0  0  0  0  0  0  0  0
   53.5194   -7.0953    0.4757 N   0  0  0  0  0  0  0  0  0  0  0  0
   56.8808   -2.9134   -4.8816 O   0  5  0  0  0  0  0  0  0  0  0  0
   57.9195   -1.9544   -8.3918 O   0  5  0  0  0  0  0  0  0  0  0  0
   55.1159    0.8990   -5.4826 O   0  5  0  0  0  0  0  0  0  0  0  0
   54.0476   -8.2603   -0.0277 C   0  0  1  0  0  0  0  0  0  0  0  0
   54.0826   -9.2958    0.8003 N   0  0  0  0  0  0  0  0  0  0  0  0
   58.4337   -3.7792   -6.7241 O   0  0  0  0  0  0  0  0  0  0  0  0
   55.4696   -1.5526   -9.0136 O   0  0  0  0  0  0  0  0  0  0  0  0
   54.0724   -1.3143   -6.2321 O   0  0  0  0  0  0  0  0  0  0  0  0
   54.5066   -8.3896   -1.2700 N   0  0  0  0  0  0  0  0  0  0  0  0
   56.0881   -3.1499   -7.2176 O   0  0  0  0  0  0  0  0  0  0  0  0
   56.3969   -0.7169   -6.8669 O   0  0  0  0  0  0  0  0  0  0  0  0
   54.4813    0.5307   -7.8754 O   0  0  0  0  0  0  0  0  0  0  0  0
   54.3915   -7.2423   -1.9779 C   0  0  2  0  0  0  0  0  0  0  0  0
   53.8747   -6.0299   -1.5504 C   0  0  2  0  0  0  0  0  0  0  0  0
   53.3900   -5.9095   -0.2249 C   0  0  1  0  0  0  0  0  0  0  0  0
   52.8823   -4.9343    0.3124 O   0  0  0  0  0  0  0  0  0  0  0  0
   53.9246   -5.0783   -2.5746 N   0  0  0  0  0  0  0  0  0  0  0  0
   54.4561   -5.7624   -3.5345 C   0  0  0  0  0  0  0  0  0  0  0  0
   54.7718   -7.0579   -3.2861 N   0  0  0  0  0  0  0  0  0  0  0  0
  1  5  1  1  0  0  0
  1 14  1  0  0  0  0
  1 19  2  0  0  0  0
  2 15  1  6  0  0  0
  2 20  2  0  0  0  0
  2 23  1  0  0  0  0
  3 16  1  1  0  0  0
  3 21  2  0  0  0  0
  3 24  1  0  0  0  0
  3 25  1  0  0  0  0
  4  6  1  0  0  0  0
  5  4  1  0  0  0  0
  6  7  1  0  0  0  0
  6  8  2  0  0  0  0
  7 12  1  0  0  0  0
  8  9  1  0  0  0  0
  8 10  1  0  0  0  0
 10 11  1  0  0  0  0
 10 12  2  0  0  0  0
 12 32  1  0  0  0  0
 13 17  1  0  0  0  0
 17 18  1  6  0  0  0
 17 22  1  0  0  0  0
 23  1  1  0  0  0  0
 24  2  1  0  0  0  0
 26 22  1  6  0  0  0
 27 26  1  0  0  0  0
 27 28  1  0  0  0  0
 27 30  1  6  0  0  0
 28 13  1  0  0  0  0
 28 29  1  6  0  0  0
 31 30  1  0  0  0  0
 32 26  1  0  0  0  0
 32 31  1  0  0  0  0
M  CHG  3  14  -1  15  -1  16  -1
M  END
>  <CHROM.1>
-164.06888730,45.27888814,-177.48791270,-26.67759002,164.97310626,-124.65478713
-164.97777276,166.38357112,55.38690969,-4.69337087,-4.95291142,-1.05250627
-1.14654952,2.92589622

>  <Name>
2au4_lig

>  <RI>
0

>  <Rbt.Current_Directory>
/home/afrankz/demos/rdock_decoys_rna/rnas/2au4

>  <Rbt.Executable>
rbdock ($Id: //depot/dev/client3/rdock/2013.1/src/exe/rbdock.cxx#4 $)

>  <Rbt.Library>
libRbt.so (2013.1, Build901 2013/11/27)

>  <Rbt.Parameter_File>
/export/apps/rDock/src/rDock_2013.1_src/data/scripts/dock_solv.prm

>  <Rbt.Receptor>
prm/blind_docking_60.prm

>  <SCORE>
8.49523

>  <SCORE.INTER>
-1.32826

>  <SCORE.INTER.CONST>
1

>  <SCORE.INTER.POLAR>
0

>  <SCORE.INTER.ROT>
8

>  <SCORE.INTER.SOLV>
27.9143

>  <SCORE.INTER.VDW>
-19.1236

>  <SCORE.INTER.norm>
-0.0415081

>  <SCORE.INTRA>
-1.62889

>  <SCORE.INTRA.DIHEDRAL>
-0.182172

>  <SCORE.INTRA.DIHEDRAL.0>
76.3625

>  <SCORE.INTRA.POLAR>
0

>  <SCORE.INTRA.POLAR.0>
0

>  <SCORE.INTRA.REPUL>
-0.12705

>  <SCORE.INTRA.REPUL.0>
0.12705

>  <SCORE.INTRA.SOLV>
-3.99086

>  <SCORE.INTRA.SOLV.lig_0>
-119.383

>  <SCORE.INTRA.VDW>
1.09288

>  <SCORE.INTRA.VDW.0>
-5.10464

>  <SCORE.INTRA.norm>
-0.0509027

>  <SCORE.RESTR>
11.4524

>  <SCORE.RESTR.CAVITY>
11.4524

>  <SCORE.RESTR.norm>
0.357887

>  <SCORE.SYSTEM>
0

>  <SCORE.SYSTEM.CONST>
0

>  <SCORE.SYSTEM.DIHEDRAL>
0

>  <SCORE.SYSTEM.SOLV>
0

>  <SCORE.SYSTEM.norm>
0

>  <SCORE.heavy>
32

>  <SCORE.norm>
0.265476

>  <RMSD>
19.824

$$$$
2au4_lig
 OpenBabel11021811423D
libRbt.so/2013.1/901 2013/11/27
 32 34  0  0  0  0  0  0  0  0999 V2000
   57.5105   -6.7941   -6.1140 P   0  0  1  0  0  0  0  0  0  0  0  0
   54.9467   -7.5712   -5.6755 P   0  0  1  0  0  0  0  0  0  0  0  0
   54.4870   -8.1455   -3.0488 P   0  0  2  0  0  0  0  0  0  0  0  0
   56.6890   -4.2739   -6.0489 C   0  0  0  0  0  0  0  0  0  0  0  0
   57.7037   -5.2247   -6.4123 O   0  0  0  0  0  0  0  0  0  0  0  0
   57.2701   -3.0094   -5.4334 C   0  0  0  0  0  0  0  0  0  0  0  0
   57.4972   -2.0094   -6.4477 O   0  0  0  0  0  0  0  0  0  0  0  0
   56.3205   -2.4295   -4.3968 C   0  0  0  0  0  0  0  0  0  0  0  0
   56.9112   -2.4522   -3.0917 O   0  0  0  0  0  0  0  0  0  0  0  0
   56.0213   -1.0151   -4.8329 C   0  0  0  0  0  0  0  0  0  0  0  0
   56.4009   -0.0695   -3.8240 O   0  0  0  0  0  0  0  0  0  0  0  0
   56.8092   -0.7861   -6.1112 C   0  0  0  0  0  0  0  0  0  0  0  0
   56.2010   -0.3600  -11.1624 N   0  0  0  0  0  0  0  0  0  0  0  0
   57.1420   -7.4709   -7.3737 O   0  5  0  0  0  0  0  0  0  0  0  0
   54.3434   -6.7795   -6.7651 O   0  5  0  0  0  0  0  0  0  0  0  0
   55.1826   -7.0941   -2.2794 O   0  5  0  0  0  0  0  0  0  0  0  0
   57.2732   -0.8428  -10.4505 C   0  0  1  0  0  0  0  0  0  0  0  0
   58.3120   -1.2591  -11.1623 N   0  0  0  0  0  0  0  0  0  0  0  0
   58.6682   -7.2711   -5.3276 O   0  0  0  0  0  0  0  0  0  0  0  0
   55.3070   -8.9867   -5.8993 O   0  0  0  0  0  0  0  0  0  0  0  0
   55.1841   -9.4074   -3.3738 O   0  0  0  0  0  0  0  0  0  0  0  0
   57.3131   -0.9046   -9.1218 N   0  0  0  0  0  0  0  0  0  0  0  0
   56.2393   -6.8077   -5.1631 O   0  0  0  0  0  0  0  0  0  0  0  0
   53.9817   -7.5012   -4.4149 O   0  0  0  0  0  0  0  0  0  0  0  0
   53.1130   -8.5012   -2.2963 O   0  0  0  0  0  0  0  0  0  0  0  0
   56.1770   -0.4366   -8.5555 C   0  0  2  0  0  0  0  0  0  0  0  0
   55.0546    0.0648   -9.1948 C   0  0  2  0  0  0  0  0  0  0  0  0
   55.0288    0.1240  -10.6097 C   0  0  1  0  0  0  0  0  0  0  0  0
   54.1425    0.5539  -11.3358 O   0  0  0  0  0  0  0  0  0  0  0  0
   54.0834    0.4520   -8.2653 N   0  0  0  0  0  0  0  0  0  0  0  0
   54.6691    0.1666   -7.1484 C   0  0  0  0  0  0  0  0  0  0  0  0
   55.9152   -0.3657   -7.2077 N   0  0  0  0  0  0  0  0  0  0  0  0
  1  5  1  6  0  0  0
  1 14  1  0  0  0  0
  1 19  2  0  0  0  0
  2 15  1  6  0  0  0
  2 20  2  0  0  0  0
  2 23  1  0  0  0  0
  3 16  1  1  0  0  0
  3 21  2  0  0  0  0
  3 24  1  0  0  0  0
  3 25  1  0  0  0  0
  4  6  1  0  0  0  0
  5  4  1  0  0  0  0
  6  7  1  0  0  0  0
  6  8  2  0  0  0  0
  7 12  1  0  0  0  0
  8  9  1  0  0  0  0
  8 10  1  0  0  0  0
 10 11  1  0  0  0  0
 10 12  2  0  0  0  0
 12 32  1  0  0  0  0
 13 17  1  0  0  0  0
 17 18  1  1  0  0  0
 17 22  1  0  0  0  0
 23  1  1  0  0  0  0
 24  2  1  0  0  0  0
 26 22  1  1  0  0  0
 27 26  1  0  0  0  0
 27 28  1  0  0  0  0
 27 30  1  1  0  0  0
 28 13  1  0  0  0  0
 28 29  1  1  0  0  0
 31 30  1  0  0  0  0
 32 26  1  0  0  0  0
 32 31  1  0  0  0  0
M  CHG  3  14  -1  15  -1  16  -1
M  END
>  <CHROM.1>
102.71345301,-71.67295005,90.93549001,92.32391318,137.54715899,-39.61039358
118.09660382,-173.37317796,55.94550482,-4.18244972,-6.29119929,-2.04185945
1.39797572,-0.09461448

>  <Name>
2au4_lig

>  <RI>
0

>  <Rbt.Current_Directory>
/home/afrankz/demos/rdock_decoys_rna/rnas/2au4

>  <Rbt.Executable>
rbdock ($Id: //depot/dev/client3/rdock/2013.1/src/exe/rbdock.cxx#4 $)

>  <Rbt.Library>
libRbt.so (2013.1, Build901 2013/11/27)

>  <Rbt.Parameter_File>
/export/apps/rDock/src/rDock_2013.1_src/data/scripts/dock_solv.prm

>  <Rbt.Receptor>
prm/blind_docking_60.prm

>  <SCORE>
-14.8466

>  <SCORE.INTER>
-5.06138

>  <SCORE.INTER.CONST>
1

>  <SCORE.INTER.POLAR>
-0.691957

>  <SCORE.INTER.ROT>
8

>  <SCORE.INTER.SOLV>
33.773

>  <SCORE.INTER.VDW>
-21.2587

>  <SCORE.INTER.norm>
-0.158168

>  <SCORE.INTRA>
-18.972

>  <SCORE.INTRA.DIHEDRAL>
-38.5389

>  <SCORE.INTRA.DIHEDRAL.0>
76.3625

>  <SCORE.INTRA.POLAR>
0

>  <SCORE.INTRA.POLAR.0>
0

>  <SCORE.INTRA.REPUL>
0.0178361

>  <SCORE.INTRA.REPUL.0>
0.12705

>  <SCORE.INTRA.SOLV>
-4.95928

>  <SCORE.INTRA.SOLV.lig_0>
-119.383

>  <SCORE.INTRA.VDW>
2.6879

>  <SCORE.INTRA.VDW.0>
-5.10464

>  <SCORE.INTRA.norm>
-0.592876

>  <SCORE.RESTR>
9.18679

>  <SCORE.RESTR.CAVITY>
9.18679

>  <SCORE.RESTR.norm>
0.287087

>  <SCORE.SYSTEM>
0

>  <SCORE.SYSTEM.CONST>
0

>  <SCORE.SYSTEM.DIHEDRAL>
0

>  <SCORE.SYSTEM.SOLV>
0

>  <SCORE.SYSTEM.norm>
0

>  <SCORE.heavy>
32

>  <SCORE.norm>
-0.463957

>  <RMSD>
19.855

$$$$
2au4_lig
 OpenBabel11021811423D
libRbt.so/2013.1/901 2013/11/27
 32 34  0  0  0  0  0  0  0  0999 V2000
   66.1559  -11.9255    1.6059 P   0  0  1  0  0  0  0  0  0  0  0  0
   65.4665   -9.4614    2.5127 P   0  0  1  0  0  0  0  0  0  0  0  0
   66.1608   -7.3203    0.9717 P   0  0  2  0  0  0  0  0  0  0  0  0
   64.1663  -12.7153    0.0411 C   0  0  0  0  0  0  0  0  0  0  0  0
   65.0479  -12.9959    1.1411 O   0  0  0  0  0  0  0  0  0  0  0  0
   62.7191  -13.0697    0.3503 C   0  0  0  0  0  0  0  0  0  0  0  0
   62.6411  -13.9088    1.5208 O   0  0  0  0  0  0  0  0  0  0  0  0
   61.9007  -11.8143    0.6084 C   0  0  0  0  0  0  0  0  0  0  0  0
   60.8780  -11.6570   -0.3827 O   0  0  0  0  0  0  0  0  0  0  0  0
   61.3023  -11.9683    1.9863 C   0  0  0  0  0  0  0  0  0  0  0  0
   59.8703  -11.9097    1.9400 O   0  0  0  0  0  0  0  0  0  0  0  0
   61.7709  -13.3157    2.5078 C   0  0  0  0  0  0  0  0  0  0  0  0
   62.4585  -10.3917    6.6363 N   0  0  0  0  0  0  0  0  0  0  0  0
   66.3659  -12.0668    3.0608 O   0  5  0  0  0  0  0  0  0  0  0  0
   64.4182   -9.7964    3.4959 O   0  5  0  0  0  0  0  0  0  0  0  0
   65.4867   -6.4387   -0.0027 O   0  5  0  0  0  0  0  0  0  0  0  0
   61.6548  -10.1800    5.5414 C   0  0  1  0  0  0  0  0  0  0  0  0
   60.9513   -9.0557    5.5372 N   0  0  0  0  0  0  0  0  0  0  0  0
   67.3060  -12.0043    0.6800 O   0  0  0  0  0  0  0  0  0  0  0  0
   66.8707   -9.3118    2.9481 O   0  0  0  0  0  0  0  0  0  0  0  0
   67.1773   -8.2896    0.5121 O   0  0  0  0  0  0  0  0  0  0  0  0
   61.5588  -11.0253    4.5181 N   0  0  0  0  0  0  0  0  0  0  0  0
   65.4221  -10.5410    1.3513 O   0  0  0  0  0  0  0  0  0  0  0  0
   65.0382   -8.1281    1.7617 O   0  0  0  0  0  0  0  0  0  0  0  0
   66.8116   -6.4049    2.1202 O   0  0  0  0  0  0  0  0  0  0  0  0
   62.3443  -12.1147    4.6817 C   0  0  2  0  0  0  0  0  0  0  0  0
   63.1798  -12.4059    5.7479 C   0  0  2  0  0  0  0  0  0  0  0  0
   63.2706  -11.4950    6.8288 C   0  0  1  0  0  0  0  0  0  0  0  0
   63.9668  -11.5739    7.8321 O   0  0  0  0  0  0  0  0  0  0  0  0
   63.8307  -13.6285    5.5513 N   0  0  0  0  0  0  0  0  0  0  0  0
   63.3574  -13.9892    4.4033 C   0  0  0  0  0  0  0  0  0  0  0  0
   62.4673  -13.1624    3.8000 N   0  0  0  0  0  0  0  0  0  0  0  0
  1  5  1  6  0  0  0
  1 14  1  0  0  0  0
  1 19  2  0  0  0  0
  2 15  1  1  0  0  0
  2 20  2  0  0  0  0
  2 23  1  0  0  0  0
  3 16  1  6  0  0  0
  3 21  2  0  0  0  0
  3 24  1  0  0  0  0
  3 25  1  0  0  0  0
  4  6  1  0  0  0  0
  5  4  1  0  0  0  0
  6  7  1  0  0  0  0
  6  8  2  0  0  0  0
  7 12  1  0  0  0  0
  8  9  1  0  0  0  0
  8 10  1  0  0  0  0
 10 11  1  0  0  0  0
 10 12  2  0  0  0  0
 12 32  1  0  0  0  0
 13 17  1  0  0  0  0
 17 18  1  6  0  0  0
 17 22  1  0  0  0  0
 23  1  1  0  0  0  0
 24  2  1  0  0  0  0
 26 22  1  6  0  0  0
 27 26  1  0  0  0  0
 27 28  1  0  0  0  0
 27 30  1  6  0  0  0
 28 13  1  0  0  0  0
 28 29  1  6  0  0  0
 31 30  1  0  0  0  0
 32 26  1  0  0  0  0
 32 31  1  0  0  0  0
M  CHG  3  14  -1  15  -1  16  -1
M  END
>  <CHROM.1>
148.86484949,-81.69149836,160.35637364,-14.85634452,-134.39957811,142.28528058
132.40737401,162.37647252,64.11432345,-10.85213737,2.70760705,0.22838769
-0.87344009,-1.98142592

>  <Name>
2au4_lig

>  <RI>
0

>  <Rbt.Current_Directory>
/home/itssahil/PROJECTS/Mol_Feturizer/New_Systems/rnas/2au4

>  <Rbt.Executable>
rbdock ($Id: //depot/dev/client3/rdock/2013.1/src/exe/rbdock.cxx#4 $)

>  <Rbt.Library>
libRbt.so (2013.1, Build901 2013/11/27)

>  <Rbt.Parameter_File>
/export/apps/rDock/src/rDock_2013.1_src/data/scripts/dock_solv.prm

>  <Rbt.Receptor>
prm/blind_docking_100.prm

>  <SCORE>
-45.5149

>  <SCORE.INTER>
-25.9551

>  <SCORE.INTER.CONST>
1

>  <SCORE.INTER.POLAR>
-3.05396

>  <SCORE.INTER.ROT>
8

>  <SCORE.INTER.SOLV>
25.7876

>  <SCORE.INTER.VDW>
-24.6528

>  <SCORE.INTER.norm>
-0.811098

>  <SCORE.INTRA>
-19.5598

>  <SCORE.INTRA.DIHEDRAL>
-39.151

>  <SCORE.INTRA.DIHEDRAL.0>
76.3625

>  <SCORE.INTRA.POLAR>
0

>  <SCORE.INTRA.POLAR.0>
0

>  <SCORE.INTRA.REPUL>
-0.12705

>  <SCORE.INTRA.REPUL.0>
0.12705

>  <SCORE.INTRA.SOLV>
0.71042

>  <SCORE.INTRA.SOLV.lig_0>
-119.383

>  <SCORE.INTRA.VDW>
0.295789

>  <SCORE.INTRA.VDW.0>
-5.10464

>  <SCORE.INTRA.norm>
-0.611243

>  <SCORE.RESTR>
0

>  <SCORE.RESTR.CAVITY>
0

>  <SCORE.RESTR.norm>
0

>  <SCORE.SYSTEM>
0

>  <SCORE.SYSTEM.CONST>
0

>  <SCORE.SYSTEM.DIHEDRAL>
0

>  <SCORE.SYSTEM.SOLV>
0

>  <SCORE.SYSTEM.norm>
0

>  <SCORE.heavy>
32

>  <SCORE.norm>
-1.42234

>  <RMSD>
19.870

$$$$
2au4_lig
 OpenBabel11021811423D
libRbt.so/2013.1/901 2013/11/27
 32 34  0  0  0  0  0  0  0  0999 V2000
   55.3695   -7.3906   -6.1390 P   0  0  1  0  0  0  0  0  0  0  0  0
   54.6252   -7.3846   -3.5283 P   0  0  1  0  0  0  0  0  0  0  0  0
   54.0597   -6.5439   -0.9957 P   0  0  2  0  0  0  0  0  0  0  0  0
   56.3104   -5.1911   -7.2822 C   0  0  0  0  0  0  0  0  0  0  0  0
   56.4819   -6.5852   -6.9775 O   0  0  0  0  0  0  0  0  0  0  0  0
   57.0098   -4.2858   -6.2788 C   0  0  0  0  0  0  0  0  0  0  0  0
   57.4576   -3.0721   -6.9163 O   0  0  0  0  0  0  0  0  0  0  0  0
   56.0681   -3.9094   -5.1456 C   0  0  0  0  0  0  0  0  0  0  0  0
   56.5400   -4.4253   -3.8949 O   0  0  0  0  0  0  0  0  0  0  0  0
   56.0069   -2.4008   -5.1221 C   0  0  0  0  0  0  0  0  0  0  0  0
   56.4303   -1.8836   -3.8535 O   0  0  0  0  0  0  0  0  0  0  0  0
   56.9220   -1.9183   -6.2343 C   0  0  0  0  0  0  0  0  0  0  0  0
   56.6515   -0.0808  -10.9900 N   0  0  0  0  0  0  0  0  0  0  0  0
   54.0327   -6.9446   -6.5803 O   0  5  0  0  0  0  0  0  0  0  0  0
   53.2352   -7.1613   -3.9712 O   0  5  0  0  0  0  0  0  0  0  0  0
   52.6340   -6.5022   -1.3789 O   0  5  0  0  0  0  0  0  0  0  0  0
   57.5625   -0.9522  -10.4420 C   0  0  1  0  0  0  0  0  0  0  0  0
   58.5205   -1.3862  -11.2501 N   0  0  0  0  0  0  0  0  0  0  0  0
   55.7143   -8.8283   -6.1566 O   0  0  0  0  0  0  0  0  0  0  0  0
   55.0697   -8.7380   -3.1354 O   0  0  0  0  0  0  0  0  0  0  0  0
   54.5860   -5.5870   -0.0000 O   0  0  0  0  0  0  0  0  0  0  0  0
   57.5272   -1.3621   -9.1765 N   0  0  0  0  0  0  0  0  0  0  0  0
   55.5996   -6.8547   -4.6624 O   0  0  0  0  0  0  0  0  0  0  0  0
   54.9291   -6.3959   -2.3219 O   0  0  0  0  0  0  0  0  0  0  0  0
   54.4114   -8.0333   -0.5070 O   0  0  0  0  0  0  0  0  0  0  0  0
   56.4918   -0.8208   -8.4942 C   0  0  2  0  0  0  0  0  0  0  0  0
   55.5325    0.0603   -8.9666 C   0  0  2  0  0  0  0  0  0  0  0  0
   55.5850    0.4869  -10.3162 C   0  0  1  0  0  0  0  0  0  0  0  0
   54.8449    1.2718  -10.8939 O   0  0  0  0  0  0  0  0  0  0  0  0
   54.6242    0.3960   -7.9569 N   0  0  0  0  0  0  0  0  0  0  0  0
   55.0837   -0.2885   -6.9608 C   0  0  0  0  0  0  0  0  0  0  0  0
   56.1894   -1.0451   -7.1719 N   0  0  0  0  0  0  0  0  0  0  0  0
  1  5  1  6  0  0  0
  1 14  1  0  0  0  0
  1 19  2  0  0  0  0
  2 15  1  6  0  0  0
  2 20  2  0  0  0  0
  2 23  1  0  0  0  0
  3 16  1  6  0  0  0
  3 21  2  0  0  0  0
  3 24  1  0  0  0  0
  3 25  1  0  0  0  0
  4  6  1  0  0  0  0
  5  4  1  0  0  0  0
  6  7  1  0  0  0  0
  6  8  2  0  0  0  0
  7 12  1  0  0  0  0
  8  9  1  0  0  0  0
  8 10  1  0  0  0  0
 10 11  1  0  0  0  0
 10 12  2  0  0  0  0
 12 32  1  0  0  0  0
 13 17  1  0  0  0  0
 17 18  1  1  0  0  0
 17 22  1  0  0  0  0
 23  1  1  0  0  0  0
 24  2  1  0  0  0  0
 26 22  1  1  0  0  0
 27 26  1  0  0  0  0
 27 28  1  0  0  0  0
 27 30  1  1  0  0  0
 28 13  1  0  0  0  0
 28 29  1  1  0  0  0
 31 30  1  0  0  0  0
 32 26  1  0  0  0  0
 32 31  1  0  0  0  0
M  CHG  3  14  -1  15  -1  16  -1
M  END
>  <CHROM.1>
39.44525448,-52.72786331,-52.69587519,148.61727476,95.46152313,-34.17418614
177.41371996,61.67845801,55.54443178,-4.32516406,-5.69411429,-2.32692988
1.28360398,-0.05885994

>  <Name>
2au4_lig

>  <RI>
0

>  <Rbt.Current_Directory>
/home/afrankz/demos/rdock_decoys_rna/rnas/2au4

>  <Rbt.Executable>
rbdock ($Id: //depot/dev/client3/rdock/2013.1/src/exe/rbdock.cxx#4 $)

>  <Rbt.Library>
libRbt.so (2013.1, Build901 2013/11/27)

>  <Rbt.Parameter_File>
/export/apps/rDock/src/rDock_2013.1_src/data/scripts/dock_solv.prm

>  <Rbt.Receptor>
prm/blind_docking_60.prm

>  <SCORE>
-2.41074

>  <SCORE.INTER>
13.0382

>  <SCORE.INTER.CONST>
1

>  <SCORE.INTER.POLAR>
-0.504752

>  <SCORE.INTER.ROT>
8

>  <SCORE.INTER.SOLV>
21.557

>  <SCORE.INTER.VDW>
-5.74433

>  <SCORE.INTER.norm>
0.407445

>  <SCORE.INTRA>
-24.4029

>  <SCORE.INTRA.DIHEDRAL>
-45.6157

>  <SCORE.INTRA.DIHEDRAL.0>
76.3625

>  <SCORE.INTRA.POLAR>
0

>  <SCORE.INTRA.POLAR.0>
0

>  <SCORE.INTRA.REPUL>
0.0893663

>  <SCORE.INTRA.REPUL.0>
0.12705

>  <SCORE.INTRA.SOLV>
-4.64408

>  <SCORE.INTRA.SOLV.lig_0>
-119.383

>  <SCORE.INTRA.VDW>
0.280138

>  <SCORE.INTRA.VDW.0>
-5.10464

>  <SCORE.INTRA.norm>
-0.762592

>  <SCORE.RESTR>
8.95395

>  <SCORE.RESTR.CAVITY>
8.95395

>  <SCORE.RESTR.norm>
0.279811

>  <SCORE.SYSTEM>
0

>  <SCORE.SYSTEM.CONST>
0

>  <SCORE.SYSTEM.DIHEDRAL>
0

>  <SCORE.SYSTEM.SOLV>
0

>  <SCORE.SYSTEM.norm>
0

>  <SCORE.heavy>
32

>  <SCORE.norm>
-0.0753355

>  <RMSD>
19.874

$$$$
2au4_lig
 OpenBabel11021811423D
libRbt.so/2013.1/901 2013/11/27
 32 34  0  0  0  0  0  0  0  0999 V2000
   57.2330   -6.8159   -6.3438 P   0  0  1  0  0  0  0  0  0  0  0  0
   55.4618   -7.6984   -4.4855 P   0  0  1  0  0  0  0  0  0  0  0  0
   54.2261  -10.0059   -3.7180 P   0  0  2  0  0  0  0  0  0  0  0  0
   57.6848   -4.2179   -6.6214 C   0  0  0  0  0  0  0  0  0  0  0  0
   57.0350   -5.2806   -5.9043 O   0  0  0  0  0  0  0  0  0  0  0  0
   56.7711   -3.5653   -7.6485 C   0  0  0  0  0  0  0  0  0  0  0  0
   55.6309   -2.9625   -7.0030 O   0  0  0  0  0  0  0  0  0  0  0  0
   57.5118   -2.4819   -8.4167 C   0  0  0  0  0  0  0  0  0  0  0  0
   57.6113   -2.8165   -9.8063 O   0  0  0  0  0  0  0  0  0  0  0  0
   56.7289   -1.2056   -8.2203 C   0  0  0  0  0  0  0  0  0  0  0  0
   56.2981   -0.6624   -9.4755 O   0  0  0  0  0  0  0  0  0  0  0  0
   55.5371   -1.5646   -7.3499 C   0  0  0  0  0  0  0  0  0  0  0  0
   53.4509    2.4963   -5.0644 N   0  0  0  0  0  0  0  0  0  0  0  0
   56.1627   -7.1750   -7.2957 O   0  5  0  0  0  0  0  0  0  0  0  0
   55.4504   -7.5057   -3.0224 O   0  5  0  0  0  0  0  0  0  0  0  0
   53.5633  -11.1305   -4.4088 O   0  5  0  0  0  0  0  0  0  0  0  0
   53.2052    1.9759   -6.3127 C   0  0  1  0  0  0  0  0  0  0  0  0
   52.3006    2.6103   -7.0464 N   0  0  0  0  0  0  0  0  0  0  0  0
   58.6505   -7.0230   -6.7099 O   0  0  0  0  0  0  0  0  0  0  0  0
   54.6273   -6.8411   -5.3527 O   0  0  0  0  0  0  0  0  0  0  0  0
   53.4192   -9.0180   -2.9717 O   0  0  0  0  0  0  0  0  0  0  0  0
   53.8186    0.9008   -6.8012 N   0  0  0  0  0  0  0  0  0  0  0  0
   56.9629   -7.5972   -4.9886 O   0  0  0  0  0  0  0  0  0  0  0  0
   55.0962   -9.2143   -4.7917 O   0  0  0  0  0  0  0  0  0  0  0  0
   55.3426  -10.6035   -2.7296 O   0  0  0  0  0  0  0  0  0  0  0  0
   54.7112    0.3820   -5.9267 C   0  0  2  0  0  0  0  0  0  0  0  0
   55.0187    0.8406   -4.6559 C   0  0  2  0  0  0  0  0  0  0  0  0
   54.3567    1.9867   -4.1514 C   0  0  1  0  0  0  0  0  0  0  0  0
   54.5161    2.5426   -3.0729 O   0  0  0  0  0  0  0  0  0  0  0  0
   55.9964    0.0371   -4.0595 N   0  0  0  0  0  0  0  0  0  0  0  0
   56.2125   -0.8359   -4.9885 C   0  0  0  0  0  0  0  0  0  0  0  0
   55.5022   -0.7224   -6.1384 N   0  0  0  0  0  0  0  0  0  0  0  0
  1  5  1  1  0  0  0
  1 14  1  0  0  0  0
  1 19  2  0  0  0  0
  2 15  1  1  0  0  0
  2 20  2  0  0  0  0
  2 23  1  0  0  0  0
  3 16  1  6  0  0  0
  3 21  2  0  0  0  0
  3 24  1  0  0  0  0
  3 25  1  0  0  0  0
  4  6  1  0  0  0  0
  5  4  1  0  0  0  0
  6  7  1  0  0  0  0
  6  8  2  0  0  0  0
  7 12  1  0  0  0  0
  8  9  1  0  0  0  0
  8 10  1  0  0  0  0
 10 11  1  0  0  0  0
 10 12  2  0  0  0  0
 12 32  1  0  0  0  0
 13 17  1  0  0  0  0
 17 18  1  6  0  0  0
 17 22  1  0  0  0  0
 23  1  1  0  0  0  0
 24  2  1  0  0  0  0
 26 22  1  6  0  0  0
 27 26  1  0  0  0  0
 27 28  1  0  0  0  0
 27 30  1  6  0  0  0
 28 13  1  0  0  0  0
 28 29  1  6  0  0  0
 31 30  1  0  0  0  0
 32 26  1  0  0  0  0
 32 31  1  0  0  0  0
M  CHG  3  14  -1  15  -1  16  -1
M  END
>  <CHROM.1>
-91.56040465,-139.31690441,157.33597770,61.98698132,97.41679680,-138.99082350
73.76119323,25.70828474,55.52096082,-4.19084605,-5.66009334,-1.49025836,0.90456411
-0.22938072

>  <Name>
2au4_lig

>  <RI>
0

>  <Rbt.Current_Directory>
/home/afrankz/demos/rdock_decoys_rna/rnas/2au4

>  <Rbt.Executable>
rbdock ($Id: //depot/dev/client3/rdock/2013.1/src/exe/rbdock.cxx#4 $)

>  <Rbt.Library>
libRbt.so (2013.1, Build901 2013/11/27)

>  <Rbt.Parameter_File>
/export/apps/rDock/src/rDock_2013.1_src/data/scripts/dock_solv.prm

>  <Rbt.Receptor>
prm/blind_docking_60.prm

>  <SCORE>
-0.43304

>  <SCORE.INTER>
-10.1667

>  <SCORE.INTER.CONST>
1

>  <SCORE.INTER.POLAR>
-0.143215

>  <SCORE.INTER.ROT>
8

>  <SCORE.INTER.SOLV>
28.2638

>  <SCORE.INTER.VDW>
-24.655

>  <SCORE.INTER.norm>
-0.317709

>  <SCORE.INTRA>
1.183

>  <SCORE.INTRA.DIHEDRAL>
3.37756

>  <SCORE.INTRA.DIHEDRAL.0>
76.3625

>  <SCORE.INTRA.POLAR>
0

>  <SCORE.INTRA.POLAR.0>
0

>  <SCORE.INTRA.REPUL>
-0.106696

>  <SCORE.INTRA.REPUL.0>
0.12705

>  <SCORE.INTRA.SOLV>
-5.78457

>  <SCORE.INTRA.SOLV.lig_0>
-119.383

>  <SCORE.INTRA.VDW>
2.91999

>  <SCORE.INTRA.VDW.0>
-5.10464

>  <SCORE.INTRA.norm>
0.0369688

>  <SCORE.RESTR>
8.55065

>  <SCORE.RESTR.CAVITY>
8.55065

>  <SCORE.RESTR.norm>
0.267208

>  <SCORE.SYSTEM>
0

>  <SCORE.SYSTEM.CONST>
0

>  <SCORE.SYSTEM.DIHEDRAL>
0

>  <SCORE.SYSTEM.SOLV>
0

>  <SCORE.SYSTEM.norm>
0

>  <SCORE.heavy>
32

>  <SCORE.norm>
-0.0135325

>  <RMSD>
19.880

$$$$
2au4_lig
 OpenBabel11021811423D
libRbt.so/2013.1/901 2013/11/27
 32 34  0  0  0  0  0  0  0  0999 V2000
   57.3596   -6.6086   -6.4070 P   0  0  1  0  0  0  0  0  0  0  0  0
   55.2026   -8.2164   -6.0440 P   0  0  1  0  0  0  0  0  0  0  0  0
   54.5206   -8.0184   -3.4103 P   0  0  2  0  0  0  0  0  0  0  0  0
   56.6695   -4.2372   -5.4423 C   0  0  0  0  0  0  0  0  0  0  0  0
   57.5975   -5.0306   -6.2006 O   0  0  0  0  0  0  0  0  0  0  0  0
   57.2699   -2.9149   -4.9880 C   0  0  0  0  0  0  0  0  0  0  0  0
   57.5823   -2.0825   -6.1237 O   0  0  0  0  0  0  0  0  0  0  0  0
   56.2964   -2.1593   -4.0969 C   0  0  0  0  0  0  0  0  0  0  0  0
   56.8248   -2.0085   -2.7737 O   0  0  0  0  0  0  0  0  0  0  0  0
   56.0727   -0.8156   -4.7486 C   0  0  0  0  0  0  0  0  0  0  0  0
   56.4415    0.2556   -3.8696 O   0  0  0  0  0  0  0  0  0  0  0  0
   56.9272   -0.8019   -6.0044 C   0  0  0  0  0  0  0  0  0  0  0  0
   52.7511    1.5055   -7.8216 N   0  0  0  0  0  0  0  0  0  0  0  0
   57.6470   -6.9479   -7.8152 O   0  5  0  0  0  0  0  0  0  0  0  0
   53.7384   -8.1413   -6.2133 O   0  5  0  0  0  0  0  0  0  0  0  0
   53.8547   -9.1744   -2.7767 O   0  5  0  0  0  0  0  0  0  0  0  0
   53.2335    1.4615   -6.5351 C   0  0  1  0  0  0  0  0  0  0  0  0
   52.5214    2.1026   -5.6181 N   0  0  0  0  0  0  0  0  0  0  0  0
   58.0421   -7.3357   -5.3154 O   0  0  0  0  0  0  0  0  0  0  0  0
   56.0026   -9.1174   -6.8994 O   0  0  0  0  0  0  0  0  0  0  0  0
   53.7118   -6.9411   -4.0180 O   0  0  0  0  0  0  0  0  0  0  0  0
   54.3454    0.8214   -6.1823 N   0  0  0  0  0  0  0  0  0  0  0  0
   55.7947   -6.7511   -6.1807 O   0  0  0  0  0  0  0  0  0  0  0  0
   55.5115   -8.5738   -4.5267 O   0  0  0  0  0  0  0  0  0  0  0  0
   55.5244   -7.3616   -2.3419 O   0  0  0  0  0  0  0  0  0  0  0  0
   54.9433    0.2196   -7.2363 C   0  0  2  0  0  0  0  0  0  0  0  0
   54.5276    0.2140   -8.5580 C   0  0  2  0  0  0  0  0  0  0  0  0
   53.3413    0.9001   -8.9164 C   0  0  1  0  0  0  0  0  0  0  0  0
   52.8145    0.9816  -10.0179 O   0  0  0  0  0  0  0  0  0  0  0  0
   55.4118   -0.5206   -9.3552 N   0  0  0  0  0  0  0  0  0  0  0  0
   56.2857   -0.9039   -8.4826 C   0  0  0  0  0  0  0  0  0  0  0  0
   56.1019   -0.5194   -7.1949 N   0  0  0  0  0  0  0  0  0  0  0  0
  1  5  1  1  0  0  0
  1 14  1  0  0  0  0
  1 19  2  0  0  0  0
  2 15  1  6  0  0  0
  2 20  2  0  0  0  0
  2 23  1  0  0  0  0
  3 16  1  1  0  0  0
  3 21  2  0  0  0  0
  3 24  1  0  0  0  0
  3 25  1  0  0  0  0
  4  6  1  0  0  0  0
  5  4  1  0  0  0  0
  6  7  1  0  0  0  0
  6  8  2  0  0  0  0
  7 12  1  0  0  0  0
  8  9  1  0  0  0  0
  8 10  1  0  0  0  0
 10 11  1  0  0  0  0
 10 12  2  0  0  0  0
 12 32  1  0  0  0  0
 13 17  1  0  0  0  0
 17 18  1  1  0  0  0
 17 22  1  0  0  0  0
 23  1  1  0  0  0  0
 24  2  1  0  0  0  0
 26 22  1  1  0  0  0
 27 26  1  0  0  0  0
 27 28  1  0  0  0  0
 27 30  1  1  0  0  0
 28 13  1  0  0  0  0
 28 29  1  1  0  0  0
 31 30  1  0  0  0  0
 32 26  1  0  0  0  0
 32 31  1  0  0  0  0
M  CHG  3  14  -1  15  -1  16  -1
M  END
>  <CHROM.1>
136.69416854,-164.70613999,114.87079931,64.58194592,161.63196485,149.26495353
-169.21511117,-33.10827743,55.49806894,-3.93653259,-5.90043685,-0.24088673
1.44932573,-1.59420347

>  <Name>
2au4_lig

>  <RI>
0

>  <Rbt.Current_Directory>
/home/afrankz/demos/rdock_decoys_rna/rnas/2au4

>  <Rbt.Executable>
rbdock ($Id: //depot/dev/client3/rdock/2013.1/src/exe/rbdock.cxx#4 $)

>  <Rbt.Library>
libRbt.so (2013.1, Build901 2013/11/27)

>  <Rbt.Parameter_File>
/export/apps/rDock/src/rDock_2013.1_src/data/scripts/dock_solv.prm

>  <Rbt.Receptor>
prm/blind_docking_60.prm

>  <SCORE>
-16.0806

>  <SCORE.INTER>
-4.24353

>  <SCORE.INTER.CONST>
1

>  <SCORE.INTER.POLAR>
-0.479026

>  <SCORE.INTER.ROT>
8

>  <SCORE.INTER.SOLV>
26.5552

>  <SCORE.INTER.VDW>
-19.0173

>  <SCORE.INTER.norm>
-0.13261

>  <SCORE.INTRA>
-22.3741

>  <SCORE.INTRA.DIHEDRAL>
-44.1303

>  <SCORE.INTRA.DIHEDRAL.0>
76.3625

>  <SCORE.INTRA.POLAR>
0

>  <SCORE.INTRA.POLAR.0>
0

>  <SCORE.INTRA.REPUL>
-0.12705

>  <SCORE.INTRA.REPUL.0>
0.12705

>  <SCORE.INTRA.SOLV>
-4.74392

>  <SCORE.INTRA.SOLV.lig_0>
-119.383

>  <SCORE.INTRA.VDW>
2.69831

>  <SCORE.INTRA.VDW.0>
-5.10464

>  <SCORE.INTRA.norm>
-0.699189

>  <SCORE.RESTR>
10.537

>  <SCORE.RESTR.CAVITY>
10.537

>  <SCORE.RESTR.norm>
0.329282

>  <SCORE.SYSTEM>
0

>  <SCORE.SYSTEM.CONST>
0

>  <SCORE.SYSTEM.DIHEDRAL>
0

>  <SCORE.SYSTEM.SOLV>
0

>  <SCORE.SYSTEM.norm>
0

>  <SCORE.heavy>
32

>  <SCORE.norm>
-0.502517

>  <RMSD>
19.883

$$$$
2au4_lig
 OpenBabel11021811423D
libRbt.so/2013.1/901 2013/11/27
 32 34  0  0  0  0  0  0  0  0999 V2000
   54.6918   -7.7431   -7.0110 P   0  0  1  0  0  0  0  0  0  0  0  0
   55.6294   -7.8717   -4.4666 P   0  0  1  0  0  0  0  0  0  0  0  0
   53.9132   -7.2549   -2.4382 P   0  0  2  0  0  0  0  0  0  0  0  0
   55.3459   -5.2323   -7.5574 C   0  0  0  0  0  0  0  0  0  0  0  0
   55.5746   -6.6347   -7.7736 O   0  0  0  0  0  0  0  0  0  0  0  0
   56.6363   -4.4628   -7.3163 C   0  0  0  0  0  0  0  0  0  0  0  0
   56.6184   -3.2071   -8.0257 O   0  0  0  0  0  0  0  0  0  0  0  0
   56.8204   -4.1709   -5.8353 C   0  0  0  0  0  0  0  0  0  0  0  0
   57.9849   -4.8309   -5.3241 O   0  0  0  0  0  0  0  0  0  0  0  0
   56.9455   -2.6715   -5.7060 C   0  0  0  0  0  0  0  0  0  0  0  0
   58.1925   -2.3048   -5.1003 O   0  0  0  0  0  0  0  0  0  0  0  0
   56.8439   -2.1110   -7.1141 C   0  0  0  0  0  0  0  0  0  0  0  0
   54.3815    1.7084   -4.7870 N   0  0  0  0  0  0  0  0  0  0  0  0
   53.3144   -7.6947   -7.5414 O   0  5  0  0  0  0  0  0  0  0  0  0
   55.1837   -9.2634   -4.2599 O   0  5  0  0  0  0  0  0  0  0  0  0
   53.8313   -8.6570   -1.9814 O   0  5  0  0  0  0  0  0  0  0  0  0
   55.4445    0.9578   -4.3441 C   0  0  1  0  0  0  0  0  0  0  0  0
   55.9089    1.2512   -3.1369 N   0  0  0  0  0  0  0  0  0  0  0  0
   55.4390   -9.0190   -7.0044 O   0  0  0  0  0  0  0  0  0  0  0  0
   57.0224   -7.5920   -4.8729 O   0  0  0  0  0  0  0  0  0  0  0  0
   52.8764   -6.7090   -3.3388 O   0  0  0  0  0  0  0  0  0  0  0  0
   56.0061   -0.0204   -5.0501 N   0  0  0  0  0  0  0  0  0  0  0  0
   54.6609   -7.1913   -5.5228 O   0  0  0  0  0  0  0  0  0  0  0  0
   55.3276   -7.0492   -3.1409 O   0  0  0  0  0  0  0  0  0  0  0  0
   54.0186   -6.3050   -1.1470 O   0  0  0  0  0  0  0  0  0  0  0  0
   55.4083   -0.1893   -6.2521 C   0  0  2  0  0  0  0  0  0  0  0  0
   54.3384    0.5194   -6.7746 C   0  0  2  0  0  0  0  0  0  0  0  0
   53.7521    1.5572   -6.0095 C   0  0  1  0  0  0  0  0  0  0  0  0
   52.7958    2.2648   -6.2965 O   0  0  0  0  0  0  0  0  0  0  0  0
   54.0042    0.0490   -8.0490 N   0  0  0  0  0  0  0  0  0  0  0  0
   54.8743   -0.8937   -8.2107 C   0  0  0  0  0  0  0  0  0  0  0  0
   55.7552   -1.1185   -7.2041 N   0  0  0  0  0  0  0  0  0  0  0  0
  1  5  1  6  0  0  0
  1 14  1  0  0  0  0
  1 19  2  0  0  0  0
  2 15  1  1  0  0  0
  2 20  2  0  0  0  0
  2 23  1  0  0  0  0
  3 16  1  1  0  0  0
  3 21  2  0  0  0  0
  3 24  1  0  0  0  0
  3 25  1  0  0  0  0
  4  6  1  0  0  0  0
  5  4  1  0  0  0  0
  6  7  1  0  0  0  0
  6  8  2  0  0  0  0
  7 12  1  0  0  0  0
  8  9  1  0  0  0  0
  8 10  1  0  0  0  0
 10 11  1  0  0  0  0
 10 12  2  0  0  0  0
 12 32  1  0  0  0  0
 13 17  1  0  0  0  0
 17 18  1  1  0  0  0
 17 22  1  0  0  0  0
 23  1  1  0  0  0  0
 24  2  1  0  0  0  0
 26 22  1  1  0  0  0
 27 26  1  0  0  0  0
 27 28  1  0  0  0  0
 27 30  1  1  0  0  0
 28 13  1  0  0  0  0
 28 29  1  1  0  0  0
 31 30  1  0  0  0  0
 32 26  1  0  0  0  0
 32 31  1  0  0  0  0
M  CHG  3  14  -1  15  -1  16  -1
M  END
>  <CHROM.1>
69.10467721,-66.49248105,64.02925662,138.01806961,133.13412496,158.77282923
-101.75001672,-44.35733210,55.21914539,-4.34705751,-5.44558884,-1.65873755
1.31053884,-0.09307190

>  <Name>
2au4_lig

>  <RI>
0

>  <Rbt.Current_Directory>
/home/afrankz/demos/rdock_decoys_rna/rnas/2au4

>  <Rbt.Executable>
rbdock ($Id: //depot/dev/client3/rdock/2013.1/src/exe/rbdock.cxx#4 $)

>  <Rbt.Library>
libRbt.so (2013.1, Build901 2013/11/27)

>  <Rbt.Parameter_File>
/export/apps/rDock/src/rDock_2013.1_src/data/scripts/dock_solv.prm

>  <Rbt.Receptor>
prm/blind_docking_60.prm

>  <SCORE>
-10.6775

>  <SCORE.INTER>
2.23674

>  <SCORE.INTER.CONST>
1

>  <SCORE.INTER.POLAR>
-0.0794227

>  <SCORE.INTER.ROT>
8

>  <SCORE.INTER.SOLV>
31.3128

>  <SCORE.INTER.VDW>
-17.6151

>  <SCORE.INTER.norm>
0.069898

>  <SCORE.INTRA>
-22.225

>  <SCORE.INTRA.DIHEDRAL>
-41.4922

>  <SCORE.INTRA.DIHEDRAL.0>
76.3625

>  <SCORE.INTRA.POLAR>
0

>  <SCORE.INTRA.POLAR.0>
0

>  <SCORE.INTRA.REPUL>
-0.12705

>  <SCORE.INTRA.REPUL.0>
0.12705

>  <SCORE.INTRA.SOLV>
-3.43149

>  <SCORE.INTRA.SOLV.lig_0>
-119.383

>  <SCORE.INTRA.VDW>
0.8721

>  <SCORE.INTRA.VDW.0>
-5.10464

>  <SCORE.INTRA.norm>
-0.694532

>  <SCORE.RESTR>
9.31078

>  <SCORE.RESTR.CAVITY>
9.31078

>  <SCORE.RESTR.norm>
0.290962

>  <SCORE.SYSTEM>
0

>  <SCORE.SYSTEM.CONST>
0

>  <SCORE.SYSTEM.DIHEDRAL>
0

>  <SCORE.SYSTEM.SOLV>
0

>  <SCORE.SYSTEM.norm>
0

>  <SCORE.heavy>
32

>  <SCORE.norm>
-0.333672

>  <RMSD>
19.893

$$$$
2au4_lig
 OpenBabel11021811423D
libRbt.so/2013.1/901 2013/11/27
 32 34  0  0  0  0  0  0  0  0999 V2000
   65.4543  -11.0686    2.2863 P   0  0  1  0  0  0  0  0  0  0  0  0
   67.3393   -9.1268    2.0735 P   0  0  1  0  0  0  0  0  0  0  0  0
   68.7088  -10.6096    0.2388 P   0  0  2  0  0  0  0  0  0  0  0  0
   64.2603  -12.3469    0.2936 C   0  0  0  0  0  0  0  0  0  0  0  0
   64.1584  -11.4494    1.4115 O   0  0  0  0  0  0  0  0  0  0  0  0
   62.9235  -12.9754   -0.0717 C   0  0  0  0  0  0  0  0  0  0  0  0
   62.0676  -13.0567    1.0863 O   0  0  0  0  0  0  0  0  0  0  0  0
   62.2125  -12.1501   -1.1328 C   0  0  0  0  0  0  0  0  0  0  0  0
   62.0591  -12.8977   -2.3454 O   0  0  0  0  0  0  0  0  0  0  0  0
   60.8697  -11.7727   -0.5542 C   0  0  0  0  0  0  0  0  0  0  0  0
   59.7968  -12.2559   -1.3737 O   0  0  0  0  0  0  0  0  0  0  0  0
   60.8118  -12.3923    0.8314 C   0  0  0  0  0  0  0  0  0  0  0  0
   61.7691  -10.7764    5.5790 N   0  0  0  0  0  0  0  0  0  0  0  0
   65.0037  -10.4954    3.5705 O   0  5  0  0  0  0  0  0  0  0  0  0
   67.5216   -7.8606    1.3375 O   0  5  0  0  0  0  0  0  0  0  0  0
   68.0242  -11.9152    0.1485 O   0  5  0  0  0  0  0  0  0  0  0  0
   62.2485  -11.8841    4.9212 C   0  0  1  0  0  0  0  0  0  0  0  0
   63.0786  -12.6603    5.6050 N   0  0  0  0  0  0  0  0  0  0  0  0
   66.3864  -12.2163    2.2734 O   0  0  0  0  0  0  0  0  0  0  0  0
   67.1614   -9.1126    3.5404 O   0  0  0  0  0  0  0  0  0  0  0  0
   70.1306  -10.4922   -0.1469 O   0  0  0  0  0  0  0  0  0  0  0  0
   61.9231  -12.2019    3.6706 N   0  0  0  0  0  0  0  0  0  0  0  0
   66.1109   -9.9008    1.4346 O   0  0  0  0  0  0  0  0  0  0  0  0
   68.5635  -10.0815    1.7343 O   0  0  0  0  0  0  0  0  0  0  0  0
   67.8622   -9.5326   -0.6002 O   0  0  0  0  0  0  0  0  0  0  0  0
   61.0660  -11.3088    3.1245 C   0  0  2  0  0  0  0  0  0  0  0  0
   60.5366  -10.1716    3.7131 C   0  0  2  0  0  0  0  0  0  0  0  0
   60.8931   -9.8482    5.0452 C   0  0  1  0  0  0  0  0  0  0  0  0
   60.5087   -8.9077    5.7272 O   0  0  0  0  0  0  0  0  0  0  0  0
   59.6845   -9.5031    2.8276 N   0  0  0  0  0  0  0  0  0  0  0  0
   59.7520  -10.2632    1.7837 C   0  0  0  0  0  0  0  0  0  0  0  0
   60.5439  -11.3621    1.8538 N   0  0  0  0  0  0  0  0  0  0  0  0
  1  5  1  6  0  0  0
  1 14  1  0  0  0  0
  1 19  2  0  0  0  0
  2 15  1  6  0  0  0
  2 20  2  0  0  0  0
  2 23  1  0  0  0  0
  3 16  1  6  0  0  0
  3 21  2  0  0  0  0
  3 24  1  0  0  0  0
  3 25  1  0  0  0  0
  4  6  1  0  0  0  0
  5  4  1  0  0  0  0
  6  7  1  0  0  0  0
  6  8  2  0  0  0  0
  7 12  1  0  0  0  0
  8  9  1  0  0  0  0
  8 10  1  0  0  0  0
 10 11  1  0  0  0  0
 10 12  2  0  0  0  0
 12 32  1  0  0  0  0
 13 17  1  0  0  0  0
 17 18  1  1  0  0  0
 17 22  1  0  0  0  0
 23  1  1  0  0  0  0
 24  2  1  0  0  0  0
 26 22  1  1  0  0  0
 27 26  1  0  0  0  0
 27 28  1  0  0  0  0
 27 30  1  1  0  0  0
 28 13  1  0  0  0  0
 28 29  1  1  0  0  0
 31 30  1  0  0  0  0
 32 26  1  0  0  0  0
 32 31  1  0  0  0  0
M  CHG  3  14  -1  15  -1  16  -1
M  END
>  <CHROM.1>
-162.74954777,-162.93726872,-92.87671485,-27.67341641,158.82393936,-22.92477973
172.58418031,-65.87591978,64.21187133,-10.91015754,1.82015340,-0.15163360
0.21259419,1.20238198

>  <Name>
2au4_lig

>  <RI>
0

>  <Rbt.Current_Directory>
/home/itssahil/PROJECTS/Mol_Feturizer/New_Systems/rnas/2au4

>  <Rbt.Executable>
rbdock ($Id: //depot/dev/client3/rdock/2013.1/src/exe/rbdock.cxx#4 $)

>  <Rbt.Library>
libRbt.so (2013.1, Build901 2013/11/27)

>  <Rbt.Parameter_File>
/export/apps/rDock/src/rDock_2013.1_src/data/scripts/dock_solv.prm

>  <Rbt.Receptor>
prm/blind_docking_100.prm

>  <SCORE>
-42.9451

>  <SCORE.INTER>
-22.8786

>  <SCORE.INTER.CONST>
1

>  <SCORE.INTER.POLAR>
-3.25104

>  <SCORE.INTER.ROT>
8

>  <SCORE.INTER.SOLV>
19.4374

>  <SCORE.INTER.VDW>
-19.828

>  <SCORE.INTER.norm>
-0.714955

>  <SCORE.INTRA>
-21.043

>  <SCORE.INTRA.DIHEDRAL>
-45.0306

>  <SCORE.INTRA.DIHEDRAL.0>
76.3625

>  <SCORE.INTRA.POLAR>
0

>  <SCORE.INTRA.POLAR.0>
0

>  <SCORE.INTRA.REPUL>
0.0704237

>  <SCORE.INTRA.REPUL.0>
0.12705

>  <SCORE.INTRA.SOLV>
0.598347

>  <SCORE.INTRA.SOLV.lig_0>
-119.383

>  <SCORE.INTRA.VDW>
0.820978

>  <SCORE.INTRA.VDW.0>
-5.10464

>  <SCORE.INTRA.norm>
-0.657594

>  <SCORE.RESTR>
0.976413

>  <SCORE.RESTR.CAVITY>
0.976413

>  <SCORE.RESTR.norm>
0.0305129

>  <SCORE.SYSTEM>
0

>  <SCORE.SYSTEM.CONST>
0

>  <SCORE.SYSTEM.DIHEDRAL>
0

>  <SCORE.SYSTEM.SOLV>
0

>  <SCORE.SYSTEM.norm>
0

>  <SCORE.heavy>
32

>  <SCORE.norm>
-1.34204

>  <RMSD>
19.913

$$$$
2au4_lig
 OpenBabel11021811423D
libRbt.so/2013.1/901 2013/11/27
 32 34  0  0  0  0  0  0  0  0999 V2000
   55.5705   -7.5428   -5.5349 P   0  0  1  0  0  0  0  0  0  0  0  0
   54.1328   -8.1633   -3.3174 P   0  0  1  0  0  0  0  0  0  0  0  0
   54.0531   -6.8458   -0.9302 P   0  0  2  0  0  0  0  0  0  0  0  0
   56.1622   -5.0008   -6.0022 C   0  0  0  0  0  0  0  0  0  0  0  0
   56.5910   -6.2988   -5.5586 O   0  0  0  0  0  0  0  0  0  0  0  0
   57.0089   -3.8781   -5.4207 C   0  0  0  0  0  0  0  0  0  0  0  0
   57.5242   -3.0347   -6.4712 O   0  0  0  0  0  0  0  0  0  0  0  0
   56.1848   -3.0152   -4.4779 C   0  0  0  0  0  0  0  0  0  0  0  0
   56.6895   -3.0934   -3.1392 O   0  0  0  0  0  0  0  0  0  0  0  0
   56.2664   -1.6032   -5.0072 C   0  0  0  0  0  0  0  0  0  0  0  0
   56.8205   -0.7132   -4.0290 O   0  0  0  0  0  0  0  0  0  0  0  0
   57.1456   -1.6605   -6.2445 C   0  0  0  0  0  0  0  0  0  0  0  0
   53.4654    1.4736   -7.8876 N   0  0  0  0  0  0  0  0  0  0  0  0
   54.2248   -7.0548   -5.8976 O   0  5  0  0  0  0  0  0  0  0  0  0
   53.2811   -6.9977   -3.6242 O   0  5  0  0  0  0  0  0  0  0  0  0
   54.8324   -5.6943   -1.4280 O   0  5  0  0  0  0  0  0  0  0  0  0
   53.8670    1.1980   -6.6021 C   0  0  1  0  0  0  0  0  0  0  0  0
   53.2117    1.8249   -5.6344 N   0  0  0  0  0  0  0  0  0  0  0  0
   56.1777   -8.6657   -6.2809 O   0  0  0  0  0  0  0  0  0  0  0  0
   53.6729   -9.5266   -3.6539 O   0  0  0  0  0  0  0  0  0  0  0  0
   54.0972   -7.2044    0.5028 O   0  0  0  0  0  0  0  0  0  0  0  0
   54.8500    0.3543   -6.2978 N   0  0  0  0  0  0  0  0  0  0  0  0
   55.5481   -7.9377   -3.9974 O   0  0  0  0  0  0  0  0  0  0  0  0
   54.4846   -8.1298   -1.7681 O   0  0  0  0  0  0  0  0  0  0  0  0
   52.5180   -6.6440   -1.3583 O   0  0  0  0  0  0  0  0  0  0  0  0
   55.4057   -0.1996   -7.4000 C   0  0  2  0  0  0  0  0  0  0  0  0
   55.0644    0.0214   -8.7245 C   0  0  2  0  0  0  0  0  0  0  0  0
   54.0153    0.9223   -9.0310 C   0  0  1  0  0  0  0  0  0  0  0  0
   53.5657    1.2191  -10.1298 O   0  0  0  0  0  0  0  0  0  0  0  0
   55.8693   -0.7387   -9.5798 N   0  0  0  0  0  0  0  0  0  0  0  0
   56.6282   -1.3573   -8.7352 C   0  0  0  0  0  0  0  0  0  0  0  0
   56.4363   -1.1094   -7.4155 N   0  0  0  0  0  0  0  0  0  0  0  0
  1  5  1  6  0  0  0
  1 14  1  0  0  0  0
  1 19  2  0  0  0  0
  2 15  1  6  0  0  0
  2 20  2  0  0  0  0
  2 23  1  0  0  0  0
  3 16  1  6  0  0  0
  3 21  2  0  0  0  0
  3 24  1  0  0  0  0
  3 25  1  0  0  0  0
  4  6  1  0  0  0  0
  5  4  1  0  0  0  0
  6  7  1  0  0  0  0
  6  8  2  0  0  0  0
  7 12  1  0  0  0  0
  8  9  1  0  0  0  0
  8 10  1  0  0  0  0
 10 11  1  0  0  0  0
 10 12  2  0  0  0  0
 12 32  1  0  0  0  0
 13 17  1  0  0  0  0
 17 18  1  1  0  0  0
 17 22  1  0  0  0  0
 23  1  1  0  0  0  0
 24  2  1  0  0  0  0
 26 22  1  1  0  0  0
 27 26  1  0  0  0  0
 27 28  1  0  0  0  0
 27 30  1  1  0  0  0
 28 13  1  0  0  0  0
 28 29  1  1  0  0  0
 31 30  1  0  0  0  0
 32 26  1  0  0  0  0
 32 31  1  0  0  0  0
M  CHG  3  14  -1  15  -1  16  -1
M  END
>  <CHROM.1>
-5.22889646,-50.54643966,-66.09721486,126.27848147,155.45620608,145.23565949
132.28200442,-7.42191090,55.08270676,-4.14565570,-5.05155464,-1.77202880
1.24135476,-0.37704735

>  <Name>
2au4_lig

>  <RI>
0

>  <Rbt.Current_Directory>
/home/afrankz/demos/rdock_decoys_rna/rnas/2au4

>  <Rbt.Executable>
rbdock ($Id: //depot/dev/client3/rdock/2013.1/src/exe/rbdock.cxx#4 $)

>  <Rbt.Library>
libRbt.so (2013.1, Build901 2013/11/27)

>  <Rbt.Parameter_File>
/export/apps/rDock/src/rDock_2013.1_src/data/scripts/dock_solv.prm

>  <Rbt.Receptor>
prm/blind_docking_60.prm

>  <SCORE>
-19.6102

>  <SCORE.INTER>
-7.58184

>  <SCORE.INTER.CONST>
1

>  <SCORE.INTER.POLAR>
-0.922575

>  <SCORE.INTER.ROT>
8

>  <SCORE.INTER.SOLV>
26.3457

>  <SCORE.INTER.VDW>
-19.6945

>  <SCORE.INTER.norm>
-0.236933

>  <SCORE.INTRA>
-19.799

>  <SCORE.INTRA.DIHEDRAL>
-41.3578

>  <SCORE.INTRA.DIHEDRAL.0>
76.3625

>  <SCORE.INTRA.POLAR>
0

>  <SCORE.INTRA.POLAR.0>
0

>  <SCORE.INTRA.REPUL>
-0.12705

>  <SCORE.INTRA.REPUL.0>
0.12705

>  <SCORE.INTRA.SOLV>
-5.7343

>  <SCORE.INTRA.SOLV.lig_0>
-119.383

>  <SCORE.INTRA.VDW>
4.38226

>  <SCORE.INTRA.VDW.0>
-5.10464

>  <SCORE.INTRA.norm>
-0.618719

>  <SCORE.RESTR>
7.77064

>  <SCORE.RESTR.CAVITY>
7.77064

>  <SCORE.RESTR.norm>
0.242832

>  <SCORE.SYSTEM>
0

>  <SCORE.SYSTEM.CONST>
0

>  <SCORE.SYSTEM.DIHEDRAL>
0

>  <SCORE.SYSTEM.SOLV>
0

>  <SCORE.SYSTEM.norm>
0

>  <SCORE.heavy>
32

>  <SCORE.norm>
-0.61282

>  <RMSD>
19.915

$$$$
2au4_lig
 OpenBabel11021811423D
libRbt.so/2013.1/901 2013/11/27
 32 34  0  0  0  0  0  0  0  0999 V2000
   64.0289   -9.4902    2.2500 P   0  0  1  0  0  0  0  0  0  0  0  0
   66.7038   -9.4871    2.7128 P   0  0  1  0  0  0  0  0  0  0  0  0
   68.3771   -7.3492    2.9776 P   0  0  2  0  0  0  0  0  0  0  0  0
   61.4389   -9.9529    2.5795 C   0  0  0  0  0  0  0  0  0  0  0  0
   62.7442   -9.8115    3.1642 O   0  0  0  0  0  0  0  0  0  0  0  0
   60.5589  -10.9270    3.3490 C   0  0  0  0  0  0  0  0  0  0  0  0
   61.1251  -12.2532    3.3211 O   0  0  0  0  0  0  0  0  0  0  0  0
   60.4226  -10.4975    4.8014 C   0  0  0  0  0  0  0  0  0  0  0  0
   59.0630  -10.1705    5.1133 O   0  0  0  0  0  0  0  0  0  0  0  0
   60.9080  -11.6567    5.6387 C   0  0  0  0  0  0  0  0  0  0  0  0
   59.8833  -12.1193    6.5287 O   0  0  0  0  0  0  0  0  0  0  0  0
   61.3099  -12.7498    4.6637 C   0  0  0  0  0  0  0  0  0  0  0  0
   65.7027  -14.1930    2.4985 N   0  0  0  0  0  0  0  0  0  0  0  0
   64.1167  -10.5105    1.1860 O   0  5  0  0  0  0  0  0  0  0  0  0
   67.5362  -10.6430    3.0991 O   0  5  0  0  0  0  0  0  0  0  0  0
   67.9458   -6.7864    1.6820 O   0  5  0  0  0  0  0  0  0  0  0  0
   64.5048  -13.8669    1.9081 C   0  0  1  0  0  0  0  0  0  0  0  0
   64.4641  -13.9356    0.5843 N   0  0  0  0  0  0  0  0  0  0  0  0
   64.0117   -8.0538    1.8997 O   0  0  0  0  0  0  0  0  0  0  0  0
   66.6093   -9.0825    1.2948 O   0  0  0  0  0  0  0  0  0  0  0  0
   69.6110   -8.1585    3.0580 O   0  0  0  0  0  0  0  0  0  0  0  0
   63.4199  -13.5011    2.5862 N   0  0  0  0  0  0  0  0  0  0  0  0
   65.2333   -9.7299    3.2561 O   0  0  0  0  0  0  0  0  0  0  0  0
   67.1796   -8.2263    3.5549 O   0  0  0  0  0  0  0  0  0  0  0  0
   68.4828   -6.1510    4.0423 O   0  0  0  0  0  0  0  0  0  0  0  0
   63.6339  -13.4888    3.9221 C   0  0  2  0  0  0  0  0  0  0  0  0
   64.8030  -13.8010    4.5969 C   0  0  2  0  0  0  0  0  0  0  0  0
   65.9487  -14.1889    3.8598 C   0  0  1  0  0  0  0  0  0  0  0  0
   67.0479  -14.5202    4.2834 O   0  0  0  0  0  0  0  0  0  0  0  0
   64.6301  -13.6714    5.9791 N   0  0  0  0  0  0  0  0  0  0  0  0
   63.3941  -13.2982    6.0490 C   0  0  0  0  0  0  0  0  0  0  0  0
   62.7104  -13.1591    4.8858 N   0  0  0  0  0  0  0  0  0  0  0  0
  1  5  1  1  0  0  0
  1 14  1  0  0  0  0
  1 19  2  0  0  0  0
  2 15  1  1  0  0  0
  2 20  2  0  0  0  0
  2 23  1  0  0  0  0
  3 16  1  6  0  0  0
  3 21  2  0  0  0  0
  3 24  1  0  0  0  0
  3 25  1  0  0  0  0
  4  6  1  0  0  0  0
  5  4  1  0  0  0  0
  6  7  1  0  0  0  0
  6  8  2  0  0  0  0
  7 12  1  0  0  0  0
  8  9  1  0  0  0  0
  8 10  1  0  0  0  0
 10 11  1  0  0  0  0
 10 12  2  0  0  0  0
 12 32  1  0  0  0  0
 13 17  1  0  0  0  0
 17 18  1  1  0  0  0
 17 22  1  0  0  0  0
 23  1  1  0  0  0  0
 24  2  1  0  0  0  0
 26 22  1  1  0  0  0
 27 26  1  0  0  0  0
 27 28  1  0  0  0  0
 27 30  1  1  0  0  0
 28 13  1  0  0  0  0
 28 29  1  1  0  0  0
 31 30  1  0  0  0  0
 32 26  1  0  0  0  0
 32 31  1  0  0  0  0
M  CHG  3  14  -1  15  -1  16  -1
M  END
>  <CHROM.1>
-54.62446453,-132.33960686,61.95058563,-62.99607919,149.11785746,-21.35256672
-179.17721545,86.89577425,64.59420869,-10.77588224,3.36602298,0.64335389
0.19379253,-0.12628397

>  <Name>
2au4_lig

>  <RI>
0

>  <Rbt.Current_Directory>
/home/itssahil/PROJECTS/Mol_Feturizer/New_Systems/rnas/2au4

>  <Rbt.Executable>
rbdock ($Id: //depot/dev/client3/rdock/2013.1/src/exe/rbdock.cxx#4 $)

>  <Rbt.Library>
libRbt.so (2013.1, Build901 2013/11/27)

>  <Rbt.Parameter_File>
/export/apps/rDock/src/rDock_2013.1_src/data/scripts/dock_solv.prm

>  <Rbt.Receptor>
prm/blind_docking_100.prm

>  <SCORE>
-38.6318

>  <SCORE.INTER>
-19.5492

>  <SCORE.INTER.CONST>
1

>  <SCORE.INTER.POLAR>
-2.80488

>  <SCORE.INTER.ROT>
8

>  <SCORE.INTER.SOLV>
30.2997

>  <SCORE.INTER.VDW>
-22.7164

>  <SCORE.INTER.norm>
-0.610911

>  <SCORE.INTRA>
-21.4614

>  <SCORE.INTRA.DIHEDRAL>
-42.9744

>  <SCORE.INTRA.DIHEDRAL.0>
76.3625

>  <SCORE.INTRA.POLAR>
0

>  <SCORE.INTRA.POLAR.0>
0

>  <SCORE.INTRA.REPUL>
0.067569

>  <SCORE.INTRA.REPUL.0>
0.12705

>  <SCORE.INTRA.SOLV>
0.0239971

>  <SCORE.INTRA.SOLV.lig_0>
-119.383

>  <SCORE.INTRA.VDW>
-0.324073

>  <SCORE.INTRA.VDW.0>
-5.10464

>  <SCORE.INTRA.norm>
-0.67067

>  <SCORE.RESTR>
2.37876

>  <SCORE.RESTR.CAVITY>
2.37876

>  <SCORE.RESTR.norm>
0.0743364

>  <SCORE.SYSTEM>
0

>  <SCORE.SYSTEM.CONST>
0

>  <SCORE.SYSTEM.DIHEDRAL>
0

>  <SCORE.SYSTEM.SOLV>
0

>  <SCORE.SYSTEM.norm>
0

>  <SCORE.heavy>
32

>  <SCORE.norm>
-1.20724

>  <RMSD>
19.917

$$$$
2au4_lig
 OpenBabel11021811423D
libRbt.so/2013.1/901 2013/11/27
 32 34  0  0  0  0  0  0  0  0999 V2000
   57.7810   -6.6400   -6.2637 P   0  0  1  0  0  0  0  0  0  0  0  0
   55.5389   -7.9537   -5.4783 P   0  0  1  0  0  0  0  0  0  0  0  0
   54.6066   -8.7326   -3.0361 P   0  0  2  0  0  0  0  0  0  0  0  0
   55.9273   -4.7640   -6.5376 C   0  0  0  0  0  0  0  0  0  0  0  0
   56.6939   -5.8269   -7.1278 O   0  0  0  0  0  0  0  0  0  0  0  0
   56.8029   -3.7301   -5.8450 C   0  0  0  0  0  0  0  0  0  0  0  0
   57.2362   -2.7227   -6.7819 O   0  0  0  0  0  0  0  0  0  0  0  0
   56.0395   -3.0418   -4.7243 C   0  0  0  0  0  0  0  0  0  0  0  0
   56.6372   -3.3190   -3.4520 O   0  0  0  0  0  0  0  0  0  0  0  0
   56.0717   -1.5631   -5.0286 C   0  0  0  0  0  0  0  0  0  0  0  0
   56.6853   -0.8267   -3.9621 O   0  0  0  0  0  0  0  0  0  0  0  0
   56.8627   -1.4086   -6.3161 C   0  0  0  0  0  0  0  0  0  0  0  0
   56.5406    0.0279  -11.2048 N   0  0  0  0  0  0  0  0  0  0  0  0
   58.2826   -7.7658   -7.0772 O   0  5  0  0  0  0  0  0  0  0  0  0
   54.4408   -6.9862   -5.2879 O   0  5  0  0  0  0  0  0  0  0  0  0
   55.1786   -7.4927   -2.4735 O   0  5  0  0  0  0  0  0  0  0  0  0
   57.5239   -0.6934  -10.5705 C   0  0  1  0  0  0  0  0  0  0  0  0
   58.5481   -1.0771  -11.3207 N   0  0  0  0  0  0  0  0  0  0  0  0
   58.7300   -5.6743   -5.6697 O   0  0  0  0  0  0  0  0  0  0  0  0
   55.7248   -8.6162   -6.7860 O   0  0  0  0  0  0  0  0  0  0  0  0
   54.5417   -9.9574   -2.2116 O   0  0  0  0  0  0  0  0  0  0  0  0
   57.4944   -1.0093   -9.2782 N   0  0  0  0  0  0  0  0  0  0  0  0
   56.9017   -7.2423   -5.0871 O   0  0  0  0  0  0  0  0  0  0  0  0
   55.4072   -9.0826   -4.3677 O   0  0  0  0  0  0  0  0  0  0  0  0
   53.1320   -8.4088   -3.5850 O   0  0  0  0  0  0  0  0  0  0  0  0
   56.3855   -0.5372   -8.6634 C   0  0  2  0  0  0  0  0  0  0  0  0
   55.3508    0.1940   -9.2242 C   0  0  2  0  0  0  0  0  0  0  0  0
   55.3981    0.5221  -10.6012 C   0  0  1  0  0  0  0  0  0  0  0  0
   54.5950    1.1745  -11.2545 O   0  0  0  0  0  0  0  0  0  0  0  0
   54.3804    0.5009   -8.2643 N   0  0  0  0  0  0  0  0  0  0  0  0
   54.8808   -0.0521   -7.2079 C   0  0  0  0  0  0  0  0  0  0  0  0
   56.0686   -0.6946   -7.3349 N   0  0  0  0  0  0  0  0  0  0  0  0
  1  5  1  6  0  0  0
  1 14  1  0  0  0  0
  1 19  2  0  0  0  0
  2 15  1  1  0  0  0
  2 20  2  0  0  0  0
  2 23  1  0  0  0  0
  3 16  1  1  0  0  0
  3 21  2  0  0  0  0
  3 24  1  0  0  0  0
  3 25  1  0  0  0  0
  4  6  1  0  0  0  0
  5  4  1  0  0  0  0
  6  7  1  0  0  0  0
  6  8  2  0  0  0  0
  7 12  1  0  0  0  0
  8  9  1  0  0  0  0
  8 10  1  0  0  0  0
 10 11  1  0  0  0  0
 10 12  2  0  0  0  0
 12 32  1  0  0  0  0
 13 17  1  0  0  0  0
 17 18  1  1  0  0  0
 17 22  1  0  0  0  0
 23  1  1  0  0  0  0
 24  2  1  0  0  0  0
 26 22  1  1  0  0  0
 27 26  1  0  0  0  0
 27 28  1  0  0  0  0
 27 30  1  1  0  0  0
 28 13  1  0  0  0  0
 28 29  1  1  0  0  0
 31 30  1  0  0  0  0
 32 26  1  0  0  0  0
 32 31  1  0  0  0  0
M  CHG  3  14  -1  15  -1  16  -1
M  END
>  <CHROM.1>
173.09662186,-97.77641569,-52.84381610,87.01908010,52.17947837,-50.03476249
47.38276613,-22.66211718,56.10944767,-4.40527547,-6.38328000,-1.76075082
1.11085663,-0.39462309

>  <Name>
2au4_lig

>  <RI>
0

>  <Rbt.Current_Directory>
/home/afrankz/demos/rdock_decoys_rna/rnas/2au4

>  <Rbt.Executable>
rbdock ($Id: //depot/dev/client3/rdock/2013.1/src/exe/rbdock.cxx#4 $)

>  <Rbt.Library>
libRbt.so (2013.1, Build901 2013/11/27)

>  <Rbt.Parameter_File>
/export/apps/rDock/src/rDock_2013.1_src/data/scripts/dock_solv.prm

>  <Rbt.Receptor>
prm/blind_docking_60.prm

>  <SCORE>
-19.228

>  <SCORE.INTER>
-6.27024

>  <SCORE.INTER.CONST>
1

>  <SCORE.INTER.POLAR>
-0.538961

>  <SCORE.INTER.ROT>
8

>  <SCORE.INTER.SOLV>
32.7921

>  <SCORE.INTER.VDW>
-22.2477

>  <SCORE.INTER.norm>
-0.195945

>  <SCORE.INTRA>
-21.0412

>  <SCORE.INTRA.DIHEDRAL>
-42.1324

>  <SCORE.INTRA.DIHEDRAL.0>
76.3625

>  <SCORE.INTRA.POLAR>
0

>  <SCORE.INTRA.POLAR.0>
0

>  <SCORE.INTRA.REPUL>
-0.0492633

>  <SCORE.INTRA.REPUL.0>
0.12705

>  <SCORE.INTRA.SOLV>
-3.64103

>  <SCORE.INTRA.SOLV.lig_0>
-119.383

>  <SCORE.INTRA.VDW>
2.09179

>  <SCORE.INTRA.VDW.0>
-5.10464

>  <SCORE.INTRA.norm>
-0.657539

>  <SCORE.RESTR>
8.08346

>  <SCORE.RESTR.CAVITY>
8.08346

>  <SCORE.RESTR.norm>
0.252608

>  <SCORE.SYSTEM>
0

>  <SCORE.SYSTEM.CONST>
0

>  <SCORE.SYSTEM.DIHEDRAL>
0

>  <SCORE.SYSTEM.SOLV>
0

>  <SCORE.SYSTEM.norm>
0

>  <SCORE.heavy>
32

>  <SCORE.norm>
-0.600875

>  <RMSD>
19.924

$$$$
2au4_lig
 OpenBabel11021811423D
libRbt.so/2013.1/901 2013/11/27
 32 34  0  0  0  0  0  0  0  0999 V2000
   66.9391  -11.6915    1.6058 P   0  0  1  0  0  0  0  0  0  0  0  0
   66.8077   -9.0096    2.0051 P   0  0  1  0  0  0  0  0  0  0  0  0
   68.4996   -7.0688    2.9060 P   0  0  2  0  0  0  0  0  0  0  0  0
   66.1270  -14.2112    1.7550 C   0  0  0  0  0  0  0  0  0  0  0  0
   66.3826  -12.9630    2.4201 O   0  0  0  0  0  0  0  0  0  0  0  0
   64.6400  -14.4900    1.5922 C   0  0  0  0  0  0  0  0  0  0  0  0
   64.0566  -14.8833    2.8512 O   0  0  0  0  0  0  0  0  0  0  0  0
   63.9111  -13.2512    1.0955 C   0  0  0  0  0  0  0  0  0  0  0  0
   63.3435  -13.4762   -0.2006 O   0  0  0  0  0  0  0  0  0  0  0  0
   62.8375  -12.9484    2.1133 C   0  0  0  0  0  0  0  0  0  0  0  0
   61.5352  -12.9594    1.5132 O   0  0  0  0  0  0  0  0  0  0  0  0
   62.9479  -14.0209    3.1832 C   0  0  0  0  0  0  0  0  0  0  0  0
   61.8882  -10.0592    6.2243 N   0  0  0  0  0  0  0  0  0  0  0  0
   68.4150  -11.7413    1.6062 O   0  5  0  0  0  0  0  0  0  0  0  0
   67.6613   -9.1166    0.8059 O   0  5  0  0  0  0  0  0  0  0  0  0
   68.3430   -6.1845    4.0785 O   0  5  0  0  0  0  0  0  0  0  0  0
   61.5007  -10.2903    4.9258 C   0  0  1  0  0  0  0  0  0  0  0  0
   60.7446   -9.3573    4.3630 N   0  0  0  0  0  0  0  0  0  0  0  0
   66.2014  -11.5893    0.3284 O   0  0  0  0  0  0  0  0  0  0  0  0
   65.5363   -8.2589    1.9454 O   0  0  0  0  0  0  0  0  0  0  0  0
   68.1276   -6.5849    1.5601 O   0  0  0  0  0  0  0  0  0  0  0  0
   61.8436  -11.3726    4.2317 N   0  0  0  0  0  0  0  0  0  0  0  0
   66.4919  -10.4754    2.5229 O   0  0  0  0  0  0  0  0  0  0  0  0
   67.6818   -8.4063    3.1871 O   0  0  0  0  0  0  0  0  0  0  0  0
   70.0194   -7.5871    2.8595 O   0  0  0  0  0  0  0  0  0  0  0  0
   62.6176  -12.2163    4.9527 C   0  0  2  0  0  0  0  0  0  0  0  0
   63.0519  -12.0618    6.2593 C   0  0  2  0  0  0  0  0  0  0  0  0
   62.6781  -10.9035    6.9838 C   0  0  1  0  0  0  0  0  0  0  0  0
   62.9854  -10.5902    8.1261 O   0  0  0  0  0  0  0  0  0  0  0  0
   63.8377  -13.1496    6.6548 N   0  0  0  0  0  0  0  0  0  0  0  0
   63.8284  -13.8752    5.5846 C   0  0  0  0  0  0  0  0  0  0  0  0
   63.1338  -13.4131    4.5152 N   0  0  0  0  0  0  0  0  0  0  0  0
  1  5  1  1  0  0  0
  1 14  1  0  0  0  0
  1 19  2  0  0  0  0
  2 15  1  6  0  0  0
  2 20  2  0  0  0  0
  2 23  1  0  0  0  0
  3 16  1  1  0  0  0
  3 21  2  0  0  0  0
  3 24  1  0  0  0  0
  3 25  1  0  0  0  0
  4  6  1  0  0  0  0
  5  4  1  0  0  0  0
  6  7  1  0  0  0  0
  6  8  2  0  0  0  0
  7 12  1  0  0  0  0
  8  9  1  0  0  0  0
  8 10  1  0  0  0  0
 10 11  1  0  0  0  0
 10 12  2  0  0  0  0
 12 32  1  0  0  0  0
 13 17  1  0  0  0  0
 17 18  1  6  0  0  0
 17 22  1  0  0  0  0
 23  1  1  0  0  0  0
 24  2  1  0  0  0  0
 26 22  1  6  0  0  0
 27 26  1  0  0  0  0
 27 28  1  0  0  0  0
 27 30  1  6  0  0  0
 28 13  1  0  0  0  0
 28 29  1  6  0  0  0
 31 30  1  0  0  0  0
 32 26  1  0  0  0  0
 32 31  1  0  0  0  0
M  CHG  3  14  -1  15  -1  16  -1
M  END
>  <CHROM.1>
-88.93092450,-8.17302971,137.05482015,-74.59601079,-107.02982399,153.21805387
-177.08756996,51.04333426,65.19860500,-10.91689218,3.11265283,-0.31702450
-0.68861160,-2.45576197

>  <Name>
2au4_lig

>  <RI>
0

>  <Rbt.Current_Directory>
/home/itssahil/PROJECTS/Mol_Feturizer/New_Systems/rnas/2au4

>  <Rbt.Executable>
rbdock ($Id: //depot/dev/client3/rdock/2013.1/src/exe/rbdock.cxx#4 $)

>  <Rbt.Library>
libRbt.so (2013.1, Build901 2013/11/27)

>  <Rbt.Parameter_File>
/export/apps/rDock/src/rDock_2013.1_src/data/scripts/dock_solv.prm

>  <Rbt.Receptor>
prm/blind_docking_100.prm

>  <SCORE>
-42.1963

>  <SCORE.INTER>
-22.2756

>  <SCORE.INTER.CONST>
1

>  <SCORE.INTER.POLAR>
-3.54754

>  <SCORE.INTER.ROT>
8

>  <SCORE.INTER.SOLV>
29.6049

>  <SCORE.INTER.VDW>
-21.8269

>  <SCORE.INTER.norm>
-0.696112

>  <SCORE.INTRA>
-19.9871

>  <SCORE.INTRA.DIHEDRAL>
-38.9033

>  <SCORE.INTRA.DIHEDRAL.0>
76.3625

>  <SCORE.INTRA.POLAR>
0

>  <SCORE.INTRA.POLAR.0>
0

>  <SCORE.INTRA.REPUL>
-0.12705

>  <SCORE.INTRA.REPUL.0>
0.12705

>  <SCORE.INTRA.SOLV>
-2.96135

>  <SCORE.INTRA.SOLV.lig_0>
-119.383

>  <SCORE.INTRA.VDW>
1.58046

>  <SCORE.INTRA.VDW.0>
-5.10464

>  <SCORE.INTRA.norm>
-0.624598

>  <SCORE.RESTR>
0.0664359

>  <SCORE.RESTR.CAVITY>
0.0664359

>  <SCORE.RESTR.norm>
0.00207612

>  <SCORE.SYSTEM>
0

>  <SCORE.SYSTEM.CONST>
0

>  <SCORE.SYSTEM.DIHEDRAL>
0

>  <SCORE.SYSTEM.SOLV>
0

>  <SCORE.SYSTEM.norm>
0

>  <SCORE.heavy>
32

>  <SCORE.norm>
-1.31863

>  <RMSD>
19.928

$$$$
2au4_lig
 OpenBabel11021811423D
libRbt.so/2013.1/901 2013/11/27
 32 34  0  0  0  0  0  0  0  0999 V2000
   57.6202   -6.8411   -6.7283 P   0  0  1  0  0  0  0  0  0  0  0  0
   55.6934   -7.7282   -5.0341 P   0  0  1  0  0  0  0  0  0  0  0  0
   54.4991   -9.0489   -2.9676 P   0  0  2  0  0  0  0  0  0  0  0  0
   56.8837   -4.3714   -6.1050 C   0  0  0  0  0  0  0  0  0  0  0  0
   57.9377   -5.2911   -6.4348 O   0  0  0  0  0  0  0  0  0  0  0  0
   57.4070   -3.0865   -5.4799 C   0  0  0  0  0  0  0  0  0  0  0  0
   57.6228   -2.0813   -6.4914 O   0  0  0  0  0  0  0  0  0  0  0  0
   56.4147   -2.5377   -4.4666 C   0  0  0  0  0  0  0  0  0  0  0  0
   56.9760   -2.5376   -3.1484 O   0  0  0  0  0  0  0  0  0  0  0  0
   56.0773   -1.1351   -4.9131 C   0  0  0  0  0  0  0  0  0  0  0  0
   56.4012   -0.1752   -3.8984 O   0  0  0  0  0  0  0  0  0  0  0  0
   56.8857   -0.8816   -6.1738 C   0  0  0  0  0  0  0  0  0  0  0  0
   56.3659   -0.5178  -11.2397 N   0  0  0  0  0  0  0  0  0  0  0  0
   56.4252   -6.9216   -7.5922 O   0  5  0  0  0  0  0  0  0  0  0  0
   54.9080   -6.4899   -5.2007 O   0  5  0  0  0  0  0  0  0  0  0  0
   53.9538   -8.4364   -1.7393 O   0  5  0  0  0  0  0  0  0  0  0  0
   57.4359   -0.9667  -10.5026 C   0  0  1  0  0  0  0  0  0  0  0  0
   58.4984   -1.3632  -11.1901 N   0  0  0  0  0  0  0  0  0  0  0  0
   58.8742   -7.5114   -7.1335 O   0  0  0  0  0  0  0  0  0  0  0  0
   55.3530   -8.9333   -5.8185 O   0  0  0  0  0  0  0  0  0  0  0  0
   54.9913  -10.4421   -2.9434 O   0  0  0  0  0  0  0  0  0  0  0  0
   57.4513   -1.0152   -9.1729 N   0  0  0  0  0  0  0  0  0  0  0  0
   57.2209   -7.3865   -5.2918 O   0  0  0  0  0  0  0  0  0  0  0  0
   55.6825   -8.1223   -3.4946 O   0  0  0  0  0  0  0  0  0  0  0  0
   53.4009   -8.9163   -4.1325 O   0  0  0  0  0  0  0  0  0  0  0  0
   56.2929   -0.5709   -8.6332 C   0  0  2  0  0  0  0  0  0  0  0  0
   55.1710   -0.1039   -9.2989 C   0  0  2  0  0  0  0  0  0  0  0  0
   55.1714   -0.0585  -10.7146 C   0  0  1  0  0  0  0  0  0  0  0  0
   54.2890    0.3421  -11.4618 O   0  0  0  0  0  0  0  0  0  0  0  0
   54.1724    0.2671   -8.3921 N   0  0  0  0  0  0  0  0  0  0  0  0
   54.7431    0.0069   -7.2614 C   0  0  0  0  0  0  0  0  0  0  0  0
   56.0032   -0.4942   -7.2915 N   0  0  0  0  0  0  0  0  0  0  0  0
  1  5  1  1  0  0  0
  1 14  1  0  0  0  0
  1 19  2  0  0  0  0
  2 15  1  6  0  0  0
  2 20  2  0  0  0  0
  2 23  1  0  0  0  0
  3 16  1  1  0  0  0
  3 21  2  0  0  0  0
  3 24  1  0  0  0  0
  3 25  1  0  0  0  0
  4  6  1  0  0  0  0
  5  4  1  0  0  0  0
  6  7  1  0  0  0  0
  6  8  2  0  0  0  0
  7 12  1  0  0  0  0
  8  9  1  0  0  0  0
  8 10  1  0  0  0  0
 10 11  1  0  0  0  0
 10 12  2  0  0  0  0
 12 32  1  0  0  0  0
 13 17  1  0  0  0  0
 17 18  1  1  0  0  0
 17 22  1  0  0  0  0
 23  1  1  0  0  0  0
 24  2  1  0  0  0  0
 26 22  1  1  0  0  0
 27 26  1  0  0  0  0
 27 28  1  0  0  0  0
 27 30  1  1  0  0  0
 28 13  1  0  0  0  0
 28 29  1  1  0  0  0
 31 30  1  0  0  0  0
 32 26  1  0  0  0  0
 32 31  1  0  0  0  0
M  CHG  3  14  -1  15  -1  16  -1
M  END
>  <CHROM.1>
43.69646910,-61.48927185,-131.87554343,92.70563232,163.37542836,-38.91974653
108.04453917,88.80765329,56.11417235,-4.41999838,-6.33798955,-1.85820688
1.27056516,-0.28095264

>  <Name>
2au4_lig

>  <RI>
0

>  <Rbt.Current_Directory>
/home/afrankz/demos/rdock_decoys_rna/rnas/2au4

>  <Rbt.Executable>
rbdock ($Id: //depot/dev/client3/rdock/2013.1/src/exe/rbdock.cxx#4 $)

>  <Rbt.Library>
libRbt.so (2013.1, Build901 2013/11/27)

>  <Rbt.Parameter_File>
/export/apps/rDock/src/rDock_2013.1_src/data/scripts/dock_solv.prm

>  <Rbt.Receptor>
prm/blind_docking_60.prm

>  <SCORE>
-21.4065

>  <SCORE.INTER>
-8.07903

>  <SCORE.INTER.CONST>
1

>  <SCORE.INTER.POLAR>
0

>  <SCORE.INTER.ROT>
8

>  <SCORE.INTER.SOLV>
27.8059

>  <SCORE.INTER.VDW>
-23.588

>  <SCORE.INTER.norm>
-0.25247

>  <SCORE.INTRA>
-21.7602

>  <SCORE.INTRA.DIHEDRAL>
-43.7038

>  <SCORE.INTRA.DIHEDRAL.0>
76.3625

>  <SCORE.INTRA.POLAR>
0

>  <SCORE.INTRA.POLAR.0>
0

>  <SCORE.INTRA.REPUL>
0.022029

>  <SCORE.INTRA.REPUL.0>
0.12705

>  <SCORE.INTRA.SOLV>
-5.98891

>  <SCORE.INTRA.SOLV.lig_0>
-119.383

>  <SCORE.INTRA.VDW>
2.97602

>  <SCORE.INTRA.VDW.0>
-5.10464

>  <SCORE.INTRA.norm>
-0.680005

>  <SCORE.RESTR>
8.43272

>  <SCORE.RESTR.CAVITY>
8.43272

>  <SCORE.RESTR.norm>
0.263522

>  <SCORE.SYSTEM>
0

>  <SCORE.SYSTEM.CONST>
0

>  <SCORE.SYSTEM.DIHEDRAL>
0

>  <SCORE.SYSTEM.SOLV>
0

>  <SCORE.SYSTEM.norm>
0

>  <SCORE.heavy>
32

>  <SCORE.norm>
-0.668952

>  <RMSD>
19.936

$$$$
2au4_lig
 OpenBabel11021811423D
libRbt.so/2013.1/901 2013/11/27
 32 34  0  0  0  0  0  0  0  0999 V2000
   54.3391   -8.9669   -3.7653 P   0  0  1  0  0  0  0  0  0  0  0  0
   53.4252   -7.8352   -1.4732 P   0  0  1  0  0  0  0  0  0  0  0  0
   54.0308   -5.2550   -0.8277 P   0  0  2  0  0  0  0  0  0  0  0  0
   55.0873   -6.9717   -5.3432 C   0  0  0  0  0  0  0  0  0  0  0  0
   55.0616   -8.3844   -5.0798 O   0  0  0  0  0  0  0  0  0  0  0  0
   56.0726   -6.6025   -6.4425 C   0  0  0  0  0  0  0  0  0  0  0  0
   55.8404   -5.2547   -6.9004 O   0  0  0  0  0  0  0  0  0  0  0  0
   57.5035   -6.6938   -5.9358 C   0  0  0  0  0  0  0  0  0  0  0  0
   58.2324   -7.7068   -6.6397 O   0  0  0  0  0  0  0  0  0  0  0  0
   58.1217   -5.3327   -6.1495 C   0  0  0  0  0  0  0  0  0  0  0  0
   59.2776   -5.4142   -6.9941 O   0  0  0  0  0  0  0  0  0  0  0  0
   57.0466   -4.4702   -6.7877 C   0  0  0  0  0  0  0  0  0  0  0  0
   54.9701    0.1925   -6.6704 N   0  0  0  0  0  0  0  0  0  0  0  0
   53.0157   -9.4966   -4.1510 O   0  5  0  0  0  0  0  0  0  0  0  0
   52.2386   -8.6981   -1.6321 O   0  5  0  0  0  0  0  0  0  0  0  0
   53.3787   -3.9316   -0.8964 O   0  5  0  0  0  0  0  0  0  0  0  0
   54.9867   -0.7296   -7.6897 C   0  0  1  0  0  0  0  0  0  0  0  0
   54.3842   -0.3720   -8.8158 N   0  0  0  0  0  0  0  0  0  0  0  0
   55.2991   -9.8269   -3.0409 O   0  0  0  0  0  0  0  0  0  0  0  0
   54.4778   -8.1939   -0.5001 O   0  0  0  0  0  0  0  0  0  0  0  0
   55.2136   -5.5408   -1.6662 O   0  0  0  0  0  0  0  0  0  0  0  0
   55.5654   -1.9244   -7.5986 N   0  0  0  0  0  0  0  0  0  0  0  0
   54.1064   -7.6597   -2.8951 O   0  0  0  0  0  0  0  0  0  0  0  0
   52.9298   -6.3618   -1.1432 O   0  0  0  0  0  0  0  0  0  0  0  0
   54.4069   -5.5574    0.7046 O   0  0  0  0  0  0  0  0  0  0  0  0
   56.1350   -2.1238   -6.3876 C   0  0  2  0  0  0  0  0  0  0  0  0
   56.1644   -1.2531   -5.3102 C   0  0  2  0  0  0  0  0  0  0  0  0
   55.5438    0.0151   -5.4242 C   0  0  1  0  0  0  0  0  0  0  0  0
   55.4920    0.9125   -4.5939 O   0  0  0  0  0  0  0  0  0  0  0  0
   56.8509   -1.8194   -4.2308 N   0  0  0  0  0  0  0  0  0  0  0  0
   57.1855   -2.9705   -4.7152 C   0  0  0  0  0  0  0  0  0  0  0  0
   56.8102   -3.2526   -5.9878 N   0  0  0  0  0  0  0  0  0  0  0  0
  1  5  1  6  0  0  0
  1 14  1  0  0  0  0
  1 19  2  0  0  0  0
  2 15  1  6  0  0  0
  2 20  2  0  0  0  0
  2 23  1  0  0  0  0
  3 16  1  6  0  0  0
  3 21  2  0  0  0  0
  3 24  1  0  0  0  0
  3 25  1  0  0  0  0
  4  6  1  0  0  0  0
  5  4  1  0  0  0  0
  6  7  1  0  0  0  0
  6  8  2  0  0  0  0
  7 12  1  0  0  0  0
  8  9  1  0  0  0  0
  8 10  1  0  0  0  0
 10 11  1  0  0  0  0
 10 12  2  0  0  0  0
 12 32  1  0  0  0  0
 13 17  1  0  0  0  0
 17 18  1  6  0  0  0
 17 22  1  0  0  0  0
 23  1  1  0  0  0  0
 24  2  1  0  0  0  0
 26 22  1  6  0  0  0
 27 26  1  0  0  0  0
 27 28  1  0  0  0  0
 27 30  1  6  0  0  0
 28 13  1  0  0  0  0
 28 29  1  6  0  0  0
 31 30  1  0  0  0  0
 32 26  1  0  0  0  0
 32 31  1  0  0  0  0
M  CHG  3  14  -1  15  -1  16  -1
M  END
>  <CHROM.1>
101.13180608,-47.57239643,165.76118891,166.00993841,166.93294697,-74.46737258
-178.74783468,175.93957357,55.20997755,-5.26411471,-4.17253957,-2.14350039
1.06361701,-0.09868713

>  <Name>
2au4_lig

>  <RI>
0

>  <Rbt.Current_Directory>
/home/afrankz/demos/rdock_decoys_rna/rnas/2au4

>  <Rbt.Executable>
rbdock ($Id: //depot/dev/client3/rdock/2013.1/src/exe/rbdock.cxx#4 $)

>  <Rbt.Library>
libRbt.so (2013.1, Build901 2013/11/27)

>  <Rbt.Parameter_File>
/export/apps/rDock/src/rDock_2013.1_src/data/scripts/dock_solv.prm

>  <Rbt.Receptor>
prm/blind_docking_60.prm

>  <SCORE>
-10.6429

>  <SCORE.INTER>
-5.95576

>  <SCORE.INTER.CONST>
1

>  <SCORE.INTER.POLAR>
-0.793487

>  <SCORE.INTER.ROT>
8

>  <SCORE.INTER.SOLV>
24.4436

>  <SCORE.INTER.VDW>
-18.4067

>  <SCORE.INTER.norm>
-0.186117

>  <SCORE.INTRA>
-12.9955

>  <SCORE.INTRA.DIHEDRAL>
-22.7664

>  <SCORE.INTRA.DIHEDRAL.0>
76.3625

>  <SCORE.INTRA.POLAR>
0

>  <SCORE.INTRA.POLAR.0>
0

>  <SCORE.INTRA.REPUL>
-0.12705

>  <SCORE.INTRA.REPUL.0>
0.12705

>  <SCORE.INTRA.SOLV>
-6.01329

>  <SCORE.INTRA.SOLV.lig_0>
-119.383

>  <SCORE.INTRA.VDW>
2.02958

>  <SCORE.INTRA.VDW.0>
-5.10464

>  <SCORE.INTRA.norm>
-0.406109

>  <SCORE.RESTR>
8.30833

>  <SCORE.RESTR.CAVITY>
8.30833

>  <SCORE.RESTR.norm>
0.259635

>  <SCORE.SYSTEM>
0

>  <SCORE.SYSTEM.CONST>
0

>  <SCORE.SYSTEM.DIHEDRAL>
0

>  <SCORE.SYSTEM.SOLV>
0

>  <SCORE.SYSTEM.norm>
0

>  <SCORE.heavy>
32

>  <SCORE.norm>
-0.332591

>  <RMSD>
19.937

$$$$
2au4_lig
 OpenBabel11021811423D
libRbt.so/2013.1/901 2013/11/27
 32 34  0  0  0  0  0  0  0  0999 V2000
   54.6381   -8.7475   -3.8594 P   0  0  1  0  0  0  0  0  0  0  0  0
   53.4154   -7.9990   -1.5541 P   0  0  1  0  0  0  0  0  0  0  0  0
   53.9908   -5.7463   -0.1275 P   0  0  2  0  0  0  0  0  0  0  0  0
   55.2216   -6.9000   -5.6695 C   0  0  0  0  0  0  0  0  0  0  0  0
   55.6540   -8.0111   -4.8669 O   0  0  0  0  0  0  0  0  0  0  0  0
   56.2408   -6.5193   -6.7334 C   0  0  0  0  0  0  0  0  0  0  0  0
   56.0303   -5.1626   -7.1754 O   0  0  0  0  0  0  0  0  0  0  0  0
   57.6558   -6.6282   -6.1870 C   0  0  0  0  0  0  0  0  0  0  0  0
   58.3987   -7.6343   -6.8862 O   0  0  0  0  0  0  0  0  0  0  0  0
   58.2882   -5.2679   -6.3598 C   0  0  0  0  0  0  0  0  0  0  0  0
   59.4678   -5.3431   -7.1717 O   0  0  0  0  0  0  0  0  0  0  0  0
   57.2375   -4.3879   -7.0145 C   0  0  0  0  0  0  0  0  0  0  0  0
   54.9290    0.1595   -6.7725 N   0  0  0  0  0  0  0  0  0  0  0  0
   53.3720   -9.0074   -4.5738 O   0  5  0  0  0  0  0  0  0  0  0  0
   52.2273   -8.6923   -2.0887 O   0  5  0  0  0  0  0  0  0  0  0  0
   55.2195   -5.5425   -0.9213 O   0  5  0  0  0  0  0  0  0  0  0  0
   54.9336   -0.7634   -7.7913 C   0  0  1  0  0  0  0  0  0  0  0  0
   54.2472   -0.4412   -8.8795 N   0  0  0  0  0  0  0  0  0  0  0  0
   55.3544   -9.8565   -3.1937 O   0  0  0  0  0  0  0  0  0  0  0  0
   54.2404   -8.6401   -0.5092 O   0  0  0  0  0  0  0  0  0  0  0  0
   54.0661   -6.3962    1.1977 O   0  0  0  0  0  0  0  0  0  0  0  0
   55.5788   -1.9259   -7.7351 N   0  0  0  0  0  0  0  0  0  0  0  0
   54.3623   -7.6254   -2.7708 O   0  0  0  0  0  0  0  0  0  0  0  0
   52.9619   -6.5731   -1.0188 O   0  0  0  0  0  0  0  0  0  0  0  0
   53.2534   -4.3292    0.0407 O   0  0  0  0  0  0  0  0  0  0  0  0
   56.2290   -2.0915   -6.5602 C   0  0  2  0  0  0  0  0  0  0  0  0
   56.2764   -1.2175   -5.4862 C   0  0  2  0  0  0  0  0  0  0  0  0
   55.5843    0.0160   -5.5627 C   0  0  1  0  0  0  0  0  0  0  0  0
   55.5347    0.9118   -4.7305 O   0  0  0  0  0  0  0  0  0  0  0  0
   57.0547   -1.7438   -4.4497 N   0  0  0  0  0  0  0  0  0  0  0  0
   57.4201   -2.8772   -4.9535 C   0  0  0  0  0  0  0  0  0  0  0  0
   56.9853   -3.1822   -6.2016 N   0  0  0  0  0  0  0  0  0  0  0  0
  1  5  1  6  0  0  0
  1 14  1  0  0  0  0
  1 19  2  0  0  0  0
  2 15  1  6  0  0  0
  2 20  2  0  0  0  0
  2 23  1  0  0  0  0
  3 16  1  6  0  0  0
  3 21  2  0  0  0  0
  3 24  1  0  0  0  0
  3 25  1  0  0  0  0
  4  6  1  0  0  0  0
  5  4  1  0  0  0  0
  6  7  1  0  0  0  0
  6  8  2  0  0  0  0
  7 12  1  0  0  0  0
  8  9  1  0  0  0  0
  8 10  1  0  0  0  0
 10 11  1  0  0  0  0
 10 12  2  0  0  0  0
 12 32  1  0  0  0  0
 13 17  1  0  0  0  0
 17 18  1  6  0  0  0
 17 22  1  0  0  0  0
 23  1  1  0  0  0  0
 24  2  1  0  0  0  0
 26 22  1  6  0  0  0
 27 26  1  0  0  0  0
 27 28  1  0  0  0  0
 27 30  1  6  0  0  0
 28 13  1  0  0  0  0
 28 29  1  6  0  0  0
 31 30  1  0  0  0  0
 32 26  1  0  0  0  0
 32 31  1  0  0  0  0
M  CHG  3  14  -1  15  -1  16  -1
M  END
>  <CHROM.1>
46.89047369,-45.89308099,58.43597935,-159.03874132,-169.16178778,-68.28270248
-178.14252049,167.79959156,55.29794719,-5.30135759,-4.19042071,-2.19717771
1.07413243,-0.14376612

>  <Name>
2au4_lig

>  <RI>
0

>  <Rbt.Current_Directory>
/home/afrankz/demos/rdock_decoys_rna/rnas/2au4

>  <Rbt.Executable>
rbdock ($Id: //depot/dev/client3/rdock/2013.1/src/exe/rbdock.cxx#4 $)

>  <Rbt.Library>
libRbt.so (2013.1, Build901 2013/11/27)

>  <Rbt.Parameter_File>
/export/apps/rDock/src/rDock_2013.1_src/data/scripts/dock_solv.prm

>  <Rbt.Receptor>
prm/blind_docking_60.prm

>  <SCORE>
-16.1742

>  <SCORE.INTER>
-8.08127

>  <SCORE.INTER.CONST>
1

>  <SCORE.INTER.POLAR>
-1.05173

>  <SCORE.INTER.ROT>
8

>  <SCORE.INTER.SOLV>
26.8379

>  <SCORE.INTER.VDW>
-19.7611

>  <SCORE.INTER.norm>
-0.25254

>  <SCORE.INTRA>
-16.9002

>  <SCORE.INTRA.DIHEDRAL>
-30.3478

>  <SCORE.INTRA.DIHEDRAL.0>
76.3625

>  <SCORE.INTRA.POLAR>
0

>  <SCORE.INTRA.POLAR.0>
0

>  <SCORE.INTRA.REPUL>
-0.12433

>  <SCORE.INTRA.REPUL.0>
0.12705

>  <SCORE.INTRA.SOLV>
-5.65592

>  <SCORE.INTRA.SOLV.lig_0>
-119.383

>  <SCORE.INTRA.VDW>
1.72329

>  <SCORE.INTRA.VDW.0>
-5.10464

>  <SCORE.INTRA.norm>
-0.528132

>  <SCORE.RESTR>
8.80726

>  <SCORE.RESTR.CAVITY>
8.80726

>  <SCORE.RESTR.norm>
0.275227

>  <SCORE.SYSTEM>
0

>  <SCORE.SYSTEM.CONST>
0

>  <SCORE.SYSTEM.DIHEDRAL>
0

>  <SCORE.SYSTEM.SOLV>
0

>  <SCORE.SYSTEM.norm>
0

>  <SCORE.heavy>
32

>  <SCORE.norm>
-0.505445

>  <RMSD>
19.944

$$$$
2au4_lig
 OpenBabel11021811423D
libRbt.so/2013.1/901 2013/11/27
 32 34  0  0  0  0  0  0  0  0999 V2000
   55.4702   -7.7358   -5.8506 P   0  0  1  0  0  0  0  0  0  0  0  0
   54.6695   -8.6660   -3.4292 P   0  0  1  0  0  0  0  0  0  0  0  0
   54.1546   -6.7933   -1.5138 P   0  0  2  0  0  0  0  0  0  0  0  0
   56.5392   -5.3539   -6.3135 C   0  0  0  0  0  0  0  0  0  0  0  0
   56.3928   -6.4839   -5.4374 O   0  0  0  0  0  0  0  0  0  0  0  0
   57.2960   -4.2062   -5.6613 C   0  0  0  0  0  0  0  0  0  0  0  0
   58.0015   -3.4342   -6.6546 O   0  0  0  0  0  0  0  0  0  0  0  0
   56.3399   -3.2788   -4.9276 C   0  0  0  0  0  0  0  0  0  0  0  0
   56.6050   -3.2796   -3.5196 O   0  0  0  0  0  0  0  0  0  0  0  0
   56.5401   -1.9029   -5.5169 C   0  0  0  0  0  0  0  0  0  0  0  0
   56.9358   -0.9600   -4.5116 O   0  0  0  0  0  0  0  0  0  0  0  0
   57.6177   -2.0449   -6.5779 C   0  0  0  0  0  0  0  0  0  0  0  0
   54.1199    0.7492   -9.0325 N   0  0  0  0  0  0  0  0  0  0  0  0
   54.0574   -7.3064   -5.8310 O   0  5  0  0  0  0  0  0  0  0  0  0
   53.3036   -8.5815   -3.9817 O   0  5  0  0  0  0  0  0  0  0  0  0
   52.7295   -6.8933   -1.8884 O   0  5  0  0  0  0  0  0  0  0  0  0
   54.2580    0.5111   -7.6857 C   0  0  1  0  0  0  0  0  0  0  0  0
   53.3582    1.0781   -6.8933 N   0  0  0  0  0  0  0  0  0  0  0  0
   56.0381   -8.3605   -7.0644 O   0  0  0  0  0  0  0  0  0  0  0  0
   55.0163   -9.7350   -2.4697 O   0  0  0  0  0  0  0  0  0  0  0  0
   54.7063   -5.5064   -1.0412 O   0  0  0  0  0  0  0  0  0  0  0  0
   55.2217   -0.2418   -7.1613 N   0  0  0  0  0  0  0  0  0  0  0  0
   55.6919   -8.7386   -4.6399 O   0  0  0  0  0  0  0  0  0  0  0  0
   55.0244   -7.2689   -2.7605 O   0  0  0  0  0  0  0  0  0  0  0  0
   54.4709   -7.9190   -0.4123 O   0  0  0  0  0  0  0  0  0  0  0  0
   56.0473   -0.7450   -8.1078 C   0  0  2  0  0  0  0  0  0  0  0  0
   55.9809   -0.5560   -9.4789 C   0  0  2  0  0  0  0  0  0  0  0  0
   54.9484    0.2481  -10.0206 C   0  0  1  0  0  0  0  0  0  0  0  0
   54.7217    0.5030  -11.1958 O   0  0  0  0  0  0  0  0  0  0  0  0
   57.0136   -1.2423  -10.1267 N   0  0  0  0  0  0  0  0  0  0  0  0
   57.6238   -1.7904   -9.1272 C   0  0  0  0  0  0  0  0  0  0  0  0
   57.1319   -1.5597   -7.8844 N   0  0  0  0  0  0  0  0  0  0  0  0
  1  5  1  1  0  0  0
  1 14  1  0  0  0  0
  1 19  2  0  0  0  0
  2 15  1  6  0  0  0
  2 20  2  0  0  0  0
  2 23  1  0  0  0  0
  3 16  1  6  0  0  0
  3 21  2  0  0  0  0
  3 24  1  0  0  0  0
  3 25  1  0  0  0  0
  4  6  1  0  0  0  0
  5  4  1  0  0  0  0
  6  7  1  0  0  0  0
  6  8  2  0  0  0  0
  7 12  1  0  0  0  0
  8  9  1  0  0  0  0
  8 10  1  0  0  0  0
 10 11  1  0  0  0  0
 10 12  2  0  0  0  0
 12 32  1  0  0  0  0
 13 17  1  0  0  0  0
 17 18  1  6  0  0  0
 17 22  1  0  0  0  0
 23  1  1  0  0  0  0
 24  2  1  0  0  0  0
 26 22  1  6  0  0  0
 27 26  1  0  0  0  0
 27 28  1  0  0  0  0
 27 30  1  6  0  0  0
 28 13  1  0  0  0  0
 28 29  1  6  0  0  0
 31 30  1  0  0  0  0
 32 26  1  0  0  0  0
 32 31  1  0  0  0  0
M  CHG  3  14  -1  15  -1  16  -1
M  END
>  <CHROM.1>
-69.34588018,44.90623691,-51.16655820,150.91649577,172.29547019,138.19578205
92.52744374,63.26846294,55.44880196,-4.51050894,-5.51517487,-1.98288389,1.27912030
-0.24294535

>  <Name>
2au4_lig

>  <RI>
0

>  <Rbt.Current_Directory>
/home/afrankz/demos/rdock_decoys_rna/rnas/2au4

>  <Rbt.Executable>
rbdock ($Id: //depot/dev/client3/rdock/2013.1/src/exe/rbdock.cxx#4 $)

>  <Rbt.Library>
libRbt.so (2013.1, Build901 2013/11/27)

>  <Rbt.Parameter_File>
/export/apps/rDock/src/rDock_2013.1_src/data/scripts/dock_solv.prm

>  <Rbt.Receptor>
prm/blind_docking_60.prm

>  <SCORE>
-22.0746

>  <SCORE.INTER>
-4.96747

>  <SCORE.INTER.CONST>
1

>  <SCORE.INTER.POLAR>
-0.330038

>  <SCORE.INTER.ROT>
8

>  <SCORE.INTER.SOLV>
24.2535

>  <SCORE.INTER.VDW>
-19.2293

>  <SCORE.INTER.norm>
-0.155233

>  <SCORE.INTRA>
-24.4038

>  <SCORE.INTRA.DIHEDRAL>
-47.1919

>  <SCORE.INTRA.DIHEDRAL.0>
76.3625

>  <SCORE.INTRA.POLAR>
0

>  <SCORE.INTRA.POLAR.0>
0

>  <SCORE.INTRA.REPUL>
-0.12705

>  <SCORE.INTRA.REPUL.0>
0.12705

>  <SCORE.INTRA.SOLV>
-6.14997

>  <SCORE.INTRA.SOLV.lig_0>
-119.383

>  <SCORE.INTRA.VDW>
2.90241

>  <SCORE.INTRA.VDW.0>
-5.10464

>  <SCORE.INTRA.norm>
-0.762618

>  <SCORE.RESTR>
7.29663

>  <SCORE.RESTR.CAVITY>
7.29663

>  <SCORE.RESTR.norm>
0.22802

>  <SCORE.SYSTEM>
0

>  <SCORE.SYSTEM.CONST>
0

>  <SCORE.SYSTEM.DIHEDRAL>
0

>  <SCORE.SYSTEM.SOLV>
0

>  <SCORE.SYSTEM.norm>
0

>  <SCORE.heavy>
32

>  <SCORE.norm>
-0.689832

>  <RMSD>
19.952

$$$$
2au4_lig
 OpenBabel11021811423D
libRbt.so/2013.1/901 2013/11/27
 32 34  0  0  0  0  0  0  0  0999 V2000
   55.6751   -7.5939   -5.6895 P   0  0  1  0  0  0  0  0  0  0  0  0
   54.2500   -8.6730   -3.6464 P   0  0  1  0  0  0  0  0  0  0  0  0
   53.9361   -7.3052   -1.3073 P   0  0  2  0  0  0  0  0  0  0  0  0
   54.7114   -5.2578   -6.4923 C   0  0  0  0  0  0  0  0  0  0  0  0
   54.6911   -6.6917   -6.5880 O   0  0  0  0  0  0  0  0  0  0  0  0
   56.0632   -4.6686   -6.8678 C   0  0  0  0  0  0  0  0  0  0  0  0
   55.9057   -3.6201   -7.8456 O   0  0  0  0  0  0  0  0  0  0  0  0
   56.7527   -4.0814   -5.6463 C   0  0  0  0  0  0  0  0  0  0  0  0
   57.9669   -4.7847   -5.3561 O   0  0  0  0  0  0  0  0  0  0  0  0
   57.0282   -2.6313   -5.9649 C   0  0  0  0  0  0  0  0  0  0  0  0
   58.4299   -2.3396   -5.8865 O   0  0  0  0  0  0  0  0  0  0  0  0
   56.5057   -2.3959   -7.3716 C   0  0  0  0  0  0  0  0  0  0  0  0
   54.5730    1.5953   -4.8415 N   0  0  0  0  0  0  0  0  0  0  0  0
   55.5253   -9.0048   -6.0988 O   0  5  0  0  0  0  0  0  0  0  0  0
   53.4241   -9.2481   -4.7259 O   0  5  0  0  0  0  0  0  0  0  0  0
   54.4192   -8.3825   -0.4200 O   0  5  0  0  0  0  0  0  0  0  0  0
   55.5655    0.7217   -4.4655 C   0  0  1  0  0  0  0  0  0  0  0  0
   56.1091    0.9272   -3.2733 N   0  0  0  0  0  0  0  0  0  0  0  0
   57.0127   -6.9640   -5.6765 O   0  0  0  0  0  0  0  0  0  0  0  0
   55.2015   -9.5272   -2.9058 O   0  0  0  0  0  0  0  0  0  0  0  0
   52.9862   -6.2957   -0.7950 O   0  0  0  0  0  0  0  0  0  0  0  0
   55.9873   -0.2898   -5.2204 N   0  0  0  0  0  0  0  0  0  0  0  0
   55.0516   -7.4385   -4.2378 O   0  0  0  0  0  0  0  0  0  0  0  0
   53.2821   -7.9832   -2.5916 O   0  0  0  0  0  0  0  0  0  0  0  0
   55.2098   -6.5421   -1.9205 O   0  0  0  0  0  0  0  0  0  0  0  0
   55.3251   -0.3574   -6.3983 C   0  0  2  0  0  0  0  0  0  0  0  0
   54.3179    0.4776   -6.8544 C   0  0  2  0  0  0  0  0  0  0  0  0
   53.8804    1.5493   -6.0381 C   0  0  1  0  0  0  0  0  0  0  0  0
   52.9958    2.3641   -6.2641 O   0  0  0  0  0  0  0  0  0  0  0  0
   53.8815    0.0842   -8.1240 N   0  0  0  0  0  0  0  0  0  0  0  0
   54.6364   -0.9414   -8.3481 C   0  0  0  0  0  0  0  0  0  0  0  0
   55.5287   -1.2898   -7.3879 N   0  0  0  0  0  0  0  0  0  0  0  0
  1  5  1  6  0  0  0
  1 14  1  0  0  0  0
  1 19  2  0  0  0  0
  2 15  1  6  0  0  0
  2 20  2  0  0  0  0
  2 23  1  0  0  0  0
  3 16  1  1  0  0  0
  3 21  2  0  0  0  0
  3 24  1  0  0  0  0
  3 25  1  0  0  0  0
  4  6  1  0  0  0  0
  5  4  1  0  0  0  0
  6  7  1  0  0  0  0
  6  8  2  0  0  0  0
  7 12  1  0  0  0  0
  8  9  1  0  0  0  0
  8 10  1  0  0  0  0
 10 11  1  0  0  0  0
 10 12  2  0  0  0  0
 12 32  1  0  0  0  0
 13 17  1  0  0  0  0
 17 18  1  1  0  0  0
 17 22  1  0  0  0  0
 23  1  1  0  0  0  0
 24  2  1  0  0  0  0
 26 22  1  1  0  0  0
 27 26  1  0  0  0  0
 27 28  1  0  0  0  0
 27 30  1  1  0  0  0
 28 13  1  0  0  0  0
 28 29  1  1  0  0  0
 31 30  1  0  0  0  0
 32 26  1  0  0  0  0
 32 31  1  0  0  0  0
M  CHG  3  14  -1  15  -1  16  -1
M  END
>  <CHROM.1>
-174.37923661,-41.29171567,-71.82436784,128.98058007,60.97185928,135.79139643
105.79717923,178.95251749,55.13343761,-4.50442605,-4.93595287,-1.72097409
1.16925632,-0.21010121

>  <Name>
2au4_lig

>  <RI>
0

>  <Rbt.Current_Directory>
/home/afrankz/demos/rdock_decoys_rna/rnas/2au4

>  <Rbt.Executable>
rbdock ($Id: //depot/dev/client3/rdock/2013.1/src/exe/rbdock.cxx#4 $)

>  <Rbt.Library>
libRbt.so (2013.1, Build901 2013/11/27)

>  <Rbt.Parameter_File>
/export/apps/rDock/src/rDock_2013.1_src/data/scripts/dock_solv.prm

>  <Rbt.Receptor>
prm/blind_docking_60.prm

>  <SCORE>
-15.6268

>  <SCORE.INTER>
-0.703813

>  <SCORE.INTER.CONST>
1

>  <SCORE.INTER.POLAR>
-0.777973

>  <SCORE.INTER.ROT>
8

>  <SCORE.INTER.SOLV>
32.388

>  <SCORE.INTER.VDW>
-17.6053

>  <SCORE.INTER.norm>
-0.0219942

>  <SCORE.INTRA>
-20.7863

>  <SCORE.INTRA.DIHEDRAL>
-44.7047

>  <SCORE.INTRA.DIHEDRAL.0>
76.3625

>  <SCORE.INTRA.POLAR>
0

>  <SCORE.INTRA.POLAR.0>
0

>  <SCORE.INTRA.REPUL>
-0.12705

>  <SCORE.INTRA.REPUL.0>
0.12705

>  <SCORE.INTRA.SOLV>
-3.75908

>  <SCORE.INTRA.SOLV.lig_0>
-119.383

>  <SCORE.INTRA.VDW>
4.08084

>  <SCORE.INTRA.VDW.0>
-5.10464

>  <SCORE.INTRA.norm>
-0.649573

>  <SCORE.RESTR>
5.86337

>  <SCORE.RESTR.CAVITY>
5.86337

>  <SCORE.RESTR.norm>
0.18323

>  <SCORE.SYSTEM>
0

>  <SCORE.SYSTEM.CONST>
0

>  <SCORE.SYSTEM.DIHEDRAL>
0

>  <SCORE.SYSTEM.SOLV>
0

>  <SCORE.SYSTEM.norm>
0

>  <SCORE.heavy>
32

>  <SCORE.norm>
-0.488336

>  <RMSD>
19.956

$$$$
2au4_lig
 OpenBabel11021811423D
libRbt.so/2013.1/901 2013/11/27
 32 34  0  0  0  0  0  0  0  0999 V2000
   55.6601   -7.8368   -6.7225 P   0  0  1  0  0  0  0  0  0  0  0  0
   55.2287   -8.6180   -4.1587 P   0  0  1  0  0  0  0  0  0  0  0  0
   53.9572   -7.5022   -2.0188 P   0  0  2  0  0  0  0  0  0  0  0  0
   55.1730   -5.3221   -7.4075 C   0  0  0  0  0  0  0  0  0  0  0  0
   55.0302   -6.3819   -6.4472 O   0  0  0  0  0  0  0  0  0  0  0  0
   56.4995   -4.5890   -7.2721 C   0  0  0  0  0  0  0  0  0  0  0  0
   56.4866   -3.3699   -8.0428 O   0  0  0  0  0  0  0  0  0  0  0  0
   56.7712   -4.2314   -5.8192 C   0  0  0  0  0  0  0  0  0  0  0  0
   57.9381   -4.9073   -5.3351 O   0  0  0  0  0  0  0  0  0  0  0  0
   56.9534   -2.7330   -5.7732 C   0  0  0  0  0  0  0  0  0  0  0  0
   58.2422   -2.3825   -5.2514 O   0  0  0  0  0  0  0  0  0  0  0  0
   56.7966   -2.2391   -7.2010 C   0  0  0  0  0  0  0  0  0  0  0  0
   54.4580    1.6479   -4.8583 N   0  0  0  0  0  0  0  0  0  0  0  0
   55.2905   -8.2593   -8.0884 O   0  5  0  0  0  0  0  0  0  0  0  0
   55.2817   -9.9728   -3.5756 O   0  5  0  0  0  0  0  0  0  0  0  0
   54.9369   -6.4171   -1.8090 O   0  5  0  0  0  0  0  0  0  0  0  0
   55.4983    0.8637   -4.4198 C   0  0  1  0  0  0  0  0  0  0  0  0
   55.9742    1.1395   -3.2129 N   0  0  0  0  0  0  0  0  0  0  0  0
   57.0799   -7.8223   -6.3099 O   0  0  0  0  0  0  0  0  0  0  0  0
   56.3902   -7.7127   -4.0372 O   0  0  0  0  0  0  0  0  0  0  0  0
   54.0738   -8.7615   -1.2541 O   0  0  0  0  0  0  0  0  0  0  0  0
   56.0280   -0.1294   -5.1297 N   0  0  0  0  0  0  0  0  0  0  0  0
   54.8663   -8.7528   -5.6972 O   0  0  0  0  0  0  0  0  0  0  0  0
   53.9567   -7.8704   -3.5683 O   0  0  0  0  0  0  0  0  0  0  0  0
   52.4823   -6.9056   -1.7968 O   0  0  0  0  0  0  0  0  0  0  0  0
   55.4228   -0.2765   -6.3307 C   0  0  2  0  0  0  0  0  0  0  0  0
   54.3740    0.4661   -6.8489 C   0  0  2  0  0  0  0  0  0  0  0  0
   53.8215    1.5194   -6.0798 C   0  0  1  0  0  0  0  0  0  0  0  0
   52.8868    2.2569   -6.3627 O   0  0  0  0  0  0  0  0  0  0  0  0
   54.0227    0.0096   -8.1238 N   0  0  0  0  0  0  0  0  0  0  0  0
   54.8631   -0.9590   -8.2900 C   0  0  0  0  0  0  0  0  0  0  0  0
   55.7388   -1.2135   -7.2859 N   0  0  0  0  0  0  0  0  0  0  0  0
  1  5  1  1  0  0  0
  1 14  1  0  0  0  0
  1 19  2  0  0  0  0
  2 15  1  1  0  0  0
  2 20  2  0  0  0  0
  2 23  1  0  0  0  0
  3 16  1  1  0  0  0
  3 21  2  0  0  0  0
  3 24  1  0  0  0  0
  3 25  1  0  0  0  0
  4  6  1  0  0  0  0
  5  4  1  0  0  0  0
  6  7  1  0  0  0  0
  6  8  2  0  0  0  0
  7 12  1  0  0  0  0
  8  9  1  0  0  0  0
  8 10  1  0  0  0  0
 10 11  1  0  0  0  0
 10 12  2  0  0  0  0
 12 32  1  0  0  0  0
 13 17  1  0  0  0  0
 17 18  1  1  0  0  0
 17 22  1  0  0  0  0
 23  1  1  0  0  0  0
 24  2  1  0  0  0  0
 26 22  1  1  0  0  0
 27 26  1  0  0  0  0
 27 28  1  0  0  0  0
 27 30  1  1  0  0  0
 28 13  1  0  0  0  0
 28 29  1  1  0  0  0
 31 30  1  0  0  0  0
 32 26  1  0  0  0  0
 32 31  1  0  0  0  0
M  CHG  3  14  -1  15  -1  16  -1
M  END
>  <CHROM.1>
-47.83140580,-137.61816551,70.71428381,-167.62352628,-83.71815963,154.61067649
-72.99464351,67.58012107,55.31981928,-4.53883636,-5.28615387,-1.60145805
1.18278078,-0.21817250

>  <Name>
2au4_lig

>  <RI>
0

>  <Rbt.Current_Directory>
/home/afrankz/demos/rdock_decoys_rna/rnas/2au4

>  <Rbt.Executable>
rbdock ($Id: //depot/dev/client3/rdock/2013.1/src/exe/rbdock.cxx#4 $)

>  <Rbt.Library>
libRbt.so (2013.1, Build901 2013/11/27)

>  <Rbt.Parameter_File>
/export/apps/rDock/src/rDock_2013.1_src/data/scripts/dock_solv.prm

>  <Rbt.Receptor>
prm/blind_docking_60.prm

>  <SCORE>
-15.8552

>  <SCORE.INTER>
-0.55448

>  <SCORE.INTER.CONST>
1

>  <SCORE.INTER.POLAR>
-0.964577

>  <SCORE.INTER.ROT>
8

>  <SCORE.INTER.SOLV>
40.06

>  <SCORE.INTER.VDW>
-19.441

>  <SCORE.INTER.norm>
-0.0173275

>  <SCORE.INTRA>
-22.4976

>  <SCORE.INTRA.DIHEDRAL>
-45.3173

>  <SCORE.INTRA.DIHEDRAL.0>
76.3625

>  <SCORE.INTRA.POLAR>
0

>  <SCORE.INTRA.POLAR.0>
0

>  <SCORE.INTRA.REPUL>
-0.12705

>  <SCORE.INTRA.REPUL.0>
0.12705

>  <SCORE.INTRA.SOLV>
-3.00745

>  <SCORE.INTRA.SOLV.lig_0>
-119.383

>  <SCORE.INTRA.VDW>
2.3

>  <SCORE.INTRA.VDW.0>
-5.10464

>  <SCORE.INTRA.norm>
-0.70305

>  <SCORE.RESTR>
7.19687

>  <SCORE.RESTR.CAVITY>
7.19687

>  <SCORE.RESTR.norm>
0.224902

>  <SCORE.SYSTEM>
0

>  <SCORE.SYSTEM.CONST>
0

>  <SCORE.SYSTEM.DIHEDRAL>
0

>  <SCORE.SYSTEM.SOLV>
0

>  <SCORE.SYSTEM.norm>
0

>  <SCORE.heavy>
32

>  <SCORE.norm>
-0.495475

>  <RMSD>
19.960

$$$$
2au4_lig
 OpenBabel11021811423D
libRbt.so/2013.1/901 2013/11/27
 32 34  0  0  0  0  0  0  0  0999 V2000
   56.6487   -7.4324   -5.5972 P   0  0  1  0  0  0  0  0  0  0  0  0
   54.6905   -8.5393   -4.0775 P   0  0  1  0  0  0  0  0  0  0  0  0
   54.0591   -7.5532   -1.6138 P   0  0  2  0  0  0  0  0  0  0  0  0
   56.0829   -5.0607   -6.6390 C   0  0  0  0  0  0  0  0  0  0  0  0
   55.7353   -6.1138   -5.7247 O   0  0  0  0  0  0  0  0  0  0  0  0
   56.9796   -4.0093   -6.0018 C   0  0  0  0  0  0  0  0  0  0  0  0
   57.5190   -3.1261   -7.0064 O   0  0  0  0  0  0  0  0  0  0  0  0
   56.1998   -3.1720   -5.0001 C   0  0  0  0  0  0  0  0  0  0  0  0
   56.7131   -3.3500   -3.6743 O   0  0  0  0  0  0  0  0  0  0  0  0
   56.3336   -1.7354   -5.4458 C   0  0  0  0  0  0  0  0  0  0  0  0
   56.9322   -0.9281   -4.4230 O   0  0  0  0  0  0  0  0  0  0  0  0
   57.1985   -1.7538   -6.6943 C   0  0  0  0  0  0  0  0  0  0  0  0
   53.4985    1.4673   -8.1091 N   0  0  0  0  0  0  0  0  0  0  0  0
   56.2517   -8.3843   -6.6541 O   0  5  0  0  0  0  0  0  0  0  0  0
   53.7951   -7.4332   -4.4686 O   0  5  0  0  0  0  0  0  0  0  0  0
   54.2738   -7.9180   -0.1988 O   0  5  0  0  0  0  0  0  0  0  0  0
   53.8815    1.0786   -6.8474 C   0  0  1  0  0  0  0  0  0  0  0  0
   53.1992    1.6032   -5.8382 N   0  0  0  0  0  0  0  0  0  0  0  0
   58.0618   -7.0171   -5.4667 O   0  0  0  0  0  0  0  0  0  0  0  0
   54.5896   -9.8492   -4.7537 O   0  0  0  0  0  0  0  0  0  0  0  0
   52.7162   -7.1456   -2.0766 O   0  0  0  0  0  0  0  0  0  0  0  0
   54.8723    0.2243   -6.6040 N   0  0  0  0  0  0  0  0  0  0  0  0
   56.1889   -8.0335   -4.2017 O   0  0  0  0  0  0  0  0  0  0  0  0
   54.5348   -8.7779   -2.5141 O   0  0  0  0  0  0  0  0  0  0  0  0
   55.1056   -6.3991   -2.0056 O   0  0  0  0  0  0  0  0  0  0  0  0
   55.4562   -0.2164   -7.7421 C   0  0  2  0  0  0  0  0  0  0  0  0
   55.1350    0.1223   -9.0467 C   0  0  2  0  0  0  0  0  0  0  0  0
   54.0773    1.0329   -9.2881 C   0  0  1  0  0  0  0  0  0  0  0  0
   53.6427    1.4244  -10.3629 O   0  0  0  0  0  0  0  0  0  0  0  0
   55.9671   -0.5431   -9.9533 N   0  0  0  0  0  0  0  0  0  0  0  0
   56.7206   -1.2269   -9.1555 C   0  0  0  0  0  0  0  0  0  0  0  0
   56.5014   -1.1059   -7.8224 N   0  0  0  0  0  0  0  0  0  0  0  0
  1  5  1  6  0  0  0
  1 14  1  0  0  0  0
  1 19  2  0  0  0  0
  2 15  1  6  0  0  0
  2 20  2  0  0  0  0
  2 23  1  0  0  0  0
  3 16  1  1  0  0  0
  3 21  2  0  0  0  0
  3 24  1  0  0  0  0
  3 25  1  0  0  0  0
  4  6  1  0  0  0  0
  5  4  1  0  0  0  0
  6  7  1  0  0  0  0
  6  8  2  0  0  0  0
  7 12  1  0  0  0  0
  8  9  1  0  0  0  0
  8 10  1  0  0  0  0
 10 11  1  0  0  0  0
 10 12  2  0  0  0  0
 12 32  1  0  0  0  0
 13 17  1  0  0  0  0
 17 18  1  6  0  0  0
 17 22  1  0  0  0  0
 23  1  1  0  0  0  0
 24  2  1  0  0  0  0
 26 22  1  6  0  0  0
 27 26  1  0  0  0  0
 27 28  1  0  0  0  0
 27 30  1  6  0  0  0
 28 13  1  0  0  0  0
 28 29  1  6  0  0  0
 31 30  1  0  0  0  0
 32 26  1  0  0  0  0
 32 31  1  0  0  0  0
M  CHG  3  14  -1  15  -1  16  -1
M  END
>  <CHROM.1>
-84.23363252,-54.71666134,-167.72588259,168.54014816,-90.15482590,141.17050835
64.79656010,-25.70963250,55.38220634,-4.31836897,-5.49597823,-1.59702608
0.98208459,-0.50289818

>  <Name>
2au4_lig

>  <RI>
0

>  <Rbt.Current_Directory>
/home/afrankz/demos/rdock_decoys_rna/rnas/2au4

>  <Rbt.Executable>
rbdock ($Id: //depot/dev/client3/rdock/2013.1/src/exe/rbdock.cxx#4 $)

>  <Rbt.Library>
libRbt.so (2013.1, Build901 2013/11/27)

>  <Rbt.Parameter_File>
/export/apps/rDock/src/rDock_2013.1_src/data/scripts/dock_solv.prm

>  <Rbt.Receptor>
prm/blind_docking_60.prm

>  <SCORE>
-24.0156

>  <SCORE.INTER>
-6.54815

>  <SCORE.INTER.CONST>
1

>  <SCORE.INTER.POLAR>
-0.699455

>  <SCORE.INTER.ROT>
8

>  <SCORE.INTER.SOLV>
30.9645

>  <SCORE.INTER.VDW>
-21.2888

>  <SCORE.INTER.norm>
-0.20463

>  <SCORE.INTRA>
-24.3135

>  <SCORE.INTRA.DIHEDRAL>
-44.2185

>  <SCORE.INTRA.DIHEDRAL.0>
76.3625

>  <SCORE.INTRA.POLAR>
0

>  <SCORE.INTRA.POLAR.0>
0

>  <SCORE.INTRA.REPUL>
-0.12705

>  <SCORE.INTRA.REPUL.0>
0.12705

>  <SCORE.INTRA.SOLV>
-5.83679

>  <SCORE.INTRA.SOLV.lig_0>
-119.383

>  <SCORE.INTRA.VDW>
1.34935

>  <SCORE.INTRA.VDW.0>
-5.10464

>  <SCORE.INTRA.norm>
-0.759798

>  <SCORE.RESTR>
6.84611

>  <SCORE.RESTR.CAVITY>
6.84611

>  <SCORE.RESTR.norm>
0.213941

>  <SCORE.SYSTEM>
0

>  <SCORE.SYSTEM.CONST>
0

>  <SCORE.SYSTEM.DIHEDRAL>
0

>  <SCORE.SYSTEM.SOLV>
0

>  <SCORE.SYSTEM.norm>
0

>  <SCORE.heavy>
32

>  <SCORE.norm>
-0.750486

>  <RMSD>
19.979

$$$$
2au4_lig
 OpenBabel11021811423D
libRbt.so/2013.1/901 2013/11/27
 32 34  0  0  0  0  0  0  0  0999 V2000
   66.4954  -11.5338    1.4801 P   0  0  1  0  0  0  0  0  0  0  0  0
   66.5989   -8.8579    1.9254 P   0  0  1  0  0  0  0  0  0  0  0  0
   68.6075   -7.6828    3.3485 P   0  0  2  0  0  0  0  0  0  0  0  0
   64.5405  -12.2044   -0.1811 C   0  0  0  0  0  0  0  0  0  0  0  0
   64.9492  -11.5562    1.0349 O   0  0  0  0  0  0  0  0  0  0  0  0
   63.1641  -12.8430   -0.0659 C   0  0  0  0  0  0  0  0  0  0  0  0
   63.1958  -13.9550    0.8521 O   0  0  0  0  0  0  0  0  0  0  0  0
   62.1439  -11.8356    0.4409 C   0  0  0  0  0  0  0  0  0  0  0  0
   61.1345  -11.5885   -0.5455 O   0  0  0  0  0  0  0  0  0  0  0  0
   61.5445  -12.4260    1.6948 C   0  0  0  0  0  0  0  0  0  0  0  0
   60.1241  -12.5772    1.5700 O   0  0  0  0  0  0  0  0  0  0  0  0
   62.2152  -13.7740    1.8956 C   0  0  0  0  0  0  0  0  0  0  0  0
   62.4293  -11.8161    6.6060 N   0  0  0  0  0  0  0  0  0  0  0  0
   66.5613  -11.5675    2.9549 O   0  5  0  0  0  0  0  0  0  0  0  0
   66.8454   -7.6207    1.1595 O   0  5  0  0  0  0  0  0  0  0  0  0
   69.5130   -8.0052    4.4698 O   0  5  0  0  0  0  0  0  0  0  0  0
   61.6466  -11.4409    5.5401 C   0  0  1  0  0  0  0  0  0  0  0  0
   60.8241  -10.4209    5.7450 N   0  0  0  0  0  0  0  0  0  0  0  0
   67.2309  -12.5381    0.6822 O   0  0  0  0  0  0  0  0  0  0  0  0
   65.2702   -9.1085    2.5215 O   0  0  0  0  0  0  0  0  0  0  0  0
   67.7321   -6.4945    3.4234 O   0  0  0  0  0  0  0  0  0  0  0  0
   61.6808  -12.0356    4.3501 N   0  0  0  0  0  0  0  0  0  0  0  0
   66.9678  -10.0951    1.0035 O   0  0  0  0  0  0  0  0  0  0  0  0
   67.6844   -8.9531    3.0820 O   0  0  0  0  0  0  0  0  0  0  0  0
   69.4786   -7.5903    2.0020 O   0  0  0  0  0  0  0  0  0  0  0  0
   62.5752  -13.0501    4.3129 C   0  0  2  0  0  0  0  0  0  0  0  0
   63.3993  -13.4925    5.3351 C   0  0  2  0  0  0  0  0  0  0  0  0
   63.3506  -12.8480    6.5955 C   0  0  1  0  0  0  0  0  0  0  0  0
   64.0153  -13.0844    7.5954 O   0  0  0  0  0  0  0  0  0  0  0  0
   64.1875  -14.5671    4.9097 N   0  0  0  0  0  0  0  0  0  0  0  0
   63.7979  -14.7015    3.6840 C   0  0  0  0  0  0  0  0  0  0  0  0
   62.8442  -13.8513    3.2286 N   0  0  0  0  0  0  0  0  0  0  0  0
  1  5  1  6  0  0  0
  1 14  1  0  0  0  0
  1 19  2  0  0  0  0
  2 15  1  6  0  0  0
  2 20  2  0  0  0  0
  2 23  1  0  0  0  0
  3 16  1  1  0  0  0
  3 21  2  0  0  0  0
  3 24  1  0  0  0  0
  3 25  1  0  0  0  0
  4  6  1  0  0  0  0
  5  4  1  0  0  0  0
  6  7  1  0  0  0  0
  6  8  2  0  0  0  0
  7 12  1  0  0  0  0
  8  9  1  0  0  0  0
  8 10  1  0  0  0  0
 10 11  1  0  0  0  0
 10 12  2  0  0  0  0
 12 32  1  0  0  0  0
 13 17  1  0  0  0  0
 17 18  1  6  0  0  0
 17 22  1  0  0  0  0
 23  1  1  0  0  0  0
 24  2  1  0  0  0  0
 26 22  1  6  0  0  0
 27 26  1  0  0  0  0
 27 28  1  0  0  0  0
 27 30  1  6  0  0  0
 28 13  1  0  0  0  0
 28 29  1  6  0  0  0
 31 30  1  0  0  0  0
 32 26  1  0  0  0  0
 32 31  1  0  0  0  0
M  CHG  3  14  -1  15  -1  16  -1
M  END
>  <CHROM.1>
-147.19965773,-167.00959396,179.26649787,-67.46095299,146.04777921,138.74535612
79.91021262,9.72225241,64.85265521,-11.09179040,2.80778589,0.08694888,-0.68007144
-1.61980427

>  <Name>
2au4_lig

>  <RI>
0

>  <Rbt.Current_Directory>
/home/itssahil/PROJECTS/Mol_Feturizer/New_Systems/rnas/2au4

>  <Rbt.Executable>
rbdock ($Id: //depot/dev/client3/rdock/2013.1/src/exe/rbdock.cxx#4 $)

>  <Rbt.Library>
libRbt.so (2013.1, Build901 2013/11/27)

>  <Rbt.Parameter_File>
/export/apps/rDock/src/rDock_2013.1_src/data/scripts/dock_solv.prm

>  <Rbt.Receptor>
prm/blind_docking_100.prm

>  <SCORE>
-46.5595

>  <SCORE.INTER>
-26.3134

>  <SCORE.INTER.CONST>
1

>  <SCORE.INTER.POLAR>
-3.51717

>  <SCORE.INTER.ROT>
8

>  <SCORE.INTER.SOLV>
23.69

>  <SCORE.INTER.VDW>
-22.6484

>  <SCORE.INTER.norm>
-0.822295

>  <SCORE.INTRA>
-21.1951

>  <SCORE.INTRA.DIHEDRAL>
-39.4772

>  <SCORE.INTRA.DIHEDRAL.0>
76.3625

>  <SCORE.INTRA.POLAR>
0

>  <SCORE.INTRA.POLAR.0>
0

>  <SCORE.INTRA.REPUL>
-0.12705

>  <SCORE.INTRA.REPUL.0>
0.12705

>  <SCORE.INTRA.SOLV>
-5.4558

>  <SCORE.INTRA.SOLV.lig_0>
-119.383

>  <SCORE.INTRA.VDW>
1.90667

>  <SCORE.INTRA.VDW.0>
-5.10464

>  <SCORE.INTRA.norm>
-0.662346

>  <SCORE.RESTR>
0.949033

>  <SCORE.RESTR.CAVITY>
0.949033

>  <SCORE.RESTR.norm>
0.0296573

>  <SCORE.SYSTEM>
0

>  <SCORE.SYSTEM.CONST>
0

>  <SCORE.SYSTEM.DIHEDRAL>
0

>  <SCORE.SYSTEM.SOLV>
0

>  <SCORE.SYSTEM.norm>
0

>  <SCORE.heavy>
32

>  <SCORE.norm>
-1.45498

>  <RMSD>
19.988

$$$$
2au4_lig
 OpenBabel11021811423D
libRbt.so/2013.1/901 2013/11/27
 32 34  0  0  0  0  0  0  0  0999 V2000
   55.7806   -7.2172   -5.6238 P   0  0  1  0  0  0  0  0  0  0  0  0
   54.4292   -8.9374   -4.0162 P   0  0  1  0  0  0  0  0  0  0  0  0
   53.9986   -7.5201   -1.7256 P   0  0  2  0  0  0  0  0  0  0  0  0
   55.7540   -5.6802   -7.7842 C   0  0  0  0  0  0  0  0  0  0  0  0
   55.8101   -7.0000   -7.2180 O   0  0  0  0  0  0  0  0  0  0  0  0
   56.9905   -4.8548   -7.4598 C   0  0  0  0  0  0  0  0  0  0  0  0
   57.0065   -3.6386   -8.2348 O   0  0  0  0  0  0  0  0  0  0  0  0
   57.0168   -4.4810   -5.9859 C   0  0  0  0  0  0  0  0  0  0  0  0
   58.1433   -5.0730   -5.3275 O   0  0  0  0  0  0  0  0  0  0  0  0
   57.0840   -2.9736   -5.9269 C   0  0  0  0  0  0  0  0  0  0  0  0
   58.2527   -2.5331   -5.2225 O   0  0  0  0  0  0  0  0  0  0  0  0
   57.1071   -2.4899   -7.3666 C   0  0  0  0  0  0  0  0  0  0  0  0
   54.2505    1.2928   -5.4701 N   0  0  0  0  0  0  0  0  0  0  0  0
   57.1499   -7.5261   -5.1653 O   0  5  0  0  0  0  0  0  0  0  0  0
   53.0677   -9.4984   -4.1144 O   0  5  0  0  0  0  0  0  0  0  0  0
   54.3669   -8.8381   -1.1702 O   0  5  0  0  0  0  0  0  0  0  0  0
   55.2769    0.5945   -4.8797 C   0  0  1  0  0  0  0  0  0  0  0  0
   55.5807    0.9364   -3.6348 N   0  0  0  0  0  0  0  0  0  0  0  0
   55.0269   -6.1033   -5.0095 O   0  0  0  0  0  0  0  0  0  0  0  0
   55.5087   -9.7187   -3.3775 O   0  0  0  0  0  0  0  0  0  0  0  0
   52.6213   -7.0090   -1.5655 O   0  0  0  0  0  0  0  0  0  0  0  0
   55.9534   -0.3798   -5.4830 N   0  0  0  0  0  0  0  0  0  0  0  0
   54.9074   -8.5346   -5.4741 O   0  0  0  0  0  0  0  0  0  0  0  0
   54.3374   -7.5311   -3.2818 O   0  0  0  0  0  0  0  0  0  0  0  0
   55.0201   -6.4223   -1.1494 O   0  0  0  0  0  0  0  0  0  0  0  0
   55.5123   -0.6021   -6.7426 C   0  0  2  0  0  0  0  0  0  0  0  0
   54.4902    0.0519   -7.4114 C   0  0  2  0  0  0  0  0  0  0  0  0
   53.7799    1.0863   -6.7544 C   0  0  1  0  0  0  0  0  0  0  0  0
   52.8419    1.7497   -7.1758 O   0  0  0  0  0  0  0  0  0  0  0  0
   54.3297   -0.4636   -8.7020 N   0  0  0  0  0  0  0  0  0  0  0  0
   55.2449   -1.3767   -8.7290 C   0  0  0  0  0  0  0  0  0  0  0  0
   56.0041   -1.5420   -7.6172 N   0  0  0  0  0  0  0  0  0  0  0  0
  1  5  1  6  0  0  0
  1 14  1  0  0  0  0
  1 19  2  0  0  0  0
  2 15  1  6  0  0  0
  2 20  2  0  0  0  0
  2 23  1  0  0  0  0
  3 16  1  1  0  0  0
  3 21  2  0  0  0  0
  3 24  1  0  0  0  0
  3 25  1  0  0  0  0
  4  6  1  0  0  0  0
  5  4  1  0  0  0  0
  6  7  1  0  0  0  0
  6  8  2  0  0  0  0
  7 12  1  0  0  0  0
  8  9  1  0  0  0  0
  8 10  1  0  0  0  0
 10 11  1  0  0  0  0
 10 12  2  0  0  0  0
 12 32  1  0  0  0  0
 13 17  1  0  0  0  0
 17 18  1  1  0  0  0
 17 22  1  0  0  0  0
 23  1  1  0  0  0  0
 24  2  1  0  0  0  0
 26 22  1  1  0  0  0
 27 26  1  0  0  0  0
 27 28  1  0  0  0  0
 27 30  1  1  0  0  0
 28 13  1  0  0  0  0
 28 29  1  1  0  0  0
 31 30  1  0  0  0  0
 32 26  1  0  0  0  0
 32 31  1  0  0  0  0
M  CHG  3  14  -1  15  -1  16  -1
M  END
>  <CHROM.1>
-103.28062068,142.91927909,22.60073345,169.74517011,66.23284250,156.85693054
-169.32696113,70.77330984,55.30352165,-4.65966728,-5.22055207,-1.69472838
1.04157988,-0.28988460

>  <Name>
2au4_lig

>  <RI>
0

>  <Rbt.Current_Directory>
/home/afrankz/demos/rdock_decoys_rna/rnas/2au4

>  <Rbt.Executable>
rbdock ($Id: //depot/dev/client3/rdock/2013.1/src/exe/rbdock.cxx#4 $)

>  <Rbt.Library>
libRbt.so (2013.1, Build901 2013/11/27)

>  <Rbt.Parameter_File>
/export/apps/rDock/src/rDock_2013.1_src/data/scripts/dock_solv.prm

>  <Rbt.Receptor>
prm/blind_docking_60.prm

>  <SCORE>
-18.0407

>  <SCORE.INTER>
-4.02934

>  <SCORE.INTER.CONST>
1

>  <SCORE.INTER.POLAR>
-0.751547

>  <SCORE.INTER.ROT>
8

>  <SCORE.INTER.SOLV>
29.4553

>  <SCORE.INTER.VDW>
-18.9328

>  <SCORE.INTER.norm>
-0.125917

>  <SCORE.INTRA>
-19.8341

>  <SCORE.INTRA.DIHEDRAL>
-45.1505

>  <SCORE.INTRA.DIHEDRAL.0>
76.3625

>  <SCORE.INTRA.POLAR>
0

>  <SCORE.INTRA.POLAR.0>
0

>  <SCORE.INTRA.REPUL>
-0.12705

>  <SCORE.INTRA.REPUL.0>
0.12705

>  <SCORE.INTRA.SOLV>
-0.0353585

>  <SCORE.INTRA.SOLV.lig_0>
-119.383

>  <SCORE.INTRA.VDW>
3.39413

>  <SCORE.INTRA.VDW.0>
-5.10464

>  <SCORE.INTRA.norm>
-0.619814

>  <SCORE.RESTR>
5.82274

>  <SCORE.RESTR.CAVITY>
5.82274

>  <SCORE.RESTR.norm>
0.18196

>  <SCORE.SYSTEM>
0

>  <SCORE.SYSTEM.CONST>
0

>  <SCORE.SYSTEM.DIHEDRAL>
0

>  <SCORE.SYSTEM.SOLV>
0

>  <SCORE.SYSTEM.norm>
0

>  <SCORE.heavy>
32

>  <SCORE.norm>
-0.563771

>  <RMSD>
19.994

$$$$
2au4_lig
 OpenBabel11021811423D
libRbt.so/2013.1/901 2013/11/27
 32 34  0  0  0  0  0  0  0  0999 V2000
   55.9590   -7.5497   -6.0469 P   0  0  1  0  0  0  0  0  0  0  0  0
   54.4346   -9.1021   -4.4234 P   0  0  1  0  0  0  0  0  0  0  0  0
   53.8945   -7.4499   -2.3211 P   0  0  2  0  0  0  0  0  0  0  0  0
   55.1627   -5.3437   -7.2838 C   0  0  0  0  0  0  0  0  0  0  0  0
   54.9800   -6.2833   -6.2117 O   0  0  0  0  0  0  0  0  0  0  0  0
   56.4943   -4.6126   -7.1962 C   0  0  0  0  0  0  0  0  0  0  0  0
   56.4675   -3.4118   -7.9948 O   0  0  0  0  0  0  0  0  0  0  0  0
   56.8006   -4.2221   -5.7587 C   0  0  0  0  0  0  0  0  0  0  0  0
   57.9762   -4.8909   -5.2858 O   0  0  0  0  0  0  0  0  0  0  0  0
   56.9887   -2.7238   -5.7521 C   0  0  0  0  0  0  0  0  0  0  0  0
   58.2903   -2.3660   -5.2684 O   0  0  0  0  0  0  0  0  0  0  0  0
   56.8005   -2.2629   -7.1871 C   0  0  0  0  0  0  0  0  0  0  0  0
   54.4571    1.6165   -4.8365 N   0  0  0  0  0  0  0  0  0  0  0  0
   56.6947   -7.7440   -7.3125 O   0  5  0  0  0  0  0  0  0  0  0  0
   53.2797  -10.0141   -4.5353 O   0  5  0  0  0  0  0  0  0  0  0  0
   53.6212   -8.7418   -1.6596 O   0  5  0  0  0  0  0  0  0  0  0  0
   55.4947    0.8291   -4.3973 C   0  0  1  0  0  0  0  0  0  0  0  0
   55.9660    1.0988   -3.1873 N   0  0  0  0  0  0  0  0  0  0  0  0
   56.6980   -7.4126   -4.7736 O   0  0  0  0  0  0  0  0  0  0  0  0
   55.6089   -9.4888   -3.6140 O   0  0  0  0  0  0  0  0  0  0  0  0
   53.0249   -6.2849   -2.0557 O   0  0  0  0  0  0  0  0  0  0  0  0
   56.0261   -0.1615   -5.1095 N   0  0  0  0  0  0  0  0  0  0  0  0
   54.9368   -8.7539   -5.8872 O   0  0  0  0  0  0  0  0  0  0  0  0
   53.9117   -7.6978   -3.8943 O   0  0  0  0  0  0  0  0  0  0  0  0
   55.4147   -7.0324   -2.0126 O   0  0  0  0  0  0  0  0  0  0  0  0
   55.4255   -0.3025   -6.3137 C   0  0  2  0  0  0  0  0  0  0  0  0
   54.3798    0.4437   -6.8327 C   0  0  2  0  0  0  0  0  0  0  0  0
   53.8255    1.4943   -6.0612 C   0  0  1  0  0  0  0  0  0  0  0  0
   52.8929    2.2342   -6.3446 O   0  0  0  0  0  0  0  0  0  0  0  0
   54.0331   -0.0066   -8.1111 N   0  0  0  0  0  0  0  0  0  0  0  0
   54.8730   -0.9754   -8.2782 C   0  0  0  0  0  0  0  0  0  0  0  0
   55.7443   -1.2355   -7.2717 N   0  0  0  0  0  0  0  0  0  0  0  0
  1  5  1  6  0  0  0
  1 14  1  0  0  0  0
  1 19  2  0  0  0  0
  2 15  1  1  0  0  0
  2 20  2  0  0  0  0
  2 23  1  0  0  0  0
  3 16  1  1  0  0  0
  3 21  2  0  0  0  0
  3 24  1  0  0  0  0
  3 25  1  0  0  0  0
  4  6  1  0  0  0  0
  5  4  1  0  0  0  0
  6  7  1  0  0  0  0
  6  8  2  0  0  0  0
  7 12  1  0  0  0  0
  8  9  1  0  0  0  0
  8 10  1  0  0  0  0
 10 11  1  0  0  0  0
 10 12  2  0  0  0  0
 12 32  1  0  0  0  0
 13 17  1  0  0  0  0
 17 18  1  1  0  0  0
 17 22  1  0  0  0  0
 23  1  1  0  0  0  0
 24  2  1  0  0  0  0
 26 22  1  1  0  0  0
 27 26  1  0  0  0  0
 27 28  1  0  0  0  0
 27 30  1  1  0  0  0
 28 13  1  0  0  0  0
 28 29  1  1  0  0  0
 31 30  1  0  0  0  0
 32 26  1  0  0  0  0
 32 31  1  0  0  0  0
M  CHG  3  14  -1  15  -1  16  -1
M  END
>  <CHROM.1>
-16.34797137,166.92031195,-32.54921806,-161.53067081,-63.27478047,152.37661602
-88.33236573,91.04031601,55.25254136,-4.57538740,-5.24496145,-1.65748124
1.05390860,-0.16299020

>  <Name>
2au4_lig

>  <RI>
0

>  <Rbt.Current_Directory>
/home/afrankz/demos/rdock_decoys_rna/rnas/2au4

>  <Rbt.Executable>
rbdock ($Id: //depot/dev/client3/rdock/2013.1/src/exe/rbdock.cxx#4 $)

>  <Rbt.Library>
libRbt.so (2013.1, Build901 2013/11/27)

>  <Rbt.Parameter_File>
/export/apps/rDock/src/rDock_2013.1_src/data/scripts/dock_solv.prm

>  <Rbt.Receptor>
prm/blind_docking_60.prm

>  <SCORE>
-17.3722

>  <SCORE.INTER>
-0.702769

>  <SCORE.INTER.CONST>
1

>  <SCORE.INTER.POLAR>
-0.714263

>  <SCORE.INTER.ROT>
8

>  <SCORE.INTER.SOLV>
30.8432

>  <SCORE.INTER.VDW>
-17.302

>  <SCORE.INTER.norm>
-0.0219615

>  <SCORE.INTRA>
-22.6041

>  <SCORE.INTRA.DIHEDRAL>
-46.0036

>  <SCORE.INTRA.DIHEDRAL.0>
76.3625

>  <SCORE.INTRA.POLAR>
0

>  <SCORE.INTRA.POLAR.0>
0

>  <SCORE.INTRA.REPUL>
0.0821254

>  <SCORE.INTRA.REPUL.0>
0.12705

>  <SCORE.INTRA.SOLV>
-2.32088

>  <SCORE.INTRA.SOLV.lig_0>
-119.383

>  <SCORE.INTRA.VDW>
1.14752

>  <SCORE.INTRA.VDW.0>
-5.10464

>  <SCORE.INTRA.norm>
-0.706377

>  <SCORE.RESTR>
5.93461

>  <SCORE.RESTR.CAVITY>
5.93461

>  <SCORE.RESTR.norm>
0.185457

>  <SCORE.SYSTEM>
0

>  <SCORE.SYSTEM.CONST>
0

>  <SCORE.SYSTEM.DIHEDRAL>
0

>  <SCORE.SYSTEM.SOLV>
0

>  <SCORE.SYSTEM.norm>
0

>  <SCORE.heavy>
32

>  <SCORE.norm>
-0.542882

>  <RMSD>
19.994

$$$$
2au4_lig
 OpenBabel11021811423D
libRbt.so/2013.1/901 2013/11/27
 32 34  0  0  0  0  0  0  0  0999 V2000
   56.3075   -7.5189   -5.2740 P   0  0  1  0  0  0  0  0  0  0  0  0
   54.6514   -8.8436   -3.5792 P   0  0  1  0  0  0  0  0  0  0  0  0
   54.0355   -7.4022   -1.3468 P   0  0  2  0  0  0  0  0  0  0  0  0
   55.9086   -5.1169   -6.3236 C   0  0  0  0  0  0  0  0  0  0  0  0
   55.5188   -6.1196   -5.3705 O   0  0  0  0  0  0  0  0  0  0  0  0
   56.8458   -4.0782   -5.7251 C   0  0  0  0  0  0  0  0  0  0  0  0
   57.4098   -3.2473   -6.7603 O   0  0  0  0  0  0  0  0  0  0  0  0
   56.1023   -3.1821   -4.7469 C   0  0  0  0  0  0  0  0  0  0  0  0
   56.6172   -3.3358   -3.4187 O   0  0  0  0  0  0  0  0  0  0  0  0
   56.2841   -1.7662   -5.2392 C   0  0  0  0  0  0  0  0  0  0  0  0
   56.9172   -0.9484   -4.2460 O   0  0  0  0  0  0  0  0  0  0  0  0
   57.1400   -1.8552   -6.4909 C   0  0  0  0  0  0  0  0  0  0  0  0
   53.5331    1.4326   -7.9900 N   0  0  0  0  0  0  0  0  0  0  0  0
   55.6857   -8.4756   -6.2115 O   0  5  0  0  0  0  0  0  0  0  0  0
   53.5299   -8.1167   -4.2052 O   0  5  0  0  0  0  0  0  0  0  0  0
   54.1304   -7.5435    0.1203 O   0  5  0  0  0  0  0  0  0  0  0  0
   53.9079    1.0689   -6.7185 C   0  0  1  0  0  0  0  0  0  0  0  0
   53.2442    1.6420   -5.7234 N   0  0  0  0  0  0  0  0  0  0  0  0
   57.7594   -7.2484   -5.3456 O   0  0  0  0  0  0  0  0  0  0  0  0
   54.9321  -10.2435   -3.9599 O   0  0  0  0  0  0  0  0  0  0  0  0
   52.7627   -6.9805   -1.9681 O   0  0  0  0  0  0  0  0  0  0  0  0
   54.8736    0.1928   -6.4527 N   0  0  0  0  0  0  0  0  0  0  0  0
   55.9756   -7.9976   -3.7972 O   0  0  0  0  0  0  0  0  0  0  0  0
   54.4625   -8.7895   -2.0023 O   0  0  0  0  0  0  0  0  0  0  0  0
   55.1969   -6.4070   -1.8378 O   0  0  0  0  0  0  0  0  0  0  0  0
   55.4412   -0.2973   -7.5789 C   0  0  2  0  0  0  0  0  0  0  0  0
   55.1265    0.0135   -8.8919 C   0  0  2  0  0  0  0  0  0  0  0  0
   54.0955    0.9478   -9.1572 C   0  0  1  0  0  0  0  0  0  0  0  0
   53.6697    1.3212  -10.2420 O   0  0  0  0  0  0  0  0  0  0  0  0
   55.9359   -0.7020   -9.7808 N   0  0  0  0  0  0  0  0  0  0  0  0
   56.6712   -1.3848   -8.9652 C   0  0  0  0  0  0  0  0  0  0  0  0
   56.4593   -1.2194   -7.6358 N   0  0  0  0  0  0  0  0  0  0  0  0
  1  5  1  6  0  0  0
  1 14  1  0  0  0  0
  1 19  2  0  0  0  0
  2 15  1  6  0  0  0
  2 20  2  0  0  0  0
  2 23  1  0  0  0  0
  3 16  1  1  0  0  0
  3 21  2  0  0  0  0
  3 24  1  0  0  0  0
  3 25  1  0  0  0  0
  4  6  1  0  0  0  0
  5  4  1  0  0  0  0
  6  7  1  0  0  0  0
  6  8  2  0  0  0  0
  7 12  1  0  0  0  0
  8  9  1  0  0  0  0
  8 10  1  0  0  0  0
 10 11  1  0  0  0  0
 10 12  2  0  0  0  0
 12 32  1  0  0  0  0
 13 17  1  0  0  0  0
 17 18  1  6  0  0  0
 17 22  1  0  0  0  0
 23  1  1  0  0  0  0
 24  2  1  0  0  0  0
 26 22  1  6  0  0  0
 27 26  1  0  0  0  0
 27 28  1  0  0  0  0
 27 30  1  6  0  0  0
 28 13  1  0  0  0  0
 28 29  1  6  0  0  0
 31 30  1  0  0  0  0
 32 26  1  0  0  0  0
 32 31  1  0  0  0  0
M  CHG  3  14  -1  15  -1  16  -1
M  END
>  <CHROM.1>
-88.68592475,-51.02582372,-171.25383803,169.12903161,-95.18922184,140.73670086
87.55056081,-43.72696153,55.29832899,-4.39245542,-5.22686580,-1.61866361
1.07107464,-0.49437303

>  <Name>
2au4_lig

>  <RI>
0

>  <Rbt.Current_Directory>
/home/afrankz/demos/rdock_decoys_rna/rnas/2au4

>  <Rbt.Executable>
rbdock ($Id: //depot/dev/client3/rdock/2013.1/src/exe/rbdock.cxx#4 $)

>  <Rbt.Library>
libRbt.so (2013.1, Build901 2013/11/27)

>  <Rbt.Parameter_File>
/export/apps/rDock/src/rDock_2013.1_src/data/scripts/dock_solv.prm

>  <Rbt.Receptor>
prm/blind_docking_60.prm

>  <SCORE>
-25.0429

>  <SCORE.INTER>
-8.43328

>  <SCORE.INTER.CONST>
1

>  <SCORE.INTER.POLAR>
-0.811898

>  <SCORE.INTER.ROT>
8

>  <SCORE.INTER.SOLV>
31.1892

>  <SCORE.INTER.VDW>
-22.2456

>  <SCORE.INTER.norm>
-0.26354

>  <SCORE.INTRA>
-23.6605

>  <SCORE.INTRA.DIHEDRAL>
-42.7599

>  <SCORE.INTRA.DIHEDRAL.0>
76.3625

>  <SCORE.INTRA.POLAR>
0

>  <SCORE.INTRA.POLAR.0>
0

>  <SCORE.INTRA.REPUL>
-0.12705

>  <SCORE.INTRA.REPUL.0>
0.12705

>  <SCORE.INTRA.SOLV>
-6.01055

>  <SCORE.INTRA.SOLV.lig_0>
-119.383

>  <SCORE.INTRA.VDW>
1.35996

>  <SCORE.INTRA.VDW.0>
-5.10464

>  <SCORE.INTRA.norm>
-0.739391

>  <SCORE.RESTR>
7.05094

>  <SCORE.RESTR.CAVITY>
7.05094

>  <SCORE.RESTR.norm>
0.220342

>  <SCORE.SYSTEM>
0

>  <SCORE.SYSTEM.CONST>
0

>  <SCORE.SYSTEM.DIHEDRAL>
0

>  <SCORE.SYSTEM.SOLV>
0

>  <SCORE.SYSTEM.norm>
0

>  <SCORE.heavy>
32

>  <SCORE.norm>
-0.78259

>  <RMSD>
19.996

$$$$
2au4_lig
 OpenBabel11021811423D
libRbt.so/2013.1/901 2013/11/27
 32 34  0  0  0  0  0  0  0  0999 V2000
   56.3432   -7.6133   -6.3328 P   0  0  1  0  0  0  0  0  0  0  0  0
   54.4936   -8.3332   -4.4807 P   0  0  1  0  0  0  0  0  0  0  0  0
   54.1216   -7.5144   -1.9055 P   0  0  2  0  0  0  0  0  0  0  0  0
   56.0929   -4.9940   -6.0054 C   0  0  0  0  0  0  0  0  0  0  0  0
   56.3872   -6.2794   -5.4337 O   0  0  0  0  0  0  0  0  0  0  0  0
   56.9651   -3.8878   -5.4301 C   0  0  0  0  0  0  0  0  0  0  0  0
   57.4783   -3.0466   -6.4834 O   0  0  0  0  0  0  0  0  0  0  0  0
   56.1682   -3.0176   -4.4709 C   0  0  0  0  0  0  0  0  0  0  0  0
   56.6907   -3.1111   -3.1401 O   0  0  0  0  0  0  0  0  0  0  0  0
   56.2640   -1.6041   -4.9937 C   0  0  0  0  0  0  0  0  0  0  0  0
   56.8458   -0.7282   -4.0188 O   0  0  0  0  0  0  0  0  0  0  0  0
   57.1244   -1.6680   -6.2438 C   0  0  0  0  0  0  0  0  0  0  0  0
   53.4446    1.5034   -7.8149 N   0  0  0  0  0  0  0  0  0  0  0  0
   55.3286   -7.4348   -7.3908 O   0  5  0  0  0  0  0  0  0  0  0  0
   54.0238   -7.0040   -4.9172 O   0  5  0  0  0  0  0  0  0  0  0  0
   54.4762   -8.0766   -0.5866 O   0  5  0  0  0  0  0  0  0  0  0  0
   53.8567    1.2104   -6.5366 C   0  0  1  0  0  0  0  0  0  0  0  0
   53.2136    1.8288   -5.5553 N   0  0  0  0  0  0  0  0  0  0  0  0
   57.7283   -7.9878   -6.6898 O   0  0  0  0  0  0  0  0  0  0  0  0
   53.5802   -9.4939   -4.5256 O   0  0  0  0  0  0  0  0  0  0  0  0
   52.7269   -7.5856   -2.3888 O   0  0  0  0  0  0  0  0  0  0  0  0
   54.8383    0.3584   -6.2515 N   0  0  0  0  0  0  0  0  0  0  0  0
   55.7959   -8.6972   -5.3101 O   0  0  0  0  0  0  0  0  0  0  0  0
   55.0529   -8.2026   -2.9990 O   0  0  0  0  0  0  0  0  0  0  0  0
   54.5989   -5.9811   -1.9494 O   0  0  0  0  0  0  0  0  0  0  0  0
   55.3810   -0.1850   -7.3655 C   0  0  2  0  0  0  0  0  0  0  0  0
   55.0285    0.0536   -8.6840 C   0  0  2  0  0  0  0  0  0  0  0  0
   53.9811    0.9632   -8.9699 C   0  0  1  0  0  0  0  0  0  0  0  0
   53.5229    1.2753  -10.0608 O   0  0  0  0  0  0  0  0  0  0  0  0
   55.8217   -0.7001   -9.5558 N   0  0  0  0  0  0  0  0  0  0  0  0
   56.5854   -1.3324   -8.7258 C   0  0  0  0  0  0  0  0  0  0  0  0
   56.4070   -1.0994   -7.4015 N   0  0  0  0  0  0  0  0  0  0  0  0
  1  5  1  1  0  0  0
  1 14  1  0  0  0  0
  1 19  2  0  0  0  0
  2 15  1  6  0  0  0
  2 20  2  0  0  0  0
  2 23  1  0  0  0  0
  3 16  1  1  0  0  0
  3 21  2  0  0  0  0
  3 24  1  0  0  0  0
  3 25  1  0  0  0  0
  4  6  1  0  0  0  0
  5  4  1  0  0  0  0
  6  7  1  0  0  0  0
  6  8  2  0  0  0  0
  7 12  1  0  0  0  0
  8  9  1  0  0  0  0
  8 10  1  0  0  0  0
 10 11  1  0  0  0  0
 10 12  2  0  0  0  0
 12 32  1  0  0  0  0
 13 17  1  0  0  0  0
 17 18  1  1  0  0  0
 17 22  1  0  0  0  0
 23  1  1  0  0  0  0
 24  2  1  0  0  0  0
 26 22  1  1  0  0  0
 27 26  1  0  0  0  0
 27 28  1  0  0  0  0
 27 30  1  1  0  0  0
 28 13  1  0  0  0  0
 28 29  1  1  0  0  0
 31 30  1  0  0  0  0
 32 26  1  0  0  0  0
 32 31  1  0  0  0  0
M  CHG  3  14  -1  15  -1  16  -1
M  END
>  <CHROM.1>
-30.94036011,2.44959352,151.93487720,134.35318426,-142.99124405,144.46769020
49.70442319,51.67694793,55.27513035,-4.27510374,-5.49759430,-1.61182253,1.20725082
-0.40218960

>  <Name>
2au4_lig

>  <RI>
0

>  <Rbt.Current_Directory>
/home/afrankz/demos/rdock_decoys_rna/rnas/2au4

>  <Rbt.Executable>
rbdock ($Id: //depot/dev/client3/rdock/2013.1/src/exe/rbdock.cxx#4 $)

>  <Rbt.Library>
libRbt.so (2013.1, Build901 2013/11/27)

>  <Rbt.Parameter_File>
/export/apps/rDock/src/rDock_2013.1_src/data/scripts/dock_solv.prm

>  <Rbt.Receptor>
prm/blind_docking_60.prm

>  <SCORE>
-18.5291

>  <SCORE.INTER>
-4.75526

>  <SCORE.INTER.CONST>
1

>  <SCORE.INTER.POLAR>
-0.389219

>  <SCORE.INTER.ROT>
8

>  <SCORE.INTER.SOLV>
26.2228

>  <SCORE.INTER.VDW>
-19.5471

>  <SCORE.INTER.norm>
-0.148602

>  <SCORE.INTRA>
-21.193

>  <SCORE.INTRA.DIHEDRAL>
-40.3736

>  <SCORE.INTRA.DIHEDRAL.0>
76.3625

>  <SCORE.INTRA.POLAR>
0

>  <SCORE.INTRA.POLAR.0>
0

>  <SCORE.INTRA.REPUL>
-0.12705

>  <SCORE.INTRA.REPUL.0>
0.12705

>  <SCORE.INTRA.SOLV>
-5.77709

>  <SCORE.INTRA.SOLV.lig_0>
-119.383

>  <SCORE.INTRA.VDW>
2.5176

>  <SCORE.INTRA.VDW.0>
-5.10464

>  <SCORE.INTRA.norm>
-0.662281

>  <SCORE.RESTR>
7.41917

>  <SCORE.RESTR.CAVITY>
7.41917

>  <SCORE.RESTR.norm>
0.231849

>  <SCORE.SYSTEM>
0

>  <SCORE.SYSTEM.CONST>
0

>  <SCORE.SYSTEM.DIHEDRAL>
0

>  <SCORE.SYSTEM.SOLV>
0

>  <SCORE.SYSTEM.norm>
0

>  <SCORE.heavy>
32

>  <SCORE.norm>
-0.579034

>  <RMSD>
19.998

$$$$
2au4_lig
 OpenBabel11021811423D
libRbt.so/2013.1/901 2013/11/27
 32 34  0  0  0  0  0  0  0  0999 V2000
   55.9938   -7.5085   -5.3260 P   0  0  1  0  0  0  0  0  0  0  0  0
   54.2973   -8.6549   -3.5436 P   0  0  1  0  0  0  0  0  0  0  0  0
   53.9225   -7.3564   -1.1742 P   0  0  2  0  0  0  0  0  0  0  0  0
   56.3012   -5.4106   -6.9182 C   0  0  0  0  0  0  0  0  0  0  0  0
   55.4565   -6.1680   -6.0358 O   0  0  0  0  0  0  0  0  0  0  0  0
   57.1356   -4.3752   -6.1785 C   0  0  0  0  0  0  0  0  0  0  0  0
   57.9056   -3.5859   -7.1082 O   0  0  0  0  0  0  0  0  0  0  0  0
   56.2448   -3.4364   -5.3801 C   0  0  0  0  0  0  0  0  0  0  0  0
   56.4964   -3.5630   -3.9752 O   0  0  0  0  0  0  0  0  0  0  0  0
   56.5525   -2.0391   -5.8629 C   0  0  0  0  0  0  0  0  0  0  0  0
   57.0084   -1.2069   -4.7879 O   0  0  0  0  0  0  0  0  0  0  0  0
   57.6260   -2.1814   -6.9280 C   0  0  0  0  0  0  0  0  0  0  0  0
   54.2353    0.8774   -9.2112 N   0  0  0  0  0  0  0  0  0  0  0  0
   55.4680   -8.6750   -6.0634 O   0  5  0  0  0  0  0  0  0  0  0  0
   53.5287   -9.0140   -4.7513 O   0  5  0  0  0  0  0  0  0  0  0  0
   54.4283   -8.4664   -0.3416 O   0  5  0  0  0  0  0  0  0  0  0  0
   54.3244    0.5057   -7.8907 C   0  0  1  0  0  0  0  0  0  0  0  0
   53.4012    1.0005   -7.0772 N   0  0  0  0  0  0  0  0  0  0  0  0
   57.4480   -7.3709   -5.0967 O   0  0  0  0  0  0  0  0  0  0  0  0
   55.0807   -9.6848   -2.8300 O   0  0  0  0  0  0  0  0  0  0  0  0
   52.9367   -6.4056   -0.6192 O   0  0  0  0  0  0  0  0  0  0  0  0
   55.2641   -0.3052   -7.4111 N   0  0  0  0  0  0  0  0  0  0  0  0
   55.2730   -7.4598   -3.9124 O   0  0  0  0  0  0  0  0  0  0  0  0
   53.3039   -7.9812   -2.5023 O   0  0  0  0  0  0  0  0  0  0  0  0
   55.1791   -6.5228   -1.7280 O   0  0  0  0  0  0  0  0  0  0  0  0
   56.1190   -0.7205   -8.3740 C   0  0  2  0  0  0  0  0  0  0  0  0
   56.1021   -0.3960   -9.7210 C   0  0  2  0  0  0  0  0  0  0  0  0
   55.0946    0.4682  -10.2152 C   0  0  1  0  0  0  0  0  0  0  0  0
   54.9110    0.8406  -11.3663 O   0  0  0  0  0  0  0  0  0  0  0  0
   57.1522   -1.0252  -10.3981 N   0  0  0  0  0  0  0  0  0  0  0  0
   57.7232   -1.6758   -9.4376 C   0  0  0  0  0  0  0  0  0  0  0  0
   57.1896   -1.5643   -8.1956 N   0  0  0  0  0  0  0  0  0  0  0  0
  1  5  1  6  0  0  0
  1 14  1  0  0  0  0
  1 19  2  0  0  0  0
  2 15  1  6  0  0  0
  2 20  2  0  0  0  0
  2 23  1  0  0  0  0
  3 16  1  1  0  0  0
  3 21  2  0  0  0  0
  3 24  1  0  0  0  0
  3 25  1  0  0  0  0
  4  6  1  0  0  0  0
  5  4  1  0  0  0  0
  6  7  1  0  0  0  0
  6  8  2  0  0  0  0
  7 12  1  0  0  0  0
  8  9  1  0  0  0  0
  8 10  1  0  0  0  0
 10 11  1  0  0  0  0
 10 12  2  0  0  0  0
 12 32  1  0  0  0  0
 13 17  1  0  0  0  0
 17 18  1  6  0  0  0
 17 22  1  0  0  0  0
 23  1  1  0  0  0  0
 24  2  1  0  0  0  0
 26 22  1  6  0  0  0
 27 26  1  0  0  0  0
 27 28  1  0  0  0  0
 27 30  1  6  0  0  0
 28 13  1  0  0  0  0
 28 29  1  6  0  0  0
 31 30  1  0  0  0  0
 32 26  1  0  0  0  0
 32 31  1  0  0  0  0
M  CHG  3  14  -1  15  -1  16  -1
M  END
>  <CHROM.1>
-100.99993188,-39.99484112,-68.47251236,-176.53603967,-88.04580537,133.82925539
119.40774516,-173.39100212,55.47838815,-4.56726401,-5.58027741,-1.83052214
1.03456611,-0.44788443

>  <Name>
2au4_lig

>  <RI>
0

>  <Rbt.Current_Directory>
/home/afrankz/demos/rdock_decoys_rna/rnas/2au4

>  <Rbt.Executable>
rbdock ($Id: //depot/dev/client3/rdock/2013.1/src/exe/rbdock.cxx#4 $)

>  <Rbt.Library>
libRbt.so (2013.1, Build901 2013/11/27)

>  <Rbt.Parameter_File>
/export/apps/rDock/src/rDock_2013.1_src/data/scripts/dock_solv.prm

>  <Rbt.Receptor>
prm/blind_docking_60.prm

>  <SCORE>
-17.6204

>  <SCORE.INTER>
-6.68623

>  <SCORE.INTER.CONST>
1

>  <SCORE.INTER.POLAR>
-0.87178

>  <SCORE.INTER.ROT>
8

>  <SCORE.INTER.SOLV>
27.8892

>  <SCORE.INTER.VDW>
-19.7813

>  <SCORE.INTER.norm>
-0.208945

>  <SCORE.INTRA>
-17.678

>  <SCORE.INTRA.DIHEDRAL>
-38.7561

>  <SCORE.INTRA.DIHEDRAL.0>
76.3625

>  <SCORE.INTRA.POLAR>
0

>  <SCORE.INTRA.POLAR.0>
0

>  <SCORE.INTRA.REPUL>
-0.0518177

>  <SCORE.INTRA.REPUL.0>
0.12705

>  <SCORE.INTRA.SOLV>
-5.42327

>  <SCORE.INTRA.SOLV.lig_0>
-119.383

>  <SCORE.INTRA.VDW>
4.67079

>  <SCORE.INTRA.VDW.0>
-5.10464

>  <SCORE.INTRA.norm>
-0.552438

>  <SCORE.RESTR>
6.74381

>  <SCORE.RESTR.CAVITY>
6.74381

>  <SCORE.RESTR.norm>
0.210744

>  <SCORE.SYSTEM>
0

>  <SCORE.SYSTEM.CONST>
0

>  <SCORE.SYSTEM.DIHEDRAL>
0

>  <SCORE.SYSTEM.SOLV>
0

>  <SCORE.SYSTEM.norm>
0

>  <SCORE.heavy>
32

>  <SCORE.norm>
-0.550638

>  <RMSD>
20.017

$$$$
2au4_lig
 OpenBabel11021811423D
libRbt.so/2013.1/901 2013/11/27
 32 34  0  0  0  0  0  0  0  0999 V2000
   54.7094   -8.8826   -3.9381 P   0  0  1  0  0  0  0  0  0  0  0  0
   53.5446   -8.3299   -1.5490 P   0  0  1  0  0  0  0  0  0  0  0  0
   53.6601   -5.8008   -0.5336 P   0  0  2  0  0  0  0  0  0  0  0  0
   55.2803   -6.9503   -5.6616 C   0  0  0  0  0  0  0  0  0  0  0  0
   55.7268   -8.0777   -4.8900 O   0  0  0  0  0  0  0  0  0  0  0  0
   56.2752   -6.5545   -6.7429 C   0  0  0  0  0  0  0  0  0  0  0  0
   56.0384   -5.2003   -7.1792 O   0  0  0  0  0  0  0  0  0  0  0  0
   57.7010   -6.6449   -6.2219 C   0  0  0  0  0  0  0  0  0  0  0  0
   58.4449   -7.6399   -6.9356 O   0  0  0  0  0  0  0  0  0  0  0  0
   58.3117   -5.2759   -6.4040 C   0  0  0  0  0  0  0  0  0  0  0  0
   59.4776   -5.3341   -7.2368 O   0  0  0  0  0  0  0  0  0  0  0  0
   57.2376   -4.4095   -7.0388 C   0  0  0  0  0  0  0  0  0  0  0  0
   54.9480    0.1468   -6.7862 N   0  0  0  0  0  0  0  0  0  0  0  0
   53.4118   -9.0049   -4.6324 O   0  5  0  0  0  0  0  0  0  0  0  0
   52.5506   -9.2676   -2.1066 O   0  5  0  0  0  0  0  0  0  0  0  0
   53.9414   -6.1647    0.8699 O   0  5  0  0  0  0  0  0  0  0  0  0
   54.9576   -0.7690   -7.8113 C   0  0  1  0  0  0  0  0  0  0  0  0
   54.2827   -0.4361   -8.9034 N   0  0  0  0  0  0  0  0  0  0  0  0
   55.3942  -10.0901   -3.4291 O   0  0  0  0  0  0  0  0  0  0  0  0
   54.3707   -8.7278   -0.3903 O   0  0  0  0  0  0  0  0  0  0  0  0
   52.9883   -4.5220   -0.8454 O   0  0  0  0  0  0  0  0  0  0  0  0
   55.5969   -1.9348   -7.7573 N   0  0  0  0  0  0  0  0  0  0  0  0
   54.5180   -7.8834   -2.7193 O   0  0  0  0  0  0  0  0  0  0  0  0
   52.8007   -6.9745   -1.1823 O   0  0  0  0  0  0  0  0  0  0  0  0
   55.0347   -5.8700   -1.3620 O   0  0  0  0  0  0  0  0  0  0  0  0
   56.2357   -2.1116   -6.5777 C   0  0  2  0  0  0  0  0  0  0  0  0
   56.2773   -1.2452   -5.4973 C   0  0  2  0  0  0  0  0  0  0  0  0
   55.5916   -0.0081   -5.5715 C   0  0  1  0  0  0  0  0  0  0  0  0
   55.5386    0.8823   -4.7337 O   0  0  0  0  0  0  0  0  0  0  0  0
   57.0437   -1.7823   -4.4574 N   0  0  0  0  0  0  0  0  0  0  0  0
   57.4085   -2.9139   -4.9658 C   0  0  0  0  0  0  0  0  0  0  0  0
   56.9836   -3.2083   -6.2198 N   0  0  0  0  0  0  0  0  0  0  0  0
  1  5  1  6  0  0  0
  1 14  1  0  0  0  0
  1 19  2  0  0  0  0
  2 15  1  6  0  0  0
  2 20  2  0  0  0  0
  2 23  1  0  0  0  0
  3 16  1  1  0  0  0
  3 21  2  0  0  0  0
  3 24  1  0  0  0  0
  3 25  1  0  0  0  0
  4  6  1  0  0  0  0
  5  4  1  0  0  0  0
  6  7  1  0  0  0  0
  6  8  2  0  0  0  0
  7 12  1  0  0  0  0
  8  9  1  0  0  0  0
  8 10  1  0  0  0  0
 10 11  1  0  0  0  0
 10 12  2  0  0  0  0
 12 32  1  0  0  0  0
 13 17  1  0  0  0  0
 17 18  1  6  0  0  0
 17 22  1  0  0  0  0
 23  1  1  0  0  0  0
 24  2  1  0  0  0  0
 26 22  1  6  0  0  0
 27 26  1  0  0  0  0
 27 28  1  0  0  0  0
 27 30  1  6  0  0  0
 28 13  1  0  0  0  0
 28 29  1  6  0  0  0
 31 30  1  0  0  0  0
 32 26  1  0  0  0  0
 32 31  1  0  0  0  0
M  CHG  3  14  -1  15  -1  16  -1
M  END
>  <CHROM.1>
39.87055956,-26.39931599,-74.46988504,-160.50252105,-165.46721441,-70.17007696
179.37337412,178.94043824,55.29933428,-5.40235643,-4.29116398,-2.11994036
1.01997168,-0.17810119

>  <Name>
2au4_lig

>  <RI>
0

>  <Rbt.Current_Directory>
/home/afrankz/demos/rdock_decoys_rna/rnas/2au4

>  <Rbt.Executable>
rbdock ($Id: //depot/dev/client3/rdock/2013.1/src/exe/rbdock.cxx#4 $)

>  <Rbt.Library>
libRbt.so (2013.1, Build901 2013/11/27)

>  <Rbt.Parameter_File>
/export/apps/rDock/src/rDock_2013.1_src/data/scripts/dock_solv.prm

>  <Rbt.Receptor>
prm/blind_docking_60.prm

>  <SCORE>
-16.7969

>  <SCORE.INTER>
-10.597

>  <SCORE.INTER.CONST>
1

>  <SCORE.INTER.POLAR>
-0.847857

>  <SCORE.INTER.ROT>
8

>  <SCORE.INTER.SOLV>
22.6388

>  <SCORE.INTER.VDW>
-20.7181

>  <SCORE.INTER.norm>
-0.331155

>  <SCORE.INTRA>
-15.1165

>  <SCORE.INTRA.DIHEDRAL>
-26.8786

>  <SCORE.INTRA.DIHEDRAL.0>
76.3625

>  <SCORE.INTRA.POLAR>
0

>  <SCORE.INTRA.POLAR.0>
0

>  <SCORE.INTRA.REPUL>
-0.126374

>  <SCORE.INTRA.REPUL.0>
0.12705

>  <SCORE.INTRA.SOLV>
-7.47034

>  <SCORE.INTRA.SOLV.lig_0>
-119.383

>  <SCORE.INTRA.VDW>
2.68981

>  <SCORE.INTRA.VDW.0>
-5.10464

>  <SCORE.INTRA.norm>
-0.472392

>  <SCORE.RESTR>
8.91665

>  <SCORE.RESTR.CAVITY>
8.91665

>  <SCORE.RESTR.norm>
0.278645

>  <SCORE.SYSTEM>
0

>  <SCORE.SYSTEM.CONST>
0

>  <SCORE.SYSTEM.DIHEDRAL>
0

>  <SCORE.SYSTEM.SOLV>
0

>  <SCORE.SYSTEM.norm>
0

>  <SCORE.heavy>
32

>  <SCORE.norm>
-0.524902

>  <RMSD>
20.019

$$$$
2au4_lig
 OpenBabel11021811423D
libRbt.so/2013.1/901 2013/11/27
 32 34  0  0  0  0  0  0  0  0999 V2000
   55.5312   -7.5748   -5.4451 P   0  0  1  0  0  0  0  0  0  0  0  0
   54.4726   -9.0830   -3.4515 P   0  0  1  0  0  0  0  0  0  0  0  0
   53.9525   -7.4115   -1.3595 P   0  0  2  0  0  0  0  0  0  0  0  0
   56.7589   -5.4065   -6.3518 C   0  0  0  0  0  0  0  0  0  0  0  0
   56.8004   -6.5898   -5.5370 O   0  0  0  0  0  0  0  0  0  0  0  0
   57.4229   -4.2137   -5.6797 C   0  0  0  0  0  0  0  0  0  0  0  0
   58.0914   -3.3886   -6.6557 O   0  0  0  0  0  0  0  0  0  0  0  0
   56.3920   -3.3590   -4.9590 C   0  0  0  0  0  0  0  0  0  0  0  0
   56.6310   -3.3508   -3.5463 O   0  0  0  0  0  0  0  0  0  0  0  0
   56.5077   -1.9689   -5.5373 C   0  0  0  0  0  0  0  0  0  0  0  0
   56.8193   -1.0076   -4.5199 O   0  0  0  0  0  0  0  0  0  0  0  0
   57.6116   -2.0295   -6.5788 C   0  0  0  0  0  0  0  0  0  0  0  0
   54.0980    0.7156   -9.0659 N   0  0  0  0  0  0  0  0  0  0  0  0
   54.2999   -6.7689   -5.5677 O   0  5  0  0  0  0  0  0  0  0  0  0
   53.7888   -9.6389   -4.6353 O   0  5  0  0  0  0  0  0  0  0  0  0
   54.2929   -8.4876   -0.4069 O   0  5  0  0  0  0  0  0  0  0  0  0
   54.2448    0.5044   -7.7155 C   0  0  1  0  0  0  0  0  0  0  0  0
   53.3502    1.0872   -6.9287 N   0  0  0  0  0  0  0  0  0  0  0  0
   55.7584   -8.7231   -6.3483 O   0  0  0  0  0  0  0  0  0  0  0  0
   55.0498   -9.9878   -2.4358 O   0  0  0  0  0  0  0  0  0  0  0  0
   52.9564   -6.3844   -0.9896 O   0  0  0  0  0  0  0  0  0  0  0  0
   55.2119   -0.2381   -7.1825 N   0  0  0  0  0  0  0  0  0  0  0  0
   55.6188   -8.1072   -3.9520 O   0  0  0  0  0  0  0  0  0  0  0  0
   53.4712   -8.0916   -2.7170 O   0  0  0  0  0  0  0  0  0  0  0  0
   55.3096   -6.6715   -1.7967 O   0  0  0  0  0  0  0  0  0  0  0  0
   56.0313   -0.7601   -8.1241 C   0  0  2  0  0  0  0  0  0  0  0  0
   55.9560   -0.5985   -9.4982 C   0  0  2  0  0  0  0  0  0  0  0  0
   54.9200    0.1948  -10.0491 C   0  0  1  0  0  0  0  0  0  0  0  0
   54.6857    0.4262  -11.2277 O   0  0  0  0  0  0  0  0  0  0  0  0
   56.9845   -1.2977  -10.1389 N   0  0  0  0  0  0  0  0  0  0  0  0
   57.6011   -1.8260   -9.1326 C   0  0  0  0  0  0  0  0  0  0  0  0
   57.1173   -1.5704   -7.8915 N   0  0  0  0  0  0  0  0  0  0  0  0
  1  5  1  6  0  0  0
  1 14  1  0  0  0  0
  1 19  2  0  0  0  0
  2 15  1  6  0  0  0
  2 20  2  0  0  0  0
  2 23  1  0  0  0  0
  3 16  1  1  0  0  0
  3 21  2  0  0  0  0
  3 24  1  0  0  0  0
  3 25  1  0  0  0  0
  4  6  1  0  0  0  0
  5  4  1  0  0  0  0
  6  7  1  0  0  0  0
  6  8  2  0  0  0  0
  7 12  1  0  0  0  0
  8  9  1  0  0  0  0
  8 10  1  0  0  0  0
 10 11  1  0  0  0  0
 10 12  2  0  0  0  0
 12 32  1  0  0  0  0
 13 17  1  0  0  0  0
 17 18  1  6  0  0  0
 17 22  1  0  0  0  0
 23  1  1  0  0  0  0
 24  2  1  0  0  0  0
 26 22  1  6  0  0  0
 27 26  1  0  0  0  0
 27 28  1  0  0  0  0
 27 30  1  6  0  0  0
 28 13  1  0  0  0  0
 28 29  1  6  0  0  0
 31 30  1  0  0  0  0
 32 26  1  0  0  0  0
 32 31  1  0  0  0  0
M  CHG  3  14  -1  15  -1  16  -1
M  END
>  <CHROM.1>
-32.71522175,18.36539274,-57.87644377,144.78488840,139.44187618,142.64794366
177.48317988,177.07232678,55.42898872,-4.66122872,-5.45773902,-1.91297719
1.20040863,-0.30947806

>  <Name>
2au4_lig

>  <RI>
0

>  <Rbt.Current_Directory>
/home/afrankz/demos/rdock_decoys_rna/rnas/2au4

>  <Rbt.Executable>
rbdock ($Id: //depot/dev/client3/rdock/2013.1/src/exe/rbdock.cxx#4 $)

>  <Rbt.Library>
libRbt.so (2013.1, Build901 2013/11/27)

>  <Rbt.Parameter_File>
/export/apps/rDock/src/rDock_2013.1_src/data/scripts/dock_solv.prm

>  <Rbt.Receptor>
prm/blind_docking_60.prm

>  <SCORE>
-23.3629

>  <SCORE.INTER>
-7.76599

>  <SCORE.INTER.CONST>
1

>  <SCORE.INTER.POLAR>
-0.86824

>  <SCORE.INTER.ROT>
8

>  <SCORE.INTER.SOLV>
24.1488

>  <SCORE.INTER.VDW>
-19.2661

>  <SCORE.INTER.norm>
-0.242687

>  <SCORE.INTRA>
-22.4185

>  <SCORE.INTRA.DIHEDRAL>
-41.8188

>  <SCORE.INTRA.DIHEDRAL.0>
76.3625

>  <SCORE.INTRA.POLAR>
0

>  <SCORE.INTRA.POLAR.0>
0

>  <SCORE.INTRA.REPUL>
-0.12705

>  <SCORE.INTRA.REPUL.0>
0.12705

>  <SCORE.INTRA.SOLV>
-5.68474

>  <SCORE.INTRA.SOLV.lig_0>
-119.383

>  <SCORE.INTRA.VDW>
1.96853

>  <SCORE.INTRA.VDW.0>
-5.10464

>  <SCORE.INTRA.norm>
-0.700577

>  <SCORE.RESTR>
6.82152

>  <SCORE.RESTR.CAVITY>
6.82152

>  <SCORE.RESTR.norm>
0.213173

>  <SCORE.SYSTEM>
0

>  <SCORE.SYSTEM.CONST>
0

>  <SCORE.SYSTEM.DIHEDRAL>
0

>  <SCORE.SYSTEM.SOLV>
0

>  <SCORE.SYSTEM.norm>
0

>  <SCORE.heavy>
32

>  <SCORE.norm>
-0.730091

>  <RMSD>
20.057

$$$$
2au4_lig
 OpenBabel11021811423D
libRbt.so/2013.1/901 2013/11/27
 32 34  0  0  0  0  0  0  0  0999 V2000
   67.2013  -11.2894    1.6101 P   0  0  1  0  0  0  0  0  0  0  0  0
   66.6290   -8.6434    1.8116 P   0  0  1  0  0  0  0  0  0  0  0  0
   68.5295   -7.2182    3.1523 P   0  0  2  0  0  0  0  0  0  0  0  0
   66.1101  -11.5065    4.0169 C   0  0  0  0  0  0  0  0  0  0  0  0
   66.0137  -11.7335    2.6010 O   0  0  0  0  0  0  0  0  0  0  0  0
   65.0945  -12.3189    4.8069 C   0  0  0  0  0  0  0  0  0  0  0  0
   63.7695  -12.1384    4.2666 O   0  0  0  0  0  0  0  0  0  0  0  0
   65.4326  -13.8006    4.7549 C   0  0  0  0  0  0  0  0  0  0  0  0
   65.7470  -14.3002    6.0605 O   0  0  0  0  0  0  0  0  0  0  0  0
   64.2204  -14.4973    4.1845 C   0  0  0  0  0  0  0  0  0  0  0  0
   63.7085  -15.4787    5.0961 O   0  0  0  0  0  0  0  0  0  0  0  0
   63.1885  -13.4140    3.9222 C   0  0  0  0  0  0  0  0  0  0  0  0
   60.5762  -11.0139    0.2504 N   0  0  0  0  0  0  0  0  0  0  0  0
   68.3540  -12.1872    1.8246 O   0  5  0  0  0  0  0  0  0  0  0  0
   67.0335   -8.0986    0.5010 O   0  5  0  0  0  0  0  0  0  0  0  0
   69.0679   -6.7068    1.8756 O   0  5  0  0  0  0  0  0  0  0  0  0
   60.7659  -10.6542    1.5635 C   0  0  1  0  0  0  0  0  0  0  0  0
   60.1906   -9.5243    1.9526 N   0  0  0  0  0  0  0  0  0  0  0  0
   66.6423  -11.1124    0.2528 O   0  0  0  0  0  0  0  0  0  0  0  0
   65.2359   -9.0830    2.0338 O   0  0  0  0  0  0  0  0  0  0  0  0
   69.1709   -8.3726    3.8156 O   0  0  0  0  0  0  0  0  0  0  0  0
   61.4756  -11.3696    2.4326 N   0  0  0  0  0  0  0  0  0  0  0  0
   67.5912   -9.8540    2.1651 O   0  0  0  0  0  0  0  0  0  0  0  0
   66.9933   -7.5746    2.9298 O   0  0  0  0  0  0  0  0  0  0  0  0
   68.4620   -6.0016    4.1992 O   0  0  0  0  0  0  0  0  0  0  0  0
   61.9865  -12.4906    1.8730 C   0  0  2  0  0  0  0  0  0  0  0  0
   61.8453  -12.9261    0.5653 C   0  0  2  0  0  0  0  0  0  0  0  0
   61.0861  -12.1527   -0.3468 C   0  0  1  0  0  0  0  0  0  0  0  0
   60.8364  -12.3914   -1.5208 O   0  0  0  0  0  0  0  0  0  0  0  0
   62.5208  -14.1350    0.3672 N   0  0  0  0  0  0  0  0  0  0  0  0
   63.0154  -14.3479    1.5428 C   0  0  0  0  0  0  0  0  0  0  0  0
   62.7582  -13.4330    2.5105 N   0  0  0  0  0  0  0  0  0  0  0  0
  1  5  1  1  0  0  0
  1 14  1  0  0  0  0
  1 19  2  0  0  0  0
  2 15  1  6  0  0  0
  2 20  2  0  0  0  0
  2 23  1  0  0  0  0
  3 16  1  6  0  0  0
  3 21  2  0  0  0  0
  3 24  1  0  0  0  0
  3 25  1  0  0  0  0
  4  6  1  0  0  0  0
  5  4  1  0  0  0  0
  6  7  1  0  0  0  0
  6  8  2  0  0  0  0
  7 12  1  0  0  0  0
  8  9  1  0  0  0  0
  8 10  1  0  0  0  0
 10 11  1  0  0  0  0
 10 12  2  0  0  0  0
 12 32  1  0  0  0  0
 13 17  1  0  0  0  0
 17 18  1  1  0  0  0
 17 22  1  0  0  0  0
 23  1  1  0  0  0  0
 24  2  1  0  0  0  0
 26 22  1  1  0  0  0
 27 26  1  0  0  0  0
 27 28  1  0  0  0  0
 27 30  1  1  0  0  0
 28 13  1  0  0  0  0
 28 29  1  1  0  0  0
 31 30  1  0  0  0  0
 32 26  1  0  0  0  0
 32 31  1  0  0  0  0
M  CHG  3  14  -1  15  -1  16  -1
M  END
>  <CHROM.1>
71.11632129,-86.28324054,58.66069253,-50.89865120,-164.28373364,-49.82944106
-76.66301062,-63.77630992,65.11204486,-10.93707583,2.37660630,-0.49611509
0.51023543,2.57337271

>  <Name>
2au4_lig

>  <RI>
0

>  <Rbt.Current_Directory>
/home/itssahil/PROJECTS/Mol_Feturizer/New_Systems/rnas/2au4

>  <Rbt.Executable>
rbdock ($Id: //depot/dev/client3/rdock/2013.1/src/exe/rbdock.cxx#4 $)

>  <Rbt.Library>
libRbt.so (2013.1, Build901 2013/11/27)

>  <Rbt.Parameter_File>
/export/apps/rDock/src/rDock_2013.1_src/data/scripts/dock_solv.prm

>  <Rbt.Receptor>
prm/blind_docking_80.prm

>  <SCORE>
-45.412

>  <SCORE.INTER>
-24.0722

>  <SCORE.INTER.CONST>
1

>  <SCORE.INTER.POLAR>
-3.43785

>  <SCORE.INTER.ROT>
8

>  <SCORE.INTER.SOLV>
31.7292

>  <SCORE.INTER.VDW>
-24.0984

>  <SCORE.INTER.norm>
-0.752256

>  <SCORE.INTRA>
-22.8854

>  <SCORE.INTRA.DIHEDRAL>
-42.3272

>  <SCORE.INTRA.DIHEDRAL.0>
76.3625

>  <SCORE.INTRA.POLAR>
0

>  <SCORE.INTRA.POLAR.0>
0

>  <SCORE.INTRA.REPUL>
-0.0214288

>  <SCORE.INTRA.REPUL.0>
0.12705

>  <SCORE.INTRA.SOLV>
-4.50117

>  <SCORE.INTRA.SOLV.lig_0>
-119.383

>  <SCORE.INTRA.VDW>
0.635943

>  <SCORE.INTRA.VDW.0>
-5.10464

>  <SCORE.INTRA.norm>
-0.715168

>  <SCORE.RESTR>
1.54561

>  <SCORE.RESTR.CAVITY>
1.54561

>  <SCORE.RESTR.norm>
0.0483002

>  <SCORE.SYSTEM>
0

>  <SCORE.SYSTEM.CONST>
0

>  <SCORE.SYSTEM.DIHEDRAL>
0

>  <SCORE.SYSTEM.SOLV>
0

>  <SCORE.SYSTEM.norm>
0

>  <SCORE.heavy>
32

>  <SCORE.norm>
-1.41912

>  <RMSD>
20.063

$$$$
2au4_lig
 OpenBabel11021811423D
libRbt.so/2013.1/901 2013/11/27
 32 34  0  0  0  0  0  0  0  0999 V2000
   55.6357   -7.1082   -6.6195 P   0  0  1  0  0  0  0  0  0  0  0  0
   54.5089   -7.8396   -4.2605 P   0  0  1  0  0  0  0  0  0  0  0  0
   53.7918   -7.2069   -1.7058 P   0  0  2  0  0  0  0  0  0  0  0  0
   55.1764   -4.5933   -7.3228 C   0  0  0  0  0  0  0  0  0  0  0  0
   55.2953   -5.9729   -7.7078 O   0  0  0  0  0  0  0  0  0  0  0  0
   56.5293   -3.9286   -7.1146 C   0  0  0  0  0  0  0  0  0  0  0  0
   56.4830   -2.5454   -7.5207 O   0  0  0  0  0  0  0  0  0  0  0  0
   56.9358   -3.9820   -5.6502 C   0  0  0  0  0  0  0  0  0  0  0  0
   58.1213   -4.7676   -5.4762 O   0  0  0  0  0  0  0  0  0  0  0  0
   57.1624   -2.5536   -5.2157 C   0  0  0  0  0  0  0  0  0  0  0  0
   58.5008   -2.3624   -4.7379 O   0  0  0  0  0  0  0  0  0  0  0  0
   56.8959   -1.6883   -6.4352 C   0  0  0  0  0  0  0  0  0  0  0  0
   53.3931    1.4833   -8.3687 N   0  0  0  0  0  0  0  0  0  0  0  0
   55.4332   -8.4323   -7.2411 O   0  5  0  0  0  0  0  0  0  0  0  0
   53.9079   -9.1347   -4.6341 O   0  5  0  0  0  0  0  0  0  0  0  0
   52.5176   -6.9675   -0.9986 O   0  5  0  0  0  0  0  0  0  0  0  0
   54.2402    0.6180   -9.0192 C   0  0  1  0  0  0  0  0  0  0  0  0
   54.1520    0.5926  -10.3423 N   0  0  0  0  0  0  0  0  0  0  0  0
   56.9286   -6.7787   -5.9822 O   0  0  0  0  0  0  0  0  0  0  0  0
   55.8630   -7.7933   -3.6708 O   0  0  0  0  0  0  0  0  0  0  0  0
   54.9761   -6.3790   -1.3961 O   0  0  0  0  0  0  0  0  0  0  0  0
   55.1179   -0.1664   -8.3986 N   0  0  0  0  0  0  0  0  0  0  0  0
   54.4937   -6.8979   -5.5369 O   0  0  0  0  0  0  0  0  0  0  0  0
   53.5137   -7.0952   -3.2701 O   0  0  0  0  0  0  0  0  0  0  0  0
   54.1897   -8.7530   -1.5271 O   0  0  0  0  0  0  0  0  0  0  0  0
   55.0791   -0.0114   -7.0551 C   0  0  2  0  0  0  0  0  0  0  0  0
   54.2611    0.8329   -6.3218 C   0  0  2  0  0  0  0  0  0  0  0  0
   53.3326    1.6615   -6.9982 C   0  0  1  0  0  0  0  0  0  0  0  0
   52.5557    2.4782   -6.5216 O   0  0  0  0  0  0  0  0  0  0  0  0
   54.5184    0.7099   -4.9522 N   0  0  0  0  0  0  0  0  0  0  0  0
   55.4555   -0.1810   -4.9463 C   0  0  0  0  0  0  0  0  0  0  0  0
   55.8632   -0.6755   -6.1417 N   0  0  0  0  0  0  0  0  0  0  0  0
  1  5  1  6  0  0  0
  1 14  1  0  0  0  0
  1 19  2  0  0  0  0
  2 15  1  6  0  0  0
  2 20  2  0  0  0  0
  2 23  1  0  0  0  0
  3 16  1  1  0  0  0
  3 21  2  0  0  0  0
  3 24  1  0  0  0  0
  3 25  1  0  0  0  0
  4  6  1  0  0  0  0
  5  4  1  0  0  0  0
  6  7  1  0  0  0  0
  6  8  2  0  0  0  0
  7 12  1  0  0  0  0
  8  9  1  0  0  0  0
  8 10  1  0  0  0  0
 10 11  1  0  0  0  0
 10 12  2  0  0  0  0
 12 32  1  0  0  0  0
 13 17  1  0  0  0  0
 17 18  1  6  0  0  0
 17 22  1  0  0  0  0
 23  1  1  0  0  0  0
 24  2  1  0  0  0  0
 26 22  1  6  0  0  0
 27 26  1  0  0  0  0
 27 28  1  0  0  0  0
 27 30  1  6  0  0  0
 28 13  1  0  0  0  0
 28 29  1  6  0  0  0
 31 30  1  0  0  0  0
 32 26  1  0  0  0  0
 32 31  1  0  0  0  0
M  CHG  3  14  -1  15  -1  16  -1
M  END
>  <CHROM.1>
169.01152275,-80.35033433,-156.45369848,145.55007939,77.70667303,-38.03357655
-178.88580820,97.58895591,55.08381607,-4.14259571,-5.49865416,-1.58179970
1.07624187,-0.42333377

>  <Name>
2au4_lig

>  <RI>
0

>  <Rbt.Current_Directory>
/home/afrankz/demos/rdock_decoys_rna/rnas/2au4

>  <Rbt.Executable>
rbdock ($Id: //depot/dev/client3/rdock/2013.1/src/exe/rbdock.cxx#4 $)

>  <Rbt.Library>
libRbt.so (2013.1, Build901 2013/11/27)

>  <Rbt.Parameter_File>
/export/apps/rDock/src/rDock_2013.1_src/data/scripts/dock_solv.prm

>  <Rbt.Receptor>
prm/blind_docking_60.prm

>  <SCORE>
-15.1979

>  <SCORE.INTER>
-1.90866

>  <SCORE.INTER.CONST>
1

>  <SCORE.INTER.POLAR>
-1.08972

>  <SCORE.INTER.ROT>
8

>  <SCORE.INTER.SOLV>
24.294

>  <SCORE.INTER.VDW>
-14.6713

>  <SCORE.INTER.norm>
-0.0596455

>  <SCORE.INTRA>
-22.8192

>  <SCORE.INTRA.DIHEDRAL>
-46.6057

>  <SCORE.INTRA.DIHEDRAL.0>
76.3625

>  <SCORE.INTRA.POLAR>
0

>  <SCORE.INTRA.POLAR.0>
0

>  <SCORE.INTRA.REPUL>
0.0272734

>  <SCORE.INTRA.REPUL.0>
0.12705

>  <SCORE.INTRA.SOLV>
-3.65234

>  <SCORE.INTRA.SOLV.lig_0>
-119.383

>  <SCORE.INTRA.VDW>
2.17345

>  <SCORE.INTRA.VDW.0>
-5.10464

>  <SCORE.INTRA.norm>
-0.7131

>  <SCORE.RESTR>
9.52992

>  <SCORE.RESTR.CAVITY>
9.52992

>  <SCORE.RESTR.norm>
0.29781

>  <SCORE.SYSTEM>
0

>  <SCORE.SYSTEM.CONST>
0

>  <SCORE.SYSTEM.DIHEDRAL>
0

>  <SCORE.SYSTEM.SOLV>
0

>  <SCORE.SYSTEM.norm>
0

>  <SCORE.heavy>
32

>  <SCORE.norm>
-0.474936

>  <RMSD>
20.068

$$$$
2au4_lig
 OpenBabel11021811423D
libRbt.so/2013.1/901 2013/11/27
 32 34  0  0  0  0  0  0  0  0999 V2000
   64.2805  -12.7670    0.8826 P   0  0  1  0  0  0  0  0  0  0  0  0
   66.4720  -11.5015    1.8650 P   0  0  1  0  0  0  0  0  0  0  0  0
   66.6432   -8.7822    1.9947 P   0  0  2  0  0  0  0  0  0  0  0  0
   61.6364  -12.9138    0.7479 C   0  0  0  0  0  0  0  0  0  0  0  0
   62.8084  -12.5415    1.4920 O   0  0  0  0  0  0  0  0  0  0  0  0
   60.3481  -12.5339    1.4630 C   0  0  0  0  0  0  0  0  0  0  0  0
   60.3859  -12.9635    2.8393 O   0  0  0  0  0  0  0  0  0  0  0  0
   60.1434  -11.0272    1.4396 C   0  0  0  0  0  0  0  0  0  0  0  0
   58.9665  -10.6817    0.6990 O   0  0  0  0  0  0  0  0  0  0  0  0
   60.0271  -10.5878    2.8796 C   0  0  0  0  0  0  0  0  0  0  0  0
   58.7737   -9.9355    3.1239 O   0  0  0  0  0  0  0  0  0  0  0  0
   60.1544  -11.8453    3.7220 C   0  0  0  0  0  0  0  0  0  0  0  0
   62.8246   -8.6631    6.6901 N   0  0  0  0  0  0  0  0  0  0  0  0
   64.4419  -14.1988    0.5592 O   0  5  0  0  0  0  0  0  0  0  0  0
   67.2618  -11.4355    3.1100 O   0  5  0  0  0  0  0  0  0  0  0  0
   65.8416   -7.5985    1.6241 O   0  5  0  0  0  0  0  0  0  0  0  0
   61.7799   -8.3920    5.8388 C   0  0  1  0  0  0  0  0  0  0  0  0
   61.3990   -7.1240    5.7608 N   0  0  0  0  0  0  0  0  0  0  0  0
   64.5247  -11.7411   -0.1537 O   0  0  0  0  0  0  0  0  0  0  0  0
   67.1123  -11.9252    0.6025 O   0  0  0  0  0  0  0  0  0  0  0  0
   68.0045   -8.9546    1.4459 O   0  0  0  0  0  0  0  0  0  0  0  0
   61.1578   -9.3165    5.1114 N   0  0  0  0  0  0  0  0  0  0  0  0
   65.2176  -12.4382    2.1211 O   0  0  0  0  0  0  0  0  0  0  0  0
   65.7998  -10.0817    1.6250 O   0  0  0  0  0  0  0  0  0  0  0  0
   66.7261   -8.8587    3.5972 O   0  0  0  0  0  0  0  0  0  0  0  0
   61.6742  -10.5516    5.3073 C   0  0  2  0  0  0  0  0  0  0  0  0
   62.7200  -10.9113    6.1420 C   0  0  2  0  0  0  0  0  0  0  0  0
   63.3716   -9.9147    6.9091 C   0  0  1  0  0  0  0  0  0  0  0  0
   64.3191  -10.0426    7.6728 O   0  0  0  0  0  0  0  0  0  0  0  0
   62.9638  -12.2871    6.0705 N   0  0  0  0  0  0  0  0  0  0  0  0
   62.0695  -12.6618    5.2151 C   0  0  0  0  0  0  0  0  0  0  0  0
   61.2515  -11.7103    4.7000 N   0  0  0  0  0  0  0  0  0  0  0  0
  1  5  1  1  0  0  0
  1 14  1  0  0  0  0
  1 19  2  0  0  0  0
  2 15  1  1  0  0  0
  2 20  2  0  0  0  0
  2 23  1  0  0  0  0
  3 16  1  6  0  0  0
  3 21  2  0  0  0  0
  3 24  1  0  0  0  0
  3 25  1  0  0  0  0
  4  6  1  0  0  0  0
  5  4  1  0  0  0  0
  6  7  1  0  0  0  0
  6  8  2  0  0  0  0
  7 12  1  0  0  0  0
  8  9  1  0  0  0  0
  8 10  1  0  0  0  0
 10 11  1  0  0  0  0
 10 12  2  0  0  0  0
 12 32  1  0  0  0  0
 13 17  1  0  0  0  0
 17 18  1  6  0  0  0
 17 22  1  0  0  0  0
 23  1  1  0  0  0  0
 24  2  1  0  0  0  0
 26 22  1  6  0  0  0
 27 26  1  0  0  0  0
 27 28  1  0  0  0  0
 27 30  1  6  0  0  0
 28 13  1  0  0  0  0
 28 29  1  6  0  0  0
 31 30  1  0  0  0  0
 32 26  1  0  0  0  0
 32 31  1  0  0  0  0
M  CHG  3  14  -1  15  -1  16  -1
M  END
>  <CHROM.1>
-57.31643445,-174.76932659,177.23814358,-48.52658634,-176.24821013,151.90251689
-134.07066171,37.69964389,63.53409195,-10.86087163,2.99399449,0.38347966
-0.25518719,-2.15687111

>  <Name>
2au4_lig

>  <RI>
0

>  <Rbt.Current_Directory>
/home/itssahil/PROJECTS/Mol_Feturizer/New_Systems/rnas/2au4

>  <Rbt.Executable>
rbdock ($Id: //depot/dev/client3/rdock/2013.1/src/exe/rbdock.cxx#4 $)

>  <Rbt.Library>
libRbt.so (2013.1, Build901 2013/11/27)

>  <Rbt.Parameter_File>
/export/apps/rDock/src/rDock_2013.1_src/data/scripts/dock_solv.prm

>  <Rbt.Receptor>
prm/blind_docking_100.prm

>  <SCORE>
-48.876

>  <SCORE.INTER>
-23.9342

>  <SCORE.INTER.CONST>
1

>  <SCORE.INTER.POLAR>
-4.32413

>  <SCORE.INTER.ROT>
8

>  <SCORE.INTER.SOLV>
27.7635

>  <SCORE.INTER.VDW>
-19.7302

>  <SCORE.INTER.norm>
-0.747943

>  <SCORE.INTRA>
-25.799

>  <SCORE.INTRA.DIHEDRAL>
-47.3307

>  <SCORE.INTRA.DIHEDRAL.0>
76.3625

>  <SCORE.INTRA.POLAR>
0

>  <SCORE.INTRA.POLAR.0>
0

>  <SCORE.INTRA.REPUL>
-0.12705

>  <SCORE.INTRA.REPUL.0>
0.12705

>  <SCORE.INTRA.SOLV>
-6.11471

>  <SCORE.INTRA.SOLV.lig_0>
-119.383

>  <SCORE.INTRA.VDW>
1.55895

>  <SCORE.INTRA.VDW.0>
-5.10464

>  <SCORE.INTRA.norm>
-0.80622

>  <SCORE.RESTR>
0.857196

>  <SCORE.RESTR.CAVITY>
0.857196

>  <SCORE.RESTR.norm>
0.0267874

>  <SCORE.SYSTEM>
0

>  <SCORE.SYSTEM.CONST>
0

>  <SCORE.SYSTEM.DIHEDRAL>
0

>  <SCORE.SYSTEM.SOLV>
0

>  <SCORE.SYSTEM.norm>
0

>  <SCORE.heavy>
32

>  <SCORE.norm>
-1.52738

>  <RMSD>
20.117

$$$$
2au4_lig
 OpenBabel11021811423D
libRbt.so/2013.1/901 2013/11/27
 32 34  0  0  0  0  0  0  0  0999 V2000
   66.2026  -11.9281    1.2340 P   0  0  1  0  0  0  0  0  0  0  0  0
   66.5531   -9.7248    2.7806 P   0  0  1  0  0  0  0  0  0  0  0  0
   68.4550   -7.7710    2.8633 P   0  0  2  0  0  0  0  0  0  0  0  0
   63.6157  -11.5760    1.6973 C   0  0  0  0  0  0  0  0  0  0  0  0
   64.7860  -11.2233    0.9411 O   0  0  0  0  0  0  0  0  0  0  0  0
   62.8935  -10.3577    2.2537 C   0  0  0  0  0  0  0  0  0  0  0  0
   61.7558  -10.0233    1.4326 O   0  0  0  0  0  0  0  0  0  0  0  0
   62.3993  -10.6236    3.6671 C   0  0  0  0  0  0  0  0  0  0  0  0
   63.0425   -9.7538    4.6066 O   0  0  0  0  0  0  0  0  0  0  0  0
   60.9067  -10.3954    3.6496 C   0  0  0  0  0  0  0  0  0  0  0  0
   60.5267   -9.3742    4.5817 O   0  0  0  0  0  0  0  0  0  0  0  0
   60.5529   -9.9889    2.2295 C   0  0  0  0  0  0  0  0  0  0  0  0
   59.1151  -12.8237   -1.7658 N   0  0  0  0  0  0  0  0  0  0  0  0
   65.9773  -13.3742    1.4309 O   0  5  0  0  0  0  0  0  0  0  0  0
   65.9083   -9.1726    1.5734 O   0  5  0  0  0  0  0  0  0  0  0  0
   69.8986   -7.6248    2.5884 O   0  5  0  0  0  0  0  0  0  0  0  0
   60.2441  -12.0569   -1.6014 C   0  0  1  0  0  0  0  0  0  0  0  0
   61.0931  -12.0347   -2.6201 N   0  0  0  0  0  0  0  0  0  0  0  0
   67.1796  -11.4606    0.2274 O   0  0  0  0  0  0  0  0  0  0  0  0
   66.0154   -9.4066    4.1197 O   0  0  0  0  0  0  0  0  0  0  0  0
   67.8874   -7.2579    4.1277 O   0  0  0  0  0  0  0  0  0  0  0  0
   60.5105  -11.3567   -0.5017 N   0  0  0  0  0  0  0  0  0  0  0  0
   66.6125  -11.3032    2.6346 O   0  0  0  0  0  0  0  0  0  0  0  0
   68.0889   -9.3174    2.7561 O   0  0  0  0  0  0  0  0  0  0  0  0
   67.6367   -7.1286    1.6393 O   0  0  0  0  0  0  0  0  0  0  0  0
   59.5410  -11.4873    0.4330 C   0  0  2  0  0  0  0  0  0  0  0  0
   58.3778  -12.2355    0.3499 C   0  0  2  0  0  0  0  0  0  0  0  0
   58.1094  -12.9748   -0.8281 C   0  0  1  0  0  0  0  0  0  0  0  0
   57.1319  -13.6644   -1.0857 O   0  0  0  0  0  0  0  0  0  0  0  0
   57.6241  -12.1162    1.5225 N   0  0  0  0  0  0  0  0  0  0  0  0
   58.3641  -11.3203    2.2231 C   0  0  0  0  0  0  0  0  0  0  0  0
   59.5242  -10.8871    1.6698 N   0  0  0  0  0  0  0  0  0  0  0  0
  1  5  1  6  0  0  0
  1 14  1  0  0  0  0
  1 19  2  0  0  0  0
  2 15  1  6  0  0  0
  2 20  2  0  0  0  0
  2 23  1  0  0  0  0
  3 16  1  6  0  0  0
  3 21  2  0  0  0  0
  3 24  1  0  0  0  0
  3 25  1  0  0  0  0
  4  6  1  0  0  0  0
  5  4  1  0  0  0  0
  6  7  1  0  0  0  0
  6  8  2  0  0  0  0
  7 12  1  0  0  0  0
  8  9  1  0  0  0  0
  8 10  1  0  0  0  0
 10 11  1  0  0  0  0
 10 12  2  0  0  0  0
 12 32  1  0  0  0  0
 13 17  1  0  0  0  0
 17 18  1  6  0  0  0
 17 22  1  0  0  0  0
 23  1  1  0  0  0  0
 24  2  1  0  0  0  0
 26 22  1  6  0  0  0
 27 26  1  0  0  0  0
 27 28  1  0  0  0  0
 27 30  1  6  0  0  0
 28 13  1  0  0  0  0
 28 29  1  6  0  0  0
 31 30  1  0  0  0  0
 32 26  1  0  0  0  0
 32 31  1  0  0  0  0
M  CHG  3  14  -1  15  -1  16  -1
M  END
>  <CHROM.1>
42.62093386,8.49360609,-170.46913422,100.07270744,129.62106613,-12.44443174
-50.38073453,64.92028196,63.58473482,-10.55061540,1.68840499,-0.40912475
-0.12974701,-2.18651426

>  <Name>
2au4_lig

>  <RI>
0

>  <Rbt.Current_Directory>
/home/itssahil/PROJECTS/Mol_Feturizer/New_Systems/rnas/2au4

>  <Rbt.Executable>
rbdock ($Id: //depot/dev/client3/rdock/2013.1/src/exe/rbdock.cxx#4 $)

>  <Rbt.Library>
libRbt.so (2013.1, Build901 2013/11/27)

>  <Rbt.Parameter_File>
/export/apps/rDock/src/rDock_2013.1_src/data/scripts/dock_solv.prm

>  <Rbt.Receptor>
prm/blind_docking_100.prm

>  <SCORE>
-45.0334

>  <SCORE.INTER>
-26.0566

>  <SCORE.INTER.CONST>
1

>  <SCORE.INTER.POLAR>
-3.06843

>  <SCORE.INTER.ROT>
8

>  <SCORE.INTER.SOLV>
34.9607

>  <SCORE.INTER.VDW>
-27.7299

>  <SCORE.INTER.norm>
-0.81427

>  <SCORE.INTRA>
-19.0644

>  <SCORE.INTRA.DIHEDRAL>
-37.84

>  <SCORE.INTRA.DIHEDRAL.0>
76.3625

>  <SCORE.INTRA.POLAR>
0

>  <SCORE.INTRA.POLAR.0>
0

>  <SCORE.INTRA.REPUL>
0.0182383

>  <SCORE.INTRA.REPUL.0>
0.12705

>  <SCORE.INTRA.SOLV>
-3.81183

>  <SCORE.INTRA.SOLV.lig_0>
-119.383

>  <SCORE.INTRA.VDW>
1.67035

>  <SCORE.INTRA.VDW.0>
-5.10464

>  <SCORE.INTRA.norm>
-0.595761

>  <SCORE.RESTR>
0.087604

>  <SCORE.RESTR.CAVITY>
0.087604

>  <SCORE.RESTR.norm>
0.00273763

>  <SCORE.SYSTEM>
0

>  <SCORE.SYSTEM.CONST>
0

>  <SCORE.SYSTEM.DIHEDRAL>
0

>  <SCORE.SYSTEM.SOLV>
0

>  <SCORE.SYSTEM.norm>
0

>  <SCORE.heavy>
32

>  <SCORE.norm>
-1.40729

>  <RMSD>
20.134

$$$$
2au4_lig
 OpenBabel11021811423D
libRbt.so/2013.1/901 2013/11/27
 32 34  0  0  0  0  0  0  0  0999 V2000
   65.0868  -12.1530    0.6831 P   0  0  1  0  0  0  0  0  0  0  0  0
   66.4982  -10.7749    2.5481 P   0  0  1  0  0  0  0  0  0  0  0  0
   66.5462   -8.1424    1.8354 P   0  0  2  0  0  0  0  0  0  0  0  0
   63.4698  -14.1079    1.4538 C   0  0  0  0  0  0  0  0  0  0  0  0
   64.3070  -12.9955    1.8107 O   0  0  0  0  0  0  0  0  0  0  0  0
   61.9999  -13.7248    1.3642 C   0  0  0  0  0  0  0  0  0  0  0  0
   61.4990  -13.3287    2.6575 O   0  0  0  0  0  0  0  0  0  0  0  0
   61.8037  -12.5642    0.4013 C   0  0  0  0  0  0  0  0  0  0  0  0
   61.0084  -12.9603   -0.7227 O   0  0  0  0  0  0  0  0  0  0  0  0
   61.1262  -11.4660    1.1857 C   0  0  0  0  0  0  0  0  0  0  0  0
   59.8702  -11.1052    0.5953 O   0  0  0  0  0  0  0  0  0  0  0  0
   60.9267  -12.0053    2.5916 C   0  0  0  0  0  0  0  0  0  0  0  0
   63.0503  -11.6359    7.2198 N   0  0  0  0  0  0  0  0  0  0  0  0
   66.3823  -12.8096    0.4164 O   0  5  0  0  0  0  0  0  0  0  0  0
   66.0070  -11.5670    3.6924 O   0  5  0  0  0  0  0  0  0  0  0  0
   67.1256   -6.9047    2.3957 O   0  5  0  0  0  0  0  0  0  0  0  0
   62.5397  -12.7402    6.5799 C   0  0  1  0  0  0  0  0  0  0  0  0
   62.5941  -13.8845    7.2483 N   0  0  0  0  0  0  0  0  0  0  0  0
   64.1532  -11.8764   -0.4296 O   0  0  0  0  0  0  0  0  0  0  0  0
   67.7897  -11.1112    1.9136 O   0  0  0  0  0  0  0  0  0  0  0  0
   65.1993   -8.1190    1.2279 O   0  0  0  0  0  0  0  0  0  0  0  0
   62.0077  -12.7100    5.3605 N   0  0  0  0  0  0  0  0  0  0  0  0
   65.3795  -10.7795    1.4235 O   0  0  0  0  0  0  0  0  0  0  0  0
   66.5451   -9.2471    2.9827 O   0  0  0  0  0  0  0  0  0  0  0  0
   67.5787   -8.7470    0.7635 O   0  0  0  0  0  0  0  0  0  0  0  0
   62.0277  -11.4670    4.8265 C   0  0  2  0  0  0  0  0  0  0  0  0
   62.5207  -10.3055    5.3989 C   0  0  2  0  0  0  0  0  0  0  0  0
   63.0833  -10.3553    6.6979 C   0  0  1  0  0  0  0  0  0  0  0  0
   63.5402   -9.4355    7.3633 O   0  0  0  0  0  0  0  0  0  0  0  0
   62.3608   -9.2174    4.5343 N   0  0  0  0  0  0  0  0  0  0  0  0
   61.7931   -9.7792    3.5174 C   0  0  0  0  0  0  0  0  0  0  0  0
   61.5498  -11.1117    3.5873 N   0  0  0  0  0  0  0  0  0  0  0  0
  1  5  1  1  0  0  0
  1 14  1  0  0  0  0
  1 19  2  0  0  0  0
  2 15  1  1  0  0  0
  2 20  2  0  0  0  0
  2 23  1  0  0  0  0
  3 16  1  1  0  0  0
  3 21  2  0  0  0  0
  3 24  1  0  0  0  0
  3 25  1  0  0  0  0
  4  6  1  0  0  0  0
  5  4  1  0  0  0  0
  6  7  1  0  0  0  0
  6  8  2  0  0  0  0
  7 12  1  0  0  0  0
  8  9  1  0  0  0  0
  8 10  1  0  0  0  0
 10 11  1  0  0  0  0
 10 12  2  0  0  0  0
 12 32  1  0  0  0  0
 13 17  1  0  0  0  0
 17 18  1  1  0  0  0
 17 22  1  0  0  0  0
 23  1  1  0  0  0  0
 24  2  1  0  0  0  0
 26 22  1  1  0  0  0
 27 26  1  0  0  0  0
 27 28  1  0  0  0  0
 27 30  1  1  0  0  0
 28 13  1  0  0  0  0
 28 29  1  1  0  0  0
 31 30  1  0  0  0  0
 32 26  1  0  0  0  0
 32 31  1  0  0  0  0
M  CHG  3  14  -1  15  -1  16  -1
M  END
>  <CHROM.1>
-87.05810472,-68.44163238,-157.55696786,-64.85918648,-97.14746059,-32.74448988
72.97944856,-159.20940230,64.00345864,-11.09479668,2.73361653,0.33551032
-0.60051495,-1.85590291

>  <Name>
2au4_lig

>  <RI>
0

>  <Rbt.Current_Directory>
/home/itssahil/PROJECTS/Mol_Feturizer/New_Systems/rnas/2au4

>  <Rbt.Executable>
rbdock ($Id: //depot/dev/client3/rdock/2013.1/src/exe/rbdock.cxx#4 $)

>  <Rbt.Library>
libRbt.so (2013.1, Build901 2013/11/27)

>  <Rbt.Parameter_File>
/export/apps/rDock/src/rDock_2013.1_src/data/scripts/dock_solv.prm

>  <Rbt.Receptor>
prm/blind_docking_100.prm

>  <SCORE>
-43.5133

>  <SCORE.INTER>
-20.8841

>  <SCORE.INTER.CONST>
1

>  <SCORE.INTER.POLAR>
-2.86933

>  <SCORE.INTER.ROT>
8

>  <SCORE.INTER.SOLV>
27.3281

>  <SCORE.INTER.VDW>
-22.401

>  <SCORE.INTER.norm>
-0.652627

>  <SCORE.INTRA>
-22.6293

>  <SCORE.INTRA.DIHEDRAL>
-44.167

>  <SCORE.INTRA.DIHEDRAL.0>
76.3625

>  <SCORE.INTRA.POLAR>
0

>  <SCORE.INTRA.POLAR.0>
0

>  <SCORE.INTRA.REPUL>
0.054106

>  <SCORE.INTRA.REPUL.0>
0.12705

>  <SCORE.INTRA.SOLV>
-2.24311

>  <SCORE.INTRA.SOLV.lig_0>
-119.383

>  <SCORE.INTRA.VDW>
0.305287

>  <SCORE.INTRA.VDW.0>
-5.10464

>  <SCORE.INTRA.norm>
-0.707164

>  <SCORE.RESTR>
0

>  <SCORE.RESTR.CAVITY>
0

>  <SCORE.RESTR.norm>
0

>  <SCORE.SYSTEM>
0

>  <SCORE.SYSTEM.CONST>
0

>  <SCORE.SYSTEM.DIHEDRAL>
0

>  <SCORE.SYSTEM.SOLV>
0

>  <SCORE.SYSTEM.norm>
0

>  <SCORE.heavy>
32

>  <SCORE.norm>
-1.35979

>  <RMSD>
20.136

$$$$
2au4_lig
 OpenBabel11021811423D
libRbt.so/2013.1/901 2013/11/27
 32 34  0  0  0  0  0  0  0  0999 V2000
   56.2514   -7.4536   -6.3526 P   0  0  1  0  0  0  0  0  0  0  0  0
   55.2559   -7.8880   -3.8646 P   0  0  1  0  0  0  0  0  0  0  0  0
   54.4247  -10.3388   -3.0026 P   0  0  2  0  0  0  0  0  0  0  0  0
   55.3744   -5.2728   -7.5796 C   0  0  0  0  0  0  0  0  0  0  0  0
   55.1571   -6.2995   -6.5976 O   0  0  0  0  0  0  0  0  0  0  0  0
   56.6583   -4.4942   -7.3330 C   0  0  0  0  0  0  0  0  0  0  0  0
   56.6379   -3.2422   -8.0488 O   0  0  0  0  0  0  0  0  0  0  0  0
   56.8299   -4.1938   -5.8522 C   0  0  0  0  0  0  0  0  0  0  0  0
   57.9946   -4.8441   -5.3293 O   0  0  0  0  0  0  0  0  0  0  0  0
   56.9450   -2.6931   -5.7296 C   0  0  0  0  0  0  0  0  0  0  0  0
   58.1852   -2.3157   -5.1168 O   0  0  0  0  0  0  0  0  0  0  0  0
   56.8501   -2.1402   -7.1411 C   0  0  0  0  0  0  0  0  0  0  0  0
   54.3408    1.6685   -4.8468 N   0  0  0  0  0  0  0  0  0  0  0  0
   55.6439   -8.7573   -6.6877 O   0  5  0  0  0  0  0  0  0  0  0  0
   55.4439   -7.3220   -2.5147 O   0  5  0  0  0  0  0  0  0  0  0  0
   54.9067  -11.7348   -2.9896 O   0  5  0  0  0  0  0  0  0  0  0  0
   55.4042    0.9256   -4.3918 C   0  0  1  0  0  0  0  0  0  0  0  0
   55.8549    1.2246   -3.1808 N   0  0  0  0  0  0  0  0  0  0  0  0
   57.5214   -7.0426   -6.9883 O   0  0  0  0  0  0  0  0  0  0  0  0
   53.9949   -7.6529   -4.5981 O   0  0  0  0  0  0  0  0  0  0  0  0
   53.0894  -10.0228   -3.5514 O   0  0  0  0  0  0  0  0  0  0  0  0
   55.9789   -0.0505   -5.0902 N   0  0  0  0  0  0  0  0  0  0  0  0
   56.4572   -7.4015   -4.7793 O   0  0  0  0  0  0  0  0  0  0  0  0
   55.4954   -9.4569   -3.7853 O   0  0  0  0  0  0  0  0  0  0  0  0
   54.5124   -9.7568   -1.5078 O   0  0  0  0  0  0  0  0  0  0  0  0
   55.3940   -0.2258   -6.2975 C   0  0  2  0  0  0  0  0  0  0  0  0
   54.3248    0.4749   -6.8320 C   0  0  2  0  0  0  0  0  0  0  0  0
   53.7244    1.5106   -6.0751 C   0  0  1  0  0  0  0  0  0  0  0  0
   52.7665    2.2115   -6.3729 O   0  0  0  0  0  0  0  0  0  0  0  0
   54.0060   -0.0004   -8.1086 N   0  0  0  0  0  0  0  0  0  0  0  0
   54.8837   -0.9379   -8.2597 C   0  0  0  0  0  0  0  0  0  0  0  0
   55.7561   -1.1549   -7.2440 N   0  0  0  0  0  0  0  0  0  0  0  0
  1  5  1  6  0  0  0
  1 14  1  0  0  0  0
  1 19  2  0  0  0  0
  2 15  1  1  0  0  0
  2 20  2  0  0  0  0
  2 23  1  0  0  0  0
  3 16  1  6  0  0  0
  3 21  2  0  0  0  0
  3 24  1  0  0  0  0
  3 25  1  0  0  0  0
  4  6  1  0  0  0  0
  5  4  1  0  0  0  0
  6  7  1  0  0  0  0
  6  8  2  0  0  0  0
  7 12  1  0  0  0  0
  8  9  1  0  0  0  0
  8 10  1  0  0  0  0
 10 11  1  0  0  0  0
 10 12  2  0  0  0  0
 12 32  1  0  0  0  0
 13 17  1  0  0  0  0
 17 18  1  1  0  0  0
 17 22  1  0  0  0  0
 23  1  1  0  0  0  0
 24  2  1  0  0  0  0
 26 22  1  1  0  0  0
 27 26  1  0  0  0  0
 27 28  1  0  0  0  0
 27 30  1  1  0  0  0
 28 13  1  0  0  0  0
 28 29  1  1  0  0  0
 31 30  1  0  0  0  0
 32 26  1  0  0  0  0
 32 31  1  0  0  0  0
M  CHG  3  14  -1  15  -1  16  -1
M  END
>  <CHROM.1>
-117.38035934,-159.91505542,-176.29671401,-161.97935936,-57.34412865,158.55441217
69.21794912,69.09450473,55.47170003,-4.82314916,-5.34323995,-1.57807886,1.05779135
-0.23140429

>  <Name>
2au4_lig

>  <RI>
0

>  <Rbt.Current_Directory>
/home/afrankz/demos/rdock_decoys_rna/rnas/2au4

>  <Rbt.Executable>
rbdock ($Id: //depot/dev/client3/rdock/2013.1/src/exe/rbdock.cxx#4 $)

>  <Rbt.Library>
libRbt.so (2013.1, Build901 2013/11/27)

>  <Rbt.Parameter_File>
/export/apps/rDock/src/rDock_2013.1_src/data/scripts/dock_solv.prm

>  <Rbt.Receptor>
prm/blind_docking_60.prm

>  <SCORE>
-24.3071

>  <SCORE.INTER>
-5.83641

>  <SCORE.INTER.CONST>
1

>  <SCORE.INTER.POLAR>
-0.426637

>  <SCORE.INTER.ROT>
8

>  <SCORE.INTER.SOLV>
33.6164

>  <SCORE.INTER.VDW>
-22.6076

>  <SCORE.INTER.norm>
-0.182388

>  <SCORE.INTRA>
-24.3705

>  <SCORE.INTRA.DIHEDRAL>
-46.6817

>  <SCORE.INTRA.DIHEDRAL.0>
76.3625

>  <SCORE.INTRA.POLAR>
0

>  <SCORE.INTRA.POLAR.0>
0

>  <SCORE.INTRA.REPUL>
-0.12705

>  <SCORE.INTRA.REPUL.0>
0.12705

>  <SCORE.INTRA.SOLV>
-3.09538

>  <SCORE.INTRA.SOLV.lig_0>
-119.383

>  <SCORE.INTRA.VDW>
1.1533

>  <SCORE.INTRA.VDW.0>
-5.10464

>  <SCORE.INTRA.norm>
-0.761578

>  <SCORE.RESTR>
5.89981

>  <SCORE.RESTR.CAVITY>
5.89981

>  <SCORE.RESTR.norm>
0.184369

>  <SCORE.SYSTEM>
0

>  <SCORE.SYSTEM.CONST>
0

>  <SCORE.SYSTEM.DIHEDRAL>
0

>  <SCORE.SYSTEM.SOLV>
0

>  <SCORE.SYSTEM.norm>
0

>  <SCORE.heavy>
32

>  <SCORE.norm>
-0.759597

>  <RMSD>
20.136

$$$$
2au4_lig
 OpenBabel11021811423D
libRbt.so/2013.1/901 2013/11/27
 32 34  0  0  0  0  0  0  0  0999 V2000
   63.3316   -9.8630    2.8450 P   0  0  1  0  0  0  0  0  0  0  0  0
   66.0355   -9.6399    2.7534 P   0  0  1  0  0  0  0  0  0  0  0  0
   67.6369   -7.4348    2.6351 P   0  0  2  0  0  0  0  0  0  0  0  0
   62.0343  -10.5020    5.0675 C   0  0  0  0  0  0  0  0  0  0  0  0
   63.1820   -9.8993    4.4468 O   0  0  0  0  0  0  0  0  0  0  0  0
   62.2143  -11.9953    5.2978 C   0  0  0  0  0  0  0  0  0  0  0  0
   61.5390  -12.7519    4.2723 O   0  0  0  0  0  0  0  0  0  0  0  0
   63.6879  -12.3699    5.2741 C   0  0  0  0  0  0  0  0  0  0  0  0
   64.1094  -12.8712    6.5485 O   0  0  0  0  0  0  0  0  0  0  0  0
   63.8466  -13.4183    4.1989 C   0  0  0  0  0  0  0  0  0  0  0  0
   64.3830  -14.6351    4.7353 O   0  0  0  0  0  0  0  0  0  0  0  0
   62.4620  -13.6484    3.6183 C   0  0  0  0  0  0  0  0  0  0  0  0
   59.9027  -11.8149   -0.4009 N   0  0  0  0  0  0  0  0  0  0  0  0
   63.6652  -11.2217    2.3724 O   0  5  0  0  0  0  0  0  0  0  0  0
   65.9093  -10.8170    3.6346 O   0  5  0  0  0  0  0  0  0  0  0  0
   68.5225   -8.1298    1.6791 O   0  5  0  0  0  0  0  0  0  0  0  0
   59.5406  -11.8431    0.9249 C   0  0  1  0  0  0  0  0  0  0  0  0
   58.3554  -11.3272    1.2217 N   0  0  0  0  0  0  0  0  0  0  0  0
   62.1693   -9.1459    2.2785 O   0  0  0  0  0  0  0  0  0  0  0  0
   66.5822   -9.7905    1.3889 O   0  0  0  0  0  0  0  0  0  0  0  0
   68.1936   -6.4236    3.5579 O   0  0  0  0  0  0  0  0  0  0  0  0
   60.3020  -12.3523    1.8902 N   0  0  0  0  0  0  0  0  0  0  0  0
   64.6126   -8.9476    2.6417 O   0  0  0  0  0  0  0  0  0  0  0  0
   66.8964   -8.5399    3.5111 O   0  0  0  0  0  0  0  0  0  0  0  0
   66.4284   -6.7661    1.8147 O   0  0  0  0  0  0  0  0  0  0  0  0
   61.4712  -12.8387    1.4139 C   0  0  2  0  0  0  0  0  0  0  0  0
   61.9133  -12.8502    0.1008 C   0  0  2  0  0  0  0  0  0  0  0  0
   61.0902  -12.3044   -0.9145 C   0  0  1  0  0  0  0  0  0  0  0  0
   61.3037  -12.2509   -2.1183 O   0  0  0  0  0  0  0  0  0  0  0  0
   63.1775  -13.4416    0.0060 N   0  0  0  0  0  0  0  0  0  0  0  0
   63.4126  -13.7436    1.2412 C   0  0  0  0  0  0  0  0  0  0  0  0
   62.4644  -13.4294    2.1588 N   0  0  0  0  0  0  0  0  0  0  0  0
  1  5  1  1  0  0  0
  1 14  1  0  0  0  0
  1 19  2  0  0  0  0
  2 15  1  1  0  0  0
  2 20  2  0  0  0  0
  2 23  1  0  0  0  0
  3 16  1  6  0  0  0
  3 21  2  0  0  0  0
  3 24  1  0  0  0  0
  3 25  1  0  0  0  0
  4  6  1  0  0  0  0
  5  4  1  0  0  0  0
  6  7  1  0  0  0  0
  6  8  2  0  0  0  0
  7 12  1  0  0  0  0
  8  9  1  0  0  0  0
  8 10  1  0  0  0  0
 10 11  1  0  0  0  0
 10 12  2  0  0  0  0
 12 32  1  0  0  0  0
 13 17  1  0  0  0  0
 17 18  1  6  0  0  0
 17 22  1  0  0  0  0
 23  1  1  0  0  0  0
 24  2  1  0  0  0  0
 26 22  1  6  0  0  0
 27 26  1  0  0  0  0
 27 28  1  0  0  0  0
 27 30  1  6  0  0  0
 28 13  1  0  0  0  0
 28 29  1  6  0  0  0
 31 30  1  0  0  0  0
 32 26  1  0  0  0  0
 32 31  1  0  0  0  0
M  CHG  3  14  -1  15  -1  16  -1
M  END
>  <CHROM.1>
-73.50593549,-26.89902590,-57.24235608,-100.13914597,87.50032449,-21.37574461
83.60548743,157.45817093,63.76763877,-10.85089381,2.53285847,0.13230661,-0.66217858
-1.06233475

>  <Name>
2au4_lig

>  <RI>
0

>  <Rbt.Current_Directory>
/home/itssahil/PROJECTS/Mol_Feturizer/New_Systems/rnas/2au4

>  <Rbt.Executable>
rbdock ($Id: //depot/dev/client3/rdock/2013.1/src/exe/rbdock.cxx#4 $)

>  <Rbt.Library>
libRbt.so (2013.1, Build901 2013/11/27)

>  <Rbt.Parameter_File>
/export/apps/rDock/src/rDock_2013.1_src/data/scripts/dock_solv.prm

>  <Rbt.Receptor>
prm/blind_docking_100.prm

>  <SCORE>
-42.1272

>  <SCORE.INTER>
-23.9379

>  <SCORE.INTER.CONST>
1

>  <SCORE.INTER.POLAR>
-2.96822

>  <SCORE.INTER.ROT>
8

>  <SCORE.INTER.SOLV>
26.0189

>  <SCORE.INTER.VDW>
-23.6708

>  <SCORE.INTER.norm>
-0.74806

>  <SCORE.INTRA>
-18.2778

>  <SCORE.INTRA.DIHEDRAL>
-43.479

>  <SCORE.INTRA.DIHEDRAL.0>
76.3625

>  <SCORE.INTRA.POLAR>
0

>  <SCORE.INTRA.POLAR.0>
0

>  <SCORE.INTRA.REPUL>
0.0676235

>  <SCORE.INTRA.REPUL.0>
0.12705

>  <SCORE.INTRA.SOLV>
5.21474

>  <SCORE.INTRA.SOLV.lig_0>
-119.383

>  <SCORE.INTRA.VDW>
0.516209

>  <SCORE.INTRA.VDW.0>
-5.10464

>  <SCORE.INTRA.norm>
-0.571182

>  <SCORE.RESTR>
0.0884761

>  <SCORE.RESTR.CAVITY>
0.0884761

>  <SCORE.RESTR.norm>
0.00276488

>  <SCORE.SYSTEM>
0

>  <SCORE.SYSTEM.CONST>
0

>  <SCORE.SYSTEM.DIHEDRAL>
0

>  <SCORE.SYSTEM.SOLV>
0

>  <SCORE.SYSTEM.norm>
0

>  <SCORE.heavy>
32

>  <SCORE.norm>
-1.31648

>  <RMSD>
20.168

$$$$
2au4_lig
 OpenBabel11021811423D
libRbt.so/2013.1/901 2013/11/27
 32 34  0  0  0  0  0  0  0  0999 V2000
   54.7332   -7.8630   -5.6948 P   0  0  1  0  0  0  0  0  0  0  0  0
   54.3050   -9.1776   -3.3586 P   0  0  1  0  0  0  0  0  0  0  0  0
   54.0500   -7.3760   -1.3264 P   0  0  2  0  0  0  0  0  0  0  0  0
   55.2673   -5.6792   -7.1006 C   0  0  0  0  0  0  0  0  0  0  0  0
   55.1331   -6.3090   -5.8157 O   0  0  0  0  0  0  0  0  0  0  0  0
   56.5939   -4.9499   -7.2554 C   0  0  0  0  0  0  0  0  0  0  0  0
   56.4754   -3.8794   -8.2147 O   0  0  0  0  0  0  0  0  0  0  0  0
   57.0388   -4.3541   -5.9289 C   0  0  0  0  0  0  0  0  0  0  0  0
   58.2623   -4.9521   -5.4836 O   0  0  0  0  0  0  0  0  0  0  0  0
   57.2119   -2.8720   -6.1611 C   0  0  0  0  0  0  0  0  0  0  0  0
   58.5518   -2.4536   -5.8684 O   0  0  0  0  0  0  0  0  0  0  0  0
   56.8764   -2.6259   -7.6219 C   0  0  0  0  0  0  0  0  0  0  0  0
   54.4365    1.2741   -5.4076 N   0  0  0  0  0  0  0  0  0  0  0  0
   53.2607   -7.9732   -5.7141 O   0  5  0  0  0  0  0  0  0  0  0  0
   53.4355   -9.9456   -4.2709 O   0  5  0  0  0  0  0  0  0  0  0  0
   55.1982   -6.5923   -1.8251 O   0  5  0  0  0  0  0  0  0  0  0  0
   55.4777    0.5131   -4.9316 C   0  0  1  0  0  0  0  0  0  0  0  0
   55.9239    0.8192   -3.7207 N   0  0  0  0  0  0  0  0  0  0  0  0
   55.5469   -8.6361   -6.6573 O   0  0  0  0  0  0  0  0  0  0  0  0
   55.1603   -9.8824   -2.3812 O   0  0  0  0  0  0  0  0  0  0  0  0
   54.2419   -8.3584   -0.2391 O   0  0  0  0  0  0  0  0  0  0  0  0
   56.0356   -0.4864   -5.6100 N   0  0  0  0  0  0  0  0  0  0  0  0
   55.2307   -8.2316   -4.2330 O   0  0  0  0  0  0  0  0  0  0  0  0
   53.4014   -8.1392   -2.5648 O   0  0  0  0  0  0  0  0  0  0  0  0
   52.8880   -6.3553   -0.8922 O   0  0  0  0  0  0  0  0  0  0  0  0
   55.4582   -0.6656   -6.8204 C   0  0  2  0  0  0  0  0  0  0  0  0
   54.4110    0.0521   -7.3754 C   0  0  2  0  0  0  0  0  0  0  0  0
   53.8281    1.1127   -6.6395 C   0  0  1  0  0  0  0  0  0  0  0  0
   52.8899    1.8315   -6.9568 O   0  0  0  0  0  0  0  0  0  0  0  0
   54.0931   -0.4343   -8.6480 N   0  0  0  0  0  0  0  0  0  0  0  0
   54.9497   -1.3943   -8.7769 C   0  0  0  0  0  0  0  0  0  0  0  0
   55.8071   -1.6168   -7.7497 N   0  0  0  0  0  0  0  0  0  0  0  0
  1  5  1  6  0  0  0
  1 14  1  0  0  0  0
  1 19  2  0  0  0  0
  2 15  1  6  0  0  0
  2 20  2  0  0  0  0
  2 23  1  0  0  0  0
  3 16  1  6  0  0  0
  3 21  2  0  0  0  0
  3 24  1  0  0  0  0
  3 25  1  0  0  0  0
  4  6  1  0  0  0  0
  5  4  1  0  0  0  0
  6  7  1  0  0  0  0
  6  8  2  0  0  0  0
  7 12  1  0  0  0  0
  8  9  1  0  0  0  0
  8 10  1  0  0  0  0
 10 11  1  0  0  0  0
 10 12  2  0  0  0  0
 12 32  1  0  0  0  0
 13 17  1  0  0  0  0
 17 18  1  1  0  0  0
 17 22  1  0  0  0  0
 23  1  1  0  0  0  0
 24  2  1  0  0  0  0
 26 22  1  1  0  0  0
 27 26  1  0  0  0  0
 27 28  1  0  0  0  0
 27 30  1  1  0  0  0
 28 13  1  0  0  0  0
 28 29  1  1  0  0  0
 31 30  1  0  0  0  0
 32 26  1  0  0  0  0
 32 31  1  0  0  0  0
M  CHG  3  14  -1  15  -1  16  -1
M  END
>  <CHROM.1>
-86.50209717,22.39359332,60.86045124,-154.03926870,-128.23974585,142.57621373
139.95419892,168.90006542,55.07532482,-4.78393909,-5.08137053,-1.86549785
1.21474860,-0.14773574

>  <Name>
2au4_lig

>  <RI>
0

>  <Rbt.Current_Directory>
/home/afrankz/demos/rdock_decoys_rna/rnas/2au4

>  <Rbt.Executable>
rbdock ($Id: //depot/dev/client3/rdock/2013.1/src/exe/rbdock.cxx#4 $)

>  <Rbt.Library>
libRbt.so (2013.1, Build901 2013/11/27)

>  <Rbt.Parameter_File>
/export/apps/rDock/src/rDock_2013.1_src/data/scripts/dock_solv.prm

>  <Rbt.Receptor>
prm/blind_docking_60.prm

>  <SCORE>
-12.5502

>  <SCORE.INTER>
-0.0798417

>  <SCORE.INTER.CONST>
1

>  <SCORE.INTER.POLAR>
-1.03697

>  <SCORE.INTER.ROT>
8

>  <SCORE.INTER.SOLV>
31.3181

>  <SCORE.INTER.VDW>
-15.9693

>  <SCORE.INTER.norm>
-0.00249505

>  <SCORE.INTRA>
-19.5126

>  <SCORE.INTRA.DIHEDRAL>
-39.2414

>  <SCORE.INTRA.DIHEDRAL.0>
76.3625

>  <SCORE.INTRA.POLAR>
0

>  <SCORE.INTRA.POLAR.0>
0

>  <SCORE.INTRA.REPUL>
-0.12705

>  <SCORE.INTRA.REPUL.0>
0.12705

>  <SCORE.INTRA.SOLV>
-4.25813

>  <SCORE.INTRA.SOLV.lig_0>
-119.383

>  <SCORE.INTRA.VDW>
2.87237

>  <SCORE.INTRA.VDW.0>
-5.10464

>  <SCORE.INTRA.norm>
-0.609769

>  <SCORE.RESTR>
7.04223

>  <SCORE.RESTR.CAVITY>
7.04223

>  <SCORE.RESTR.norm>
0.22007

>  <SCORE.SYSTEM>
0

>  <SCORE.SYSTEM.CONST>
0

>  <SCORE.SYSTEM.DIHEDRAL>
0

>  <SCORE.SYSTEM.SOLV>
0

>  <SCORE.SYSTEM.norm>
0

>  <SCORE.heavy>
32

>  <SCORE.norm>
-0.392195

>  <RMSD>
20.179

$$$$
2au4_lig
 OpenBabel11021811423D
libRbt.so/2013.1/901 2013/11/27
 32 34  0  0  0  0  0  0  0  0999 V2000
   65.2720  -12.5533    1.2210 P   0  0  1  0  0  0  0  0  0  0  0  0
   67.2485  -10.6977    1.3607 P   0  0  1  0  0  0  0  0  0  0  0  0
   66.6217   -8.0771    1.7852 P   0  0  2  0  0  0  0  0  0  0  0  0
   62.8586  -13.6508    1.1821 C   0  0  0  0  0  0  0  0  0  0  0  0
   63.6655  -12.4616    1.2053 O   0  0  0  0  0  0  0  0  0  0  0  0
   61.3711  -13.3467    1.2849 C   0  0  0  0  0  0  0  0  0  0  0  0
   60.9956  -13.1080    2.6568 O   0  0  0  0  0  0  0  0  0  0  0  0
   61.0166  -12.1114    0.4720 C   0  0  0  0  0  0  0  0  0  0  0  0
   60.1235  -12.4418   -0.5986 O   0  0  0  0  0  0  0  0  0  0  0  0
   60.3771  -11.1359    1.4310 C   0  0  0  0  0  0  0  0  0  0  0  0
   59.0488  -10.7929    1.0139 O   0  0  0  0  0  0  0  0  0  0  0  0
   60.3575  -11.8200    2.7870 C   0  0  0  0  0  0  0  0  0  0  0  0
   63.1118  -11.7919    7.0858 N   0  0  0  0  0  0  0  0  0  0  0  0
   65.6969  -13.1523    2.5021 O   0  5  0  0  0  0  0  0  0  0  0  0
   67.6137  -10.7487    2.7897 O   0  5  0  0  0  0  0  0  0  0  0  0
   67.2526   -8.1131    3.1201 O   0  5  0  0  0  0  0  0  0  0  0  0
   62.6100  -12.8583    6.3781 C   0  0  1  0  0  0  0  0  0  0  0  0
   62.8648  -14.0630    6.8709 N   0  0  0  0  0  0  0  0  0  0  0  0
   65.7238  -13.1415   -0.0581 O   0  0  0  0  0  0  0  0  0  0  0  0
   67.9782  -11.5268    0.3790 O   0  0  0  0  0  0  0  0  0  0  0  0
   65.1592   -8.2447    1.6539 O   0  0  0  0  0  0  0  0  0  0  0  0
   61.9002  -12.7369    5.2591 N   0  0  0  0  0  0  0  0  0  0  0  0
   65.7018  -11.0251    1.2308 O   0  0  0  0  0  0  0  0  0  0  0  0
   67.3230   -9.1847    0.8807 O   0  0  0  0  0  0  0  0  0  0  0  0
   67.0452   -6.7080    1.0594 O   0  0  0  0  0  0  0  0  0  0  0  0
   61.7303  -11.4432    4.9013 C   0  0  2  0  0  0  0  0  0  0  0  0
   62.1995  -10.3140    5.5529 C   0  0  2  0  0  0  0  0  0  0  0  0
   62.9532  -10.4611    6.7431 C   0  0  1  0  0  0  0  0  0  0  0  0
   63.4221   -9.5857    7.4581 O   0  0  0  0  0  0  0  0  0  0  0  0
   61.8164   -9.1521    4.8744 N   0  0  0  0  0  0  0  0  0  0  0  0
   61.1539   -9.6434    3.8785 C   0  0  0  0  0  0  0  0  0  0  0  0
   61.0421  -10.9928    3.7996 N   0  0  0  0  0  0  0  0  0  0  0  0
  1  5  1  6  0  0  0
  1 14  1  0  0  0  0
  1 19  2  0  0  0  0
  2 15  1  1  0  0  0
  2 20  2  0  0  0  0
  2 23  1  0  0  0  0
  3 16  1  1  0  0  0
  3 21  2  0  0  0  0
  3 24  1  0  0  0  0
  3 25  1  0  0  0  0
  4  6  1  0  0  0  0
  5  4  1  0  0  0  0
  6  7  1  0  0  0  0
  6  8  2  0  0  0  0
  7 12  1  0  0  0  0
  8  9  1  0  0  0  0
  8 10  1  0  0  0  0
 10 11  1  0  0  0  0
 10 12  2  0  0  0  0
 12 32  1  0  0  0  0
 13 17  1  0  0  0  0
 17 18  1  1  0  0  0
 17 22  1  0  0  0  0
 23  1  1  0  0  0  0
 24  2  1  0  0  0  0
 26 22  1  1  0  0  0
 27 26  1  0  0  0  0
 27 28  1  0  0  0  0
 27 30  1  1  0  0  0
 28 13  1  0  0  0  0
 28 29  1  1  0  0  0
 31 30  1  0  0  0  0
 32 26  1  0  0  0  0
 32 31  1  0  0  0  0
M  CHG  3  14  -1  15  -1  16  -1
M  END
>  <CHROM.1>
-66.53940481,-82.80394518,59.90569224,-80.64087850,175.32412023,-28.94586592
175.38213557,-47.66979882,63.93812496,-11.04949807,2.67946952,0.27424368
-0.47044248,-1.89155168

>  <Name>
2au4_lig

>  <RI>
0

>  <Rbt.Current_Directory>
/home/itssahil/PROJECTS/Mol_Feturizer/New_Systems/rnas/2au4

>  <Rbt.Executable>
rbdock ($Id: //depot/dev/client3/rdock/2013.1/src/exe/rbdock.cxx#4 $)

>  <Rbt.Library>
libRbt.so (2013.1, Build901 2013/11/27)

>  <Rbt.Parameter_File>
/export/apps/rDock/src/rDock_2013.1_src/data/scripts/dock_solv.prm

>  <Rbt.Receptor>
prm/blind_docking_100.prm

>  <SCORE>
-52.5822

>  <SCORE.INTER>
-26.3565

>  <SCORE.INTER.CONST>
1

>  <SCORE.INTER.POLAR>
-3.65066

>  <SCORE.INTER.ROT>
8

>  <SCORE.INTER.SOLV>
24.9191

>  <SCORE.INTER.VDW>
-22.6419

>  <SCORE.INTER.norm>
-0.823642

>  <SCORE.INTRA>
-26.2393

>  <SCORE.INTRA.DIHEDRAL>
-50.3127

>  <SCORE.INTRA.DIHEDRAL.0>
76.3625

>  <SCORE.INTRA.POLAR>
0

>  <SCORE.INTRA.POLAR.0>
0

>  <SCORE.INTRA.REPUL>
0.0666731

>  <SCORE.INTRA.REPUL.0>
0.12705

>  <SCORE.INTRA.SOLV>
-4.96914

>  <SCORE.INTRA.SOLV.lig_0>
-119.383

>  <SCORE.INTRA.VDW>
1.06818

>  <SCORE.INTRA.VDW.0>
-5.10464

>  <SCORE.INTRA.norm>
-0.81998

>  <SCORE.RESTR>
0.0137186

>  <SCORE.RESTR.CAVITY>
0.0137186

>  <SCORE.RESTR.norm>
0.000428706

>  <SCORE.SYSTEM>
0

>  <SCORE.SYSTEM.CONST>
0

>  <SCORE.SYSTEM.DIHEDRAL>
0

>  <SCORE.SYSTEM.SOLV>
0

>  <SCORE.SYSTEM.norm>
0

>  <SCORE.heavy>
32

>  <SCORE.norm>
-1.64319

>  <RMSD>
20.181

$$$$
2au4_lig
 OpenBabel11021811423D
libRbt.so/2013.1/901 2013/11/27
 32 34  0  0  0  0  0  0  0  0999 V2000
   56.7112   -7.5058   -7.1913 P   0  0  1  0  0  0  0  0  0  0  0  0
   55.2190   -8.3349   -5.0805 P   0  0  1  0  0  0  0  0  0  0  0  0
   54.1243   -9.8526   -3.0959 P   0  0  2  0  0  0  0  0  0  0  0  0
   55.7751   -5.1445   -7.9519 C   0  0  0  0  0  0  0  0  0  0  0  0
   55.5957   -6.3461   -7.1840 O   0  0  0  0  0  0  0  0  0  0  0  0
   56.9801   -4.3359   -7.4943 C   0  0  0  0  0  0  0  0  0  0  0  0
   56.9827   -3.0338   -8.1145 O   0  0  0  0  0  0  0  0  0  0  0  0
   56.9592   -4.1452   -5.9857 C   0  0  0  0  0  0  0  0  0  0  0  0
   58.0843   -4.7864   -5.3728 O   0  0  0  0  0  0  0  0  0  0  0  0
   56.9840   -2.6552   -5.7415 C   0  0  0  0  0  0  0  0  0  0  0  0
   58.1221   -2.2767   -4.9558 O   0  0  0  0  0  0  0  0  0  0  0  0
   57.0303   -1.9982   -7.1102 C   0  0  0  0  0  0  0  0  0  0  0  0
   54.2004    1.6483   -4.9282 N   0  0  0  0  0  0  0  0  0  0  0  0
   56.9339   -7.9361   -8.5863 O   0  5  0  0  0  0  0  0  0  0  0  0
   56.1313   -7.5493   -4.2270 O   0  5  0  0  0  0  0  0  0  0  0  0
   54.5076   -8.7359   -2.2086 O   0  5  0  0  0  0  0  0  0  0  0  0
   55.2547    0.9347   -4.4096 C   0  0  1  0  0  0  0  0  0  0  0  0
   55.5984    1.2181   -3.1604 N   0  0  0  0  0  0  0  0  0  0  0  0
   57.8526   -7.0681   -6.3596 O   0  0  0  0  0  0  0  0  0  0  0  0
   53.8873   -7.7996   -5.4317 O   0  0  0  0  0  0  0  0  0  0  0  0
   54.1857  -11.2441   -2.6018 O   0  0  0  0  0  0  0  0  0  0  0  0
   55.9203    0.0005   -5.0841 N   0  0  0  0  0  0  0  0  0  0  0  0
   55.9795   -8.6892   -6.4268 O   0  0  0  0  0  0  0  0  0  0  0  0
   55.0164   -9.7624   -4.4122 O   0  0  0  0  0  0  0  0  0  0  0  0
   52.6434   -9.5742   -3.6528 O   0  0  0  0  0  0  0  0  0  0  0  0
   55.4376   -0.1645   -6.3373 C   0  0  2  0  0  0  0  0  0  0  0  0
   54.3853    0.5088   -6.9366 C   0  0  2  0  0  0  0  0  0  0  0  0
   53.6872    1.5001   -6.2043 C   0  0  1  0  0  0  0  0  0  0  0  0
   52.7276    2.1715   -6.5591 O   0  0  0  0  0  0  0  0  0  0  0  0
   54.1852    0.0562   -8.2451 N   0  0  0  0  0  0  0  0  0  0  0  0
   55.1089   -0.8425   -8.3497 C   0  0  0  0  0  0  0  0  0  0  0  0
   55.9086   -1.0532   -7.2745 N   0  0  0  0  0  0  0  0  0  0  0  0
  1  5  1  6  0  0  0
  1 14  1  0  0  0  0
  1 19  2  0  0  0  0
  2 15  1  1  0  0  0
  2 20  2  0  0  0  0
  2 23  1  0  0  0  0
  3 16  1  1  0  0  0
  3 21  2  0  0  0  0
  3 24  1  0  0  0  0
  3 25  1  0  0  0  0
  4  6  1  0  0  0  0
  5  4  1  0  0  0  0
  6  7  1  0  0  0  0
  6  8  2  0  0  0  0
  7 12  1  0  0  0  0
  8  9  1  0  0  0  0
  8 10  1  0  0  0  0
 10 11  1  0  0  0  0
 10 12  2  0  0  0  0
 12 32  1  0  0  0  0
 13 17  1  0  0  0  0
 17 18  1  1  0  0  0
 17 22  1  0  0  0  0
 23  1  1  0  0  0  0
 24  2  1  0  0  0  0
 26 22  1  1  0  0  0
 27 26  1  0  0  0  0
 27 28  1  0  0  0  0
 27 30  1  1  0  0  0
 28 13  1  0  0  0  0
 28 29  1  1  0  0  0
 31 30  1  0  0  0  0
 32 26  1  0  0  0  0
 32 31  1  0  0  0  0
M  CHG  3  14  -1  15  -1  16  -1
M  END
>  <CHROM.1>
-56.93553754,-49.33828421,-43.95116139,-169.42279029,-62.91011279,162.37407668
-46.38417705,72.71180431,55.53248912,-4.77020165,-5.72924204,-1.58564440
0.94169857,-0.16427777

>  <Name>
2au4_lig

>  <RI>
0

>  <Rbt.Current_Directory>
/home/afrankz/demos/rdock_decoys_rna/rnas/2au4

>  <Rbt.Executable>
rbdock ($Id: //depot/dev/client3/rdock/2013.1/src/exe/rbdock.cxx#4 $)

>  <Rbt.Library>
libRbt.so (2013.1, Build901 2013/11/27)

>  <Rbt.Parameter_File>
/export/apps/rDock/src/rDock_2013.1_src/data/scripts/dock_solv.prm

>  <Rbt.Receptor>
prm/blind_docking_60.prm

>  <SCORE>
-20.3815

>  <SCORE.INTER>
-2.37328

>  <SCORE.INTER.CONST>
1

>  <SCORE.INTER.POLAR>
0

>  <SCORE.INTER.ROT>
8

>  <SCORE.INTER.SOLV>
31.2465

>  <SCORE.INTER.VDW>
-20.931

>  <SCORE.INTER.norm>
-0.0741651

>  <SCORE.INTRA>
-25.114

>  <SCORE.INTRA.DIHEDRAL>
-47.6889

>  <SCORE.INTRA.DIHEDRAL.0>
76.3625

>  <SCORE.INTRA.POLAR>
0

>  <SCORE.INTRA.POLAR.0>
0

>  <SCORE.INTRA.REPUL>
-0.12705

>  <SCORE.INTRA.REPUL.0>
0.12705

>  <SCORE.INTRA.SOLV>
-2.90961

>  <SCORE.INTRA.SOLV.lig_0>
-119.383

>  <SCORE.INTRA.VDW>
0.820513

>  <SCORE.INTRA.VDW.0>
-5.10464

>  <SCORE.INTRA.norm>
-0.784812

>  <SCORE.RESTR>
7.10578

>  <SCORE.RESTR.CAVITY>
7.10578

>  <SCORE.RESTR.norm>
0.222056

>  <SCORE.SYSTEM>
0

>  <SCORE.SYSTEM.CONST>
0

>  <SCORE.SYSTEM.DIHEDRAL>
0

>  <SCORE.SYSTEM.SOLV>
0

>  <SCORE.SYSTEM.norm>
0

>  <SCORE.heavy>
32

>  <SCORE.norm>
-0.636922

>  <RMSD>
20.188

$$$$
2au4_lig
 OpenBabel11021811423D
libRbt.so/2013.1/901 2013/11/27
 32 34  0  0  0  0  0  0  0  0999 V2000
   65.9639  -12.3707    1.5794 P   0  0  1  0  0  0  0  0  0  0  0  0
   67.6376  -10.3012    1.0453 P   0  0  1  0  0  0  0  0  0  0  0  0
   66.4721   -7.8904    1.5647 P   0  0  2  0  0  0  0  0  0  0  0  0
   63.7912  -13.8798    1.3990 C   0  0  0  0  0  0  0  0  0  0  0  0
   64.3750  -12.5666    1.4159 O   0  0  0  0  0  0  0  0  0  0  0  0
   62.2963  -13.8484    1.1167 C   0  0  0  0  0  0  0  0  0  0  0  0
   61.5558  -13.6036    2.3300 O   0  0  0  0  0  0  0  0  0  0  0  0
   61.9591  -12.7482    0.1225 C   0  0  0  0  0  0  0  0  0  0  0  0
   61.4285  -13.2982   -1.0895 O   0  0  0  0  0  0  0  0  0  0  0  0
   60.9493  -11.8527    0.7999 C   0  0  0  0  0  0  0  0  0  0  0  0
   59.7298  -11.7840    0.0487 O   0  0  0  0  0  0  0  0  0  0  0  0
   60.7034  -12.4492    2.1750 C   0  0  0  0  0  0  0  0  0  0  0  0
   62.4665  -11.6407    6.8977 N   0  0  0  0  0  0  0  0  0  0  0  0
   66.3194  -12.5707    2.9987 O   0  5  0  0  0  0  0  0  0  0  0  0
   68.3165  -10.3319    2.3554 O   0  5  0  0  0  0  0  0  0  0  0  0
   67.0991   -7.8061    2.8993 O   0  5  0  0  0  0  0  0  0  0  0  0
   62.3691  -12.8165    6.1923 C   0  0  1  0  0  0  0  0  0  0  0  0
   62.7850  -13.9114    6.8145 N   0  0  0  0  0  0  0  0  0  0  0  0
   66.6468  -13.1532    0.5270 O   0  0  0  0  0  0  0  0  0  0  0  0
   68.2285  -11.0040   -0.1125 O   0  0  0  0  0  0  0  0  0  0  0  0
   65.0893   -8.3936    1.4280 O   0  0  0  0  0  0  0  0  0  0  0  0
   61.8881  -12.9002    4.9545 N   0  0  0  0  0  0  0  0  0  0  0  0
   66.1554  -10.8315    1.2409 O   0  0  0  0  0  0  0  0  0  0  0  0
   67.4102   -8.7825    0.6369 O   0  0  0  0  0  0  0  0  0  0  0  0
   66.5596   -6.4447    0.8698 O   0  0  0  0  0  0  0  0  0  0  0  0
   61.5062  -11.6946    4.4735 C   0  0  2  0  0  0  0  0  0  0  0  0
   61.5696  -10.4672    5.1132 C   0  0  2  0  0  0  0  0  0  0  0  0
   62.0840  -10.3959    6.4310 C   0  0  1  0  0  0  0  0  0  0  0  0
   62.1917   -9.4130    7.1520 O   0  0  0  0  0  0  0  0  0  0  0  0
   61.0780   -9.4498    4.2884 N   0  0  0  0  0  0  0  0  0  0  0  0
   60.7554  -10.1137    3.2268 C   0  0  0  0  0  0  0  0  0  0  0  0
   60.9683  -11.4532    3.2315 N   0  0  0  0  0  0  0  0  0  0  0  0
  1  5  1  6  0  0  0
  1 14  1  0  0  0  0
  1 19  2  0  0  0  0
  2 15  1  1  0  0  0
  2 20  2  0  0  0  0
  2 23  1  0  0  0  0
  3 16  1  1  0  0  0
  3 21  2  0  0  0  0
  3 24  1  0  0  0  0
  3 25  1  0  0  0  0
  4  6  1  0  0  0  0
  5  4  1  0  0  0  0
  6  7  1  0  0  0  0
  6  8  2  0  0  0  0
  7 12  1  0  0  0  0
  8  9  1  0  0  0  0
  8 10  1  0  0  0  0
 10 11  1  0  0  0  0
 10 12  2  0  0  0  0
 12 32  1  0  0  0  0
 13 17  1  0  0  0  0
 17 18  1  1  0  0  0
 17 22  1  0  0  0  0
 23  1  1  0  0  0  0
 24  2  1  0  0  0  0
 26 22  1  1  0  0  0
 27 26  1  0  0  0  0
 27 28  1  0  0  0  0
 27 30  1  1  0  0  0
 28 13  1  0  0  0  0
 28 29  1  1  0  0  0
 31 30  1  0  0  0  0
 32 26  1  0  0  0  0
 32 31  1  0  0  0  0
M  CHG  3  14  -1  15  -1  16  -1
M  END
>  <CHROM.1>
-77.32939134,-69.18675358,62.83654814,-83.96458263,-175.09816262,-24.30931064
-169.47644242,-62.88160883,64.11714544,-11.09696194,2.45456093,0.16632217
-0.56159727,-2.13366971

>  <Name>
2au4_lig

>  <RI>
0

>  <Rbt.Current_Directory>
/home/itssahil/PROJECTS/Mol_Feturizer/New_Systems/rnas/2au4

>  <Rbt.Executable>
rbdock ($Id: //depot/dev/client3/rdock/2013.1/src/exe/rbdock.cxx#4 $)

>  <Rbt.Library>
libRbt.so (2013.1, Build901 2013/11/27)

>  <Rbt.Parameter_File>
/export/apps/rDock/src/rDock_2013.1_src/data/scripts/dock_solv.prm

>  <Rbt.Receptor>
prm/blind_docking_100.prm

>  <SCORE>
-55.5393

>  <SCORE.INTER>
-30.2039

>  <SCORE.INTER.CONST>
1

>  <SCORE.INTER.POLAR>
-3.81405

>  <SCORE.INTER.ROT>
8

>  <SCORE.INTER.SOLV>
26.1847

>  <SCORE.INTER.VDW>
-25.084

>  <SCORE.INTER.norm>
-0.943871

>  <SCORE.INTRA>
-25.9052

>  <SCORE.INTRA.DIHEDRAL>
-49.9914

>  <SCORE.INTRA.DIHEDRAL.0>
76.3625

>  <SCORE.INTRA.POLAR>
0

>  <SCORE.INTRA.POLAR.0>
0

>  <SCORE.INTRA.REPUL>
0.0715575

>  <SCORE.INTRA.REPUL.0>
0.12705

>  <SCORE.INTRA.SOLV>
-4.60633

>  <SCORE.INTRA.SOLV.lig_0>
-119.383

>  <SCORE.INTRA.VDW>
1.03595

>  <SCORE.INTRA.VDW.0>
-5.10464

>  <SCORE.INTRA.norm>
-0.809536

>  <SCORE.RESTR>
0.569684

>  <SCORE.RESTR.CAVITY>
0.569684

>  <SCORE.RESTR.norm>
0.0178026

>  <SCORE.SYSTEM>
0

>  <SCORE.SYSTEM.CONST>
0

>  <SCORE.SYSTEM.DIHEDRAL>
0

>  <SCORE.SYSTEM.SOLV>
0

>  <SCORE.SYSTEM.norm>
0

>  <SCORE.heavy>
32

>  <SCORE.norm>
-1.7356

>  <RMSD>
20.206

$$$$
2au4_lig
 OpenBabel11021811423D
libRbt.so/2013.1/901 2013/11/27
 32 34  0  0  0  0  0  0  0  0999 V2000
   57.0247   -5.4725   -6.5534 P   0  0  1  0  0  0  0  0  0  0  0  0
   57.5437   -2.8553   -7.0539 P   0  0  1  0  0  0  0  0  0  0  0  0
   55.5908   -1.1250   -7.8497 P   0  0  2  0  0  0  0  0  0  0  0  0
   54.9769   -6.0037   -4.9551 C   0  0  0  0  0  0  0  0  0  0  0  0
   56.0395   -5.1128   -5.3331 O   0  0  0  0  0  0  0  0  0  0  0  0
   55.4649   -7.4262   -4.7235 C   0  0  0  0  0  0  0  0  0  0  0  0
   55.6615   -7.6724   -3.3160 O   0  0  0  0  0  0  0  0  0  0  0  0
   54.4537   -8.4343   -5.2469 C   0  0  0  0  0  0  0  0  0  0  0  0
   55.0076   -9.2049   -6.3203 O   0  0  0  0  0  0  0  0  0  0  0  0
   54.0844   -9.3173   -4.0789 C   0  0  0  0  0  0  0  0  0  0  0  0
   54.3789  -10.6933   -4.3547 O   0  0  0  0  0  0  0  0  0  0  0  0
   54.8934   -8.8191   -2.8937 C   0  0  0  0  0  0  0  0  0  0  0  0
   53.8228   -5.4357    0.7768 N   0  0  0  0  0  0  0  0  0  0  0  0
   58.4130   -5.4836   -6.0502 O   0  5  0  0  0  0  0  0  0  0  0  0
   57.0005   -2.4833   -5.7330 O   0  5  0  0  0  0  0  0  0  0  0  0
   54.6306   -2.1794   -7.4656 O   0  5  0  0  0  0  0  0  0  0  0  0
   54.8200   -5.4105   -0.1691 C   0  0  1  0  0  0  0  0  0  0  0  0
   55.6350   -4.3647   -0.1362 N   0  0  0  0  0  0  0  0  0  0  0  0
   56.4847   -6.6511   -7.2644 O   0  0  0  0  0  0  0  0  0  0  0  0
   59.0030   -2.9870   -7.2449 O   0  0  0  0  0  0  0  0  0  0  0  0
   55.2927   -0.2333   -8.9898 O   0  0  0  0  0  0  0  0  0  0  0  0
   54.9983   -6.3608   -1.0833 N   0  0  0  0  0  0  0  0  0  0  0  0
   56.8617   -4.2139   -7.5072 O   0  0  0  0  0  0  0  0  0  0  0  0
   56.9971   -1.8192   -8.1276 O   0  0  0  0  0  0  0  0  0  0  0  0
   55.8934   -0.2182   -6.5586 O   0  0  0  0  0  0  0  0  0  0  0  0
   54.0851   -7.3529   -0.9718 C   0  0  2  0  0  0  0  0  0  0  0  0
   53.0528   -7.4565   -0.0535 C   0  0  2  0  0  0  0  0  0  0  0  0
   52.8773   -6.4362    0.9132 C   0  0  1  0  0  0  0  0  0  0  0  0
   52.0446   -6.3726    1.8076 O   0  0  0  0  0  0  0  0  0  0  0  0
   52.3210   -8.6313   -0.2573 N   0  0  0  0  0  0  0  0  0  0  0  0
   52.9452   -9.1510   -1.2634 C   0  0  0  0  0  0  0  0  0  0  0  0
   54.0077   -8.4733   -1.7649 N   0  0  0  0  0  0  0  0  0  0  0  0
  1  5  1  1  0  0  0
  1 14  1  0  0  0  0
  1 19  2  0  0  0  0
  2 15  1  1  0  0  0
  2 20  2  0  0  0  0
  2 23  1  0  0  0  0
  3 16  1  1  0  0  0
  3 21  2  0  0  0  0
  3 24  1  0  0  0  0
  3 25  1  0  0  0  0
  4  6  1  0  0  0  0
  5  4  1  0  0  0  0
  6  7  1  0  0  0  0
  6  8  2  0  0  0  0
  7 12  1  0  0  0  0
  8  9  1  0  0  0  0
  8 10  1  0  0  0  0
 10 11  1  0  0  0  0
 10 12  2  0  0  0  0
 12 32  1  0  0  0  0
 13 17  1  0  0  0  0
 17 18  1  1  0  0  0
 17 22  1  0  0  0  0
 23  1  1  0  0  0  0
 24  2  1  0  0  0  0
 26 22  1  1  0  0  0
 27 26  1  0  0  0  0
 27 28  1  0  0  0  0
 27 30  1  1  0  0  0
 28 13  1  0  0  0  0
 28 29  1  1  0  0  0
 31 30  1  0  0  0  0
 32 26  1  0  0  0  0
 32 31  1  0  0  0  0
M  CHG  3  14  -1  15  -1  16  -1
M  END
>  <CHROM.1>
-122.50740521,-58.06131857,-47.94712093,98.45182227,52.16735122,-15.21325594
73.56918263,-28.21837080,55.40855978,-5.38094987,-4.48982612,-0.52276006
-1.17863777,-3.01490329

>  <Name>
2au4_lig

>  <RI>
0

>  <Rbt.Current_Directory>
/home/afrankz/demos/rdock_decoys_rna/rnas/2au4

>  <Rbt.Executable>
rbdock ($Id: //depot/dev/client3/rdock/2013.1/src/exe/rbdock.cxx#4 $)

>  <Rbt.Library>
libRbt.so (2013.1, Build901 2013/11/27)

>  <Rbt.Parameter_File>
/export/apps/rDock/src/rDock_2013.1_src/data/scripts/dock_solv.prm

>  <Rbt.Receptor>
prm/blind_docking_60.prm

>  <SCORE>
-14.4324

>  <SCORE.INTER>
-4.81988

>  <SCORE.INTER.CONST>
1

>  <SCORE.INTER.POLAR>
-0.87178

>  <SCORE.INTER.ROT>
8

>  <SCORE.INTER.SOLV>
26.4235

>  <SCORE.INTER.VDW>
-18.0485

>  <SCORE.INTER.norm>
-0.150621

>  <SCORE.INTRA>
-22.1238

>  <SCORE.INTRA.DIHEDRAL>
-44.2318

>  <SCORE.INTRA.DIHEDRAL.0>
76.3625

>  <SCORE.INTRA.POLAR>
0

>  <SCORE.INTRA.POLAR.0>
0

>  <SCORE.INTRA.REPUL>
0.0396513

>  <SCORE.INTRA.REPUL.0>
0.12705

>  <SCORE.INTRA.SOLV>
-3.14136

>  <SCORE.INTRA.SOLV.lig_0>
-119.383

>  <SCORE.INTRA.VDW>
1.36454

>  <SCORE.INTRA.VDW.0>
-5.10464

>  <SCORE.INTRA.norm>
-0.691369

>  <SCORE.RESTR>
12.5113

>  <SCORE.RESTR.CAVITY>
12.5113

>  <SCORE.RESTR.norm>
0.390977

>  <SCORE.SYSTEM>
0

>  <SCORE.SYSTEM.CONST>
0

>  <SCORE.SYSTEM.DIHEDRAL>
0

>  <SCORE.SYSTEM.SOLV>
0

>  <SCORE.SYSTEM.norm>
0

>  <SCORE.heavy>
32

>  <SCORE.norm>
-0.451013

>  <RMSD>
20.217

$$$$
2au4_lig
 OpenBabel11021811423D
libRbt.so/2013.1/901 2013/11/27
 32 34  0  0  0  0  0  0  0  0999 V2000
   67.1690  -10.8810    3.6657 P   0  0  1  0  0  0  0  0  0  0  0  0
   68.5311   -9.8019    1.5801 P   0  0  1  0  0  0  0  0  0  0  0  0
   67.5049   -7.3734    2.2802 P   0  0  2  0  0  0  0  0  0  0  0  0
   65.5924  -13.0047    3.8515 C   0  0  0  0  0  0  0  0  0  0  0  0
   66.8834  -12.4121    4.0701 O   0  0  0  0  0  0  0  0  0  0  0  0
   65.5100  -13.7473    2.5259 C   0  0  0  0  0  0  0  0  0  0  0  0
   64.2372  -14.4132    2.3955 O   0  0  0  0  0  0  0  0  0  0  0  0
   65.6659  -12.7847    1.3589 C   0  0  0  0  0  0  0  0  0  0  0  0
   66.8494  -13.0791    0.6069 O   0  0  0  0  0  0  0  0  0  0  0  0
   64.4288  -12.9396    0.5069 C   0  0  0  0  0  0  0  0  0  0  0  0
   64.7652  -13.3335   -0.8302 O   0  0  0  0  0  0  0  0  0  0  0  0
   63.5741  -13.9980    1.1826 C   0  0  0  0  0  0  0  0  0  0  0  0
   59.3360  -11.8955   -0.7370 N   0  0  0  0  0  0  0  0  0  0  0  0
   65.8828  -10.1562    3.6276 O   0  5  0  0  0  0  0  0  0  0  0  0
   69.4742   -9.3366    2.6154 O   0  5  0  0  0  0  0  0  0  0  0  0
   67.5219   -7.7940    3.6958 O   0  5  0  0  0  0  0  0  0  0  0  0
   60.4887  -12.2783   -1.3808 C   0  0  1  0  0  0  0  0  0  0  0  0
   60.5251  -12.0758   -2.6911 N   0  0  0  0  0  0  0  0  0  0  0  0
   68.2815  -10.3729    4.4965 O   0  0  0  0  0  0  0  0  0  0  0  0
   69.0300  -10.1972    0.2465 O   0  0  0  0  0  0  0  0  0  0  0  0
   66.4749   -6.4275    1.8022 O   0  0  0  0  0  0  0  0  0  0  0  0
   61.5357  -12.8219   -0.7652 N   0  0  0  0  0  0  0  0  0  0  0  0
   67.6982  -11.0139    2.1749 O   0  0  0  0  0  0  0  0  0  0  0  0
   67.4195   -8.6842    1.3794 O   0  0  0  0  0  0  0  0  0  0  0  0
   68.9517   -6.7826    1.9080 O   0  0  0  0  0  0  0  0  0  0  0  0
   61.3328  -12.9522    0.5661 C   0  0  2  0  0  0  0  0  0  0  0  0
   60.2080  -12.5949    1.2919 C   0  0  2  0  0  0  0  0  0  0  0  0
   59.1024  -12.0171    0.6210 C   0  0  1  0  0  0  0  0  0  0  0  0
   58.0469  -11.6216    1.0976 O   0  0  0  0  0  0  0  0  0  0  0  0
   60.3783  -12.8856    2.6497 N   0  0  0  0  0  0  0  0  0  0  0  0
   61.5696  -13.3882    2.6569 C   0  0  0  0  0  0  0  0  0  0  0  0
   62.2253  -13.4735    1.4726 N   0  0  0  0  0  0  0  0  0  0  0  0
  1  5  1  1  0  0  0
  1 14  1  0  0  0  0
  1 19  2  0  0  0  0
  2 15  1  1  0  0  0
  2 20  2  0  0  0  0
  2 23  1  0  0  0  0
  3 16  1  1  0  0  0
  3 21  2  0  0  0  0
  3 24  1  0  0  0  0
  3 25  1  0  0  0  0
  4  6  1  0  0  0  0
  5  4  1  0  0  0  0
  6  7  1  0  0  0  0
  6  8  2  0  0  0  0
  7 12  1  0  0  0  0
  8  9  1  0  0  0  0
  8 10  1  0  0  0  0
 10 11  1  0  0  0  0
 10 12  2  0  0  0  0
 12 32  1  0  0  0  0
 13 17  1  0  0  0  0
 17 18  1  1  0  0  0
 17 22  1  0  0  0  0
 23  1  1  0  0  0  0
 24  2  1  0  0  0  0
 26 22  1  1  0  0  0
 27 26  1  0  0  0  0
 27 28  1  0  0  0  0
 27 30  1  1  0  0  0
 28 13  1  0  0  0  0
 28 29  1  1  0  0  0
 31 30  1  0  0  0  0
 32 26  1  0  0  0  0
 32 31  1  0  0  0  0
M  CHG  3  14  -1  15  -1  16  -1
M  END
>  <CHROM.1>
23.18616994,42.81976816,-55.61500521,175.46611563,94.23689666,177.76250490
-160.25563797,-0.87752732,65.01737451,-11.15233989,1.69517710,-0.35551516
0.38428377,2.86694659

>  <Name>
2au4_lig

>  <RI>
0

>  <Rbt.Current_Directory>
/home/itssahil/PROJECTS/Mol_Feturizer/New_Systems/rnas/2au4

>  <Rbt.Executable>
rbdock ($Id: //depot/dev/client3/rdock/2013.1/src/exe/rbdock.cxx#4 $)

>  <Rbt.Library>
libRbt.so (2013.1, Build901 2013/11/27)

>  <Rbt.Parameter_File>
/export/apps/rDock/src/rDock_2013.1_src/data/scripts/dock_solv.prm

>  <Rbt.Receptor>
prm/blind_docking_80.prm

>  <SCORE>
-25.7672

>  <SCORE.INTER>
-12.3964

>  <SCORE.INTER.CONST>
1

>  <SCORE.INTER.POLAR>
-1.09891

>  <SCORE.INTER.ROT>
8

>  <SCORE.INTER.SOLV>
32.4165

>  <SCORE.INTER.VDW>
-24.34

>  <SCORE.INTER.norm>
-0.387387

>  <SCORE.INTRA>
-15.0914

>  <SCORE.INTRA.DIHEDRAL>
-31.9338

>  <SCORE.INTRA.DIHEDRAL.0>
76.3625

>  <SCORE.INTRA.POLAR>
0

>  <SCORE.INTRA.POLAR.0>
0

>  <SCORE.INTRA.REPUL>
-0.12705

>  <SCORE.INTRA.REPUL.0>
0.12705

>  <SCORE.INTRA.SOLV>
1.12654

>  <SCORE.INTRA.SOLV.lig_0>
-119.383

>  <SCORE.INTRA.VDW>
0.947444

>  <SCORE.INTRA.VDW.0>
-5.10464

>  <SCORE.INTRA.norm>
-0.471607

>  <SCORE.RESTR>
1.72066

>  <SCORE.RESTR.CAVITY>
1.72066

>  <SCORE.RESTR.norm>
0.0537707

>  <SCORE.SYSTEM>
0

>  <SCORE.SYSTEM.CONST>
0

>  <SCORE.SYSTEM.DIHEDRAL>
0

>  <SCORE.SYSTEM.SOLV>
0

>  <SCORE.SYSTEM.norm>
0

>  <SCORE.heavy>
32

>  <SCORE.norm>
-0.805224

>  <RMSD>
20.219

$$$$
2au4_lig
 OpenBabel11021811423D
libRbt.so/2013.1/901 2013/11/27
 32 34  0  0  0  0  0  0  0  0999 V2000
   66.1414  -11.2845    3.8620 P   0  0  1  0  0  0  0  0  0  0  0  0
   66.5364   -9.3050    2.0468 P   0  0  1  0  0  0  0  0  0  0  0  0
   68.1308   -7.2455    2.8572 P   0  0  2  0  0  0  0  0  0  0  0  0
   63.9103  -10.7377    5.1863 C   0  0  0  0  0  0  0  0  0  0  0  0
   64.6216  -10.7609    3.9377 O   0  0  0  0  0  0  0  0  0  0  0  0
   63.1990  -12.0515    5.4753 C   0  0  0  0  0  0  0  0  0  0  0  0
   62.2172  -12.3318    4.4566 O   0  0  0  0  0  0  0  0  0  0  0  0
   64.1905  -13.2040    5.5115 C   0  0  0  0  0  0  0  0  0  0  0  0
   64.2409  -13.7953    6.8156 O   0  0  0  0  0  0  0  0  0  0  0  0
   63.7243  -14.2033    4.4799 C   0  0  0  0  0  0  0  0  0  0  0  0
   63.4618  -15.4808    5.0760 O   0  0  0  0  0  0  0  0  0  0  0  0
   62.4617  -13.6252    3.8645 C   0  0  0  0  0  0  0  0  0  0  0  0
   60.6278  -11.5473   -0.4234 N   0  0  0  0  0  0  0  0  0  0  0  0
   66.9532  -10.5146    4.8259 O   0  5  0  0  0  0  0  0  0  0  0  0
   67.1694   -9.1133    0.7274 O   0  5  0  0  0  0  0  0  0  0  0  0
   67.1184   -6.4226    2.1649 O   0  5  0  0  0  0  0  0  0  0  0  0
   60.1947  -11.3985    0.8727 C   0  0  1  0  0  0  0  0  0  0  0  0
   59.1463  -10.6069    1.0548 N   0  0  0  0  0  0  0  0  0  0  0  0
   66.1346  -12.7622    3.9125 O   0  0  0  0  0  0  0  0  0  0  0  0
   65.1627   -8.8169    2.2879 O   0  0  0  0  0  0  0  0  0  0  0  0
   69.4540   -7.4661    2.2372 O   0  0  0  0  0  0  0  0  0  0  0  0
   60.7617  -11.9977    1.9168 N   0  0  0  0  0  0  0  0  0  0  0  0
   66.5801  -10.8511    2.3991 O   0  0  0  0  0  0  0  0  0  0  0  0
   67.4862   -8.6717    3.1522 O   0  0  0  0  0  0  0  0  0  0  0  0
   68.3519   -6.6459    4.3311 O   0  0  0  0  0  0  0  0  0  0  0  0
   61.8116  -12.7697    1.5531 C   0  0  2  0  0  0  0  0  0  0  0  0
   62.3125  -12.9744    0.2776 C   0  0  2  0  0  0  0  0  0  0  0  0
   61.6969  -12.3292   -0.8228 C   0  0  1  0  0  0  0  0  0  0  0  0
   61.9848  -12.4110   -2.0094 O   0  0  0  0  0  0  0  0  0  0  0  0
   63.4088  -13.8430    0.3065 N   0  0  0  0  0  0  0  0  0  0  0  0
   63.4973  -14.1022    1.5702 C   0  0  0  0  0  0  0  0  0  0  0  0
   62.5973  -13.5164    2.3988 N   0  0  0  0  0  0  0  0  0  0  0  0
  1  5  1  1  0  0  0
  1 14  1  0  0  0  0
  1 19  2  0  0  0  0
  2 15  1  6  0  0  0
  2 20  2  0  0  0  0
  2 23  1  0  0  0  0
  3 16  1  6  0  0  0
  3 21  2  0  0  0  0
  3 24  1  0  0  0  0
  3 25  1  0  0  0  0
  4  6  1  0  0  0  0
  5  4  1  0  0  0  0
  6  7  1  0  0  0  0
  6  8  2  0  0  0  0
  7 12  1  0  0  0  0
  8  9  1  0  0  0  0
  8 10  1  0  0  0  0
 10 11  1  0  0  0  0
 10 12  2  0  0  0  0
 12 32  1  0  0  0  0
 13 17  1  0  0  0  0
 17 18  1  6  0  0  0
 17 22  1  0  0  0  0
 23  1  1  0  0  0  0
 24  2  1  0  0  0  0
 26 22  1  6  0  0  0
 27 26  1  0  0  0  0
 27 28  1  0  0  0  0
 27 30  1  6  0  0  0
 28 13  1  0  0  0  0
 28 29  1  6  0  0  0
 31 30  1  0  0  0  0
 32 26  1  0  0  0  0
 32 31  1  0  0  0  0
M  CHG  3  14  -1  15  -1  16  -1
M  END
>  <CHROM.1>
-54.94280978,171.60290567,38.34280012,-61.37016379,-88.05637869,-43.29128412
60.01779098,43.98998782,64.61325067,-11.04680105,2.72859658,-0.27031124,0.66073834
2.21070522

>  <Name>
2au4_lig

>  <RI>
0

>  <Rbt.Current_Directory>
/home/itssahil/PROJECTS/Mol_Feturizer/New_Systems/rnas/2au4

>  <Rbt.Executable>
rbdock ($Id: //depot/dev/client3/rdock/2013.1/src/exe/rbdock.cxx#4 $)

>  <Rbt.Library>
libRbt.so (2013.1, Build901 2013/11/27)

>  <Rbt.Parameter_File>
/export/apps/rDock/src/rDock_2013.1_src/data/scripts/dock_solv.prm

>  <Rbt.Receptor>
prm/blind_docking_100.prm

>  <SCORE>
-37.1329

>  <SCORE.INTER>
-17.819

>  <SCORE.INTER.CONST>
1

>  <SCORE.INTER.POLAR>
-2.23546

>  <SCORE.INTER.ROT>
8

>  <SCORE.INTER.SOLV>
28.793

>  <SCORE.INTER.VDW>
-22.9588

>  <SCORE.INTER.norm>
-0.556845

>  <SCORE.INTRA>
-20.3025

>  <SCORE.INTRA.DIHEDRAL>
-43.0947

>  <SCORE.INTRA.DIHEDRAL.0>
76.3625

>  <SCORE.INTRA.POLAR>
0

>  <SCORE.INTRA.POLAR.0>
0

>  <SCORE.INTRA.REPUL>
-0.00559891

>  <SCORE.INTRA.REPUL.0>
0.12705

>  <SCORE.INTRA.SOLV>
0.0154

>  <SCORE.INTRA.SOLV.lig_0>
-119.383

>  <SCORE.INTRA.VDW>
1.26512

>  <SCORE.INTRA.VDW.0>
-5.10464

>  <SCORE.INTRA.norm>
-0.634455

>  <SCORE.RESTR>
0.988708

>  <SCORE.RESTR.CAVITY>
0.988708

>  <SCORE.RESTR.norm>
0.0308971

>  <SCORE.SYSTEM>
0

>  <SCORE.SYSTEM.CONST>
0

>  <SCORE.SYSTEM.DIHEDRAL>
0

>  <SCORE.SYSTEM.SOLV>
0

>  <SCORE.SYSTEM.norm>
0

>  <SCORE.heavy>
32

>  <SCORE.norm>
-1.1604

>  <RMSD>
20.245

$$$$
2au4_lig
 OpenBabel11021811423D
libRbt.so/2013.1/901 2013/11/27
 32 34  0  0  0  0  0  0  0  0999 V2000
   65.6589  -13.6376    2.6186 P   0  0  1  0  0  0  0  0  0  0  0  0
   66.5637  -11.1302    2.1053 P   0  0  1  0  0  0  0  0  0  0  0  0
   67.0765   -8.4573    2.2879 P   0  0  2  0  0  0  0  0  0  0  0  0
   63.2541  -14.2967    1.7169 C   0  0  0  0  0  0  0  0  0  0  0  0
   64.1648  -13.2712    2.1465 O   0  0  0  0  0  0  0  0  0  0  0  0
   61.8743  -13.7478    1.3849 C   0  0  0  0  0  0  0  0  0  0  0  0
   61.2959  -13.0989    2.5358 O   0  0  0  0  0  0  0  0  0  0  0  0
   61.9562  -12.7319    0.2562 C   0  0  0  0  0  0  0  0  0  0  0  0
   61.2415  -13.1900   -0.8980 O   0  0  0  0  0  0  0  0  0  0  0  0
   61.3622  -11.4499    0.7891 C   0  0  0  0  0  0  0  0  0  0  0  0
   60.2450  -11.0264   -0.0037 O   0  0  0  0  0  0  0  0  0  0  0  0
   60.9322  -11.7390    2.2169 C   0  0  0  0  0  0  0  0  0  0  0  0
   62.2901  -10.8248    7.0529 N   0  0  0  0  0  0  0  0  0  0  0  0
   65.5766  -14.5747    3.7570 O   0  5  0  0  0  0  0  0  0  0  0  0
   67.8944  -11.4426    1.5488 O   0  5  0  0  0  0  0  0  0  0  0  0
   65.8362   -7.8608    1.7521 O   0  5  0  0  0  0  0  0  0  0  0  0
   61.6612  -11.9230    6.5161 C   0  0  1  0  0  0  0  0  0  0  0  0
   61.3503  -12.8949    7.3634 N   0  0  0  0  0  0  0  0  0  0  0  0
   66.4580  -13.9896    1.4254 O   0  0  0  0  0  0  0  0  0  0  0  0
   65.4062  -10.9525    1.2040 O   0  0  0  0  0  0  0  0  0  0  0  0
   68.2184   -8.7218    1.3880 O   0  0  0  0  0  0  0  0  0  0  0  0
   61.3580  -12.0464    5.2263 N   0  0  0  0  0  0  0  0  0  0  0  0
   66.1945  -12.2480    3.1685 O   0  0  0  0  0  0  0  0  0  0  0  0
   66.6928   -9.8267    3.0050 O   0  0  0  0  0  0  0  0  0  0  0  0
   67.5900   -7.5501    3.5102 O   0  0  0  0  0  0  0  0  0  0  0  0
   61.7401  -10.9658    4.5074 C   0  0  2  0  0  0  0  0  0  0  0  0
   62.3759   -9.8233    4.9659 C   0  0  2  0  0  0  0  0  0  0  0  0
   62.6910   -9.7079    6.3420 C   0  0  1  0  0  0  0  0  0  0  0  0
   63.2233   -8.7718    6.9233 O   0  0  0  0  0  0  0  0  0  0  0  0
   62.6055   -8.9262    3.9173 N   0  0  0  0  0  0  0  0  0  0  0  0
   62.1037   -9.5701    2.9145 C   0  0  0  0  0  0  0  0  0  0  0  0
   61.5640  -10.7909    3.1551 N   0  0  0  0  0  0  0  0  0  0  0  0
  1  5  1  6  0  0  0
  1 14  1  0  0  0  0
  1 19  2  0  0  0  0
  2 15  1  6  0  0  0
  2 20  2  0  0  0  0
  2 23  1  0  0  0  0
  3 16  1  6  0  0  0
  3 21  2  0  0  0  0
  3 24  1  0  0  0  0
  3 25  1  0  0  0  0
  4  6  1  0  0  0  0
  5  4  1  0  0  0  0
  6  7  1  0  0  0  0
  6  8  2  0  0  0  0
  7 12  1  0  0  0  0
  8  9  1  0  0  0  0
  8 10  1  0  0  0  0
 10 11  1  0  0  0  0
 10 12  2  0  0  0  0
 12 32  1  0  0  0  0
 13 17  1  0  0  0  0
 17 18  1  1  0  0  0
 17 22  1  0  0  0  0
 23  1  1  0  0  0  0
 24  2  1  0  0  0  0
 26 22  1  1  0  0  0
 27 26  1  0  0  0  0
 27 28  1  0  0  0  0
 27 30  1  1  0  0  0
 28 13  1  0  0  0  0
 28 29  1  1  0  0  0
 31 30  1  0  0  0  0
 32 26  1  0  0  0  0
 32 31  1  0  0  0  0
M  CHG  3  14  -1  15  -1  16  -1
M  END
>  <CHROM.1>
-58.79384696,-79.25962201,84.03287329,-59.42288564,176.93088941,-38.83796524
-73.83983834,65.13231592,64.08780241,-11.24817783,2.92411686,-0.05289602
-0.43454599,-2.28419250

>  <Name>
2au4_lig

>  <RI>
0

>  <Rbt.Current_Directory>
/home/itssahil/PROJECTS/Mol_Feturizer/New_Systems/rnas/2au4

>  <Rbt.Executable>
rbdock ($Id: //depot/dev/client3/rdock/2013.1/src/exe/rbdock.cxx#4 $)

>  <Rbt.Library>
libRbt.so (2013.1, Build901 2013/11/27)

>  <Rbt.Parameter_File>
/export/apps/rDock/src/rDock_2013.1_src/data/scripts/dock_solv.prm

>  <Rbt.Receptor>
prm/blind_docking_100.prm

>  <SCORE>
-42.724

>  <SCORE.INTER>
-16.835

>  <SCORE.INTER.CONST>
1

>  <SCORE.INTER.POLAR>
-2.09144

>  <SCORE.INTER.ROT>
8

>  <SCORE.INTER.SOLV>
24.0667

>  <SCORE.INTER.VDW>
-21.2074

>  <SCORE.INTER.norm>
-0.526093

>  <SCORE.INTRA>
-25.8918

>  <SCORE.INTRA.DIHEDRAL>
-48.4528

>  <SCORE.INTRA.DIHEDRAL.0>
76.3625

>  <SCORE.INTRA.POLAR>
0

>  <SCORE.INTRA.POLAR.0>
0

>  <SCORE.INTRA.REPUL>
0.0225197

>  <SCORE.INTRA.REPUL.0>
0.12705

>  <SCORE.INTRA.SOLV>
-3.77307

>  <SCORE.INTRA.SOLV.lig_0>
-119.383

>  <SCORE.INTRA.VDW>
0.108545

>  <SCORE.INTRA.VDW.0>
-5.10464

>  <SCORE.INTRA.norm>
-0.809119

>  <SCORE.RESTR>
0.00279172

>  <SCORE.RESTR.CAVITY>
0.00279172

>  <SCORE.RESTR.norm>
8.72413e-05

>  <SCORE.SYSTEM>
0

>  <SCORE.SYSTEM.CONST>
0

>  <SCORE.SYSTEM.DIHEDRAL>
0

>  <SCORE.SYSTEM.SOLV>
0

>  <SCORE.SYSTEM.norm>
0

>  <SCORE.heavy>
32

>  <SCORE.norm>
-1.33512

>  <RMSD>
20.275

$$$$
2au4_lig
 OpenBabel11021811423D
libRbt.so/2013.1/901 2013/11/27
 32 34  0  0  0  0  0  0  0  0999 V2000
   64.3190  -12.3162   -0.1865 P   0  0  1  0  0  0  0  0  0  0  0  0
   65.4308  -11.9351    2.2606 P   0  0  1  0  0  0  0  0  0  0  0  0
   66.2885   -9.4361    2.9389 P   0  0  2  0  0  0  0  0  0  0  0  0
   62.0378  -12.8769    1.0433 C   0  0  0  0  0  0  0  0  0  0  0  0
   62.8589  -11.9161    0.3590 O   0  0  0  0  0  0  0  0  0  0  0  0
   60.6597  -12.3281    1.3825 C   0  0  0  0  0  0  0  0  0  0  0  0
   60.2583  -12.7455    2.7034 O   0  0  0  0  0  0  0  0  0  0  0  0
   60.6609  -10.8079    1.3430 C   0  0  0  0  0  0  0  0  0  0  0  0
   59.7901  -10.3217    0.3143 O   0  0  0  0  0  0  0  0  0  0  0  0
   60.2043  -10.3431    2.7053 C   0  0  0  0  0  0  0  0  0  0  0  0
   59.0249   -9.5332    2.6093 O   0  0  0  0  0  0  0  0  0  0  0  0
   59.9326  -11.5983    3.5165 C   0  0  0  0  0  0  0  0  0  0  0  0
   62.2149   -8.7501    7.0866 N   0  0  0  0  0  0  0  0  0  0  0  0
   64.5526  -13.7462    0.0986 O   0  5  0  0  0  0  0  0  0  0  0  0
   64.1874  -11.5927    2.9781 O   0  5  0  0  0  0  0  0  0  0  0  0
   65.6016   -8.9933    1.7087 O   0  5  0  0  0  0  0  0  0  0  0  0
   61.5147   -8.3551    5.9715 C   0  0  1  0  0  0  0  0  0  0  0  0
   61.4100   -7.0476    5.7759 N   0  0  0  0  0  0  0  0  0  0  0  0
   64.4652  -11.8017   -1.5649 O   0  0  0  0  0  0  0  0  0  0  0  0
   65.9296  -13.3261    2.2640 O   0  0  0  0  0  0  0  0  0  0  0  0
   67.5343   -8.7689    3.3710 O   0  0  0  0  0  0  0  0  0  0  0  0
   60.9594   -9.2009    5.1072 N   0  0  0  0  0  0  0  0  0  0  0  0
   65.2789  -11.4687    0.7520 O   0  0  0  0  0  0  0  0  0  0  0  0
   66.5923  -10.9933    2.7981 O   0  0  0  0  0  0  0  0  0  0  0  0
   65.2376   -9.3895    4.1529 O   0  0  0  0  0  0  0  0  0  0  0  0
   61.1654  -10.4923    5.4540 C   0  0  2  0  0  0  0  0  0  0  0  0
   61.8549  -10.9757    6.5543 C   0  0  2  0  0  0  0  0  0  0  0  0
   62.4404  -10.0617    7.4643 C   0  0  1  0  0  0  0  0  0  0  0  0
   63.0994  -10.3046    8.4664 O   0  0  0  0  0  0  0  0  0  0  0  0
   61.8519  -12.3746    6.5688 N   0  0  0  0  0  0  0  0  0  0  0  0
   61.1760  -12.6407    5.4991 C   0  0  0  0  0  0  0  0  0  0  0  0
   60.7217  -11.5954    4.7637 N   0  0  0  0  0  0  0  0  0  0  0  0
  1  5  1  1  0  0  0
  1 14  1  0  0  0  0
  1 19  2  0  0  0  0
  2 15  1  1  0  0  0
  2 20  2  0  0  0  0
  2 23  1  0  0  0  0
  3 16  1  6  0  0  0
  3 21  2  0  0  0  0
  3 24  1  0  0  0  0
  3 25  1  0  0  0  0
  4  6  1  0  0  0  0
  5  4  1  0  0  0  0
  6  7  1  0  0  0  0
  6  8  2  0  0  0  0
  7 12  1  0  0  0  0
  8  9  1  0  0  0  0
  8 10  1  0  0  0  0
 10 11  1  0  0  0  0
 10 12  2  0  0  0  0
 12 32  1  0  0  0  0
 13 17  1  0  0  0  0
 17 18  1  6  0  0  0
 17 22  1  0  0  0  0
 23  1  1  0  0  0  0
 24  2  1  0  0  0  0
 26 22  1  6  0  0  0
 27 26  1  0  0  0  0
 27 28  1  0  0  0  0
 27 30  1  6  0  0  0
 28 13  1  0  0  0  0
 28 29  1  6  0  0  0
 31 30  1  0  0  0  0
 32 26  1  0  0  0  0
 32 31  1  0  0  0  0
M  CHG  3  14  -1  15  -1  16  -1
M  END
>  <CHROM.1>
2.23841951,-73.19686862,-45.47059877,-139.12666567,-175.69103208,147.92795769
72.36809728,-46.39663644,63.14678084,-10.92224145,3.09119909,0.98579027,-0.13815061
-1.99211658

>  <Name>
2au4_lig

>  <RI>
0

>  <Rbt.Current_Directory>
/home/itssahil/PROJECTS/Mol_Feturizer/New_Systems/rnas/2au4

>  <Rbt.Executable>
rbdock ($Id: //depot/dev/client3/rdock/2013.1/src/exe/rbdock.cxx#4 $)

>  <Rbt.Library>
libRbt.so (2013.1, Build901 2013/11/27)

>  <Rbt.Parameter_File>
/export/apps/rDock/src/rDock_2013.1_src/data/scripts/dock_solv.prm

>  <Rbt.Receptor>
prm/blind_docking_100.prm

>  <SCORE>
-41.0532

>  <SCORE.INTER>
-16.4846

>  <SCORE.INTER.CONST>
1

>  <SCORE.INTER.POLAR>
-3.02922

>  <SCORE.INTER.ROT>
8

>  <SCORE.INTER.SOLV>
24.3092

>  <SCORE.INTER.VDW>
-17.9287

>  <SCORE.INTER.norm>
-0.515143

>  <SCORE.INTRA>
-25.1073

>  <SCORE.INTRA.DIHEDRAL>
-48.329

>  <SCORE.INTRA.DIHEDRAL.0>
76.3625

>  <SCORE.INTRA.POLAR>
0

>  <SCORE.INTRA.POLAR.0>
0

>  <SCORE.INTRA.REPUL>
-0.12705

>  <SCORE.INTRA.REPUL.0>
0.12705

>  <SCORE.INTRA.SOLV>
-3.6453

>  <SCORE.INTRA.SOLV.lig_0>
-119.383

>  <SCORE.INTRA.VDW>
1.51508

>  <SCORE.INTRA.VDW.0>
-5.10464

>  <SCORE.INTRA.norm>
-0.784604

>  <SCORE.RESTR>
0.538766

>  <SCORE.RESTR.CAVITY>
0.538766

>  <SCORE.RESTR.norm>
0.0168364

>  <SCORE.SYSTEM>
0

>  <SCORE.SYSTEM.CONST>
0

>  <SCORE.SYSTEM.DIHEDRAL>
0

>  <SCORE.SYSTEM.SOLV>
0

>  <SCORE.SYSTEM.norm>
0

>  <SCORE.heavy>
32

>  <SCORE.norm>
-1.28291

>  <RMSD>
20.308

$$$$
2au4_lig
 OpenBabel11021811423D
libRbt.so/2013.1/901 2013/11/27
 32 34  0  0  0  0  0  0  0  0999 V2000
   64.6835  -10.8335    2.0708 P   0  0  1  0  0  0  0  0  0  0  0  0
   67.1488   -9.7124    2.2568 P   0  0  1  0  0  0  0  0  0  0  0  0
   68.8189  -10.8045    0.3970 P   0  0  2  0  0  0  0  0  0  0  0  0
   63.6088  -12.3721    0.1978 C   0  0  0  0  0  0  0  0  0  0  0  0
   63.6704  -11.0916    0.8475 O   0  0  0  0  0  0  0  0  0  0  0  0
   62.2100  -12.9708    0.2231 C   0  0  0  0  0  0  0  0  0  0  0  0
   61.8093  -13.2673    1.5765 O   0  0  0  0  0  0  0  0  0  0  0  0
   61.1993  -12.0028   -0.3719 C   0  0  0  0  0  0  0  0  0  0  0  0
   60.6102  -12.5441   -1.5606 O   0  0  0  0  0  0  0  0  0  0  0  0
   60.1545  -11.7658    0.6923 C   0  0  0  0  0  0  0  0  0  0  0  0
   58.8491  -12.1383    0.2304 O   0  0  0  0  0  0  0  0  0  0  0  0
   60.5643  -12.6072    1.8887 C   0  0  0  0  0  0  0  0  0  0  0  0
   62.7575  -12.0893    6.4700 N   0  0  0  0  0  0  0  0  0  0  0  0
   64.0728   -9.8508    2.9886 O   0  5  0  0  0  0  0  0  0  0  0  0
   66.8540   -8.3991    2.8622 O   0  5  0  0  0  0  0  0  0  0  0  0
   69.5473  -11.6663    1.3500 O   0  5  0  0  0  0  0  0  0  0  0  0
   62.8864  -13.1031    5.5506 C   0  0  1  0  0  0  0  0  0  0  0  0
   63.6901  -14.1030    5.8871 N   0  0  0  0  0  0  0  0  0  0  0  0
   65.1453  -12.1405    2.5850 O   0  0  0  0  0  0  0  0  0  0  0  0
   67.5025  -10.8619    3.1153 O   0  0  0  0  0  0  0  0  0  0  0  0
   69.4844  -10.3412   -0.8385 O   0  0  0  0  0  0  0  0  0  0  0  0
   62.2573  -13.1247    4.3783 N   0  0  0  0  0  0  0  0  0  0  0  0
   65.9140  -10.1320    1.3538 O   0  0  0  0  0  0  0  0  0  0  0  0
   68.3088   -9.5196    1.1879 O   0  0  0  0  0  0  0  0  0  0  0  0
   67.4481  -11.5383   -0.0066 O   0  0  0  0  0  0  0  0  0  0  0  0
   61.4768  -12.0342    4.1986 C   0  0  2  0  0  0  0  0  0  0  0  0
   61.2906  -10.9716    5.0681 C   0  0  2  0  0  0  0  0  0  0  0  0
   61.9676  -10.9646    6.3122 C   0  0  1  0  0  0  0  0  0  0  0  0
   61.9056  -10.1309    7.2058 O   0  0  0  0  0  0  0  0  0  0  0  0
   60.4048  -10.0341    4.5263 N   0  0  0  0  0  0  0  0  0  0  0  0
   60.1184  -10.5791    3.3892 C   0  0  0  0  0  0  0  0  0  0  0  0
   60.7009  -11.7683    3.0953 N   0  0  0  0  0  0  0  0  0  0  0  0
  1  5  1  6  0  0  0
  1 14  1  0  0  0  0
  1 19  2  0  0  0  0
  2 15  1  1  0  0  0
  2 20  2  0  0  0  0
  2 23  1  0  0  0  0
  3 16  1  1  0  0  0
  3 21  2  0  0  0  0
  3 24  1  0  0  0  0
  3 25  1  0  0  0  0
  4  6  1  0  0  0  0
  5  4  1  0  0  0  0
  6  7  1  0  0  0  0
  6  8  2  0  0  0  0
  7 12  1  0  0  0  0
  8  9  1  0  0  0  0
  8 10  1  0  0  0  0
 10 11  1  0  0  0  0
 10 12  2  0  0  0  0
 12 32  1  0  0  0  0
 13 17  1  0  0  0  0
 17 18  1  1  0  0  0
 17 22  1  0  0  0  0
 23  1  1  0  0  0  0
 24  2  1  0  0  0  0
 26 22  1  1  0  0  0
 27 26  1  0  0  0  0
 27 28  1  0  0  0  0
 27 30  1  1  0  0  0
 28 13  1  0  0  0  0
 28 29  1  1  0  0  0
 31 30  1  0  0  0  0
 32 26  1  0  0  0  0
 32 31  1  0  0  0  0
M  CHG  3  14  -1  15  -1  16  -1
M  END
>  <CHROM.1>
-148.34914075,-83.71828455,-69.82334195,-65.13854808,123.08736787,-34.70303440
179.94723384,179.57546820,64.10789675,-11.28370543,2.34596220,0.28735081
-0.22796087,-1.68920062

>  <Name>
2au4_lig

>  <RI>
0

>  <Rbt.Current_Directory>
/home/itssahil/PROJECTS/Mol_Feturizer/New_Systems/rnas/2au4

>  <Rbt.Executable>
rbdock ($Id: //depot/dev/client3/rdock/2013.1/src/exe/rbdock.cxx#4 $)

>  <Rbt.Library>
libRbt.so (2013.1, Build901 2013/11/27)

>  <Rbt.Parameter_File>
/export/apps/rDock/src/rDock_2013.1_src/data/scripts/dock_solv.prm

>  <Rbt.Receptor>
prm/blind_docking_100.prm

>  <SCORE>
-39.4388

>  <SCORE.INTER>
-18.8855

>  <SCORE.INTER.CONST>
1

>  <SCORE.INTER.POLAR>
-2.34343

>  <SCORE.INTER.ROT>
8

>  <SCORE.INTER.SOLV>
18.146

>  <SCORE.INTER.VDW>
-19.7609

>  <SCORE.INTER.norm>
-0.590172

>  <SCORE.INTRA>
-20.7557

>  <SCORE.INTRA.DIHEDRAL>
-40.8611

>  <SCORE.INTRA.DIHEDRAL.0>
76.3625

>  <SCORE.INTRA.POLAR>
0

>  <SCORE.INTRA.POLAR.0>
0

>  <SCORE.INTRA.REPUL>
0.0452223

>  <SCORE.INTRA.REPUL.0>
0.12705

>  <SCORE.INTRA.SOLV>
-0.761517

>  <SCORE.INTRA.SOLV.lig_0>
-119.383

>  <SCORE.INTRA.VDW>
-0.170502

>  <SCORE.INTRA.VDW.0>
-5.10464

>  <SCORE.INTRA.norm>
-0.648616

>  <SCORE.RESTR>
0.202464

>  <SCORE.RESTR.CAVITY>
0.202464

>  <SCORE.RESTR.norm>
0.00632699

>  <SCORE.SYSTEM>
0

>  <SCORE.SYSTEM.CONST>
0

>  <SCORE.SYSTEM.DIHEDRAL>
0

>  <SCORE.SYSTEM.SOLV>
0

>  <SCORE.SYSTEM.norm>
0

>  <SCORE.heavy>
32

>  <SCORE.norm>
-1.23246

>  <RMSD>
20.318

$$$$
2au4_lig
 OpenBabel11021811423D
libRbt.so/2013.1/901 2013/11/27
 32 34  0  0  0  0  0  0  0  0999 V2000
   65.8010  -12.8481    2.6682 P   0  0  1  0  0  0  0  0  0  0  0  0
   65.3032  -10.2082    3.0585 P   0  0  1  0  0  0  0  0  0  0  0  0
   67.1236   -8.2907    2.3876 P   0  0  2  0  0  0  0  0  0  0  0  0
   63.7852  -14.1977    1.5978 C   0  0  0  0  0  0  0  0  0  0  0  0
   64.4640  -12.9437    1.7778 O   0  0  0  0  0  0  0  0  0  0  0  0
   62.3301  -14.0185    1.1902 C   0  0  0  0  0  0  0  0  0  0  0  0
   61.5232  -13.6645    2.3321 O   0  0  0  0  0  0  0  0  0  0  0  0
   62.1939  -12.9170    0.1506 C   0  0  0  0  0  0  0  0  0  0  0  0
   61.7088  -13.4420   -1.0911 O   0  0  0  0  0  0  0  0  0  0  0  0
   61.2330  -11.9029    0.7236 C   0  0  0  0  0  0  0  0  0  0  0  0
   60.0931  -11.7282   -0.1286 O   0  0  0  0  0  0  0  0  0  0  0  0
   60.8137  -12.4322    2.0842 C   0  0  0  0  0  0  0  0  0  0  0  0
   62.3390  -11.6777    6.8978 N   0  0  0  0  0  0  0  0  0  0  0  0
   65.9293  -14.0882    3.4597 O   0  5  0  0  0  0  0  0  0  0  0  0
   64.9985  -10.3405    1.6206 O   0  5  0  0  0  0  0  0  0  0  0  0
   67.9777   -7.4418    3.2427 O   0  5  0  0  0  0  0  0  0  0  0  0
   62.1862  -12.8554    6.2055 C   0  0  1  0  0  0  0  0  0  0  0  0
   62.4672  -13.9684    6.8698 N   0  0  0  0  0  0  0  0  0  0  0  0
   66.9139  -12.4030    1.8025 O   0  0  0  0  0  0  0  0  0  0  0  0
   64.4027   -9.4353    3.9391 O   0  0  0  0  0  0  0  0  0  0  0  0
   65.8658   -7.7506    1.8309 O   0  0  0  0  0  0  0  0  0  0  0  0
   61.7785  -12.9239    4.9407 N   0  0  0  0  0  0  0  0  0  0  0  0
   65.4614  -11.6637    3.6692 O   0  0  0  0  0  0  0  0  0  0  0  0
   66.7684   -9.6108    3.2049 O   0  0  0  0  0  0  0  0  0  0  0  0
   68.0166   -8.8542    1.1770 O   0  0  0  0  0  0  0  0  0  0  0  0
   61.5318  -11.7007    4.4179 C   0  0  2  0  0  0  0  0  0  0  0  0
   61.6593  -10.4700    5.0415 C   0  0  2  0  0  0  0  0  0  0  0  0
   62.0941  -10.4150    6.3885 C   0  0  1  0  0  0  0  0  0  0  0  0
   62.2396   -9.4300    7.0999 O   0  0  0  0  0  0  0  0  0  0  0  0
   61.3091   -9.4320    4.1714 N   0  0  0  0  0  0  0  0  0  0  0  0
   60.9984  -10.0882    3.1014 C   0  0  0  0  0  0  0  0  0  0  0  0
   61.0956  -11.4405    3.1403 N   0  0  0  0  0  0  0  0  0  0  0  0
  1  5  1  6  0  0  0
  1 14  1  0  0  0  0
  1 19  2  0  0  0  0
  2 15  1  6  0  0  0
  2 20  2  0  0  0  0
  2 23  1  0  0  0  0
  3 16  1  1  0  0  0
  3 21  2  0  0  0  0
  3 24  1  0  0  0  0
  3 25  1  0  0  0  0
  4  6  1  0  0  0  0
  5  4  1  0  0  0  0
  6  7  1  0  0  0  0
  6  8  2  0  0  0  0
  7 12  1  0  0  0  0
  8  9  1  0  0  0  0
  8 10  1  0  0  0  0
 10 11  1  0  0  0  0
 10 12  2  0  0  0  0
 12 32  1  0  0  0  0
 13 17  1  0  0  0  0
 17 18  1  1  0  0  0
 17 22  1  0  0  0  0
 23  1  1  0  0  0  0
 24  2  1  0  0  0  0
 26 22  1  1  0  0  0
 27 26  1  0  0  0  0
 27 28  1  0  0  0  0
 27 30  1  1  0  0  0
 28 13  1  0  0  0  0
 28 29  1  1  0  0  0
 31 30  1  0  0  0  0
 32 26  1  0  0  0  0
 32 31  1  0  0  0  0
M  CHG  3  14  -1  15  -1  16  -1
M  END
>  <CHROM.1>
-14.24412599,21.64481584,141.56564004,-77.74366313,158.82411257,-22.65803489
-66.77935034,51.03338010,63.87396402,-11.25221402,3.03153929,-0.14320154
-0.55143649,-2.05438702

>  <Name>
2au4_lig

>  <RI>
0

>  <Rbt.Current_Directory>
/home/itssahil/PROJECTS/Mol_Feturizer/New_Systems/rnas/2au4

>  <Rbt.Executable>
rbdock ($Id: //depot/dev/client3/rdock/2013.1/src/exe/rbdock.cxx#4 $)

>  <Rbt.Library>
libRbt.so (2013.1, Build901 2013/11/27)

>  <Rbt.Parameter_File>
/export/apps/rDock/src/rDock_2013.1_src/data/scripts/dock_solv.prm

>  <Rbt.Receptor>
prm/blind_docking_100.prm

>  <SCORE>
-36.414

>  <SCORE.INTER>
-15.2363

>  <SCORE.INTER.CONST>
1

>  <SCORE.INTER.POLAR>
-1.85174

>  <SCORE.INTER.ROT>
8

>  <SCORE.INTER.SOLV>
21.7717

>  <SCORE.INTER.VDW>
-20.1756

>  <SCORE.INTER.norm>
-0.476135

>  <SCORE.INTRA>
-21.1777

>  <SCORE.INTRA.DIHEDRAL>
-42.3747

>  <SCORE.INTRA.DIHEDRAL.0>
76.3625

>  <SCORE.INTRA.POLAR>
0

>  <SCORE.INTRA.POLAR.0>
0

>  <SCORE.INTRA.REPUL>
0.0700583

>  <SCORE.INTRA.REPUL.0>
0.12705

>  <SCORE.INTRA.SOLV>
-0.455667

>  <SCORE.INTRA.SOLV.lig_0>
-119.383

>  <SCORE.INTRA.VDW>
-0.112778

>  <SCORE.INTRA.VDW.0>
-5.10464

>  <SCORE.INTRA.norm>
-0.661802

>  <SCORE.RESTR>
0

>  <SCORE.RESTR.CAVITY>
0

>  <SCORE.RESTR.norm>
0

>  <SCORE.SYSTEM>
0

>  <SCORE.SYSTEM.CONST>
0

>  <SCORE.SYSTEM.DIHEDRAL>
0

>  <SCORE.SYSTEM.SOLV>
0

>  <SCORE.SYSTEM.norm>
0

>  <SCORE.heavy>
32

>  <SCORE.norm>
-1.13794

>  <RMSD>
20.359

$$$$
2au4_lig
 OpenBabel11021811423D
libRbt.so/2013.1/901 2013/11/27
 32 34  0  0  0  0  0  0  0  0999 V2000
   63.6814   -9.6224    2.9905 P   0  0  1  0  0  0  0  0  0  0  0  0
   66.3359   -9.4151    2.4613 P   0  0  1  0  0  0  0  0  0  0  0  0
   68.0183  -10.9591    0.9693 P   0  0  2  0  0  0  0  0  0  0  0  0
   63.5717  -11.6650    4.6776 C   0  0  0  0  0  0  0  0  0  0  0  0
   62.9384  -10.8905    3.6457 O   0  0  0  0  0  0  0  0  0  0  0  0
   64.1518  -12.9701    4.1526 C   0  0  0  0  0  0  0  0  0  0  0  0
   63.2665  -13.5645    3.1813 O   0  0  0  0  0  0  0  0  0  0  0  0
   65.4982  -12.7316    3.4871 C   0  0  0  0  0  0  0  0  0  0  0  0
   66.5456  -13.4071    4.1940 O   0  0  0  0  0  0  0  0  0  0  0  0
   65.3757  -13.2492    2.0738 C   0  0  0  0  0  0  0  0  0  0  0  0
   66.3432  -14.2742    1.8104 O   0  0  0  0  0  0  0  0  0  0  0  0
   63.9636  -13.7921    1.9381 C   0  0  0  0  0  0  0  0  0  0  0  0
   59.5334  -11.9336    0.2101 N   0  0  0  0  0  0  0  0  0  0  0  0
   63.6537   -9.7679    1.5212 O   0  5  0  0  0  0  0  0  0  0  0  0
   65.7891   -8.4371    1.5008 O   0  5  0  0  0  0  0  0  0  0  0  0
   69.0311  -11.2140    2.0136 O   0  5  0  0  0  0  0  0  0  0  0  0
   59.8227  -12.5131    1.4226 C   0  0  1  0  0  0  0  0  0  0  0  0
   58.8159  -12.6169    2.2797 N   0  0  0  0  0  0  0  0  0  0  0  0
   63.1611   -8.3915    3.6232 O   0  0  0  0  0  0  0  0  0  0  0  0
   67.5422   -9.0860    3.2488 O   0  0  0  0  0  0  0  0  0  0  0  0
   68.1958   -9.8356    0.0258 O   0  0  0  0  0  0  0  0  0  0  0  0
   61.0289  -12.9624    1.7601 N   0  0  0  0  0  0  0  0  0  0  0  0
   65.1814   -9.8185    3.4717 O   0  0  0  0  0  0  0  0  0  0  0  0
   66.6084  -10.7758    1.6870 O   0  0  0  0  0  0  0  0  0  0  0  0
   67.8109  -12.3083    0.1223 O   0  0  0  0  0  0  0  0  0  0  0  0
   61.9347  -12.7830    0.7711 C   0  0  2  0  0  0  0  0  0  0  0  0
   61.7291  -12.2110   -0.4740 C   0  0  2  0  0  0  0  0  0  0  0  0
   60.4388  -11.7382   -0.8173 C   0  0  1  0  0  0  0  0  0  0  0  0
   60.0703  -11.2324   -1.8689 O   0  0  0  0  0  0  0  0  0  0  0  0
   62.9120  -12.2054   -1.2209 N   0  0  0  0  0  0  0  0  0  0  0  0
   63.7381  -12.7630   -0.3971 C   0  0  0  0  0  0  0  0  0  0  0  0
   63.2604  -13.1444    0.8137 N   0  0  0  0  0  0  0  0  0  0  0  0
  1  5  1  1  0  0  0
  1 14  1  0  0  0  0
  1 19  2  0  0  0  0
  2 15  1  6  0  0  0
  2 20  2  0  0  0  0
  2 23  1  0  0  0  0
  3 16  1  1  0  0  0
  3 21  2  0  0  0  0
  3 24  1  0  0  0  0
  3 25  1  0  0  0  0
  4  6  1  0  0  0  0
  5  4  1  0  0  0  0
  6  7  1  0  0  0  0
  6  8  2  0  0  0  0
  7 12  1  0  0  0  0
  8  9  1  0  0  0  0
  8 10  1  0  0  0  0
 10 11  1  0  0  0  0
 10 12  2  0  0  0  0
 12 32  1  0  0  0  0
 13 17  1  0  0  0  0
 17 18  1  6  0  0  0
 17 22  1  0  0  0  0
 23  1  1  0  0  0  0
 24  2  1  0  0  0  0
 26 22  1  6  0  0  0
 27 26  1  0  0  0  0
 27 28  1  0  0  0  0
 27 30  1  6  0  0  0
 28 13  1  0  0  0  0
 28 29  1  6  0  0  0
 31 30  1  0  0  0  0
 32 26  1  0  0  0  0
 32 31  1  0  0  0  0
M  CHG  3  14  -1  15  -1  16  -1
M  END
>  <CHROM.1>
128.45437235,23.05617514,74.52249229,-39.60404879,-101.86115947,-21.97269466
143.52756576,87.50597249,64.34122605,-11.40478401,1.77679029,0.29617665,0.04783546
0.84760953

>  <Name>
2au4_lig

>  <RI>
0

>  <Rbt.Current_Directory>
/home/itssahil/PROJECTS/Mol_Feturizer/New_Systems/rnas/2au4

>  <Rbt.Executable>
rbdock ($Id: //depot/dev/client3/rdock/2013.1/src/exe/rbdock.cxx#4 $)

>  <Rbt.Library>
libRbt.so (2013.1, Build901 2013/11/27)

>  <Rbt.Parameter_File>
/export/apps/rDock/src/rDock_2013.1_src/data/scripts/dock_solv.prm

>  <Rbt.Receptor>
prm/blind_docking_80.prm

>  <SCORE>
-28.7493

>  <SCORE.INTER>
-10.1971

>  <SCORE.INTER.CONST>
1

>  <SCORE.INTER.POLAR>
-1.62758

>  <SCORE.INTER.ROT>
8

>  <SCORE.INTER.SOLV>
28.1437

>  <SCORE.INTER.VDW>
-19.6874

>  <SCORE.INTER.norm>
-0.318658

>  <SCORE.INTRA>
-19.524

>  <SCORE.INTRA.DIHEDRAL>
-38.8463

>  <SCORE.INTRA.DIHEDRAL.0>
76.3625

>  <SCORE.INTRA.POLAR>
0

>  <SCORE.INTRA.POLAR.0>
0

>  <SCORE.INTRA.REPUL>
0.0688977

>  <SCORE.INTRA.REPUL.0>
0.12705

>  <SCORE.INTRA.SOLV>
2.11201

>  <SCORE.INTRA.SOLV.lig_0>
-119.383

>  <SCORE.INTRA.VDW>
-1.50134

>  <SCORE.INTRA.VDW.0>
-5.10464

>  <SCORE.INTRA.norm>
-0.610126

>  <SCORE.RESTR>
0.971823

>  <SCORE.RESTR.CAVITY>
0.971823

>  <SCORE.RESTR.norm>
0.0303695

>  <SCORE.SYSTEM>
0

>  <SCORE.SYSTEM.CONST>
0

>  <SCORE.SYSTEM.DIHEDRAL>
0

>  <SCORE.SYSTEM.SOLV>
0

>  <SCORE.SYSTEM.norm>
0

>  <SCORE.heavy>
32

>  <SCORE.norm>
-0.898414

>  <RMSD>
20.364

$$$$
2au4_lig
 OpenBabel11021811423D
libRbt.so/2013.1/901 2013/11/27
 32 34  0  0  0  0  0  0  0  0999 V2000
   64.4781   -9.4564    2.6743 P   0  0  1  0  0  0  0  0  0  0  0  0
   67.1508   -9.2244    2.2592 P   0  0  1  0  0  0  0  0  0  0  0  0
   68.1341  -11.4603    1.0448 P   0  0  2  0  0  0  0  0  0  0  0  0
   63.4415   -9.6770    5.1048 C   0  0  0  0  0  0  0  0  0  0  0  0
   63.9476  -10.3208    3.9237 O   0  0  0  0  0  0  0  0  0  0  0  0
   62.0806  -10.2145    5.5226 C   0  0  0  0  0  0  0  0  0  0  0  0
   61.0805   -9.8854    4.5368 O   0  0  0  0  0  0  0  0  0  0  0  0
   62.1221  -11.7272    5.6727 C   0  0  0  0  0  0  0  0  0  0  0  0
   61.8700  -12.1143    7.0290 O   0  0  0  0  0  0  0  0  0  0  0  0
   61.0660  -12.2793    4.7453 C   0  0  0  0  0  0  0  0  0  0  0  0
   60.0944  -13.0500    5.4650 O   0  0  0  0  0  0  0  0  0  0  0  0
   60.4160  -11.0808    4.0757 C   0  0  0  0  0  0  0  0  0  0  0  0
   62.3265  -13.6857    0.1221 N   0  0  0  0  0  0  0  0  0  0  0  0
   64.7075  -10.3674    1.5349 O   0  5  0  0  0  0  0  0  0  0  0  0
   66.9277   -8.5526    0.9641 O   0  5  0  0  0  0  0  0  0  0  0  0
   67.4556  -12.5460    0.3084 O   0  5  0  0  0  0  0  0  0  0  0  0
   62.4903  -13.9012    1.4698 C   0  0  1  0  0  0  0  0  0  0  0  0
   63.2564  -14.9284    1.8120 N   0  0  0  0  0  0  0  0  0  0  0  0
   63.6049   -8.2741    2.5135 O   0  0  0  0  0  0  0  0  0  0  0  0
   68.3704   -8.9377    3.0426 O   0  0  0  0  0  0  0  0  0  0  0  0
   69.3550  -11.7475    1.8262 O   0  0  0  0  0  0  0  0  0  0  0  0
   61.9344  -13.1460    2.4139 N   0  0  0  0  0  0  0  0  0  0  0  0
   65.8928   -8.9488    3.1854 O   0  0  0  0  0  0  0  0  0  0  0  0
   67.0715  -10.7944    2.0267 O   0  0  0  0  0  0  0  0  0  0  0  0
   68.4564  -10.2711    0.0140 O   0  0  0  0  0  0  0  0  0  0  0  0
   61.1914  -12.1429    1.8923 C   0  0  2  0  0  0  0  0  0  0  0  0
   60.9739  -11.8554    0.5544 C   0  0  2  0  0  0  0  0  0  0  0  0
   61.5736  -12.6691   -0.4378 C   0  0  1  0  0  0  0  0  0  0  0  0
   61.5132  -12.5521   -1.6544 O   0  0  0  0  0  0  0  0  0  0  0  0
   60.1478  -10.7353    0.4135 N   0  0  0  0  0  0  0  0  0  0  0  0
   59.9246  -10.4243    1.6486 C   0  0  0  0  0  0  0  0  0  0  0  0
   60.4971  -11.1953    2.6065 N   0  0  0  0  0  0  0  0  0  0  0  0
  1  5  1  1  0  0  0
  1 14  1  0  0  0  0
  1 19  2  0  0  0  0
  2 15  1  6  0  0  0
  2 20  2  0  0  0  0
  2 23  1  0  0  0  0
  3 16  1  6  0  0  0
  3 21  2  0  0  0  0
  3 24  1  0  0  0  0
  3 25  1  0  0  0  0
  4  6  1  0  0  0  0
  5  4  1  0  0  0  0
  6  7  1  0  0  0  0
  6  8  2  0  0  0  0
  7 12  1  0  0  0  0
  8  9  1  0  0  0  0
  8 10  1  0  0  0  0
 10 11  1  0  0  0  0
 10 12  2  0  0  0  0
 12 32  1  0  0  0  0
 13 17  1  0  0  0  0
 17 18  1  6  0  0  0
 17 22  1  0  0  0  0
 23  1  1  0  0  0  0
 24  2  1  0  0  0  0
 26 22  1  6  0  0  0
 27 26  1  0  0  0  0
 27 28  1  0  0  0  0
 27 30  1  6  0  0  0
 28 13  1  0  0  0  0
 28 29  1  6  0  0  0
 31 30  1  0  0  0  0
 32 26  1  0  0  0  0
 32 31  1  0  0  0  0
M  CHG  3  14  -1  15  -1  16  -1
M  END
>  <CHROM.1>
-170.17258834,60.31132613,-143.76025983,-66.14337493,129.22399541,112.86162344
127.06472772,61.70087315,63.97688896,-11.03395065,2.37660808,-0.09546173
0.31265645,1.08435988

>  <Name>
2au4_lig

>  <RI>
0

>  <Rbt.Current_Directory>
/home/itssahil/PROJECTS/Mol_Feturizer/New_Systems/rnas/2au4

>  <Rbt.Executable>
rbdock ($Id: //depot/dev/client3/rdock/2013.1/src/exe/rbdock.cxx#4 $)

>  <Rbt.Library>
libRbt.so (2013.1, Build901 2013/11/27)

>  <Rbt.Parameter_File>
/export/apps/rDock/src/rDock_2013.1_src/data/scripts/dock_solv.prm

>  <Rbt.Receptor>
prm/blind_docking_100.prm

>  <SCORE>
-37.4555

>  <SCORE.INTER>
-27.3334

>  <SCORE.INTER.CONST>
1

>  <SCORE.INTER.POLAR>
-4.10408

>  <SCORE.INTER.ROT>
8

>  <SCORE.INTER.SOLV>
30.2878

>  <SCORE.INTER.VDW>
-23.5713

>  <SCORE.INTER.norm>
-0.85417

>  <SCORE.INTRA>
-10.7367

>  <SCORE.INTRA.DIHEDRAL>
-22.2311

>  <SCORE.INTRA.DIHEDRAL.0>
76.3625

>  <SCORE.INTRA.POLAR>
0

>  <SCORE.INTRA.POLAR.0>
0

>  <SCORE.INTRA.REPUL>
-0.12705

>  <SCORE.INTRA.REPUL.0>
0.12705

>  <SCORE.INTRA.SOLV>
-2.2983

>  <SCORE.INTRA.SOLV.lig_0>
-119.383

>  <SCORE.INTRA.VDW>
2.16327

>  <SCORE.INTRA.VDW.0>
-5.10464

>  <SCORE.INTRA.norm>
-0.335521

>  <SCORE.RESTR>
0.614634

>  <SCORE.RESTR.CAVITY>
0.614634

>  <SCORE.RESTR.norm>
0.0192073

>  <SCORE.SYSTEM>
0

>  <SCORE.SYSTEM.CONST>
0

>  <SCORE.SYSTEM.DIHEDRAL>
0

>  <SCORE.SYSTEM.SOLV>
0

>  <SCORE.SYSTEM.norm>
0

>  <SCORE.heavy>
32

>  <SCORE.norm>
-1.17048

>  <RMSD>
20.365

$$$$
2au4_lig
 OpenBabel11021811423D
libRbt.so/2013.1/901 2013/11/27
 32 34  0  0  0  0  0  0  0  0999 V2000
   56.1464   -7.7897   -6.3346 P   0  0  1  0  0  0  0  0  0  0  0  0
   54.5680   -8.4805   -4.2368 P   0  0  1  0  0  0  0  0  0  0  0  0
   54.3547  -10.5957   -2.5276 P   0  0  2  0  0  0  0  0  0  0  0  0
   55.2708   -5.2914   -6.1854 C   0  0  0  0  0  0  0  0  0  0  0  0
   55.0107   -6.6648   -6.5196 O   0  0  0  0  0  0  0  0  0  0  0  0
   56.2854   -4.6474   -7.1190 C   0  0  0  0  0  0  0  0  0  0  0  0
   55.8770   -3.3085   -7.4664 O   0  0  0  0  0  0  0  0  0  0  0  0
   57.6530   -4.5722   -6.4584 C   0  0  0  0  0  0  0  0  0  0  0  0
   58.6088   -5.3700   -7.1675 O   0  0  0  0  0  0  0  0  0  0  0  0
   58.0518   -3.1157   -6.4627 C   0  0  0  0  0  0  0  0  0  0  0  0
   59.2839   -2.9168   -7.1687 O   0  0  0  0  0  0  0  0  0  0  0  0
   56.9166   -2.3635   -7.1354 C   0  0  0  0  0  0  0  0  0  0  0  0
   53.3821    1.2624   -6.4827 N   0  0  0  0  0  0  0  0  0  0  0  0
   56.4901   -8.3349   -7.6633 O   0  5  0  0  0  0  0  0  0  0  0  0
   55.5357   -8.1344   -3.1776 O   0  5  0  0  0  0  0  0  0  0  0  0
   53.5302  -11.8089   -2.3558 O   0  5  0  0  0  0  0  0  0  0  0  0
   53.5572    0.3940   -7.5338 C   0  0  1  0  0  0  0  0  0  0  0  0
   52.6944    0.5017   -8.5353 N   0  0  0  0  0  0  0  0  0  0  0  0
   57.2076   -7.2494   -5.4581 O   0  0  0  0  0  0  0  0  0  0  0  0
   53.5408   -7.5023   -4.6510 O   0  0  0  0  0  0  0  0  0  0  0  0
   54.4659   -9.6154   -1.4274 O   0  0  0  0  0  0  0  0  0  0  0  0
   54.5254   -0.5172   -7.5887 N   0  0  0  0  0  0  0  0  0  0  0  0
   55.3793   -8.9208   -5.5269 O   0  0  0  0  0  0  0  0  0  0  0  0
   53.8294   -9.8237   -3.8179 O   0  0  0  0  0  0  0  0  0  0  0  0
   55.8347  -11.0443   -2.9624 O   0  0  0  0  0  0  0  0  0  0  0  0
   55.3159   -0.4876   -6.4910 C   0  0  2  0  0  0  0  0  0  0  0  0
   55.2106    0.3497   -5.3921 C   0  0  2  0  0  0  0  0  0  0  0  0
   54.1743    1.3144   -5.3499 C   0  0  1  0  0  0  0  0  0  0  0  0
   53.9450    2.1450   -4.4810 O   0  0  0  0  0  0  0  0  0  0  0  0
   56.2166    0.0760   -4.4592 N   0  0  0  0  0  0  0  0  0  0  0  0
   56.8517   -0.8876   -5.0424 C   0  0  0  0  0  0  0  0  0  0  0  0
   56.3997   -1.2993   -6.2531 N   0  0  0  0  0  0  0  0  0  0  0  0
  1  5  1  6  0  0  0
  1 14  1  0  0  0  0
  1 19  2  0  0  0  0
  2 15  1  1  0  0  0
  2 20  2  0  0  0  0
  2 23  1  0  0  0  0
  3 16  1  1  0  0  0
  3 21  2  0  0  0  0
  3 24  1  0  0  0  0
  3 25  1  0  0  0  0
  4  6  1  0  0  0  0
  5  4  1  0  0  0  0
  6  7  1  0  0  0  0
  6  8  2  0  0  0  0
  7 12  1  0  0  0  0
  8  9  1  0  0  0  0
  8 10  1  0  0  0  0
 10 11  1  0  0  0  0
 10 12  2  0  0  0  0
 12 32  1  0  0  0  0
 13 17  1  0  0  0  0
 17 18  1  6  0  0  0
 17 22  1  0  0  0  0
 23  1  1  0  0  0  0
 24  2  1  0  0  0  0
 26 22  1  6  0  0  0
 27 26  1  0  0  0  0
 27 28  1  0  0  0  0
 27 30  1  6  0  0  0
 28 13  1  0  0  0  0
 28 29  1  6  0  0  0
 31 30  1  0  0  0  0
 32 26  1  0  0  0  0
 32 31  1  0  0  0  0
M  CHG  3  14  -1  15  -1  16  -1
M  END
>  <CHROM.1>
-115.97064196,-71.72246759,-179.24644509,138.25382663,67.72213964,-54.50966154
-49.56778398,-7.20889317,55.44237266,-5.14698751,-5.42824865,-1.60575652
0.68175158,-0.25095044

>  <Name>
2au4_lig

>  <RI>
0

>  <Rbt.Current_Directory>
/home/afrankz/demos/rdock_decoys_rna/rnas/2au4

>  <Rbt.Executable>
rbdock ($Id: //depot/dev/client3/rdock/2013.1/src/exe/rbdock.cxx#4 $)

>  <Rbt.Library>
libRbt.so (2013.1, Build901 2013/11/27)

>  <Rbt.Parameter_File>
/export/apps/rDock/src/rDock_2013.1_src/data/scripts/dock_solv.prm

>  <Rbt.Receptor>
prm/blind_docking_60.prm

>  <SCORE>
-12.9326

>  <SCORE.INTER>
-4.20948

>  <SCORE.INTER.CONST>
1

>  <SCORE.INTER.POLAR>
0

>  <SCORE.INTER.ROT>
8

>  <SCORE.INTER.SOLV>
27.9207

>  <SCORE.INTER.VDW>
-21.0466

>  <SCORE.INTER.norm>
-0.131546

>  <SCORE.INTRA>
-18.6716

>  <SCORE.INTRA.DIHEDRAL>
-37.9352

>  <SCORE.INTRA.DIHEDRAL.0>
76.3625

>  <SCORE.INTRA.POLAR>
0

>  <SCORE.INTRA.POLAR.0>
0

>  <SCORE.INTRA.REPUL>
-0.0754707

>  <SCORE.INTRA.REPUL.0>
0.12705

>  <SCORE.INTRA.SOLV>
-3.03177

>  <SCORE.INTRA.SOLV.lig_0>
-119.383

>  <SCORE.INTRA.VDW>
2.1893

>  <SCORE.INTRA.VDW.0>
-5.10464

>  <SCORE.INTRA.norm>
-0.583486

>  <SCORE.RESTR>
9.94849

>  <SCORE.RESTR.CAVITY>
9.94849

>  <SCORE.RESTR.norm>
0.31089

>  <SCORE.SYSTEM>
0

>  <SCORE.SYSTEM.CONST>
0

>  <SCORE.SYSTEM.DIHEDRAL>
0

>  <SCORE.SYSTEM.SOLV>
0

>  <SCORE.SYSTEM.norm>
0

>  <SCORE.heavy>
32

>  <SCORE.norm>
-0.404142

>  <RMSD>
20.376

$$$$
2au4_lig
 OpenBabel11021811423D
libRbt.so/2013.1/901 2013/11/27
 32 34  0  0  0  0  0  0  0  0999 V2000
   64.7759  -12.9413    0.9214 P   0  0  1  0  0  0  0  0  0  0  0  0
   66.8709  -11.2659    1.3381 P   0  0  1  0  0  0  0  0  0  0  0  0
   66.7982   -8.6347    2.0537 P   0  0  2  0  0  0  0  0  0  0  0  0
   62.2156  -12.5244    0.3723 C   0  0  0  0  0  0  0  0  0  0  0  0
   63.2440  -12.7140    1.3583 O   0  0  0  0  0  0  0  0  0  0  0  0
   60.8209  -12.7600    0.9334 C   0  0  0  0  0  0  0  0  0  0  0  0
   60.8664  -12.8866    2.3694 O   0  0  0  0  0  0  0  0  0  0  0  0
   59.8982  -11.6021    0.5861 C   0  0  0  0  0  0  0  0  0  0  0  0
   58.8286  -12.0365   -0.2625 O   0  0  0  0  0  0  0  0  0  0  0  0
   59.3694  -11.0675    1.8956 C   0  0  0  0  0  0  0  0  0  0  0  0
   57.9375  -11.1294    1.9413 O   0  0  0  0  0  0  0  0  0  0  0  0
   59.9820  -11.9277    2.9873 C   0  0  0  0  0  0  0  0  0  0  0  0
   63.7900  -11.7133    6.3814 N   0  0  0  0  0  0  0  0  0  0  0  0
   65.4633  -13.6948    1.9894 O   0  5  0  0  0  0  0  0  0  0  0  0
   66.9670  -11.4058    2.8041 O   0  5  0  0  0  0  0  0  0  0  0  0
   65.3855   -8.8034    2.4498 O   0  5  0  0  0  0  0  0  0  0  0  0
   63.3811  -12.7635    5.5942 C   0  0  1  0  0  0  0  0  0  0  0  0
   64.0601  -13.8952    5.7248 N   0  0  0  0  0  0  0  0  0  0  0  0
   64.8009  -13.4391   -0.4706 O   0  0  0  0  0  0  0  0  0  0  0  0
   67.7051  -12.1090    0.4567 O   0  0  0  0  0  0  0  0  0  0  0  0
   67.2709   -7.3332    1.5373 O   0  0  0  0  0  0  0  0  0  0  0  0
   62.3647  -12.6958    4.7381 N   0  0  0  0  0  0  0  0  0  0  0  0
   65.3538  -11.4627    0.9183 O   0  0  0  0  0  0  0  0  0  0  0  0
   67.1385   -9.7450    0.9636 O   0  0  0  0  0  0  0  0  0  0  0  0
   67.7278   -9.0596    3.2930 O   0  0  0  0  0  0  0  0  0  0  0  0
   61.7819  -11.4748    4.7343 C   0  0  2  0  0  0  0  0  0  0  0  0
   62.1286  -10.3669    5.4907 C   0  0  2  0  0  0  0  0  0  0  0  0
   63.2130  -10.4562    6.3977 C   0  0  1  0  0  0  0  0  0  0  0  0
   63.6410   -9.5968    7.1565 O   0  0  0  0  0  0  0  0  0  0  0  0
   61.2867   -9.2864    5.2064 N   0  0  0  0  0  0  0  0  0  0  0  0
   60.5020   -9.8001    4.3164 C   0  0  0  0  0  0  0  0  0  0  0  0
   60.7092  -11.0933    3.9637 N   0  0  0  0  0  0  0  0  0  0  0  0
  1  5  1  1  0  0  0
  1 14  1  0  0  0  0
  1 19  2  0  0  0  0
  2 15  1  1  0  0  0
  2 20  2  0  0  0  0
  2 23  1  0  0  0  0
  3 16  1  1  0  0  0
  3 21  2  0  0  0  0
  3 24  1  0  0  0  0
  3 25  1  0  0  0  0
  4  6  1  0  0  0  0
  5  4  1  0  0  0  0
  6  7  1  0  0  0  0
  6  8  2  0  0  0  0
  7 12  1  0  0  0  0
  8  9  1  0  0  0  0
  8 10  1  0  0  0  0
 10 11  1  0  0  0  0
 10 12  2  0  0  0  0
 12 32  1  0  0  0  0
 13 17  1  0  0  0  0
 17 18  1  1  0  0  0
 17 22  1  0  0  0  0
 23  1  1  0  0  0  0
 24  2  1  0  0  0  0
 26 22  1  1  0  0  0
 27 26  1  0  0  0  0
 27 28  1  0  0  0  0
 27 30  1  1  0  0  0
 28 13  1  0  0  0  0
 28 29  1  1  0  0  0
 31 30  1  0  0  0  0
 32 26  1  0  0  0  0
 32 31  1  0  0  0  0
M  CHG  3  14  -1  15  -1  16  -1
M  END
>  <CHROM.1>
-154.28828235,-75.43715243,-55.26016343,10.02021109,162.09439994,-31.81118155
146.45041391,-26.90709716,63.71820736,-11.24859833,2.62838923,0.09466549
-0.25123036,-1.95786665

>  <Name>
2au4_lig

>  <RI>
0

>  <Rbt.Current_Directory>
/home/itssahil/PROJECTS/Mol_Feturizer/New_Systems/rnas/2au4

>  <Rbt.Executable>
rbdock ($Id: //depot/dev/client3/rdock/2013.1/src/exe/rbdock.cxx#4 $)

>  <Rbt.Library>
libRbt.so (2013.1, Build901 2013/11/27)

>  <Rbt.Parameter_File>
/export/apps/rDock/src/rDock_2013.1_src/data/scripts/dock_solv.prm

>  <Rbt.Receptor>
prm/blind_docking_100.prm

>  <SCORE>
-45.6309

>  <SCORE.INTER>
-22.3279

>  <SCORE.INTER.CONST>
1

>  <SCORE.INTER.POLAR>
-3.37418

>  <SCORE.INTER.ROT>
8

>  <SCORE.INTER.SOLV>
25.3575

>  <SCORE.INTER.VDW>
-21.0239

>  <SCORE.INTER.norm>
-0.697748

>  <SCORE.INTRA>
-23.303

>  <SCORE.INTRA.DIHEDRAL>
-46.0062

>  <SCORE.INTRA.DIHEDRAL.0>
76.3625

>  <SCORE.INTRA.POLAR>
0

>  <SCORE.INTRA.POLAR.0>
0

>  <SCORE.INTRA.REPUL>
0.0578069

>  <SCORE.INTRA.REPUL.0>
0.12705

>  <SCORE.INTRA.SOLV>
-5.37428

>  <SCORE.INTRA.SOLV.lig_0>
-119.383

>  <SCORE.INTRA.VDW>
2.09825

>  <SCORE.INTRA.VDW.0>
-5.10464

>  <SCORE.INTRA.norm>
-0.728218

>  <SCORE.RESTR>
0

>  <SCORE.RESTR.CAVITY>
0

>  <SCORE.RESTR.norm>
0

>  <SCORE.SYSTEM>
0

>  <SCORE.SYSTEM.CONST>
0

>  <SCORE.SYSTEM.DIHEDRAL>
0

>  <SCORE.SYSTEM.SOLV>
0

>  <SCORE.SYSTEM.norm>
0

>  <SCORE.heavy>
32

>  <SCORE.norm>
-1.42597

>  <RMSD>
20.394

$$$$
2au4_lig
 OpenBabel11021811423D
libRbt.so/2013.1/901 2013/11/27
 32 34  0  0  0  0  0  0  0  0999 V2000
   64.2444  -13.8143    1.9866 P   0  0  1  0  0  0  0  0  0  0  0  0
   65.1926  -11.3000    2.3715 P   0  0  1  0  0  0  0  0  0  0  0  0
   66.5283   -8.9316    2.1536 P   0  0  2  0  0  0  0  0  0  0  0  0
   61.7629  -13.3594    1.1706 C   0  0  0  0  0  0  0  0  0  0  0  0
   62.7674  -13.2080    2.1874 O   0  0  0  0  0  0  0  0  0  0  0  0
   60.4718  -12.6315    1.5152 C   0  0  0  0  0  0  0  0  0  0  0  0
   60.0765  -12.9146    2.8731 O   0  0  0  0  0  0  0  0  0  0  0  0
   60.6473  -11.1276    1.3736 C   0  0  0  0  0  0  0  0  0  0  0  0
   59.7992  -10.6079    0.3424 O   0  0  0  0  0  0  0  0  0  0  0  0
   60.3010  -10.5273    2.7152 C   0  0  0  0  0  0  0  0  0  0  0  0
   59.2204   -9.5915    2.6020 O   0  0  0  0  0  0  0  0  0  0  0  0
   59.9177  -11.6879    3.6170 C   0  0  0  0  0  0  0  0  0  0  0  0
   62.5369   -8.8934    6.9929 N   0  0  0  0  0  0  0  0  0  0  0  0
   64.7971  -14.1565    3.3125 O   0  5  0  0  0  0  0  0  0  0  0  0
   63.8698  -10.6541    2.4772 O   0  5  0  0  0  0  0  0  0  0  0  0
   66.8096   -9.1269    3.5902 O   0  5  0  0  0  0  0  0  0  0  0  0
   61.8282   -8.4873    5.8873 C   0  0  1  0  0  0  0  0  0  0  0  0
   61.8150   -7.1836    5.6437 N   0  0  0  0  0  0  0  0  0  0  0  0
   64.1942  -14.8356    0.9186 O   0  0  0  0  0  0  0  0  0  0  0  0
   65.9159  -11.7126    3.5923 O   0  0  0  0  0  0  0  0  0  0  0  0
   65.5017   -7.9579    1.7269 O   0  0  0  0  0  0  0  0  0  0  0  0
   61.1795   -9.3192    5.0763 N   0  0  0  0  0  0  0  0  0  0  0  0
   65.0530  -12.5676    1.4281 O   0  0  0  0  0  0  0  0  0  0  0  0
   66.1471  -10.3471    1.5310 O   0  0  0  0  0  0  0  0  0  0  0  0
   67.9071   -8.5779    1.4091 O   0  0  0  0  0  0  0  0  0  0  0  0
   61.3002  -10.6090    5.4667 C   0  0  2  0  0  0  0  0  0  0  0  0
   61.9911  -11.1029    6.5615 C   0  0  2  0  0  0  0  0  0  0  0  0
   62.6766  -10.2035    7.4144 C   0  0  1  0  0  0  0  0  0  0  0  0
   63.3516  -10.4591    8.4026 O   0  0  0  0  0  0  0  0  0  0  0  0
   61.8833  -12.4960    6.6314 N   0  0  0  0  0  0  0  0  0  0  0  0
   61.1507  -12.7487    5.5963 C   0  0  0  0  0  0  0  0  0  0  0  0
   60.7498  -11.6996    4.8359 N   0  0  0  0  0  0  0  0  0  0  0  0
  1  5  1  1  0  0  0
  1 14  1  0  0  0  0
  1 19  2  0  0  0  0
  2 15  1  1  0  0  0
  2 20  2  0  0  0  0
  2 23  1  0  0  0  0
  3 16  1  1  0  0  0
  3 21  2  0  0  0  0
  3 24  1  0  0  0  0
  3 25  1  0  0  0  0
  4  6  1  0  0  0  0
  5  4  1  0  0  0  0
  6  7  1  0  0  0  0
  6  8  2  0  0  0  0
  7 12  1  0  0  0  0
  8  9  1  0  0  0  0
  8 10  1  0  0  0  0
 10 11  1  0  0  0  0
 10 12  2  0  0  0  0
 12 32  1  0  0  0  0
 13 17  1  0  0  0  0
 17 18  1  6  0  0  0
 17 22  1  0  0  0  0
 23  1  1  0  0  0  0
 24  2  1  0  0  0  0
 26 22  1  6  0  0  0
 27 26  1  0  0  0  0
 27 28  1  0  0  0  0
 27 30  1  6  0  0  0
 28 13  1  0  0  0  0
 28 29  1  6  0  0  0
 31 30  1  0  0  0  0
 32 26  1  0  0  0  0
 32 31  1  0  0  0  0
M  CHG  3  14  -1  15  -1  16  -1
M  END
>  <CHROM.1>
-150.61401021,-70.33348334,41.97559825,-47.13689572,-175.96632018,150.74923439
62.89418442,65.32603420,63.21058867,-11.06721623,3.35478944,0.38383996,-0.39583919
-2.29429789

>  <Name>
2au4_lig

>  <RI>
0

>  <Rbt.Current_Directory>
/home/itssahil/PROJECTS/Mol_Feturizer/New_Systems/rnas/2au4

>  <Rbt.Executable>
rbdock ($Id: //depot/dev/client3/rdock/2013.1/src/exe/rbdock.cxx#4 $)

>  <Rbt.Library>
libRbt.so (2013.1, Build901 2013/11/27)

>  <Rbt.Parameter_File>
/export/apps/rDock/src/rDock_2013.1_src/data/scripts/dock_solv.prm

>  <Rbt.Receptor>
prm/blind_docking_100.prm

>  <SCORE>
-44.8564

>  <SCORE.INTER>
-19.3931

>  <SCORE.INTER.CONST>
1

>  <SCORE.INTER.POLAR>
-2.9479

>  <SCORE.INTER.ROT>
8

>  <SCORE.INTER.SOLV>
21.8009

>  <SCORE.INTER.VDW>
-19.3027

>  <SCORE.INTER.norm>
-0.606035

>  <SCORE.INTRA>
-25.9674

>  <SCORE.INTRA.DIHEDRAL>
-48.543

>  <SCORE.INTRA.DIHEDRAL.0>
76.3625

>  <SCORE.INTRA.POLAR>
0

>  <SCORE.INTRA.POLAR.0>
0

>  <SCORE.INTRA.REPUL>
-0.12705

>  <SCORE.INTRA.REPUL.0>
0.12705

>  <SCORE.INTRA.SOLV>
-2.81624

>  <SCORE.INTRA.SOLV.lig_0>
-119.383

>  <SCORE.INTRA.VDW>
0.347476

>  <SCORE.INTRA.VDW.0>
-5.10464

>  <SCORE.INTRA.norm>
-0.81148

>  <SCORE.RESTR>
0.504112

>  <SCORE.RESTR.CAVITY>
0.504112

>  <SCORE.RESTR.norm>
0.0157535

>  <SCORE.SYSTEM>
0

>  <SCORE.SYSTEM.CONST>
0

>  <SCORE.SYSTEM.DIHEDRAL>
0

>  <SCORE.SYSTEM.SOLV>
0

>  <SCORE.SYSTEM.norm>
0

>  <SCORE.heavy>
32

>  <SCORE.norm>
-1.40176

>  <RMSD>
20.402

$$$$
2au4_lig
 OpenBabel11021811423D
libRbt.so/2013.1/901 2013/11/27
 32 34  0  0  0  0  0  0  0  0999 V2000
   65.3886  -13.1144    1.1060 P   0  0  1  0  0  0  0  0  0  0  0  0
   65.9507  -10.8946    2.5641 P   0  0  1  0  0  0  0  0  0  0  0  0
   66.6671   -8.3377    1.9399 P   0  0  2  0  0  0  0  0  0  0  0  0
   63.0891  -12.5828   -0.1022 C   0  0  0  0  0  0  0  0  0  0  0  0
   64.0703  -13.5549    0.2952 O   0  0  0  0  0  0  0  0  0  0  0  0
   61.6645  -13.0725    0.1131 C   0  0  0  0  0  0  0  0  0  0  0  0
   61.3909  -13.2351    1.5198 O   0  0  0  0  0  0  0  0  0  0  0  0
   60.6623  -12.0803   -0.4558 C   0  0  0  0  0  0  0  0  0  0  0  0
   59.9162  -12.6650   -1.5302 O   0  0  0  0  0  0  0  0  0  0  0  0
   59.7541  -11.6865    0.6846 C   0  0  0  0  0  0  0  0  0  0  0  0
   58.3855  -11.9952    0.3888 O   0  0  0  0  0  0  0  0  0  0  0  0
   60.2322  -12.4628    1.8996 C   0  0  0  0  0  0  0  0  0  0  0  0
   62.9026  -11.7761    6.1965 N   0  0  0  0  0  0  0  0  0  0  0  0
   65.7526  -14.2001    2.0385 O   0  5  0  0  0  0  0  0  0  0  0  0
   65.6712  -10.7155    4.0021 O   0  5  0  0  0  0  0  0  0  0  0  0
   67.1425   -8.2899    3.3374 O   0  5  0  0  0  0  0  0  0  0  0  0
   62.8627  -12.8653    5.3589 C   0  0  1  0  0  0  0  0  0  0  0  0
   63.6182  -13.8996    5.7031 N   0  0  0  0  0  0  0  0  0  0  0  0
   66.3853  -12.5996    0.1428 O   0  0  0  0  0  0  0  0  0  0  0  0
   67.2846  -11.3486    2.1191 O   0  0  0  0  0  0  0  0  0  0  0  0
   66.0615   -7.1388    1.3236 O   0  0  0  0  0  0  0  0  0  0  0  0
   62.1203  -12.9251    4.2561 N   0  0  0  0  0  0  0  0  0  0  0  0
   64.8667  -11.8868    1.9668 O   0  0  0  0  0  0  0  0  0  0  0  0
   65.6195   -9.5311    1.8181 O   0  0  0  0  0  0  0  0  0  0  0  0
   67.8778   -8.8337    1.0078 O   0  0  0  0  0  0  0  0  0  0  0  0
   61.4104  -11.7906    4.0575 C   0  0  2  0  0  0  0  0  0  0  0  0
   61.3921  -10.6521    4.8470 C   0  0  2  0  0  0  0  0  0  0  0  0
   62.1880  -10.6051    6.0177 C   0  0  1  0  0  0  0  0  0  0  0  0
   62.2782   -9.7024    6.8390 O   0  0  0  0  0  0  0  0  0  0  0  0
   60.5301   -9.6888    4.3119 N   0  0  0  0  0  0  0  0  0  0  0  0
   60.0919  -10.2945    3.2569 C   0  0  0  0  0  0  0  0  0  0  0  0
   60.5509  -11.5472    3.0124 N   0  0  0  0  0  0  0  0  0  0  0  0
  1  5  1  6  0  0  0
  1 14  1  0  0  0  0
  1 19  2  0  0  0  0
  2 15  1  1  0  0  0
  2 20  2  0  0  0  0
  2 23  1  0  0  0  0
  3 16  1  1  0  0  0
  3 21  2  0  0  0  0
  3 24  1  0  0  0  0
  3 25  1  0  0  0  0
  4  6  1  0  0  0  0
  5  4  1  0  0  0  0
  6  7  1  0  0  0  0
  6  8  2  0  0  0  0
  7 12  1  0  0  0  0
  8  9  1  0  0  0  0
  8 10  1  0  0  0  0
 10 11  1  0  0  0  0
 10 12  2  0  0  0  0
 12 32  1  0  0  0  0
 13 17  1  0  0  0  0
 17 18  1  1  0  0  0
 17 22  1  0  0  0  0
 23  1  1  0  0  0  0
 24  2  1  0  0  0  0
 26 22  1  1  0  0  0
 27 26  1  0  0  0  0
 27 28  1  0  0  0  0
 27 30  1  1  0  0  0
 28 13  1  0  0  0  0
 28 29  1  1  0  0  0
 31 30  1  0  0  0  0
 32 26  1  0  0  0  0
 32 31  1  0  0  0  0
M  CHG  3  14  -1  15  -1  16  -1
M  END
>  <CHROM.1>
146.26673883,-129.84388900,-41.54989532,66.06255228,-137.80234521,-35.38855921
-161.55245722,77.01538138,63.63363542,-11.34080258,2.41136340,-0.12647018
-0.33663527,-1.96169881

>  <Name>
2au4_lig

>  <RI>
0

>  <Rbt.Current_Directory>
/home/itssahil/PROJECTS/Mol_Feturizer/New_Systems/rnas/2au4

>  <Rbt.Executable>
rbdock ($Id: //depot/dev/client3/rdock/2013.1/src/exe/rbdock.cxx#4 $)

>  <Rbt.Library>
libRbt.so (2013.1, Build901 2013/11/27)

>  <Rbt.Parameter_File>
/export/apps/rDock/src/rDock_2013.1_src/data/scripts/dock_solv.prm

>  <Rbt.Receptor>
prm/blind_docking_100.prm

>  <SCORE>
-48.4611

>  <SCORE.INTER>
-28.0805

>  <SCORE.INTER.CONST>
1

>  <SCORE.INTER.POLAR>
-3.77523

>  <SCORE.INTER.ROT>
8

>  <SCORE.INTER.SOLV>
23.9988

>  <SCORE.INTER.VDW>
-23.0692

>  <SCORE.INTER.norm>
-0.877516

>  <SCORE.INTRA>
-20.3905

>  <SCORE.INTRA.DIHEDRAL>
-40.4005

>  <SCORE.INTRA.DIHEDRAL.0>
76.3625

>  <SCORE.INTRA.POLAR>
0

>  <SCORE.INTRA.POLAR.0>
0

>  <SCORE.INTRA.REPUL>
0.0417925

>  <SCORE.INTRA.REPUL.0>
0.12705

>  <SCORE.INTRA.SOLV>
-3.63207

>  <SCORE.INTRA.SOLV.lig_0>
-119.383

>  <SCORE.INTRA.VDW>
1.41679

>  <SCORE.INTRA.VDW.0>
-5.10464

>  <SCORE.INTRA.norm>
-0.637204

>  <SCORE.RESTR>
0.00998486

>  <SCORE.RESTR.CAVITY>
0.00998486

>  <SCORE.RESTR.norm>
0.000312027

>  <SCORE.SYSTEM>
0

>  <SCORE.SYSTEM.CONST>
0

>  <SCORE.SYSTEM.DIHEDRAL>
0

>  <SCORE.SYSTEM.SOLV>
0

>  <SCORE.SYSTEM.norm>
0

>  <SCORE.heavy>
32

>  <SCORE.norm>
-1.51441

>  <RMSD>
20.429

$$$$
2au4_lig
 OpenBabel11021811423D
libRbt.so/2013.1/901 2013/11/27
 32 34  0  0  0  0  0  0  0  0999 V2000
   66.0183  -12.6665    1.5027 P   0  0  1  0  0  0  0  0  0  0  0  0
   66.9802  -10.5581    2.9166 P   0  0  1  0  0  0  0  0  0  0  0  0
   66.2951   -8.2379    1.6565 P   0  0  2  0  0  0  0  0  0  0  0  0
   63.5968  -11.7591    2.0888 C   0  0  0  0  0  0  0  0  0  0  0  0
   64.8969  -11.5127    1.5279 O   0  0  0  0  0  0  0  0  0  0  0  0
   62.8897  -10.4774    2.5042 C   0  0  0  0  0  0  0  0  0  0  0  0
   61.8377  -10.1532    1.5723 O   0  0  0  0  0  0  0  0  0  0  0  0
   62.2730  -10.6263    3.8862 C   0  0  0  0  0  0  0  0  0  0  0  0
   62.8789   -9.7217    4.8176 O   0  0  0  0  0  0  0  0  0  0  0  0
   60.7986  -10.3388    3.7312 C   0  0  0  0  0  0  0  0  0  0  0  0
   60.3934   -9.2420    4.5611 O   0  0  0  0  0  0  0  0  0  0  0  0
   60.5781  -10.0155    2.2635 C   0  0  0  0  0  0  0  0  0  0  0  0
   59.2117  -12.8355   -1.7672 N   0  0  0  0  0  0  0  0  0  0  0  0
   65.4805  -13.8607    2.1849 O   0  5  0  0  0  0  0  0  0  0  0  0
   65.7645  -10.4910    3.7507 O   0  5  0  0  0  0  0  0  0  0  0  0
   64.8432   -8.1642    1.9163 O   0  5  0  0  0  0  0  0  0  0  0  0
   60.3413  -12.0756   -1.5768 C   0  0  1  0  0  0  0  0  0  0  0  0
   61.2125  -12.0568   -2.5766 N   0  0  0  0  0  0  0  0  0  0  0  0
   66.5524  -12.7757    0.1283 O   0  0  0  0  0  0  0  0  0  0  0  0
   68.2753  -10.0933    3.4552 O   0  0  0  0  0  0  0  0  0  0  0  0
   66.8728   -7.5452    0.4858 O   0  0  0  0  0  0  0  0  0  0  0  0
   60.5876  -11.3787   -0.4703 N   0  0  0  0  0  0  0  0  0  0  0  0
   67.1602  -12.0538    2.4197 O   0  0  0  0  0  0  0  0  0  0  0  0
   66.6997   -9.7755    1.5624 O   0  0  0  0  0  0  0  0  0  0  0  0
   67.0729   -7.7479    2.9739 O   0  0  0  0  0  0  0  0  0  0  0  0
   59.5971  -11.5051    0.4427 C   0  0  2  0  0  0  0  0  0  0  0  0
   58.4316  -12.2463    0.3329 C   0  0  2  0  0  0  0  0  0  0  0  0
   58.1848  -12.9821   -0.8520 C   0  0  1  0  0  0  0  0  0  0  0  0
   57.2092  -13.6656   -1.1321 O   0  0  0  0  0  0  0  0  0  0  0  0
   57.6531  -12.1244    1.4888 N   0  0  0  0  0  0  0  0  0  0  0  0
   58.3822  -11.3339    2.2068 C   0  0  0  0  0  0  0  0  0  0  0  0
   59.5567  -10.9068    1.6798 N   0  0  0  0  0  0  0  0  0  0  0  0
  1  5  1  6  0  0  0
  1 14  1  0  0  0  0
  1 19  2  0  0  0  0
  2 15  1  1  0  0  0
  2 20  2  0  0  0  0
  2 23  1  0  0  0  0
  3 16  1  1  0  0  0
  3 21  2  0  0  0  0
  3 24  1  0  0  0  0
  3 25  1  0  0  0  0
  4  6  1  0  0  0  0
  5  4  1  0  0  0  0
  6  7  1  0  0  0  0
  6  8  2  0  0  0  0
  7 12  1  0  0  0  0
  8  9  1  0  0  0  0
  8 10  1  0  0  0  0
 10 11  1  0  0  0  0
 10 12  2  0  0  0  0
 12 32  1  0  0  0  0
 13 17  1  0  0  0  0
 17 18  1  6  0  0  0
 17 22  1  0  0  0  0
 23  1  1  0  0  0  0
 24  2  1  0  0  0  0
 26 22  1  6  0  0  0
 27 26  1  0  0  0  0
 27 28  1  0  0  0  0
 27 30  1  6  0  0  0
 28 13  1  0  0  0  0
 28 29  1  6  0  0  0
 31 30  1  0  0  0  0
 32 26  1  0  0  0  0
 32 31  1  0  0  0  0
M  CHG  3  14  -1  15  -1  16  -1
M  END
>  <CHROM.1>
-3.06596068,62.11069786,-83.38761034,105.73825082,158.10958170,-18.04357813
-6.50403382,58.81398884,63.27905734,-10.89302078,1.62330722,-0.36376640,-0.01353603
-2.30322232

>  <Name>
2au4_lig

>  <RI>
0

>  <Rbt.Current_Directory>
/home/itssahil/PROJECTS/Mol_Feturizer/New_Systems/rnas/2au4

>  <Rbt.Executable>
rbdock ($Id: //depot/dev/client3/rdock/2013.1/src/exe/rbdock.cxx#4 $)

>  <Rbt.Library>
libRbt.so (2013.1, Build901 2013/11/27)

>  <Rbt.Parameter_File>
/export/apps/rDock/src/rDock_2013.1_src/data/scripts/dock_solv.prm

>  <Rbt.Receptor>
prm/blind_docking_100.prm

>  <SCORE>
-39.3455

>  <SCORE.INTER>
-20.661

>  <SCORE.INTER.CONST>
1

>  <SCORE.INTER.POLAR>
-2.52201

>  <SCORE.INTER.ROT>
8

>  <SCORE.INTER.SOLV>
36.1359

>  <SCORE.INTER.VDW>
-26.346

>  <SCORE.INTER.norm>
-0.645658

>  <SCORE.INTRA>
-19.6496

>  <SCORE.INTRA.DIHEDRAL>
-41.3642

>  <SCORE.INTRA.DIHEDRAL.0>
76.3625

>  <SCORE.INTRA.POLAR>
0

>  <SCORE.INTRA.POLAR.0>
0

>  <SCORE.INTRA.REPUL>
0.055889

>  <SCORE.INTRA.REPUL.0>
0.12705

>  <SCORE.INTRA.SOLV>
-3.06166

>  <SCORE.INTRA.SOLV.lig_0>
-119.383

>  <SCORE.INTRA.VDW>
2.28395

>  <SCORE.INTRA.VDW.0>
-5.10464

>  <SCORE.INTRA.norm>
-0.614048

>  <SCORE.RESTR>
0.965143

>  <SCORE.RESTR.CAVITY>
0.965143

>  <SCORE.RESTR.norm>
0.0301607

>  <SCORE.SYSTEM>
0

>  <SCORE.SYSTEM.CONST>
0

>  <SCORE.SYSTEM.DIHEDRAL>
0

>  <SCORE.SYSTEM.SOLV>
0

>  <SCORE.SYSTEM.norm>
0

>  <SCORE.heavy>
32

>  <SCORE.norm>
-1.22955

>  <RMSD>
20.441

$$$$
2au4_lig
 OpenBabel11021811423D
libRbt.so/2013.1/901 2013/11/27
 32 34  0  0  0  0  0  0  0  0999 V2000
   66.1400  -12.1153    1.9318 P   0  0  1  0  0  0  0  0  0  0  0  0
   67.4697   -9.7521    1.8024 P   0  0  1  0  0  0  0  0  0  0  0  0
   68.2903   -7.2829    2.6212 P   0  0  2  0  0  0  0  0  0  0  0  0
   64.8186  -13.7957    3.5004 C   0  0  0  0  0  0  0  0  0  0  0  0
   66.0789  -13.2958    3.0236 O   0  0  0  0  0  0  0  0  0  0  0  0
   64.2676  -12.9758    4.6578 C   0  0  0  0  0  0  0  0  0  0  0  0
   63.5911  -11.7993    4.1694 O   0  0  0  0  0  0  0  0  0  0  0  0
   63.2761  -13.7921    5.4720 C   0  0  0  0  0  0  0  0  0  0  0  0
   63.7535  -13.9934    6.8079 O   0  0  0  0  0  0  0  0  0  0  0  0
   61.9794  -13.0183    5.4698 C   0  0  0  0  0  0  0  0  0  0  0  0
   61.5651  -12.6954    6.8041 O   0  0  0  0  0  0  0  0  0  0  0  0
   62.2358  -11.7565    4.6639 C   0  0  0  0  0  0  0  0  0  0  0  0
   61.3689  -12.5802   -0.2996 N   0  0  0  0  0  0  0  0  0  0  0  0
   66.7353  -12.6515    0.6913 O   0  5  0  0  0  0  0  0  0  0  0  0
   68.5102  -10.0106    0.7883 O   0  5  0  0  0  0  0  0  0  0  0  0
   68.1836   -6.5423    3.8945 O   0  5  0  0  0  0  0  0  0  0  0  0
   62.4946  -12.8421    0.4446 C   0  0  1  0  0  0  0  0  0  0  0  0
   63.5161  -13.3837   -0.2053 N   0  0  0  0  0  0  0  0  0  0  0  0
   64.8247  -11.4411    1.8915 O   0  0  0  0  0  0  0  0  0  0  0  0
   66.1730   -9.1676    1.4018 O   0  0  0  0  0  0  0  0  0  0  0  0
   67.4064   -6.9370    1.4885 O   0  0  0  0  0  0  0  0  0  0  0  0
   62.6006  -12.5806    1.7450 N   0  0  0  0  0  0  0  0  0  0  0  0
   67.1826  -11.1066    2.5766 O   0  0  0  0  0  0  0  0  0  0  0  0
   68.0962   -8.8320    2.9365 O   0  0  0  0  0  0  0  0  0  0  0  0
   69.8144   -7.2128    2.1185 O   0  0  0  0  0  0  0  0  0  0  0  0
   61.4727  -12.0271    2.2471 C   0  0  2  0  0  0  0  0  0  0  0  0
   60.2995  -11.7313    1.5718 C   0  0  2  0  0  0  0  0  0  0  0  0
   60.2037  -12.0157    0.1875 C   0  0  1  0  0  0  0  0  0  0  0  0
   59.2652  -11.8024   -0.5684 O   0  0  0  0  0  0  0  0  0  0  0  0
   59.3571  -11.1633    2.4357 N   0  0  0  0  0  0  0  0  0  0  0  0
   60.0077  -11.1521    3.5531 C   0  0  0  0  0  0  0  0  0  0  0  0
   61.2725  -11.6421    3.5516 N   0  0  0  0  0  0  0  0  0  0  0  0
  1  5  1  1  0  0  0
  1 14  1  0  0  0  0
  1 19  2  0  0  0  0
  2 15  1  6  0  0  0
  2 20  2  0  0  0  0
  2 23  1  0  0  0  0
  3 16  1  1  0  0  0
  3 21  2  0  0  0  0
  3 24  1  0  0  0  0
  3 25  1  0  0  0  0
  4  6  1  0  0  0  0
  5  4  1  0  0  0  0
  6  7  1  0  0  0  0
  6  8  2  0  0  0  0
  7 12  1  0  0  0  0
  8  9  1  0  0  0  0
  8 10  1  0  0  0  0
 10 11  1  0  0  0  0
 10 12  2  0  0  0  0
 12 32  1  0  0  0  0
 13 17  1  0  0  0  0
 17 18  1  6  0  0  0
 17 22  1  0  0  0  0
 23  1  1  0  0  0  0
 24  2  1  0  0  0  0
 26 22  1  6  0  0  0
 27 26  1  0  0  0  0
 27 28  1  0  0  0  0
 27 30  1  6  0  0  0
 28 13  1  0  0  0  0
 28 29  1  6  0  0  0
 31 30  1  0  0  0  0
 32 26  1  0  0  0  0
 32 31  1  0  0  0  0
M  CHG  3  14  -1  15  -1  16  -1
M  END
>  <CHROM.1>
-114.87460541,-85.05805468,150.69986119,82.07494052,-85.52130893,23.99880451
-177.46021259,76.25991917,64.57750838,-11.11171437,2.53672249,-0.24720071
0.47402215,1.94090962

>  <Name>
2au4_lig

>  <RI>
0

>  <Rbt.Current_Directory>
/home/itssahil/PROJECTS/Mol_Feturizer/New_Systems/rnas/2au4

>  <Rbt.Executable>
rbdock ($Id: //depot/dev/client3/rdock/2013.1/src/exe/rbdock.cxx#4 $)

>  <Rbt.Library>
libRbt.so (2013.1, Build901 2013/11/27)

>  <Rbt.Parameter_File>
/export/apps/rDock/src/rDock_2013.1_src/data/scripts/dock_solv.prm

>  <Rbt.Receptor>
prm/blind_docking_100.prm

>  <SCORE>
-25.0852

>  <SCORE.INTER>
-21.8063

>  <SCORE.INTER.CONST>
1

>  <SCORE.INTER.POLAR>
-3.4827

>  <SCORE.INTER.ROT>
8

>  <SCORE.INTER.SOLV>
29.222

>  <SCORE.INTER.VDW>
-21.6026

>  <SCORE.INTER.norm>
-0.681448

>  <SCORE.INTRA>
-3.27881

>  <SCORE.INTRA.DIHEDRAL>
-12.4075

>  <SCORE.INTRA.DIHEDRAL.0>
76.3625

>  <SCORE.INTRA.POLAR>
0

>  <SCORE.INTRA.POLAR.0>
0

>  <SCORE.INTRA.REPUL>
-0.0279789

>  <SCORE.INTRA.REPUL.0>
0.12705

>  <SCORE.INTRA.SOLV>
4.68666

>  <SCORE.INTRA.SOLV.lig_0>
-119.383

>  <SCORE.INTRA.VDW>
0.721502

>  <SCORE.INTRA.VDW.0>
-5.10464

>  <SCORE.INTRA.norm>
-0.102463

>  <SCORE.RESTR>
0

>  <SCORE.RESTR.CAVITY>
0

>  <SCORE.RESTR.norm>
0

>  <SCORE.SYSTEM>
0

>  <SCORE.SYSTEM.CONST>
0

>  <SCORE.SYSTEM.DIHEDRAL>
0

>  <SCORE.SYSTEM.SOLV>
0

>  <SCORE.SYSTEM.norm>
0

>  <SCORE.heavy>
32

>  <SCORE.norm>
-0.783911

>  <RMSD>
20.451

$$$$
2au4_lig
 OpenBabel11021811423D
libRbt.so/2013.1/901 2013/11/27
 32 34  0  0  0  0  0  0  0  0999 V2000
   64.8635  -13.0213    1.1687 P   0  0  1  0  0  0  0  0  0  0  0  0
   67.2000  -11.6396    1.1370 P   0  0  1  0  0  0  0  0  0  0  0  0
   66.6635   -9.1228    2.0417 P   0  0  2  0  0  0  0  0  0  0  0  0
   63.2095  -12.2898   -0.7703 C   0  0  0  0  0  0  0  0  0  0  0  0
   63.9381  -11.9397    0.4181 O   0  0  0  0  0  0  0  0  0  0  0  0
   61.8426  -12.8827   -0.4613 C   0  0  0  0  0  0  0  0  0  0  0  0
   61.6952  -13.1069    0.9558 O   0  0  0  0  0  0  0  0  0  0  0  0
   60.7342  -11.9448   -0.9132 C   0  0  0  0  0  0  0  0  0  0  0  0
   59.9438  -12.5462   -1.9460 O   0  0  0  0  0  0  0  0  0  0  0  0
   59.8973  -11.6497    0.3086 C   0  0  0  0  0  0  0  0  0  0  0  0
   58.5326  -12.0427    0.1105 O   0  0  0  0  0  0  0  0  0  0  0  0
   60.5225  -12.4282    1.4533 C   0  0  0  0  0  0  0  0  0  0  0  0
   63.2512  -11.8231    5.7258 N   0  0  0  0  0  0  0  0  0  0  0  0
   64.9559  -12.6525    2.5957 O   0  5  0  0  0  0  0  0  0  0  0  0
   67.5283  -12.0268    2.5228 O   0  5  0  0  0  0  0  0  0  0  0  0
   68.0306   -8.7503    1.6251 O   0  5  0  0  0  0  0  0  0  0  0  0
   63.1834  -12.9044    4.8798 C   0  0  1  0  0  0  0  0  0  0  0  0
   63.9247  -13.9543    5.2072 N   0  0  0  0  0  0  0  0  0  0  0  0
   64.4156  -14.3760    0.7809 O   0  0  0  0  0  0  0  0  0  0  0  0
   68.2809  -11.3349    0.1766 O   0  0  0  0  0  0  0  0  0  0  0  0
   66.3761   -9.4104    3.4625 O   0  0  0  0  0  0  0  0  0  0  0  0
   62.4281  -12.9424    3.7849 N   0  0  0  0  0  0  0  0  0  0  0  0
   66.2853  -12.7726    0.5077 O   0  0  0  0  0  0  0  0  0  0  0  0
   66.2183  -10.3911    1.1873 O   0  0  0  0  0  0  0  0  0  0  0  0
   65.6500   -7.9832    1.5370 O   0  0  0  0  0  0  0  0  0  0  0  0
   61.7356  -11.7943    3.6034 C   0  0  2  0  0  0  0  0  0  0  0  0
   61.7456  -10.6622    4.4022 C   0  0  2  0  0  0  0  0  0  0  0  0
   62.5550  -10.6386    5.5644 C   0  0  1  0  0  0  0  0  0  0  0  0
   62.6696   -9.7445    6.3920 O   0  0  0  0  0  0  0  0  0  0  0  0
   60.8945   -9.6800    3.8847 N   0  0  0  0  0  0  0  0  0  0  0  0
   60.4344  -10.2693    2.8297 C   0  0  0  0  0  0  0  0  0  0  0  0
   60.8691  -11.5276    2.5699 N   0  0  0  0  0  0  0  0  0  0  0  0
  1  5  1  6  0  0  0
  1 14  1  0  0  0  0
  1 19  2  0  0  0  0
  2 15  1  1  0  0  0
  2 20  2  0  0  0  0
  2 23  1  0  0  0  0
  3 16  1  6  0  0  0
  3 21  2  0  0  0  0
  3 24  1  0  0  0  0
  3 25  1  0  0  0  0
  4  6  1  0  0  0  0
  5  4  1  0  0  0  0
  6  7  1  0  0  0  0
  6  8  2  0  0  0  0
  7 12  1  0  0  0  0
  8  9  1  0  0  0  0
  8 10  1  0  0  0  0
 10 11  1  0  0  0  0
 10 12  2  0  0  0  0
 12 32  1  0  0  0  0
 13 17  1  0  0  0  0
 17 18  1  1  0  0  0
 17 22  1  0  0  0  0
 23  1  1  0  0  0  0
 24  2  1  0  0  0  0
 26 22  1  1  0  0  0
 27 26  1  0  0  0  0
 27 28  1  0  0  0  0
 27 30  1  1  0  0  0
 28 13  1  0  0  0  0
 28 29  1  1  0  0  0
 31 30  1  0  0  0  0
 32 26  1  0  0  0  0
 32 31  1  0  0  0  0
M  CHG  3  14  -1  15  -1  16  -1
M  END
>  <CHROM.1>
-153.49195412,63.30985997,51.08657800,-7.59475772,87.36804236,-41.81681867
85.81407877,52.99125220,63.84122641,-11.51894969,1.99982613,-0.09659831,-0.19651233
-1.89871427

>  <Name>
2au4_lig

>  <RI>
0

>  <Rbt.Current_Directory>
/home/itssahil/PROJECTS/Mol_Feturizer/New_Systems/rnas/2au4

>  <Rbt.Executable>
rbdock ($Id: //depot/dev/client3/rdock/2013.1/src/exe/rbdock.cxx#4 $)

>  <Rbt.Library>
libRbt.so (2013.1, Build901 2013/11/27)

>  <Rbt.Parameter_File>
/export/apps/rDock/src/rDock_2013.1_src/data/scripts/dock_solv.prm

>  <Rbt.Receptor>
prm/blind_docking_100.prm

>  <SCORE>
-53.2044

>  <SCORE.INTER>
-33.0233

>  <SCORE.INTER.CONST>
1

>  <SCORE.INTER.POLAR>
-4.26664

>  <SCORE.INTER.ROT>
8

>  <SCORE.INTER.SOLV>
18.6836

>  <SCORE.INTER.VDW>
-22.9546

>  <SCORE.INTER.norm>
-1.03198

>  <SCORE.INTRA>
-20.1811

>  <SCORE.INTRA.DIHEDRAL>
-43.184

>  <SCORE.INTRA.DIHEDRAL.0>
76.3625

>  <SCORE.INTRA.POLAR>
0

>  <SCORE.INTRA.POLAR.0>
0

>  <SCORE.INTRA.REPUL>
0.00395689

>  <SCORE.INTRA.REPUL.0>
0.12705

>  <SCORE.INTRA.SOLV>
3.38885

>  <SCORE.INTRA.SOLV.lig_0>
-119.383

>  <SCORE.INTRA.VDW>
-0.303366

>  <SCORE.INTRA.VDW.0>
-5.10464

>  <SCORE.INTRA.norm>
-0.630661

>  <SCORE.RESTR>
0

>  <SCORE.RESTR.CAVITY>
0

>  <SCORE.RESTR.norm>
0

>  <SCORE.SYSTEM>
0

>  <SCORE.SYSTEM.CONST>
0

>  <SCORE.SYSTEM.DIHEDRAL>
0

>  <SCORE.SYSTEM.SOLV>
0

>  <SCORE.SYSTEM.norm>
0

>  <SCORE.heavy>
32

>  <SCORE.norm>
-1.66264

>  <RMSD>
20.454

$$$$
2au4_lig
 OpenBabel11021811423D
libRbt.so/2013.1/901 2013/11/27
 32 34  0  0  0  0  0  0  0  0999 V2000
   65.1569  -12.5080    0.9571 P   0  0  1  0  0  0  0  0  0  0  0  0
   65.1701  -10.1404    2.2851 P   0  0  1  0  0  0  0  0  0  0  0  0
   67.6277   -9.0016    2.6073 P   0  0  2  0  0  0  0  0  0  0  0  0
   63.0010  -12.3903   -0.5819 C   0  0  0  0  0  0  0  0  0  0  0  0
   64.0249  -13.1869    0.0368 O   0  0  0  0  0  0  0  0  0  0  0  0
   61.6121  -12.9849   -0.4009 C   0  0  0  0  0  0  0  0  0  0  0  0
   61.3876  -13.3390    0.9791 O   0  0  0  0  0  0  0  0  0  0  0  0
   60.5413  -11.9887   -0.8175 C   0  0  0  0  0  0  0  0  0  0  0  0
   59.7984  -12.4756   -1.9417 O   0  0  0  0  0  0  0  0  0  0  0  0
   59.6455  -11.7951    0.3826 C   0  0  0  0  0  0  0  0  0  0  0  0
   58.2880  -12.1429    0.0788 O   0  0  0  0  0  0  0  0  0  0  0  0
   60.1995  -12.6892    1.4785 C   0  0  0  0  0  0  0  0  0  0  0  0
   62.9740  -12.3780    5.7530 N   0  0  0  0  0  0  0  0  0  0  0  0
   65.0821  -13.0990    2.3084 O   0  5  0  0  0  0  0  0  0  0  0  0
   64.7839   -8.7346    2.0554 O   0  5  0  0  0  0  0  0  0  0  0  0
   67.4374   -7.9273    1.6118 O   0  5  0  0  0  0  0  0  0  0  0  0
   62.9739  -13.3510    4.7819 C   0  0  1  0  0  0  0  0  0  0  0  0
   63.8062  -14.3668    4.9675 N   0  0  0  0  0  0  0  0  0  0  0  0
   66.4357  -12.5152    0.2148 O   0  0  0  0  0  0  0  0  0  0  0  0
   64.7630  -10.8274    3.5284 O   0  0  0  0  0  0  0  0  0  0  0  0
   68.9876   -9.4912    2.9158 O   0  0  0  0  0  0  0  0  0  0  0  0
   62.1974  -13.3196    3.7017 N   0  0  0  0  0  0  0  0  0  0  0  0
   64.6613  -11.0030    1.0549 O   0  0  0  0  0  0  0  0  0  0  0  0
   66.7500  -10.2512    2.1549 O   0  0  0  0  0  0  0  0  0  0  0  0
   66.9236   -8.5534    3.9798 O   0  0  0  0  0  0  0  0  0  0  0  0
   61.4093  -12.2203    3.6723 C   0  0  2  0  0  0  0  0  0  0  0  0
   61.3466  -11.1963    4.6036 C   0  0  2  0  0  0  0  0  0  0  0  0
   62.1797  -11.2455    5.7481 C   0  0  1  0  0  0  0  0  0  0  0  0
   62.2413  -10.4515    6.6772 O   0  0  0  0  0  0  0  0  0  0  0  0
   60.4057  -10.2336    4.2227 N   0  0  0  0  0  0  0  0  0  0  0  0
   59.9694  -10.7276    3.1102 C   0  0  0  0  0  0  0  0  0  0  0  0
   60.4988  -11.9043    2.6919 N   0  0  0  0  0  0  0  0  0  0  0  0
  1  5  1  6  0  0  0
  1 14  1  0  0  0  0
  1 19  2  0  0  0  0
  2 15  1  6  0  0  0
  2 20  2  0  0  0  0
  2 23  1  0  0  0  0
  3 16  1  6  0  0  0
  3 21  2  0  0  0  0
  3 24  1  0  0  0  0
  3 25  1  0  0  0  0
  4  6  1  0  0  0  0
  5  4  1  0  0  0  0
  6  7  1  0  0  0  0
  6  8  2  0  0  0  0
  7 12  1  0  0  0  0
  8  9  1  0  0  0  0
  8 10  1  0  0  0  0
 10 11  1  0  0  0  0
 10 12  2  0  0  0  0
 12 32  1  0  0  0  0
 13 17  1  0  0  0  0
 17 18  1  1  0  0  0
 17 22  1  0  0  0  0
 23  1  1  0  0  0  0
 24  2  1  0  0  0  0
 26 22  1  1  0  0  0
 27 26  1  0  0  0  0
 27 28  1  0  0  0  0
 27 30  1  1  0  0  0
 28 13  1  0  0  0  0
 28 29  1  1  0  0  0
 31 30  1  0  0  0  0
 32 26  1  0  0  0  0
 32 31  1  0  0  0  0
M  CHG  3  14  -1  15  -1  16  -1
M  END
>  <CHROM.1>
120.75239631,170.45280207,-71.35219832,48.63130498,-133.18269476,-34.66450068
157.36367098,32.55314025,63.58787156,-11.37372373,2.28783048,-0.23665410
-0.35268828,-1.75227475

>  <Name>
2au4_lig

>  <RI>
0

>  <Rbt.Current_Directory>
/home/itssahil/PROJECTS/Mol_Feturizer/New_Systems/rnas/2au4

>  <Rbt.Executable>
rbdock ($Id: //depot/dev/client3/rdock/2013.1/src/exe/rbdock.cxx#4 $)

>  <Rbt.Library>
libRbt.so (2013.1, Build901 2013/11/27)

>  <Rbt.Parameter_File>
/export/apps/rDock/src/rDock_2013.1_src/data/scripts/dock_solv.prm

>  <Rbt.Receptor>
prm/blind_docking_100.prm

>  <SCORE>
-46.2489

>  <SCORE.INTER>
-28.2613

>  <SCORE.INTER.CONST>
1

>  <SCORE.INTER.POLAR>
-3.86507

>  <SCORE.INTER.ROT>
8

>  <SCORE.INTER.SOLV>
19.8566

>  <SCORE.INTER.VDW>
-21.5095

>  <SCORE.INTER.norm>
-0.883167

>  <SCORE.INTRA>
-18.8891

>  <SCORE.INTRA.DIHEDRAL>
-39.4062

>  <SCORE.INTRA.DIHEDRAL.0>
76.3625

>  <SCORE.INTRA.POLAR>
0

>  <SCORE.INTRA.POLAR.0>
0

>  <SCORE.INTRA.REPUL>
0.0454105

>  <SCORE.INTRA.REPUL.0>
0.12705

>  <SCORE.INTRA.SOLV>
0.667999

>  <SCORE.INTRA.SOLV.lig_0>
-119.383

>  <SCORE.INTRA.VDW>
0.252928

>  <SCORE.INTRA.VDW.0>
-5.10464

>  <SCORE.INTRA.norm>
-0.590285

>  <SCORE.RESTR>
0.90153

>  <SCORE.RESTR.CAVITY>
0.90153

>  <SCORE.RESTR.norm>
0.0281728

>  <SCORE.SYSTEM>
0

>  <SCORE.SYSTEM.CONST>
0

>  <SCORE.SYSTEM.DIHEDRAL>
0

>  <SCORE.SYSTEM.SOLV>
0

>  <SCORE.SYSTEM.norm>
0

>  <SCORE.heavy>
32

>  <SCORE.norm>
-1.44528

>  <RMSD>
20.456

$$$$
2au4_lig
 OpenBabel11021811423D
libRbt.so/2013.1/901 2013/11/27
 32 34  0  0  0  0  0  0  0  0999 V2000
   64.7039  -12.7750    0.9784 P   0  0  1  0  0  0  0  0  0  0  0  0
   67.1427  -11.6603    1.4015 P   0  0  1  0  0  0  0  0  0  0  0  0
   66.7962   -9.0457    2.0976 P   0  0  2  0  0  0  0  0  0  0  0  0
   62.8619  -12.4101   -0.8937 C   0  0  0  0  0  0  0  0  0  0  0  0
   63.9438  -13.2011   -0.3745 O   0  0  0  0  0  0  0  0  0  0  0  0
   61.4984  -12.9657   -0.5096 C   0  0  0  0  0  0  0  0  0  0  0  0
   61.4246  -13.1910    0.9131 O   0  0  0  0  0  0  0  0  0  0  0  0
   60.3932  -11.9954   -0.8963 C   0  0  0  0  0  0  0  0  0  0  0  0
   59.5294  -12.5704   -1.8842 O   0  0  0  0  0  0  0  0  0  0  0  0
   59.6350  -11.6816    0.3714 C   0  0  0  0  0  0  0  0  0  0  0  0
   58.2508  -12.0354    0.2495 O   0  0  0  0  0  0  0  0  0  0  0  0
   60.3013  -12.4816    1.4773 C   0  0  0  0  0  0  0  0  0  0  0  0
   63.3836  -11.9168    5.5081 N   0  0  0  0  0  0  0  0  0  0  0  0
   64.1538  -11.4850    1.4412 O   0  5  0  0  0  0  0  0  0  0  0  0
   66.7165  -11.8475    2.8020 O   0  5  0  0  0  0  0  0  0  0  0  0
   67.8886   -9.3489    3.0440 O   0  5  0  0  0  0  0  0  0  0  0  0
   63.2522  -12.9853    4.6533 C   0  0  1  0  0  0  0  0  0  0  0  0
   64.0279  -14.0329    4.8982 N   0  0  0  0  0  0  0  0  0  0  0  0
   64.7323  -13.9385    1.8904 O   0  0  0  0  0  0  0  0  0  0  0  0
   68.5393  -11.9396    1.0080 O   0  0  0  0  0  0  0  0  0  0  0  0
   65.4106   -8.8994    2.5901 O   0  0  0  0  0  0  0  0  0  0  0  0
   62.4055  -13.0136    3.6271 N   0  0  0  0  0  0  0  0  0  0  0  0
   66.1865  -12.5193    0.4719 O   0  0  0  0  0  0  0  0  0  0  0  0
   66.7971  -10.1705    0.9699 O   0  0  0  0  0  0  0  0  0  0  0  0
   67.1879   -7.7217    1.2764 O   0  0  0  0  0  0  0  0  0  0  0  0
   61.6902  -11.8697    3.5251 C   0  0  2  0  0  0  0  0  0  0  0  0
   61.7595  -10.7503    4.3387 C   0  0  2  0  0  0  0  0  0  0  0  0
   62.6659  -10.7370    5.4269 C   0  0  1  0  0  0  0  0  0  0  0  0
   62.8440   -9.8549    6.2562 O   0  0  0  0  0  0  0  0  0  0  0  0
   60.8585   -9.7684    3.9127 N   0  0  0  0  0  0  0  0  0  0  0  0
   60.3141  -10.3456    2.8917 C   0  0  0  0  0  0  0  0  0  0  0  0
   60.7354  -11.5953    2.5747 N   0  0  0  0  0  0  0  0  0  0  0  0
  1  5  1  6  0  0  0
  1 14  1  0  0  0  0
  1 19  2  0  0  0  0
  2 15  1  1  0  0  0
  2 20  2  0  0  0  0
  2 23  1  0  0  0  0
  3 16  1  1  0  0  0
  3 21  2  0  0  0  0
  3 24  1  0  0  0  0
  3 25  1  0  0  0  0
  4  6  1  0  0  0  0
  5  4  1  0  0  0  0
  6  7  1  0  0  0  0
  6  8  2  0  0  0  0
  7 12  1  0  0  0  0
  8  9  1  0  0  0  0
  8 10  1  0  0  0  0
 10 11  1  0  0  0  0
 10 12  2  0  0  0  0
 12 32  1  0  0  0  0
 13 17  1  0  0  0  0
 17 18  1  1  0  0  0
 17 22  1  0  0  0  0
 23  1  1  0  0  0  0
 24  2  1  0  0  0  0
 26 22  1  1  0  0  0
 27 26  1  0  0  0  0
 27 28  1  0  0  0  0
 27 30  1  1  0  0  0
 28 13  1  0  0  0  0
 28 29  1  1  0  0  0
 31 30  1  0  0  0  0
 32 26  1  0  0  0  0
 32 31  1  0  0  0  0
M  CHG  3  14  -1  15  -1  16  -1
M  END
>  <CHROM.1>
-3.65543553,28.72218860,36.81191243,51.50448926,-98.07223989,-38.96691175
161.54857092,29.43161721,63.77266862,-11.51972376,1.98695852,-0.19100820
-0.19889711,-1.90715741

>  <Name>
2au4_lig

>  <RI>
0

>  <Rbt.Current_Directory>
/home/itssahil/PROJECTS/Mol_Feturizer/New_Systems/rnas/2au4

>  <Rbt.Executable>
rbdock ($Id: //depot/dev/client3/rdock/2013.1/src/exe/rbdock.cxx#4 $)

>  <Rbt.Library>
libRbt.so (2013.1, Build901 2013/11/27)

>  <Rbt.Parameter_File>
/export/apps/rDock/src/rDock_2013.1_src/data/scripts/dock_solv.prm

>  <Rbt.Receptor>
prm/blind_docking_100.prm

>  <SCORE>
-46.7523

>  <SCORE.INTER>
-30.427

>  <SCORE.INTER.CONST>
1

>  <SCORE.INTER.POLAR>
-3.18986

>  <SCORE.INTER.ROT>
8

>  <SCORE.INTER.SOLV>
15.0333

>  <SCORE.INTER.VDW>
-23.5962

>  <SCORE.INTER.norm>
-0.950843

>  <SCORE.INTRA>
-16.3253

>  <SCORE.INTRA.DIHEDRAL>
-38.2361

>  <SCORE.INTRA.DIHEDRAL.0>
76.3625

>  <SCORE.INTRA.POLAR>
0

>  <SCORE.INTRA.POLAR.0>
0

>  <SCORE.INTRA.REPUL>
0.0217455

>  <SCORE.INTRA.REPUL.0>
0.12705

>  <SCORE.INTRA.SOLV>
6.81182

>  <SCORE.INTRA.SOLV.lig_0>
-119.383

>  <SCORE.INTRA.VDW>
-0.721887

>  <SCORE.INTRA.VDW.0>
-5.10464

>  <SCORE.INTRA.norm>
-0.510166

>  <SCORE.RESTR>
0

>  <SCORE.RESTR.CAVITY>
0

>  <SCORE.RESTR.norm>
0

>  <SCORE.SYSTEM>
0

>  <SCORE.SYSTEM.CONST>
0

>  <SCORE.SYSTEM.DIHEDRAL>
0

>  <SCORE.SYSTEM.SOLV>
0

>  <SCORE.SYSTEM.norm>
0

>  <SCORE.heavy>
32

>  <SCORE.norm>
-1.46101

>  <RMSD>
20.462

$$$$
2au4_lig
 OpenBabel11021811423D
libRbt.so/2013.1/901 2013/11/27
 32 34  0  0  0  0  0  0  0  0999 V2000
   65.0951  -13.8030    1.5768 P   0  0  1  0  0  0  0  0  0  0  0  0
   67.4250  -12.5320    1.0061 P   0  0  1  0  0  0  0  0  0  0  0  0
   67.4185   -9.8255    1.3467 P   0  0  2  0  0  0  0  0  0  0  0  0
   62.5368  -14.4668    1.3654 C   0  0  0  0  0  0  0  0  0  0  0  0
   63.6872  -13.8187    0.7978 O   0  0  0  0  0  0  0  0  0  0  0  0
   61.3478  -13.5271    1.5021 C   0  0  0  0  0  0  0  0  0  0  0  0
   61.3916  -12.8340    2.7662 O   0  0  0  0  0  0  0  0  0  0  0  0
   61.3504  -12.4901    0.3898 C   0  0  0  0  0  0  0  0  0  0  0  0
   60.1981  -12.6362   -0.4492 O   0  0  0  0  0  0  0  0  0  0  0  0
   61.3636  -11.1387    1.0634 C   0  0  0  0  0  0  0  0  0  0  0  0
   60.2243  -10.3566    0.6808 O   0  0  0  0  0  0  0  0  0  0  0  0
   61.3574  -11.4061    2.5586 C   0  0  0  0  0  0  0  0  0  0  0  0
   65.1645  -11.8881    5.9261 N   0  0  0  0  0  0  0  0  0  0  0  0
   65.0049  -12.8404    2.6931 O   0  5  0  0  0  0  0  0  0  0  0  0
   67.3397  -12.3959    2.4732 O   0  5  0  0  0  0  0  0  0  0  0  0
   67.2862   -8.6020    0.5302 O   0  5  0  0  0  0  0  0  0  0  0  0
   64.2080  -12.8026    5.5539 C   0  0  1  0  0  0  0  0  0  0  0  0
   64.2638  -13.9867    6.1488 N   0  0  0  0  0  0  0  0  0  0  0  0
   65.5081  -15.1993    1.8338 O   0  0  0  0  0  0  0  0  0  0  0  0
   68.5603  -13.2523    0.3931 O   0  0  0  0  0  0  0  0  0  0  0  0
   68.5875   -9.9996    2.2338 O   0  0  0  0  0  0  0  0  0  0  0  0
   63.2582  -12.5570    4.6549 N   0  0  0  0  0  0  0  0  0  0  0  0
   66.0810  -13.1978    0.4896 O   0  0  0  0  0  0  0  0  0  0  0  0
   67.3591  -11.0790    0.3659 O   0  0  0  0  0  0  0  0  0  0  0  0
   66.0832   -9.9988    2.2228 O   0  0  0  0  0  0  0  0  0  0  0  0
   63.3440  -11.3038    4.1521 C   0  0  2  0  0  0  0  0  0  0  0  0
   64.2710  -10.3241    4.4694 C   0  0  2  0  0  0  0  0  0  0  0  0
   65.2752  -10.6019    5.4289 C   0  0  1  0  0  0  0  0  0  0  0  0
   66.1525   -9.8583    5.8471 O   0  0  0  0  0  0  0  0  0  0  0  0
   64.0309   -9.1558    3.7383 N   0  0  0  0  0  0  0  0  0  0  0  0
   62.9963   -9.4972    3.0419 C   0  0  0  0  0  0  0  0  0  0  0  0
   62.5076  -10.7511    3.2114 N   0  0  0  0  0  0  0  0  0  0  0  0
  1  5  1  6  0  0  0
  1 14  1  0  0  0  0
  1 19  2  0  0  0  0
  2 15  1  1  0  0  0
  2 20  2  0  0  0  0
  2 23  1  0  0  0  0
  3 16  1  6  0  0  0
  3 21  2  0  0  0  0
  3 24  1  0  0  0  0
  3 25  1  0  0  0  0
  4  6  1  0  0  0  0
  5  4  1  0  0  0  0
  6  7  1  0  0  0  0
  6  8  2  0  0  0  0
  7 12  1  0  0  0  0
  8  9  1  0  0  0  0
  8 10  1  0  0  0  0
 10 11  1  0  0  0  0
 10 12  2  0  0  0  0
 12 32  1  0  0  0  0
 13 17  1  0  0  0  0
 17 18  1  1  0  0  0
 17 22  1  0  0  0  0
 23  1  1  0  0  0  0
 24  2  1  0  0  0  0
 26 22  1  1  0  0  0
 27 26  1  0  0  0  0
 27 28  1  0  0  0  0
 27 30  1  1  0  0  0
 28 13  1  0  0  0  0
 28 29  1  1  0  0  0
 31 30  1  0  0  0  0
 32 26  1  0  0  0  0
 32 31  1  0  0  0  0
M  CHG  3  14  -1  15  -1  16  -1
M  END
>  <CHROM.1>
-74.50488177,-10.80972245,-177.73262634,-88.05175727,123.50869025,-14.61561331
158.13605068,7.97171537,64.71256202,-11.84161679,2.33478332,-0.06956444,-0.19494279
-2.07726979

>  <Name>
2au4_lig

>  <RI>
0

>  <Rbt.Current_Directory>
/home/itssahil/PROJECTS/Mol_Feturizer/New_Systems/rnas/2au4

>  <Rbt.Executable>
rbdock ($Id: //depot/dev/client3/rdock/2013.1/src/exe/rbdock.cxx#4 $)

>  <Rbt.Library>
libRbt.so (2013.1, Build901 2013/11/27)

>  <Rbt.Parameter_File>
/export/apps/rDock/src/rDock_2013.1_src/data/scripts/dock_solv.prm

>  <Rbt.Receptor>
prm/blind_docking_80.prm

>  <SCORE>
-30.9785

>  <SCORE.INTER>
-17.5894

>  <SCORE.INTER.CONST>
1

>  <SCORE.INTER.POLAR>
-3.14615

>  <SCORE.INTER.ROT>
8

>  <SCORE.INTER.SOLV>
27.0212

>  <SCORE.INTER.VDW>
-19.1795

>  <SCORE.INTER.norm>
-0.549669

>  <SCORE.INTRA>
-14.4952

>  <SCORE.INTRA.DIHEDRAL>
-35.2571

>  <SCORE.INTRA.DIHEDRAL.0>
76.3625

>  <SCORE.INTRA.POLAR>
0

>  <SCORE.INTRA.POLAR.0>
0

>  <SCORE.INTRA.REPUL>
0.0354864

>  <SCORE.INTRA.REPUL.0>
0.12705

>  <SCORE.INTRA.SOLV>
3.86157

>  <SCORE.INTRA.SOLV.lig_0>
-119.383

>  <SCORE.INTRA.VDW>
1.02518

>  <SCORE.INTRA.VDW.0>
-5.10464

>  <SCORE.INTRA.norm>
-0.452974

>  <SCORE.RESTR>
1.1061

>  <SCORE.RESTR.CAVITY>
1.1061

>  <SCORE.RESTR.norm>
0.0345657

>  <SCORE.SYSTEM>
0

>  <SCORE.SYSTEM.CONST>
0

>  <SCORE.SYSTEM.DIHEDRAL>
0

>  <SCORE.SYSTEM.SOLV>
0

>  <SCORE.SYSTEM.norm>
0

>  <SCORE.heavy>
32

>  <SCORE.norm>
-0.968078

>  <RMSD>
20.477

$$$$
2au4_lig
 OpenBabel11021811423D
libRbt.so/2013.1/901 2013/11/27
 32 34  0  0  0  0  0  0  0  0999 V2000
   66.2293   -8.9491    2.1817 P   0  0  1  0  0  0  0  0  0  0  0  0
   67.0932  -11.3513    1.2584 P   0  0  1  0  0  0  0  0  0  0  0  0
   69.6912  -11.2913    0.4293 P   0  0  2  0  0  0  0  0  0  0  0  0
   63.5868   -9.1422    2.0798 C   0  0  0  0  0  0  0  0  0  0  0  0
   64.7481   -8.3745    2.4372 O   0  0  0  0  0  0  0  0  0  0  0  0
   63.3063  -10.2664    3.0662 C   0  0  0  0  0  0  0  0  0  0  0  0
   62.0029  -10.8365    2.8286 O   0  0  0  0  0  0  0  0  0  0  0  0
   64.3418  -11.3719    2.9315 C   0  0  0  0  0  0  0  0  0  0  0  0
   65.1101  -11.5032    4.1337 O   0  0  0  0  0  0  0  0  0  0  0  0
   63.5785  -12.6404    2.6337 C   0  0  0  0  0  0  0  0  0  0  0  0
   63.8292  -13.6427    3.6281 O   0  0  0  0  0  0  0  0  0  0  0  0
   62.1084  -12.2593    2.6100 C   0  0  0  0  0  0  0  0  0  0  0  0
   57.8512  -12.2850   -0.2082 N   0  0  0  0  0  0  0  0  0  0  0  0
   66.9619   -7.9972    1.3227 O   0  5  0  0  0  0  0  0  0  0  0  0
   67.5038  -11.6801    2.6373 O   0  5  0  0  0  0  0  0  0  0  0  0
   69.4402  -12.7210    0.1572 O   0  5  0  0  0  0  0  0  0  0  0  0
   58.0552  -11.7945    1.0597 C   0  0  1  0  0  0  0  0  0  0  0  0
   57.0032  -11.2486    1.6550 N   0  0  0  0  0  0  0  0  0  0  0  0
   66.8025   -9.3700    3.4780 O   0  0  0  0  0  0  0  0  0  0  0  0
   66.6520  -12.4223    0.3410 O   0  0  0  0  0  0  0  0  0  0  0  0
   70.5159  -10.8931    1.5892 O   0  0  0  0  0  0  0  0  0  0  0  0
   59.2233  -11.8458    1.6950 N   0  0  0  0  0  0  0  0  0  0  0  0
   65.9463  -10.2577    1.3286 O   0  0  0  0  0  0  0  0  0  0  0  0
   68.2816  -10.5613    0.5592 O   0  0  0  0  0  0  0  0  0  0  0  0
   70.3143  -10.6240   -0.8925 O   0  0  0  0  0  0  0  0  0  0  0  0
   60.1841  -12.4370    0.9480 C   0  0  2  0  0  0  0  0  0  0  0  0
   60.0651  -12.9557   -0.3313 C   0  0  2  0  0  0  0  0  0  0  0  0
   58.8143  -12.8933   -0.9931 C   0  0  1  0  0  0  0  0  0  0  0  0
   58.5203  -13.3174   -2.1027 O   0  0  0  0  0  0  0  0  0  0  0  0
   61.2831  -13.4870   -0.7686 N   0  0  0  0  0  0  0  0  0  0  0  0
   62.0430  -13.2607    0.2528 C   0  0  0  0  0  0  0  0  0  0  0  0
   61.4899  -12.6423    1.3258 N   0  0  0  0  0  0  0  0  0  0  0  0
  1  5  1  1  0  0  0
  1 14  1  0  0  0  0
  1 19  2  0  0  0  0
  2 15  1  1  0  0  0
  2 20  2  0  0  0  0
  2 23  1  0  0  0  0
  3 16  1  6  0  0  0
  3 21  2  0  0  0  0
  3 24  1  0  0  0  0
  3 25  1  0  0  0  0
  4  6  1  0  0  0  0
  5  4  1  0  0  0  0
  6  7  1  0  0  0  0
  6  8  2  0  0  0  0
  7 12  1  0  0  0  0
  8  9  1  0  0  0  0
  8 10  1  0  0  0  0
 10 11  1  0  0  0  0
 10 12  2  0  0  0  0
 12 32  1  0  0  0  0
 13 17  1  0  0  0  0
 17 18  1  1  0  0  0
 17 22  1  0  0  0  0
 23  1  1  0  0  0  0
 24  2  1  0  0  0  0
 26 22  1  1  0  0  0
 27 26  1  0  0  0  0
 27 28  1  0  0  0  0
 27 30  1  1  0  0  0
 28 13  1  0  0  0  0
 28 29  1  1  0  0  0
 31 30  1  0  0  0  0
 32 26  1  0  0  0  0
 32 31  1  0  0  0  0
M  CHG  3  14  -1  15  -1  16  -1
M  END
>  <CHROM.1>
122.48300036,52.42837475,36.82952092,168.55495868,76.31891289,-58.72672711
-161.12155554,59.95500471,64.38025835,-11.32235865,1.34224221,0.16832366
0.09121308,0.85378555

>  <Name>
2au4_lig

>  <RI>
0

>  <Rbt.Current_Directory>
/home/itssahil/PROJECTS/Mol_Feturizer/New_Systems/rnas/2au4

>  <Rbt.Executable>
rbdock ($Id: //depot/dev/client3/rdock/2013.1/src/exe/rbdock.cxx#4 $)

>  <Rbt.Library>
libRbt.so (2013.1, Build901 2013/11/27)

>  <Rbt.Parameter_File>
/export/apps/rDock/src/rDock_2013.1_src/data/scripts/dock_solv.prm

>  <Rbt.Receptor>
prm/blind_docking_80.prm

>  <SCORE>
-37.9567

>  <SCORE.INTER>
-23.0355

>  <SCORE.INTER.CONST>
1

>  <SCORE.INTER.POLAR>
-3.04258

>  <SCORE.INTER.ROT>
8

>  <SCORE.INTER.SOLV>
26.5779

>  <SCORE.INTER.VDW>
-23.0077

>  <SCORE.INTER.norm>
-0.719859

>  <SCORE.INTRA>
-16.1454

>  <SCORE.INTRA.DIHEDRAL>
-34.3798

>  <SCORE.INTRA.DIHEDRAL.0>
76.3625

>  <SCORE.INTRA.POLAR>
0

>  <SCORE.INTRA.POLAR.0>
0

>  <SCORE.INTRA.REPUL>
-0.0962462

>  <SCORE.INTRA.REPUL.0>
0.12705

>  <SCORE.INTRA.SOLV>
0.0182126

>  <SCORE.INTRA.SOLV.lig_0>
-119.383

>  <SCORE.INTRA.VDW>
1.51661

>  <SCORE.INTRA.VDW.0>
-5.10464

>  <SCORE.INTRA.norm>
-0.504544

>  <SCORE.RESTR>
1.22415

>  <SCORE.RESTR.CAVITY>
1.22415

>  <SCORE.RESTR.norm>
0.0382546

>  <SCORE.SYSTEM>
0

>  <SCORE.SYSTEM.CONST>
0

>  <SCORE.SYSTEM.DIHEDRAL>
0

>  <SCORE.SYSTEM.SOLV>
0

>  <SCORE.SYSTEM.norm>
0

>  <SCORE.heavy>
32

>  <SCORE.norm>
-1.18615

>  <RMSD>
20.524

$$$$
2au4_lig
 OpenBabel11021811423D
libRbt.so/2013.1/901 2013/11/27
 32 34  0  0  0  0  0  0  0  0999 V2000
   66.6337  -10.6768    4.3577 P   0  0  1  0  0  0  0  0  0  0  0  0
   67.0870   -9.0965    2.1974 P   0  0  1  0  0  0  0  0  0  0  0  0
   68.4771  -10.5792    0.3781 P   0  0  2  0  0  0  0  0  0  0  0  0
   64.0478  -10.6687    4.9437 C   0  0  0  0  0  0  0  0  0  0  0  0
   65.0790  -10.6768    3.9426 O   0  0  0  0  0  0  0  0  0  0  0  0
   63.5051  -12.0609    5.2313 C   0  0  0  0  0  0  0  0  0  0  0  0
   62.4232  -12.3796    4.3322 O   0  0  0  0  0  0  0  0  0  0  0  0
   64.5930  -13.1092    5.0581 C   0  0  0  0  0  0  0  0  0  0  0  0
   64.8744  -13.7653    6.3004 O   0  0  0  0  0  0  0  0  0  0  0  0
   64.0834  -14.0902    4.0294 C   0  0  0  0  0  0  0  0  0  0  0  0
   64.0221  -15.4191    4.5647 O   0  0  0  0  0  0  0  0  0  0  0  0
   62.7014  -13.6068    3.6252 C   0  0  0  0  0  0  0  0  0  0  0  0
   60.1243  -11.4744   -0.2320 N   0  0  0  0  0  0  0  0  0  0  0  0
   66.8971   -9.4905    5.1968 O   0  5  0  0  0  0  0  0  0  0  0  0
   65.7280   -9.1523    1.6247 O   0  5  0  0  0  0  0  0  0  0  0  0
   69.0187  -11.4313    1.4560 O   0  5  0  0  0  0  0  0  0  0  0  0
   59.8610  -11.4415    1.1168 C   0  0  1  0  0  0  0  0  0  0  0  0
   58.7822  -10.7657    1.4888 N   0  0  0  0  0  0  0  0  0  0  0  0
   66.9915  -12.0253    4.8475 O   0  0  0  0  0  0  0  0  0  0  0  0
   67.4704   -7.9826    3.0895 O   0  0  0  0  0  0  0  0  0  0  0  0
   69.2632  -10.3557   -0.8532 O   0  0  0  0  0  0  0  0  0  0  0  0
   60.6155  -12.0419    2.0339 N   0  0  0  0  0  0  0  0  0  0  0  0
   67.3602  -10.4587    2.9631 O   0  0  0  0  0  0  0  0  0  0  0  0
   68.1341   -9.1552    1.0035 O   0  0  0  0  0  0  0  0  0  0  0  0
   67.0302  -11.1413   -0.0357 O   0  0  0  0  0  0  0  0  0  0  0  0
   61.6693  -12.6878    1.4835 C   0  0  2  0  0  0  0  0  0  0  0  0
   62.0071  -12.7709    0.1423 C   0  0  2  0  0  0  0  0  0  0  0  0
   61.1929  -12.1263   -0.8209 C   0  0  1  0  0  0  0  0  0  0  0  0
   61.3220  -12.1128   -2.0377 O   0  0  0  0  0  0  0  0  0  0  0  0
   63.1687  -13.5307   -0.0325 N   0  0  0  0  0  0  0  0  0  0  0  0
   63.4514  -13.8515    1.1878 C   0  0  0  0  0  0  0  0  0  0  0  0
   62.6253  -13.4026    2.1655 N   0  0  0  0  0  0  0  0  0  0  0  0
  1  5  1  6  0  0  0
  1 14  1  0  0  0  0
  1 19  2  0  0  0  0
  2 15  1  6  0  0  0
  2 20  2  0  0  0  0
  2 23  1  0  0  0  0
  3 16  1  1  0  0  0
  3 21  2  0  0  0  0
  3 24  1  0  0  0  0
  3 25  1  0  0  0  0
  4  6  1  0  0  0  0
  5  4  1  0  0  0  0
  6  7  1  0  0  0  0
  6  8  2  0  0  0  0
  7 12  1  0  0  0  0
  8  9  1  0  0  0  0
  8 10  1  0  0  0  0
 10 11  1  0  0  0  0
 10 12  2  0  0  0  0
 12 32  1  0  0  0  0
 13 17  1  0  0  0  0
 17 18  1  6  0  0  0
 17 22  1  0  0  0  0
 23  1  1  0  0  0  0
 24  2  1  0  0  0  0
 26 22  1  6  0  0  0
 27 26  1  0  0  0  0
 27 28  1  0  0  0  0
 27 30  1  6  0  0  0
 28 13  1  0  0  0  0
 28 29  1  6  0  0  0
 31 30  1  0  0  0  0
 32 26  1  0  0  0  0
 32 31  1  0  0  0  0
M  CHG  3  14  -1  15  -1  16  -1
M  END
>  <CHROM.1>
-57.57505014,-74.07892374,-59.17823481,-87.89652455,-97.20163134,-43.07925835
63.16090421,-80.70733720,64.80921182,-11.46025797,2.32869388,0.00955727,0.37723348
1.84494821

>  <Name>
2au4_lig

>  <RI>
0

>  <Rbt.Current_Directory>
/home/itssahil/PROJECTS/Mol_Feturizer/New_Systems/rnas/2au4

>  <Rbt.Executable>
rbdock ($Id: //depot/dev/client3/rdock/2013.1/src/exe/rbdock.cxx#4 $)

>  <Rbt.Library>
libRbt.so (2013.1, Build901 2013/11/27)

>  <Rbt.Parameter_File>
/export/apps/rDock/src/rDock_2013.1_src/data/scripts/dock_solv.prm

>  <Rbt.Receptor>
prm/blind_docking_80.prm

>  <SCORE>
-44.3197

>  <SCORE.INTER>
-24.3054

>  <SCORE.INTER.CONST>
1

>  <SCORE.INTER.POLAR>
-3.37228

>  <SCORE.INTER.ROT>
8

>  <SCORE.INTER.SOLV>
25.4459

>  <SCORE.INTER.VDW>
-22.3779

>  <SCORE.INTER.norm>
-0.759542

>  <SCORE.INTRA>
-20.7336

>  <SCORE.INTRA.DIHEDRAL>
-42.3543

>  <SCORE.INTRA.DIHEDRAL.0>
76.3625

>  <SCORE.INTRA.POLAR>
0

>  <SCORE.INTRA.POLAR.0>
0

>  <SCORE.INTRA.REPUL>
-0.00421591

>  <SCORE.INTRA.REPUL.0>
0.12705

>  <SCORE.INTRA.SOLV>
-3.03518

>  <SCORE.INTRA.SOLV.lig_0>
-119.383

>  <SCORE.INTRA.VDW>
1.98224

>  <SCORE.INTRA.VDW.0>
-5.10464

>  <SCORE.INTRA.norm>
-0.647924

>  <SCORE.RESTR>
0.719244

>  <SCORE.RESTR.CAVITY>
0.719244

>  <SCORE.RESTR.norm>
0.0224764

>  <SCORE.SYSTEM>
0

>  <SCORE.SYSTEM.CONST>
0

>  <SCORE.SYSTEM.DIHEDRAL>
0

>  <SCORE.SYSTEM.SOLV>
0

>  <SCORE.SYSTEM.norm>
0

>  <SCORE.heavy>
32

>  <SCORE.norm>
-1.38499

>  <RMSD>
20.539

$$$$
2au4_lig
 OpenBabel11021811423D
libRbt.so/2013.1/901 2013/11/27
 32 34  0  0  0  0  0  0  0  0999 V2000
   64.3550  -12.3333   -0.1447 P   0  0  1  0  0  0  0  0  0  0  0  0
   66.5826  -11.8339    1.3242 P   0  0  1  0  0  0  0  0  0  0  0  0
   66.5428   -9.2570    2.2180 P   0  0  2  0  0  0  0  0  0  0  0  0
   61.7445  -12.5952   -0.5285 C   0  0  0  0  0  0  0  0  0  0  0  0
   62.8218  -12.1098    0.2897 O   0  0  0  0  0  0  0  0  0  0  0  0
   60.4910  -12.8980    0.2794 C   0  0  0  0  0  0  0  0  0  0  0  0
   60.8270  -13.1653    1.6563 O   0  0  0  0  0  0  0  0  0  0  0  0
   59.5297  -11.7202    0.2434 C   0  0  0  0  0  0  0  0  0  0  0  0
   58.3048  -12.0787   -0.4077 O   0  0  0  0  0  0  0  0  0  0  0  0
   59.2850  -11.3224    1.6794 C   0  0  0  0  0  0  0  0  0  0  0  0
   57.8920  -11.4018    2.0101 O   0  0  0  0  0  0  0  0  0  0  0  0
   60.0979  -12.2804    2.5330 C   0  0  0  0  0  0  0  0  0  0  0  0
   64.4260  -12.4333    5.2368 N   0  0  0  0  0  0  0  0  0  0  0  0
   64.7342  -13.7262    0.1663 O   0  5  0  0  0  0  0  0  0  0  0  0
   66.4710  -13.1703    1.9404 O   0  5  0  0  0  0  0  0  0  0  0  0
   65.1092   -9.0857    2.5288 O   0  5  0  0  0  0  0  0  0  0  0  0
   63.8404  -13.4136    4.4716 C   0  0  1  0  0  0  0  0  0  0  0  0
   64.4755  -14.5768    4.4196 N   0  0  0  0  0  0  0  0  0  0  0  0
   64.5403  -11.8025   -1.5122 O   0  0  0  0  0  0  0  0  0  0  0  0
   67.5203  -11.6098    0.2044 O   0  0  0  0  0  0  0  0  0  0  0  0
   67.0620   -8.8741    0.8884 O   0  0  0  0  0  0  0  0  0  0  0  0
   62.6995  -13.2515    3.8061 N   0  0  0  0  0  0  0  0  0  0  0  0
   65.1365  -11.3801    0.8557 O   0  0  0  0  0  0  0  0  0  0  0  0
   66.9205  -10.7839    2.4682 O   0  0  0  0  0  0  0  0  0  0  0  0
   67.4012   -8.4922    3.3401 O   0  0  0  0  0  0  0  0  0  0  0  0
   62.1847  -12.0114    3.9717 C   0  0  2  0  0  0  0  0  0  0  0  0
   62.7069  -10.9690    4.7205 C   0  0  2  0  0  0  0  0  0  0  0  0
   63.9220  -11.1586    5.4232 C   0  0  1  0  0  0  0  0  0  0  0  0
   64.5125  -10.3674    6.1463 O   0  0  0  0  0  0  0  0  0  0  0  0
   61.8831   -9.8408    4.6460 N   0  0  0  0  0  0  0  0  0  0  0  0
   60.9363  -10.2651    3.8744 C   0  0  0  0  0  0  0  0  0  0  0  0
   61.0181  -11.5397    3.4179 N   0  0  0  0  0  0  0  0  0  0  0  0
  1  5  1  1  0  0  0
  1 14  1  0  0  0  0
  1 19  2  0  0  0  0
  2 15  1  1  0  0  0
  2 20  2  0  0  0  0
  2 23  1  0  0  0  0
  3 16  1  1  0  0  0
  3 21  2  0  0  0  0
  3 24  1  0  0  0  0
  3 25  1  0  0  0  0
  4  6  1  0  0  0  0
  5  4  1  0  0  0  0
  6  7  1  0  0  0  0
  6  8  2  0  0  0  0
  7 12  1  0  0  0  0
  8  9  1  0  0  0  0
  8 10  1  0  0  0  0
 10 11  1  0  0  0  0
 10 12  2  0  0  0  0
 12 32  1  0  0  0  0
 13 17  1  0  0  0  0
 17 18  1  1  0  0  0
 17 22  1  0  0  0  0
 23  1  1  0  0  0  0
 24  2  1  0  0  0  0
 26 22  1  1  0  0  0
 27 26  1  0  0  0  0
 27 28  1  0  0  0  0
 27 30  1  1  0  0  0
 28 13  1  0  0  0  0
 28 29  1  1  0  0  0
 31 30  1  0  0  0  0
 32 26  1  0  0  0  0
 32 31  1  0  0  0  0
M  CHG  3  14  -1  15  -1  16  -1
M  END
>  <CHROM.1>
-77.93591146,-56.62858628,81.56556311,-24.02100820,152.64242084,-35.69065812
147.35413560,-156.45081432,63.66471040,-11.54346282,2.09992508,-0.10237190
-0.19335899,-1.80609785

>  <Name>
2au4_lig

>  <RI>
0

>  <Rbt.Current_Directory>
/home/itssahil/PROJECTS/Mol_Feturizer/New_Systems/rnas/2au4

>  <Rbt.Executable>
rbdock ($Id: //depot/dev/client3/rdock/2013.1/src/exe/rbdock.cxx#4 $)

>  <Rbt.Library>
libRbt.so (2013.1, Build901 2013/11/27)

>  <Rbt.Parameter_File>
/export/apps/rDock/src/rDock_2013.1_src/data/scripts/dock_solv.prm

>  <Rbt.Receptor>
prm/blind_docking_100.prm

>  <SCORE>
-46.9335

>  <SCORE.INTER>
-24.1947

>  <SCORE.INTER.CONST>
1

>  <SCORE.INTER.POLAR>
-4.15658

>  <SCORE.INTER.ROT>
8

>  <SCORE.INTER.SOLV>
30.5776

>  <SCORE.INTER.VDW>
-21.4004

>  <SCORE.INTER.norm>
-0.756083

>  <SCORE.INTRA>
-22.7486

>  <SCORE.INTRA.DIHEDRAL>
-45.041

>  <SCORE.INTRA.DIHEDRAL.0>
76.3625

>  <SCORE.INTRA.POLAR>
0

>  <SCORE.INTRA.POLAR.0>
0

>  <SCORE.INTRA.REPUL>
0.0402334

>  <SCORE.INTRA.REPUL.0>
0.12705

>  <SCORE.INTRA.SOLV>
-0.162197

>  <SCORE.INTRA.SOLV.lig_0>
-119.383

>  <SCORE.INTRA.VDW>
-0.348115

>  <SCORE.INTRA.VDW.0>
-5.10464

>  <SCORE.INTRA.norm>
-0.710893

>  <SCORE.RESTR>
0.00973601

>  <SCORE.RESTR.CAVITY>
0.00973601

>  <SCORE.RESTR.norm>
0.00030425

>  <SCORE.SYSTEM>
0

>  <SCORE.SYSTEM.CONST>
0

>  <SCORE.SYSTEM.DIHEDRAL>
0

>  <SCORE.SYSTEM.SOLV>
0

>  <SCORE.SYSTEM.norm>
0

>  <SCORE.heavy>
32

>  <SCORE.norm>
-1.46667

>  <RMSD>
20.552

$$$$
2au4_lig
 OpenBabel11021811423D
libRbt.so/2013.1/901 2013/11/27
 32 34  0  0  0  0  0  0  0  0999 V2000
   64.1568  -13.4979    1.6853 P   0  0  1  0  0  0  0  0  0  0  0  0
   64.7802  -10.9218    2.2726 P   0  0  1  0  0  0  0  0  0  0  0  0
   67.3925  -10.3625    1.7217 P   0  0  2  0  0  0  0  0  0  0  0  0
   61.5354  -13.4342    1.2921 C   0  0  0  0  0  0  0  0  0  0  0  0
   62.7040  -12.8317    1.8726 O   0  0  0  0  0  0  0  0  0  0  0  0
   60.2655  -12.6533    1.5972 C   0  0  0  0  0  0  0  0  0  0  0  0
   59.8460  -12.8787    2.9586 O   0  0  0  0  0  0  0  0  0  0  0  0
   60.4927  -11.1614    1.4094 C   0  0  0  0  0  0  0  0  0  0  0  0
   59.6739  -10.6480    0.3516 O   0  0  0  0  0  0  0  0  0  0  0  0
   60.1517  -10.5065    2.7266 C   0  0  0  0  0  0  0  0  0  0  0  0
   59.1042   -9.5398    2.5701 O   0  0  0  0  0  0  0  0  0  0  0  0
   59.7199  -11.6238    3.6606 C   0  0  0  0  0  0  0  0  0  0  0  0
   62.3730   -8.8052    6.9897 N   0  0  0  0  0  0  0  0  0  0  0  0
   64.5630  -14.1097    2.9664 O   0  5  0  0  0  0  0  0  0  0  0  0
   63.4444  -10.4254    1.8890 O   0  5  0  0  0  0  0  0  0  0  0  0
   67.6148  -11.2064    2.9131 O   0  5  0  0  0  0  0  0  0  0  0  0
   61.6877   -8.4118    5.8649 C   0  0  1  0  0  0  0  0  0  0  0  0
   61.7115   -7.1155    5.5854 N   0  0  0  0  0  0  0  0  0  0  0  0
   64.1493  -14.3063    0.4473 O   0  0  0  0  0  0  0  0  0  0  0  0
   65.0879  -11.2018    3.6905 O   0  0  0  0  0  0  0  0  0  0  0  0
   68.2276   -9.1638    1.4985 O   0  0  0  0  0  0  0  0  0  0  0  0
   61.0267   -9.2489    5.0693 N   0  0  0  0  0  0  0  0  0  0  0  0
   65.0831  -12.2334    1.4333 O   0  0  0  0  0  0  0  0  0  0  0  0
   65.8679   -9.9016    1.7239 O   0  0  0  0  0  0  0  0  0  0  0  0
   67.4782  -11.2940    0.4157 O   0  0  0  0  0  0  0  0  0  0  0  0
   61.1091  -10.5300    5.4965 C   0  0  2  0  0  0  0  0  0  0  0  0
   61.7744  -11.0110    6.6127 C   0  0  2  0  0  0  0  0  0  0  0  0
   62.4735  -10.1063    7.4487 C   0  0  1  0  0  0  0  0  0  0  0  0
   63.1304  -10.3517    8.4516 O   0  0  0  0  0  0  0  0  0  0  0  0
   61.6294  -12.3983    6.7195 N   0  0  0  0  0  0  0  0  0  0  0  0
   60.9022  -12.6607    5.6831 C   0  0  0  0  0  0  0  0  0  0  0  0
   60.5376  -11.6231    4.8893 N   0  0  0  0  0  0  0  0  0  0  0  0
  1  5  1  1  0  0  0
  1 14  1  0  0  0  0
  1 19  2  0  0  0  0
  2 15  1  6  0  0  0
  2 20  2  0  0  0  0
  2 23  1  0  0  0  0
  3 16  1  1  0  0  0
  3 21  2  0  0  0  0
  3 24  1  0  0  0  0
  3 25  1  0  0  0  0
  4  6  1  0  0  0  0
  5  4  1  0  0  0  0
  6  7  1  0  0  0  0
  6  8  2  0  0  0  0
  7 12  1  0  0  0  0
  8  9  1  0  0  0  0
  8 10  1  0  0  0  0
 10 11  1  0  0  0  0
 10 12  2  0  0  0  0
 12 32  1  0  0  0  0
 13 17  1  0  0  0  0
 17 18  1  6  0  0  0
 17 22  1  0  0  0  0
 23  1  1  0  0  0  0
 24  2  1  0  0  0  0
 26 22  1  6  0  0  0
 27 26  1  0  0  0  0
 27 28  1  0  0  0  0
 27 30  1  6  0  0  0
 28 13  1  0  0  0  0
 28 29  1  6  0  0  0
 31 30  1  0  0  0  0
 32 26  1  0  0  0  0
 32 31  1  0  0  0  0
M  CHG  3  14  -1  15  -1  16  -1
M  END
>  <CHROM.1>
-106.91626239,-64.36959696,-35.06572548,-75.69226749,179.53142247,151.24252496
38.63391756,-166.78164273,63.17745021,-11.19568597,3.21905842,0.56082949
-0.20689670,-2.11767760

>  <Name>
2au4_lig

>  <RI>
0

>  <Rbt.Current_Directory>
/home/itssahil/PROJECTS/Mol_Feturizer/New_Systems/rnas/2au4

>  <Rbt.Executable>
rbdock ($Id: //depot/dev/client3/rdock/2013.1/src/exe/rbdock.cxx#4 $)

>  <Rbt.Library>
libRbt.so (2013.1, Build901 2013/11/27)

>  <Rbt.Parameter_File>
/export/apps/rDock/src/rDock_2013.1_src/data/scripts/dock_solv.prm

>  <Rbt.Receptor>
prm/blind_docking_100.prm

>  <SCORE>
-48.0996

>  <SCORE.INTER>
-23.0622

>  <SCORE.INTER.CONST>
1

>  <SCORE.INTER.POLAR>
-3.97212

>  <SCORE.INTER.ROT>
8

>  <SCORE.INTER.SOLV>
18.3162

>  <SCORE.INTER.VDW>
-17.1732

>  <SCORE.INTER.norm>
-0.720695

>  <SCORE.INTRA>
-25.5278

>  <SCORE.INTRA.DIHEDRAL>
-47.8657

>  <SCORE.INTRA.DIHEDRAL.0>
76.3625

>  <SCORE.INTRA.POLAR>
0

>  <SCORE.INTRA.POLAR.0>
0

>  <SCORE.INTRA.REPUL>
-0.12705

>  <SCORE.INTRA.REPUL.0>
0.12705

>  <SCORE.INTRA.SOLV>
-3.71829

>  <SCORE.INTRA.SOLV.lig_0>
-119.383

>  <SCORE.INTRA.VDW>
0.899388

>  <SCORE.INTRA.VDW.0>
-5.10464

>  <SCORE.INTRA.norm>
-0.797745

>  <SCORE.RESTR>
0.490527

>  <SCORE.RESTR.CAVITY>
0.490527

>  <SCORE.RESTR.norm>
0.015329

>  <SCORE.SYSTEM>
0

>  <SCORE.SYSTEM.CONST>
0

>  <SCORE.SYSTEM.DIHEDRAL>
0

>  <SCORE.SYSTEM.SOLV>
0

>  <SCORE.SYSTEM.norm>
0

>  <SCORE.heavy>
32

>  <SCORE.norm>
-1.50311

>  <RMSD>
20.554

$$$$
2au4_lig
 OpenBabel11021811423D
libRbt.so/2013.1/901 2013/11/27
 32 34  0  0  0  0  0  0  0  0999 V2000
   63.5421   -9.9362    3.5993 P   0  0  1  0  0  0  0  0  0  0  0  0
   66.0404   -9.9879    2.5386 P   0  0  1  0  0  0  0  0  0  0  0  0
   68.2577  -10.7316    1.1346 P   0  0  2  0  0  0  0  0  0  0  0  0
   62.2614  -11.8692    4.8853 C   0  0  0  0  0  0  0  0  0  0  0  0
   62.3718  -11.0340    3.7209 O   0  0  0  0  0  0  0  0  0  0  0  0
   63.0113  -13.1843    4.7313 C   0  0  0  0  0  0  0  0  0  0  0  0
   62.6833  -13.8113    3.4745 O   0  0  0  0  0  0  0  0  0  0  0  0
   64.5141  -12.9551    4.7716 C   0  0  0  0  0  0  0  0  0  0  0  0
   65.1008  -13.6036    5.9066 O   0  0  0  0  0  0  0  0  0  0  0  0
   65.0676  -13.5123    3.4818 C   0  0  0  0  0  0  0  0  0  0  0  0
   66.0381  -14.5375    3.7332 O   0  0  0  0  0  0  0  0  0  0  0  0
   63.8818  -14.0684    2.7125 C   0  0  0  0  0  0  0  0  0  0  0  0
   60.7990  -12.2985   -0.9522 N   0  0  0  0  0  0  0  0  0  0  0  0
   63.1364   -8.9237    2.6038 O   0  5  0  0  0  0  0  0  0  0  0  0
   65.6848   -9.1004    1.4142 O   0  5  0  0  0  0  0  0  0  0  0  0
   69.2719  -11.7934    1.2937 O   0  5  0  0  0  0  0  0  0  0  0  0
   60.4795  -12.8436    0.2687 C   0  0  1  0  0  0  0  0  0  0  0  0
   59.1870  -12.9351    0.5514 N   0  0  0  0  0  0  0  0  0  0  0  0
   63.9412   -9.5189    4.9605 O   0  0  0  0  0  0  0  0  0  0  0  0
   66.6732   -9.4301    3.7518 O   0  0  0  0  0  0  0  0  0  0  0  0
   68.5922   -9.3328    1.4742 O   0  0  0  0  0  0  0  0  0  0  0  0
   61.3819  -13.2723    1.1477 N   0  0  0  0  0  0  0  0  0  0  0  0
   64.7373  -10.7776    2.9799 O   0  0  0  0  0  0  0  0  0  0  0  0
   66.9752  -11.1466    1.9829 O   0  0  0  0  0  0  0  0  0  0  0  0
   67.7111  -10.7729   -0.3755 O   0  0  0  0  0  0  0  0  0  0  0  0
   62.6479  -13.1096    0.6989 C   0  0  2  0  0  0  0  0  0  0  0  0
   63.0566  -12.5719   -0.5109 C   0  0  2  0  0  0  0  0  0  0  0  0
   62.0829  -12.1207   -1.4354 C   0  0  1  0  0  0  0  0  0  0  0  0
   62.2564  -11.6459   -2.5498 O   0  0  0  0  0  0  0  0  0  0  0  0
   64.4520  -12.5740   -0.6109 N   0  0  0  0  0  0  0  0  0  0  0  0
   64.7892  -13.1021    0.5202 C   0  0  0  0  0  0  0  0  0  0  0  0
   63.7952  -13.4568    1.3721 N   0  0  0  0  0  0  0  0  0  0  0  0
  1  5  1  1  0  0  0
  1 14  1  0  0  0  0
  1 19  2  0  0  0  0
  2 15  1  6  0  0  0
  2 20  2  0  0  0  0
  2 23  1  0  0  0  0
  3 16  1  1  0  0  0
  3 21  2  0  0  0  0
  3 24  1  0  0  0  0
  3 25  1  0  0  0  0
  4  6  1  0  0  0  0
  5  4  1  0  0  0  0
  6  7  1  0  0  0  0
  6  8  2  0  0  0  0
  7 12  1  0  0  0  0
  8  9  1  0  0  0  0
  8 10  1  0  0  0  0
 10 11  1  0  0  0  0
 10 12  2  0  0  0  0
 12 32  1  0  0  0  0
 13 17  1  0  0  0  0
 17 18  1  6  0  0  0
 17 22  1  0  0  0  0
 23  1  1  0  0  0  0
 24  2  1  0  0  0  0
 26 22  1  6  0  0  0
 27 26  1  0  0  0  0
 27 28  1  0  0  0  0
 27 30  1  6  0  0  0
 28 13  1  0  0  0  0
 28 29  1  6  0  0  0
 31 30  1  0  0  0  0
 32 26  1  0  0  0  0
 32 31  1  0  0  0  0
M  CHG  3  14  -1  15  -1  16  -1
M  END
>  <CHROM.1>
-159.09807995,-65.57616761,152.61559580,-48.74188545,-91.96042849,-22.18795169
172.59712592,52.00789668,64.45408795,-11.63824407,2.03430747,0.20386448,0.36023833
1.59383992

>  <Name>
2au4_lig

>  <RI>
0

>  <Rbt.Current_Directory>
/home/itssahil/PROJECTS/Mol_Feturizer/New_Systems/rnas/2au4

>  <Rbt.Executable>
rbdock ($Id: //depot/dev/client3/rdock/2013.1/src/exe/rbdock.cxx#4 $)

>  <Rbt.Library>
libRbt.so (2013.1, Build901 2013/11/27)

>  <Rbt.Parameter_File>
/export/apps/rDock/src/rDock_2013.1_src/data/scripts/dock_solv.prm

>  <Rbt.Receptor>
prm/blind_docking_80.prm

>  <SCORE>
-42.3266

>  <SCORE.INTER>
-19.2243

>  <SCORE.INTER.CONST>
1

>  <SCORE.INTER.POLAR>
-2.18504

>  <SCORE.INTER.ROT>
8

>  <SCORE.INTER.SOLV>
27.2343

>  <SCORE.INTER.VDW>
-23.5442

>  <SCORE.INTER.norm>
-0.600758

>  <SCORE.INTRA>
-23.8327

>  <SCORE.INTRA.DIHEDRAL>
-43.4325

>  <SCORE.INTRA.DIHEDRAL.0>
76.3625

>  <SCORE.INTRA.POLAR>
0

>  <SCORE.INTRA.POLAR.0>
0

>  <SCORE.INTRA.REPUL>
0.0692969

>  <SCORE.INTRA.REPUL.0>
0.12705

>  <SCORE.INTRA.SOLV>
-0.268538

>  <SCORE.INTRA.SOLV.lig_0>
-119.383

>  <SCORE.INTRA.VDW>
-2.32865

>  <SCORE.INTRA.VDW.0>
-5.10464

>  <SCORE.INTRA.norm>
-0.744771

>  <SCORE.RESTR>
0.73032

>  <SCORE.RESTR.CAVITY>
0.73032

>  <SCORE.RESTR.norm>
0.0228225

>  <SCORE.SYSTEM>
0

>  <SCORE.SYSTEM.CONST>
0

>  <SCORE.SYSTEM.DIHEDRAL>
0

>  <SCORE.SYSTEM.SOLV>
0

>  <SCORE.SYSTEM.norm>
0

>  <SCORE.heavy>
32

>  <SCORE.norm>
-1.32271

>  <RMSD>
20.556

$$$$
2au4_lig
 OpenBabel11021811423D
libRbt.so/2013.1/901 2013/11/27
 32 34  0  0  0  0  0  0  0  0999 V2000
   65.8198   -9.8869    4.4225 P   0  0  1  0  0  0  0  0  0  0  0  0
   66.7853   -8.7116    2.1740 P   0  0  1  0  0  0  0  0  0  0  0  0
   68.1073  -10.8013    1.0222 P   0  0  2  0  0  0  0  0  0  0  0  0
   65.3350  -12.4879    4.5970 C   0  0  0  0  0  0  0  0  0  0  0  0
   65.8454  -11.3835    3.8318 O   0  0  0  0  0  0  0  0  0  0  0  0
   65.0281  -13.7022    3.7329 C   0  0  0  0  0  0  0  0  0  0  0  0
   63.6435  -14.0834    3.8667 O   0  0  0  0  0  0  0  0  0  0  0  0
   65.3003  -13.4025    2.2670 C   0  0  0  0  0  0  0  0  0  0  0  0
   66.3551  -14.2306    1.7624 O   0  0  0  0  0  0  0  0  0  0  0  0
   64.0080  -13.6598    1.5295 C   0  0  0  0  0  0  0  0  0  0  0  0
   64.1789  -14.6590    0.5154 O   0  0  0  0  0  0  0  0  0  0  0  0
   63.0035  -14.1164    2.5734 C   0  0  0  0  0  0  0  0  0  0  0  0
   59.6581  -11.5567   -0.3115 N   0  0  0  0  0  0  0  0  0  0  0  0
   64.5747   -9.2274    3.9805 O   0  5  0  0  0  0  0  0  0  0  0  0
   65.6006   -9.4168    1.6472 O   0  5  0  0  0  0  0  0  0  0  0  0
   66.9781  -11.0665    0.1080 O   0  5  0  0  0  0  0  0  0  0  0  0
   60.7420  -12.3108   -0.6937 C   0  0  1  0  0  0  0  0  0  0  0  0
   60.9702  -12.3935   -1.9976 N   0  0  0  0  0  0  0  0  0  0  0  0
   66.1595   -9.9412    5.8605 O   0  0  0  0  0  0  0  0  0  0  0  0
   66.8368   -7.2349    2.1584 O   0  0  0  0  0  0  0  0  0  0  0  0
   68.2480  -11.5819    2.2691 O   0  0  0  0  0  0  0  0  0  0  0  0
   61.5471  -12.9373    0.1607 N   0  0  0  0  0  0  0  0  0  0  0  0
   67.0323   -9.1987    3.6633 O   0  0  0  0  0  0  0  0  0  0  0  0
   68.0696   -9.2580    1.4142 O   0  0  0  0  0  0  0  0  0  0  0  0
   69.4753  -10.9208    0.1886 O   0  0  0  0  0  0  0  0  0  0  0  0
   61.1745  -12.7444    1.4470 C   0  0  2  0  0  0  0  0  0  0  0  0
   60.1020  -12.0041    1.9176 C   0  0  2  0  0  0  0  0  0  0  0  0
   59.2551  -11.3431    0.9945 C   0  0  1  0  0  0  0  0  0  0  0  0
   58.2860  -10.6328    1.2268 O   0  0  0  0  0  0  0  0  0  0  0  0
   60.0456  -12.0419    3.3150 N   0  0  0  0  0  0  0  0  0  0  0  0
   61.0660  -12.7859    3.5927 C   0  0  0  0  0  0  0  0  0  0  0  0
   61.8047  -13.2557    2.5567 N   0  0  0  0  0  0  0  0  0  0  0  0
  1  5  1  6  0  0  0
  1 14  1  0  0  0  0
  1 19  2  0  0  0  0
  2 15  1  6  0  0  0
  2 20  2  0  0  0  0
  2 23  1  0  0  0  0
  3 16  1  6  0  0  0
  3 21  2  0  0  0  0
  3 24  1  0  0  0  0
  3 25  1  0  0  0  0
  4  6  1  0  0  0  0
  5  4  1  0  0  0  0
  6  7  1  0  0  0  0
  6  8  2  0  0  0  0
  7 12  1  0  0  0  0
  8  9  1  0  0  0  0
  8 10  1  0  0  0  0
 10 11  1  0  0  0  0
 10 12  2  0  0  0  0
 12 32  1  0  0  0  0
 13 17  1  0  0  0  0
 17 18  1  1  0  0  0
 17 22  1  0  0  0  0
 23  1  1  0  0  0  0
 24  2  1  0  0  0  0
 26 22  1  1  0  0  0
 27 26  1  0  0  0  0
 27 28  1  0  0  0  0
 27 30  1  1  0  0  0
 28 13  1  0  0  0  0
 28 29  1  1  0  0  0
 31 30  1  0  0  0  0
 32 26  1  0  0  0  0
 32 31  1  0  0  0  0
M  CHG  3  14  -1  15  -1  16  -1
M  END
>  <CHROM.1>
-92.77745728,-19.22600155,61.15936501,-122.03712522,161.31629888,160.24873084
79.58462913,-35.85400188,64.49033994,-11.39684707,2.11978238,0.35097160,0.13205374
0.80326413

>  <Name>
2au4_lig

>  <RI>
0

>  <Rbt.Current_Directory>
/home/itssahil/PROJECTS/Mol_Feturizer/New_Systems/rnas/2au4

>  <Rbt.Executable>
rbdock ($Id: //depot/dev/client3/rdock/2013.1/src/exe/rbdock.cxx#4 $)

>  <Rbt.Library>
libRbt.so (2013.1, Build901 2013/11/27)

>  <Rbt.Parameter_File>
/export/apps/rDock/src/rDock_2013.1_src/data/scripts/dock_solv.prm

>  <Rbt.Receptor>
prm/blind_docking_80.prm

>  <SCORE>
-46.8998

>  <SCORE.INTER>
-25.5701

>  <SCORE.INTER.CONST>
1

>  <SCORE.INTER.POLAR>
-3.89775

>  <SCORE.INTER.ROT>
8

>  <SCORE.INTER.SOLV>
30.2954

>  <SCORE.INTER.VDW>
-23.086

>  <SCORE.INTER.norm>
-0.799065

>  <SCORE.INTRA>
-21.9262

>  <SCORE.INTRA.DIHEDRAL>
-44.2327

>  <SCORE.INTRA.DIHEDRAL.0>
76.3625

>  <SCORE.INTRA.POLAR>
0

>  <SCORE.INTRA.POLAR.0>
0

>  <SCORE.INTRA.REPUL>
-0.12705

>  <SCORE.INTRA.REPUL.0>
0.12705

>  <SCORE.INTRA.SOLV>
-0.658382

>  <SCORE.INTRA.SOLV.lig_0>
-119.383

>  <SCORE.INTRA.VDW>
1.15456

>  <SCORE.INTRA.VDW.0>
-5.10464

>  <SCORE.INTRA.norm>
-0.685194

>  <SCORE.RESTR>
0.596487

>  <SCORE.RESTR.CAVITY>
0.596487

>  <SCORE.RESTR.norm>
0.0186402

>  <SCORE.SYSTEM>
0

>  <SCORE.SYSTEM.CONST>
0

>  <SCORE.SYSTEM.DIHEDRAL>
0

>  <SCORE.SYSTEM.SOLV>
0

>  <SCORE.SYSTEM.norm>
0

>  <SCORE.heavy>
32

>  <SCORE.norm>
-1.46562

>  <RMSD>
20.561

$$$$
2au4_lig
 OpenBabel11021811423D
libRbt.so/2013.1/901 2013/11/27
 32 34  0  0  0  0  0  0  0  0999 V2000
   64.9157  -10.1070    2.4464 P   0  0  1  0  0  0  0  0  0  0  0  0
   67.5738   -9.6939    2.0814 P   0  0  1  0  0  0  0  0  0  0  0  0
   68.9091  -11.4724    0.5020 P   0  0  2  0  0  0  0  0  0  0  0  0
   64.3553  -11.8976    0.5729 C   0  0  0  0  0  0  0  0  0  0  0  0
   64.0090  -11.2820    1.8246 O   0  0  0  0  0  0  0  0  0  0  0  0
   63.2709  -12.8377    0.0671 C   0  0  0  0  0  0  0  0  0  0  0  0
   62.6870  -13.5741    1.1612 O   0  0  0  0  0  0  0  0  0  0  0  0
   62.1646  -12.0593   -0.6277 C   0  0  0  0  0  0  0  0  0  0  0  0
   62.0847  -12.4103   -2.0145 O   0  0  0  0  0  0  0  0  0  0  0  0
   60.8823  -12.4004    0.0933 C   0  0  0  0  0  0  0  0  0  0  0  0
   59.9219  -12.9787   -0.8007 O   0  0  0  0  0  0  0  0  0  0  0  0
   61.2569  -13.3812    1.1911 C   0  0  0  0  0  0  0  0  0  0  0  0
   62.3782  -12.9650    6.1545 N   0  0  0  0  0  0  0  0  0  0  0  0
   64.8377   -8.9310    1.5566 O   0  5  0  0  0  0  0  0  0  0  0  0
   67.3196   -8.9859    0.8117 O   0  5  0  0  0  0  0  0  0  0  0  0
   67.5472  -11.9128    0.1379 O   0  5  0  0  0  0  0  0  0  0  0  0
   63.0995  -13.5545    5.1437 C   0  0  1  0  0  0  0  0  0  0  0  0
   64.2557  -14.1042    5.4900 N   0  0  0  0  0  0  0  0  0  0  0  0
   64.5933   -9.9720    3.8831 O   0  0  0  0  0  0  0  0  0  0  0  0
   67.7961   -8.9283    3.3256 O   0  0  0  0  0  0  0  0  0  0  0  0
   69.9959  -12.4649    0.6359 O   0  0  0  0  0  0  0  0  0  0  0  0
   62.6984  -13.5986    3.8756 N   0  0  0  0  0  0  0  0  0  0  0  0
   66.3805  -10.7085    2.3325 O   0  0  0  0  0  0  0  0  0  0  0  0
   68.8143  -10.6647    1.8714 O   0  0  0  0  0  0  0  0  0  0  0  0
   69.3748  -10.3441   -0.5424 O   0  0  0  0  0  0  0  0  0  0  0  0
   61.4994  -12.9971    3.6991 C   0  0  2  0  0  0  0  0  0  0  0  0
   60.7098  -12.3816    4.6570 C   0  0  2  0  0  0  0  0  0  0  0  0
   61.1515  -12.3439    6.0023 C   0  0  1  0  0  0  0  0  0  0  0  0
   60.5811  -11.8701    6.9758 O   0  0  0  0  0  0  0  0  0  0  0  0
   59.5370  -11.8762    4.0859 N   0  0  0  0  0  0  0  0  0  0  0  0
   59.6897  -12.2123    2.8467 C   0  0  0  0  0  0  0  0  0  0  0  0
   60.8202  -12.8817    2.5094 N   0  0  0  0  0  0  0  0  0  0  0  0
  1  5  1  6  0  0  0
  1 14  1  0  0  0  0
  1 19  2  0  0  0  0
  2 15  1  6  0  0  0
  2 20  2  0  0  0  0
  2 23  1  0  0  0  0
  3 16  1  6  0  0  0
  3 21  2  0  0  0  0
  3 24  1  0  0  0  0
  3 25  1  0  0  0  0
  4  6  1  0  0  0  0
  5  4  1  0  0  0  0
  6  7  1  0  0  0  0
  6  8  2  0  0  0  0
  7 12  1  0  0  0  0
  8  9  1  0  0  0  0
  8 10  1  0  0  0  0
 10 11  1  0  0  0  0
 10 12  2  0  0  0  0
 12 32  1  0  0  0  0
 13 17  1  0  0  0  0
 17 18  1  1  0  0  0
 17 22  1  0  0  0  0
 23  1  1  0  0  0  0
 24  2  1  0  0  0  0
 26 22  1  1  0  0  0
 27 26  1  0  0  0  0
 27 28  1  0  0  0  0
 27 30  1  1  0  0  0
 28 13  1  0  0  0  0
 28 29  1  1  0  0  0
 31 30  1  0  0  0  0
 32 26  1  0  0  0  0
 32 31  1  0  0  0  0
M  CHG  3  14  -1  15  -1  16  -1
M  END
>  <CHROM.1>
65.69704676,-59.74284692,-39.28222462,-38.80278489,-171.79151310,-21.49149569
147.49942299,-40.88515285,64.35896189,-11.60866751,2.16384212,-0.28856511
0.30874579,1.48632254

>  <Name>
2au4_lig

>  <RI>
0

>  <Rbt.Current_Directory>
/home/itssahil/PROJECTS/Mol_Feturizer/New_Systems/rnas/2au4

>  <Rbt.Executable>
rbdock ($Id: //depot/dev/client3/rdock/2013.1/src/exe/rbdock.cxx#4 $)

>  <Rbt.Library>
libRbt.so (2013.1, Build901 2013/11/27)

>  <Rbt.Parameter_File>
/export/apps/rDock/src/rDock_2013.1_src/data/scripts/dock_solv.prm

>  <Rbt.Receptor>
prm/blind_docking_100.prm

>  <SCORE>
-46.4598

>  <SCORE.INTER>
-22.7237

>  <SCORE.INTER.CONST>
1

>  <SCORE.INTER.POLAR>
-3.02872

>  <SCORE.INTER.ROT>
8

>  <SCORE.INTER.SOLV>
24.8788

>  <SCORE.INTER.VDW>
-22.2796

>  <SCORE.INTER.norm>
-0.710115

>  <SCORE.INTRA>
-24.4099

>  <SCORE.INTRA.DIHEDRAL>
-47.4919

>  <SCORE.INTRA.DIHEDRAL.0>
76.3625

>  <SCORE.INTRA.POLAR>
0

>  <SCORE.INTRA.POLAR.0>
0

>  <SCORE.INTRA.REPUL>
0.0678899

>  <SCORE.INTRA.REPUL.0>
0.12705

>  <SCORE.INTRA.SOLV>
-2.96369

>  <SCORE.INTRA.SOLV.lig_0>
-119.383

>  <SCORE.INTRA.VDW>
0.478402

>  <SCORE.INTRA.VDW.0>
-5.10464

>  <SCORE.INTRA.norm>
-0.76281

>  <SCORE.RESTR>
0.673749

>  <SCORE.RESTR.CAVITY>
0.673749

>  <SCORE.RESTR.norm>
0.0210546

>  <SCORE.SYSTEM>
0

>  <SCORE.SYSTEM.CONST>
0

>  <SCORE.SYSTEM.DIHEDRAL>
0

>  <SCORE.SYSTEM.SOLV>
0

>  <SCORE.SYSTEM.norm>
0

>  <SCORE.heavy>
32

>  <SCORE.norm>
-1.45187

>  <RMSD>
20.585

$$$$
2au4_lig
 OpenBabel11021811423D
libRbt.so/2013.1/901 2013/11/27
 32 34  0  0  0  0  0  0  0  0999 V2000
   67.8298  -10.6877    0.8202 P   0  0  1  0  0  0  0  0  0  0  0  0
   66.3847   -9.4992    2.7871 P   0  0  1  0  0  0  0  0  0  0  0  0
   63.9118   -9.7431    3.9122 P   0  0  2  0  0  0  0  0  0  0  0  0
   65.5582  -12.0331    1.0663 C   0  0  0  0  0  0  0  0  0  0  0  0
   66.9460  -12.0263    0.6924 O   0  0  0  0  0  0  0  0  0  0  0  0
   64.7436  -13.0353    0.2616 C   0  0  0  0  0  0  0  0  0  0  0  0
   63.7575  -13.6752    1.0973 O   0  0  0  0  0  0  0  0  0  0  0  0
   64.0212  -12.3451   -0.8848 C   0  0  0  0  0  0  0  0  0  0  0  0
   64.4909  -12.8266   -2.1499 O   0  0  0  0  0  0  0  0  0  0  0  0
   62.5511  -12.6388   -0.7041 C   0  0  0  0  0  0  0  0  0  0  0  0
   62.0122  -13.3153   -1.8478 O   0  0  0  0  0  0  0  0  0  0  0  0
   62.4376  -13.5050    0.5385 C   0  0  0  0  0  0  0  0  0  0  0  0
   57.7250  -11.7598    1.4398 N   0  0  0  0  0  0  0  0  0  0  0  0
   68.7751  -10.8529    1.9426 O   0  5  0  0  0  0  0  0  0  0  0  0
   66.5528  -10.8335    3.3948 O   0  5  0  0  0  0  0  0  0  0  0  0
   62.5088   -9.4133    3.5897 O   0  5  0  0  0  0  0  0  0  0  0  0
   58.2476  -12.3085    0.2928 C   0  0  1  0  0  0  0  0  0  0  0  0
   57.4236  -12.4025   -0.7422 N   0  0  0  0  0  0  0  0  0  0  0  0
   68.3299  -10.3223   -0.5224 O   0  0  0  0  0  0  0  0  0  0  0  0
   67.0965   -8.3331    3.3502 O   0  0  0  0  0  0  0  0  0  0  0  0
   64.4917   -9.3226    5.2049 O   0  0  0  0  0  0  0  0  0  0  0  0
   59.5040  -12.7319    0.1798 N   0  0  0  0  0  0  0  0  0  0  0  0
   66.7504   -9.6046    1.2471 O   0  0  0  0  0  0  0  0  0  0  0  0
   64.8327   -9.1595    2.7512 O   0  0  0  0  0  0  0  0  0  0  0  0
   64.1098  -11.3297    3.7566 O   0  0  0  0  0  0  0  0  0  0  0  0
   60.2052  -12.5582    1.3238 C   0  0  2  0  0  0  0  0  0  0  0  0
   59.7588  -12.0169    2.5186 C   0  0  2  0  0  0  0  0  0  0  0  0
   58.4185  -11.5707    2.6218 C   0  0  1  0  0  0  0  0  0  0  0  0
   57.8632  -11.0495    3.5796 O   0  0  0  0  0  0  0  0  0  0  0  0
   60.7819  -12.0042    3.4727 N   0  0  0  0  0  0  0  0  0  0  0  0
   61.7597  -12.5266    2.8071 C   0  0  0  0  0  0  0  0  0  0  0  0
   61.5244  -12.8910    1.5219 N   0  0  0  0  0  0  0  0  0  0  0  0
  1  5  1  6  0  0  0
  1 14  1  0  0  0  0
  1 19  2  0  0  0  0
  2 15  1  1  0  0  0
  2 20  2  0  0  0  0
  2 23  1  0  0  0  0
  3 16  1  6  0  0  0
  3 21  2  0  0  0  0
  3 24  1  0  0  0  0
  3 25  1  0  0  0  0
  4  6  1  0  0  0  0
  5  4  1  0  0  0  0
  6  7  1  0  0  0  0
  6  8  2  0  0  0  0
  7 12  1  0  0  0  0
  8  9  1  0  0  0  0
  8 10  1  0  0  0  0
 10 11  1  0  0  0  0
 10 12  2  0  0  0  0
 12 32  1  0  0  0  0
 13 17  1  0  0  0  0
 17 18  1  6  0  0  0
 17 22  1  0  0  0  0
 23  1  1  0  0  0  0
 24  2  1  0  0  0  0
 26 22  1  6  0  0  0
 27 26  1  0  0  0  0
 27 28  1  0  0  0  0
 27 30  1  6  0  0  0
 28 13  1  0  0  0  0
 28 29  1  6  0  0  0
 31 30  1  0  0  0  0
 32 26  1  0  0  0  0
 32 31  1  0  0  0  0
M  CHG  3  14  -1  15  -1  16  -1
M  END
>  <CHROM.1>
108.35746107,-30.02130740,-174.29840726,141.66401231,150.13222251,178.47765009
83.75917756,31.70444993,63.57015052,-11.29760118,1.67989804,-0.18985375,-0.17398857
-2.12219694

>  <Name>
2au4_lig

>  <RI>
0

>  <Rbt.Current_Directory>
/home/itssahil/PROJECTS/Mol_Feturizer/New_Systems/rnas/2au4

>  <Rbt.Executable>
rbdock ($Id: //depot/dev/client3/rdock/2013.1/src/exe/rbdock.cxx#4 $)

>  <Rbt.Library>
libRbt.so (2013.1, Build901 2013/11/27)

>  <Rbt.Parameter_File>
/export/apps/rDock/src/rDock_2013.1_src/data/scripts/dock_solv.prm

>  <Rbt.Receptor>
prm/blind_docking_80.prm

>  <SCORE>
-12.1408

>  <SCORE.INTER>
0.720458

>  <SCORE.INTER.CONST>
1

>  <SCORE.INTER.POLAR>
-1.68751

>  <SCORE.INTER.ROT>
8

>  <SCORE.INTER.SOLV>
24.9114

>  <SCORE.INTER.VDW>
-11.1318

>  <SCORE.INTER.norm>
0.0225143

>  <SCORE.INTRA>
-14.9222

>  <SCORE.INTRA.DIHEDRAL>
-30.8481

>  <SCORE.INTRA.DIHEDRAL.0>
76.3625

>  <SCORE.INTRA.POLAR>
0

>  <SCORE.INTRA.POLAR.0>
0

>  <SCORE.INTRA.REPUL>
-0.12705

>  <SCORE.INTRA.REPUL.0>
0.12705

>  <SCORE.INTRA.SOLV>
-2.64934

>  <SCORE.INTRA.SOLV.lig_0>
-119.383

>  <SCORE.INTRA.VDW>
2.46173

>  <SCORE.INTRA.VDW.0>
-5.10464

>  <SCORE.INTRA.norm>
-0.46632

>  <SCORE.RESTR>
2.06101

>  <SCORE.RESTR.CAVITY>
2.06101

>  <SCORE.RESTR.norm>
0.0644065

>  <SCORE.SYSTEM>
0

>  <SCORE.SYSTEM.CONST>
0

>  <SCORE.SYSTEM.DIHEDRAL>
0

>  <SCORE.SYSTEM.SOLV>
0

>  <SCORE.SYSTEM.norm>
0

>  <SCORE.heavy>
32

>  <SCORE.norm>
-0.379399

>  <RMSD>
20.616

$$$$
2au4_lig
 OpenBabel11021811423D
libRbt.so/2013.1/901 2013/11/27
 32 34  0  0  0  0  0  0  0  0999 V2000
   65.6529  -12.6274    0.9484 P   0  0  1  0  0  0  0  0  0  0  0  0
   67.8183  -10.9951    0.8209 P   0  0  1  0  0  0  0  0  0  0  0  0
   66.6198   -8.9949    2.2364 P   0  0  2  0  0  0  0  0  0  0  0  0
   63.6306  -12.4024   -0.7516 C   0  0  0  0  0  0  0  0  0  0  0  0
   64.6762  -13.2122   -0.1888 O   0  0  0  0  0  0  0  0  0  0  0  0
   62.2428  -12.8981   -0.3725 C   0  0  0  0  0  0  0  0  0  0  0  0
   62.3320  -13.9759    0.5818 O   0  0  0  0  0  0  0  0  0  0  0  0
   61.4222  -11.7785    0.2485 C   0  0  0  0  0  0  0  0  0  0  0  0
   60.2836  -11.4670   -0.5636 O   0  0  0  0  0  0  0  0  0  0  0  0
   60.9985  -12.2640    1.6142 C   0  0  0  0  0  0  0  0  0  0  0  0
   59.5702  -12.2787    1.7400 O   0  0  0  0  0  0  0  0  0  0  0  0
   61.5683  -13.6638    1.7662 C   0  0  0  0  0  0  0  0  0  0  0  0
   62.4860  -11.8438    6.4472 N   0  0  0  0  0  0  0  0  0  0  0  0
   64.8329  -11.9358    1.9633 O   0  5  0  0  0  0  0  0  0  0  0  0
   68.6968  -12.1520    1.0816 O   0  5  0  0  0  0  0  0  0  0  0  0
   65.3809   -9.0751    1.4365 O   0  5  0  0  0  0  0  0  0  0  0  0
   61.5270  -11.4671    5.5372 C   0  0  1  0  0  0  0  0  0  0  0  0
   60.7154  -10.4867    5.9104 N   0  0  0  0  0  0  0  0  0  0  0  0
   66.5936  -13.6928    1.3562 O   0  0  0  0  0  0  0  0  0  0  0  0
   68.3100   -9.8572    0.0166 O   0  0  0  0  0  0  0  0  0  0  0  0
   67.6516   -7.9909    1.9028 O   0  0  0  0  0  0  0  0  0  0  0  0
   61.3855  -12.0233    4.3367 N   0  0  0  0  0  0  0  0  0  0  0  0
   66.4795  -11.5272    0.1569 O   0  0  0  0  0  0  0  0  0  0  0  0
   67.3107  -10.4298    2.2167 O   0  0  0  0  0  0  0  0  0  0  0  0
   66.2169   -8.8180    3.7814 O   0  0  0  0  0  0  0  0  0  0  0  0
   62.2952  -13.0005    4.1174 C   0  0  2  0  0  0  0  0  0  0  0  0
   63.2902  -13.4414    4.9750 C   0  0  2  0  0  0  0  0  0  0  0  0
   63.4272  -12.8380    6.2492 C   0  0  1  0  0  0  0  0  0  0  0  0
   64.2543  -13.0787    7.1184 O   0  0  0  0  0  0  0  0  0  0  0  0
   64.0335  -14.4709    4.3880 N   0  0  0  0  0  0  0  0  0  0  0  0
   63.4530  -14.5829    3.2381 C   0  0  0  0  0  0  0  0  0  0  0  0
   62.4095  -13.7571    2.9753 N   0  0  0  0  0  0  0  0  0  0  0  0
  1  5  1  6  0  0  0
  1 14  1  0  0  0  0
  1 19  2  0  0  0  0
  2 15  1  1  0  0  0
  2 20  2  0  0  0  0
  2 23  1  0  0  0  0
  3 16  1  6  0  0  0
  3 21  2  0  0  0  0
  3 24  1  0  0  0  0
  3 25  1  0  0  0  0
  4  6  1  0  0  0  0
  5  4  1  0  0  0  0
  6  7  1  0  0  0  0
  6  8  2  0  0  0  0
  7 12  1  0  0  0  0
  8  9  1  0  0  0  0
  8 10  1  0  0  0  0
 10 11  1  0  0  0  0
 10 12  2  0  0  0  0
 12 32  1  0  0  0  0
 13 17  1  0  0  0  0
 17 18  1  6  0  0  0
 17 22  1  0  0  0  0
 23  1  1  0  0  0  0
 24  2  1  0  0  0  0
 26 22  1  6  0  0  0
 27 26  1  0  0  0  0
 27 28  1  0  0  0  0
 27 30  1  6  0  0  0
 28 13  1  0  0  0  0
 28 29  1  6  0  0  0
 31 30  1  0  0  0  0
 32 26  1  0  0  0  0
 32 31  1  0  0  0  0
M  CHG  3  14  -1  15  -1  16  -1
M  END
>  <CHROM.1>
46.23787649,56.33606199,63.70715524,6.32603589,-112.19541885,147.47958349
-163.59250367,166.44657924,64.36713348,-11.81397364,2.26827893,0.34264476
-0.43361609,-1.71206933

>  <Name>
2au4_lig

>  <RI>
0

>  <Rbt.Current_Directory>
/home/itssahil/PROJECTS/Mol_Feturizer/New_Systems/rnas/2au4

>  <Rbt.Executable>
rbdock ($Id: //depot/dev/client3/rdock/2013.1/src/exe/rbdock.cxx#4 $)

>  <Rbt.Library>
libRbt.so (2013.1, Build901 2013/11/27)

>  <Rbt.Parameter_File>
/export/apps/rDock/src/rDock_2013.1_src/data/scripts/dock_solv.prm

>  <Rbt.Receptor>
prm/blind_docking_100.prm

>  <SCORE>
-53.6774

>  <SCORE.INTER>
-32.9679

>  <SCORE.INTER.CONST>
1

>  <SCORE.INTER.POLAR>
-4.48336

>  <SCORE.INTER.ROT>
8

>  <SCORE.INTER.SOLV>
23.6708

>  <SCORE.INTER.VDW>
-23.8577

>  <SCORE.INTER.norm>
-1.03025

>  <SCORE.INTRA>
-21.2924

>  <SCORE.INTRA.DIHEDRAL>
-43.2841

>  <SCORE.INTRA.DIHEDRAL.0>
76.3625

>  <SCORE.INTRA.POLAR>
0

>  <SCORE.INTRA.POLAR.0>
0

>  <SCORE.INTRA.REPUL>
-0.12705

>  <SCORE.INTRA.REPUL.0>
0.12705

>  <SCORE.INTRA.SOLV>
3.48357

>  <SCORE.INTRA.SOLV.lig_0>
-119.383

>  <SCORE.INTRA.VDW>
-0.756824

>  <SCORE.INTRA.VDW.0>
-5.10464

>  <SCORE.INTRA.norm>
-0.665386

>  <SCORE.RESTR>
0.582838

>  <SCORE.RESTR.CAVITY>
0.582838

>  <SCORE.RESTR.norm>
0.0182137

>  <SCORE.SYSTEM>
0

>  <SCORE.SYSTEM.CONST>
0

>  <SCORE.SYSTEM.DIHEDRAL>
0

>  <SCORE.SYSTEM.SOLV>
0

>  <SCORE.SYSTEM.norm>
0

>  <SCORE.heavy>
32

>  <SCORE.norm>
-1.67742

>  <RMSD>
20.644

$$$$
2au4_lig
 OpenBabel11021811423D
libRbt.so/2013.1/901 2013/11/27
 32 34  0  0  0  0  0  0  0  0999 V2000
   67.3671  -11.5045    0.9898 P   0  0  1  0  0  0  0  0  0  0  0  0
   69.7773  -10.9588   -0.1337 P   0  0  1  0  0  0  0  0  0  0  0  0
   71.6775  -10.0041   -1.8420 P   0  0  2  0  0  0  0  0  0  0  0  0
   65.2604  -13.0330    1.4959 C   0  0  0  0  0  0  0  0  0  0  0  0
   66.3008  -12.6399    0.5856 O   0  0  0  0  0  0  0  0  0  0  0  0
   64.4790  -11.8438    2.0351 C   0  0  0  0  0  0  0  0  0  0  0  0
   63.7456  -11.1959    0.9756 O   0  0  0  0  0  0  0  0  0  0  0  0
   63.4871  -12.2886    3.0984 C   0  0  0  0  0  0  0  0  0  0  0  0
   63.8087  -11.7143    4.3711 O   0  0  0  0  0  0  0  0  0  0  0  0
   62.1243  -11.8388    2.6286 C   0  0  0  0  0  0  0  0  0  0  0  0
   61.5096  -10.9619    3.5822 O   0  0  0  0  0  0  0  0  0  0  0  0
   62.3417  -11.1284    1.3038 C   0  0  0  0  0  0  0  0  0  0  0  0
   57.6900  -12.7051   -0.0901 N   0  0  0  0  0  0  0  0  0  0  0  0
   66.6510  -10.2237    1.1555 O   0  5  0  0  0  0  0  0  0  0  0  0
   69.8120   -9.7628    0.7303 O   0  5  0  0  0  0  0  0  0  0  0  0
   71.8737   -8.7935   -1.0191 O   0  5  0  0  0  0  0  0  0  0  0  0
   58.0998  -12.1329    1.0908 C   0  0  1  0  0  0  0  0  0  0  0  0
   57.1653  -11.9614    2.0162 N   0  0  0  0  0  0  0  0  0  0  0  0
   68.2188  -12.0239    2.0811 O   0  0  0  0  0  0  0  0  0  0  0  0
   70.5626  -12.1573    0.2275 O   0  0  0  0  0  0  0  0  0  0  0  0
   71.9122   -9.9528   -3.3002 O   0  0  0  0  0  0  0  0  0  0  0  0
   59.3529  -11.7596    1.3376 N   0  0  0  0  0  0  0  0  0  0  0  0
   68.2636  -11.3967   -0.3159 O   0  0  0  0  0  0  0  0  0  0  0  0
   70.1906  -10.5232   -1.6050 O   0  0  0  0  0  0  0  0  0  0  0  0
   72.5684  -11.1891   -1.2235 O   0  0  0  0  0  0  0  0  0  0  0  0
   60.1745  -12.0098    0.2922 C   0  0  2  0  0  0  0  0  0  0  0  0
   59.8463  -12.5798   -0.9273 C   0  0  2  0  0  0  0  0  0  0  0  0
   58.5077  -12.9719   -1.1736 C   0  0  1  0  0  0  0  0  0  0  0  0
   58.0446  -13.5075   -2.1716 O   0  0  0  0  0  0  0  0  0  0  0  0
   60.9725  -12.6753   -1.7517 N   0  0  0  0  0  0  0  0  0  0  0  0
   61.8891  -12.1687   -0.9933 C   0  0  0  0  0  0  0  0  0  0  0  0
   61.5221  -11.7423    0.2409 N   0  0  0  0  0  0  0  0  0  0  0  0
  1  5  1  6  0  0  0
  1 14  1  0  0  0  0
  1 19  2  0  0  0  0
  2 15  1  1  0  0  0
  2 20  2  0  0  0  0
  2 23  1  0  0  0  0
  3 16  1  1  0  0  0
  3 21  2  0  0  0  0
  3 24  1  0  0  0  0
  3 25  1  0  0  0  0
  4  6  1  0  0  0  0
  5  4  1  0  0  0  0
  6  7  1  0  0  0  0
  6  8  2  0  0  0  0
  7 12  1  0  0  0  0
  8  9  1  0  0  0  0
  8 10  1  0  0  0  0
 10 11  1  0  0  0  0
 10 12  2  0  0  0  0
 12 32  1  0  0  0  0
 13 17  1  0  0  0  0
 17 18  1  1  0  0  0
 17 22  1  0  0  0  0
 23  1  1  0  0  0  0
 24  2  1  0  0  0  0
 26 22  1  1  0  0  0
 27 26  1  0  0  0  0
 27 28  1  0  0  0  0
 27 30  1  1  0  0  0
 28 13  1  0  0  0  0
 28 29  1  1  0  0  0
 31 30  1  0  0  0  0
 32 26  1  0  0  0  0
 32 31  1  0  0  0  0
M  CHG  3  14  -1  15  -1  16  -1
M  END
>  <CHROM.1>
-64.61625328,-48.44032821,-61.43116859,65.80081427,51.21845506,170.98726368
-150.88669457,65.58436509,65.25624322,-11.49367282,0.32183801,-0.11631120
0.15821803,1.53965208

>  <Name>
2au4_lig

>  <RI>
0

>  <Rbt.Current_Directory>
/home/itssahil/PROJECTS/Mol_Feturizer/New_Systems/rnas/2au4

>  <Rbt.Executable>
rbdock ($Id: //depot/dev/client3/rdock/2013.1/src/exe/rbdock.cxx#4 $)

>  <Rbt.Library>
libRbt.so (2013.1, Build901 2013/11/27)

>  <Rbt.Parameter_File>
/export/apps/rDock/src/rDock_2013.1_src/data/scripts/dock_solv.prm

>  <Rbt.Receptor>
prm/blind_docking_80.prm

>  <SCORE>
-47.3854

>  <SCORE.INTER>
-27.8937

>  <SCORE.INTER.CONST>
1

>  <SCORE.INTER.POLAR>
-3.29885

>  <SCORE.INTER.ROT>
8

>  <SCORE.INTER.SOLV>
30.8261

>  <SCORE.INTER.VDW>
-26.8083

>  <SCORE.INTER.norm>
-0.871678

>  <SCORE.INTRA>
-22.7375

>  <SCORE.INTRA.DIHEDRAL>
-42.8228

>  <SCORE.INTRA.DIHEDRAL.0>
76.3625

>  <SCORE.INTRA.POLAR>
0

>  <SCORE.INTRA.POLAR.0>
0

>  <SCORE.INTRA.REPUL>
-0.12705

>  <SCORE.INTRA.REPUL.0>
0.12705

>  <SCORE.INTRA.SOLV>
-3.68064

>  <SCORE.INTRA.SOLV.lig_0>
-119.383

>  <SCORE.INTRA.VDW>
1.14945

>  <SCORE.INTRA.VDW.0>
-5.10464

>  <SCORE.INTRA.norm>
-0.710548

>  <SCORE.RESTR>
3.24582

>  <SCORE.RESTR.CAVITY>
3.24582

>  <SCORE.RESTR.norm>
0.101432

>  <SCORE.SYSTEM>
0

>  <SCORE.SYSTEM.CONST>
0

>  <SCORE.SYSTEM.DIHEDRAL>
0

>  <SCORE.SYSTEM.SOLV>
0

>  <SCORE.SYSTEM.norm>
0

>  <SCORE.heavy>
32

>  <SCORE.norm>
-1.48079

>  <RMSD>
20.649

$$$$
2au4_lig
 OpenBabel11021811423D
libRbt.so/2013.1/901 2013/11/27
 32 34  0  0  0  0  0  0  0  0999 V2000
   65.3383   -9.4771    3.3382 P   0  0  1  0  0  0  0  0  0  0  0  0
   67.9417   -9.6150    2.5815 P   0  0  1  0  0  0  0  0  0  0  0  0
   68.7762  -10.9908    0.3788 P   0  0  2  0  0  0  0  0  0  0  0  0
   64.0166  -11.0362    5.0273 C   0  0  0  0  0  0  0  0  0  0  0  0
   64.7821  -10.9090    3.8175 O   0  0  0  0  0  0  0  0  0  0  0  0
   63.4871  -12.4475    5.2352 C   0  0  0  0  0  0  0  0  0  0  0  0
   62.3628  -12.7006    4.3679 O   0  0  0  0  0  0  0  0  0  0  0  0
   64.5644  -13.4770    4.9315 C   0  0  0  0  0  0  0  0  0  0  0  0
   64.9048  -14.2238    6.1059 O   0  0  0  0  0  0  0  0  0  0  0  0
   64.0049  -14.3792    3.8576 C   0  0  0  0  0  0  0  0  0  0  0  0
   63.9682  -15.7447    4.2938 O   0  0  0  0  0  0  0  0  0  0  0  0
   62.6054  -13.8705    3.5580 C   0  0  0  0  0  0  0  0  0  0  0  0
   59.6736  -11.7516   -0.0449 N   0  0  0  0  0  0  0  0  0  0  0  0
   64.2466   -8.7515    2.6583 O   0  5  0  0  0  0  0  0  0  0  0  0
   68.0609   -8.2629    3.1610 O   0  5  0  0  0  0  0  0  0  0  0  0
   67.4248  -11.4784    0.0362 O   0  5  0  0  0  0  0  0  0  0  0  0
   59.4516  -11.8616    1.3072 C   0  0  1  0  0  0  0  0  0  0  0  0
   58.3133  -11.3527    1.7593 N   0  0  0  0  0  0  0  0  0  0  0  0
   66.0560   -8.8475    4.4672 O   0  0  0  0  0  0  0  0  0  0  0  0
   68.4566  -10.7864    3.3205 O   0  0  0  0  0  0  0  0  0  0  0  0
   69.6908  -11.8414    1.1687 O   0  0  0  0  0  0  0  0  0  0  0  0
   60.3003  -12.4408    2.1527 N   0  0  0  0  0  0  0  0  0  0  0  0
   66.4145   -9.8775    2.2420 O   0  0  0  0  0  0  0  0  0  0  0  0
   68.6181   -9.6026    1.1436 O   0  0  0  0  0  0  0  0  0  0  0  0
   69.5218  -10.5636   -0.9785 O   0  0  0  0  0  0  0  0  0  0  0  0
   61.4045  -12.9085    1.5260 C   0  0  2  0  0  0  0  0  0  0  0  0
   61.7067  -12.8398    0.1755 C   0  0  2  0  0  0  0  0  0  0  0  0
   60.7920  -12.2201   -0.7108 C   0  0  1  0  0  0  0  0  0  0  0  0
   60.8795  -12.0911   -1.9246 O   0  0  0  0  0  0  0  0  0  0  0  0
   62.9433  -13.4380   -0.0892 N   0  0  0  0  0  0  0  0  0  0  0  0
   63.3006  -13.8220    1.0927 C   0  0  0  0  0  0  0  0  0  0  0  0
   62.4592  -13.5573    2.1231 N   0  0  0  0  0  0  0  0  0  0  0  0
  1  5  1  1  0  0  0
  1 14  1  0  0  0  0
  1 19  2  0  0  0  0
  2 15  1  1  0  0  0
  2 20  2  0  0  0  0
  2 23  1  0  0  0  0
  3 16  1  6  0  0  0
  3 21  2  0  0  0  0
  3 24  1  0  0  0  0
  3 25  1  0  0  0  0
  4  6  1  0  0  0  0
  5  4  1  0  0  0  0
  6  7  1  0  0  0  0
  6  8  2  0  0  0  0
  7 12  1  0  0  0  0
  8  9  1  0  0  0  0
  8 10  1  0  0  0  0
 10 11  1  0  0  0  0
 10 12  2  0  0  0  0
 12 32  1  0  0  0  0
 13 17  1  0  0  0  0
 17 18  1  6  0  0  0
 17 22  1  0  0  0  0
 23  1  1  0  0  0  0
 24  2  1  0  0  0  0
 26 22  1  6  0  0  0
 27 26  1  0  0  0  0
 27 28  1  0  0  0  0
 27 30  1  6  0  0  0
 28 13  1  0  0  0  0
 28 29  1  6  0  0  0
 31 30  1  0  0  0  0
 32 26  1  0  0  0  0
 32 31  1  0  0  0  0
M  CHG  3  14  -1  15  -1  16  -1
M  END
>  <CHROM.1>
-81.05298491,-45.23978198,67.08272855,-75.95189369,175.06542365,-49.97302886
-111.44935825,172.80125653,64.70456581,-11.54424155,2.22615768,-0.04572166
0.34047011,1.78663297

>  <Name>
2au4_lig

>  <RI>
0

>  <Rbt.Current_Directory>
/home/itssahil/PROJECTS/Mol_Feturizer/New_Systems/rnas/2au4

>  <Rbt.Executable>
rbdock ($Id: //depot/dev/client3/rdock/2013.1/src/exe/rbdock.cxx#4 $)

>  <Rbt.Library>
libRbt.so (2013.1, Build901 2013/11/27)

>  <Rbt.Parameter_File>
/export/apps/rDock/src/rDock_2013.1_src/data/scripts/dock_solv.prm

>  <Rbt.Receptor>
prm/blind_docking_80.prm

>  <SCORE>
-35.6464

>  <SCORE.INTER>
-15.2158

>  <SCORE.INTER.CONST>
1

>  <SCORE.INTER.POLAR>
-2.4686

>  <SCORE.INTER.ROT>
8

>  <SCORE.INTER.SOLV>
25.0208

>  <SCORE.INTER.VDW>
-19.1888

>  <SCORE.INTER.norm>
-0.475493

>  <SCORE.INTRA>
-21.2157

>  <SCORE.INTRA.DIHEDRAL>
-41.5865

>  <SCORE.INTRA.DIHEDRAL.0>
76.3625

>  <SCORE.INTRA.POLAR>
0

>  <SCORE.INTRA.POLAR.0>
0

>  <SCORE.INTRA.REPUL>
-0.0488791

>  <SCORE.INTRA.REPUL.0>
0.12705

>  <SCORE.INTRA.SOLV>
-5.60667

>  <SCORE.INTRA.SOLV.lig_0>
-119.383

>  <SCORE.INTRA.VDW>
2.62528

>  <SCORE.INTRA.VDW.0>
-5.10464

>  <SCORE.INTRA.norm>
-0.662991

>  <SCORE.RESTR>
0.78513

>  <SCORE.RESTR.CAVITY>
0.78513

>  <SCORE.RESTR.norm>
0.0245353

>  <SCORE.SYSTEM>
0

>  <SCORE.SYSTEM.CONST>
0

>  <SCORE.SYSTEM.DIHEDRAL>
0

>  <SCORE.SYSTEM.SOLV>
0

>  <SCORE.SYSTEM.norm>
0

>  <SCORE.heavy>
32

>  <SCORE.norm>
-1.11395

>  <RMSD>
20.663

$$$$
2au4_lig
 OpenBabel11021811423D
libRbt.so/2013.1/901 2013/11/27
 32 34  0  0  0  0  0  0  0  0999 V2000
   64.0569  -13.9484    2.0222 P   0  0  1  0  0  0  0  0  0  0  0  0
   66.2051  -12.3509    1.5716 P   0  0  1  0  0  0  0  0  0  0  0  0
   67.8351  -10.3102    0.7849 P   0  0  2  0  0  0  0  0  0  0  0  0
   61.6089  -13.5729    1.0753 C   0  0  0  0  0  0  0  0  0  0  0  0
   62.4871  -13.6493    2.2105 O   0  0  0  0  0  0  0  0  0  0  0  0
   60.2279  -13.0496    1.4421 C   0  0  0  0  0  0  0  0  0  0  0  0
   60.0047  -13.1589    2.8628 O   0  0  0  0  0  0  0  0  0  0  0  0
   60.0839  -11.5879    1.0482 C   0  0  0  0  0  0  0  0  0  0  0  0
   59.0707  -11.4244    0.0483 O   0  0  0  0  0  0  0  0  0  0  0  0
   59.7284  -10.8370    2.3091 C   0  0  0  0  0  0  0  0  0  0  0  0
   58.4753  -10.1537    2.1708 O   0  0  0  0  0  0  0  0  0  0  0  0
   59.6591  -11.8724    3.4183 C   0  0  0  0  0  0  0  0  0  0  0  0
   63.7514   -9.1721    4.8424 N   0  0  0  0  0  0  0  0  0  0  0  0
   64.6297  -14.3029    3.3364 O   0  5  0  0  0  0  0  0  0  0  0  0
   66.7202  -12.5082    2.9457 O   0  5  0  0  0  0  0  0  0  0  0  0
   67.9088   -8.8768    1.1331 O   0  5  0  0  0  0  0  0  0  0  0  0
   63.1487   -9.2581    3.6099 C   0  0  1  0  0  0  0  0  0  0  0  0
   63.6989   -8.5462    2.6355 N   0  0  0  0  0  0  0  0  0  0  0  0
   64.2292  -14.8577    0.8691 O   0  0  0  0  0  0  0  0  0  0  0  0
   66.7363  -13.1932    0.4798 O   0  0  0  0  0  0  0  0  0  0  0  0
   68.1453  -10.7538   -0.5902 O   0  0  0  0  0  0  0  0  0  0  0  0
   62.0747  -10.0032    3.3607 N   0  0  0  0  0  0  0  0  0  0  0  0
   64.6289  -12.5265    1.6085 O   0  0  0  0  0  0  0  0  0  0  0  0
   66.3734  -10.8289    1.1471 O   0  0  0  0  0  0  0  0  0  0  0  0
   68.7644  -11.1300    1.8070 O   0  0  0  0  0  0  0  0  0  0  0  0
   61.6475  -10.6654    4.4605 C   0  0  2  0  0  0  0  0  0  0  0  0
   62.1926  -10.6354    5.7340 C   0  0  2  0  0  0  0  0  0  0  0  0
   63.3362   -9.8373    5.9820 C   0  0  1  0  0  0  0  0  0  0  0  0
   63.9606   -9.7088    7.0266 O   0  0  0  0  0  0  0  0  0  0  0  0
   61.4690  -11.4569    6.6050 N   0  0  0  0  0  0  0  0  0  0  0  0
   60.5535  -11.9209    5.8186 C   0  0  0  0  0  0  0  0  0  0  0  0
   60.5684  -11.5148    4.5245 N   0  0  0  0  0  0  0  0  0  0  0  0
  1  5  1  1  0  0  0
  1 14  1  0  0  0  0
  1 19  2  0  0  0  0
  2 15  1  1  0  0  0
  2 20  2  0  0  0  0
  2 23  1  0  0  0  0
  3 16  1  1  0  0  0
  3 21  2  0  0  0  0
  3 24  1  0  0  0  0
  3 25  1  0  0  0  0
  4  6  1  0  0  0  0
  5  4  1  0  0  0  0
  6  7  1  0  0  0  0
  6  8  2  0  0  0  0
  7 12  1  0  0  0  0
  8  9  1  0  0  0  0
  8 10  1  0  0  0  0
 10 11  1  0  0  0  0
 10 12  2  0  0  0  0
 12 32  1  0  0  0  0
 13 17  1  0  0  0  0
 17 18  1  6  0  0  0
 17 22  1  0  0  0  0
 23  1  1  0  0  0  0
 24  2  1  0  0  0  0
 26 22  1  6  0  0  0
 27 26  1  0  0  0  0
 27 28  1  0  0  0  0
 27 30  1  6  0  0  0
 28 13  1  0  0  0  0
 28 29  1  6  0  0  0
 31 30  1  0  0  0  0
 32 26  1  0  0  0  0
 32 31  1  0  0  0  0
M  CHG  3  14  -1  15  -1  16  -1
M  END
>  <CHROM.1>
-165.92924743,-64.86673130,-149.97198484,-18.11952071,-170.13653078,100.10448690
169.75657454,74.68473942,63.64527472,-11.58807435,2.58036118,0.24585309,-0.22768858
-2.26168018

>  <Name>
2au4_lig

>  <RI>
0

>  <Rbt.Current_Directory>
/home/itssahil/PROJECTS/Mol_Feturizer/New_Systems/rnas/2au4

>  <Rbt.Executable>
rbdock ($Id: //depot/dev/client3/rdock/2013.1/src/exe/rbdock.cxx#4 $)

>  <Rbt.Library>
libRbt.so (2013.1, Build901 2013/11/27)

>  <Rbt.Parameter_File>
/export/apps/rDock/src/rDock_2013.1_src/data/scripts/dock_solv.prm

>  <Rbt.Receptor>
prm/blind_docking_100.prm

>  <SCORE>
-36.6966

>  <SCORE.INTER>
-24.4553

>  <SCORE.INTER.CONST>
1

>  <SCORE.INTER.POLAR>
-4.65569

>  <SCORE.INTER.ROT>
8

>  <SCORE.INTER.SOLV>
33.0609

>  <SCORE.INTER.VDW>
-20.7382

>  <SCORE.INTER.norm>
-0.764229

>  <SCORE.INTRA>
-12.6689

>  <SCORE.INTRA.DIHEDRAL>
-20.4226

>  <SCORE.INTRA.DIHEDRAL.0>
76.3625

>  <SCORE.INTRA.POLAR>
0

>  <SCORE.INTRA.POLAR.0>
0

>  <SCORE.INTRA.REPUL>
-0.12705

>  <SCORE.INTRA.REPUL.0>
0.12705

>  <SCORE.INTRA.SOLV>
-5.15709

>  <SCORE.INTRA.SOLV.lig_0>
-119.383

>  <SCORE.INTRA.VDW>
0.756192

>  <SCORE.INTRA.VDW.0>
-5.10464

>  <SCORE.INTRA.norm>
-0.395903

>  <SCORE.RESTR>
0.427594

>  <SCORE.RESTR.CAVITY>
0.427594

>  <SCORE.RESTR.norm>
0.0133623

>  <SCORE.SYSTEM>
0

>  <SCORE.SYSTEM.CONST>
0

>  <SCORE.SYSTEM.DIHEDRAL>
0

>  <SCORE.SYSTEM.SOLV>
0

>  <SCORE.SYSTEM.norm>
0

>  <SCORE.heavy>
32

>  <SCORE.norm>
-1.14677

>  <RMSD>
20.685

$$$$
2au4_lig
 OpenBabel11021811423D
libRbt.so/2013.1/901 2013/11/27
 32 34  0  0  0  0  0  0  0  0999 V2000
   65.1570  -13.2965    3.1818 P   0  0  1  0  0  0  0  0  0  0  0  0
   66.1157  -10.8417    2.5303 P   0  0  1  0  0  0  0  0  0  0  0  0
   68.3735  -10.8060    0.9999 P   0  0  2  0  0  0  0  0  0  0  0  0
   63.3080  -13.7770    1.3431 C   0  0  0  0  0  0  0  0  0  0  0  0
   63.7068  -13.0626    2.5248 O   0  0  0  0  0  0  0  0  0  0  0  0
   61.8894  -13.4381    0.9092 C   0  0  0  0  0  0  0  0  0  0  0  0
   60.9521  -13.7302    1.9658 O   0  0  0  0  0  0  0  0  0  0  0  0
   61.7708  -11.9624    0.5615 C   0  0  0  0  0  0  0  0  0  0  0  0
   61.4483  -11.7869   -0.8234 O   0  0  0  0  0  0  0  0  0  0  0  0
   60.6853  -11.3990    1.4473 C   0  0  0  0  0  0  0  0  0  0  0  0
   59.6226  -10.8318    0.6695 O   0  0  0  0  0  0  0  0  0  0  0  0
   60.1786  -12.5559    2.2911 C   0  0  0  0  0  0  0  0  0  0  0  0
   62.3211   -9.5679    5.8334 N   0  0  0  0  0  0  0  0  0  0  0  0
   64.9966  -14.1234    4.3948 O   0  5  0  0  0  0  0  0  0  0  0  0
   65.1685  -10.8426    1.3985 O   0  5  0  0  0  0  0  0  0  0  0  0
   69.6481  -11.5448    0.8969 O   0  5  0  0  0  0  0  0  0  0  0  0
   62.4887   -9.5612    4.4690 C   0  0  1  0  0  0  0  0  0  0  0  0
   63.3287   -8.6565    3.9844 N   0  0  0  0  0  0  0  0  0  0  0  0
   66.0952  -13.7150    2.1184 O   0  0  0  0  0  0  0  0  0  0  0  0
   66.4824   -9.5709    3.1891 O   0  0  0  0  0  0  0  0  0  0  0  0
   68.3778   -9.3685    1.3431 O   0  0  0  0  0  0  0  0  0  0  0  0
   61.8673  -10.3983    3.6420 N   0  0  0  0  0  0  0  0  0  0  0  0
   65.5651  -11.8324    3.6402 O   0  0  0  0  0  0  0  0  0  0  0  0
   67.4542  -11.5582    2.0610 O   0  0  0  0  0  0  0  0  0  0  0  0
   67.5609  -11.0002   -0.3722 O   0  0  0  0  0  0  0  0  0  0  0  0
   61.0538  -11.2554    4.3009 C   0  0  2  0  0  0  0  0  0  0  0  0
   60.8272  -11.3303    5.6658 C   0  0  2  0  0  0  0  0  0  0  0  0
   61.4971  -10.4319    6.5320 C   0  0  1  0  0  0  0  0  0  0  0  0
   61.4390  -10.3683    7.7527 O   0  0  0  0  0  0  0  0  0  0  0  0
   59.9182  -12.3510    5.9644 N   0  0  0  0  0  0  0  0  0  0  0  0
   59.6603  -12.8175    4.7864 C   0  0  0  0  0  0  0  0  0  0  0  0
   60.2818  -12.2387    3.7288 N   0  0  0  0  0  0  0  0  0  0  0  0
  1  5  1  6  0  0  0
  1 14  1  0  0  0  0
  1 19  2  0  0  0  0
  2 15  1  6  0  0  0
  2 20  2  0  0  0  0
  2 23  1  0  0  0  0
  3 16  1  6  0  0  0
  3 21  2  0  0  0  0
  3 24  1  0  0  0  0
  3 25  1  0  0  0  0
  4  6  1  0  0  0  0
  5  4  1  0  0  0  0
  6  7  1  0  0  0  0
  6  8  2  0  0  0  0
  7 12  1  0  0  0  0
  8  9  1  0  0  0  0
  8 10  1  0  0  0  0
 10 11  1  0  0  0  0
 10 12  2  0  0  0  0
 12 32  1  0  0  0  0
 13 17  1  0  0  0  0
 17 18  1  1  0  0  0
 17 22  1  0  0  0  0
 23  1  1  0  0  0  0
 24  2  1  0  0  0  0
 26 22  1  1  0  0  0
 27 26  1  0  0  0  0
 27 28  1  0  0  0  0
 27 30  1  1  0  0  0
 28 13  1  0  0  0  0
 28 29  1  1  0  0  0
 31 30  1  0  0  0  0
 32 26  1  0  0  0  0
 32 31  1  0  0  0  0
M  CHG  3  14  -1  15  -1  16  -1
M  END
>  <CHROM.1>
-104.46140122,50.78467422,170.52103483,-58.19737400,178.44019485,102.43452877
-79.11315490,69.92840135,63.85387679,-11.57232947,2.80680556,-0.32491391
0.20837001,1.18256722

>  <Name>
2au4_lig

>  <RI>
0

>  <Rbt.Current_Directory>
/home/itssahil/PROJECTS/Mol_Feturizer/New_Systems/rnas/2au4

>  <Rbt.Executable>
rbdock ($Id: //depot/dev/client3/rdock/2013.1/src/exe/rbdock.cxx#4 $)

>  <Rbt.Library>
libRbt.so (2013.1, Build901 2013/11/27)

>  <Rbt.Parameter_File>
/export/apps/rDock/src/rDock_2013.1_src/data/scripts/dock_solv.prm

>  <Rbt.Receptor>
prm/blind_docking_100.prm

>  <SCORE>
-24.7659

>  <SCORE.INTER>
-13.8856

>  <SCORE.INTER.CONST>
1

>  <SCORE.INTER.POLAR>
-2.33172

>  <SCORE.INTER.ROT>
8

>  <SCORE.INTER.SOLV>
18.1012

>  <SCORE.INTER.VDW>
-16.4517

>  <SCORE.INTER.norm>
-0.433925

>  <SCORE.INTRA>
-11.6752

>  <SCORE.INTRA.DIHEDRAL>
-21.5831

>  <SCORE.INTRA.DIHEDRAL.0>
76.3625

>  <SCORE.INTRA.POLAR>
0

>  <SCORE.INTRA.POLAR.0>
0

>  <SCORE.INTRA.REPUL>
-0.12705

>  <SCORE.INTRA.REPUL.0>
0.12705

>  <SCORE.INTRA.SOLV>
-0.42032

>  <SCORE.INTRA.SOLV.lig_0>
-119.383

>  <SCORE.INTRA.VDW>
-0.0382669

>  <SCORE.INTRA.VDW.0>
-5.10464

>  <SCORE.INTRA.norm>
-0.364851

>  <SCORE.RESTR>
0.794982

>  <SCORE.RESTR.CAVITY>
0.794982

>  <SCORE.RESTR.norm>
0.0248432

>  <SCORE.SYSTEM>
0

>  <SCORE.SYSTEM.CONST>
0

>  <SCORE.SYSTEM.DIHEDRAL>
0

>  <SCORE.SYSTEM.SOLV>
0

>  <SCORE.SYSTEM.norm>
0

>  <SCORE.heavy>
32

>  <SCORE.norm>
-0.773933

>  <RMSD>
20.689

$$$$
2au4_lig
 OpenBabel11021811423D
libRbt.so/2013.1/901 2013/11/27
 32 34  0  0  0  0  0  0  0  0999 V2000
   53.8749   -6.0334   -3.5303 P   0  0  1  0  0  0  0  0  0  0  0  0
   54.4477   -8.4556   -2.4466 P   0  0  1  0  0  0  0  0  0  0  0  0
   53.6690  -10.1001   -4.4789 P   0  0  2  0  0  0  0  0  0  0  0  0
   54.6754   -6.4509   -6.0234 C   0  0  0  0  0  0  0  0  0  0  0  0
   54.5321   -6.9456   -4.6816 O   0  0  0  0  0  0  0  0  0  0  0  0
   56.0623   -6.7090   -6.5937 C   0  0  0  0  0  0  0  0  0  0  0  0
   56.3405   -5.8031   -7.6810 O   0  0  0  0  0  0  0  0  0  0  0  0
   57.1281   -6.5144   -5.5266 C   0  0  0  0  0  0  0  0  0  0  0  0
   57.8154   -7.7428   -5.2593 O   0  0  0  0  0  0  0  0  0  0  0  0
   58.0770   -5.4651   -6.0546 C   0  0  0  0  0  0  0  0  0  0  0  0
   59.4153   -5.9725   -6.1427 O   0  0  0  0  0  0  0  0  0  0  0  0
   57.5579   -5.0706   -7.4265 C   0  0  0  0  0  0  0  0  0  0  0  0
   56.2562   -1.1229  -10.3909 N   0  0  0  0  0  0  0  0  0  0  0  0
   54.7004   -4.8206   -3.3619 O   0  5  0  0  0  0  0  0  0  0  0  0
   55.7288   -8.5086   -3.1774 O   0  5  0  0  0  0  0  0  0  0  0  0
   52.4744  -10.3506   -5.3104 O   0  5  0  0  0  0  0  0  0  0  0  0
   56.3812   -2.4530  -10.7146 C   0  0  1  0  0  0  0  0  0  0  0  0
   56.1359   -2.7763  -11.9774 N   0  0  0  0  0  0  0  0  0  0  0  0
   52.4251   -5.9123   -3.7940 O   0  0  0  0  0  0  0  0  0  0  0  0
   54.3039   -9.1515   -1.1510 O   0  0  0  0  0  0  0  0  0  0  0  0
   54.3116  -11.2154   -3.7529 O   0  0  0  0  0  0  0  0  0  0  0  0
   56.7296   -3.3978   -9.8447 N   0  0  0  0  0  0  0  0  0  0  0  0
   54.0590   -6.9323   -2.2348 O   0  0  0  0  0  0  0  0  0  0  0  0
   53.2994   -8.9739   -3.4151 O   0  0  0  0  0  0  0  0  0  0  0  0
   54.7786   -9.3769   -5.3880 O   0  0  0  0  0  0  0  0  0  0  0  0
   56.9468   -2.8959   -8.6072 C   0  0  2  0  0  0  0  0  0  0  0  0
   56.8436   -1.5766   -8.1965 C   0  0  2  0  0  0  0  0  0  0  0  0
   56.4720   -0.5834   -9.1355 C   0  0  1  0  0  0  0  0  0  0  0  0
   56.3559    0.6221   -8.9600 O   0  0  0  0  0  0  0  0  0  0  0  0
   57.1487   -1.4529   -6.8369 N   0  0  0  0  0  0  0  0  0  0  0  0
   57.4116   -2.6788   -6.5205 C   0  0  0  0  0  0  0  0  0  0  0  0
   57.3218   -3.6155   -7.4973 N   0  0  0  0  0  0  0  0  0  0  0  0
  1  5  1  6  0  0  0
  1 14  1  0  0  0  0
  1 19  2  0  0  0  0
  2 15  1  6  0  0  0
  2 20  2  0  0  0  0
  2 23  1  0  0  0  0
  3 16  1  6  0  0  0
  3 21  2  0  0  0  0
  3 24  1  0  0  0  0
  3 25  1  0  0  0  0
  4  6  1  0  0  0  0
  5  4  1  0  0  0  0
  6  7  1  0  0  0  0
  6  8  2  0  0  0  0
  7 12  1  0  0  0  0
  8  9  1  0  0  0  0
  8 10  1  0  0  0  0
 10 11  1  0  0  0  0
 10 12  2  0  0  0  0
 12 32  1  0  0  0  0
 13 17  1  0  0  0  0
 17 18  1  6  0  0  0
 17 22  1  0  0  0  0
 23  1  1  0  0  0  0
 24  2  1  0  0  0  0
 26 22  1  6  0  0  0
 27 26  1  0  0  0  0
 27 28  1  0  0  0  0
 27 30  1  6  0  0  0
 28 13  1  0  0  0  0
 28 29  1  6  0  0  0
 31 30  1  0  0  0  0
 32 26  1  0  0  0  0
 32 31  1  0  0  0  0
M  CHG  3  14  -1  15  -1  16  -1
M  END
>  <CHROM.1>
-60.88350048,59.41437200,-176.44566798,-158.48547511,132.94608928,-64.65569942
-13.98257041,32.72293686,55.50003195,-5.94676558,-5.75669401,2.38728737,-1.15467655
-3.05572055

>  <Name>
2au4_lig

>  <RI>
0

>  <Rbt.Current_Directory>
/home/afrankz/demos/rdock_decoys_rna/rnas/2au4

>  <Rbt.Executable>
rbdock ($Id: //depot/dev/client3/rdock/2013.1/src/exe/rbdock.cxx#4 $)

>  <Rbt.Library>
libRbt.so (2013.1, Build901 2013/11/27)

>  <Rbt.Parameter_File>
/export/apps/rDock/src/rDock_2013.1_src/data/scripts/dock_solv.prm

>  <Rbt.Receptor>
prm/blind_docking_60.prm

>  <SCORE>
9.9601

>  <SCORE.INTER>
7.41594

>  <SCORE.INTER.CONST>
1

>  <SCORE.INTER.POLAR>
0

>  <SCORE.INTER.ROT>
8

>  <SCORE.INTER.SOLV>
20.2625

>  <SCORE.INTER.VDW>
-10.7436

>  <SCORE.INTER.norm>
0.231748

>  <SCORE.INTRA>
-13.4773

>  <SCORE.INTRA.DIHEDRAL>
-25.2032

>  <SCORE.INTRA.DIHEDRAL.0>
76.3625

>  <SCORE.INTRA.POLAR>
0

>  <SCORE.INTRA.POLAR.0>
0

>  <SCORE.INTRA.REPUL>
-0.117071

>  <SCORE.INTRA.REPUL.0>
0.12705

>  <SCORE.INTRA.SOLV>
-4.60294

>  <SCORE.INTRA.SOLV.lig_0>
-119.383

>  <SCORE.INTRA.VDW>
2.01118

>  <SCORE.INTRA.VDW.0>
-5.10464

>  <SCORE.INTRA.norm>
-0.421164

>  <SCORE.RESTR>
16.0214

>  <SCORE.RESTR.CAVITY>
16.0214

>  <SCORE.RESTR.norm>
0.500669

>  <SCORE.SYSTEM>
0

>  <SCORE.SYSTEM.CONST>
0

>  <SCORE.SYSTEM.DIHEDRAL>
0

>  <SCORE.SYSTEM.SOLV>
0

>  <SCORE.SYSTEM.norm>
0

>  <SCORE.heavy>
32

>  <SCORE.norm>
0.311253

>  <RMSD>
20.699

$$$$
2au4_lig
 OpenBabel11021811423D
libRbt.so/2013.1/901 2013/11/27
 32 34  0  0  0  0  0  0  0  0999 V2000
   66.4558   -9.2388    3.3796 P   0  0  1  0  0  0  0  0  0  0  0  0
   67.7086  -10.0487    1.1115 P   0  0  1  0  0  0  0  0  0  0  0  0
   66.5825  -12.5279    1.2735 P   0  0  2  0  0  0  0  0  0  0  0  0
   64.4196  -10.5494    4.4598 C   0  0  0  0  0  0  0  0  0  0  0  0
   65.6375  -10.5874    3.6975 O   0  0  0  0  0  0  0  0  0  0  0  0
   63.9742  -11.9316    4.9141 C   0  0  0  0  0  0  0  0  0  0  0  0
   62.6768  -12.2508    4.3708 O   0  0  0  0  0  0  0  0  0  0  0  0
   64.9591  -12.9939    4.4513 C   0  0  0  0  0  0  0  0  0  0  0  0
   65.5829  -13.6360    5.5700 O   0  0  0  0  0  0  0  0  0  0  0  0
   64.1680  -13.9832    3.6293 C   0  0  0  0  0  0  0  0  0  0  0  0
   64.2553  -15.3039    4.1810 O   0  0  0  0  0  0  0  0  0  0  0  0
   62.7312  -13.4904    3.6334 C   0  0  0  0  0  0  0  0  0  0  0  0
   59.7199  -10.7723    0.5334 N   0  0  0  0  0  0  0  0  0  0  0  0
   65.7015   -8.4546    2.3811 O   0  5  0  0  0  0  0  0  0  0  0  0
   67.4335   -8.7627    0.4417 O   0  5  0  0  0  0  0  0  0  0  0  0
   67.0397  -12.6671    2.6710 O   0  5  0  0  0  0  0  0  0  0  0  0
   59.9349  -10.6324    1.8839 C   0  0  1  0  0  0  0  0  0  0  0  0
   59.2684   -9.6574    2.4873 N   0  0  0  0  0  0  0  0  0  0  0  0
   66.8579   -8.6177    4.6597 O   0  0  0  0  0  0  0  0  0  0  0  0
   68.8948  -10.8437    0.7314 O   0  0  0  0  0  0  0  0  0  0  0  0
   67.3647  -13.1340    0.1759 O   0  0  0  0  0  0  0  0  0  0  0  0
   60.7532  -11.4101    2.5883 N   0  0  0  0  0  0  0  0  0  0  0  0
   67.7669   -9.7920    2.6759 O   0  0  0  0  0  0  0  0  0  0  0  0
   66.4256  -10.9741    0.9608 O   0  0  0  0  0  0  0  0  0  0  0  0
   65.0706  -13.0621    1.1777 O   0  0  0  0  0  0  0  0  0  0  0  0
   61.3466  -12.3531    1.8207 C   0  0  2  0  0  0  0  0  0  0  0  0
   61.1877  -12.5630    0.4603 C   0  0  2  0  0  0  0  0  0  0  0  0
   60.3124  -11.7263   -0.2745 C   0  0  1  0  0  0  0  0  0  0  0  0
   60.0323  -11.7789   -1.4646 O   0  0  0  0  0  0  0  0  0  0  0  0
   61.9707  -13.6384    0.0275 N   0  0  0  0  0  0  0  0  0  0  0  0
   62.5395  -14.0017    1.1304 C   0  0  0  0  0  0  0  0  0  0  0  0
   62.2383  -13.3053    2.2547 N   0  0  0  0  0  0  0  0  0  0  0  0
  1  5  1  1  0  0  0
  1 14  1  0  0  0  0
  1 19  2  0  0  0  0
  2 15  1  6  0  0  0
  2 20  2  0  0  0  0
  2 23  1  0  0  0  0
  3 16  1  1  0  0  0
  3 21  2  0  0  0  0
  3 24  1  0  0  0  0
  3 25  1  0  0  0  0
  4  6  1  0  0  0  0
  5  4  1  0  0  0  0
  6  7  1  0  0  0  0
  6  8  2  0  0  0  0
  7 12  1  0  0  0  0
  8  9  1  0  0  0  0
  8 10  1  0  0  0  0
 10 11  1  0  0  0  0
 10 12  2  0  0  0  0
 12 32  1  0  0  0  0
 13 17  1  0  0  0  0
 17 18  1  1  0  0  0
 17 22  1  0  0  0  0
 23  1  1  0  0  0  0
 24  2  1  0  0  0  0
 26 22  1  1  0  0  0
 27 26  1  0  0  0  0
 27 28  1  0  0  0  0
 27 30  1  1  0  0  0
 28 13  1  0  0  0  0
 28 29  1  1  0  0  0
 31 30  1  0  0  0  0
 32 26  1  0  0  0  0
 32 31  1  0  0  0  0
M  CHG  3  14  -1  15  -1  16  -1
M  END
>  <CHROM.1>
-71.94806534,61.49841497,59.22470003,-119.20537567,-167.07647449,-26.19309541
86.07127403,165.13985839,64.49164680,-11.56187884,2.20050555,0.07833275,-0.27080818
-0.80044080

>  <Name>
2au4_lig

>  <RI>
0

>  <Rbt.Current_Directory>
/home/itssahil/PROJECTS/Mol_Feturizer/New_Systems/rnas/2au4

>  <Rbt.Executable>
rbdock ($Id: //depot/dev/client3/rdock/2013.1/src/exe/rbdock.cxx#4 $)

>  <Rbt.Library>
libRbt.so (2013.1, Build901 2013/11/27)

>  <Rbt.Parameter_File>
/export/apps/rDock/src/rDock_2013.1_src/data/scripts/dock_solv.prm

>  <Rbt.Receptor>
prm/blind_docking_100.prm

>  <SCORE>
-41.908

>  <SCORE.INTER>
-19.1472

>  <SCORE.INTER.CONST>
1

>  <SCORE.INTER.POLAR>
-3.22369

>  <SCORE.INTER.ROT>
8

>  <SCORE.INTER.SOLV>
30.4753

>  <SCORE.INTER.VDW>
-21.111

>  <SCORE.INTER.norm>
-0.598351

>  <SCORE.INTRA>
-23.6746

>  <SCORE.INTRA.DIHEDRAL>
-48.6557

>  <SCORE.INTRA.DIHEDRAL.0>
76.3625

>  <SCORE.INTRA.POLAR>
0

>  <SCORE.INTRA.POLAR.0>
0

>  <SCORE.INTRA.REPUL>
0.0711191

>  <SCORE.INTRA.REPUL.0>
0.12705

>  <SCORE.INTRA.SOLV>
-0.415036

>  <SCORE.INTRA.SOLV.lig_0>
-119.383

>  <SCORE.INTRA.VDW>
0.505183

>  <SCORE.INTRA.VDW.0>
-5.10464

>  <SCORE.INTRA.norm>
-0.739831

>  <SCORE.RESTR>
0.913818

>  <SCORE.RESTR.CAVITY>
0.913818

>  <SCORE.RESTR.norm>
0.0285568

>  <SCORE.SYSTEM>
0

>  <SCORE.SYSTEM.CONST>
0

>  <SCORE.SYSTEM.DIHEDRAL>
0

>  <SCORE.SYSTEM.SOLV>
0

>  <SCORE.SYSTEM.norm>
0

>  <SCORE.heavy>
32

>  <SCORE.norm>
-1.30962

>  <RMSD>
20.706

$$$$
2au4_lig
 OpenBabel11021811423D
libRbt.so/2013.1/901 2013/11/27
 32 34  0  0  0  0  0  0  0  0999 V2000
   65.3058  -10.0355    4.1484 P   0  0  1  0  0  0  0  0  0  0  0  0
   66.1152  -11.7524    2.2077 P   0  0  1  0  0  0  0  0  0  0  0  0
   68.2261  -10.7726    0.7847 P   0  0  2  0  0  0  0  0  0  0  0  0
   62.8255  -10.0728    5.0852 C   0  0  0  0  0  0  0  0  0  0  0  0
   63.7093   -9.9758    3.9559 O   0  0  0  0  0  0  0  0  0  0  0  0
   62.5316  -11.5148    5.4719 C   0  0  0  0  0  0  0  0  0  0  0  0
   61.6587  -12.1320    4.5038 O   0  0  0  0  0  0  0  0  0  0  0  0
   63.8159  -12.3262    5.5411 C   0  0  0  0  0  0  0  0  0  0  0  0
   64.0557  -12.7927    6.8745 O   0  0  0  0  0  0  0  0  0  0  0  0
   63.6452  -13.4818    4.5841 C   0  0  0  0  0  0  0  0  0  0  0  0
   63.7747  -14.7395    5.2605 O   0  0  0  0  0  0  0  0  0  0  0  0
   62.2600  -13.3345    3.9787 C   0  0  0  0  0  0  0  0  0  0  0  0
   59.9775  -11.8510   -0.3406 N   0  0  0  0  0  0  0  0  0  0  0  0
   65.9320   -9.1169    3.1764 O   0  5  0  0  0  0  0  0  0  0  0  0
   66.2488  -13.2050    1.9839 O   0  5  0  0  0  0  0  0  0  0  0  0
   67.5754   -9.5555    0.2588 O   0  5  0  0  0  0  0  0  0  0  0  0
   59.5588  -11.7083    0.9609 C   0  0  1  0  0  0  0  0  0  0  0  0
   58.3922  -11.1032    1.1401 N   0  0  0  0  0  0  0  0  0  0  0  0
   65.6124   -9.9110    5.5895 O   0  0  0  0  0  0  0  0  0  0  0  0
   65.2488  -10.9430    1.3259 O   0  0  0  0  0  0  0  0  0  0  0  0
   68.2345  -12.0126   -0.0194 O   0  0  0  0  0  0  0  0  0  0  0  0
   60.2495  -12.1402    2.0131 N   0  0  0  0  0  0  0  0  0  0  0  0
   65.6485  -11.5211    3.7061 O   0  0  0  0  0  0  0  0  0  0  0  0
   67.5687  -11.1102    2.1956 O   0  0  0  0  0  0  0  0  0  0  0  0
   69.7407  -10.4098    1.1782 O   0  0  0  0  0  0  0  0  0  0  0  0
   61.4093  -12.7358    1.6518 C   0  0  2  0  0  0  0  0  0  0  0  0
   61.9052  -12.9205    0.3712 C   0  0  2  0  0  0  0  0  0  0  0  0
   61.1570  -12.4550   -0.7378 C   0  0  1  0  0  0  0  0  0  0  0  0
   61.4238  -12.5512   -1.9282 O   0  0  0  0  0  0  0  0  0  0  0  0
   63.1378  -13.5811    0.4049 N   0  0  0  0  0  0  0  0  0  0  0  0
   63.3035  -13.7501    1.6761 C   0  0  0  0  0  0  0  0  0  0  0  0
   62.3361  -13.2855    2.5055 N   0  0  0  0  0  0  0  0  0  0  0  0
  1  5  1  6  0  0  0
  1 14  1  0  0  0  0
  1 19  2  0  0  0  0
  2 15  1  6  0  0  0
  2 20  2  0  0  0  0
  2 23  1  0  0  0  0
  3 16  1  6  0  0  0
  3 21  2  0  0  0  0
  3 24  1  0  0  0  0
  3 25  1  0  0  0  0
  4  6  1  0  0  0  0
  5  4  1  0  0  0  0
  6  7  1  0  0  0  0
  6  8  2  0  0  0  0
  7 12  1  0  0  0  0
  8  9  1  0  0  0  0
  8 10  1  0  0  0  0
 10 11  1  0  0  0  0
 10 12  2  0  0  0  0
 12 32  1  0  0  0  0
 13 17  1  0  0  0  0
 17 18  1  6  0  0  0
 17 22  1  0  0  0  0
 23  1  1  0  0  0  0
 24  2  1  0  0  0  0
 26 22  1  6  0  0  0
 27 26  1  0  0  0  0
 27 28  1  0  0  0  0
 27 30  1  6  0  0  0
 28 13  1  0  0  0  0
 28 29  1  6  0  0  0
 31 30  1  0  0  0  0
 32 26  1  0  0  0  0
 32 31  1  0  0  0  0
M  CHG  3  14  -1  15  -1  16  -1
M  END
>  <CHROM.1>
-143.78019845,-174.49997235,75.37092534,-72.44013814,-84.91342804,-36.50282259
95.60228881,82.42202820,64.22106461,-11.70041455,2.46448713,0.04374806,0.23730839
1.54063240

>  <Name>
2au4_lig

>  <RI>
0

>  <Rbt.Current_Directory>
/home/itssahil/PROJECTS/Mol_Feturizer/New_Systems/rnas/2au4

>  <Rbt.Executable>
rbdock ($Id: //depot/dev/client3/rdock/2013.1/src/exe/rbdock.cxx#4 $)

>  <Rbt.Library>
libRbt.so (2013.1, Build901 2013/11/27)

>  <Rbt.Parameter_File>
/export/apps/rDock/src/rDock_2013.1_src/data/scripts/dock_solv.prm

>  <Rbt.Receptor>
prm/blind_docking_100.prm

>  <SCORE>
-44.7954

>  <SCORE.INTER>
-25.1407

>  <SCORE.INTER.CONST>
1

>  <SCORE.INTER.POLAR>
-3.89215

>  <SCORE.INTER.ROT>
8

>  <SCORE.INTER.SOLV>
25.781

>  <SCORE.INTER.VDW>
-21.3137

>  <SCORE.INTER.norm>
-0.785648

>  <SCORE.INTRA>
-20.1914

>  <SCORE.INTRA.DIHEDRAL>
-43.479

>  <SCORE.INTRA.DIHEDRAL.0>
76.3625

>  <SCORE.INTRA.POLAR>
0

>  <SCORE.INTRA.POLAR.0>
0

>  <SCORE.INTRA.REPUL>
0.0359071

>  <SCORE.INTRA.REPUL.0>
0.12705

>  <SCORE.INTRA.SOLV>
4.31656

>  <SCORE.INTRA.SOLV.lig_0>
-119.383

>  <SCORE.INTRA.VDW>
-0.789758

>  <SCORE.INTRA.VDW.0>
-5.10464

>  <SCORE.INTRA.norm>
-0.630983

>  <SCORE.RESTR>
0.536781

>  <SCORE.RESTR.CAVITY>
0.536781

>  <SCORE.RESTR.norm>
0.0167744

>  <SCORE.SYSTEM>
0

>  <SCORE.SYSTEM.CONST>
0

>  <SCORE.SYSTEM.DIHEDRAL>
0

>  <SCORE.SYSTEM.SOLV>
0

>  <SCORE.SYSTEM.norm>
0

>  <SCORE.heavy>
32

>  <SCORE.norm>
-1.39986

>  <RMSD>
20.846

$$$$
2au4_lig
 OpenBabel11021811423D
libRbt.so/2013.1/901 2013/11/27
 32 34  0  0  0  0  0  0  0  0999 V2000
   64.9860  -13.8420    2.7353 P   0  0  1  0  0  0  0  0  0  0  0  0
   64.8810  -11.1751    2.2393 P   0  0  1  0  0  0  0  0  0  0  0  0
   67.3149  -10.2599    1.4151 P   0  0  2  0  0  0  0  0  0  0  0  0
   62.7814  -13.8242    1.2621 C   0  0  0  0  0  0  0  0  0  0  0  0
   63.3873  -13.7758    2.5646 O   0  0  0  0  0  0  0  0  0  0  0  0
   61.3174  -13.4101    1.2857 C   0  0  0  0  0  0  0  0  0  0  0  0
   60.8869  -13.1441    2.6363 O   0  0  0  0  0  0  0  0  0  0  0  0
   61.1004  -12.1517    0.4598 C   0  0  0  0  0  0  0  0  0  0  0  0
   60.2445  -12.4145   -0.6588 O   0  0  0  0  0  0  0  0  0  0  0  0
   60.4843  -11.1313    1.3869 C   0  0  0  0  0  0  0  0  0  0  0  0
   59.2097  -10.6902    0.9001 O   0  0  0  0  0  0  0  0  0  0  0  0
   60.3403  -11.8121    2.7371 C   0  0  0  0  0  0  0  0  0  0  0  0
   62.8668  -11.9913    7.1700 N   0  0  0  0  0  0  0  0  0  0  0  0
   65.3202  -13.5734    4.1484 O   0  5  0  0  0  0  0  0  0  0  0  0
   63.4741  -11.1319    1.7958 O   0  5  0  0  0  0  0  0  0  0  0  0
   67.6646  -10.7788    2.7528 O   0  5  0  0  0  0  0  0  0  0  0  0
   62.3281  -13.0175    6.4308 C   0  0  1  0  0  0  0  0  0  0  0  0
   62.4722  -14.2386    6.9279 N   0  0  0  0  0  0  0  0  0  0  0  0
   65.4805  -15.0704    2.0773 O   0  0  0  0  0  0  0  0  0  0  0  0
   65.2243  -10.8807    3.6460 O   0  0  0  0  0  0  0  0  0  0  0  0
   67.8466   -8.9564    0.9655 O   0  0  0  0  0  0  0  0  0  0  0  0
   61.6867  -12.8429    5.2781 N   0  0  0  0  0  0  0  0  0  0  0  0
   65.4737  -12.6006    1.8743 O   0  0  0  0  0  0  0  0  0  0  0  0
   65.7267  -10.2013    1.3109 O   0  0  0  0  0  0  0  0  0  0  0  0
   67.6999  -11.3721    0.3217 O   0  0  0  0  0  0  0  0  0  0  0  0
   61.6264  -11.5394    4.9207 C   0  0  2  0  0  0  0  0  0  0  0  0
   62.1399  -10.4481    5.6027 C   0  0  2  0  0  0  0  0  0  0  0  0
   62.8196  -10.6516    6.8286 C   0  0  1  0  0  0  0  0  0  0  0  0
   63.3118   -9.8135    7.5723 O   0  0  0  0  0  0  0  0  0  0  0  0
   61.8744   -9.2600    4.9134 N   0  0  0  0  0  0  0  0  0  0  0  0
   61.2308   -9.7003    3.8820 C   0  0  0  0  0  0  0  0  0  0  0  0
   61.0287  -11.0383    3.7885 N   0  0  0  0  0  0  0  0  0  0  0  0
  1  5  1  6  0  0  0
  1 14  1  0  0  0  0
  1 19  2  0  0  0  0
  2 15  1  6  0  0  0
  2 20  2  0  0  0  0
  2 23  1  0  0  0  0
  3 16  1  1  0  0  0
  3 21  2  0  0  0  0
  3 24  1  0  0  0  0
  3 25  1  0  0  0  0
  4  6  1  0  0  0  0
  5  4  1  0  0  0  0
  6  7  1  0  0  0  0
  6  8  2  0  0  0  0
  7 12  1  0  0  0  0
  8  9  1  0  0  0  0
  8 10  1  0  0  0  0
 10 11  1  0  0  0  0
 10 12  2  0  0  0  0
 12 32  1  0  0  0  0
 13 17  1  0  0  0  0
 17 18  1  1  0  0  0
 17 22  1  0  0  0  0
 23  1  1  0  0  0  0
 24  2  1  0  0  0  0
 26 22  1  1  0  0  0
 27 26  1  0  0  0  0
 27 28  1  0  0  0  0
 27 30  1  1  0  0  0
 28 13  1  0  0  0  0
 28 29  1  1  0  0  0
 31 30  1  0  0  0  0
 32 26  1  0  0  0  0
 32 31  1  0  0  0  0
M  CHG  3  14  -1  15  -1  16  -1
M  END
>  <CHROM.1>
171.77960386,-72.56578088,-24.62910427,-3.26135287,-165.93058476,-28.60183064
56.02846754,-169.43134713,63.60637392,-11.76734286,3.01670532,-0.45798743
0.16827288,1.47048496

>  <Name>
2au4_lig

>  <RI>
0

>  <Rbt.Current_Directory>
/home/itssahil/PROJECTS/Mol_Feturizer/New_Systems/rnas/2au4

>  <Rbt.Executable>
rbdock ($Id: //depot/dev/client3/rdock/2013.1/src/exe/rbdock.cxx#4 $)

>  <Rbt.Library>
libRbt.so (2013.1, Build901 2013/11/27)

>  <Rbt.Parameter_File>
/export/apps/rDock/src/rDock_2013.1_src/data/scripts/dock_solv.prm

>  <Rbt.Receptor>
prm/blind_docking_100.prm

>  <SCORE>
-41.7328

>  <SCORE.INTER>
-18.4613

>  <SCORE.INTER.CONST>
1

>  <SCORE.INTER.POLAR>
-2.81816

>  <SCORE.INTER.ROT>
8

>  <SCORE.INTER.SOLV>
19.9056

>  <SCORE.INTER.VDW>
-18.4822

>  <SCORE.INTER.norm>
-0.576916

>  <SCORE.INTRA>
-23.3362

>  <SCORE.INTRA.DIHEDRAL>
-49.12

>  <SCORE.INTRA.DIHEDRAL.0>
76.3625

>  <SCORE.INTRA.POLAR>
0

>  <SCORE.INTRA.POLAR.0>
0

>  <SCORE.INTRA.REPUL>
0.0674601

>  <SCORE.INTRA.REPUL.0>
0.12705

>  <SCORE.INTRA.SOLV>
3.9663

>  <SCORE.INTRA.SOLV.lig_0>
-119.383

>  <SCORE.INTRA.VDW>
-1.09663

>  <SCORE.INTRA.VDW.0>
-5.10464

>  <SCORE.INTRA.norm>
-0.729256

>  <SCORE.RESTR>
0.0646489

>  <SCORE.RESTR.CAVITY>
0.0646489

>  <SCORE.RESTR.norm>
0.00202028

>  <SCORE.SYSTEM>
0

>  <SCORE.SYSTEM.CONST>
0

>  <SCORE.SYSTEM.DIHEDRAL>
0

>  <SCORE.SYSTEM.SOLV>
0

>  <SCORE.SYSTEM.norm>
0

>  <SCORE.heavy>
32

>  <SCORE.norm>
-1.30415

>  <RMSD>
20.850

$$$$
2au4_lig
 OpenBabel11021811423D
libRbt.so/2013.1/901 2013/11/27
 32 34  0  0  0  0  0  0  0  0999 V2000
   62.9392  -12.4250   -0.5349 P   0  0  1  0  0  0  0  0  0  0  0  0
   65.2731  -12.1998    0.8330 P   0  0  1  0  0  0  0  0  0  0  0  0
   67.2019  -10.3767    1.4631 P   0  0  2  0  0  0  0  0  0  0  0  0
   60.8027  -11.0912    0.2940 C   0  0  0  0  0  0  0  0  0  0  0  0
   62.1972  -11.3985    0.4576 O   0  0  0  0  0  0  0  0  0  0  0  0
   59.9227  -11.8330    1.2893 C   0  0  0  0  0  0  0  0  0  0  0  0
   60.5787  -13.0312    1.7522 O   0  0  0  0  0  0  0  0  0  0  0  0
   59.6199  -10.9589    2.4963 C   0  0  0  0  0  0  0  0  0  0  0  0
   58.2175  -10.6798    2.5875 O   0  0  0  0  0  0  0  0  0  0  0  0
   60.1020  -11.7195    3.7084 C   0  0  0  0  0  0  0  0  0  0  0  0
   59.0316  -11.9556    4.6329 O   0  0  0  0  0  0  0  0  0  0  0  0
   60.6689  -13.0310    3.1927 C   0  0  0  0  0  0  0  0  0  0  0  0
   64.1173  -12.0902    6.8382 N   0  0  0  0  0  0  0  0  0  0  0  0
   62.8963  -13.7739    0.0646 O   0  5  0  0  0  0  0  0  0  0  0  0
   64.6519  -11.4448    1.9385 O   0  5  0  0  0  0  0  0  0  0  0  0
   67.6063  -10.9908    2.7439 O   0  5  0  0  0  0  0  0  0  0  0  0
   62.7916  -11.7317    6.7780 C   0  0  1  0  0  0  0  0  0  0  0  0
   62.3235  -11.0361    7.8056 N   0  0  0  0  0  0  0  0  0  0  0  0
   62.4304  -12.2069   -1.9060 O   0  0  0  0  0  0  0  0  0  0  0  0
   65.4699  -13.6595    0.9508 O   0  0  0  0  0  0  0  0  0  0  0  0
   66.1990   -9.2913    1.4476 O   0  0  0  0  0  0  0  0  0  0  0  0
   61.9860  -12.0397    5.7646 N   0  0  0  0  0  0  0  0  0  0  0  0
   64.4430  -11.9185   -0.4892 O   0  0  0  0  0  0  0  0  0  0  0  0
   66.6799  -11.5372    0.5053 O   0  0  0  0  0  0  0  0  0  0  0  0
   68.5224   -9.8617    0.7069 O   0  0  0  0  0  0  0  0  0  0  0  0
   62.6244  -12.7448    4.8023 C   0  0  2  0  0  0  0  0  0  0  0  0
   63.9503  -13.1464    4.7833 C   0  0  2  0  0  0  0  0  0  0  0  0
   64.7942  -12.8098    5.8699 C   0  0  1  0  0  0  0  0  0  0  0  0
   65.9845  -13.0561    6.0117 O   0  0  0  0  0  0  0  0  0  0  0  0
   64.2385  -13.8577    3.6137 N   0  0  0  0  0  0  0  0  0  0  0  0
   63.0931  -13.8399    3.0139 C   0  0  0  0  0  0  0  0  0  0  0  0
   62.0667  -13.2051    3.6330 N   0  0  0  0  0  0  0  0  0  0  0  0
  1  5  1  1  0  0  0
  1 14  1  0  0  0  0
  1 19  2  0  0  0  0
  2 15  1  1  0  0  0
  2 20  2  0  0  0  0
  2 23  1  0  0  0  0
  3 16  1  1  0  0  0
  3 21  2  0  0  0  0
  3 24  1  0  0  0  0
  3 25  1  0  0  0  0
  4  6  1  0  0  0  0
  5  4  1  0  0  0  0
  6  7  1  0  0  0  0
  6  8  2  0  0  0  0
  7 12  1  0  0  0  0
  8  9  1  0  0  0  0
  8 10  1  0  0  0  0
 10 11  1  0  0  0  0
 10 12  2  0  0  0  0
 12 32  1  0  0  0  0
 13 17  1  0  0  0  0
 17 18  1  6  0  0  0
 17 22  1  0  0  0  0
 23  1  1  0  0  0  0
 24  2  1  0  0  0  0
 26 22  1  6  0  0  0
 27 26  1  0  0  0  0
 27 28  1  0  0  0  0
 27 30  1  6  0  0  0
 28 13  1  0  0  0  0
 28 29  1  6  0  0  0
 31 30  1  0  0  0  0
 32 26  1  0  0  0  0
 32 31  1  0  0  0  0
M  CHG  3  14  -1  15  -1  16  -1
M  END
>  <CHROM.1>
-93.50227324,-64.74161810,72.34401471,-24.01675935,101.84729617,151.97186087
72.54689949,6.49774706,63.50414680,-11.97751367,2.42384098,0.53451639,-0.11098622
-1.51704563

>  <Name>
2au4_lig

>  <RI>
0

>  <Rbt.Current_Directory>
/home/itssahil/PROJECTS/Mol_Feturizer/New_Systems/rnas/2au4

>  <Rbt.Executable>
rbdock ($Id: //depot/dev/client3/rdock/2013.1/src/exe/rbdock.cxx#4 $)

>  <Rbt.Library>
libRbt.so (2013.1, Build901 2013/11/27)

>  <Rbt.Parameter_File>
/export/apps/rDock/src/rDock_2013.1_src/data/scripts/dock_solv.prm

>  <Rbt.Receptor>
prm/blind_docking_100.prm

>  <SCORE>
-36.0434

>  <SCORE.INTER>
-17.2183

>  <SCORE.INTER.CONST>
1

>  <SCORE.INTER.POLAR>
-2.72208

>  <SCORE.INTER.ROT>
8

>  <SCORE.INTER.SOLV>
20.7414

>  <SCORE.INTER.VDW>
-18.2524

>  <SCORE.INTER.norm>
-0.538071

>  <SCORE.INTRA>
-20.0481

>  <SCORE.INTRA.DIHEDRAL>
-41.8237

>  <SCORE.INTRA.DIHEDRAL.0>
76.3625

>  <SCORE.INTRA.POLAR>
0

>  <SCORE.INTRA.POLAR.0>
0

>  <SCORE.INTRA.REPUL>
-0.12705

>  <SCORE.INTRA.REPUL.0>
0.12705

>  <SCORE.INTRA.SOLV>
4.2931

>  <SCORE.INTRA.SOLV.lig_0>
-119.383

>  <SCORE.INTRA.VDW>
-0.647523

>  <SCORE.INTRA.VDW.0>
-5.10464

>  <SCORE.INTRA.norm>
-0.626502

>  <SCORE.RESTR>
1.22296

>  <SCORE.RESTR.CAVITY>
1.22296

>  <SCORE.RESTR.norm>
0.0382174

>  <SCORE.SYSTEM>
0

>  <SCORE.SYSTEM.CONST>
0

>  <SCORE.SYSTEM.DIHEDRAL>
0

>  <SCORE.SYSTEM.SOLV>
0

>  <SCORE.SYSTEM.norm>
0

>  <SCORE.heavy>
32

>  <SCORE.norm>
-1.12636

>  <RMSD>
20.965

$$$$
2au4_lig
 OpenBabel11021811423D
libRbt.so/2013.1/901 2013/11/27
 32 34  0  0  0  0  0  0  0  0999 V2000
   64.0353  -13.7695    1.6897 P   0  0  1  0  0  0  0  0  0  0  0  0
   66.1841  -12.1467    1.3455 P   0  0  1  0  0  0  0  0  0  0  0  0
   65.4875   -9.8790    2.6919 P   0  0  2  0  0  0  0  0  0  0  0  0
   61.9004  -12.9300    0.3601 C   0  0  0  0  0  0  0  0  0  0  0  0
   62.7189  -14.0263    0.8006 O   0  0  0  0  0  0  0  0  0  0  0  0
   60.4897  -12.9925    0.9269 C   0  0  0  0  0  0  0  0  0  0  0  0
   60.5236  -13.0416    2.3680 O   0  0  0  0  0  0  0  0  0  0  0  0
   59.6874  -11.7696    0.5105 C   0  0  0  0  0  0  0  0  0  0  0  0
   58.5789  -12.1419   -0.3173 O   0  0  0  0  0  0  0  0  0  0  0  0
   59.2161  -11.1114    1.7853 C   0  0  0  0  0  0  0  0  0  0  0  0
   57.7853  -11.0269    1.8277 O   0  0  0  0  0  0  0  0  0  0  0  0
   59.7404  -11.9656    2.9266 C   0  0  0  0  0  0  0  0  0  0  0  0
   63.2985  -11.9940    6.5880 N   0  0  0  0  0  0  0  0  0  0  0  0
   63.6156  -13.3740    3.0492 O   0  5  0  0  0  0  0  0  0  0  0  0
   66.9075  -13.4085    1.5957 O   0  5  0  0  0  0  0  0  0  0  0  0
   64.6549   -9.7289    1.4813 O   0  5  0  0  0  0  0  0  0  0  0  0
   62.7498  -13.0478    5.8966 C   0  0  1  0  0  0  0  0  0  0  0  0
   63.1940  -14.2559    6.2166 N   0  0  0  0  0  0  0  0  0  0  0  0
   64.9612  -14.9068    1.5015 O   0  0  0  0  0  0  0  0  0  0  0  0
   66.6853  -11.1928    0.3344 O   0  0  0  0  0  0  0  0  0  0  0  0
   66.6285   -8.9684    2.9220 O   0  0  0  0  0  0  0  0  0  0  0  0
   61.8204  -12.9120    4.9540 N   0  0  0  0  0  0  0  0  0  0  0  0
   64.6790  -12.4988    0.9890 O   0  0  0  0  0  0  0  0  0  0  0  0
   66.0402  -11.3723    2.7257 O   0  0  0  0  0  0  0  0  0  0  0  0
   64.5272   -9.8284    3.9788 O   0  0  0  0  0  0  0  0  0  0  0  0
   61.4793  -11.6175    4.7574 C   0  0  2  0  0  0  0  0  0  0  0  0
   61.9800  -10.5003    5.4063 C   0  0  2  0  0  0  0  0  0  0  0  0
   62.9687  -10.6628    6.4075 C   0  0  1  0  0  0  0  0  0  0  0  0
   63.5020   -9.8022    7.0948 O   0  0  0  0  0  0  0  0  0  0  0  0
   61.3763   -9.3332    4.9261 N   0  0  0  0  0  0  0  0  0  0  0  0
   60.5666   -9.8101    4.0379 C   0  0  0  0  0  0  0  0  0  0  0  0
   60.5485  -11.1544    3.8579 N   0  0  0  0  0  0  0  0  0  0  0  0
  1  5  1  6  0  0  0
  1 14  1  0  0  0  0
  1 19  2  0  0  0  0
  2 15  1  1  0  0  0
  2 20  2  0  0  0  0
  2 23  1  0  0  0  0
  3 16  1  6  0  0  0
  3 21  2  0  0  0  0
  3 24  1  0  0  0  0
  3 25  1  0  0  0  0
  4  6  1  0  0  0  0
  5  4  1  0  0  0  0
  6  7  1  0  0  0  0
  6  8  2  0  0  0  0
  7 12  1  0  0  0  0
  8  9  1  0  0  0  0
  8 10  1  0  0  0  0
 10 11  1  0  0  0  0
 10 12  2  0  0  0  0
 12 32  1  0  0  0  0
 13 17  1  0  0  0  0
 17 18  1  1  0  0  0
 17 22  1  0  0  0  0
 23  1  1  0  0  0  0
 24  2  1  0  0  0  0
 26 22  1  1  0  0  0
 27 26  1  0  0  0  0
 27 28  1  0  0  0  0
 27 30  1  1  0  0  0
 28 13  1  0  0  0  0
 28 29  1  1  0  0  0
 31 30  1  0  0  0  0
 32 26  1  0  0  0  0
 32 31  1  0  0  0  0
M  CHG  3  14  -1  15  -1  16  -1
M  END
>  <CHROM.1>
72.26619364,33.02922285,25.76792729,56.27823373,-117.23188593,-39.33941007
-165.00599836,171.03573493,63.11089322,-11.80190589,2.83977160,0.10417951
-0.04868343,-2.00401127

>  <Name>
2au4_lig

>  <RI>
0

>  <Rbt.Current_Directory>
/home/itssahil/PROJECTS/Mol_Feturizer/New_Systems/rnas/2au4

>  <Rbt.Executable>
rbdock ($Id: //depot/dev/client3/rdock/2013.1/src/exe/rbdock.cxx#4 $)

>  <Rbt.Library>
libRbt.so (2013.1, Build901 2013/11/27)

>  <Rbt.Parameter_File>
/export/apps/rDock/src/rDock_2013.1_src/data/scripts/dock_solv.prm

>  <Rbt.Receptor>
prm/blind_docking_100.prm

>  <SCORE>
-38.0942

>  <SCORE.INTER>
-19.953

>  <SCORE.INTER.CONST>
1

>  <SCORE.INTER.POLAR>
-3.07641

>  <SCORE.INTER.ROT>
8

>  <SCORE.INTER.SOLV>
24.3301

>  <SCORE.INTER.VDW>
-20.0906

>  <SCORE.INTER.norm>
-0.62353

>  <SCORE.INTRA>
-18.308

>  <SCORE.INTRA.DIHEDRAL>
-38.8172

>  <SCORE.INTRA.DIHEDRAL.0>
76.3625

>  <SCORE.INTRA.POLAR>
0

>  <SCORE.INTRA.POLAR.0>
0

>  <SCORE.INTRA.REPUL>
0.0194915

>  <SCORE.INTRA.REPUL.0>
0.12705

>  <SCORE.INTRA.SOLV>
1.52175

>  <SCORE.INTRA.SOLV.lig_0>
-119.383

>  <SCORE.INTRA.VDW>
0.242246

>  <SCORE.INTRA.VDW.0>
-5.10464

>  <SCORE.INTRA.norm>
-0.572126

>  <SCORE.RESTR>
0.16682

>  <SCORE.RESTR.CAVITY>
0.16682

>  <SCORE.RESTR.norm>
0.00521312

>  <SCORE.SYSTEM>
0

>  <SCORE.SYSTEM.CONST>
0

>  <SCORE.SYSTEM.DIHEDRAL>
0

>  <SCORE.SYSTEM.SOLV>
0

>  <SCORE.SYSTEM.norm>
0

>  <SCORE.heavy>
32

>  <SCORE.norm>
-1.19044

>  <RMSD>
21.013

$$$$
2au4_lig
 OpenBabel11021811423D
libRbt.so/2013.1/901 2013/11/27
 32 34  0  0  0  0  0  0  0  0999 V2000
   65.3651  -11.8596    1.9959 P   0  0  1  0  0  0  0  0  0  0  0  0
   67.8262  -11.0600    1.1754 P   0  0  1  0  0  0  0  0  0  0  0  0
   67.5347   -8.9231    2.8455 P   0  0  2  0  0  0  0  0  0  0  0  0
   63.0061  -12.8156    1.2529 C   0  0  0  0  0  0  0  0  0  0  0  0
   64.4021  -13.0503    1.5016 O   0  0  0  0  0  0  0  0  0  0  0  0
   62.3688  -11.9245    2.3089 C   0  0  0  0  0  0  0  0  0  0  0  0
   61.2836  -11.1622    1.7419 O   0  0  0  0  0  0  0  0  0  0  0  0
   61.8177  -12.7579    3.4554 C   0  0  0  0  0  0  0  0  0  0  0  0
   62.5029  -12.4627    4.6786 O   0  0  0  0  0  0  0  0  0  0  0  0
   60.3490  -12.4232    3.5615 C   0  0  0  0  0  0  0  0  0  0  0  0
   60.0269  -11.9052    4.8592 O   0  0  0  0  0  0  0  0  0  0  0  0
   60.0665  -11.3914    2.4831 C   0  0  0  0  0  0  0  0  0  0  0  0
   58.7532  -12.6700   -2.2821 N   0  0  0  0  0  0  0  0  0  0  0  0
   64.8692  -10.5881    1.4318 O   0  5  0  0  0  0  0  0  0  0  0  0
   69.1352  -11.6860    0.9058 O   0  5  0  0  0  0  0  0  0  0  0  0
   68.1398   -8.4920    4.1219 O   0  5  0  0  0  0  0  0  0  0  0  0
   59.9687  -12.2524   -1.7944 C   0  0  1  0  0  0  0  0  0  0  0  0
   60.9548  -12.1578   -2.6763 N   0  0  0  0  0  0  0  0  0  0  0  0
   65.5707  -11.9932    3.4540 O   0  0  0  0  0  0  0  0  0  0  0  0
   67.3054  -10.0124    0.2727 O   0  0  0  0  0  0  0  0  0  0  0  0
   66.0905   -8.7206    2.6062 O   0  0  0  0  0  0  0  0  0  0  0  0
   60.1895  -11.9460   -0.5185 N   0  0  0  0  0  0  0  0  0  0  0  0
   66.7374  -12.2091    1.2783 O   0  0  0  0  0  0  0  0  0  0  0  0
   67.8490  -10.4724    2.6517 O   0  0  0  0  0  0  0  0  0  0  0  0
   68.3514   -8.2434    1.6406 O   0  0  0  0  0  0  0  0  0  0  0  0
   59.0790  -12.0925    0.2404 C   0  0  2  0  0  0  0  0  0  0  0  0
   57.8212  -12.5062   -0.1677 C   0  0  2  0  0  0  0  0  0  0  0  0
   57.6032  -12.8282   -1.5297 C   0  0  1  0  0  0  0  0  0  0  0  0
   56.5639  -13.1836   -2.0691 O   0  0  0  0  0  0  0  0  0  0  0  0
   56.9306  -12.5304    0.9109 N   0  0  0  0  0  0  0  0  0  0  0  0
   57.6910  -12.1375    1.8801 C   0  0  0  0  0  0  0  0  0  0  0  0
   58.9848  -11.8512    1.5905 N   0  0  0  0  0  0  0  0  0  0  0  0
  1  5  1  6  0  0  0
  1 14  1  0  0  0  0
  1 19  2  0  0  0  0
  2 15  1  6  0  0  0
  2 20  2  0  0  0  0
  2 23  1  0  0  0  0
  3 16  1  1  0  0  0
  3 21  2  0  0  0  0
  3 24  1  0  0  0  0
  3 25  1  0  0  0  0
  4  6  1  0  0  0  0
  5  4  1  0  0  0  0
  6  7  1  0  0  0  0
  6  8  2  0  0  0  0
  7 12  1  0  0  0  0
  8  9  1  0  0  0  0
  8 10  1  0  0  0  0
 10 11  1  0  0  0  0
 10 12  2  0  0  0  0
 12 32  1  0  0  0  0
 13 17  1  0  0  0  0
 17 18  1  6  0  0  0
 17 22  1  0  0  0  0
 23  1  1  0  0  0  0
 24  2  1  0  0  0  0
 26 22  1  6  0  0  0
 27 26  1  0  0  0  0
 27 28  1  0  0  0  0
 27 30  1  6  0  0  0
 28 13  1  0  0  0  0
 28 29  1  6  0  0  0
 31 30  1  0  0  0  0
 32 26  1  0  0  0  0
 32 31  1  0  0  0  0
M  CHG  3  14  -1  15  -1  16  -1
M  END
>  <CHROM.1>
-31.07290108,161.37043367,-156.81211978,150.20397330,-41.67251331,2.25868687
162.85206296,123.48468756,63.25673956,-11.43221872,1.46243337,0.24277435
0.22876899,1.47579949

>  <Name>
2au4_lig

>  <RI>
0

>  <Rbt.Current_Directory>
/home/itssahil/PROJECTS/Mol_Feturizer/New_Systems/rnas/2au4

>  <Rbt.Executable>
rbdock ($Id: //depot/dev/client3/rdock/2013.1/src/exe/rbdock.cxx#4 $)

>  <Rbt.Library>
libRbt.so (2013.1, Build901 2013/11/27)

>  <Rbt.Parameter_File>
/export/apps/rDock/src/rDock_2013.1_src/data/scripts/dock_solv.prm

>  <Rbt.Receptor>
prm/blind_docking_80.prm

>  <SCORE>
-28.4594

>  <SCORE.INTER>
-16.8181

>  <SCORE.INTER.CONST>
1

>  <SCORE.INTER.POLAR>
-2.17332

>  <SCORE.INTER.ROT>
8

>  <SCORE.INTER.SOLV>
28.6666

>  <SCORE.INTER.VDW>
-22.4565

>  <SCORE.INTER.norm>
-0.525565

>  <SCORE.INTRA>
-13.275

>  <SCORE.INTRA.DIHEDRAL>
-31.047

>  <SCORE.INTRA.DIHEDRAL.0>
76.3625

>  <SCORE.INTRA.POLAR>
0

>  <SCORE.INTRA.POLAR.0>
0

>  <SCORE.INTRA.REPUL>
-0.12705

>  <SCORE.INTRA.REPUL.0>
0.12705

>  <SCORE.INTRA.SOLV>
2.05908

>  <SCORE.INTRA.SOLV.lig_0>
-119.383

>  <SCORE.INTRA.VDW>
1.85426

>  <SCORE.INTRA.VDW.0>
-5.10464

>  <SCORE.INTRA.norm>
-0.414843

>  <SCORE.RESTR>
1.63363

>  <SCORE.RESTR.CAVITY>
1.63363

>  <SCORE.RESTR.norm>
0.051051

>  <SCORE.SYSTEM>
0

>  <SCORE.SYSTEM.CONST>
0

>  <SCORE.SYSTEM.DIHEDRAL>
0

>  <SCORE.SYSTEM.SOLV>
0

>  <SCORE.SYSTEM.norm>
0

>  <SCORE.heavy>
32

>  <SCORE.norm>
-0.889357

>  <RMSD>
21.071

$$$$
2au4_lig
 OpenBabel11021811423D
libRbt.so/2013.1/901 2013/11/27
 32 34  0  0  0  0  0  0  0  0999 V2000
   64.2456  -14.0182    2.3623 P   0  0  1  0  0  0  0  0  0  0  0  0
   66.2769  -12.3672    1.6429 P   0  0  1  0  0  0  0  0  0  0  0  0
   67.7225  -10.2115    0.8037 P   0  0  2  0  0  0  0  0  0  0  0  0
   62.9071  -13.2442    4.5163 C   0  0  0  0  0  0  0  0  0  0  0  0
   62.8824  -13.7847    3.1848 O   0  0  0  0  0  0  0  0  0  0  0  0
   62.8598  -11.7233    4.5278 C   0  0  0  0  0  0  0  0  0  0  0  0
   62.6392  -11.2124    3.1972 O   0  0  0  0  0  0  0  0  0  0  0  0
   61.7344  -11.2264    5.4218 C   0  0  0  0  0  0  0  0  0  0  0  0
   62.2524  -10.4836    6.5321 O   0  0  0  0  0  0  0  0  0  0  0  0
   60.8490  -10.3620    4.5562 C   0  0  0  0  0  0  0  0  0  0  0  0
   60.7550   -9.0294    5.0771 O   0  0  0  0  0  0  0  0  0  0  0  0
   61.4761  -10.3579    3.1728 C   0  0  0  0  0  0  0  0  0  0  0  0
   60.8232  -12.6798   -1.3271 N   0  0  0  0  0  0  0  0  0  0  0  0
   65.1932  -14.7567    3.2211 O   0  5  0  0  0  0  0  0  0  0  0  0
   67.2106  -12.5876    2.7644 O   0  5  0  0  0  0  0  0  0  0  0  0
   67.6644   -8.7509    1.0145 O   0  5  0  0  0  0  0  0  0  0  0  0
   61.9859  -12.4104   -0.6450 C   0  0  1  0  0  0  0  0  0  0  0  0
   63.1124  -12.7991   -1.2272 N   0  0  0  0  0  0  0  0  0  0  0  0
   63.9044  -14.5354    1.0198 O   0  0  0  0  0  0  0  0  0  0  0  0
   66.4068  -13.1609    0.4032 O   0  0  0  0  0  0  0  0  0  0  0  0
   68.0507  -10.7534   -0.5314 O   0  0  0  0  0  0  0  0  0  0  0  0
   62.0277  -11.7936    0.5333 N   0  0  0  0  0  0  0  0  0  0  0  0
   64.7969  -12.5398    2.1869 O   0  0  0  0  0  0  0  0  0  0  0  0
   66.3235  -10.8281    1.2503 O   0  0  0  0  0  0  0  0  0  0  0  0
   68.7431  -10.8394    1.8737 O   0  0  0  0  0  0  0  0  0  0  0  0
   60.7940  -11.4629    0.9795 C   0  0  2  0  0  0  0  0  0  0  0  0
   59.5770  -11.6958    0.3595 C   0  0  2  0  0  0  0  0  0  0  0  0
   59.5504  -12.3532   -0.8948 C   0  0  1  0  0  0  0  0  0  0  0  0
   58.5808  -12.6185   -1.5928 O   0  0  0  0  0  0  0  0  0  0  0  0
   58.5211  -11.2038    1.1343 N   0  0  0  0  0  0  0  0  0  0  0  0
   59.1545  -10.7152    2.1502 C   0  0  0  0  0  0  0  0  0  0  0  0
   60.5071  -10.8161    2.1583 N   0  0  0  0  0  0  0  0  0  0  0  0
  1  5  1  1  0  0  0
  1 14  1  0  0  0  0
  1 19  2  0  0  0  0
  2 15  1  1  0  0  0
  2 20  2  0  0  0  0
  2 23  1  0  0  0  0
  3 16  1  1  0  0  0
  3 21  2  0  0  0  0
  3 24  1  0  0  0  0
  3 25  1  0  0  0  0
  4  6  1  0  0  0  0
  5  4  1  0  0  0  0
  6  7  1  0  0  0  0
  6  8  2  0  0  0  0
  7 12  1  0  0  0  0
  8  9  1  0  0  0  0
  8 10  1  0  0  0  0
 10 11  1  0  0  0  0
 10 12  2  0  0  0  0
 12 32  1  0  0  0  0
 13 17  1  0  0  0  0
 17 18  1  6  0  0  0
 17 22  1  0  0  0  0
 23  1  1  0  0  0  0
 24  2  1  0  0  0  0
 26 22  1  6  0  0  0
 27 26  1  0  0  0  0
 27 28  1  0  0  0  0
 27 30  1  6  0  0  0
 28 13  1  0  0  0  0
 28 29  1  6  0  0  0
 31 30  1  0  0  0  0
 32 26  1  0  0  0  0
 32 31  1  0  0  0  0
M  CHG  3  14  -1  15  -1  16  -1
M  END
>  <CHROM.1>
49.75289562,-79.83567658,-157.64922264,6.92871239,88.46906927,-30.37660838
169.20671561,58.95032969,63.52986780,-11.84678539,1.83179450,-0.04335311
0.02235604,1.31834721

>  <Name>
2au4_lig

>  <RI>
0

>  <Rbt.Current_Directory>
/home/itssahil/PROJECTS/Mol_Feturizer/New_Systems/rnas/2au4

>  <Rbt.Executable>
rbdock ($Id: //depot/dev/client3/rdock/2013.1/src/exe/rbdock.cxx#4 $)

>  <Rbt.Library>
libRbt.so (2013.1, Build901 2013/11/27)

>  <Rbt.Parameter_File>
/export/apps/rDock/src/rDock_2013.1_src/data/scripts/dock_solv.prm

>  <Rbt.Receptor>
prm/blind_docking_100.prm

>  <SCORE>
-46.5328

>  <SCORE.INTER>
-30.065

>  <SCORE.INTER.CONST>
1

>  <SCORE.INTER.POLAR>
-4.64614

>  <SCORE.INTER.ROT>
8

>  <SCORE.INTER.SOLV>
35.1391

>  <SCORE.INTER.VDW>
-25.2025

>  <SCORE.INTER.norm>
-0.93953

>  <SCORE.INTRA>
-17.1609

>  <SCORE.INTRA.DIHEDRAL>
-47.0313

>  <SCORE.INTRA.DIHEDRAL.0>
76.3625

>  <SCORE.INTRA.POLAR>
0

>  <SCORE.INTRA.POLAR.0>
0

>  <SCORE.INTRA.REPUL>
1.1944

>  <SCORE.INTRA.REPUL.0>
0.12705

>  <SCORE.INTRA.SOLV>
1.01378

>  <SCORE.INTRA.SOLV.lig_0>
-119.383

>  <SCORE.INTRA.VDW>
-0.124204

>  <SCORE.INTRA.VDW.0>
-5.10464

>  <SCORE.INTRA.norm>
-0.536279

>  <SCORE.RESTR>
0.693085

>  <SCORE.RESTR.CAVITY>
0.693085

>  <SCORE.RESTR.norm>
0.0216589

>  <SCORE.SYSTEM>
0

>  <SCORE.SYSTEM.CONST>
0

>  <SCORE.SYSTEM.DIHEDRAL>
0

>  <SCORE.SYSTEM.SOLV>
0

>  <SCORE.SYSTEM.norm>
0

>  <SCORE.heavy>
32

>  <SCORE.norm>
-1.45415

>  <RMSD>
21.135

$$$$
2au4_lig
 OpenBabel11021811423D
libRbt.so/2013.1/901 2013/11/27
 32 34  0  0  0  0  0  0  0  0999 V2000
   63.8506  -13.6374    2.2768 P   0  0  1  0  0  0  0  0  0  0  0  0
   66.1872  -12.6720    1.2879 P   0  0  1  0  0  0  0  0  0  0  0  0
   68.1830  -10.8579    0.8800 P   0  0  2  0  0  0  0  0  0  0  0  0
   63.4376  -11.0354    1.9783 C   0  0  0  0  0  0  0  0  0  0  0  0
   62.9333  -12.3195    2.3812 O   0  0  0  0  0  0  0  0  0  0  0  0
   62.5733   -9.8875    2.4791 C   0  0  0  0  0  0  0  0  0  0  0  0
   61.4513   -9.6752    1.5980 O   0  0  0  0  0  0  0  0  0  0  0  0
   62.0369  -10.1847    3.8706 C   0  0  0  0  0  0  0  0  0  0  0  0
   62.5443   -9.2457    4.8264 O   0  0  0  0  0  0  0  0  0  0  0  0
   60.5319  -10.1038    3.7764 C   0  0  0  0  0  0  0  0  0  0  0  0
   60.0080   -9.1144    4.6723 O   0  0  0  0  0  0  0  0  0  0  0  0
   60.2122   -9.7498    2.3343 C   0  0  0  0  0  0  0  0  0  0  0  0
   59.3206  -12.8421   -1.6291 N   0  0  0  0  0  0  0  0  0  0  0  0
   63.5048  -14.5414    3.3922 O   0  5  0  0  0  0  0  0  0  0  0  0
   67.0360  -13.8281    0.9398 O   0  5  0  0  0  0  0  0  0  0  0  0
   67.5952  -10.8331   -0.4746 O   0  5  0  0  0  0  0  0  0  0  0  0
   60.3686  -11.9788   -1.4147 C   0  0  1  0  0  0  0  0  0  0  0  0
   61.2898  -11.9246   -2.3673 N   0  0  0  0  0  0  0  0  0  0  0  0
   63.8113  -14.1308    0.8836 O   0  0  0  0  0  0  0  0  0  0  0  0
   65.2969  -12.0733    0.2719 O   0  0  0  0  0  0  0  0  0  0  0  0
   69.4864  -11.5160    1.1084 O   0  0  0  0  0  0  0  0  0  0  0  0
   60.4918  -11.2180   -0.3299 N   0  0  0  0  0  0  0  0  0  0  0  0
   65.3059  -13.0637    2.5474 O   0  0  0  0  0  0  0  0  0  0  0  0
   67.1215  -11.5229    1.8638 O   0  0  0  0  0  0  0  0  0  0  0  0
   68.2716   -9.3488    1.4235 O   0  0  0  0  0  0  0  0  0  0  0  0
   59.4660  -11.3933    0.5347 C   0  0  2  0  0  0  0  0  0  0  0  0
   58.3762  -12.2379    0.3980 C   0  0  2  0  0  0  0  0  0  0  0  0
   58.2601  -13.0406   -0.7633 C   0  0  1  0  0  0  0  0  0  0  0  0
   57.3638  -13.8181   -1.0626 O   0  0  0  0  0  0  0  0  0  0  0  0
   57.5264  -12.1375    1.5047 N   0  0  0  0  0  0  0  0  0  0  0  0
   58.1437  -11.2572    2.2230 C   0  0  0  0  0  0  0  0  0  0  0  0
   59.3052  -10.7505    1.7393 N   0  0  0  0  0  0  0  0  0  0  0  0
  1  5  1  1  0  0  0
  1 14  1  0  0  0  0
  1 19  2  0  0  0  0
  2 15  1  6  0  0  0
  2 20  2  0  0  0  0
  2 23  1  0  0  0  0
  3 16  1  6  0  0  0
  3 21  2  0  0  0  0
  3 24  1  0  0  0  0
  3 25  1  0  0  0  0
  4  6  1  0  0  0  0
  5  4  1  0  0  0  0
  6  7  1  0  0  0  0
  6  8  2  0  0  0  0
  7 12  1  0  0  0  0
  8  9  1  0  0  0  0
  8 10  1  0  0  0  0
 10 11  1  0  0  0  0
 10 12  2  0  0  0  0
 12 32  1  0  0  0  0
 13 17  1  0  0  0  0
 17 18  1  6  0  0  0
 17 22  1  0  0  0  0
 23  1  1  0  0  0  0
 24  2  1  0  0  0  0
 26 22  1  6  0  0  0
 27 26  1  0  0  0  0
 27 28  1  0  0  0  0
 27 30  1  6  0  0  0
 28 13  1  0  0  0  0
 28 29  1  6  0  0  0
 31 30  1  0  0  0  0
 32 26  1  0  0  0  0
 32 31  1  0  0  0  0
M  CHG  3  14  -1  15  -1  16  -1
M  END
>  <CHROM.1>
146.36270697,-94.00251810,33.63642559,-83.04136773,-165.22251527,-10.07620648
-94.38498891,65.35661779,63.03546304,-11.72901501,1.36826626,-0.04069706
0.02534664,-2.22131249

>  <Name>
2au4_lig

>  <RI>
0

>  <Rbt.Current_Directory>
/home/itssahil/PROJECTS/Mol_Feturizer/New_Systems/rnas/2au4

>  <Rbt.Executable>
rbdock ($Id: //depot/dev/client3/rdock/2013.1/src/exe/rbdock.cxx#4 $)

>  <Rbt.Library>
libRbt.so (2013.1, Build901 2013/11/27)

>  <Rbt.Parameter_File>
/export/apps/rDock/src/rDock_2013.1_src/data/scripts/dock_solv.prm

>  <Rbt.Receptor>
prm/blind_docking_100.prm

>  <SCORE>
-40.4549

>  <SCORE.INTER>
-22.1652

>  <SCORE.INTER.CONST>
1

>  <SCORE.INTER.POLAR>
-2.47356

>  <SCORE.INTER.ROT>
8

>  <SCORE.INTER.SOLV>
39.0779

>  <SCORE.INTER.VDW>
-28.4909

>  <SCORE.INTER.norm>
-0.692662

>  <SCORE.INTRA>
-18.939

>  <SCORE.INTRA.DIHEDRAL>
-39.7547

>  <SCORE.INTRA.DIHEDRAL.0>
76.3625

>  <SCORE.INTRA.POLAR>
0

>  <SCORE.INTRA.POLAR.0>
0

>  <SCORE.INTRA.REPUL>
-0.00423039

>  <SCORE.INTRA.REPUL.0>
0.12705

>  <SCORE.INTRA.SOLV>
-3.68377

>  <SCORE.INTRA.SOLV.lig_0>
-119.383

>  <SCORE.INTRA.VDW>
2.80143

>  <SCORE.INTRA.VDW.0>
-5.10464

>  <SCORE.INTRA.norm>
-0.591843

>  <SCORE.RESTR>
0.649225

>  <SCORE.RESTR.CAVITY>
0.649225

>  <SCORE.RESTR.norm>
0.0202883

>  <SCORE.SYSTEM>
0

>  <SCORE.SYSTEM.CONST>
0

>  <SCORE.SYSTEM.DIHEDRAL>
0

>  <SCORE.SYSTEM.SOLV>
0

>  <SCORE.SYSTEM.norm>
0

>  <SCORE.heavy>
32

>  <SCORE.norm>
-1.26422

>  <RMSD>
21.180

$$$$
2au4_lig
 OpenBabel11021811423D
libRbt.so/2013.1/901 2013/11/27
 32 34  0  0  0  0  0  0  0  0999 V2000
   65.2488  -11.1496    1.9766 P   0  0  1  0  0  0  0  0  0  0  0  0
   67.6957  -10.0797    1.4893 P   0  0  1  0  0  0  0  0  0  0  0  0
   69.4569  -12.0410    0.7877 P   0  0  2  0  0  0  0  0  0  0  0  0
   63.0817  -12.5445    1.3534 C   0  0  0  0  0  0  0  0  0  0  0  0
   64.5121  -12.4925    1.4832 O   0  0  0  0  0  0  0  0  0  0  0  0
   62.3717  -11.6872    2.3909 C   0  0  0  0  0  0  0  0  0  0  0  0
   61.2551  -10.9932    1.7976 O   0  0  0  0  0  0  0  0  0  0  0  0
   61.8476  -12.5458    3.5314 C   0  0  0  0  0  0  0  0  0  0  0  0
   62.4894  -12.2045    4.7661 O   0  0  0  0  0  0  0  0  0  0  0  0
   60.3599  -12.2979    3.6062 C   0  0  0  0  0  0  0  0  0  0  0  0
   59.9817  -11.7932    4.8940 O   0  0  0  0  0  0  0  0  0  0  0  0
   60.0390  -11.2901    2.5160 C   0  0  0  0  0  0  0  0  0  0  0  0
   58.8880  -12.6320   -2.2737 N   0  0  0  0  0  0  0  0  0  0  0  0
   64.6017   -9.9919    1.3273 O   0  5  0  0  0  0  0  0  0  0  0  0
   67.0787   -8.9113    0.8318 O   0  5  0  0  0  0  0  0  0  0  0  0
   68.4111  -12.9470    0.2712 O   0  5  0  0  0  0  0  0  0  0  0  0
   60.0650  -12.1359   -1.7657 C   0  0  1  0  0  0  0  0  0  0  0  0
   61.0558  -11.9711   -2.6317 N   0  0  0  0  0  0  0  0  0  0  0  0
   65.3794  -11.1964    3.4486 O   0  0  0  0  0  0  0  0  0  0  0  0
   68.1322   -9.9926    2.8984 O   0  0  0  0  0  0  0  0  0  0  0  0
   69.9489  -12.1935    2.1729 O   0  0  0  0  0  0  0  0  0  0  0  0
   60.2450  -11.8212   -0.4853 N   0  0  0  0  0  0  0  0  0  0  0  0
   66.7012  -11.3082    1.3554 O   0  0  0  0  0  0  0  0  0  0  0  0
   68.9390  -10.5447    0.6157 O   0  0  0  0  0  0  0  0  0  0  0  0
   70.7152  -12.0963   -0.2094 O   0  0  0  0  0  0  0  0  0  0  0  0
   59.1354  -12.0457    0.2556 C   0  0  2  0  0  0  0  0  0  0  0  0
   57.9147  -12.5412   -0.1736 C   0  0  2  0  0  0  0  0  0  0  0  0
   57.7398  -12.8708   -1.5399 C   0  0  1  0  0  0  0  0  0  0  0  0
   56.7352  -13.2928   -2.0968 O   0  0  0  0  0  0  0  0  0  0  0  0
   57.0113  -12.6303    0.8909 N   0  0  0  0  0  0  0  0  0  0  0  0
   57.7286  -12.1916    1.8733 C   0  0  0  0  0  0  0  0  0  0  0  0
   59.0044  -11.8175    1.6050 N   0  0  0  0  0  0  0  0  0  0  0  0
  1  5  1  6  0  0  0
  1 14  1  0  0  0  0
  1 19  2  0  0  0  0
  2 15  1  6  0  0  0
  2 20  2  0  0  0  0
  2 23  1  0  0  0  0
  3 16  1  6  0  0  0
  3 21  2  0  0  0  0
  3 24  1  0  0  0  0
  3 25  1  0  0  0  0
  4  6  1  0  0  0  0
  5  4  1  0  0  0  0
  6  7  1  0  0  0  0
  6  8  2  0  0  0  0
  7 12  1  0  0  0  0
  8  9  1  0  0  0  0
  8 10  1  0  0  0  0
 10 11  1  0  0  0  0
 10 12  2  0  0  0  0
 12 32  1  0  0  0  0
 13 17  1  0  0  0  0
 17 18  1  6  0  0  0
 17 22  1  0  0  0  0
 23  1  1  0  0  0  0
 24  2  1  0  0  0  0
 26 22  1  6  0  0  0
 27 26  1  0  0  0  0
 27 28  1  0  0  0  0
 27 30  1  6  0  0  0
 28 13  1  0  0  0  0
 28 29  1  6  0  0  0
 31 30  1  0  0  0  0
 32 26  1  0  0  0  0
 32 31  1  0  0  0  0
M  CHG  3  14  -1  15  -1  16  -1
M  END
>  <CHROM.1>
-41.27559703,-59.08336624,67.07913574,139.29426213,-33.39514482,1.47461805
173.22154505,-158.60035591,63.56926964,-11.66594421,1.19592608,0.11095310
0.09942994,1.43529756

>  <Name>
2au4_lig

>  <RI>
0

>  <Rbt.Current_Directory>
/home/itssahil/PROJECTS/Mol_Feturizer/New_Systems/rnas/2au4

>  <Rbt.Executable>
rbdock ($Id: //depot/dev/client3/rdock/2013.1/src/exe/rbdock.cxx#4 $)

>  <Rbt.Library>
libRbt.so (2013.1, Build901 2013/11/27)

>  <Rbt.Parameter_File>
/export/apps/rDock/src/rDock_2013.1_src/data/scripts/dock_solv.prm

>  <Rbt.Receptor>
prm/blind_docking_80.prm

>  <SCORE>
-34.3783

>  <SCORE.INTER>
-20.6752

>  <SCORE.INTER.CONST>
1

>  <SCORE.INTER.POLAR>
-2.88281

>  <SCORE.INTER.ROT>
8

>  <SCORE.INTER.SOLV>
32.3517

>  <SCORE.INTER.VDW>
-23.8913

>  <SCORE.INTER.norm>
-0.646101

>  <SCORE.INTRA>
-17.125

>  <SCORE.INTRA.DIHEDRAL>
-33.9165

>  <SCORE.INTRA.DIHEDRAL.0>
76.3625

>  <SCORE.INTRA.POLAR>
0

>  <SCORE.INTRA.POLAR.0>
0

>  <SCORE.INTRA.REPUL>
-0.126838

>  <SCORE.INTRA.REPUL.0>
0.12705

>  <SCORE.INTRA.SOLV>
-0.970385

>  <SCORE.INTRA.SOLV.lig_0>
-119.383

>  <SCORE.INTRA.VDW>
0.952614

>  <SCORE.INTRA.VDW.0>
-5.10464

>  <SCORE.INTRA.norm>
-0.535157

>  <SCORE.RESTR>
3.4219

>  <SCORE.RESTR.CAVITY>
3.4219

>  <SCORE.RESTR.norm>
0.106934

>  <SCORE.SYSTEM>
0

>  <SCORE.SYSTEM.CONST>
0

>  <SCORE.SYSTEM.DIHEDRAL>
0

>  <SCORE.SYSTEM.SOLV>
0

>  <SCORE.SYSTEM.norm>
0

>  <SCORE.heavy>
32

>  <SCORE.norm>
-1.07432

>  <RMSD>
21.219

$$$$
2au4_lig
 OpenBabel11021811423D
libRbt.so/2013.1/901 2013/11/27
 32 34  0  0  0  0  0  0  0  0999 V2000
   64.7139  -14.1109    1.6568 P   0  0  1  0  0  0  0  0  0  0  0  0
   66.1160  -11.7915    1.5020 P   0  0  1  0  0  0  0  0  0  0  0  0
   67.0445   -9.3261    2.2092 P   0  0  2  0  0  0  0  0  0  0  0  0
   63.1775  -13.8611    3.8033 C   0  0  0  0  0  0  0  0  0  0  0  0
   63.3107  -14.2628    2.4298 O   0  0  0  0  0  0  0  0  0  0  0  0
   63.0650  -12.3517    3.9599 C   0  0  0  0  0  0  0  0  0  0  0  0
   62.5445  -11.7540    2.7549 O   0  0  0  0  0  0  0  0  0  0  0  0
   62.1335  -11.9974    5.1084 C   0  0  0  0  0  0  0  0  0  0  0  0
   62.8410  -11.3120    6.1488 O   0  0  0  0  0  0  0  0  0  0  0  0
   61.0465  -11.1260    4.5258 C   0  0  0  0  0  0  0  0  0  0  0  0
   61.0050   -9.8463    5.1715 O   0  0  0  0  0  0  0  0  0  0  0  0
   61.3653  -10.9751    3.0484 C   0  0  0  0  0  0  0  0  0  0  0  0
   59.8556  -12.7544   -1.4926 N   0  0  0  0  0  0  0  0  0  0  0  0
   65.5370  -15.3047    1.9360 O   0  5  0  0  0  0  0  0  0  0  0  0
   67.1808  -12.4693    0.7373 O   0  5  0  0  0  0  0  0  0  0  0  0
   65.8124   -8.8110    1.5785 O   0  5  0  0  0  0  0  0  0  0  0  0
   61.1197  -12.4349   -1.0573 C   0  0  1  0  0  0  0  0  0  0  0  0
   62.1026  -12.6029   -1.9318 N   0  0  0  0  0  0  0  0  0  0  0  0
   64.4423  -13.7081    0.2603 O   0  0  0  0  0  0  0  0  0  0  0  0
   65.0857  -11.0008    0.7973 O   0  0  0  0  0  0  0  0  0  0  0  0
   68.3344   -9.2367    1.4935 O   0  0  0  0  0  0  0  0  0  0  0  0
   61.3895  -11.9763    0.1624 N   0  0  0  0  0  0  0  0  0  0  0  0
   65.3804  -12.8749    2.3973 O   0  0  0  0  0  0  0  0  0  0  0  0
   66.8009  -10.8540    2.5870 O   0  0  0  0  0  0  0  0  0  0  0  0
   67.2096   -8.6285    3.6468 O   0  0  0  0  0  0  0  0  0  0  0  0
   60.2754  -11.8609    0.9214 C   0  0  2  0  0  0  0  0  0  0  0  0
   58.9705  -12.1592    0.5637 C   0  0  2  0  0  0  0  0  0  0  0  0
   58.7008  -12.6462   -0.7387 C   0  0  1  0  0  0  0  0  0  0  0  0
   57.6191  -12.9358   -1.2323 O   0  0  0  0  0  0  0  0  0  0  0  0
   58.0932  -11.9060    1.6236 N   0  0  0  0  0  0  0  0  0  0  0  0
   58.9069  -11.4795    2.5336 C   0  0  0  0  0  0  0  0  0  0  0  0
   60.2249  -11.4133    2.2203 N   0  0  0  0  0  0  0  0  0  0  0  0
  1  5  1  1  0  0  0
  1 14  1  0  0  0  0
  1 19  2  0  0  0  0
  2 15  1  6  0  0  0
  2 20  2  0  0  0  0
  2 23  1  0  0  0  0
  3 16  1  6  0  0  0
  3 21  2  0  0  0  0
  3 24  1  0  0  0  0
  3 25  1  0  0  0  0
  4  6  1  0  0  0  0
  5  4  1  0  0  0  0
  6  7  1  0  0  0  0
  6  8  2  0  0  0  0
  7 12  1  0  0  0  0
  8  9  1  0  0  0  0
  8 10  1  0  0  0  0
 10 11  1  0  0  0  0
 10 12  2  0  0  0  0
 12 32  1  0  0  0  0
 13 17  1  0  0  0  0
 17 18  1  6  0  0  0
 17 22  1  0  0  0  0
 23  1  1  0  0  0  0
 24  2  1  0  0  0  0
 26 22  1  6  0  0  0
 27 26  1  0  0  0  0
 27 28  1  0  0  0  0
 27 30  1  6  0  0  0
 28 13  1  0  0  0  0
 28 29  1  6  0  0  0
 31 30  1  0  0  0  0
 32 26  1  0  0  0  0
 32 31  1  0  0  0  0
M  CHG  3  14  -1  15  -1  16  -1
M  END
>  <CHROM.1>
85.28771163,-58.35943500,45.34176818,25.03580721,77.16099256,-35.21973678
-137.70301960,94.09068054,63.29067296,-11.84422741,1.84508478,-0.27601282
-0.09590400,-2.05738097

>  <Name>
2au4_lig

>  <RI>
0

>  <Rbt.Current_Directory>
/home/itssahil/PROJECTS/Mol_Feturizer/New_Systems/rnas/2au4

>  <Rbt.Executable>
rbdock ($Id: //depot/dev/client3/rdock/2013.1/src/exe/rbdock.cxx#4 $)

>  <Rbt.Library>
libRbt.so (2013.1, Build901 2013/11/27)

>  <Rbt.Parameter_File>
/export/apps/rDock/src/rDock_2013.1_src/data/scripts/dock_solv.prm

>  <Rbt.Receptor>
prm/blind_docking_100.prm

>  <SCORE>
-51.4187

>  <SCORE.INTER>
-32.1614

>  <SCORE.INTER.CONST>
1

>  <SCORE.INTER.POLAR>
-4.90197

>  <SCORE.INTER.ROT>
8

>  <SCORE.INTER.SOLV>
34.3544

>  <SCORE.INTER.VDW>
-25.4858

>  <SCORE.INTER.norm>
-1.00504

>  <SCORE.INTRA>
-19.2573

>  <SCORE.INTRA.DIHEDRAL>
-44.534

>  <SCORE.INTRA.DIHEDRAL.0>
76.3625

>  <SCORE.INTRA.POLAR>
0

>  <SCORE.INTRA.POLAR.0>
0

>  <SCORE.INTRA.REPUL>
0.253477

>  <SCORE.INTRA.REPUL.0>
0.12705

>  <SCORE.INTRA.SOLV>
0.235417

>  <SCORE.INTRA.SOLV.lig_0>
-119.383

>  <SCORE.INTRA.VDW>
1.62463

>  <SCORE.INTRA.VDW.0>
-5.10464

>  <SCORE.INTRA.norm>
-0.60179

>  <SCORE.RESTR>
0

>  <SCORE.RESTR.CAVITY>
0

>  <SCORE.RESTR.norm>
0

>  <SCORE.SYSTEM>
0

>  <SCORE.SYSTEM.CONST>
0

>  <SCORE.SYSTEM.DIHEDRAL>
0

>  <SCORE.SYSTEM.SOLV>
0

>  <SCORE.SYSTEM.norm>
0

>  <SCORE.heavy>
32

>  <SCORE.norm>
-1.60683

>  <RMSD>
21.272

$$$$
2au4_lig
 OpenBabel11021811423D
libRbt.so/2013.1/901 2013/11/27
 32 34  0  0  0  0  0  0  0  0999 V2000
   65.4030  -12.3069    3.7859 P   0  0  1  0  0  0  0  0  0  0  0  0
   65.9159  -12.6551    1.1429 P   0  0  1  0  0  0  0  0  0  0  0  0
   67.5139  -10.4464    1.0490 P   0  0  2  0  0  0  0  0  0  0  0  0
   62.9312  -12.9038    3.0346 C   0  0  0  0  0  0  0  0  0  0  0  0
   64.0831  -13.2263    3.8313 O   0  0  0  0  0  0  0  0  0  0  0  0
   62.4903  -11.4577    3.2077 C   0  0  0  0  0  0  0  0  0  0  0  0
   61.7627  -11.0066    2.0469 O   0  0  0  0  0  0  0  0  0  0  0  0
   61.5872  -11.3119    4.4225 C   0  0  0  0  0  0  0  0  0  0  0  0
   62.1930  -10.4727    5.4132 O   0  0  0  0  0  0  0  0  0  0  0  0
   60.2919  -10.7162    3.9249 C   0  0  0  0  0  0  0  0  0  0  0  0
   60.0071   -9.4725    4.5794 O   0  0  0  0  0  0  0  0  0  0  0  0
   60.4615  -10.5126    2.4293 C   0  0  0  0  0  0  0  0  0  0  0  0
   59.1262  -12.7699   -1.9511 N   0  0  0  0  0  0  0  0  0  0  0  0
   65.0240  -10.9623    3.3070 O   0  5  0  0  0  0  0  0  0  0  0  0
   66.9684  -13.2253    0.2797 O   0  5  0  0  0  0  0  0  0  0  0  0
   67.3859   -8.9781    1.1431 O   0  5  0  0  0  0  0  0  0  0  0  0
   60.3197  -12.1859   -1.5992 C   0  0  1  0  0  0  0  0  0  0  0  0
   61.2739  -12.1971   -2.5204 N   0  0  0  0  0  0  0  0  0  0  0  0
   66.1297  -12.4606    5.0643 O   0  0  0  0  0  0  0  0  0  0  0  0
   64.4980  -12.9992    0.9089 O   0  0  0  0  0  0  0  0  0  0  0  0
   68.2160  -11.0551   -0.1001 O   0  0  0  0  0  0  0  0  0  0  0  0
   60.5494  -11.6254   -0.4144 N   0  0  0  0  0  0  0  0  0  0  0  0
   66.2663  -13.0036    2.6503 O   0  0  0  0  0  0  0  0  0  0  0  0
   66.0506  -11.0720    1.1140 O   0  0  0  0  0  0  0  0  0  0  0  0
   68.1893  -10.9857    2.4031 O   0  0  0  0  0  0  0  0  0  0  0  0
   59.4720  -11.6970    0.4008 C   0  0  2  0  0  0  0  0  0  0  0  0
   58.2379  -12.2648    0.1279 C   0  0  2  0  0  0  0  0  0  0  0  0
   58.0100  -12.8569   -1.1385 C   0  0  1  0  0  0  0  0  0  0  0  0
   56.9862  -13.3783   -1.5599 O   0  0  0  0  0  0  0  0  0  0  0  0
   57.3788  -12.1404    1.2249 N   0  0  0  0  0  0  0  0  0  0  0  0
   58.1325  -11.5182    2.0715 C   0  0  0  0  0  0  0  0  0  0  0  0
   59.3942  -11.2071    1.6830 N   0  0  0  0  0  0  0  0  0  0  0  0
  1  5  1  1  0  0  0
  1 14  1  0  0  0  0
  1 19  2  0  0  0  0
  2 15  1  6  0  0  0
  2 20  2  0  0  0  0
  2 23  1  0  0  0  0
  3 16  1  6  0  0  0
  3 21  2  0  0  0  0
  3 24  1  0  0  0  0
  3 25  1  0  0  0  0
  4  6  1  0  0  0  0
  5  4  1  0  0  0  0
  6  7  1  0  0  0  0
  6  8  2  0  0  0  0
  7 12  1  0  0  0  0
  8  9  1  0  0  0  0
  8 10  1  0  0  0  0
 10 11  1  0  0  0  0
 10 12  2  0  0  0  0
 12 32  1  0  0  0  0
 13 17  1  0  0  0  0
 17 18  1  6  0  0  0
 17 22  1  0  0  0  0
 23  1  1  0  0  0  0
 24  2  1  0  0  0  0
 26 22  1  6  0  0  0
 27 26  1  0  0  0  0
 27 28  1  0  0  0  0
 27 30  1  6  0  0  0
 28 13  1  0  0  0  0
 28 29  1  6  0  0  0
 31 30  1  0  0  0  0
 32 26  1  0  0  0  0
 32 31  1  0  0  0  0
M  CHG  3  14  -1  15  -1  16  -1
M  END
>  <CHROM.1>
22.10661456,170.72971941,-175.45740129,155.34365234,-51.04554909,-32.16171918
81.45317225,-36.37756062,63.09236435,-11.72928128,1.68032452,0.21114342,0.01958345
1.37401739

>  <Name>
2au4_lig

>  <RI>
0

>  <Rbt.Current_Directory>
/home/itssahil/PROJECTS/Mol_Feturizer/New_Systems/rnas/2au4

>  <Rbt.Executable>
rbdock ($Id: //depot/dev/client3/rdock/2013.1/src/exe/rbdock.cxx#4 $)

>  <Rbt.Library>
libRbt.so (2013.1, Build901 2013/11/27)

>  <Rbt.Parameter_File>
/export/apps/rDock/src/rDock_2013.1_src/data/scripts/dock_solv.prm

>  <Rbt.Receptor>
prm/blind_docking_100.prm

>  <SCORE>
-43.3057

>  <SCORE.INTER>
-24.1529

>  <SCORE.INTER.CONST>
1

>  <SCORE.INTER.POLAR>
-3.55258

>  <SCORE.INTER.ROT>
8

>  <SCORE.INTER.SOLV>
31.0362

>  <SCORE.INTER.VDW>
-23.5387

>  <SCORE.INTER.norm>
-0.754777

>  <SCORE.INTRA>
-20.1025

>  <SCORE.INTRA.DIHEDRAL>
-48.1578

>  <SCORE.INTRA.DIHEDRAL.0>
76.3625

>  <SCORE.INTRA.POLAR>
0

>  <SCORE.INTRA.POLAR.0>
0

>  <SCORE.INTRA.REPUL>
0.132487

>  <SCORE.INTRA.REPUL.0>
0.12705

>  <SCORE.INTRA.SOLV>
-0.646634

>  <SCORE.INTRA.SOLV.lig_0>
-119.383

>  <SCORE.INTRA.VDW>
3.63734

>  <SCORE.INTRA.VDW.0>
-5.10464

>  <SCORE.INTRA.norm>
-0.628202

>  <SCORE.RESTR>
0.949589

>  <SCORE.RESTR.CAVITY>
0.949589

>  <SCORE.RESTR.norm>
0.0296746

>  <SCORE.SYSTEM>
0

>  <SCORE.SYSTEM.CONST>
0

>  <SCORE.SYSTEM.DIHEDRAL>
0

>  <SCORE.SYSTEM.SOLV>
0

>  <SCORE.SYSTEM.norm>
0

>  <SCORE.heavy>
32

>  <SCORE.norm>
-1.3533

>  <RMSD>
21.277

$$$$
2au4_lig
 OpenBabel11021811423D
libRbt.so/2013.1/901 2013/11/27
 32 34  0  0  0  0  0  0  0  0999 V2000
   66.5357  -10.5667    2.7291 P   0  0  1  0  0  0  0  0  0  0  0  0
   65.0984  -12.0474    0.9653 P   0  0  1  0  0  0  0  0  0  0  0  0
   64.0972  -14.3424    2.0475 P   0  0  2  0  0  0  0  0  0  0  0  0
   65.4393  -12.0215    4.6557 C   0  0  0  0  0  0  0  0  0  0  0  0
   65.6287  -10.7329    4.0479 O   0  0  0  0  0  0  0  0  0  0  0  0
   64.5904  -11.9509    5.9166 C   0  0  0  0  0  0  0  0  0  0  0  0
   63.4630  -11.0729    5.7209 O   0  0  0  0  0  0  0  0  0  0  0  0
   64.0631  -13.3279    6.2886 C   0  0  0  0  0  0  0  0  0  0  0  0
   64.5878  -13.7530    7.5522 O   0  0  0  0  0  0  0  0  0  0  0  0
   62.5583  -13.2123    6.3368 C   0  0  0  0  0  0  0  0  0  0  0  0
   62.0516  -13.5645    7.6311 O   0  0  0  0  0  0  0  0  0  0  0  0
   62.2295  -11.7673    6.0034 C   0  0  0  0  0  0  0  0  0  0  0  0
   61.3511   -9.7566    1.3934 N   0  0  0  0  0  0  0  0  0  0  0  0
   67.1291   -9.2144    2.7331 O   0  5  0  0  0  0  0  0  0  0  0  0
   63.9992  -11.8766   -0.0046 O   0  5  0  0  0  0  0  0  0  0  0  0
   63.2621  -14.4342    0.8328 O   0  5  0  0  0  0  0  0  0  0  0  0
   62.4201   -9.5699    2.2373 C   0  0  1  0  0  0  0  0  0  0  0  0
   63.3693   -8.7478    1.8105 N   0  0  0  0  0  0  0  0  0  0  0  0
   67.4039  -11.7566    2.6002 O   0  0  0  0  0  0  0  0  0  0  0  0
   66.3558  -12.7047    0.5525 O   0  0  0  0  0  0  0  0  0  0  0  0
   63.5737  -14.8244    3.3427 O   0  0  0  0  0  0  0  0  0  0  0  0
   62.5370  -10.1567    3.4259 N   0  0  0  0  0  0  0  0  0  0  0  0
   65.4590  -10.6233    1.5639 O   0  0  0  0  0  0  0  0  0  0  0  0
   64.5302  -12.8208    2.2318 O   0  0  0  0  0  0  0  0  0  0  0  0
   65.4970  -15.0757    1.7586 O   0  0  0  0  0  0  0  0  0  0  0  0
   61.4819  -10.9561    3.7056 C   0  0  2  0  0  0  0  0  0  0  0  0
   60.3696  -11.2000    2.9163 C   0  0  2  0  0  0  0  0  0  0  0  0
   60.2606  -10.5669    1.6539 C   0  0  1  0  0  0  0  0  0  0  0  0
   59.3485  -10.6441    0.8419 O   0  0  0  0  0  0  0  0  0  0  0  0
   59.4924  -12.0853    3.5518 N   0  0  0  0  0  0  0  0  0  0  0  0
   60.1173  -12.3137    4.6606 C   0  0  0  0  0  0  0  0  0  0  0  0
   61.3078  -11.6931    4.8530 N   0  0  0  0  0  0  0  0  0  0  0  0
  1  5  1  1  0  0  0
  1 14  1  0  0  0  0
  1 19  2  0  0  0  0
  2 15  1  6  0  0  0
  2 20  2  0  0  0  0
  2 23  1  0  0  0  0
  3 16  1  6  0  0  0
  3 21  2  0  0  0  0
  3 24  1  0  0  0  0
  3 25  1  0  0  0  0
  4  6  1  0  0  0  0
  5  4  1  0  0  0  0
  6  7  1  0  0  0  0
  6  8  2  0  0  0  0
  7 12  1  0  0  0  0
  8  9  1  0  0  0  0
  8 10  1  0  0  0  0
 10 11  1  0  0  0  0
 10 12  2  0  0  0  0
 12 32  1  0  0  0  0
 13 17  1  0  0  0  0
 17 18  1  1  0  0  0
 17 22  1  0  0  0  0
 23  1  1  0  0  0  0
 24  2  1  0  0  0  0
 26 22  1  1  0  0  0
 27 26  1  0  0  0  0
 27 28  1  0  0  0  0
 27 30  1  1  0  0  0
 28 13  1  0  0  0  0
 28 29  1  1  0  0  0
 31 30  1  0  0  0  0
 32 26  1  0  0  0  0
 32 31  1  0  0  0  0
M  CHG  3  14  -1  15  -1  16  -1
M  END
>  <CHROM.1>
-150.66803921,174.84732893,-47.43708083,42.79659657,177.97613709,-6.88521519
-89.24242004,67.88901874,63.67896208,-11.92782376,3.13179054,-0.53519896
-0.18319889,1.94331773

>  <Name>
2au4_lig

>  <RI>
0

>  <Rbt.Current_Directory>
/home/itssahil/PROJECTS/Mol_Feturizer/New_Systems/rnas/2au4

>  <Rbt.Executable>
rbdock ($Id: //depot/dev/client3/rdock/2013.1/src/exe/rbdock.cxx#4 $)

>  <Rbt.Library>
libRbt.so (2013.1, Build901 2013/11/27)

>  <Rbt.Parameter_File>
/export/apps/rDock/src/rDock_2013.1_src/data/scripts/dock_solv.prm

>  <Rbt.Receptor>
prm/blind_docking_100.prm

>  <SCORE>
-40.1363

>  <SCORE.INTER>
-21.2213

>  <SCORE.INTER.CONST>
1

>  <SCORE.INTER.POLAR>
-3.26193

>  <SCORE.INTER.ROT>
8

>  <SCORE.INTER.SOLV>
25.7282

>  <SCORE.INTER.VDW>
-20.7839

>  <SCORE.INTER.norm>
-0.663165

>  <SCORE.INTRA>
-19.7193

>  <SCORE.INTRA.DIHEDRAL>
-40.9645

>  <SCORE.INTRA.DIHEDRAL.0>
76.3625

>  <SCORE.INTRA.POLAR>
0

>  <SCORE.INTRA.POLAR.0>
0

>  <SCORE.INTRA.REPUL>
-0.0388265

>  <SCORE.INTRA.REPUL.0>
0.12705

>  <SCORE.INTRA.SOLV>
4.29766

>  <SCORE.INTRA.SOLV.lig_0>
-119.383

>  <SCORE.INTRA.VDW>
-1.19169

>  <SCORE.INTRA.VDW.0>
-5.10464

>  <SCORE.INTRA.norm>
-0.616227

>  <SCORE.RESTR>
0.80428

>  <SCORE.RESTR.CAVITY>
0.80428

>  <SCORE.RESTR.norm>
0.0251338

>  <SCORE.SYSTEM>
0

>  <SCORE.SYSTEM.CONST>
0

>  <SCORE.SYSTEM.DIHEDRAL>
0

>  <SCORE.SYSTEM.SOLV>
0

>  <SCORE.SYSTEM.norm>
0

>  <SCORE.heavy>
32

>  <SCORE.norm>
-1.25426

>  <RMSD>
21.403

$$$$
2au4_lig
 OpenBabel11021811423D
libRbt.so/2013.1/901 2013/11/27
 32 34  0  0  0  0  0  0  0  0999 V2000
   61.9734  -12.7941    0.4437 P   0  0  1  0  0  0  0  0  0  0  0  0
   59.5912  -12.6212   -0.8463 P   0  0  1  0  0  0  0  0  0  0  0  0
   57.0760  -13.5180   -1.4035 P   0  0  2  0  0  0  0  0  0  0  0  0
   60.7291  -12.7024    2.7833 C   0  0  0  0  0  0  0  0  0  0  0  0
   61.6437  -13.3799    1.9057 O   0  0  0  0  0  0  0  0  0  0  0  0
   61.4434  -11.8892    3.8529 C   0  0  0  0  0  0  0  0  0  0  0  0
   62.6565  -12.5501    4.2672 O   0  0  0  0  0  0  0  0  0  0  0  0
   61.8080  -10.5098    3.3266 C   0  0  0  0  0  0  0  0  0  0  0  0
   61.1185   -9.4856    4.0536 O   0  0  0  0  0  0  0  0  0  0  0  0
   63.3037  -10.3729    3.4826 C   0  0  0  0  0  0  0  0  0  0  0  0
   63.6390   -9.2513    4.3106 O   0  0  0  0  0  0  0  0  0  0  0  0
   63.7889  -11.6695    4.1076 C   0  0  0  0  0  0  0  0  0  0  0  0
   67.7752  -10.9013    1.0115 N   0  0  0  0  0  0  0  0  0  0  0  0
   61.7138  -11.3404    0.4494 O   0  5  0  0  0  0  0  0  0  0  0  0
   58.9344  -12.1813    0.3999 O   0  5  0  0  0  0  0  0  0  0  0  0
   56.6351  -12.4924   -2.3705 O   0  5  0  0  0  0  0  0  0  0  0  0
   66.9856   -9.9827    1.6613 C   0  0  1  0  0  0  0  0  0  0  0  0
   67.2851   -8.7059    1.4638 N   0  0  0  0  0  0  0  0  0  0  0  0
   63.2910  -13.3099    0.0146 O   0  0  0  0  0  0  0  0  0  0  0  0
   59.9999  -11.6267   -1.8599 O   0  0  0  0  0  0  0  0  0  0  0  0
   56.7736  -13.3570    0.0341 O   0  0  0  0  0  0  0  0  0  0  0  0
   65.9653  -10.3093    2.4507 N   0  0  0  0  0  0  0  0  0  0  0  0
   60.8649  -13.4839   -0.4593 O   0  0  0  0  0  0  0  0  0  0  0  0
   58.6521  -13.6899   -1.5544 O   0  0  0  0  0  0  0  0  0  0  0  0
   56.5171  -14.9448   -1.8854 O   0  0  0  0  0  0  0  0  0  0  0  0
   65.7967  -11.6489    2.5374 C   0  0  2  0  0  0  0  0  0  0  0  0
   66.5428  -12.6397    1.9198 C   0  0  2  0  0  0  0  0  0  0  0  0
   67.6252  -12.2747    1.0824 C   0  0  1  0  0  0  0  0  0  0  0  0
   68.3705  -13.0049    0.4430 O   0  0  0  0  0  0  0  0  0  0  0  0
   66.0587  -13.9090    2.2540 N   0  0  0  0  0  0  0  0  0  0  0  0
   65.0722  -13.6099    3.0345 C   0  0  0  0  0  0  0  0  0  0  0  0
   64.8296  -12.2963    3.2695 N   0  0  0  0  0  0  0  0  0  0  0  0
  1  5  1  1  0  0  0
  1 14  1  0  0  0  0
  1 19  2  0  0  0  0
  2 15  1  1  0  0  0
  2 20  2  0  0  0  0
  2 23  1  0  0  0  0
  3 16  1  6  0  0  0
  3 21  2  0  0  0  0
  3 24  1  0  0  0  0
  3 25  1  0  0  0  0
  4  6  1  0  0  0  0
  5  4  1  0  0  0  0
  6  7  1  0  0  0  0
  6  8  2  0  0  0  0
  7 12  1  0  0  0  0
  8  9  1  0  0  0  0
  8 10  1  0  0  0  0
 10 11  1  0  0  0  0
 10 12  2  0  0  0  0
 12 32  1  0  0  0  0
 13 17  1  0  0  0  0
 17 18  1  6  0  0  0
 17 22  1  0  0  0  0
 23  1  1  0  0  0  0
 24  2  1  0  0  0  0
 26 22  1  6  0  0  0
 27 26  1  0  0  0  0
 27 28  1  0  0  0  0
 27 30  1  6  0  0  0
 28 13  1  0  0  0  0
 28 29  1  6  0  0  0
 31 30  1  0  0  0  0
 32 26  1  0  0  0  0
 32 31  1  0  0  0  0
M  CHG  3  14  -1  15  -1  16  -1
M  END
>  <CHROM.1>
24.16170029,-58.13657670,80.14703625,-34.77650489,-101.01550873,156.13351076
100.33878537,33.35112866,62.20207356,-12.20358118,1.10098846,-2.70415332
0.00632462,1.08116445

>  <Name>
2au4_lig

>  <RI>
0

>  <Rbt.Current_Directory>
/home/itssahil/PROJECTS/Mol_Feturizer/New_Systems/rnas/2au4

>  <Rbt.Executable>
rbdock ($Id: //depot/dev/client3/rdock/2013.1/src/exe/rbdock.cxx#4 $)

>  <Rbt.Library>
libRbt.so (2013.1, Build901 2013/11/27)

>  <Rbt.Parameter_File>
/export/apps/rDock/src/rDock_2013.1_src/data/scripts/dock_solv.prm

>  <Rbt.Receptor>
prm/blind_docking_100.prm

>  <SCORE>
-39.9674

>  <SCORE.INTER>
-20.5084

>  <SCORE.INTER.CONST>
1

>  <SCORE.INTER.POLAR>
-2.10755

>  <SCORE.INTER.ROT>
8

>  <SCORE.INTER.SOLV>
30.4756

>  <SCORE.INTER.VDW>
-25.739

>  <SCORE.INTER.norm>
-0.640888

>  <SCORE.INTRA>
-19.5595

>  <SCORE.INTRA.DIHEDRAL>
-40.3657

>  <SCORE.INTRA.DIHEDRAL.0>
76.3625

>  <SCORE.INTRA.POLAR>
0

>  <SCORE.INTRA.POLAR.0>
0

>  <SCORE.INTRA.REPUL>
-0.12705

>  <SCORE.INTRA.REPUL.0>
0.12705

>  <SCORE.INTRA.SOLV>
1.69648

>  <SCORE.INTRA.SOLV.lig_0>
-119.383

>  <SCORE.INTRA.VDW>
0.410359

>  <SCORE.INTRA.VDW.0>
-5.10464

>  <SCORE.INTRA.norm>
-0.611234

>  <SCORE.RESTR>
0.100454

>  <SCORE.RESTR.CAVITY>
0.100454

>  <SCORE.RESTR.norm>
0.00313919

>  <SCORE.SYSTEM>
0

>  <SCORE.SYSTEM.CONST>
0

>  <SCORE.SYSTEM.DIHEDRAL>
0

>  <SCORE.SYSTEM.SOLV>
0

>  <SCORE.SYSTEM.norm>
0

>  <SCORE.heavy>
32

>  <SCORE.norm>
-1.24898

>  <RMSD>
21.464

$$$$
2au4_lig
 OpenBabel11021811423D
libRbt.so/2013.1/901 2013/11/27
 32 34  0  0  0  0  0  0  0  0999 V2000
   65.4649  -13.6498    2.8637 P   0  0  1  0  0  0  0  0  0  0  0  0
   66.9338  -11.7491    1.5992 P   0  0  1  0  0  0  0  0  0  0  0  0
   68.8158  -10.4823    0.0845 P   0  0  2  0  0  0  0  0  0  0  0  0
   62.8272  -13.9201    2.8513 C   0  0  0  0  0  0  0  0  0  0  0  0
   64.0764  -14.0415    2.1509 O   0  0  0  0  0  0  0  0  0  0  0  0
   62.5377  -12.4893    3.2811 C   0  0  0  0  0  0  0  0  0  0  0  0
   61.9075  -11.7557    2.2111 O   0  0  0  0  0  0  0  0  0  0  0  0
   61.6099  -12.4662    4.4857 C   0  0  0  0  0  0  0  0  0  0  0  0
   62.2642  -11.8947    5.6251 O   0  0  0  0  0  0  0  0  0  0  0  0
   60.4059  -11.6481    4.0841 C   0  0  0  0  0  0  0  0  0  0  0  0
   60.2315  -10.5202    4.9522 O   0  0  0  0  0  0  0  0  0  0  0  0
   60.6533  -11.1963    2.6551 C   0  0  0  0  0  0  0  0  0  0  0  0
   59.2832  -12.6113   -2.0552 N   0  0  0  0  0  0  0  0  0  0  0  0
   65.2459  -12.4474    3.6926 O   0  5  0  0  0  0  0  0  0  0  0  0
   65.8566  -10.8610    1.1208 O   0  5  0  0  0  0  0  0  0  0  0  0
   67.8427   -9.5772   -0.5598 O   0  5  0  0  0  0  0  0  0  0  0  0
   60.5229  -12.2609   -1.5755 C   0  0  1  0  0  0  0  0  0  0  0  0
   61.5196  -12.2839   -2.4501 N   0  0  0  0  0  0  0  0  0  0  0  0
   66.0470  -14.8687    3.4652 O   0  0  0  0  0  0  0  0  0  0  0  0
   67.5988  -11.4787    2.8908 O   0  0  0  0  0  0  0  0  0  0  0  0
   70.0586  -10.8557   -0.6225 O   0  0  0  0  0  0  0  0  0  0  0  0
   60.7565  -11.9081   -0.3139 N   0  0  0  0  0  0  0  0  0  0  0  0
   66.3763  -13.2338    1.6322 O   0  0  0  0  0  0  0  0  0  0  0  0
   68.0537  -11.8255    0.4743 O   0  0  0  0  0  0  0  0  0  0  0  0
   69.2082   -9.8702    1.5170 O   0  0  0  0  0  0  0  0  0  0  0  0
   59.6327  -11.9339    0.4390 C   0  0  2  0  0  0  0  0  0  0  0  0
   58.3505  -12.2733    0.0381 C   0  0  2  0  0  0  0  0  0  0  0  0
   58.1191  -12.6461   -1.3086 C   0  0  1  0  0  0  0  0  0  0  0  0
   57.0602  -12.9502   -1.8412 O   0  0  0  0  0  0  0  0  0  0  0  0
   57.4528  -12.1775    1.1067 N   0  0  0  0  0  0  0  0  0  0  0  0
   58.2332  -11.7939    2.0637 C   0  0  0  0  0  0  0  0  0  0  0  0
   59.5468  -11.6189    1.7745 N   0  0  0  0  0  0  0  0  0  0  0  0
  1  5  1  6  0  0  0
  1 14  1  0  0  0  0
  1 19  2  0  0  0  0
  2 15  1  6  0  0  0
  2 20  2  0  0  0  0
  2 23  1  0  0  0  0
  3 16  1  6  0  0  0
  3 21  2  0  0  0  0
  3 24  1  0  0  0  0
  3 25  1  0  0  0  0
  4  6  1  0  0  0  0
  5  4  1  0  0  0  0
  6  7  1  0  0  0  0
  6  8  2  0  0  0  0
  7 12  1  0  0  0  0
  8  9  1  0  0  0  0
  8 10  1  0  0  0  0
 10 11  1  0  0  0  0
 10 12  2  0  0  0  0
 12 32  1  0  0  0  0
 13 17  1  0  0  0  0
 17 18  1  6  0  0  0
 17 22  1  0  0  0  0
 23  1  1  0  0  0  0
 24  2  1  0  0  0  0
 26 22  1  6  0  0  0
 27 26  1  0  0  0  0
 27 28  1  0  0  0  0
 27 30  1  6  0  0  0
 28 13  1  0  0  0  0
 28 29  1  6  0  0  0
 31 30  1  0  0  0  0
 32 26  1  0  0  0  0
 32 31  1  0  0  0  0
M  CHG  3  14  -1  15  -1  16  -1
M  END
>  <CHROM.1>
-38.67400892,-79.38422812,-66.87345040,85.13723863,60.85160100,-28.85865658
119.18947488,62.65445466,63.53236553,-12.02283063,1.46154053,0.03821092,0.09760737
1.72511040

>  <Name>
2au4_lig

>  <RI>
0

>  <Rbt.Current_Directory>
/home/itssahil/PROJECTS/Mol_Feturizer/New_Systems/rnas/2au4

>  <Rbt.Executable>
rbdock ($Id: //depot/dev/client3/rdock/2013.1/src/exe/rbdock.cxx#4 $)

>  <Rbt.Library>
libRbt.so (2013.1, Build901 2013/11/27)

>  <Rbt.Parameter_File>
/export/apps/rDock/src/rDock_2013.1_src/data/scripts/dock_solv.prm

>  <Rbt.Receptor>
prm/blind_docking_100.prm

>  <SCORE>
-38.0743

>  <SCORE.INTER>
-15.8039

>  <SCORE.INTER.CONST>
1

>  <SCORE.INTER.POLAR>
-2.19131

>  <SCORE.INTER.ROT>
8

>  <SCORE.INTER.SOLV>
37.1725

>  <SCORE.INTER.VDW>
-24.5557

>  <SCORE.INTER.norm>
-0.493872

>  <SCORE.INTRA>
-23.013

>  <SCORE.INTRA.DIHEDRAL>
-47.184

>  <SCORE.INTRA.DIHEDRAL.0>
76.3625

>  <SCORE.INTRA.POLAR>
0

>  <SCORE.INTRA.POLAR.0>
0

>  <SCORE.INTRA.REPUL>
0.0668785

>  <SCORE.INTRA.REPUL.0>
0.12705

>  <SCORE.INTRA.SOLV>
-3.85047

>  <SCORE.INTRA.SOLV.lig_0>
-119.383

>  <SCORE.INTRA.VDW>
2.16988

>  <SCORE.INTRA.VDW.0>
-5.10464

>  <SCORE.INTRA.norm>
-0.719155

>  <SCORE.RESTR>
0.742591

>  <SCORE.RESTR.CAVITY>
0.742591

>  <SCORE.RESTR.norm>
0.023206

>  <SCORE.SYSTEM>
0

>  <SCORE.SYSTEM.CONST>
0

>  <SCORE.SYSTEM.DIHEDRAL>
0

>  <SCORE.SYSTEM.SOLV>
0

>  <SCORE.SYSTEM.norm>
0

>  <SCORE.heavy>
32

>  <SCORE.norm>
-1.18982

>  <RMSD>
21.465

$$$$
2au4_lig
 OpenBabel11021811423D
libRbt.so/2013.1/901 2013/11/27
 32 34  0  0  0  0  0  0  0  0999 V2000
   60.5975  -12.8263    1.2621 P   0  0  1  0  0  0  0  0  0  0  0  0
   60.2211  -12.1699   -1.3450 P   0  0  1  0  0  0  0  0  0  0  0  0
   57.6471  -13.0434   -1.5733 P   0  0  2  0  0  0  0  0  0  0  0  0
   63.1522  -12.7232    0.5594 C   0  0  0  0  0  0  0  0  0  0  0  0
   61.9613  -12.0265    0.9621 O   0  0  0  0  0  0  0  0  0  0  0  0
   64.4195  -11.9485    0.8901 C   0  0  0  0  0  0  0  0  0  0  0  0
   64.2398  -11.1704    2.0911 O   0  0  0  0  0  0  0  0  0  0  0  0
   65.5888  -12.8963    1.1068 C   0  0  0  0  0  0  0  0  0  0  0  0
   66.6041  -12.6917    0.1168 O   0  0  0  0  0  0  0  0  0  0  0  0
   66.1176  -12.6150    2.4930 C   0  0  0  0  0  0  0  0  0  0  0  0
   67.4967  -12.2242    2.4532 O   0  0  0  0  0  0  0  0  0  0  0  0
   65.2567  -11.4998    3.0609 C   0  0  0  0  0  0  0  0  0  0  0  0
   61.5245  -10.6702    6.4444 N   0  0  0  0  0  0  0  0  0  0  0  0
   60.9273  -14.0547    2.0125 O   0  5  0  0  0  0  0  0  0  0  0  0
   59.9697  -10.8418   -0.7525 O   0  5  0  0  0  0  0  0  0  0  0  0
   57.5909  -12.4497   -0.2221 O   0  5  0  0  0  0  0  0  0  0  0  0
   61.7885  -10.0232    5.2606 C   0  0  1  0  0  0  0  0  0  0  0  0
   60.9672   -9.0338    4.9356 N   0  0  0  0  0  0  0  0  0  0  0  0
   59.6008  -11.8751    1.7987 O   0  0  0  0  0  0  0  0  0  0  0  0
   61.4617  -12.4182   -2.1084 O   0  0  0  0  0  0  0  0  0  0  0  0
   57.5687  -14.5096   -1.7404 O   0  0  0  0  0  0  0  0  0  0  0  0
   62.8013  -10.3348    4.4558 N   0  0  0  0  0  0  0  0  0  0  0  0
   60.1254  -13.2549   -0.1917 O   0  0  0  0  0  0  0  0  0  0  0  0
   58.9871  -12.5432   -2.2740 O   0  0  0  0  0  0  0  0  0  0  0  0
   56.5029  -12.3655   -2.4744 O   0  0  0  0  0  0  0  0  0  0  0  0
   63.5395  -11.3605    4.9393 C   0  0  2  0  0  0  0  0  0  0  0  0
   63.3445  -12.0652    6.1162 C   0  0  2  0  0  0  0  0  0  0  0  0
   62.2617  -11.7203    6.9617 C   0  0  1  0  0  0  0  0  0  0  0  0
   61.9536  -12.2111    8.0395 O   0  0  0  0  0  0  0  0  0  0  0  0
   64.3199  -13.0561    6.2708 N   0  0  0  0  0  0  0  0  0  0  0  0
   65.0265  -12.8894    5.2008 C   0  0  0  0  0  0  0  0  0  0  0  0
   64.6497  -11.9093    4.3423 N   0  0  0  0  0  0  0  0  0  0  0  0
  1  5  1  6  0  0  0
  1 14  1  0  0  0  0
  1 19  2  0  0  0  0
  2 15  1  1  0  0  0
  2 20  2  0  0  0  0
  2 23  1  0  0  0  0
  3 16  1  1  0  0  0
  3 21  2  0  0  0  0
  3 24  1  0  0  0  0
  3 25  1  0  0  0  0
  4  6  1  0  0  0  0
  5  4  1  0  0  0  0
  6  7  1  0  0  0  0
  6  8  2  0  0  0  0
  7 12  1  0  0  0  0
  8  9  1  0  0  0  0
  8 10  1  0  0  0  0
 10 11  1  0  0  0  0
 10 12  2  0  0  0  0
 12 32  1  0  0  0  0
 13 17  1  0  0  0  0
 17 18  1  1  0  0  0
 17 22  1  0  0  0  0
 23  1  1  0  0  0  0
 24  2  1  0  0  0  0
 26 22  1  1  0  0  0
 27 26  1  0  0  0  0
 27 28  1  0  0  0  0
 27 30  1  1  0  0  0
 28 13  1  0  0  0  0
 28 29  1  1  0  0  0
 31 30  1  0  0  0  0
 32 26  1  0  0  0  0
 32 31  1  0  0  0  0
M  CHG  3  14  -1  15  -1  16  -1
M  END
>  <CHROM.1>
41.44636472,-33.09516565,27.53641201,32.11071435,-155.58731963,-38.96342832
-43.63216449,-77.25954627,61.75875700,-12.18766381,1.78029055,2.28534636
0.04108469,-1.75814372

>  <Name>
2au4_lig

>  <RI>
0

>  <Rbt.Current_Directory>
/home/itssahil/PROJECTS/Mol_Feturizer/New_Systems/rnas/2au4

>  <Rbt.Executable>
rbdock ($Id: //depot/dev/client3/rdock/2013.1/src/exe/rbdock.cxx#4 $)

>  <Rbt.Library>
libRbt.so (2013.1, Build901 2013/11/27)

>  <Rbt.Parameter_File>
/export/apps/rDock/src/rDock_2013.1_src/data/scripts/dock_solv.prm

>  <Rbt.Receptor>
prm/blind_docking_100.prm

>  <SCORE>
-31.8977

>  <SCORE.INTER>
-11.0042

>  <SCORE.INTER.CONST>
1

>  <SCORE.INTER.POLAR>
-0.938083

>  <SCORE.INTER.ROT>
8

>  <SCORE.INTER.SOLV>
28.034

>  <SCORE.INTER.VDW>
-22.4872

>  <SCORE.INTER.norm>
-0.34388

>  <SCORE.INTRA>
-21.036

>  <SCORE.INTRA.DIHEDRAL>
-42.9271

>  <SCORE.INTRA.DIHEDRAL.0>
76.3625

>  <SCORE.INTRA.POLAR>
0

>  <SCORE.INTRA.POLAR.0>
0

>  <SCORE.INTRA.REPUL>
0.0220174

>  <SCORE.INTRA.REPUL.0>
0.12705

>  <SCORE.INTRA.SOLV>
-1.98387

>  <SCORE.INTRA.SOLV.lig_0>
-119.383

>  <SCORE.INTRA.VDW>
1.30941

>  <SCORE.INTRA.VDW.0>
-5.10464

>  <SCORE.INTRA.norm>
-0.657374

>  <SCORE.RESTR>
0.142418

>  <SCORE.RESTR.CAVITY>
0.142418

>  <SCORE.RESTR.norm>
0.00445057

>  <SCORE.SYSTEM>
0

>  <SCORE.SYSTEM.CONST>
0

>  <SCORE.SYSTEM.DIHEDRAL>
0

>  <SCORE.SYSTEM.SOLV>
0

>  <SCORE.SYSTEM.norm>
0

>  <SCORE.heavy>
32

>  <SCORE.norm>
-0.996803

>  <RMSD>
21.665

$$$$
2au4_lig
 OpenBabel11021811423D
libRbt.so/2013.1/901 2013/11/27
 32 34  0  0  0  0  0  0  0  0999 V2000
   64.8011  -12.6897    0.7958 P   0  0  1  0  0  0  0  0  0  0  0  0
   62.1133  -12.8956    0.4746 P   0  0  1  0  0  0  0  0  0  0  0  0
   59.8068  -12.6295   -0.9572 P   0  0  2  0  0  0  0  0  0  0  0  0
   65.8254  -14.0596    2.8218 C   0  0  0  0  0  0  0  0  0  0  0  0
   64.7307  -13.8427    1.9161 O   0  0  0  0  0  0  0  0  0  0  0  0
   65.3589  -14.4696    4.2109 C   0  0  0  0  0  0  0  0  0  0  0  0
   65.6267  -13.4223    5.1658 O   0  0  0  0  0  0  0  0  0  0  0  0
   63.8640  -14.7485    4.2164 C   0  0  0  0  0  0  0  0  0  0  0  0
   63.6004  -16.1221    4.5272 O   0  0  0  0  0  0  0  0  0  0  0  0
   63.2604  -13.8317    5.2535 C   0  0  0  0  0  0  0  0  0  0  0  0
   62.5779  -14.5767    6.2709 O   0  0  0  0  0  0  0  0  0  0  0  0
   64.4128  -13.0391    5.8461 C   0  0  0  0  0  0  0  0  0  0  0  0
   60.9398   -9.3622    5.1498 N   0  0  0  0  0  0  0  0  0  0  0  0
   64.5221  -11.3901    1.4394 O   0  5  0  0  0  0  0  0  0  0  0  0
   61.9830  -13.8490    1.5935 O   0  5  0  0  0  0  0  0  0  0  0  0
   58.8797  -13.5649   -1.6256 O   0  5  0  0  0  0  0  0  0  0  0  0
   60.7664  -10.7241    5.2192 C   0  0  1  0  0  0  0  0  0  0  0  0
   59.5233  -11.1661    5.0834 N   0  0  0  0  0  0  0  0  0  0  0  0
   66.0365  -12.8749    0.0048 O   0  0  0  0  0  0  0  0  0  0  0  0
   61.8515  -11.4576    0.6916 O   0  0  0  0  0  0  0  0  0  0  0  0
   60.1153  -11.3243   -1.5778 O   0  0  0  0  0  0  0  0  0  0  0  0
   61.7602  -11.5889    5.4069 N   0  0  0  0  0  0  0  0  0  0  0  0
   63.5684  -13.0454   -0.1392 O   0  0  0  0  0  0  0  0  0  0  0  0
   61.1838  -13.3923   -0.7147 O   0  0  0  0  0  0  0  0  0  0  0  0
   59.2781  -12.3710    0.5376 O   0  0  0  0  0  0  0  0  0  0  0  0
   62.9586  -10.9713    5.5203 C   0  0  2  0  0  0  0  0  0  0  0  0
   63.2214   -9.6121    5.4630 C   0  0  2  0  0  0  0  0  0  0  0  0
   62.1520   -8.7052    5.2621 C   0  0  1  0  0  0  0  0  0  0  0  0
   62.1985   -7.4865    5.1615 O   0  0  0  0  0  0  0  0  0  0  0  0
   64.5887   -9.3620    5.6213 N   0  0  0  0  0  0  0  0  0  0  0  0
   65.0541  -10.5603    5.7603 C   0  0  0  0  0  0  0  0  0  0  0  0
   64.1712  -11.5890    5.7158 N   0  0  0  0  0  0  0  0  0  0  0  0
  1  5  1  1  0  0  0
  1 14  1  0  0  0  0
  1 19  2  0  0  0  0
  2 15  1  1  0  0  0
  2 20  2  0  0  0  0
  2 23  1  0  0  0  0
  3 16  1  6  0  0  0
  3 21  2  0  0  0  0
  3 24  1  0  0  0  0
  3 25  1  0  0  0  0
  4  6  1  0  0  0  0
  5  4  1  0  0  0  0
  6  7  1  0  0  0  0
  6  8  2  0  0  0  0
  7 12  1  0  0  0  0
  8  9  1  0  0  0  0
  8 10  1  0  0  0  0
 10 11  1  0  0  0  0
 10 12  2  0  0  0  0
 12 32  1  0  0  0  0
 13 17  1  0  0  0  0
 17 18  1  6  0  0  0
 17 22  1  0  0  0  0
 23  1  1  0  0  0  0
 24  2  1  0  0  0  0
 26 22  1  6  0  0  0
 27 26  1  0  0  0  0
 27 28  1  0  0  0  0
 27 30  1  6  0  0  0
 28 13  1  0  0  0  0
 28 29  1  6  0  0  0
 31 30  1  0  0  0  0
 32 26  1  0  0  0  0
 32 31  1  0  0  0  0
M  CHG  3  14  -1  15  -1  16  -1
M  END
>  <CHROM.1>
-78.53554965,-63.28691439,-154.67857977,-111.32363110,144.52267359,140.85687555
66.74804273,103.87355379,62.74583346,-12.28126423,2.70602186,-2.05847568
-0.61751704,1.05191137

>  <Name>
2au4_lig

>  <RI>
0

>  <Rbt.Current_Directory>
/home/itssahil/PROJECTS/Mol_Feturizer/New_Systems/rnas/2au4

>  <Rbt.Executable>
rbdock ($Id: //depot/dev/client3/rdock/2013.1/src/exe/rbdock.cxx#4 $)

>  <Rbt.Library>
libRbt.so (2013.1, Build901 2013/11/27)

>  <Rbt.Parameter_File>
/export/apps/rDock/src/rDock_2013.1_src/data/scripts/dock_solv.prm

>  <Rbt.Receptor>
prm/blind_docking_100.prm

>  <SCORE>
-41.8514

>  <SCORE.INTER>
-19.5159

>  <SCORE.INTER.CONST>
1

>  <SCORE.INTER.POLAR>
-1.68547

>  <SCORE.INTER.ROT>
8

>  <SCORE.INTER.SOLV>
29.672

>  <SCORE.INTER.VDW>
-26.2164

>  <SCORE.INTER.norm>
-0.609872

>  <SCORE.INTRA>
-22.8922

>  <SCORE.INTRA.DIHEDRAL>
-42.8876

>  <SCORE.INTRA.DIHEDRAL.0>
76.3625

>  <SCORE.INTRA.POLAR>
0

>  <SCORE.INTRA.POLAR.0>
0

>  <SCORE.INTRA.REPUL>
-0.12705

>  <SCORE.INTRA.REPUL.0>
0.12705

>  <SCORE.INTRA.SOLV>
-4.67758

>  <SCORE.INTRA.SOLV.lig_0>
-119.383

>  <SCORE.INTRA.VDW>
1.52565

>  <SCORE.INTRA.VDW.0>
-5.10464

>  <SCORE.INTRA.norm>
-0.715381

>  <SCORE.RESTR>
0.55669

>  <SCORE.RESTR.CAVITY>
0.55669

>  <SCORE.RESTR.norm>
0.0173966

>  <SCORE.SYSTEM>
0

>  <SCORE.SYSTEM.CONST>
0

>  <SCORE.SYSTEM.DIHEDRAL>
0

>  <SCORE.SYSTEM.SOLV>
0

>  <SCORE.SYSTEM.norm>
0

>  <SCORE.heavy>
32

>  <SCORE.norm>
-1.30786

>  <RMSD>
21.762

$$$$
2au4_lig
 OpenBabel11021811423D
libRbt.so/2013.1/901 2013/11/27
 32 34  0  0  0  0  0  0  0  0999 V2000
   65.1687  -14.2935    2.6203 P   0  0  1  0  0  0  0  0  0  0  0  0
   65.9644  -11.9895    1.4254 P   0  0  1  0  0  0  0  0  0  0  0  0
   68.1649  -10.4540    0.9345 P   0  0  2  0  0  0  0  0  0  0  0  0
   62.5572  -14.0524    2.2300 C   0  0  0  0  0  0  0  0  0  0  0  0
   63.8656  -14.2699    1.6764 O   0  0  0  0  0  0  0  0  0  0  0  0
   62.3573  -12.6209    2.7057 C   0  0  0  0  0  0  0  0  0  0  0  0
   61.5733  -11.8742    1.7527 O   0  0  0  0  0  0  0  0  0  0  0  0
   61.6339  -12.5940    4.0430 C   0  0  0  0  0  0  0  0  0  0  0  0
   62.4685  -12.0362    5.0655 O   0  0  0  0  0  0  0  0  0  0  0  0
   60.3912  -11.7601    3.8418 C   0  0  0  0  0  0  0  0  0  0  0  0
   60.3712  -10.6351    4.7307 O   0  0  0  0  0  0  0  0  0  0  0  0
   60.4128  -11.3032    2.3933 C   0  0  0  0  0  0  0  0  0  0  0  0
   58.2868  -12.6534   -2.0478 N   0  0  0  0  0  0  0  0  0  0  0  0
   64.7725  -14.7775    3.9580 O   0  5  0  0  0  0  0  0  0  0  0  0
   66.6266  -12.9575    0.5295 O   0  5  0  0  0  0  0  0  0  0  0  0
   68.6229   -9.1264    1.3916 O   0  5  0  0  0  0  0  0  0  0  0  0
   59.5906  -12.3165   -1.7714 C   0  0  1  0  0  0  0  0  0  0  0  0
   60.4324  -12.3353   -2.7962 N   0  0  0  0  0  0  0  0  0  0  0  0
   66.2697  -14.9558    1.8886 O   0  0  0  0  0  0  0  0  0  0  0  0
   64.8086  -11.2046    0.9443 O   0  0  0  0  0  0  0  0  0  0  0  0
   67.6262  -10.6202   -0.4316 O   0  0  0  0  0  0  0  0  0  0  0  0
   60.0282  -11.9802   -0.5606 N   0  0  0  0  0  0  0  0  0  0  0  0
   65.5280  -12.7523    2.7460 O   0  0  0  0  0  0  0  0  0  0  0  0
   67.0626  -10.9731    1.9603 O   0  0  0  0  0  0  0  0  0  0  0  0
   69.3628  -11.5041    1.1416 O   0  0  0  0  0  0  0  0  0  0  0  0
   59.0409  -12.0079    0.3640 C   0  0  2  0  0  0  0  0  0  0  0  0
   57.7081  -12.3345    0.1725 C   0  0  2  0  0  0  0  0  0  0  0  0
   57.2587  -12.6898   -1.1229 C   0  0  1  0  0  0  0  0  0  0  0  0
   56.1251  -12.9809   -1.4802 O   0  0  0  0  0  0  0  0  0  0  0  0
   56.9960  -12.2458    1.3734 N   0  0  0  0  0  0  0  0  0  0  0  0
   57.9242  -11.8785    2.1953 C   0  0  0  0  0  0  0  0  0  0  0  0
   59.1750  -11.7083    1.6991 N   0  0  0  0  0  0  0  0  0  0  0  0
  1  5  1  6  0  0  0
  1 14  1  0  0  0  0
  1 19  2  0  0  0  0
  2 15  1  6  0  0  0
  2 20  2  0  0  0  0
  2 23  1  0  0  0  0
  3 16  1  1  0  0  0
  3 21  2  0  0  0  0
  3 24  1  0  0  0  0
  3 25  1  0  0  0  0
  4  6  1  0  0  0  0
  5  4  1  0  0  0  0
  6  7  1  0  0  0  0
  6  8  2  0  0  0  0
  7 12  1  0  0  0  0
  8  9  1  0  0  0  0
  8 10  1  0  0  0  0
 10 11  1  0  0  0  0
 10 12  2  0  0  0  0
 12 32  1  0  0  0  0
 13 17  1  0  0  0  0
 17 18  1  6  0  0  0
 17 22  1  0  0  0  0
 23  1  1  0  0  0  0
 24  2  1  0  0  0  0
 26 22  1  6  0  0  0
 27 26  1  0  0  0  0
 27 28  1  0  0  0  0
 27 30  1  6  0  0  0
 28 13  1  0  0  0  0
 28 29  1  6  0  0  0
 31 30  1  0  0  0  0
 32 26  1  0  0  0  0
 32 31  1  0  0  0  0
M  CHG  3  14  -1  15  -1  16  -1
M  END
>  <CHROM.1>
29.58680988,-30.05426245,153.06109737,102.29759365,70.88792831,-29.34252636
-64.51517609,40.72506449,63.00680825,-12.24541476,1.40330612,0.11779342,0.09028783
1.79348159

>  <Name>
2au4_lig

>  <RI>
0

>  <Rbt.Current_Directory>
/home/itssahil/PROJECTS/Mol_Feturizer/New_Systems/rnas/2au4

>  <Rbt.Executable>
rbdock ($Id: //depot/dev/client3/rdock/2013.1/src/exe/rbdock.cxx#4 $)

>  <Rbt.Library>
libRbt.so (2013.1, Build901 2013/11/27)

>  <Rbt.Parameter_File>
/export/apps/rDock/src/rDock_2013.1_src/data/scripts/dock_solv.prm

>  <Rbt.Receptor>
prm/blind_docking_100.prm

>  <SCORE>
-42.4578

>  <SCORE.INTER>
-20.6222

>  <SCORE.INTER.CONST>
1

>  <SCORE.INTER.POLAR>
-2.88368

>  <SCORE.INTER.ROT>
8

>  <SCORE.INTER.SOLV>
40.2211

>  <SCORE.INTER.VDW>
-26.4762

>  <SCORE.INTER.norm>
-0.644444

>  <SCORE.INTRA>
-22.369

>  <SCORE.INTRA.DIHEDRAL>
-46.1652

>  <SCORE.INTRA.DIHEDRAL.0>
76.3625

>  <SCORE.INTRA.POLAR>
0

>  <SCORE.INTRA.POLAR.0>
0

>  <SCORE.INTRA.REPUL>
0.0656881

>  <SCORE.INTRA.REPUL.0>
0.12705

>  <SCORE.INTRA.SOLV>
-3.04835

>  <SCORE.INTRA.SOLV.lig_0>
-119.383

>  <SCORE.INTRA.VDW>
1.90933

>  <SCORE.INTRA.VDW.0>
-5.10464

>  <SCORE.INTRA.norm>
-0.699032

>  <SCORE.RESTR>
0.533414

>  <SCORE.RESTR.CAVITY>
0.533414

>  <SCORE.RESTR.norm>
0.0166692

>  <SCORE.SYSTEM>
0

>  <SCORE.SYSTEM.CONST>
0

>  <SCORE.SYSTEM.DIHEDRAL>
0

>  <SCORE.SYSTEM.SOLV>
0

>  <SCORE.SYSTEM.norm>
0

>  <SCORE.heavy>
32

>  <SCORE.norm>
-1.32681

>  <RMSD>
21.806

$$$$
2au4_lig
 OpenBabel11021811423D
libRbt.so/2013.1/901 2013/11/27
 32 34  0  0  0  0  0  0  0  0999 V2000
   65.3435  -13.1678    4.1424 P   0  0  1  0  0  0  0  0  0  0  0  0
   65.6617  -13.8176    1.5259 P   0  0  1  0  0  0  0  0  0  0  0  0
   64.0237  -12.4043   -0.1355 P   0  0  2  0  0  0  0  0  0  0  0  0
   62.7364  -13.0002    4.5957 C   0  0  0  0  0  0  0  0  0  0  0  0
   64.0339  -13.4300    5.0400 O   0  0  0  0  0  0  0  0  0  0  0  0
   62.6819  -11.5050    4.3188 C   0  0  0  0  0  0  0  0  0  0  0  0
   62.0414  -11.2463    3.0527 O   0  0  0  0  0  0  0  0  0  0  0  0
   61.8987  -10.7844    5.4051 C   0  0  0  0  0  0  0  0  0  0  0  0
   62.7391   -9.8731    6.1235 O   0  0  0  0  0  0  0  0  0  0  0  0
   60.7747  -10.0536    4.7103 C   0  0  0  0  0  0  0  0  0  0  0  0
   60.8412   -8.6428    4.9581 O   0  0  0  0  0  0  0  0  0  0  0  0
   60.9246  -10.3489    3.2279 C   0  0  0  0  0  0  0  0  0  0  0  0
   58.6328  -12.3961   -0.8493 N   0  0  0  0  0  0  0  0  0  0  0  0
   65.8358  -11.8025    4.4153 O   0  5  0  0  0  0  0  0  0  0  0  0
   66.7854  -12.8966    1.2664 O   0  5  0  0  0  0  0  0  0  0  0  0
   64.5193  -12.0289   -1.4752 O   0  5  0  0  0  0  0  0  0  0  0  0
   59.9152  -11.9190   -0.7173 C   0  0  1  0  0  0  0  0  0  0  0  0
   60.6823  -11.9884   -1.7970 N   0  0  0  0  0  0  0  0  0  0  0  0
   66.2523  -14.3254    4.2839 O   0  0  0  0  0  0  0  0  0  0  0  0
   65.9254  -15.2294    1.8733 O   0  0  0  0  0  0  0  0  0  0  0  0
   64.1909  -11.4754    1.0016 O   0  0  0  0  0  0  0  0  0  0  0  0
   60.4020  -11.4044    0.4092 N   0  0  0  0  0  0  0  0  0  0  0  0
   64.7570  -13.1889    2.6673 O   0  0  0  0  0  0  0  0  0  0  0  0
   64.6947  -13.7921    0.2651 O   0  0  0  0  0  0  0  0  0  0  0  0
   62.4681  -12.7861   -0.2576 O   0  0  0  0  0  0  0  0  0  0  0  0
   59.4879  -11.4052    1.4066 C   0  0  2  0  0  0  0  0  0  0  0  0
   58.1815  -11.8645    1.3598 C   0  0  2  0  0  0  0  0  0  0  0  0
   57.6790  -12.4090    0.1526 C   0  0  1  0  0  0  0  0  0  0  0  0
   56.5557  -12.8361   -0.0782 O   0  0  0  0  0  0  0  0  0  0  0  0
   57.5489  -11.6938    2.5958 N   0  0  0  0  0  0  0  0  0  0  0  0
   58.4931  -11.1533    3.2946 C   0  0  0  0  0  0  0  0  0  0  0  0
   59.6852  -10.9379    2.6844 N   0  0  0  0  0  0  0  0  0  0  0  0
  1  5  1  1  0  0  0
  1 14  1  0  0  0  0
  1 19  2  0  0  0  0
  2 15  1  6  0  0  0
  2 20  2  0  0  0  0
  2 23  1  0  0  0  0
  3 16  1  6  0  0  0
  3 21  2  0  0  0  0
  3 24  1  0  0  0  0
  3 25  1  0  0  0  0
  4  6  1  0  0  0  0
  5  4  1  0  0  0  0
  6  7  1  0  0  0  0
  6  8  2  0  0  0  0
  7 12  1  0  0  0  0
  8  9  1  0  0  0  0
  8 10  1  0  0  0  0
 10 11  1  0  0  0  0
 10 12  2  0  0  0  0
 12 32  1  0  0  0  0
 13 17  1  0  0  0  0
 17 18  1  6  0  0  0
 17 22  1  0  0  0  0
 23  1  1  0  0  0  0
 24  2  1  0  0  0  0
 26 22  1  6  0  0  0
 27 26  1  0  0  0  0
 27 28  1  0  0  0  0
 27 30  1  6  0  0  0
 28 13  1  0  0  0  0
 28 29  1  6  0  0  0
 31 30  1  0  0  0  0
 32 26  1  0  0  0  0
 32 31  1  0  0  0  0
M  CHG  3  14  -1  15  -1  16  -1
M  END
>  <CHROM.1>
84.20709513,-71.19102875,116.49791215,133.13642428,-57.25422169,-55.24262943
-144.10180750,-60.34533955,62.48491525,-12.20361040,2.12693803,0.13729505
-0.29411946,1.26635724

>  <Name>
2au4_lig

>  <RI>
0

>  <Rbt.Current_Directory>
/home/itssahil/PROJECTS/Mol_Feturizer/New_Systems/rnas/2au4

>  <Rbt.Executable>
rbdock ($Id: //depot/dev/client3/rdock/2013.1/src/exe/rbdock.cxx#4 $)

>  <Rbt.Library>
libRbt.so (2013.1, Build901 2013/11/27)

>  <Rbt.Parameter_File>
/export/apps/rDock/src/rDock_2013.1_src/data/scripts/dock_solv.prm

>  <Rbt.Receptor>
prm/blind_docking_100.prm

>  <SCORE>
-24.1598

>  <SCORE.INTER>
-10.4546

>  <SCORE.INTER.CONST>
1

>  <SCORE.INTER.POLAR>
-1.4396

>  <SCORE.INTER.ROT>
8

>  <SCORE.INTER.SOLV>
33.1817

>  <SCORE.INTER.VDW>
-22.1649

>  <SCORE.INTER.norm>
-0.326705

>  <SCORE.INTRA>
-14.6738

>  <SCORE.INTRA.DIHEDRAL>
-37.2414

>  <SCORE.INTRA.DIHEDRAL.0>
76.3625

>  <SCORE.INTRA.POLAR>
0

>  <SCORE.INTRA.POLAR.0>
0

>  <SCORE.INTRA.REPUL>
0.0811846

>  <SCORE.INTRA.REPUL.0>
0.12705

>  <SCORE.INTRA.SOLV>
2.03252

>  <SCORE.INTRA.SOLV.lig_0>
-119.383

>  <SCORE.INTRA.VDW>
2.52472

>  <SCORE.INTRA.VDW.0>
-5.10464

>  <SCORE.INTRA.norm>
-0.458556

>  <SCORE.RESTR>
0.968598

>  <SCORE.RESTR.CAVITY>
0.968598

>  <SCORE.RESTR.norm>
0.0302687

>  <SCORE.SYSTEM>
0

>  <SCORE.SYSTEM.CONST>
0

>  <SCORE.SYSTEM.DIHEDRAL>
0

>  <SCORE.SYSTEM.SOLV>
0

>  <SCORE.SYSTEM.norm>
0

>  <SCORE.heavy>
32

>  <SCORE.norm>
-0.754992

>  <RMSD>
21.877

$$$$
