2tob cryst
  MOE2001           3D
AMINOGLYCOSIDE-RNA RECOGNITION
 52 54  0  0  1  0  0  0  0  0  1 V2000
   -8.1980    0.4060   -7.7820 C   0  0  0  0  0  0  0  0  0  0  0  0
   -7.6150    1.7580   -8.1810 C   0  0  0  0  0  0  0  0  0  0  0  0
   -6.9670    1.6310   -9.5600 C   0  0  0  0  0  0  0  0  0  0  0  0
   -5.9290    0.5010   -9.5740 C   0  0  0  0  0  0  0  0  0  0  0  0
   -6.5550   -0.7920   -9.0400 C   0  0  0  0  0  0  0  0  0  0  0  0
   -5.5740   -1.9410   -8.8740 C   0  0  0  0  0  0  0  0  0  0  0  0
   -8.6460    2.7410   -8.2200 O   0  0  0  0  0  0  0  0  0  0  0  0
   -8.2680    3.5940   -8.4740 H   0  0  0  0  0  0  0  0  0  0  0  0
   -6.3150    2.8510  -10.1330 N   0  3  0  0  0  0  0  0  0  0  0  0
   -7.0000    3.5860  -10.2270 H   0  0  0  0  0  0  0  0  0  0  0  0
   -5.5760    3.1570   -9.5180 H   0  0  0  0  0  0  0  0  0  0  0  0
   -5.9300    2.6320  -11.0400 H   0  0  0  0  0  0  0  0  0  0  0  0
   -5.4770    0.3050  -10.9080 O   0  0  0  0  0  0  0  0  0  0  0  0
   -4.8220   -0.4060  -10.9250 H   0  0  0  0  0  0  0  0  0  0  0  0
   -7.1560   -0.5510   -7.7520 O   0  0  0  0  0  0  0  0  0  0  0  0
   -6.2280   -3.0950   -8.3560 O   0  0  0  0  0  0  0  0  0  0  0  0
   -5.5870   -3.8120   -8.2590 H   0  0  0  0  0  0  0  0  0  0  0  0
  -11.5570   -0.1590   -9.0820 C   0  0  0  0  0  0  0  0  0  0  0  0
  -12.8250   -1.0000   -8.8820 C   0  0  0  0  0  0  0  0  0  0  0  0
  -12.5470   -2.4970   -8.9870 C   0  0  0  0  0  0  0  0  0  0  0  0
  -11.4830   -2.8620   -7.9610 C   0  0  0  0  0  0  0  0  0  0  0  0
  -10.1770   -2.1400   -8.3020 C   0  0  0  0  0  0  0  0  0  0  0  0
  -10.3670   -0.6150   -8.2230 C   0  0  0  0  0  0  0  0  0  0  0  0
  -11.8340    1.2900   -8.8010 N   0  3  0  0  0  0  0  0  0  0  0  0
  -12.5500    1.6240   -9.4290 H   0  0  0  0  0  0  0  0  0  0  0  0
  -12.1480    1.3940   -7.8480 H   0  0  0  0  0  0  0  0  0  0  0  0
  -10.9900    1.8260   -8.9370 H   0  0  0  0  0  0  0  0  0  0  0  0
  -13.8010   -3.2930   -8.7820 N   0  3  0  0  0  0  0  0  0  0  0  0
  -14.1770   -3.0980   -7.8660 H   0  0  0  0  0  0  0  0  0  0  0  0
  -14.4790   -3.0400   -9.4850 H   0  0  0  0  0  0  0  0  0  0  0  0
  -13.5910   -4.2770   -8.8560 H   0  0  0  0  0  0  0  0  0  0  0  0
   -9.1590   -2.5570   -7.4010 O   0  0  0  0  0  0  0  0  0  0  0  0
   -8.3330   -2.1020   -7.6150 H   0  0  0  0  0  0  0  0  0  0  0  0
  -11.2680   -4.2850   -7.9420 O   0  0  0  0  0  0  0  0  0  0  0  0
   -9.1840    0.0500   -8.7130 O   0  0  0  0  0  0  0  0  0  0  0  0
  -10.7210   -4.7500   -6.7390 C   0  0  0  0  0  0  0  0  0  0  0  0
   -9.5210   -5.6580   -7.0280 C   0  0  0  0  0  0  0  0  0  0  0  0
   -9.9770   -7.0200   -7.5520 C   0  0  0  0  0  0  0  0  0  0  0  0
  -10.9900   -7.6080   -6.5830 C   0  0  0  0  0  0  0  0  0  0  0  0
  -12.1610   -6.6510   -6.4430 C   0  0  0  0  0  0  0  0  0  0  0  0
  -13.2130   -7.1870   -5.4890 C   0  0  0  0  0  0  0  0  0  0  0  0
   -8.6370   -5.0070   -8.0470 N   0  3  0  0  0  0  0  0  0  0  0  0
   -9.1580   -4.8570   -8.8980 H   0  0  0  0  0  0  0  0  0  0  0  0
   -8.3110   -4.1210   -7.6920 H   0  0  0  0  0  0  0  0  0  0  0  0
   -7.8470   -5.6050   -8.2380 H   0  0  0  0  0  0  0  0  0  0  0  0
  -13.6660   -8.5270   -6.0010 N   0  3  0  0  0  0  0  0  0  0  0  0
  -14.0560   -8.4190   -6.9250 H   0  0  0  0  0  0  0  0  0  0  0  0
  -12.8780   -9.1560   -6.0400 H   0  0  0  0  0  0  0  0  0  0  0  0
  -14.3670   -8.9040   -5.3810 H   0  0  0  0  0  0  0  0  0  0  0  0
  -11.4470   -8.8690   -7.0510 O   0  0  0  0  0  0  0  0  0  0  0  0
  -12.0900   -9.2310   -6.4260 H   0  0  0  0  0  0  0  0  0  0  0  0
  -11.6900   -5.3970   -5.9210 O   0  0  0  0  0  0  0  0  0  0  0  0
  1  2  1  0  0  0  0
  1 35  1  0  0  0  0
  1 15  1  0  0  0  0
  2  3  1  0  0  0  0
  2  7  1  0  0  0  0
  3  4  1  0  0  0  0
  3  9  1  0  0  0  0
  4  5  1  0  0  0  0
  4 13  1  0  0  0  0
  5  6  1  0  0  0  0
  5 15  1  0  0  0  0
  6 16  1  0  0  0  0
  7  8  1  0  0  0  0
  9 12  1  0  0  0  0
  9 11  1  0  0  0  0
  9 10  1  0  0  0  0
 13 14  1  0  0  0  0
 16 17  1  0  0  0  0
 18 19  1  0  0  0  0
 18 23  1  0  0  0  0
 18 24  1  0  0  0  0
 19 20  1  0  0  0  0
 20 21  1  0  0  0  0
 20 28  1  0  0  0  0
 21 22  1  0  0  0  0
 21 34  1  0  0  0  0
 22 23  1  0  0  0  0
 22 32  1  0  0  0  0
 23 35  1  0  0  0  0
 24 27  1  0  0  0  0
 24 26  1  0  0  0  0
 24 25  1  0  0  0  0
 28 31  1  0  0  0  0
 28 30  1  0  0  0  0
 28 29  1  0  0  0  0
 32 33  1  0  0  0  0
 34 36  1  0  0  0  0
 36 37  1  0  0  0  0
 36 52  1  0  0  0  0
 37 38  1  0  0  0  0
 37 42  1  0  0  0  0
 38 39  1  0  0  0  0
 39 40  1  0  0  0  0
 39 50  1  0  0  0  0
 40 41  1  0  0  0  0
 40 52  1  0  0  0  0
 41 46  1  0  0  0  0
 42 45  1  0  0  0  0
 42 44  1  0  0  0  0
 42 43  1  0  0  0  0
 46 49  1  0  0  0  0
 46 48  1  0  0  0  0
 46 47  1  0  0  0  0
 50 51  1  0  0  0  0
M  CHG  1   9   1
M  CHG  1  24   1
M  CHG  1  28   1
M  CHG  1  42   1
M  CHG  1  46   1
M  END
$$$$
