2tob cryst
 OpenBabel11021811463D
libRbt.so/2013.1/901 2013/11/27
 32 34  0  0  0  0  0  0  0  0999 V2000
   -8.1384    0.2024   -7.5385 C   0  0  2  0  0  0  0  0  0  0  0  0
   -7.5531    1.5470   -7.9588 C   0  0  1  0  0  0  0  0  0  0  0  0
   -6.7857    1.3659   -9.2688 C   0  0  2  0  0  0  0  0  0  0  0  0
   -5.7256    0.2648   -9.1334 C   0  0  1  0  0  0  0  0  0  0  0  0
   -6.3667   -1.0150   -8.5856 C   0  0  1  0  0  0  0  0  0  0  0  0
   -5.3786   -2.1273   -8.2749 C   0  0  0  0  0  0  0  0  0  0  0  0
   -8.5983    2.4988   -8.1384 O   0  0  0  0  0  0  0  0  0  0  0  0
   -6.1137    2.5715   -9.8492 N   0  3  0  0  0  0  0  0  0  0  0  0
   -5.1558    0.0120  -10.4115 O   0  0  0  0  0  0  0  0  0  0  0  0
   -7.0820   -0.7236   -7.3683 O   0  0  0  0  0  0  0  0  0  0  0  0
   -4.6827   -2.5299   -9.4502 O   0  0  0  0  0  0  0  0  0  0  0  0
  -11.3844   -0.3238   -9.0478 C   0  0  2  0  0  0  0  0  0  0  0  0
  -12.7046   -1.0948   -8.9148 C   0  0  0  0  0  0  0  0  0  0  0  0
  -12.4988   -2.6059   -8.9736 C   0  0  1  0  0  0  0  0  0  0  0  0
  -11.5230   -3.0018   -7.8741 C   0  0  2  0  0  0  0  0  0  0  0  0
  -10.1620   -2.3547   -8.1430 C   0  0  1  0  0  0  0  0  0  0  0  0
  -10.2770   -0.8207   -8.1050 C   0  0  1  0  0  0  0  0  0  0  0  0
  -11.6029    1.1432   -8.8124 N   0  3  0  0  0  0  0  0  0  0  0  0
  -13.8031   -3.3325   -8.8357 N   0  3  0  0  0  0  0  0  0  0  0  0
   -9.2268   -2.8030   -7.1702 O   0  0  0  0  0  0  0  0  0  0  0  0
  -11.3840   -4.4331   -7.8147 O   0  0  0  0  0  0  0  0  0  0  0  0
   -9.0321   -0.2275   -8.5295 O   0  0  0  0  0  0  0  0  0  0  0  0
  -10.8465   -4.8911   -6.6047 C   0  0  2  0  0  0  0  0  0  0  0  0
   -9.6572   -5.8174   -6.8796 C   0  0  1  0  0  0  0  0  0  0  0  0
  -10.1288   -7.1795   -7.3894 C   0  0  0  0  0  0  0  0  0  0  0  0
  -11.1520   -7.7435   -6.4168 C   0  0  1  0  0  0  0  0  0  0  0  0
  -12.3113   -6.7703   -6.2914 C   0  0  1  0  0  0  0  0  0  0  0  0
  -13.3727   -7.2820   -5.3346 C   0  0  0  0  0  0  0  0  0  0  0  0
   -8.7621   -5.1894   -7.9033 N   0  3  0  0  0  0  0  0  0  0  0  0
  -14.0805   -8.4324   -5.9968 N   0  3  0  0  0  0  0  0  0  0  0  0
  -11.6235   -9.0040   -6.8718 O   0  0  0  0  0  0  0  0  0  0  0  0
  -11.8260   -5.5164   -5.7824 O   0  0  0  0  0  0  0  0  0  0  0  0
  1  2  1  0  0  0  0
  1 22  1  6  0  0  0
  1 10  1  0  0  0  0
  2  3  1  0  0  0  0
  2  7  1  6  0  0  0
  3  4  1  0  0  0  0
  3  8  1  1  0  0  0
  4  5  1  0  0  0  0
  4  9  1  6  0  0  0
  5  6  1  1  0  0  0
  5 10  1  0  0  0  0
  6 11  1  0  0  0  0
 12 13  1  0  0  0  0
 12 17  1  0  0  0  0
 12 18  1  1  0  0  0
 13 14  1  0  0  0  0
 14 15  1  0  0  0  0
 14 19  1  1  0  0  0
 15 16  1  0  0  0  0
 15 21  1  6  0  0  0
 16 17  1  0  0  0  0
 16 20  1  1  0  0  0
 17 22  1  6  0  0  0
 23 21  1  6  0  0  0
 23 24  1  0  0  0  0
 23 32  1  0  0  0  0
 24 25  1  0  0  0  0
 24 29  1  6  0  0  0
 25 26  1  0  0  0  0
 26 27  1  0  0  0  0
 26 31  1  6  0  0  0
 27 28  1  1  0  0  0
 27 32  1  0  0  0  0
 28 30  1  0  0  0  0
M  CHG  5   8   1  18   1  19   1  29   1  30   1
M  END
>  <CHROM.1>
-138.25141857,-168.09854040,-75.82630479,-55.36788485,-61.21155448,65.90905748
-64.67882543,82.41482167,-161.58213658,-167.50458971,140.58634521,-128.17983753
55.60381696,65.19757108,-71.41206416,55.97486395,-9.63828841,-2.67271960
-7.95036806,0.98189699,0.08627771,-0.24088858

>  <Name>
2tob cryst

>  <RI>
0

>  <Rbt.Current_Directory>
/home/itssahil/PROJECTS/Mol_Feturizer/New_Systems/rnas/2tob

>  <Rbt.Executable>
rbdock ($Id: //depot/dev/client3/rdock/2013.1/src/exe/rbdock.cxx#4 $)

>  <Rbt.Library>
libRbt.so (2013.1, Build901 2013/11/27)

>  <Rbt.Parameter_File>
/export/apps/rDock/src/rDock_2013.1_src/data/scripts/dock_solv.prm

>  <Rbt.Receptor>
prm/pocket_docking_3.prm

>  <SCORE>
-72.9973

>  <SCORE.INTER>
-52.2545

>  <SCORE.INTER.CONST>
1

>  <SCORE.INTER.POLAR>
-7.55455

>  <SCORE.INTER.ROT>
6

>  <SCORE.INTER.SOLV>
38.9861

>  <SCORE.INTER.VDW>
-30.2499

>  <SCORE.INTER.norm>
-1.63295

>  <SCORE.INTRA>
-20.7536

>  <SCORE.INTRA.DIHEDRAL>
5.14377

>  <SCORE.INTRA.DIHEDRAL.0>
18.4221

>  <SCORE.INTRA.POLAR>
-1.24239

>  <SCORE.INTRA.POLAR.0>
-1.57101

>  <SCORE.INTRA.REPUL>
-0.730195

>  <SCORE.INTRA.REPUL.0>
0.730195

>  <SCORE.INTRA.SOLV>
-2.55338

>  <SCORE.INTRA.SOLV.lig_0>
-127.221

>  <SCORE.INTRA.VDW>
-14.1737

>  <SCORE.INTRA.VDW.0>
10.8385

>  <SCORE.INTRA.norm>
-0.648551

>  <SCORE.RESTR>
0.0107861

>  <SCORE.RESTR.CAVITY>
0.0107861

>  <SCORE.RESTR.norm>
0.000337066

>  <SCORE.SYSTEM>
0

>  <SCORE.SYSTEM.CONST>
0

>  <SCORE.SYSTEM.DIHEDRAL>
0

>  <SCORE.SYSTEM.SOLV>
0

>  <SCORE.SYSTEM.norm>
0

>  <SCORE.heavy>
32

>  <SCORE.norm>
-2.28117

>  <RMSD>
0.488

$$$$
2tob cryst
 OpenBabel11021811463D
libRbt.so/2013.1/901 2013/11/27
 32 34  0  0  0  0  0  0  0  0999 V2000
   -8.0251    0.3187   -7.7603 C   0  0  2  0  0  0  0  0  0  0  0  0
   -7.5501    1.6808   -8.2566 C   0  0  1  0  0  0  0  0  0  0  0  0
   -6.8998    1.5090   -9.6296 C   0  0  2  0  0  0  0  0  0  0  0  0
   -5.7774    0.4640   -9.5757 C   0  0  1  0  0  0  0  0  0  0  0  0
   -6.2993   -0.8333   -8.9484 C   0  0  1  0  0  0  0  0  0  0  0  0
   -5.2316   -1.8892   -8.7131 C   0  0  0  0  0  0  0  0  0  0  0  0
   -8.6543    2.5764   -8.3533 O   0  0  0  0  0  0  0  0  0  0  0  0
   -6.3465    2.7330  -10.2910 N   0  3  0  0  0  0  0  0  0  0  0  0
   -5.3170    0.2116  -10.8973 O   0  0  0  0  0  0  0  0  0  0  0  0
   -6.9120   -0.5509   -7.6744 O   0  0  0  0  0  0  0  0  0  0  0  0
   -5.8217   -3.1403   -8.3752 O   0  0  0  0  0  0  0  0  0  0  0  0
  -11.3675   -0.2843   -9.0007 C   0  0  2  0  0  0  0  0  0  0  0  0
  -12.6786   -1.0328   -8.7250 C   0  0  0  0  0  0  0  0  0  0  0  0
  -12.4843   -2.5463   -8.6978 C   0  0  1  0  0  0  0  0  0  0  0  0
  -11.4353   -2.8779   -7.6453 C   0  0  2  0  0  0  0  0  0  0  0  0
  -10.0938   -2.2624   -8.0509 C   0  0  1  0  0  0  0  0  0  0  0  0
  -10.1989   -0.7282   -8.1067 C   0  0  1  0  0  0  0  0  0  0  0  0
  -11.5624    1.1969   -8.8484 N   0  3  0  0  0  0  0  0  0  0  0  0
  -13.7789   -3.2503   -8.4212 N   0  3  0  0  0  0  0  0  0  0  0  0
   -9.0945   -2.6542   -7.1182 O   0  0  0  0  0  0  0  0  0  0  0  0
  -11.2990   -4.3035   -7.5010 O   0  0  0  0  0  0  0  0  0  0  0  0
   -8.9843   -0.1756   -8.6554 O   0  0  0  0  0  0  0  0  0  0  0  0
  -10.6188   -4.6832   -6.3366 C   0  0  2  0  0  0  0  0  0  0  0  0
   -9.5307   -5.7066   -6.6783 C   0  0  1  0  0  0  0  0  0  0  0  0
  -10.1404   -7.0758   -6.9803 C   0  0  0  0  0  0  0  0  0  0  0  0
  -11.0422   -7.4804   -5.8253 C   0  0  1  0  0  0  0  0  0  0  0  0
  -12.1195   -6.4260   -5.6398 C   0  0  1  0  0  0  0  0  0  0  0  0
  -13.0586   -6.7776   -4.5002 C   0  0  0  0  0  0  0  0  0  0  0  0
   -8.7594   -5.2346   -7.8725 N   0  3  0  0  0  0  0  0  0  0  0  0
  -13.8708   -7.9727   -4.9185 N   0  3  0  0  0  0  0  0  0  0  0  0
  -11.6387   -8.7435   -6.0835 O   0  0  0  0  0  0  0  0  0  0  0  0
  -11.5020   -5.1653   -5.3295 O   0  0  0  0  0  0  0  0  0  0  0  0
  1  2  1  0  0  0  0
  1 22  1  6  0  0  0
  1 10  1  0  0  0  0
  2  3  1  0  0  0  0
  2  7  1  6  0  0  0
  3  4  1  0  0  0  0
  3  8  1  1  0  0  0
  4  5  1  0  0  0  0
  4  9  1  6  0  0  0
  5  6  1  1  0  0  0
  5 10  1  0  0  0  0
  6 11  1  0  0  0  0
 12 13  1  0  0  0  0
 12 17  1  0  0  0  0
 12 18  1  1  0  0  0
 13 14  1  0  0  0  0
 14 15  1  0  0  0  0
 14 19  1  1  0  0  0
 15 16  1  0  0  0  0
 15 21  1  6  0  0  0
 16 17  1  0  0  0  0
 16 20  1  1  0  0  0
 17 22  1  6  0  0  0
 23 21  1  6  0  0  0
 23 24  1  0  0  0  0
 23 32  1  0  0  0  0
 24 25  1  0  0  0  0
 24 29  1  6  0  0  0
 25 26  1  0  0  0  0
 26 27  1  0  0  0  0
 26 31  1  6  0  0  0
 27 28  1  1  0  0  0
 27 32  1  0  0  0  0
 28 30  1  0  0  0  0
M  CHG  5   8   1  18   1  19   1  29   1  30   1
M  END
>  <CHROM.1>
-133.65497579,-158.50843262,172.48917311,-168.93920046,-168.81078266,-145.96450772
-63.95641379,-37.51334487,-164.67259010,-166.73728402,140.16117063,-131.44108927
-73.61633785,-36.50275691,-68.97775517,61.53424361,-9.62005072,-2.53828570
-7.80881286,1.02340118,0.12582206,-0.32902943

>  <Name>
2tob cryst

>  <RI>
2.9538e+07

>  <Rbt.Current_Directory>
/home/itssahil/PROJECTS/Mol_Feturizer/New_Systems/rnas/2tob

>  <Rbt.Executable>
rbdock ($Id: //depot/dev/client3/rdock/2013.1/src/exe/rbdock.cxx#4 $)

>  <Rbt.Library>
libRbt.so (2013.1, Build901 2013/11/27)

>  <Rbt.Parameter_File>
/export/apps/rDock/src/rDock_2013.1_src/data/scripts/dock_solv.prm

>  <Rbt.Receptor>
prm/pocket_docking_2.prm

>  <SCORE>
-69.4359

>  <SCORE.INTER>
-54.0305

>  <SCORE.INTER.CONST>
1

>  <SCORE.INTER.POLAR>
-7.68344

>  <SCORE.INTER.ROT>
6

>  <SCORE.INTER.SOLV>
37.939

>  <SCORE.INTER.VDW>
-30.6552

>  <SCORE.INTER.norm>
-1.68845

>  <SCORE.INTRA>
-15.9274

>  <SCORE.INTRA.DIHEDRAL>
13.6877

>  <SCORE.INTRA.DIHEDRAL.0>
18.4221

>  <SCORE.INTRA.POLAR>
-1.27953

>  <SCORE.INTRA.POLAR.0>
-1.57101

>  <SCORE.INTRA.REPUL>
-0.730195

>  <SCORE.INTRA.REPUL.0>
0.730195

>  <SCORE.INTRA.SOLV>
-2.44613

>  <SCORE.INTRA.SOLV.lig_0>
-127.221

>  <SCORE.INTRA.VDW>
-13.5469

>  <SCORE.INTRA.VDW.0>
10.8385

>  <SCORE.INTRA.norm>
-0.497732

>  <SCORE.RESTR>
0.522096

>  <SCORE.RESTR.CAVITY>
0.522096

>  <SCORE.RESTR.norm>
0.0163155

>  <SCORE.SYSTEM>
0

>  <SCORE.SYSTEM.CONST>
0

>  <SCORE.SYSTEM.DIHEDRAL>
0

>  <SCORE.SYSTEM.SOLV>
0

>  <SCORE.SYSTEM.norm>
0

>  <SCORE.heavy>
32

>  <SCORE.norm>
-2.16987

>  <RMSD>
0.496

$$$$
2tob cryst
 OpenBabel11021811463D
libRbt.so/2013.1/901 2013/11/27
 32 34  0  0  0  0  0  0  0  0999 V2000
   -7.9909    0.2737   -7.7862 C   0  0  2  0  0  0  0  0  0  0  0  0
   -7.4773    1.6315   -8.2547 C   0  0  1  0  0  0  0  0  0  0  0  0
   -6.8149    1.4660   -9.6227 C   0  0  2  0  0  0  0  0  0  0  0  0
   -5.7189    0.3932   -9.5729 C   0  0  1  0  0  0  0  0  0  0  0  0
   -6.2794   -0.9009   -8.9729 C   0  0  1  0  0  0  0  0  0  0  0  0
   -5.2404   -1.9860   -8.7425 C   0  0  0  0  0  0  0  0  0  0  0  0
   -8.5583    2.5553   -8.3496 O   0  0  0  0  0  0  0  0  0  0  0  0
   -6.2244    2.6866  -10.2577 N   0  3  0  0  0  0  0  0  0  0  0  0
   -5.2489    0.1508  -10.8930 O   0  0  0  0  0  0  0  0  0  0  0  0
   -6.9002   -0.6240   -7.7016 O   0  0  0  0  0  0  0  0  0  0  0  0
   -5.8644   -3.2479   -8.5279 O   0  0  0  0  0  0  0  0  0  0  0  0
  -11.3356   -0.2485   -9.0474 C   0  0  2  0  0  0  0  0  0  0  0  0
  -12.6554   -0.9922   -8.8021 C   0  0  0  0  0  0  0  0  0  0  0  0
  -12.4791   -2.5077   -8.8384 C   0  0  1  0  0  0  0  0  0  0  0  0
  -11.4337   -2.8956   -7.8017 C   0  0  2  0  0  0  0  0  0  0  0  0
  -10.0851   -2.2796   -8.1825 C   0  0  1  0  0  0  0  0  0  0  0  0
  -10.1719   -0.7433   -8.1739 C   0  0  1  0  0  0  0  0  0  0  0  0
  -11.5126    1.2273   -8.8330 N   0  3  0  0  0  0  0  0  0  0  0  0
  -13.7819   -3.2072   -8.5903 N   0  3  0  0  0  0  0  0  0  0  0  0
   -9.0901   -2.7220   -7.2680 O   0  0  0  0  0  0  0  0  0  0  0  0
  -11.3143   -4.3274   -7.7173 O   0  0  0  0  0  0  0  0  0  0  0  0
   -8.9510   -0.1828   -8.7002 O   0  0  0  0  0  0  0  0  0  0  0  0
  -10.7058   -4.7672   -6.5346 C   0  0  2  0  0  0  0  0  0  0  0  0
   -9.5561   -5.7252   -6.8643 C   0  0  1  0  0  0  0  0  0  0  0  0
  -10.0878   -7.0889   -7.3063 C   0  0  0  0  0  0  0  0  0  0  0  0
  -11.0541   -7.6070   -6.2534 C   0  0  1  0  0  0  0  0  0  0  0  0
  -12.1829   -6.6064   -6.0760 C   0  0  1  0  0  0  0  0  0  0  0  0
  -13.1875   -7.0719   -5.0375 C   0  0  0  0  0  0  0  0  0  0  0  0
   -8.7197   -5.1415   -7.9613 N   0  3  0  0  0  0  0  0  0  0  0  0
  -14.3147   -6.0763   -5.0016 N   0  3  0  0  0  0  0  0  0  0  0  0
  -11.5799   -8.8678   -6.6432 O   0  0  0  0  0  0  0  0  0  0  0  0
  -11.6398   -5.3512   -5.6329 O   0  0  0  0  0  0  0  0  0  0  0  0
  1  2  1  0  0  0  0
  1 22  1  6  0  0  0
  1 10  1  0  0  0  0
  2  3  1  0  0  0  0
  2  7  1  6  0  0  0
  3  4  1  0  0  0  0
  3  8  1  1  0  0  0
  4  5  1  0  0  0  0
  4  9  1  6  0  0  0
  5  6  1  1  0  0  0
  5 10  1  0  0  0  0
  6 11  1  0  0  0  0
 12 13  1  0  0  0  0
 12 17  1  0  0  0  0
 12 18  1  1  0  0  0
 13 14  1  0  0  0  0
 14 15  1  0  0  0  0
 14 19  1  1  0  0  0
 15 16  1  0  0  0  0
 15 21  1  6  0  0  0
 16 17  1  0  0  0  0
 16 20  1  1  0  0  0
 17 22  1  6  0  0  0
 23 21  1  6  0  0  0
 23 24  1  0  0  0  0
 23 32  1  0  0  0  0
 24 25  1  0  0  0  0
 24 29  1  6  0  0  0
 25 26  1  0  0  0  0
 26 27  1  0  0  0  0
 26 31  1  6  0  0  0
 27 28  1  1  0  0  0
 27 32  1  0  0  0  0
 28 30  1  0  0  0  0
M  CHG  5   8   1  18   1  19   1  29   1  30   1
M  END
>  <CHROM.1>
-135.08856364,72.91460521,164.83888813,179.99043490,-164.58388978,-87.33082238
-68.32991478,-43.21215858,-161.25505606,-168.70997895,139.57461074,-128.42202555
53.34168888,62.70485777,-175.88593117,178.03016276,-9.62382443,-2.51615614
-7.94265667,0.98464168,0.14984215,-0.27989166

>  <Name>
2tob cryst

>  <RI>
2.9538e+07

>  <Rbt.Current_Directory>
/home/itssahil/PROJECTS/Mol_Feturizer/New_Systems/rnas/2tob

>  <Rbt.Executable>
rbdock ($Id: //depot/dev/client3/rdock/2013.1/src/exe/rbdock.cxx#4 $)

>  <Rbt.Library>
libRbt.so (2013.1, Build901 2013/11/27)

>  <Rbt.Parameter_File>
/export/apps/rDock/src/rDock_2013.1_src/data/scripts/dock_solv.prm

>  <Rbt.Receptor>
prm/pocket_docking_2.prm

>  <SCORE>
-78.9927

>  <SCORE.INTER>
-60.6588

>  <SCORE.INTER.CONST>
1

>  <SCORE.INTER.POLAR>
-8.51985

>  <SCORE.INTER.ROT>
6

>  <SCORE.INTER.SOLV>
38.5345

>  <SCORE.INTER.VDW>
-32.4845

>  <SCORE.INTER.norm>
-1.89559

>  <SCORE.INTRA>
-18.8755

>  <SCORE.INTRA.DIHEDRAL>
8.57254

>  <SCORE.INTRA.DIHEDRAL.0>
18.4221

>  <SCORE.INTRA.POLAR>
-0.704439

>  <SCORE.INTRA.POLAR.0>
-1.57101

>  <SCORE.INTRA.REPUL>
-0.730195

>  <SCORE.INTRA.REPUL.0>
0.730195

>  <SCORE.INTRA.SOLV>
-4.16706

>  <SCORE.INTRA.SOLV.lig_0>
-127.221

>  <SCORE.INTRA.VDW>
-15.0322

>  <SCORE.INTRA.VDW.0>
10.8385

>  <SCORE.INTRA.norm>
-0.58986

>  <SCORE.RESTR>
0.541644

>  <SCORE.RESTR.CAVITY>
0.541644

>  <SCORE.RESTR.norm>
0.0169264

>  <SCORE.SYSTEM>
0

>  <SCORE.SYSTEM.CONST>
0

>  <SCORE.SYSTEM.DIHEDRAL>
0

>  <SCORE.SYSTEM.SOLV>
0

>  <SCORE.SYSTEM.norm>
0

>  <SCORE.heavy>
32

>  <SCORE.norm>
-2.46852

>  <RMSD>
0.555

$$$$
2tob cryst
 OpenBabel11021811463D
libRbt.so/2013.1/901 2013/11/27
 32 34  0  0  0  0  0  0  0  0999 V2000
   -8.3366    0.3639   -7.7231 C   0  0  2  0  0  0  0  0  0  0  0  0
   -7.7395    1.6740   -8.2269 C   0  0  1  0  0  0  0  0  0  0  0  0
   -7.0311    1.4169   -9.5573 C   0  0  2  0  0  0  0  0  0  0  0  0
   -5.9912    0.2976   -9.4152 C   0  0  1  0  0  0  0  0  0  0  0  0
   -6.6373   -0.9409   -8.7848 C   0  0  1  0  0  0  0  0  0  0  0  0
   -5.6622   -2.0619   -8.4644 C   0  0  0  0  0  0  0  0  0  0  0  0
   -8.7698    2.6419   -8.4070 O   0  0  0  0  0  0  0  0  0  0  0  0
   -6.3571    2.5791  -10.2181 N   0  3  0  0  0  0  0  0  0  0  0  0
   -5.4805   -0.0251  -10.7026 O   0  0  0  0  0  0  0  0  0  0  0  0
   -7.2949   -0.5789   -7.5541 O   0  0  0  0  0  0  0  0  0  0  0  0
   -4.7811   -2.2954   -9.5585 O   0  0  0  0  0  0  0  0  0  0  0  0
  -11.6502   -0.3124   -9.0343 C   0  0  2  0  0  0  0  0  0  0  0  0
  -12.9171   -1.1518   -8.8210 C   0  0  0  0  0  0  0  0  0  0  0  0
  -12.6346   -2.6501   -8.8874 C   0  0  1  0  0  0  0  0  0  0  0  0
  -11.5756   -2.9868   -7.8465 C   0  0  2  0  0  0  0  0  0  0  0  0
  -10.2696   -2.2698   -8.1977 C   0  0  1  0  0  0  0  0  0  0  0  0
  -10.4640   -0.7438   -8.1574 C   0  0  1  0  0  0  0  0  0  0  0  0
  -11.9326    1.1423   -8.7908 N   0  3  0  0  0  0  0  0  0  0  0  0
  -13.8876   -3.4443   -8.6701 N   0  3  0  0  0  0  0  0  0  0  0  0
   -9.2558   -2.6616   -7.2807 O   0  0  0  0  0  0  0  0  0  0  0  0
  -11.3570   -4.4082   -7.7911 O   0  0  0  0  0  0  0  0  0  0  0  0
   -9.2799   -0.0878   -8.6568 O   0  0  0  0  0  0  0  0  0  0  0  0
  -10.7482   -4.8326   -6.6029 C   0  0  2  0  0  0  0  0  0  0  0  0
   -9.5445   -5.7250   -6.9232 C   0  0  1  0  0  0  0  0  0  0  0  0
   -9.9962   -7.1080   -7.3931 C   0  0  0  0  0  0  0  0  0  0  0  0
  -10.9535   -7.6903   -6.3658 C   0  0  1  0  0  0  0  0  0  0  0  0
  -12.1358   -6.7522   -6.1968 C   0  0  1  0  0  0  0  0  0  0  0  0
  -13.1338   -7.2836   -5.1840 C   0  0  0  0  0  0  0  0  0  0  0  0
   -8.7195   -5.0834   -7.9962 N   0  3  0  0  0  0  0  0  0  0  0  0
  -14.4450   -6.5819   -5.4103 N   0  3  0  0  0  0  0  0  0  0  0  0
  -11.4057   -8.9710   -6.7822 O   0  0  0  0  0  0  0  0  0  0  0  0
  -11.6671   -5.4769   -5.7269 O   0  0  0  0  0  0  0  0  0  0  0  0
  1  2  1  0  0  0  0
  1 22  1  6  0  0  0
  1 10  1  0  0  0  0
  2  3  1  0  0  0  0
  2  7  1  6  0  0  0
  3  4  1  0  0  0  0
  3  8  1  1  0  0  0
  4  5  1  0  0  0  0
  4  9  1  6  0  0  0
  5  6  1  1  0  0  0
  5 10  1  0  0  0  0
  6 11  1  0  0  0  0
 12 13  1  0  0  0  0
 12 17  1  0  0  0  0
 12 18  1  1  0  0  0
 13 14  1  0  0  0  0
 14 15  1  0  0  0  0
 14 19  1  1  0  0  0
 15 16  1  0  0  0  0
 15 21  1  6  0  0  0
 16 17  1  0  0  0  0
 16 20  1  1  0  0  0
 17 22  1  6  0  0  0
 23 21  1  6  0  0  0
 23 24  1  0  0  0  0
 23 32  1  0  0  0  0
 24 25  1  0  0  0  0
 24 29  1  6  0  0  0
 25 26  1  0  0  0  0
 26 27  1  0  0  0  0
 26 31  1  6  0  0  0
 27 28  1  1  0  0  0
 27 32  1  0  0  0  0
 28 30  1  0  0  0  0
M  CHG  5   8   1  18   1  19   1  29   1  30   1
M  END
>  <CHROM.1>
-143.87497874,-170.23414862,166.29084746,-173.81072970,-46.03593534,163.64684114
55.63674042,72.99559563,-160.43484839,-168.26133600,142.23415480,-129.69892349
172.20533446,62.93736918,-161.03641256,-173.40758941,-9.73563135,-2.55216144
-7.99752752,0.99396420,0.14196042,-0.26160455

>  <Name>
2tob cryst

>  <RI>
2.9538e+07

>  <Rbt.Current_Directory>
/home/itssahil/PROJECTS/Mol_Feturizer/New_Systems/rnas/2tob

>  <Rbt.Executable>
rbdock ($Id: //depot/dev/client3/rdock/2013.1/src/exe/rbdock.cxx#4 $)

>  <Rbt.Library>
libRbt.so (2013.1, Build901 2013/11/27)

>  <Rbt.Parameter_File>
/export/apps/rDock/src/rDock_2013.1_src/data/scripts/dock_solv.prm

>  <Rbt.Receptor>
prm/pocket_docking_2.prm

>  <SCORE>
-81.2393

>  <SCORE.INTER>
-61.4363

>  <SCORE.INTER.CONST>
1

>  <SCORE.INTER.POLAR>
-9.11553

>  <SCORE.INTER.ROT>
6

>  <SCORE.INTER.SOLV>
40.0336

>  <SCORE.INTER.VDW>
-31.517

>  <SCORE.INTER.norm>
-1.91988

>  <SCORE.INTRA>
-20.4264

>  <SCORE.INTRA.DIHEDRAL>
5.47733

>  <SCORE.INTRA.DIHEDRAL.0>
18.4221

>  <SCORE.INTRA.POLAR>
-0.784647

>  <SCORE.INTRA.POLAR.0>
-1.57101

>  <SCORE.INTRA.REPUL>
-0.730195

>  <SCORE.INTRA.REPUL.0>
0.730195

>  <SCORE.INTRA.SOLV>
-5.14905

>  <SCORE.INTRA.SOLV.lig_0>
-127.221

>  <SCORE.INTRA.VDW>
-14.2718

>  <SCORE.INTRA.VDW.0>
10.8385

>  <SCORE.INTRA.norm>
-0.638326

>  <SCORE.RESTR>
0.623392

>  <SCORE.RESTR.CAVITY>
0.623392

>  <SCORE.RESTR.norm>
0.019481

>  <SCORE.SYSTEM>
0

>  <SCORE.SYSTEM.CONST>
0

>  <SCORE.SYSTEM.DIHEDRAL>
0

>  <SCORE.SYSTEM.SOLV>
0

>  <SCORE.SYSTEM.norm>
0

>  <SCORE.heavy>
32

>  <SCORE.norm>
-2.53873

>  <RMSD>
0.575

$$$$
2tob cryst
 OpenBabel11021811463D
libRbt.so/2013.1/901 2013/11/27
 32 34  0  0  0  0  0  0  0  0999 V2000
   -8.7941    0.3382   -7.5793 C   0  0  2  0  0  0  0  0  0  0  0  0
   -8.0753    1.6033   -8.0373 C   0  0  1  0  0  0  0  0  0  0  0  0
   -7.4133    1.3355   -9.3892 C   0  0  2  0  0  0  0  0  0  0  0  0
   -6.4888    0.1132   -9.3123 C   0  0  1  0  0  0  0  0  0  0  0  0
   -7.2477   -1.0813   -8.7240 C   0  0  1  0  0  0  0  0  0  0  0  0
   -6.3856   -2.3067   -8.4679 C   0  0  0  0  0  0  0  0  0  0  0  0
   -9.0058    2.6758   -8.1587 O   0  0  0  0  0  0  0  0  0  0  0  0
   -6.6348    2.4528  -10.0117 N   0  3  0  0  0  0  0  0  0  0  0  0
   -6.0295   -0.2020  -10.6207 O   0  0  0  0  0  0  0  0  0  0  0  0
   -7.8500   -0.7100   -7.4680 O   0  0  0  0  0  0  0  0  0  0  0  0
   -5.7376   -2.2152   -7.2032 O   0  0  0  0  0  0  0  0  0  0  0  0
  -12.1026   -0.4618   -8.9902 C   0  0  2  0  0  0  0  0  0  0  0  0
  -13.2742   -1.4406   -8.8338 C   0  0  0  0  0  0  0  0  0  0  0  0
  -12.8220   -2.8968   -8.8979 C   0  0  1  0  0  0  0  0  0  0  0  0
  -11.7741   -3.1234   -7.8169 C   0  0  2  0  0  0  0  0  0  0  0  0
  -10.5444   -2.2603   -8.1101 C   0  0  1  0  0  0  0  0  0  0  0  0
  -10.9112   -0.7664   -8.0684 C   0  0  1  0  0  0  0  0  0  0  0  0
  -12.5568    0.9492   -8.7494 N   0  3  0  0  0  0  0  0  0  0  0  0
  -13.9851   -3.8292   -8.7368 N   0  3  0  0  0  0  0  0  0  0  0  0
   -9.5301   -2.5454   -7.1551 O   0  0  0  0  0  0  0  0  0  0  0  0
  -11.3989   -4.5118   -7.7615 O   0  0  0  0  0  0  0  0  0  0  0  0
   -9.7898    0.0239   -8.5150 O   0  0  0  0  0  0  0  0  0  0  0  0
  -10.7761   -4.8732   -6.5598 C   0  0  2  0  0  0  0  0  0  0  0  0
   -9.5610   -5.7611   -6.8483 C   0  0  1  0  0  0  0  0  0  0  0  0
   -9.9947   -7.1704   -7.2525 C   0  0  0  0  0  0  0  0  0  0  0  0
  -10.9364   -7.7201   -6.1933 C   0  0  1  0  0  0  0  0  0  0  0  0
  -12.1318   -6.7930   -6.0581 C   0  0  1  0  0  0  0  0  0  0  0  0
  -13.1150   -7.2932   -5.0154 C   0  0  0  0  0  0  0  0  0  0  0  0
   -8.7528   -5.1562   -7.9548 N   0  3  0  0  0  0  0  0  0  0  0  0
  -13.7397   -8.5593   -5.5345 N   0  3  0  0  0  0  0  0  0  0  0  0
  -11.3719   -9.0248   -6.5486 O   0  0  0  0  0  0  0  0  0  0  0  0
  -11.6794   -5.4911   -5.6493 O   0  0  0  0  0  0  0  0  0  0  0  0
  1  2  1  0  0  0  0
  1 22  1  6  0  0  0
  1 10  1  0  0  0  0
  2  3  1  0  0  0  0
  2  7  1  6  0  0  0
  3  4  1  0  0  0  0
  3  8  1  1  0  0  0
  4  5  1  0  0  0  0
  4  9  1  6  0  0  0
  5  6  1  1  0  0  0
  5 10  1  0  0  0  0
  6 11  1  0  0  0  0
 12 13  1  0  0  0  0
 12 17  1  0  0  0  0
 12 18  1  1  0  0  0
 13 14  1  0  0  0  0
 14 15  1  0  0  0  0
 14 19  1  1  0  0  0
 15 16  1  0  0  0  0
 15 21  1  6  0  0  0
 16 17  1  0  0  0  0
 16 20  1  1  0  0  0
 17 22  1  6  0  0  0
 23 21  1  6  0  0  0
 23 24  1  0  0  0  0
 23 32  1  0  0  0  0
 24 25  1  0  0  0  0
 24 29  1  6  0  0  0
 25 26  1  0  0  0  0
 26 27  1  0  0  0  0
 26 31  1  6  0  0  0
 27 28  1  1  0  0  0
 27 32  1  0  0  0  0
 28 30  1  0  0  0  0
M  CHG  5   8   1  18   1  19   1  29   1  30   1
M  END
>  <CHROM.1>
-155.80683191,-167.47983924,45.39261513,89.11856982,84.53376655,70.61754780
-7.40889603,-178.62513513,-161.32239634,-69.82589462,155.03403161,-136.23465831
173.17592581,64.16150993,-67.92612046,167.12889787,-9.99827025,-2.70721743
-7.82565482,1.09521316,0.02500780,-0.29965871

>  <Name>
2tob cryst

>  <RI>
2.9538e+07

>  <Rbt.Current_Directory>
/home/itssahil/PROJECTS/Mol_Feturizer/New_Systems/rnas/2tob

>  <Rbt.Executable>
rbdock ($Id: //depot/dev/client3/rdock/2013.1/src/exe/rbdock.cxx#4 $)

>  <Rbt.Library>
libRbt.so (2013.1, Build901 2013/11/27)

>  <Rbt.Parameter_File>
/export/apps/rDock/src/rDock_2013.1_src/data/scripts/dock_solv.prm

>  <Rbt.Receptor>
prm/pocket_docking_2.prm

>  <SCORE>
-66.0167

>  <SCORE.INTER>
-49.65

>  <SCORE.INTER.CONST>
1

>  <SCORE.INTER.POLAR>
-7.3862

>  <SCORE.INTER.ROT>
6

>  <SCORE.INTER.SOLV>
41.1306

>  <SCORE.INTER.VDW>
-29.7896

>  <SCORE.INTER.norm>
-1.55156

>  <SCORE.INTRA>
-16.8397

>  <SCORE.INTRA.DIHEDRAL>
6.16682

>  <SCORE.INTRA.DIHEDRAL.0>
18.4221

>  <SCORE.INTRA.POLAR>
-0.192941

>  <SCORE.INTRA.POLAR.0>
-1.57101

>  <SCORE.INTRA.REPUL>
-0.730195

>  <SCORE.INTRA.REPUL.0>
0.730195

>  <SCORE.INTRA.SOLV>
-3.41452

>  <SCORE.INTRA.SOLV.lig_0>
-127.221

>  <SCORE.INTRA.VDW>
-13.9089

>  <SCORE.INTRA.VDW.0>
10.8385

>  <SCORE.INTRA.norm>
-0.526242

>  <SCORE.RESTR>
0.473058

>  <SCORE.RESTR.CAVITY>
0.473058

>  <SCORE.RESTR.norm>
0.0147831

>  <SCORE.SYSTEM>
0

>  <SCORE.SYSTEM.CONST>
0

>  <SCORE.SYSTEM.DIHEDRAL>
0

>  <SCORE.SYSTEM.SOLV>
0

>  <SCORE.SYSTEM.norm>
0

>  <SCORE.heavy>
32

>  <SCORE.norm>
-2.06302

>  <RMSD>
0.611

$$$$
2tob cryst
 OpenBabel11021811463D
libRbt.so/2013.1/901 2013/11/27
 32 34  0  0  0  0  0  0  0  0999 V2000
   -7.9591    0.4731   -7.6341 C   0  0  2  0  0  0  0  0  0  0  0  0
   -7.2458    1.7377   -8.1021 C   0  0  1  0  0  0  0  0  0  0  0  0
   -6.5149    1.4389   -9.4113 C   0  0  2  0  0  0  0  0  0  0  0  0
   -5.5699    0.2410   -9.2484 C   0  0  1  0  0  0  0  0  0  0  0  0
   -6.3308   -0.9496   -8.6547 C   0  0  1  0  0  0  0  0  0  0  0  0
   -5.4565   -2.1458   -8.3157 C   0  0  0  0  0  0  0  0  0  0  0  0
   -8.1916    2.7842   -8.3044 O   0  0  0  0  0  0  0  0  0  0  0  0
   -5.7311    2.5515  -10.0355 N   0  3  0  0  0  0  0  0  0  0  0  0
   -5.0424   -0.1082  -10.5221 O   0  0  0  0  0  0  0  0  0  0  0  0
   -6.9997   -0.5492   -7.4421 O   0  0  0  0  0  0  0  0  0  0  0  0
   -6.2526   -3.2961   -8.0495 O   0  0  0  0  0  0  0  0  0  0  0  0
  -11.2574   -0.0489   -9.0950 C   0  0  2  0  0  0  0  0  0  0  0  0
  -12.5604   -0.8432   -8.9326 C   0  0  0  0  0  0  0  0  0  0  0  0
  -12.3248   -2.3508   -8.9632 C   0  0  1  0  0  0  0  0  0  0  0  0
  -11.3299   -2.7048   -7.8664 C   0  0  2  0  0  0  0  0  0  0  0  0
   -9.9852   -2.0362   -8.1627 C   0  0  1  0  0  0  0  0  0  0  0  0
  -10.1307   -0.5043   -8.1543 C   0  0  1  0  0  0  0  0  0  0  0  0
  -11.5031    1.4179   -8.8868 N   0  3  0  0  0  0  0  0  0  0  0  0
  -13.6127   -3.1003   -8.7968 N   0  3  0  0  0  0  0  0  0  0  0  0
   -9.0311   -2.4459   -7.1911 O   0  0  0  0  0  0  0  0  0  0  0  0
  -11.1616   -4.1315   -7.7797 O   0  0  0  0  0  0  0  0  0  0  0  0
   -8.9024    0.1048   -8.6038 O   0  0  0  0  0  0  0  0  0  0  0  0
  -10.5610   -4.5503   -6.5853 C   0  0  2  0  0  0  0  0  0  0  0  0
   -9.4386   -5.5486   -6.8878 C   0  0  1  0  0  0  0  0  0  0  0  0
  -10.0080   -6.9107   -7.2854 C   0  0  0  0  0  0  0  0  0  0  0  0
  -10.9843   -7.3695   -6.2143 C   0  0  1  0  0  0  0  0  0  0  0  0
  -12.0852   -6.3339   -6.0654 C   0  0  1  0  0  0  0  0  0  0  0  0
  -13.0984   -6.7395   -5.0104 C   0  0  0  0  0  0  0  0  0  0  0  0
   -8.5905   -5.0223   -8.0046 N   0  3  0  0  0  0  0  0  0  0  0  0
  -12.3912   -6.7972   -3.6839 N   0  3  0  0  0  0  0  0  0  0  0  0
  -11.5450   -8.6273   -6.5631 O   0  0  0  0  0  0  0  0  0  0  0  0
  -11.5073   -5.0805   -5.6633 O   0  0  0  0  0  0  0  0  0  0  0  0
  1  2  1  0  0  0  0
  1 22  1  6  0  0  0
  1 10  1  0  0  0  0
  2  3  1  0  0  0  0
  2  7  1  6  0  0  0
  3  4  1  0  0  0  0
  3  8  1  1  0  0  0
  4  5  1  0  0  0  0
  4  9  1  6  0  0  0
  5  6  1  1  0  0  0
  5 10  1  0  0  0  0
  6 11  1  0  0  0  0
 12 13  1  0  0  0  0
 12 17  1  0  0  0  0
 12 18  1  1  0  0  0
 13 14  1  0  0  0  0
 14 15  1  0  0  0  0
 14 19  1  1  0  0  0
 15 16  1  0  0  0  0
 15 21  1  6  0  0  0
 16 17  1  0  0  0  0
 16 20  1  1  0  0  0
 17 22  1  6  0  0  0
 23 21  1  6  0  0  0
 23 24  1  0  0  0  0
 23 32  1  0  0  0  0
 24 25  1  0  0  0  0
 24 29  1  6  0  0  0
 25 26  1  0  0  0  0
 26 27  1  0  0  0  0
 26 31  1  6  0  0  0
 27 28  1  1  0  0  0
 27 32  1  0  0  0  0
 28 30  1  0  0  0  0
M  CHG  5   8   1  18   1  19   1  29   1  30   1
M  END
>  <CHROM.1>
-145.96826300,-73.88735793,-75.27576569,-57.00600934,-167.34946910,161.05946877
-60.47448408,67.87241026,-163.62119386,164.20627191,145.70217424,-132.62852138
-43.91916089,179.51822311,63.45085447,79.16693256,-9.46474609,-2.42096871
-7.81957553,1.02800710,0.08129180,-0.32809118

>  <Name>
2tob cryst

>  <RI>
0

>  <Rbt.Current_Directory>
/home/itssahil/PROJECTS/Mol_Feturizer/New_Systems/rnas/2tob

>  <Rbt.Executable>
rbdock ($Id: //depot/dev/client3/rdock/2013.1/src/exe/rbdock.cxx#4 $)

>  <Rbt.Library>
libRbt.so (2013.1, Build901 2013/11/27)

>  <Rbt.Parameter_File>
/export/apps/rDock/src/rDock_2013.1_src/data/scripts/dock_solv.prm

>  <Rbt.Receptor>
prm/pocket_docking_3.prm

>  <SCORE>
-63.5225

>  <SCORE.INTER>
-44.5167

>  <SCORE.INTER.CONST>
1

>  <SCORE.INTER.POLAR>
-6.43747

>  <SCORE.INTER.ROT>
6

>  <SCORE.INTER.SOLV>
38.9069

>  <SCORE.INTER.VDW>
-28.7885

>  <SCORE.INTER.norm>
-1.39115

>  <SCORE.INTRA>
-19.0101

>  <SCORE.INTRA.DIHEDRAL>
4.56183

>  <SCORE.INTRA.DIHEDRAL.0>
18.4221

>  <SCORE.INTRA.POLAR>
-0.630229

>  <SCORE.INTRA.POLAR.0>
-1.57101

>  <SCORE.INTRA.REPUL>
-0.730195

>  <SCORE.INTRA.REPUL.0>
0.730195

>  <SCORE.INTRA.SOLV>
-1.17352

>  <SCORE.INTRA.SOLV.lig_0>
-127.221

>  <SCORE.INTRA.VDW>
-14.9105

>  <SCORE.INTRA.VDW.0>
10.8385

>  <SCORE.INTRA.norm>
-0.594066

>  <SCORE.RESTR>
0.00429376

>  <SCORE.RESTR.CAVITY>
0.00429376

>  <SCORE.RESTR.norm>
0.00013418

>  <SCORE.SYSTEM>
0

>  <SCORE.SYSTEM.CONST>
0

>  <SCORE.SYSTEM.DIHEDRAL>
0

>  <SCORE.SYSTEM.SOLV>
0

>  <SCORE.SYSTEM.norm>
0

>  <SCORE.heavy>
32

>  <SCORE.norm>
-1.98508

>  <RMSD>
0.691

$$$$
2tob cryst
 OpenBabel11021811463D
libRbt.so/2013.1/901 2013/11/27
 32 34  0  0  0  0  0  0  0  0999 V2000
   -8.8923    0.5402   -7.5616 C   0  0  2  0  0  0  0  0  0  0  0  0
   -8.2012    1.7904   -8.0967 C   0  0  1  0  0  0  0  0  0  0  0  0
   -7.4409    1.4287   -9.3730 C   0  0  2  0  0  0  0  0  0  0  0  0
   -6.4708    0.2670   -9.1205 C   0  0  1  0  0  0  0  0  0  0  0  0
   -7.2135   -0.9027   -8.4653 C   0  0  1  0  0  0  0  0  0  0  0  0
   -6.3172   -2.0535   -8.0383 C   0  0  0  0  0  0  0  0  0  0  0  0
   -9.1678    2.7987   -8.3791 O   0  0  0  0  0  0  0  0  0  0  0  0
   -6.6730    2.5193  -10.0533 N   0  3  0  0  0  0  0  0  0  0  0  0
   -5.9133   -0.1478  -10.3613 O   0  0  0  0  0  0  0  0  0  0  0  0
   -7.9125   -0.4442   -7.2908 O   0  0  0  0  0  0  0  0  0  0  0  0
   -5.8571   -2.7846   -9.1704 O   0  0  0  0  0  0  0  0  0  0  0  0
  -12.1195   -0.4193   -8.9875 C   0  0  2  0  0  0  0  0  0  0  0  0
  -13.2817   -1.4081   -8.8242 C   0  0  0  0  0  0  0  0  0  0  0  0
  -12.8165   -2.8604   -8.8844 C   0  0  1  0  0  0  0  0  0  0  0  0
  -11.7634   -3.0735   -7.8057 C   0  0  2  0  0  0  0  0  0  0  0  0
  -10.5424   -2.2004   -8.1057 C   0  0  1  0  0  0  0  0  0  0  0  0
  -10.9227   -0.7098   -8.0682 C   0  0  1  0  0  0  0  0  0  0  0  0
  -12.5858    0.9884   -8.7503 N   0  3  0  0  0  0  0  0  0  0  0  0
  -13.9706   -3.8027   -8.7165 N   0  3  0  0  0  0  0  0  0  0  0  0
   -9.5228   -2.4729   -7.1527 O   0  0  0  0  0  0  0  0  0  0  0  0
  -11.3754   -4.4583   -7.7465 O   0  0  0  0  0  0  0  0  0  0  0  0
   -9.8098    0.0891   -8.5210 O   0  0  0  0  0  0  0  0  0  0  0  0
  -10.7150   -4.8017   -6.5597 C   0  0  2  0  0  0  0  0  0  0  0  0
   -9.4742   -5.6428   -6.8777 C   0  0  1  0  0  0  0  0  0  0  0  0
   -9.8640   -7.0654   -7.2802 C   0  0  0  0  0  0  0  0  0  0  0  0
  -10.7626   -7.6542   -6.2047 C   0  0  1  0  0  0  0  0  0  0  0  0
  -11.9883   -6.7725   -6.0403 C   0  0  1  0  0  0  0  0  0  0  0  0
  -12.9306   -7.3132   -4.9802 C   0  0  0  0  0  0  0  0  0  0  0  0
   -8.7119   -5.0035   -7.9974 N   0  3  0  0  0  0  0  0  0  0  0  0
  -14.3008   -6.7519   -5.2455 N   0  3  0  0  0  0  0  0  0  0  0  0
  -11.1569   -8.9725   -6.5578 O   0  0  0  0  0  0  0  0  0  0  0  0
  -11.5759   -5.4565   -5.6341 O   0  0  0  0  0  0  0  0  0  0  0  0
  1  2  1  0  0  0  0
  1 22  1  6  0  0  0
  1 10  1  0  0  0  0
  2  3  1  0  0  0  0
  2  7  1  6  0  0  0
  3  4  1  0  0  0  0
  3  8  1  1  0  0  0
  4  5  1  0  0  0  0
  4  9  1  6  0  0  0
  5  6  1  1  0  0  0
  5 10  1  0  0  0  0
  6 11  1  0  0  0  0
 12 13  1  0  0  0  0
 12 17  1  0  0  0  0
 12 18  1  1  0  0  0
 13 14  1  0  0  0  0
 14 15  1  0  0  0  0
 14 19  1  1  0  0  0
 15 16  1  0  0  0  0
 15 21  1  6  0  0  0
 16 17  1  0  0  0  0
 16 20  1  1  0  0  0
 17 22  1  6  0  0  0
 23 21  1  6  0  0  0
 23 24  1  0  0  0  0
 23 32  1  0  0  0  0
 24 25  1  0  0  0  0
 24 29  1  6  0  0  0
 25 26  1  0  0  0  0
 26 27  1  0  0  0  0
 26 31  1  6  0  0  0
 27 28  1  1  0  0  0
 27 32  1  0  0  0  0
 28 30  1  0  0  0  0
M  CHG  5   8   1  18   1  19   1  29   1  30   1
M  END
>  <CHROM.1>
-155.78119605,62.72248074,45.25049227,160.00575862,-72.82847845,-90.92314246
-8.48443981,70.00188317,-162.87915372,-156.41804560,148.11709268,-134.29014809
51.97590762,179.18602546,-157.82464353,58.73035844,-10.00104421,-2.57986213
-7.85352969,1.08285940,0.10552335,-0.27605444

>  <Name>
2tob cryst

>  <RI>
3.35201e+07

>  <Rbt.Current_Directory>
/home/itssahil/PROJECTS/Mol_Feturizer/New_Systems/rnas/2tob

>  <Rbt.Executable>
rbdock ($Id: //depot/dev/client3/rdock/2013.1/src/exe/rbdock.cxx#4 $)

>  <Rbt.Library>
libRbt.so (2013.1, Build901 2013/11/27)

>  <Rbt.Parameter_File>
/export/apps/rDock/src/rDock_2013.1_src/data/scripts/dock_solv.prm

>  <Rbt.Receptor>
prm/pocket_docking_4.prm

>  <SCORE>
-69.0569

>  <SCORE.INTER>
-54.6933

>  <SCORE.INTER.CONST>
1

>  <SCORE.INTER.POLAR>
-7.70193

>  <SCORE.INTER.ROT>
6

>  <SCORE.INTER.SOLV>
40.488

>  <SCORE.INTER.VDW>
-31.8851

>  <SCORE.INTER.norm>
-1.70916

>  <SCORE.INTRA>
-14.3636

>  <SCORE.INTRA.DIHEDRAL>
10.1164

>  <SCORE.INTRA.DIHEDRAL.0>
18.4221

>  <SCORE.INTRA.POLAR>
-0.0443637

>  <SCORE.INTRA.POLAR.0>
-1.57101

>  <SCORE.INTRA.REPUL>
-0.730195

>  <SCORE.INTRA.REPUL.0>
0.730195

>  <SCORE.INTRA.SOLV>
-5.74388

>  <SCORE.INTRA.SOLV.lig_0>
-127.221

>  <SCORE.INTRA.VDW>
-12.7481

>  <SCORE.INTRA.VDW.0>
10.8385

>  <SCORE.INTRA.norm>
-0.448864

>  <SCORE.RESTR>
0

>  <SCORE.RESTR.CAVITY>
0

>  <SCORE.RESTR.norm>
0

>  <SCORE.SYSTEM>
0

>  <SCORE.SYSTEM.CONST>
0

>  <SCORE.SYSTEM.DIHEDRAL>
0

>  <SCORE.SYSTEM.SOLV>
0

>  <SCORE.SYSTEM.norm>
0

>  <SCORE.heavy>
32

>  <SCORE.norm>
-2.15803

>  <RMSD>
0.696

$$$$
2tob cryst
 OpenBabel11021811463D
libRbt.so/2013.1/901 2013/11/27
 32 34  0  0  0  0  0  0  0  0999 V2000
   -8.0754    0.3416   -7.7787 C   0  0  2  0  0  0  0  0  0  0  0  0
   -7.5388    1.6751   -8.2892 C   0  0  1  0  0  0  0  0  0  0  0  0
   -6.8484    1.4494   -9.6346 C   0  0  2  0  0  0  0  0  0  0  0  0
   -5.7640    0.3701   -9.5180 C   0  0  1  0  0  0  0  0  0  0  0  0
   -6.3497   -0.8942   -8.8797 C   0  0  1  0  0  0  0  0  0  0  0  0
   -5.3264   -1.9782   -8.5835 C   0  0  0  0  0  0  0  0  0  0  0  0
   -8.6086    2.6037   -8.4445 O   0  0  0  0  0  0  0  0  0  0  0  0
   -6.2326    2.6386  -10.3043 N   0  3  0  0  0  0  0  0  0  0  0  0
   -5.2678    0.0712  -10.8168 O   0  0  0  0  0  0  0  0  0  0  0  0
   -6.9954   -0.5614   -7.6345 O   0  0  0  0  0  0  0  0  0  0  0  0
   -4.4625   -2.1778   -9.6978 O   0  0  0  0  0  0  0  0  0  0  0  0
  -11.4034   -0.2480   -9.0381 C   0  0  2  0  0  0  0  0  0  0  0  0
  -12.7091   -1.0175   -8.7973 C   0  0  0  0  0  0  0  0  0  0  0  0
  -12.5057   -2.5292   -8.8482 C   0  0  1  0  0  0  0  0  0  0  0  0
  -11.4514   -2.9080   -7.8172 C   0  0  2  0  0  0  0  0  0  0  0  0
  -10.1148   -2.2643   -8.1948 C   0  0  1  0  0  0  0  0  0  0  0  0
  -10.2292   -0.7299   -8.1715 C   0  0  1  0  0  0  0  0  0  0  0  0
  -11.6065    1.2223   -8.8095 N   0  3  0  0  0  0  0  0  0  0  0  0
  -13.7953   -3.2543   -8.6042 N   0  3  0  0  0  0  0  0  0  0  0  0
   -9.1101   -2.6973   -7.2864 O   0  0  0  0  0  0  0  0  0  0  0  0
  -11.3062   -4.3382   -7.7466 O   0  0  0  0  0  0  0  0  0  0  0  0
   -9.0197   -0.1427   -8.6949 O   0  0  0  0  0  0  0  0  0  0  0  0
  -10.6980   -4.7789   -6.5640 C   0  0  2  0  0  0  0  0  0  0  0  0
   -9.5196   -5.7005   -6.8953 C   0  0  1  0  0  0  0  0  0  0  0  0
  -10.0095   -7.0713   -7.3626 C   0  0  0  0  0  0  0  0  0  0  0  0
  -10.9722   -7.6309   -6.3277 C   0  0  1  0  0  0  0  0  0  0  0  0
  -12.1294   -6.6638   -6.1478 C   0  0  1  0  0  0  0  0  0  0  0  0
  -13.1316   -7.1715   -5.1270 C   0  0  0  0  0  0  0  0  0  0  0  0
   -8.6880   -5.0783   -7.9747 N   0  3  0  0  0  0  0  0  0  0  0  0
  -12.4720   -7.1468   -3.7753 N   0  3  0  0  0  0  0  0  0  0  0  0
  -11.4596   -8.8994   -6.7414 O   0  0  0  0  0  0  0  0  0  0  0  0
  -11.6251   -5.4011   -5.6808 O   0  0  0  0  0  0  0  0  0  0  0  0
  1  2  1  0  0  0  0
  1 22  1  6  0  0  0
  1 10  1  0  0  0  0
  2  3  1  0  0  0  0
  2  7  1  6  0  0  0
  3  4  1  0  0  0  0
  3  8  1  1  0  0  0
  4  5  1  0  0  0  0
  4  9  1  6  0  0  0
  5  6  1  1  0  0  0
  5 10  1  0  0  0  0
  6 11  1  0  0  0  0
 12 13  1  0  0  0  0
 12 17  1  0  0  0  0
 12 18  1  1  0  0  0
 13 14  1  0  0  0  0
 14 15  1  0  0  0  0
 14 19  1  1  0  0  0
 15 16  1  0  0  0  0
 15 21  1  6  0  0  0
 16 17  1  0  0  0  0
 16 20  1  1  0  0  0
 17 22  1  6  0  0  0
 23 21  1  6  0  0  0
 23 24  1  0  0  0  0
 23 32  1  0  0  0  0
 24 25  1  0  0  0  0
 24 29  1  6  0  0  0
 25 26  1  0  0  0  0
 26 27  1  0  0  0  0
 26 31  1  6  0  0  0
 27 28  1  1  0  0  0
 27 32  1  0  0  0  0
 28 30  1  0  0  0  0
M  CHG  5   8   1  18   1  19   1  29   1  30   1
M  END
>  <CHROM.1>
-138.01335003,69.21826132,168.15519802,-169.81316913,-46.23868641,164.98496303
-67.26469813,-170.29507408,-160.72031880,-60.69438169,138.58808084,-127.84062171
53.02952787,172.18994869,67.95974545,158.05329527,-9.52304674,-2.52284147
-7.94597422,1.01516287,0.15577692,-0.30103785

>  <Name>
2tob cryst

>  <RI>
0

>  <Rbt.Current_Directory>
/home/itssahil/PROJECTS/Mol_Feturizer/New_Systems/rnas/2tob

>  <Rbt.Executable>
rbdock ($Id: //depot/dev/client3/rdock/2013.1/src/exe/rbdock.cxx#4 $)

>  <Rbt.Library>
libRbt.so (2013.1, Build901 2013/11/27)

>  <Rbt.Parameter_File>
/export/apps/rDock/src/rDock_2013.1_src/data/scripts/dock_solv.prm

>  <Rbt.Receptor>
prm/pocket_docking_5.prm

>  <SCORE>
-80.5721

>  <SCORE.INTER>
-61.1034

>  <SCORE.INTER.CONST>
1

>  <SCORE.INTER.POLAR>
-8.40168

>  <SCORE.INTER.ROT>
6

>  <SCORE.INTER.SOLV>
39.0813

>  <SCORE.INTER.VDW>
-33.3571

>  <SCORE.INTER.norm>
-1.90948

>  <SCORE.INTRA>
-19.4687

>  <SCORE.INTRA.DIHEDRAL>
6.58088

>  <SCORE.INTRA.DIHEDRAL.0>
18.4221

>  <SCORE.INTRA.POLAR>
-0.951147

>  <SCORE.INTRA.POLAR.0>
-1.57101

>  <SCORE.INTRA.REPUL>
-0.730195

>  <SCORE.INTRA.REPUL.0>
0.730195

>  <SCORE.INTRA.SOLV>
-3.16285

>  <SCORE.INTRA.SOLV.lig_0>
-127.221

>  <SCORE.INTRA.VDW>
-14.2928

>  <SCORE.INTRA.VDW.0>
10.8385

>  <SCORE.INTRA.norm>
-0.608396

>  <SCORE.RESTR>
0

>  <SCORE.RESTR.CAVITY>
0

>  <SCORE.RESTR.norm>
0

>  <SCORE.SYSTEM>
0

>  <SCORE.SYSTEM.CONST>
0

>  <SCORE.SYSTEM.DIHEDRAL>
0

>  <SCORE.SYSTEM.SOLV>
0

>  <SCORE.SYSTEM.norm>
0

>  <SCORE.heavy>
32

>  <SCORE.norm>
-2.51788

>  <RMSD>
0.700

$$$$
2tob cryst
 OpenBabel11021811463D
libRbt.so/2013.1/901 2013/11/27
 32 34  0  0  0  0  0  0  0  0999 V2000
   -7.9699    0.4671   -7.8984 C   0  0  2  0  0  0  0  0  0  0  0  0
   -7.3252    1.7053   -8.5134 C   0  0  1  0  0  0  0  0  0  0  0  0
   -6.6680    1.3161   -9.8379 C   0  0  2  0  0  0  0  0  0  0  0  0
   -5.6791    0.1599   -9.6381 C   0  0  1  0  0  0  0  0  0  0  0  0
   -6.3657   -0.9953   -8.9011 C   0  0  1  0  0  0  0  0  0  0  0  0
   -5.4366   -2.1368   -8.5219 C   0  0  0  0  0  0  0  0  0  0  0  0
   -8.3128    2.7074   -8.7399 O   0  0  0  0  0  0  0  0  0  0  0  0
   -5.9581    2.3916  -10.6003 N   0  3  0  0  0  0  0  0  0  0  0  0
   -5.2211   -0.2816  -10.9100 O   0  0  0  0  0  0  0  0  0  0  0  0
   -6.9701   -0.5114   -7.6851 O   0  0  0  0  0  0  0  0  0  0  0  0
   -6.1793   -3.3034   -8.1824 O   0  0  0  0  0  0  0  0  0  0  0  0
  -11.3511   -0.1631   -9.0319 C   0  0  2  0  0  0  0  0  0  0  0  0
  -12.6323   -0.9527   -8.7315 C   0  0  0  0  0  0  0  0  0  0  0  0
  -12.4004   -2.4609   -8.7591 C   0  0  1  0  0  0  0  0  0  0  0  0
  -11.3046   -2.7978   -7.7573 C   0  0  2  0  0  0  0  0  0  0  0  0
   -9.9947   -2.1363   -8.1929 C   0  0  1  0  0  0  0  0  0  0  0  0
  -10.1390   -0.6042   -8.1963 C   0  0  1  0  0  0  0  0  0  0  0  0
  -11.5759    1.3074   -8.8258 N   0  3  0  0  0  0  0  0  0  0  0  0
  -13.6662   -3.2057   -8.4570 N   0  3  0  0  0  0  0  0  0  0  0  0
   -8.9515   -2.5309   -7.3108 O   0  0  0  0  0  0  0  0  0  0  0  0
  -11.1284   -4.2231   -7.6631 O   0  0  0  0  0  0  0  0  0  0  0  0
   -8.9598   -0.0045   -8.7722 O   0  0  0  0  0  0  0  0  0  0  0  0
  -10.4376   -4.6245   -6.5123 C   0  0  2  0  0  0  0  0  0  0  0  0
   -9.3755   -5.6667   -6.8781 C   0  0  1  0  0  0  0  0  0  0  0  0
  -10.0170   -7.0214   -7.1797 C   0  0  0  0  0  0  0  0  0  0  0  0
  -10.9083   -7.4163   -6.0133 C   0  0  1  0  0  0  0  0  0  0  0  0
  -11.9614   -6.3422   -5.8035 C   0  0  1  0  0  0  0  0  0  0  0  0
  -12.8893   -6.6832   -4.6516 C   0  0  0  0  0  0  0  0  0  0  0  0
   -8.6140   -5.2016   -8.0811 N   0  3  0  0  0  0  0  0  0  0  0  0
  -13.9931   -5.6615   -4.6251 N   0  3  0  0  0  0  0  0  0  0  0  0
  -11.5338   -8.6656   -6.2704 O   0  0  0  0  0  0  0  0  0  0  0  0
  -11.3142   -5.0962   -5.4946 O   0  0  0  0  0  0  0  0  0  0  0  0
  1  2  1  0  0  0  0
  1 22  1  6  0  0  0
  1 10  1  0  0  0  0
  2  3  1  0  0  0  0
  2  7  1  6  0  0  0
  3  4  1  0  0  0  0
  3  8  1  1  0  0  0
  4  5  1  0  0  0  0
  4  9  1  6  0  0  0
  5  6  1  1  0  0  0
  5 10  1  0  0  0  0
  6 11  1  0  0  0  0
 12 13  1  0  0  0  0
 12 17  1  0  0  0  0
 12 18  1  1  0  0  0
 13 14  1  0  0  0  0
 14 15  1  0  0  0  0
 14 19  1  1  0  0  0
 15 16  1  0  0  0  0
 15 21  1  6  0  0  0
 16 17  1  0  0  0  0
 16 20  1  1  0  0  0
 17 22  1  6  0  0  0
 23 21  1  6  0  0  0
 23 24  1  0  0  0  0
 23 32  1  0  0  0  0
 24 25  1  0  0  0  0
 24 29  1  6  0  0  0
 25 26  1  0  0  0  0
 26 27  1  0  0  0  0
 26 31  1  6  0  0  0
 27 28  1  1  0  0  0
 27 32  1  0  0  0  0
 28 30  1  0  0  0  0
M  CHG  5   8   1  18   1  19   1  29   1  30   1
M  END
>  <CHROM.1>
-145.97232903,-163.03123064,178.84639494,92.23881029,-164.14208252,-44.49002181
-64.05503216,-40.09352245,-162.48247148,-58.21944955,141.16452153,-134.75416970
-27.83910862,-177.61626395,-173.10262595,76.75067868,-9.53706849,-2.44638167
-7.90215247,0.99782312,0.17160129,-0.32165526

>  <Name>
2tob cryst

>  <RI>
0

>  <Rbt.Current_Directory>
/home/itssahil/PROJECTS/Mol_Feturizer/New_Systems/rnas/2tob

>  <Rbt.Executable>
rbdock ($Id: //depot/dev/client3/rdock/2013.1/src/exe/rbdock.cxx#4 $)

>  <Rbt.Library>
libRbt.so (2013.1, Build901 2013/11/27)

>  <Rbt.Parameter_File>
/export/apps/rDock/src/rDock_2013.1_src/data/scripts/dock_solv.prm

>  <Rbt.Receptor>
prm/pocket_docking_3.prm

>  <SCORE>
-65.5746

>  <SCORE.INTER>
-48.427

>  <SCORE.INTER.CONST>
1

>  <SCORE.INTER.POLAR>
-6.60478

>  <SCORE.INTER.ROT>
6

>  <SCORE.INTER.SOLV>
38.6676

>  <SCORE.INTER.VDW>
-30.7579

>  <SCORE.INTER.norm>
-1.51334

>  <SCORE.INTRA>
-17.202

>  <SCORE.INTRA.DIHEDRAL>
9.94223

>  <SCORE.INTRA.DIHEDRAL.0>
18.4221

>  <SCORE.INTRA.POLAR>
-0.731832

>  <SCORE.INTRA.POLAR.0>
-1.57101

>  <SCORE.INTRA.REPUL>
-0.730195

>  <SCORE.INTRA.REPUL.0>
0.730195

>  <SCORE.INTRA.SOLV>
-3.58565

>  <SCORE.INTRA.SOLV.lig_0>
-127.221

>  <SCORE.INTRA.VDW>
-14.241

>  <SCORE.INTRA.VDW.0>
10.8385

>  <SCORE.INTRA.norm>
-0.537561

>  <SCORE.RESTR>
0.0543637

>  <SCORE.RESTR.CAVITY>
0.0543637

>  <SCORE.RESTR.norm>
0.00169887

>  <SCORE.SYSTEM>
0

>  <SCORE.SYSTEM.CONST>
0

>  <SCORE.SYSTEM.DIHEDRAL>
0

>  <SCORE.SYSTEM.SOLV>
0

>  <SCORE.SYSTEM.norm>
0

>  <SCORE.heavy>
32

>  <SCORE.norm>
-2.0492

>  <RMSD>
0.726

$$$$
2tob cryst
 OpenBabel11021811463D
libRbt.so/2013.1/901 2013/11/27
 32 34  0  0  0  0  0  0  0  0999 V2000
   -8.9109    0.3913   -7.3518 C   0  0  2  0  0  0  0  0  0  0  0  0
   -8.1787    1.6437   -7.8234 C   0  0  1  0  0  0  0  0  0  0  0  0
   -7.3794    1.3061   -9.0824 C   0  0  2  0  0  0  0  0  0  0  0  0
   -6.4399    0.1191   -8.8313 C   0  0  1  0  0  0  0  0  0  0  0  0
   -7.2265   -1.0554   -8.2390 C   0  0  1  0  0  0  0  0  0  0  0  0
   -6.3669   -2.2353   -7.8159 C   0  0  0  0  0  0  0  0  0  0  0  0
   -9.1164    2.6781   -8.1090 O   0  0  0  0  0  0  0  0  0  0  0  0
   -6.5681    2.4018   -9.7013 N   0  3  0  0  0  0  0  0  0  0  0  0
   -5.8455   -0.2687  -10.0636 O   0  0  0  0  0  0  0  0  0  0  0  0
   -7.9592   -0.6191   -7.0766 O   0  0  0  0  0  0  0  0  0  0  0  0
   -5.8181   -2.8957   -8.9519 O   0  0  0  0  0  0  0  0  0  0  0  0
  -12.0685   -0.5675   -8.9584 C   0  0  2  0  0  0  0  0  0  0  0  0
  -13.2158   -1.5830   -8.8700 C   0  0  0  0  0  0  0  0  0  0  0  0
  -12.7156   -3.0241   -8.9158 C   0  0  1  0  0  0  0  0  0  0  0  0
  -11.7211   -3.2247   -7.7806 C   0  0  2  0  0  0  0  0  0  0  0  0
  -10.5048   -2.3223   -8.0030 C   0  0  1  0  0  0  0  0  0  0  0  0
  -10.9198   -0.8407   -7.9747 C   0  0  1  0  0  0  0  0  0  0  0  0
  -12.5789    0.8273   -8.7364 N   0  3  0  0  0  0  0  0  0  0  0  0
  -13.8561   -3.9930   -8.8220 N   0  3  0  0  0  0  0  0  0  0  0  0
   -9.5352   -2.5816   -6.9957 O   0  0  0  0  0  0  0  0  0  0  0  0
  -11.3062   -4.6011   -7.7110 O   0  0  0  0  0  0  0  0  0  0  0  0
   -9.8010   -0.0134   -8.3566 O   0  0  0  0  0  0  0  0  0  0  0  0
  -10.6474   -4.9250   -6.5178 C   0  0  2  0  0  0  0  0  0  0  0  0
   -9.4851   -5.8809   -6.8064 C   0  0  1  0  0  0  0  0  0  0  0  0
   -9.9958   -7.2889   -7.1132 C   0  0  0  0  0  0  0  0  0  0  0  0
  -10.9128   -7.7379   -5.9870 C   0  0  1  0  0  0  0  0  0  0  0  0
  -12.0604   -6.7520   -5.8543 C   0  0  1  0  0  0  0  0  0  0  0  0
  -13.0175   -7.1506   -4.7456 C   0  0  0  0  0  0  0  0  0  0  0  0
   -8.7010   -5.3733   -7.9774 N   0  3  0  0  0  0  0  0  0  0  0  0
  -13.7810   -8.3632   -5.2035 N   0  3  0  0  0  0  0  0  0  0  0  0
  -11.4186   -9.0389   -6.2507 O   0  0  0  0  0  0  0  0  0  0  0  0
  -11.5355   -5.4516   -5.5377 O   0  0  0  0  0  0  0  0  0  0  0  0
  1  2  1  0  0  0  0
  1 22  1  6  0  0  0
  1 10  1  0  0  0  0
  2  3  1  0  0  0  0
  2  7  1  6  0  0  0
  3  4  1  0  0  0  0
  3  8  1  1  0  0  0
  4  5  1  0  0  0  0
  4  9  1  6  0  0  0
  5  6  1  1  0  0  0
  5 10  1  0  0  0  0
  6 11  1  0  0  0  0
 12 13  1  0  0  0  0
 12 17  1  0  0  0  0
 12 18  1  1  0  0  0
 13 14  1  0  0  0  0
 14 15  1  0  0  0  0
 14 19  1  1  0  0  0
 15 16  1  0  0  0  0
 15 21  1  6  0  0  0
 16 17  1  0  0  0  0
 16 20  1  1  0  0  0
 17 22  1  6  0  0  0
 23 21  1  6  0  0  0
 23 24  1  0  0  0  0
 23 32  1  0  0  0  0
 24 25  1  0  0  0  0
 24 29  1  6  0  0  0
 25 26  1  0  0  0  0
 26 27  1  0  0  0  0
 26 31  1  6  0  0  0
 27 28  1  1  0  0  0
 27 32  1  0  0  0  0
 28 30  1  0  0  0  0
M  CHG  5   8   1  18   1  19   1  29   1  30   1
M  END
>  <CHROM.1>
-157.76014421,179.69176974,-78.22724909,170.35932995,-69.55675856,-83.19852726
115.66533701,-178.82238005,-165.87218095,118.59215928,151.34049089,-141.02477465
-19.45717220,58.05747020,-71.47663622,-66.85651265,-9.97150231,-2.76941320
-7.71249761,1.09910097,0.05638204,-0.28085816

>  <Name>
2tob cryst

>  <RI>
2.9538e+07

>  <Rbt.Current_Directory>
/home/itssahil/PROJECTS/Mol_Feturizer/New_Systems/rnas/2tob

>  <Rbt.Executable>
rbdock ($Id: //depot/dev/client3/rdock/2013.1/src/exe/rbdock.cxx#4 $)

>  <Rbt.Library>
libRbt.so (2013.1, Build901 2013/11/27)

>  <Rbt.Parameter_File>
/export/apps/rDock/src/rDock_2013.1_src/data/scripts/dock_solv.prm

>  <Rbt.Receptor>
prm/pocket_docking_2.prm

>  <SCORE>
-65.5409

>  <SCORE.INTER>
-54.2901

>  <SCORE.INTER.CONST>
1

>  <SCORE.INTER.POLAR>
-7.93522

>  <SCORE.INTER.ROT>
6

>  <SCORE.INTER.SOLV>
39.7866

>  <SCORE.INTER.VDW>
-30.6048

>  <SCORE.INTER.norm>
-1.69656

>  <SCORE.INTRA>
-11.3478

>  <SCORE.INTRA.DIHEDRAL>
11.1763

>  <SCORE.INTRA.DIHEDRAL.0>
18.4221

>  <SCORE.INTRA.POLAR>
0.413703

>  <SCORE.INTRA.POLAR.0>
-1.57101

>  <SCORE.INTRA.REPUL>
-0.730195

>  <SCORE.INTRA.REPUL.0>
0.730195

>  <SCORE.INTRA.SOLV>
-3.82736

>  <SCORE.INTRA.SOLV.lig_0>
-127.221

>  <SCORE.INTRA.VDW>
-12.7779

>  <SCORE.INTRA.VDW.0>
10.8385

>  <SCORE.INTRA.norm>
-0.354618

>  <SCORE.RESTR>
0.0969785

>  <SCORE.RESTR.CAVITY>
0.0969785

>  <SCORE.RESTR.norm>
0.00303058

>  <SCORE.SYSTEM>
0

>  <SCORE.SYSTEM.CONST>
0

>  <SCORE.SYSTEM.DIHEDRAL>
0

>  <SCORE.SYSTEM.SOLV>
0

>  <SCORE.SYSTEM.norm>
0

>  <SCORE.heavy>
32

>  <SCORE.norm>
-2.04815

>  <RMSD>
0.728

$$$$
2tob cryst
 OpenBabel11021811463D
libRbt.so/2013.1/901 2013/11/27
 32 34  0  0  0  0  0  0  0  0999 V2000
   -8.1560    0.1139   -7.7017 C   0  0  2  0  0  0  0  0  0  0  0  0
   -7.7724    1.5398   -8.0847 C   0  0  1  0  0  0  0  0  0  0  0  0
   -7.1087    1.5218   -9.4619 C   0  0  2  0  0  0  0  0  0  0  0  0
   -5.9188    0.5531   -9.4824 C   0  0  1  0  0  0  0  0  0  0  0  0
   -6.3538   -0.8220   -8.9640 C   0  0  1  0  0  0  0  0  0  0  0  0
   -5.2181   -1.8195   -8.8049 C   0  0  0  0  0  0  0  0  0  0  0  0
   -8.9341    2.3646   -8.1187 O   0  0  0  0  0  0  0  0  0  0  0  0
   -6.6373    2.8288  -10.0199 N   0  3  0  0  0  0  0  0  0  0  0  0
   -5.4392    0.4381  -10.8162 O   0  0  0  0  0  0  0  0  0  0  0  0
   -6.9871   -0.6834   -7.6764 O   0  0  0  0  0  0  0  0  0  0  0  0
   -4.1013   -1.4482   -9.6066 O   0  0  0  0  0  0  0  0  0  0  0  0
  -11.4529   -0.4564   -9.0425 C   0  0  2  0  0  0  0  0  0  0  0  0
  -12.7705   -1.2150   -8.8339 C   0  0  0  0  0  0  0  0  0  0  0  0
  -12.5784   -2.7284   -8.8796 C   0  0  1  0  0  0  0  0  0  0  0  0
  -11.5529   -3.1155   -7.8229 C   0  0  2  0  0  0  0  0  0  0  0  0
  -10.2022   -2.4830   -8.1674 C   0  0  1  0  0  0  0  0  0  0  0  0
  -10.3044   -0.9477   -8.1472 C   0  0  1  0  0  0  0  0  0  0  0  0
  -11.6494    1.0156   -8.8191 N   0  3  0  0  0  0  0  0  0  0  0  0
  -13.8795   -3.4428   -8.6674 N   0  3  0  0  0  0  0  0  0  0  0  0
   -9.2238   -2.9240   -7.2346 O   0  0  0  0  0  0  0  0  0  0  0  0
  -11.4213   -4.5468   -7.7485 O   0  0  0  0  0  0  0  0  0  0  0  0
   -9.0776   -0.3706   -8.6407 O   0  0  0  0  0  0  0  0  0  0  0  0
  -10.8334   -4.9913   -6.5571 C   0  0  2  0  0  0  0  0  0  0  0  0
   -9.6776   -5.9472   -6.8705 C   0  0  1  0  0  0  0  0  0  0  0  0
  -10.2004   -7.3093   -7.3275 C   0  0  0  0  0  0  0  0  0  0  0  0
  -11.1849   -7.8324   -6.2941 C   0  0  1  0  0  0  0  0  0  0  0  0
  -12.3172   -6.8332   -6.1324 C   0  0  1  0  0  0  0  0  0  0  0  0
  -13.3397   -7.3036   -5.1139 C   0  0  0  0  0  0  0  0  0  0  0  0
   -8.8222   -5.3584   -7.9500 N   0  3  0  0  0  0  0  0  0  0  0  0
  -14.5747   -6.4589   -5.2700 N   0  3  0  0  0  0  0  0  0  0  0  0
  -11.7029   -9.0918   -6.6985 O   0  0  0  0  0  0  0  0  0  0  0  0
  -11.7829   -5.5796   -5.6745 O   0  0  0  0  0  0  0  0  0  0  0  0
  1  2  1  0  0  0  0
  1 22  1  6  0  0  0
  1 10  1  0  0  0  0
  2  3  1  0  0  0  0
  2  7  1  6  0  0  0
  3  4  1  0  0  0  0
  3  8  1  1  0  0  0
  4  5  1  0  0  0  0
  4  9  1  6  0  0  0
  5  6  1  1  0  0  0
  5 10  1  0  0  0  0
  6 11  1  0  0  0  0
 12 13  1  0  0  0  0
 12 17  1  0  0  0  0
 12 18  1  1  0  0  0
 13 14  1  0  0  0  0
 14 15  1  0  0  0  0
 14 19  1  1  0  0  0
 15 16  1  0  0  0  0
 15 21  1  6  0  0  0
 16 17  1  0  0  0  0
 16 20  1  1  0  0  0
 17 22  1  6  0  0  0
 23 21  1  6  0  0  0
 23 24  1  0  0  0  0
 23 32  1  0  0  0  0
 24 25  1  0  0  0  0
 24 29  1  6  0  0  0
 25 26  1  0  0  0  0
 26 27  1  0  0  0  0
 26 31  1  6  0  0  0
 27 28  1  1  0  0  0
 27 32  1  0  0  0  0
 28 30  1  0  0  0  0
M  CHG  5   8   1  18   1  19   1  29   1  30   1
M  END
>  <CHROM.1>
-128.72249221,82.03486407,-32.31707710,62.30943763,-21.22379834,-77.47990857
172.80969777,76.65240804,-161.34769383,-58.06621324,138.18797989,-129.04015247
45.47991554,176.57980145,-165.66155453,51.30869781,-9.71731017,-2.58411652
-7.97021599,0.96485669,0.14272246,-0.26196787

>  <Name>
2tob cryst

>  <RI>
2.9538e+07

>  <Rbt.Current_Directory>
/home/itssahil/PROJECTS/Mol_Feturizer/New_Systems/rnas/2tob

>  <Rbt.Executable>
rbdock ($Id: //depot/dev/client3/rdock/2013.1/src/exe/rbdock.cxx#4 $)

>  <Rbt.Library>
libRbt.so (2013.1, Build901 2013/11/27)

>  <Rbt.Parameter_File>
/export/apps/rDock/src/rDock_2013.1_src/data/scripts/dock_solv.prm

>  <Rbt.Receptor>
prm/pocket_docking_2.prm

>  <SCORE>
-65.8828

>  <SCORE.INTER>
-51.4731

>  <SCORE.INTER.CONST>
1

>  <SCORE.INTER.POLAR>
-7.3771

>  <SCORE.INTER.ROT>
6

>  <SCORE.INTER.SOLV>
38.3652

>  <SCORE.INTER.VDW>
-30.1134

>  <SCORE.INTER.norm>
-1.60853

>  <SCORE.INTRA>
-15.4442

>  <SCORE.INTRA.DIHEDRAL>
13.6902

>  <SCORE.INTRA.DIHEDRAL.0>
18.4221

>  <SCORE.INTRA.POLAR>
-0.784008

>  <SCORE.INTRA.POLAR.0>
-1.57101

>  <SCORE.INTRA.REPUL>
-0.730195

>  <SCORE.INTRA.REPUL.0>
0.730195

>  <SCORE.INTRA.SOLV>
-4.54287

>  <SCORE.INTRA.SOLV.lig_0>
-127.221

>  <SCORE.INTRA.VDW>
-13.7013

>  <SCORE.INTRA.VDW.0>
10.8385

>  <SCORE.INTRA.norm>
-0.482631

>  <SCORE.RESTR>
1.03449

>  <SCORE.RESTR.CAVITY>
1.03449

>  <SCORE.RESTR.norm>
0.0323278

>  <SCORE.SYSTEM>
0

>  <SCORE.SYSTEM.CONST>
0

>  <SCORE.SYSTEM.DIHEDRAL>
0

>  <SCORE.SYSTEM.SOLV>
0

>  <SCORE.SYSTEM.norm>
0

>  <SCORE.heavy>
32

>  <SCORE.norm>
-2.05884

>  <RMSD>
0.748

$$$$
2tob cryst
 OpenBabel11021811463D
libRbt.so/2013.1/901 2013/11/27
 32 34  0  0  0  0  0  0  0  0999 V2000
   -8.7970    0.5830   -7.6006 C   0  0  2  0  0  0  0  0  0  0  0  0
   -8.1130    1.8351   -8.1404 C   0  0  1  0  0  0  0  0  0  0  0  0
   -7.3801    1.4808   -9.4346 C   0  0  2  0  0  0  0  0  0  0  0  0
   -6.4087    0.3143   -9.2107 C   0  0  1  0  0  0  0  0  0  0  0  0
   -7.1414   -0.8580   -8.5492 C   0  0  1  0  0  0  0  0  0  0  0  0
   -6.2402   -2.0147   -8.1492 C   0  0  0  0  0  0  0  0  0  0  0  0
   -9.0821    2.8483   -8.3955 O   0  0  0  0  0  0  0  0  0  0  0  0
   -6.6229    2.5742  -10.1224 N   0  3  0  0  0  0  0  0  0  0  0  0
   -5.8779   -0.0927  -10.4656 O   0  0  0  0  0  0  0  0  0  0  0  0
   -7.8149   -0.4063   -7.3573 O   0  0  0  0  0  0  0  0  0  0  0  0
   -5.2785   -2.2825   -9.1647 O   0  0  0  0  0  0  0  0  0  0  0  0
  -12.0539   -0.3503   -8.9831 C   0  0  2  0  0  0  0  0  0  0  0  0
  -13.2234   -1.3267   -8.7980 C   0  0  0  0  0  0  0  0  0  0  0  0
  -12.7719   -2.7837   -8.8473 C   0  0  1  0  0  0  0  0  0  0  0  0
  -11.7103   -2.9951   -7.7766 C   0  0  2  0  0  0  0  0  0  0  0  0
  -10.4845   -2.1364   -8.0976 C   0  0  1  0  0  0  0  0  0  0  0  0
  -10.8508   -0.6420   -8.0724 C   0  0  1  0  0  0  0  0  0  0  0  0
  -12.5052    1.0640   -8.7565 N   0  3  0  0  0  0  0  0  0  0  0  0
  -13.9328   -3.7136   -8.6582 N   0  3  0  0  0  0  0  0  0  0  0  0
   -9.4581   -2.4081   -7.1517 O   0  0  0  0  0  0  0  0  0  0  0  0
  -11.3343   -4.3826   -7.7064 O   0  0  0  0  0  0  0  0  0  0  0  0
   -9.7352    0.1418   -8.5444 O   0  0  0  0  0  0  0  0  0  0  0  0
  -10.6568   -4.7174   -6.5267 C   0  0  2  0  0  0  0  0  0  0  0  0
   -9.4621   -5.6210   -6.8497 C   0  0  1  0  0  0  0  0  0  0  0  0
   -9.9229   -7.0371   -7.1959 C   0  0  0  0  0  0  0  0  0  0  0  0
  -10.8160   -7.5527   -6.0790 C   0  0  1  0  0  0  0  0  0  0  0  0
  -11.9981   -6.6139   -5.9111 C   0  0  1  0  0  0  0  0  0  0  0  0
  -12.9331   -7.0801   -4.8100 C   0  0  0  0  0  0  0  0  0  0  0  0
   -8.7043   -5.0505   -8.0089 N   0  3  0  0  0  0  0  0  0  0  0  0
  -14.1534   -6.2007   -4.8325 N   0  3  0  0  0  0  0  0  0  0  0  0
  -11.2756   -8.8629   -6.3790 O   0  0  0  0  0  0  0  0  0  0  0  0
  -11.5191   -5.3051   -5.5584 O   0  0  0  0  0  0  0  0  0  0  0  0
  1  2  1  0  0  0  0
  1 22  1  6  0  0  0
  1 10  1  0  0  0  0
  2  3  1  0  0  0  0
  2  7  1  6  0  0  0
  3  4  1  0  0  0  0
  3  8  1  1  0  0  0
  4  5  1  0  0  0  0
  4  9  1  6  0  0  0
  5  6  1  1  0  0  0
  5 10  1  0  0  0  0
  6 11  1  0  0  0  0
 12 13  1  0  0  0  0
 12 17  1  0  0  0  0
 12 18  1  1  0  0  0
 13 14  1  0  0  0  0
 14 15  1  0  0  0  0
 14 19  1  1  0  0  0
 15 16  1  0  0  0  0
 15 21  1  6  0  0  0
 16 17  1  0  0  0  0
 16 20  1  1  0  0  0
 17 22  1  6  0  0  0
 23 21  1  6  0  0  0
 23 24  1  0  0  0  0
 23 32  1  0  0  0  0
 24 25  1  0  0  0  0
 24 29  1  6  0  0  0
 25 26  1  0  0  0  0
 26 27  1  0  0  0  0
 26 31  1  6  0  0  0
 27 28  1  1  0  0  0
 27 32  1  0  0  0  0
 28 30  1  0  0  0  0
M  CHG  5   8   1  18   1  19   1  29   1  30   1
M  END
>  <CHROM.1>
-154.96533322,-60.66410053,171.08562453,169.35362320,-41.92155780,165.67903639
-9.63223786,70.37001512,-163.32035776,-58.10746585,148.76135990,-136.56753191
-67.93507867,-51.82582696,-172.82909577,-179.91682914,-9.93528906,-2.47855559
-7.83277888,1.06112139,0.12500571,-0.29385624

>  <Name>
2tob cryst

>  <RI>
2.9538e+07

>  <Rbt.Current_Directory>
/home/itssahil/PROJECTS/Mol_Feturizer/New_Systems/rnas/2tob

>  <Rbt.Executable>
rbdock ($Id: //depot/dev/client3/rdock/2013.1/src/exe/rbdock.cxx#4 $)

>  <Rbt.Library>
libRbt.so (2013.1, Build901 2013/11/27)

>  <Rbt.Parameter_File>
/export/apps/rDock/src/rDock_2013.1_src/data/scripts/dock_solv.prm

>  <Rbt.Receptor>
prm/pocket_docking_2.prm

>  <SCORE>
-76.554

>  <SCORE.INTER>
-57.6692

>  <SCORE.INTER.CONST>
1

>  <SCORE.INTER.POLAR>
-8.3829

>  <SCORE.INTER.ROT>
6

>  <SCORE.INTER.SOLV>
41.0002

>  <SCORE.INTER.VDW>
-31.7699

>  <SCORE.INTER.norm>
-1.80216

>  <SCORE.INTRA>
-19.1543

>  <SCORE.INTRA.DIHEDRAL>
2.40248

>  <SCORE.INTRA.DIHEDRAL.0>
18.4221

>  <SCORE.INTRA.POLAR>
0.131141

>  <SCORE.INTRA.POLAR.0>
-1.57101

>  <SCORE.INTRA.REPUL>
-0.730195

>  <SCORE.INTRA.REPUL.0>
0.730195

>  <SCORE.INTRA.SOLV>
-6.25703

>  <SCORE.INTRA.SOLV.lig_0>
-127.221

>  <SCORE.INTRA.VDW>
-14.0219

>  <SCORE.INTRA.VDW.0>
10.8385

>  <SCORE.INTRA.norm>
-0.598572

>  <SCORE.RESTR>
0.269537

>  <SCORE.RESTR.CAVITY>
0.269537

>  <SCORE.RESTR.norm>
0.00842302

>  <SCORE.SYSTEM>
0

>  <SCORE.SYSTEM.CONST>
0

>  <SCORE.SYSTEM.DIHEDRAL>
0

>  <SCORE.SYSTEM.SOLV>
0

>  <SCORE.SYSTEM.norm>
0

>  <SCORE.heavy>
32

>  <SCORE.norm>
-2.39231

>  <RMSD>
0.753

$$$$
2tob cryst
 OpenBabel11021811463D
libRbt.so/2013.1/901 2013/11/27
 32 34  0  0  0  0  0  0  0  0999 V2000
   -8.8326    0.2645   -7.5547 C   0  0  2  0  0  0  0  0  0  0  0  0
   -8.2451    1.6052   -7.9842 C   0  0  1  0  0  0  0  0  0  0  0  0
   -7.5295    1.4267   -9.3235 C   0  0  2  0  0  0  0  0  0  0  0  0
   -6.4802    0.3104   -9.2378 C   0  0  1  0  0  0  0  0  0  0  0  0
   -7.1177   -0.9660   -8.6782 C   0  0  1  0  0  0  0  0  0  0  0  0
   -6.1339   -2.0942   -8.4149 C   0  0  0  0  0  0  0  0  0  0  0  0
   -9.2833    2.5725   -8.1160 O   0  0  0  0  0  0  0  0  0  0  0  0
   -6.8633    2.6289   -9.9175 N   0  3  0  0  0  0  0  0  0  0  0  0
   -5.9618    0.0625  -10.5386 O   0  0  0  0  0  0  0  0  0  0  0  0
   -7.7832   -0.6770   -7.4325 O   0  0  0  0  0  0  0  0  0  0  0  0
   -5.2519   -2.2658   -9.5196 O   0  0  0  0  0  0  0  0  0  0  0  0
  -12.0885   -0.5954   -8.9888 C   0  0  2  0  0  0  0  0  0  0  0  0
  -13.2739   -1.5574   -8.8329 C   0  0  0  0  0  0  0  0  0  0  0  0
  -12.8429   -3.0199   -8.9003 C   0  0  1  0  0  0  0  0  0  0  0  0
  -11.7971   -3.2636   -7.8210 C   0  0  2  0  0  0  0  0  0  0  0  0
  -10.5553   -2.4178   -8.1140 C   0  0  1  0  0  0  0  0  0  0  0  0
  -10.9005   -0.9189   -8.0690 C   0  0  1  0  0  0  0  0  0  0  0  0
  -12.5220    0.8216   -8.7447 N   0  3  0  0  0  0  0  0  0  0  0  0
  -14.0191   -3.9357   -8.7395 N   0  3  0  0  0  0  0  0  0  0  0  0
   -9.5442   -2.7194   -7.1608 O   0  0  0  0  0  0  0  0  0  0  0  0
  -11.4419   -4.6574   -7.7687 O   0  0  0  0  0  0  0  0  0  0  0  0
   -9.7683   -0.1440   -8.5155 O   0  0  0  0  0  0  0  0  0  0  0  0
  -10.8420   -5.0347   -6.5602 C   0  0  2  0  0  0  0  0  0  0  0  0
   -9.6231   -5.9211   -6.8371 C   0  0  1  0  0  0  0  0  0  0  0  0
  -10.0514   -7.3245   -7.2666 C   0  0  0  0  0  0  0  0  0  0  0  0
  -11.0134   -7.8856   -6.2319 C   0  0  1  0  0  0  0  0  0  0  0  0
  -12.2096   -6.9581   -6.1074 C   0  0  1  0  0  0  0  0  0  0  0  0
  -13.2127   -7.4694   -5.0893 C   0  0  0  0  0  0  0  0  0  0  0  0
   -8.7936   -5.3040   -7.9210 N   0  3  0  0  0  0  0  0  0  0  0  0
  -14.3074   -6.4457   -4.9601 N   0  3  0  0  0  0  0  0  0  0  0  0
  -11.4441   -9.1850   -6.6112 O   0  0  0  0  0  0  0  0  0  0  0  0
  -11.7629   -5.6621   -5.6742 O   0  0  0  0  0  0  0  0  0  0  0  0
  1  2  1  0  0  0  0
  1 22  1  6  0  0  0
  1 10  1  0  0  0  0
  2  3  1  0  0  0  0
  2  7  1  6  0  0  0
  3  4  1  0  0  0  0
  3  8  1  1  0  0  0
  4  5  1  0  0  0  0
  4  9  1  6  0  0  0
  5  6  1  1  0  0  0
  5 10  1  0  0  0  0
  6 11  1  0  0  0  0
 12 13  1  0  0  0  0
 12 17  1  0  0  0  0
 12 18  1  1  0  0  0
 13 14  1  0  0  0  0
 14 15  1  0  0  0  0
 14 19  1  1  0  0  0
 15 16  1  0  0  0  0
 15 21  1  6  0  0  0
 16 17  1  0  0  0  0
 16 20  1  1  0  0  0
 17 22  1  6  0  0  0
 23 21  1  6  0  0  0
 23 24  1  0  0  0  0
 23 32  1  0  0  0  0
 24 25  1  0  0  0  0
 24 29  1  6  0  0  0
 25 26  1  0  0  0  0
 26 27  1  0  0  0  0
 26 31  1  6  0  0  0
 27 28  1  1  0  0  0
 27 32  1  0  0  0  0
 28 30  1  0  0  0  0
M  CHG  5   8   1  18   1  19   1  29   1  30   1
M  END
>  <CHROM.1>
-148.19876956,72.20350938,-33.83352165,69.68901189,-46.38985871,71.10744883
-124.90941227,-48.65415091,-160.37445942,-57.15857380,148.97730326,-135.42263573
53.83806308,-57.43398631,175.97905197,-162.27440221,-10.03660309,-2.69129188
-7.87732857,1.05053421,0.13448765,-0.26035437

>  <Name>
2tob cryst

>  <RI>
2.9538e+07

>  <Rbt.Current_Directory>
/home/itssahil/PROJECTS/Mol_Feturizer/New_Systems/rnas/2tob

>  <Rbt.Executable>
rbdock ($Id: //depot/dev/client3/rdock/2013.1/src/exe/rbdock.cxx#4 $)

>  <Rbt.Library>
libRbt.so (2013.1, Build901 2013/11/27)

>  <Rbt.Parameter_File>
/export/apps/rDock/src/rDock_2013.1_src/data/scripts/dock_solv.prm

>  <Rbt.Receptor>
prm/pocket_docking_2.prm

>  <SCORE>
-66.4497

>  <SCORE.INTER>
-50.3901

>  <SCORE.INTER.CONST>
1

>  <SCORE.INTER.POLAR>
-6.88016

>  <SCORE.INTER.ROT>
6

>  <SCORE.INTER.SOLV>
40.145

>  <SCORE.INTER.VDW>
-31.6412

>  <SCORE.INTER.norm>
-1.57469

>  <SCORE.INTRA>
-16.1307

>  <SCORE.INTRA.DIHEDRAL>
5.70305

>  <SCORE.INTRA.DIHEDRAL.0>
18.4221

>  <SCORE.INTRA.POLAR>
0.535951

>  <SCORE.INTRA.POLAR.0>
-1.57101

>  <SCORE.INTRA.REPUL>
-0.730195

>  <SCORE.INTRA.REPUL.0>
0.730195

>  <SCORE.INTRA.SOLV>
-5.90922

>  <SCORE.INTRA.SOLV.lig_0>
-127.221

>  <SCORE.INTRA.VDW>
-14.1989

>  <SCORE.INTRA.VDW.0>
10.8385

>  <SCORE.INTRA.norm>
-0.504084

>  <SCORE.RESTR>
0.0711193

>  <SCORE.RESTR.CAVITY>
0.0711193

>  <SCORE.RESTR.norm>
0.00222248

>  <SCORE.SYSTEM>
0

>  <SCORE.SYSTEM.CONST>
0

>  <SCORE.SYSTEM.DIHEDRAL>
0

>  <SCORE.SYSTEM.SOLV>
0

>  <SCORE.SYSTEM.norm>
0

>  <SCORE.heavy>
32

>  <SCORE.norm>
-2.07655

>  <RMSD>
0.778

$$$$
2tob cryst
 OpenBabel11021811463D
libRbt.so/2013.1/901 2013/11/27
 32 34  0  0  0  0  0  0  0  0999 V2000
   -8.0876    0.5549   -7.7646 C   0  0  2  0  0  0  0  0  0  0  0  0
   -7.4376    1.8243   -8.3059 C   0  0  1  0  0  0  0  0  0  0  0  0
   -6.8217    1.5221   -9.6722 C   0  0  2  0  0  0  0  0  0  0  0  0
   -5.8483    0.3393   -9.5832 C   0  0  1  0  0  0  0  0  0  0  0  0
   -6.5355   -0.8555   -8.9131 C   0  0  1  0  0  0  0  0  0  0  0  0
   -5.6169   -2.0358   -8.6424 C   0  0  0  0  0  0  0  0  0  0  0  0
   -8.4132    2.8554   -8.4327 O   0  0  0  0  0  0  0  0  0  0  0  0
   -6.1132    2.6389  -10.3740 N   0  3  0  0  0  0  0  0  0  0  0  0
   -5.4310   -0.0158  -10.8955 O   0  0  0  0  0  0  0  0  0  0  0  0
   -7.0998   -0.4519   -7.6494 O   0  0  0  0  0  0  0  0  0  0  0  0
   -6.3552   -3.1508   -8.1531 O   0  0  0  0  0  0  0  0  0  0  0  0
  -11.4897   -0.0600   -8.9388 C   0  0  2  0  0  0  0  0  0  0  0  0
  -12.7545   -0.8804   -8.6519 C   0  0  0  0  0  0  0  0  0  0  0  0
  -12.4830   -2.3822   -8.6631 C   0  0  1  0  0  0  0  0  0  0  0  0
  -11.3949   -2.6822   -7.6414 C   0  0  2  0  0  0  0  0  0  0  0  0
  -10.0959   -1.9901   -8.0619 C   0  0  1  0  0  0  0  0  0  0  0  0
  -10.2800   -0.4625   -8.0806 C   0  0  1  0  0  0  0  0  0  0  0  0
  -11.7560    1.4057   -8.7488 N   0  3  0  0  0  0  0  0  0  0  0  0
  -13.7336   -3.1574   -8.3746 N   0  3  0  0  0  0  0  0  0  0  0  0
   -9.0570   -2.3501   -7.1602 O   0  0  0  0  0  0  0  0  0  0  0  0
  -11.1831   -4.1016   -7.5324 O   0  0  0  0  0  0  0  0  0  0  0  0
   -9.1078    0.1633   -8.6429 O   0  0  0  0  0  0  0  0  0  0  0  0
  -10.4522   -4.4704   -6.3955 C   0  0  2  0  0  0  0  0  0  0  0  0
   -9.3181   -5.4222   -6.7904 C   0  0  1  0  0  0  0  0  0  0  0  0
   -9.8584   -6.8159   -7.1120 C   0  0  0  0  0  0  0  0  0  0  0  0
  -10.7053   -7.2985   -5.9455 C   0  0  1  0  0  0  0  0  0  0  0  0
  -11.8344   -6.3113   -5.7060 C   0  0  1  0  0  0  0  0  0  0  0  0
  -12.7220   -6.7427   -4.5527 C   0  0  0  0  0  0  0  0  0  0  0  0
   -8.6063   -4.8789   -7.9911 N   0  3  0  0  0  0  0  0  0  0  0  0
  -11.9130   -6.6607   -3.2870 N   0  3  0  0  0  0  0  0  0  0  0  0
  -11.2371   -8.5867   -6.2207 O   0  0  0  0  0  0  0  0  0  0  0  0
  -11.2801   -5.0257   -5.3793 O   0  0  0  0  0  0  0  0  0  0  0  0
  1  2  1  0  0  0  0
  1 22  1  6  0  0  0
  1 10  1  0  0  0  0
  2  3  1  0  0  0  0
  2  7  1  6  0  0  0
  3  4  1  0  0  0  0
  3  8  1  1  0  0  0
  4  5  1  0  0  0  0
  4  9  1  6  0  0  0
  5  6  1  1  0  0  0
  5 10  1  0  0  0  0
  6 11  1  0  0  0  0
 12 13  1  0  0  0  0
 12 17  1  0  0  0  0
 12 18  1  1  0  0  0
 13 14  1  0  0  0  0
 14 15  1  0  0  0  0
 14 19  1  1  0  0  0
 15 16  1  0  0  0  0
 15 21  1  6  0  0  0
 16 17  1  0  0  0  0
 16 20  1  1  0  0  0
 17 22  1  6  0  0  0
 23 21  1  6  0  0  0
 23 24  1  0  0  0  0
 23 32  1  0  0  0  0
 24 25  1  0  0  0  0
 24 29  1  6  0  0  0
 25 26  1  0  0  0  0
 26 27  1  0  0  0  0
 26 31  1  6  0  0  0
 27 28  1  1  0  0  0
 27 32  1  0  0  0  0
 28 30  1  0  0  0  0
M  CHG  5   8   1  18   1  19   1  29   1  30   1
M  END
>  <CHROM.1>
-146.17989514,59.16439551,-74.76444618,77.72720370,-173.80275526,-109.43126808
41.41369485,67.15325461,-164.98365573,-62.57900343,147.01935852,-131.05310579
-68.72980991,172.97018170,66.93786045,170.65561424,-9.51817358,-2.35463800
-7.75309167,1.08465238,0.14906698,-0.35816218

>  <Name>
2tob cryst

>  <RI>
0

>  <Rbt.Current_Directory>
/home/itssahil/PROJECTS/Mol_Feturizer/New_Systems/rnas/2tob

>  <Rbt.Executable>
rbdock ($Id: //depot/dev/client3/rdock/2013.1/src/exe/rbdock.cxx#4 $)

>  <Rbt.Library>
libRbt.so (2013.1, Build901 2013/11/27)

>  <Rbt.Parameter_File>
/export/apps/rDock/src/rDock_2013.1_src/data/scripts/dock_solv.prm

>  <Rbt.Receptor>
prm/pocket_docking_5.prm

>  <SCORE>
-72.0565

>  <SCORE.INTER>
-57.2194

>  <SCORE.INTER.CONST>
1

>  <SCORE.INTER.POLAR>
-8.41163

>  <SCORE.INTER.ROT>
6

>  <SCORE.INTER.SOLV>
38.9464

>  <SCORE.INTER.VDW>
-30.6896

>  <SCORE.INTER.norm>
-1.78811

>  <SCORE.INTRA>
-14.9691

>  <SCORE.INTRA.DIHEDRAL>
8.27246

>  <SCORE.INTRA.DIHEDRAL.0>
18.4221

>  <SCORE.INTRA.POLAR>
0.00240552

>  <SCORE.INTRA.POLAR.0>
-1.57101

>  <SCORE.INTRA.REPUL>
-0.730195

>  <SCORE.INTRA.REPUL.0>
0.730195

>  <SCORE.INTRA.SOLV>
-1.29401

>  <SCORE.INTRA.SOLV.lig_0>
-127.221

>  <SCORE.INTRA.VDW>
-14.8155

>  <SCORE.INTRA.VDW.0>
10.8385

>  <SCORE.INTRA.norm>
-0.467784

>  <SCORE.RESTR>
0.131997

>  <SCORE.RESTR.CAVITY>
0.131997

>  <SCORE.RESTR.norm>
0.00412491

>  <SCORE.SYSTEM>
0

>  <SCORE.SYSTEM.CONST>
0

>  <SCORE.SYSTEM.DIHEDRAL>
0

>  <SCORE.SYSTEM.SOLV>
0

>  <SCORE.SYSTEM.norm>
0

>  <SCORE.heavy>
32

>  <SCORE.norm>
-2.25177

>  <RMSD>
0.799

$$$$
2tob cryst
 OpenBabel11021811463D
libRbt.so/2013.1/901 2013/11/27
 32 34  0  0  0  0  0  0  0  0999 V2000
   -8.4680   -0.2704   -7.4985 C   0  0  2  0  0  0  0  0  0  0  0  0
   -8.2738    1.2205   -7.7564 C   0  0  1  0  0  0  0  0  0  0  0  0
   -7.6372    1.4066   -9.1340 C   0  0  2  0  0  0  0  0  0  0  0  0
   -6.3354    0.6023   -9.2475 C   0  0  1  0  0  0  0  0  0  0  0  0
   -6.5847   -0.8567   -8.8500 C   0  0  1  0  0  0  0  0  0  0  0  0
   -5.3299   -1.7121   -8.7869 C   0  0  0  0  0  0  0  0  0  0  0  0
   -9.5304    1.8909   -7.7100 O   0  0  0  0  0  0  0  0  0  0  0  0
   -7.3440    2.8064   -9.5773 N   0  3  0  0  0  0  0  0  0  0  0  0
   -5.8685    0.6654  -10.5893 O   0  0  0  0  0  0  0  0  0  0  0  0
   -7.2079   -0.9121   -7.5512 O   0  0  0  0  0  0  0  0  0  0  0  0
   -5.6486   -3.0542   -8.4336 O   0  0  0  0  0  0  0  0  0  0  0  0
  -11.6888   -0.9414   -8.9789 C   0  0  2  0  0  0  0  0  0  0  0  0
  -12.9941   -1.7322   -8.8174 C   0  0  0  0  0  0  0  0  0  0  0  0
  -12.7601   -3.2403   -8.8282 C   0  0  1  0  0  0  0  0  0  0  0  0
  -11.7744   -3.5824   -7.7194 C   0  0  2  0  0  0  0  0  0  0  0  0
  -10.4265   -2.9189   -8.0129 C   0  0  1  0  0  0  0  0  0  0  0  0
  -10.5702   -1.3869   -8.0238 C   0  0  1  0  0  0  0  0  0  0  0  0
  -11.9343    0.5281   -8.7901 N   0  3  0  0  0  0  0  0  0  0  0  0
  -14.0502   -3.9864   -8.6632 N   0  3  0  0  0  0  0  0  0  0  0  0
   -9.4808   -3.3181   -7.0289 O   0  0  0  0  0  0  0  0  0  0  0  0
  -11.6085   -5.0082   -7.6143 O   0  0  0  0  0  0  0  0  0  0  0  0
   -9.3376   -0.7845   -8.4707 O   0  0  0  0  0  0  0  0  0  0  0  0
  -11.0383   -5.4150   -6.4011 C   0  0  2  0  0  0  0  0  0  0  0  0
   -9.8497   -6.3443   -6.6689 C   0  0  1  0  0  0  0  0  0  0  0  0
  -10.3242   -7.7281   -7.1131 C   0  0  0  0  0  0  0  0  0  0  0  0
  -11.3193   -8.2596   -6.0942 C   0  0  1  0  0  0  0  0  0  0  0  0
  -12.4818   -7.2892   -5.9783 C   0  0  1  0  0  0  0  0  0  0  0  0
  -13.5160   -7.7693   -4.9762 C   0  0  0  0  0  0  0  0  0  0  0  0
   -8.9843   -5.7515   -7.7382 N   0  3  0  0  0  0  0  0  0  0  0  0
  -14.4188   -8.7503   -5.6731 N   0  3  0  0  0  0  0  0  0  0  0  0
  -11.7930   -9.5398   -6.4877 O   0  0  0  0  0  0  0  0  0  0  0  0
  -11.9930   -6.0134   -5.5309 O   0  0  0  0  0  0  0  0  0  0  0  0
  1  2  1  0  0  0  0
  1 22  1  6  0  0  0
  1 10  1  0  0  0  0
  2  3  1  0  0  0  0
  2  7  1  6  0  0  0
  3  4  1  0  0  0  0
  3  8  1  1  0  0  0
  4  5  1  0  0  0  0
  4  9  1  6  0  0  0
  5  6  1  1  0  0  0
  5 10  1  0  0  0  0
  6 11  1  0  0  0  0
 12 13  1  0  0  0  0
 12 17  1  0  0  0  0
 12 18  1  1  0  0  0
 13 14  1  0  0  0  0
 14 15  1  0  0  0  0
 14 19  1  1  0  0  0
 15 16  1  0  0  0  0
 15 21  1  6  0  0  0
 16 17  1  0  0  0  0
 16 20  1  1  0  0  0
 17 22  1  6  0  0  0
 23 21  1  6  0  0  0
 23 24  1  0  0  0  0
 23 32  1  0  0  0  0
 24 25  1  0  0  0  0
 24 29  1  6  0  0  0
 25 26  1  0  0  0  0
 26 27  1  0  0  0  0
 26 31  1  6  0  0  0
 27 28  1  1  0  0  0
 27 32  1  0  0  0  0
 28 30  1  0  0  0  0
M  CHG  5   8   1  18   1  19   1  29   1  30   1
M  END
>  <CHROM.1>
-120.05623685,54.26349308,-35.39535561,72.78665207,-179.03665705,57.72224856
173.55428942,64.17970675,-162.62319219,-63.32820859,138.72443144,-128.92247575
44.58672656,157.67266525,-83.04663767,-76.71915687,-10.01831388,-3.04371961
-7.78228884,-1.05230727,-0.05954302,2.86753044

>  <Name>
2tob cryst

>  <RI>
2.9538e+07

>  <Rbt.Current_Directory>
/home/itssahil/PROJECTS/Mol_Feturizer/New_Systems/rnas/2tob

>  <Rbt.Executable>
rbdock ($Id: //depot/dev/client3/rdock/2013.1/src/exe/rbdock.cxx#4 $)

>  <Rbt.Library>
libRbt.so (2013.1, Build901 2013/11/27)

>  <Rbt.Parameter_File>
/export/apps/rDock/src/rDock_2013.1_src/data/scripts/dock_solv.prm

>  <Rbt.Receptor>
prm/pocket_docking_2.prm

>  <SCORE>
-64.928

>  <SCORE.INTER>
-47.6331

>  <SCORE.INTER.CONST>
1

>  <SCORE.INTER.POLAR>
-6.93017

>  <SCORE.INTER.ROT>
6

>  <SCORE.INTER.SOLV>
36.7175

>  <SCORE.INTER.VDW>
-28.494

>  <SCORE.INTER.norm>
-1.48854

>  <SCORE.INTRA>
-17.2949

>  <SCORE.INTRA.DIHEDRAL>
10.1634

>  <SCORE.INTRA.DIHEDRAL.0>
18.4221

>  <SCORE.INTRA.POLAR>
-0.753787

>  <SCORE.INTRA.POLAR.0>
-1.57101

>  <SCORE.INTRA.REPUL>
-0.730195

>  <SCORE.INTRA.REPUL.0>
0.730195

>  <SCORE.INTRA.SOLV>
-3.11667

>  <SCORE.INTRA.SOLV.lig_0>
-127.221

>  <SCORE.INTRA.VDW>
-14.6044

>  <SCORE.INTRA.VDW.0>
10.8385

>  <SCORE.INTRA.norm>
-0.540465

>  <SCORE.RESTR>
0

>  <SCORE.RESTR.CAVITY>
0

>  <SCORE.RESTR.norm>
0

>  <SCORE.SYSTEM>
0

>  <SCORE.SYSTEM.CONST>
0

>  <SCORE.SYSTEM.DIHEDRAL>
0

>  <SCORE.SYSTEM.SOLV>
0

>  <SCORE.SYSTEM.norm>
0

>  <SCORE.heavy>
32

>  <SCORE.norm>
-2.029

>  <RMSD>
0.819

$$$$
2tob cryst
 OpenBabel11021811463D
libRbt.so/2013.1/901 2013/11/27
 32 34  0  0  0  0  0  0  0  0999 V2000
   -8.1816    0.1970   -7.8005 C   0  0  2  0  0  0  0  0  0  0  0  0
   -7.6737    1.5484   -8.2931 C   0  0  1  0  0  0  0  0  0  0  0  0
   -6.9539    1.3511   -9.6275 C   0  0  2  0  0  0  0  0  0  0  0  0
   -5.8419    0.3016   -9.4986 C   0  0  1  0  0  0  0  0  0  0  0  0
   -6.4031   -0.9828   -8.8786 C   0  0  1  0  0  0  0  0  0  0  0  0
   -5.3552   -2.0399   -8.5711 C   0  0  0  0  0  0  0  0  0  0  0  0
   -8.7662    2.4478   -8.4616 O   0  0  0  0  0  0  0  0  0  0  0  0
   -6.3600    2.5614  -10.2788 N   0  3  0  0  0  0  0  0  0  0  0  0
   -5.3148    0.0254  -10.7902 O   0  0  0  0  0  0  0  0  0  0  0  0
   -7.0795   -0.6765   -7.6429 O   0  0  0  0  0  0  0  0  0  0  0  0
   -4.4855   -2.2297   -9.6826 O   0  0  0  0  0  0  0  0  0  0  0  0
  -11.4775   -0.4310   -9.0874 C   0  0  2  0  0  0  0  0  0  0  0  0
  -12.7731   -1.2265   -8.8787 C   0  0  0  0  0  0  0  0  0  0  0  0
  -12.5495   -2.7323   -8.9876 C   0  0  1  0  0  0  0  0  0  0  0  0
  -11.4914   -3.1365   -7.9701 C   0  0  2  0  0  0  0  0  0  0  0  0
  -10.1631   -2.4610   -8.3203 C   0  0  1  0  0  0  0  0  0  0  0  0
  -10.2980   -0.9303   -8.2380 C   0  0  1  0  0  0  0  0  0  0  0  0
  -11.7005    1.0266   -8.8026 N   0  3  0  0  0  0  0  0  0  0  0  0
  -13.8295   -3.4834   -8.7739 N   0  3  0  0  0  0  0  0  0  0  0  0
   -9.1538   -2.9153   -7.4275 O   0  0  0  0  0  0  0  0  0  0  0  0
  -11.3271   -4.5663   -7.9544 O   0  0  0  0  0  0  0  0  0  0  0  0
   -9.0958   -0.3072   -8.7363 O   0  0  0  0  0  0  0  0  0  0  0  0
  -11.2083   -5.0995   -6.6644 C   0  0  2  0  0  0  0  0  0  0  0  0
  -10.2623   -6.3047   -6.6831 C   0  0  1  0  0  0  0  0  0  0  0  0
  -10.9372   -7.5223   -7.3152 C   0  0  0  0  0  0  0  0  0  0  0  0
  -12.2608   -7.7742   -6.6114 C   0  0  1  0  0  0  0  0  0  0  0  0
  -13.1332   -6.5367   -6.7304 C   0  0  1  0  0  0  0  0  0  0  0  0
  -14.4761   -6.7289   -6.0494 C   0  0  0  0  0  0  0  0  0  0  0  0
   -9.0315   -5.9606   -7.4643 N   0  3  0  0  0  0  0  0  0  0  0  0
  -15.2704   -7.7181   -6.8579 N   0  3  0  0  0  0  0  0  0  0  0  0
  -12.9221   -8.8915   -7.1879 O   0  0  0  0  0  0  0  0  0  0  0  0
  -12.4727   -5.4272   -6.0982 O   0  0  0  0  0  0  0  0  0  0  0  0
  1  2  1  0  0  0  0
  1 22  1  6  0  0  0
  1 10  1  0  0  0  0
  2  3  1  0  0  0  0
  2  7  1  6  0  0  0
  3  4  1  0  0  0  0
  3  8  1  1  0  0  0
  4  5  1  0  0  0  0
  4  9  1  6  0  0  0
  5  6  1  1  0  0  0
  5 10  1  0  0  0  0
  6 11  1  0  0  0  0
 12 13  1  0  0  0  0
 12 17  1  0  0  0  0
 12 18  1  1  0  0  0
 13 14  1  0  0  0  0
 14 15  1  0  0  0  0
 14 19  1  1  0  0  0
 15 16  1  0  0  0  0
 15 21  1  6  0  0  0
 16 17  1  0  0  0  0
 16 20  1  1  0  0  0
 17 22  1  6  0  0  0
 23 21  1  6  0  0  0
 23 24  1  0  0  0  0
 23 32  1  0  0  0  0
 24 25  1  0  0  0  0
 24 29  1  6  0  0  0
 25 26  1  0  0  0  0
 26 27  1  0  0  0  0
 26 31  1  6  0  0  0
 27 28  1  1  0  0  0
 27 32  1  0  0  0  0
 28 30  1  0  0  0  0
M  CHG  5   8   1  18   1  19   1  29   1  30   1
M  END
>  <CHROM.1>
-137.95453858,179.52773635,-71.49246213,-176.21641425,-47.57493675,165.58246142
51.73294742,-162.44334432,-137.73890022,-59.73751594,136.34088558,-146.13126008
35.68108332,67.44157766,-69.82291937,46.22466172,-9.92910134,-2.70601121
-8.15633818,0.89808563,0.10028232,-0.22258920

>  <Name>
2tob cryst

>  <RI>
0

>  <Rbt.Current_Directory>
/home/itssahil/PROJECTS/Mol_Feturizer/New_Systems/rnas/2tob

>  <Rbt.Executable>
rbdock ($Id: //depot/dev/client3/rdock/2013.1/src/exe/rbdock.cxx#4 $)

>  <Rbt.Library>
libRbt.so (2013.1, Build901 2013/11/27)

>  <Rbt.Parameter_File>
/export/apps/rDock/src/rDock_2013.1_src/data/scripts/dock_solv.prm

>  <Rbt.Receptor>
prm/pocket_docking_3.prm

>  <SCORE>
-78.3738

>  <SCORE.INTER>
-55.1391

>  <SCORE.INTER.CONST>
1

>  <SCORE.INTER.POLAR>
-7.71773

>  <SCORE.INTER.ROT>
6

>  <SCORE.INTER.SOLV>
37.139

>  <SCORE.INTER.VDW>
-31.0133

>  <SCORE.INTER.norm>
-1.7231

>  <SCORE.INTRA>
-23.2347

>  <SCORE.INTRA.DIHEDRAL>
8.56273

>  <SCORE.INTRA.DIHEDRAL.0>
18.4221

>  <SCORE.INTRA.POLAR>
-2.02277

>  <SCORE.INTRA.POLAR.0>
-1.57101

>  <SCORE.INTRA.REPUL>
-0.730195

>  <SCORE.INTRA.REPUL.0>
0.730195

>  <SCORE.INTRA.SOLV>
-2.93602

>  <SCORE.INTRA.SOLV.lig_0>
-127.221

>  <SCORE.INTRA.VDW>
-15.5196

>  <SCORE.INTRA.VDW.0>
10.8385

>  <SCORE.INTRA.norm>
-0.726083

>  <SCORE.RESTR>
0

>  <SCORE.RESTR.CAVITY>
0

>  <SCORE.RESTR.norm>
0

>  <SCORE.SYSTEM>
0

>  <SCORE.SYSTEM.CONST>
0

>  <SCORE.SYSTEM.DIHEDRAL>
0

>  <SCORE.SYSTEM.SOLV>
0

>  <SCORE.SYSTEM.norm>
0

>  <SCORE.heavy>
32

>  <SCORE.norm>
-2.44918

>  <RMSD>
0.849

$$$$
2tob cryst
 OpenBabel11021811463D
libRbt.so/2013.1/901 2013/11/27
 32 34  0  0  0  0  0  0  0  0999 V2000
   -9.1455    0.5304   -7.4227 C   0  0  2  0  0  0  0  0  0  0  0  0
   -8.5185    1.8294   -7.9191 C   0  0  1  0  0  0  0  0  0  0  0  0
   -7.7541    1.5482   -9.2130 C   0  0  2  0  0  0  0  0  0  0  0  0
   -6.7284    0.4254   -9.0086 C   0  0  1  0  0  0  0  0  0  0  0  0
   -7.4094   -0.7998   -8.3890 C   0  0  1  0  0  0  0  0  0  0  0  0
   -6.4564   -1.9213   -8.0093 C   0  0  0  0  0  0  0  0  0  0  0  0
   -9.5339    2.8002   -8.1587 O   0  0  0  0  0  0  0  0  0  0  0  0
   -7.0444    2.6966   -9.8607 N   0  3  0  0  0  0  0  0  0  0  0  0
   -6.1637    0.0804  -10.2673 O   0  0  0  0  0  0  0  0  0  0  0  0
   -8.1182   -0.4156   -7.1939 O   0  0  0  0  0  0  0  0  0  0  0  0
   -5.9386   -2.5615   -9.1711 O   0  0  0  0  0  0  0  0  0  0  0  0
  -12.3046   -0.6041   -8.9118 C   0  0  2  0  0  0  0  0  0  0  0  0
  -13.3985   -1.6708   -8.7684 C   0  0  0  0  0  0  0  0  0  0  0  0
  -12.8310   -3.0872   -8.8009 C   0  0  1  0  0  0  0  0  0  0  0  0
  -11.7950   -3.2160   -7.6926 C   0  0  2  0  0  0  0  0  0  0  0  0
  -10.6307   -2.2617   -7.9697 C   0  0  1  0  0  0  0  0  0  0  0  0
  -11.1156   -0.8013   -7.9582 C   0  0  1  0  0  0  0  0  0  0  0  0
  -12.8748    0.7693   -8.7021 N   0  3  0  0  0  0  0  0  0  0  0  0
  -13.9202   -4.1070   -8.6532 N   0  3  0  0  0  0  0  0  0  0  0  0
   -9.6206   -2.4532   -6.9874 O   0  0  0  0  0  0  0  0  0  0  0  0
  -11.3125   -4.5694   -7.6083 O   0  0  0  0  0  0  0  0  0  0  0  0
  -10.0497    0.0700   -8.3902 O   0  0  0  0  0  0  0  0  0  0  0  0
  -10.5730   -4.8261   -6.4464 C   0  0  2  0  0  0  0  0  0  0  0  0
   -9.4080   -5.7684   -6.7670 C   0  0  1  0  0  0  0  0  0  0  0  0
   -9.9024   -7.1993   -6.9806 C   0  0  0  0  0  0  0  0  0  0  0  0
  -10.7364   -7.6180   -5.7806 C   0  0  1  0  0  0  0  0  0  0  0  0
  -11.8972   -6.6522   -5.6178 C   0  0  1  0  0  0  0  0  0  0  0  0
  -12.7734   -7.0222   -4.4348 C   0  0  0  0  0  0  0  0  0  0  0  0
   -8.7109   -5.2961   -8.0058 N   0  3  0  0  0  0  0  0  0  0  0  0
  -13.4858   -8.3049   -4.7665 N   0  3  0  0  0  0  0  0  0  0  0  0
  -11.2258   -8.9400   -5.9562 O   0  0  0  0  0  0  0  0  0  0  0  0
  -11.3854   -5.3281   -5.3906 O   0  0  0  0  0  0  0  0  0  0  0  0
  1  2  1  0  0  0  0
  1 22  1  6  0  0  0
  1 10  1  0  0  0  0
  2  3  1  0  0  0  0
  2  7  1  6  0  0  0
  3  4  1  0  0  0  0
  3  8  1  1  0  0  0
  4  5  1  0  0  0  0
  4  9  1  6  0  0  0
  5  6  1  1  0  0  0
  5 10  1  0  0  0  0
  6 11  1  0  0  0  0
 12 13  1  0  0  0  0
 12 17  1  0  0  0  0
 12 18  1  1  0  0  0
 13 14  1  0  0  0  0
 14 15  1  0  0  0  0
 14 19  1  1  0  0  0
 15 16  1  0  0  0  0
 15 21  1  6  0  0  0
 16 17  1  0  0  0  0
 16 20  1  1  0  0  0
 17 22  1  6  0  0  0
 23 21  1  6  0  0  0
 23 24  1  0  0  0  0
 23 32  1  0  0  0  0
 24 25  1  0  0  0  0
 24 29  1  6  0  0  0
 25 26  1  0  0  0  0
 26 27  1  0  0  0  0
 26 31  1  6  0  0  0
 27 28  1  1  0  0  0
 27 32  1  0  0  0  0
 28 30  1  0  0  0  0
M  CHG  5   8   1  18   1  19   1  29   1  30   1
M  END
>  <CHROM.1>
-156.10597106,-101.65920546,-163.74410731,176.28865819,-70.89375605,-96.09482122
106.50538832,63.80406022,-167.51033668,93.51910087,151.77447351,-142.61681418
-138.81109068,-49.30762750,-68.88493699,-173.42340518,-10.07562965,-2.65323003
-7.68472673,1.15381020,0.08249475,-0.30961466

>  <Name>
2tob cryst

>  <RI>
0

>  <Rbt.Current_Directory>
/home/itssahil/PROJECTS/Mol_Feturizer/New_Systems/rnas/2tob

>  <Rbt.Executable>
rbdock ($Id: //depot/dev/client3/rdock/2013.1/src/exe/rbdock.cxx#4 $)

>  <Rbt.Library>
libRbt.so (2013.1, Build901 2013/11/27)

>  <Rbt.Parameter_File>
/export/apps/rDock/src/rDock_2013.1_src/data/scripts/dock_solv.prm

>  <Rbt.Receptor>
prm/pocket_docking_3.prm

>  <SCORE>
-56.4575

>  <SCORE.INTER>
-48.9479

>  <SCORE.INTER.CONST>
1

>  <SCORE.INTER.POLAR>
-7.4824

>  <SCORE.INTER.ROT>
6

>  <SCORE.INTER.SOLV>
40.6073

>  <SCORE.INTER.VDW>
-28.8264

>  <SCORE.INTER.norm>
-1.52962

>  <SCORE.INTRA>
-7.67894

>  <SCORE.INTRA.DIHEDRAL>
15.6654

>  <SCORE.INTRA.DIHEDRAL.0>
18.4221

>  <SCORE.INTRA.POLAR>
0.724292

>  <SCORE.INTRA.POLAR.0>
-1.57101

>  <SCORE.INTRA.REPUL>
-0.722978

>  <SCORE.INTRA.REPUL.0>
0.730195

>  <SCORE.INTRA.SOLV>
-4.15106

>  <SCORE.INTRA.SOLV.lig_0>
-127.221

>  <SCORE.INTRA.VDW>
-12.2838

>  <SCORE.INTRA.VDW.0>
10.8385

>  <SCORE.INTRA.norm>
-0.239967

>  <SCORE.RESTR>
0.169304

>  <SCORE.RESTR.CAVITY>
0.169304

>  <SCORE.RESTR.norm>
0.00529076

>  <SCORE.SYSTEM>
0

>  <SCORE.SYSTEM.CONST>
0

>  <SCORE.SYSTEM.DIHEDRAL>
0

>  <SCORE.SYSTEM.SOLV>
0

>  <SCORE.SYSTEM.norm>
0

>  <SCORE.heavy>
32

>  <SCORE.norm>
-1.7643

>  <RMSD>
0.875

$$$$
2tob cryst
 OpenBabel11021811463D
libRbt.so/2013.1/901 2013/11/27
 32 34  0  0  0  0  0  0  0  0999 V2000
   -8.9961    0.4257   -7.3391 C   0  0  2  0  0  0  0  0  0  0  0  0
   -8.2815    1.6715   -7.8533 C   0  0  1  0  0  0  0  0  0  0  0  0
   -7.4276    1.2896   -9.0627 C   0  0  2  0  0  0  0  0  0  0  0  0
   -6.4659    0.1461   -8.7134 C   0  0  1  0  0  0  0  0  0  0  0  0
   -7.2413   -1.0171   -8.0851 C   0  0  1  0  0  0  0  0  0  0  0  0
   -6.3659   -2.1465   -7.5673 C   0  0  0  0  0  0  0  0  0  0  0  0
   -9.2360    2.6609   -8.2285 O   0  0  0  0  0  0  0  0  0  0  0  0
   -6.6244    2.3733   -9.7124 N   0  3  0  0  0  0  0  0  0  0  0  0
   -5.8162   -0.2906   -9.9006 O   0  0  0  0  0  0  0  0  0  0  0  0
   -8.0278   -0.5400   -6.9751 O   0  0  0  0  0  0  0  0  0  0  0  0
   -5.7313   -2.8301   -8.6434 O   0  0  0  0  0  0  0  0  0  0  0  0
  -12.1157   -0.5686   -8.9508 C   0  0  2  0  0  0  0  0  0  0  0  0
  -13.2872   -1.5546   -8.8495 C   0  0  0  0  0  0  0  0  0  0  0  0
  -12.8216   -3.0079   -8.8699 C   0  0  1  0  0  0  0  0  0  0  0  0
  -11.8355   -3.2134   -7.7283 C   0  0  2  0  0  0  0  0  0  0  0  0
  -10.5972   -2.3441   -7.9614 C   0  0  1  0  0  0  0  0  0  0  0  0
  -10.9766   -0.8528   -7.9589 C   0  0  1  0  0  0  0  0  0  0  0  0
  -12.5931    0.8416   -8.7535 N   0  3  0  0  0  0  0  0  0  0  0  0
  -13.9852   -3.9475   -8.7639 N   0  3  0  0  0  0  0  0  0  0  0  0
   -9.6371   -2.6100   -6.9468 O   0  0  0  0  0  0  0  0  0  0  0  0
  -11.4540   -4.5980   -7.6346 O   0  0  0  0  0  0  0  0  0  0  0  0
   -9.8373   -0.0590   -8.3506 O   0  0  0  0  0  0  0  0  0  0  0  0
  -10.8098   -4.9186   -6.4325 C   0  0  2  0  0  0  0  0  0  0  0  0
   -9.6019   -5.8191   -6.7119 C   0  0  1  0  0  0  0  0  0  0  0  0
  -10.0456   -7.2406   -7.0582 C   0  0  0  0  0  0  0  0  0  0  0  0
  -10.9687   -7.7504   -5.9631 C   0  0  1  0  0  0  0  0  0  0  0  0
  -12.1595   -6.8161   -5.8387 C   0  0  1  0  0  0  0  0  0  0  0  0
  -13.1243   -7.2767   -4.7612 C   0  0  0  0  0  0  0  0  0  0  0  0
   -8.8131   -5.2555   -7.8537 N   0  3  0  0  0  0  0  0  0  0  0  0
  -14.3363   -6.3871   -4.8104 N   0  3  0  0  0  0  0  0  0  0  0  0
  -11.4130   -9.0656   -6.2642 O   0  0  0  0  0  0  0  0  0  0  0  0
  -11.6973   -5.5017   -5.4844 O   0  0  0  0  0  0  0  0  0  0  0  0
  1  2  1  0  0  0  0
  1 22  1  6  0  0  0
  1 10  1  0  0  0  0
  2  3  1  0  0  0  0
  2  7  1  6  0  0  0
  3  4  1  0  0  0  0
  3  8  1  1  0  0  0
  4  5  1  0  0  0  0
  4  9  1  6  0  0  0
  5  6  1  1  0  0  0
  5 10  1  0  0  0  0
  6 11  1  0  0  0  0
 12 13  1  0  0  0  0
 12 17  1  0  0  0  0
 12 18  1  1  0  0  0
 13 14  1  0  0  0  0
 14 15  1  0  0  0  0
 14 19  1  1  0  0  0
 15 16  1  0  0  0  0
 15 21  1  6  0  0  0
 16 17  1  0  0  0  0
 16 20  1  1  0  0  0
 17 22  1  6  0  0  0
 23 21  1  6  0  0  0
 23 24  1  0  0  0  0
 23 32  1  0  0  0  0
 24 25  1  0  0  0  0
 24 29  1  6  0  0  0
 25 26  1  0  0  0  0
 26 27  1  0  0  0  0
 26 31  1  6  0  0  0
 27 28  1  1  0  0  0
 27 32  1  0  0  0  0
 28 30  1  0  0  0  0
M  CHG  5   8   1  18   1  19   1  29   1  30   1
M  END
>  <CHROM.1>
-155.35216631,-176.48417445,169.12617657,-30.97783913,-68.09331895,-66.81009306
115.49354897,-166.96539500,-165.71221337,-149.88605257,146.62979569,-136.62251240
52.56034977,-58.65687629,-173.88830725,-53.68874135,-10.06482361,-2.68176963
-7.64587443,1.06673625,0.05693028,-0.29269308

>  <Name>
2tob cryst

>  <RI>
2.9538e+07

>  <Rbt.Current_Directory>
/home/itssahil/PROJECTS/Mol_Feturizer/New_Systems/rnas/2tob

>  <Rbt.Executable>
rbdock ($Id: //depot/dev/client3/rdock/2013.1/src/exe/rbdock.cxx#4 $)

>  <Rbt.Library>
libRbt.so (2013.1, Build901 2013/11/27)

>  <Rbt.Parameter_File>
/export/apps/rDock/src/rDock_2013.1_src/data/scripts/dock_solv.prm

>  <Rbt.Receptor>
prm/pocket_docking_2.prm

>  <SCORE>
-61.2809

>  <SCORE.INTER>
-46.3392

>  <SCORE.INTER.CONST>
1

>  <SCORE.INTER.POLAR>
-6.21385

>  <SCORE.INTER.ROT>
6

>  <SCORE.INTER.SOLV>
38.9682

>  <SCORE.INTER.VDW>
-30.7694

>  <SCORE.INTER.norm>
-1.4481

>  <SCORE.INTRA>
-15.0423

>  <SCORE.INTRA.DIHEDRAL>
7.41827

>  <SCORE.INTRA.DIHEDRAL.0>
18.4221

>  <SCORE.INTRA.POLAR>
0.0362039

>  <SCORE.INTRA.POLAR.0>
-1.57101

>  <SCORE.INTRA.REPUL>
-0.730195

>  <SCORE.INTRA.REPUL.0>
0.730195

>  <SCORE.INTRA.SOLV>
-5.87268

>  <SCORE.INTRA.SOLV.lig_0>
-127.221

>  <SCORE.INTRA.VDW>
-12.2872

>  <SCORE.INTRA.VDW.0>
10.8385

>  <SCORE.INTRA.norm>
-0.470072

>  <SCORE.RESTR>
0.100643

>  <SCORE.RESTR.CAVITY>
0.100643

>  <SCORE.RESTR.norm>
0.00314511

>  <SCORE.SYSTEM>
0

>  <SCORE.SYSTEM.CONST>
0

>  <SCORE.SYSTEM.DIHEDRAL>
0

>  <SCORE.SYSTEM.SOLV>
0

>  <SCORE.SYSTEM.norm>
0

>  <SCORE.heavy>
32

>  <SCORE.norm>
-1.91503

>  <RMSD>
0.890

$$$$
2tob cryst
 OpenBabel11021811463D
libRbt.so/2013.1/901 2013/11/27
 32 34  0  0  0  0  0  0  0  0999 V2000
   -8.5802   -0.2568   -7.5256 C   0  0  2  0  0  0  0  0  0  0  0  0
   -8.3647    1.2290   -7.7956 C   0  0  1  0  0  0  0  0  0  0  0  0
   -7.6937    1.3928   -9.1597 C   0  0  2  0  0  0  0  0  0  0  0  0
   -6.3978    0.5743   -9.2330 C   0  0  1  0  0  0  0  0  0  0  0  0
   -6.6714   -0.8774   -8.8250 C   0  0  1  0  0  0  0  0  0  0  0  0
   -5.4272   -1.7444   -8.7222 C   0  0  0  0  0  0  0  0  0  0  0  0
   -9.6152    1.9124   -7.7868 O   0  0  0  0  0  0  0  0  0  0  0  0
   -7.3758    2.7843   -9.6116 N   0  3  0  0  0  0  0  0  0  0  0  0
   -5.8986    0.6173  -10.5638 O   0  0  0  0  0  0  0  0  0  0  0  0
   -7.3257   -0.9115   -7.5409 O   0  0  0  0  0  0  0  0  0  0  0  0
   -5.7766   -3.1162   -8.5684 O   0  0  0  0  0  0  0  0  0  0  0  0
  -11.7711   -1.0300   -9.0339 C   0  0  2  0  0  0  0  0  0  0  0  0
  -13.0384   -1.8841   -8.8939 C   0  0  0  0  0  0  0  0  0  0  0  0
  -12.7340   -3.3791   -8.9334 C   0  0  1  0  0  0  0  0  0  0  0  0
  -11.7373   -3.6966   -7.8271 C   0  0  2  0  0  0  0  0  0  0  0  0
  -10.4209   -2.9652   -8.1015 C   0  0  1  0  0  0  0  0  0  0  0  0
  -10.6362   -1.4416   -8.0829 C   0  0  1  0  0  0  0  0  0  0  0  0
  -12.0858    0.4223   -8.8173 N   0  3  0  0  0  0  0  0  0  0  0  0
  -13.9883   -4.1878   -8.7888 N   0  3  0  0  0  0  0  0  0  0  0  0
   -9.4610   -3.3392   -7.1214 O   0  0  0  0  0  0  0  0  0  0  0  0
  -11.5052   -5.1149   -7.7495 O   0  0  0  0  0  0  0  0  0  0  0  0
   -9.4316   -0.7735   -8.5124 O   0  0  0  0  0  0  0  0  0  0  0  0
  -11.1702   -5.5553   -6.4624 C   0  0  2  0  0  0  0  0  0  0  0  0
  -10.0257   -6.5711   -6.5399 C   0  0  1  0  0  0  0  0  0  0  0  0
  -10.5227   -7.9190   -7.0632 C   0  0  0  0  0  0  0  0  0  0  0  0
  -11.7059   -8.3695   -6.2217 C   0  0  1  0  0  0  0  0  0  0  0  0
  -12.7972   -7.3154   -6.2896 C   0  0  1  0  0  0  0  0  0  0  0  0
  -14.0122   -7.7118   -5.4708 C   0  0  0  0  0  0  0  0  0  0  0  0
   -8.9575   -6.0503   -7.4517 N   0  3  0  0  0  0  0  0  0  0  0  0
  -14.7338   -8.8063   -6.2087 N   0  3  0  0  0  0  0  0  0  0  0  0
  -12.2028   -9.6137   -6.6941 O   0  0  0  0  0  0  0  0  0  0  0  0
  -12.2944   -6.0763   -5.7616 O   0  0  0  0  0  0  0  0  0  0  0  0
  1  2  1  0  0  0  0
  1 22  1  6  0  0  0
  1 10  1  0  0  0  0
  2  3  1  0  0  0  0
  2  7  1  6  0  0  0
  3  4  1  0  0  0  0
  3  8  1  1  0  0  0
  4  5  1  0  0  0  0
  4  9  1  6  0  0  0
  5  6  1  1  0  0  0
  5 10  1  0  0  0  0
  6 11  1  0  0  0  0
 12 13  1  0  0  0  0
 12 17  1  0  0  0  0
 12 18  1  1  0  0  0
 13 14  1  0  0  0  0
 14 15  1  0  0  0  0
 14 19  1  1  0  0  0
 15 16  1  0  0  0  0
 15 21  1  6  0  0  0
 16 17  1  0  0  0  0
 16 20  1  1  0  0  0
 17 22  1  6  0  0  0
 23 21  1  6  0  0  0
 23 24  1  0  0  0  0
 23 32  1  0  0  0  0
 24 25  1  0  0  0  0
 24 29  1  6  0  0  0
 25 26  1  0  0  0  0
 26 27  1  0  0  0  0
 26 31  1  6  0  0  0
 27 28  1  1  0  0  0
 27 32  1  0  0  0  0
 28 30  1  0  0  0  0
M  CHG  5   8   1  18   1  19   1  29   1  30   1
M  END
>  <CHROM.1>
-124.30156401,177.95403924,-155.33822440,168.65703573,-169.96748196,-82.62642868
131.55430754,56.56004468,-150.82069274,177.98414926,139.68755387,-137.46135608
163.86399441,48.28634128,-73.37784883,-66.77195737,-10.12726728,-3.11719337
-7.86798033,1.03647144,0.03655775,-0.25662331

>  <Name>
2tob cryst

>  <RI>
2.9538e+07

>  <Rbt.Current_Directory>
/home/itssahil/PROJECTS/Mol_Feturizer/New_Systems/rnas/2tob

>  <Rbt.Executable>
rbdock ($Id: //depot/dev/client3/rdock/2013.1/src/exe/rbdock.cxx#4 $)

>  <Rbt.Library>
libRbt.so (2013.1, Build901 2013/11/27)

>  <Rbt.Parameter_File>
/export/apps/rDock/src/rDock_2013.1_src/data/scripts/dock_solv.prm

>  <Rbt.Receptor>
prm/pocket_docking_2.prm

>  <SCORE>
-70.5326

>  <SCORE.INTER>
-50.7329

>  <SCORE.INTER.CONST>
1

>  <SCORE.INTER.POLAR>
-7.419

>  <SCORE.INTER.ROT>
6

>  <SCORE.INTER.SOLV>
36.807

>  <SCORE.INTER.VDW>
-28.9609

>  <SCORE.INTER.norm>
-1.5854

>  <SCORE.INTRA>
-19.7997

>  <SCORE.INTRA.DIHEDRAL>
13.1923

>  <SCORE.INTRA.DIHEDRAL.0>
18.4221

>  <SCORE.INTRA.POLAR>
-1.71063

>  <SCORE.INTRA.POLAR.0>
-1.57101

>  <SCORE.INTRA.REPUL>
-0.730195

>  <SCORE.INTRA.REPUL.0>
0.730195

>  <SCORE.INTRA.SOLV>
-3.83809

>  <SCORE.INTRA.SOLV.lig_0>
-127.221

>  <SCORE.INTRA.VDW>
-15.0097

>  <SCORE.INTRA.VDW.0>
10.8385

>  <SCORE.INTRA.norm>
-0.618741

>  <SCORE.RESTR>
0

>  <SCORE.RESTR.CAVITY>
0

>  <SCORE.RESTR.norm>
0

>  <SCORE.SYSTEM>
0

>  <SCORE.SYSTEM.CONST>
0

>  <SCORE.SYSTEM.DIHEDRAL>
0

>  <SCORE.SYSTEM.SOLV>
0

>  <SCORE.SYSTEM.norm>
0

>  <SCORE.heavy>
32

>  <SCORE.norm>
-2.20414

>  <RMSD>
0.923

$$$$
2tob cryst
 OpenBabel11021811463D
libRbt.so/2013.1/901 2013/11/27
 32 34  0  0  0  0  0  0  0  0999 V2000
   -8.9030   -0.0419   -7.4530 C   0  0  2  0  0  0  0  0  0  0  0  0
   -8.5148    1.3970   -7.7780 C   0  0  1  0  0  0  0  0  0  0  0  0
   -7.8074    1.4257   -9.1332 C   0  0  2  0  0  0  0  0  0  0  0  0
   -6.6126    0.4631   -9.1464 C   0  0  1  0  0  0  0  0  0  0  0  0
   -7.0568   -0.9297   -8.6862 C   0  0  1  0  0  0  0  0  0  0  0  0
   -5.9216   -1.9271   -8.5226 C   0  0  0  0  0  0  0  0  0  0  0  0
   -9.6789    2.2177   -7.8229 O   0  0  0  0  0  0  0  0  0  0  0  0
   -7.3253    2.7518   -9.6340 N   0  3  0  0  0  0  0  0  0  0  0  0
   -6.0902    0.3927  -10.4672 O   0  0  0  0  0  0  0  0  0  0  0  0
   -7.7315   -0.8349   -7.4157 O   0  0  0  0  0  0  0  0  0  0  0  0
   -6.4280   -3.2420   -8.3168 O   0  0  0  0  0  0  0  0  0  0  0  0
  -12.1077   -0.9311   -8.9470 C   0  0  2  0  0  0  0  0  0  0  0  0
  -13.3045   -1.8818   -8.8089 C   0  0  0  0  0  0  0  0  0  0  0  0
  -12.8859   -3.3484   -8.8656 C   0  0  1  0  0  0  0  0  0  0  0  0
  -11.8608   -3.5991   -7.7683 C   0  0  2  0  0  0  0  0  0  0  0  0
  -10.6065   -2.7655   -8.0423 C   0  0  1  0  0  0  0  0  0  0  0  0
  -10.9385   -1.2633   -8.0066 C   0  0  1  0  0  0  0  0  0  0  0  0
  -12.5322    0.4904   -8.7136 N   0  3  0  0  0  0  0  0  0  0  0  0
  -14.0732   -4.2529   -8.7225 N   0  3  0  0  0  0  0  0  0  0  0  0
   -9.6143   -3.0740   -7.0715 O   0  0  0  0  0  0  0  0  0  0  0  0
  -11.5194   -4.9959   -7.7067 O   0  0  0  0  0  0  0  0  0  0  0  0
   -9.7918   -0.5000   -8.4358 O   0  0  0  0  0  0  0  0  0  0  0  0
  -10.9809   -5.3842   -6.4730 C   0  0  2  0  0  0  0  0  0  0  0  0
   -9.7813   -6.3111   -6.6959 C   0  0  1  0  0  0  0  0  0  0  0  0
  -10.2372   -7.7029   -7.1348 C   0  0  0  0  0  0  0  0  0  0  0  0
  -11.2575   -8.2259   -6.1367 C   0  0  1  0  0  0  0  0  0  0  0  0
  -12.4271   -7.2597   -6.0655 C   0  0  1  0  0  0  0  0  0  0  0  0
  -13.4863   -7.7317   -5.0859 C   0  0  0  0  0  0  0  0  0  0  0  0
   -8.8895   -5.7282   -7.7487 N   0  3  0  0  0  0  0  0  0  0  0  0
  -14.6518   -6.7842   -5.1684 N   0  3  0  0  0  0  0  0  0  0  0  0
  -11.7145   -9.5133   -6.5261 O   0  0  0  0  0  0  0  0  0  0  0  0
  -11.9565   -5.9758   -5.6216 O   0  0  0  0  0  0  0  0  0  0  0  0
  1  2  1  0  0  0  0
  1 22  1  6  0  0  0
  1 10  1  0  0  0  0
  2  3  1  0  0  0  0
  2  7  1  6  0  0  0
  3  4  1  0  0  0  0
  3  8  1  1  0  0  0
  4  5  1  0  0  0  0
  4  9  1  6  0  0  0
  5  6  1  1  0  0  0
  5 10  1  0  0  0  0
  6 11  1  0  0  0  0
 12 13  1  0  0  0  0
 12 17  1  0  0  0  0
 12 18  1  1  0  0  0
 13 14  1  0  0  0  0
 14 15  1  0  0  0  0
 14 19  1  1  0  0  0
 15 16  1  0  0  0  0
 15 21  1  6  0  0  0
 16 17  1  0  0  0  0
 16 20  1  1  0  0  0
 17 22  1  6  0  0  0
 23 21  1  6  0  0  0
 23 24  1  0  0  0  0
 23 32  1  0  0  0  0
 24 25  1  0  0  0  0
 24 29  1  6  0  0  0
 25 26  1  0  0  0  0
 26 27  1  0  0  0  0
 26 31  1  6  0  0  0
 27 28  1  1  0  0  0
 27 32  1  0  0  0  0
 28 30  1  0  0  0  0
M  CHG  5   8   1  18   1  19   1  29   1  30   1
M  END
>  <CHROM.1>
-137.25928627,44.67822069,-152.12528478,178.59664061,-170.15244566,-87.61452138
-122.14413796,-50.93587124,-158.54325996,-170.07208793,145.92919118,-137.01747215
164.84659455,56.57351401,-175.16472141,-177.49161169,-10.20435297,-2.96117645
-7.76010558,1.08004379,0.07975967,-0.26310761

>  <Name>
2tob cryst

>  <RI>
2.9538e+07

>  <Rbt.Current_Directory>
/home/itssahil/PROJECTS/Mol_Feturizer/New_Systems/rnas/2tob

>  <Rbt.Executable>
rbdock ($Id: //depot/dev/client3/rdock/2013.1/src/exe/rbdock.cxx#4 $)

>  <Rbt.Library>
libRbt.so (2013.1, Build901 2013/11/27)

>  <Rbt.Parameter_File>
/export/apps/rDock/src/rDock_2013.1_src/data/scripts/dock_solv.prm

>  <Rbt.Receptor>
prm/pocket_docking_2.prm

>  <SCORE>
-71.5129

>  <SCORE.INTER>
-55.691

>  <SCORE.INTER.CONST>
1

>  <SCORE.INTER.POLAR>
-8.34117

>  <SCORE.INTER.ROT>
6

>  <SCORE.INTER.SOLV>
38.4844

>  <SCORE.INTER.VDW>
-29.7515

>  <SCORE.INTER.norm>
-1.74034

>  <SCORE.INTRA>
-15.8447

>  <SCORE.INTRA.DIHEDRAL>
10.7614

>  <SCORE.INTRA.DIHEDRAL.0>
18.4221

>  <SCORE.INTRA.POLAR>
-0.124304

>  <SCORE.INTRA.POLAR.0>
-1.57101

>  <SCORE.INTRA.REPUL>
-0.730195

>  <SCORE.INTRA.REPUL.0>
0.730195

>  <SCORE.INTRA.SOLV>
-5.30817

>  <SCORE.INTRA.SOLV.lig_0>
-127.221

>  <SCORE.INTRA.VDW>
-14.4977

>  <SCORE.INTRA.VDW.0>
10.8385

>  <SCORE.INTRA.norm>
-0.495146

>  <SCORE.RESTR>
0.0227255

>  <SCORE.RESTR.CAVITY>
0.0227255

>  <SCORE.RESTR.norm>
0.000710173

>  <SCORE.SYSTEM>
0

>  <SCORE.SYSTEM.CONST>
0

>  <SCORE.SYSTEM.DIHEDRAL>
0

>  <SCORE.SYSTEM.SOLV>
0

>  <SCORE.SYSTEM.norm>
0

>  <SCORE.heavy>
32

>  <SCORE.norm>
-2.23478

>  <RMSD>
0.925

$$$$
2tob cryst
 OpenBabel11021811463D
libRbt.so/2013.1/901 2013/11/27
 32 34  0  0  0  0  0  0  0  0999 V2000
   -8.0882    0.3049   -7.8001 C   0  0  2  0  0  0  0  0  0  0  0  0
   -7.5212    1.6308   -8.2977 C   0  0  1  0  0  0  0  0  0  0  0  0
   -6.8395    1.4032   -9.6472 C   0  0  2  0  0  0  0  0  0  0  0  0
   -5.7808    0.2972   -9.5450 C   0  0  1  0  0  0  0  0  0  0  0  0
   -6.3950   -0.9596   -8.9188 C   0  0  1  0  0  0  0  0  0  0  0  0
   -5.3970   -2.0708   -8.6369 C   0  0  0  0  0  0  0  0  0  0  0  0
   -8.5690    2.5861   -8.4403 O   0  0  0  0  0  0  0  0  0  0  0  0
   -6.1972    2.5846  -10.3057 N   0  3  0  0  0  0  0  0  0  0  0  0
   -5.2948    0.0007  -10.8482 O   0  0  0  0  0  0  0  0  0  0  0  0
   -7.0297   -0.6250   -7.6684 O   0  0  0  0  0  0  0  0  0  0  0  0
   -6.0660   -3.3072   -8.4098 O   0  0  0  0  0  0  0  0  0  0  0  0
  -11.4264   -0.3111   -9.0610 C   0  0  2  0  0  0  0  0  0  0  0  0
  -12.7115   -1.1164   -8.8257 C   0  0  0  0  0  0  0  0  0  0  0  0
  -12.4689   -2.6218   -8.8901 C   0  0  1  0  0  0  0  0  0  0  0  0
  -11.4039   -2.9821   -7.8635 C   0  0  2  0  0  0  0  0  0  0  0  0
  -10.0850   -2.3006   -8.2366 C   0  0  1  0  0  0  0  0  0  0  0  0
  -10.2391   -0.7700   -8.1998 C   0  0  1  0  0  0  0  0  0  0  0  0
  -11.6674    1.1514   -8.8192 N   0  3  0  0  0  0  0  0  0  0  0  0
  -13.7389   -3.3823   -8.6513 N   0  3  0  0  0  0  0  0  0  0  0  0
   -9.0683   -2.7153   -7.3331 O   0  0  0  0  0  0  0  0  0  0  0  0
  -11.2215   -4.4085   -7.8056 O   0  0  0  0  0  0  0  0  0  0  0  0
   -9.0459   -0.1469   -8.7191 O   0  0  0  0  0  0  0  0  0  0  0  0
  -11.2633   -4.9233   -6.5033 C   0  0  2  0  0  0  0  0  0  0  0  0
  -10.4955   -6.2480   -6.4410 C   0  0  1  0  0  0  0  0  0  0  0  0
  -11.2906   -7.3747   -7.1012 C   0  0  0  0  0  0  0  0  0  0  0  0
  -12.6798   -7.4249   -6.4861 C   0  0  1  0  0  0  0  0  0  0  0  0
  -13.3613   -6.0817   -6.6812 C   0  0  1  0  0  0  0  0  0  0  0  0
  -14.7597   -6.0707   -6.0910 C   0  0  0  0  0  0  0  0  0  0  0  0
   -9.1801   -6.0953   -7.1409 N   0  3  0  0  0  0  0  0  0  0  0  0
  -15.6378   -6.9303   -6.9588 N   0  3  0  0  0  0  0  0  0  0  0  0
  -13.4512   -8.4530   -7.0912 O   0  0  0  0  0  0  0  0  0  0  0  0
  -12.5955   -5.0600   -6.0205 O   0  0  0  0  0  0  0  0  0  0  0  0
  1  2  1  0  0  0  0
  1 22  1  6  0  0  0
  1 10  1  0  0  0  0
  2  3  1  0  0  0  0
  2  7  1  6  0  0  0
  3  4  1  0  0  0  0
  3  8  1  1  0  0  0
  4  5  1  0  0  0  0
  4  9  1  6  0  0  0
  5  6  1  1  0  0  0
  5 10  1  0  0  0  0
  6 11  1  0  0  0  0
 12 13  1  0  0  0  0
 12 17  1  0  0  0  0
 12 18  1  1  0  0  0
 13 14  1  0  0  0  0
 14 15  1  0  0  0  0
 14 19  1  1  0  0  0
 15 16  1  0  0  0  0
 15 21  1  6  0  0  0
 16 17  1  0  0  0  0
 16 20  1  1  0  0  0
 17 22  1  6  0  0  0
 23 21  1  6  0  0  0
 23 24  1  0  0  0  0
 23 32  1  0  0  0  0
 24 25  1  0  0  0  0
 24 29  1  6  0  0  0
 25 26  1  0  0  0  0
 26 27  1  0  0  0  0
 26 31  1  6  0  0  0
 27 28  1  1  0  0  0
 27 32  1  0  0  0  0
 28 30  1  0  0  0  0
M  CHG  5   8   1  18   1  19   1  29   1  30   1
M  END
>  <CHROM.1>
-140.96572215,65.46538718,44.98712520,-178.86355401,-164.06267092,67.04020799
-68.39008457,-179.32852171,-130.09875460,-62.20993787,141.12805536,-155.74129381
162.24847038,-51.31717471,-71.27056580,49.72152184,-10.02703241,-2.57785970
-8.06174300,0.87463543,0.07577542,-0.25025053

>  <Name>
2tob cryst

>  <RI>
0

>  <Rbt.Current_Directory>
/home/itssahil/PROJECTS/Mol_Feturizer/New_Systems/rnas/2tob

>  <Rbt.Executable>
rbdock ($Id: //depot/dev/client3/rdock/2013.1/src/exe/rbdock.cxx#4 $)

>  <Rbt.Library>
libRbt.so (2013.1, Build901 2013/11/27)

>  <Rbt.Parameter_File>
/export/apps/rDock/src/rDock_2013.1_src/data/scripts/dock_solv.prm

>  <Rbt.Receptor>
prm/pocket_docking_5.prm

>  <SCORE>
-68.2272

>  <SCORE.INTER>
-52.3592

>  <SCORE.INTER.CONST>
1

>  <SCORE.INTER.POLAR>
-7.03652

>  <SCORE.INTER.ROT>
6

>  <SCORE.INTER.SOLV>
36.4629

>  <SCORE.INTER.VDW>
-31.2054

>  <SCORE.INTER.norm>
-1.63622

>  <SCORE.INTRA>
-16.088

>  <SCORE.INTRA.DIHEDRAL>
5.19546

>  <SCORE.INTRA.DIHEDRAL.0>
18.4221

>  <SCORE.INTRA.POLAR>
0.806617

>  <SCORE.INTRA.POLAR.0>
-1.57101

>  <SCORE.INTRA.REPUL>
-0.730195

>  <SCORE.INTRA.REPUL.0>
0.730195

>  <SCORE.INTRA.SOLV>
-3.05562

>  <SCORE.INTRA.SOLV.lig_0>
-127.221

>  <SCORE.INTRA.VDW>
-16.2494

>  <SCORE.INTRA.VDW.0>
10.8385

>  <SCORE.INTRA.norm>
-0.502749

>  <SCORE.RESTR>
0.219946

>  <SCORE.RESTR.CAVITY>
0.219946

>  <SCORE.RESTR.norm>
0.0068733

>  <SCORE.SYSTEM>
0

>  <SCORE.SYSTEM.CONST>
0

>  <SCORE.SYSTEM.DIHEDRAL>
0

>  <SCORE.SYSTEM.SOLV>
0

>  <SCORE.SYSTEM.norm>
0

>  <SCORE.heavy>
32

>  <SCORE.norm>
-2.1321

>  <RMSD>
0.949

$$$$
2tob cryst
 OpenBabel11021811463D
libRbt.so/2013.1/901 2013/11/27
 32 34  0  0  0  0  0  0  0  0999 V2000
   -8.7089   -0.1616   -7.5054 C   0  0  2  0  0  0  0  0  0  0  0  0
   -8.4555    1.3133   -7.8008 C   0  0  1  0  0  0  0  0  0  0  0  0
   -7.7653    1.4353   -9.1597 C   0  0  2  0  0  0  0  0  0  0  0  0
   -6.4883    0.5856   -9.2022 C   0  0  1  0  0  0  0  0  0  0  0  0
   -6.8005   -0.8513   -8.7702 C   0  0  1  0  0  0  0  0  0  0  0  0
   -5.5784   -1.7449   -8.6364 C   0  0  0  0  0  0  0  0  0  0  0  0
   -9.6895    2.0257   -7.8197 O   0  0  0  0  0  0  0  0  0  0  0  0
   -7.4096    2.8102   -9.6339 N   0  3  0  0  0  0  0  0  0  0  0  0
   -5.9730    0.5915  -10.5276 O   0  0  0  0  0  0  0  0  0  0  0  0
   -7.4701   -0.8456   -7.4935 O   0  0  0  0  0  0  0  0  0  0  0  0
   -5.9567   -3.0715   -8.2832 O   0  0  0  0  0  0  0  0  0  0  0  0
  -11.8972   -0.9811   -9.0029 C   0  0  2  0  0  0  0  0  0  0  0  0
  -13.1443   -1.8645   -8.8637 C   0  0  0  0  0  0  0  0  0  0  0  0
  -12.8068   -3.3519   -8.9189 C   0  0  1  0  0  0  0  0  0  0  0  0
  -11.7968   -3.6573   -7.8214 C   0  0  2  0  0  0  0  0  0  0  0  0
  -10.4987   -2.8941   -8.0964 C   0  0  1  0  0  0  0  0  0  0  0  0
  -10.7478   -1.3759   -8.0623 C   0  0  1  0  0  0  0  0  0  0  0  0
  -12.2430    0.4618   -8.7709 N   0  3  0  0  0  0  0  0  0  0  0  0
  -14.0419   -4.1898   -8.7748 N   0  3  0  0  0  0  0  0  0  0  0  0
   -9.5248   -3.2556   -7.1253 O   0  0  0  0  0  0  0  0  0  0  0  0
  -11.5326   -5.0707   -7.7584 O   0  0  0  0  0  0  0  0  0  0  0  0
   -9.5610   -0.6771   -8.4923 O   0  0  0  0  0  0  0  0  0  0  0  0
  -11.2511   -5.5280   -6.4645 C   0  0  2  0  0  0  0  0  0  0  0  0
  -10.1539   -6.5964   -6.5158 C   0  0  1  0  0  0  0  0  0  0  0  0
  -10.7002   -7.9187   -7.0547 C   0  0  0  0  0  0  0  0  0  0  0  0
  -11.9240   -8.3143   -6.2444 C   0  0  1  0  0  0  0  0  0  0  0  0
  -12.9627   -7.2100   -6.3370 C   0  0  1  0  0  0  0  0  0  0  0  0
  -14.2152   -7.5501   -5.5499 C   0  0  0  0  0  0  0  0  0  0  0  0
   -9.0398   -6.1251   -7.3992 N   0  3  0  0  0  0  0  0  0  0  0  0
  -15.0031   -8.5578   -6.3416 N   0  3  0  0  0  0  0  0  0  0  0  0
  -12.4667   -9.5331   -6.7322 O   0  0  0  0  0  0  0  0  0  0  0  0
  -12.4158   -5.9967   -5.7934 O   0  0  0  0  0  0  0  0  0  0  0  0
  1  2  1  0  0  0  0
  1 22  1  6  0  0  0
  1 10  1  0  0  0  0
  2  3  1  0  0  0  0
  2  7  1  6  0  0  0
  3  4  1  0  0  0  0
  3  8  1  1  0  0  0
  4  5  1  0  0  0  0
  4  9  1  6  0  0  0
  5  6  1  1  0  0  0
  5 10  1  0  0  0  0
  6 11  1  0  0  0  0
 12 13  1  0  0  0  0
 12 17  1  0  0  0  0
 12 18  1  1  0  0  0
 13 14  1  0  0  0  0
 14 15  1  0  0  0  0
 14 19  1  1  0  0  0
 15 16  1  0  0  0  0
 15 21  1  6  0  0  0
 16 17  1  0  0  0  0
 16 20  1  1  0  0  0
 17 22  1  6  0  0  0
 23 21  1  6  0  0  0
 23 24  1  0  0  0  0
 23 32  1  0  0  0  0
 24 25  1  0  0  0  0
 24 29  1  6  0  0  0
 25 26  1  0  0  0  0
 26 27  1  0  0  0  0
 26 31  1  6  0  0  0
 27 28  1  1  0  0  0
 27 32  1  0  0  0  0
 28 30  1  0  0  0  0
M  CHG  5   8   1  18   1  19   1  29   1  30   1
M  END
>  <CHROM.1>
-127.77766393,-179.93563361,-156.65894928,-179.06428422,-177.76287150,-158.43135723
16.02572859,66.10917812,-147.55849616,-173.62831523,140.27997533,-141.94263795
37.28579568,65.84395658,-76.17144503,54.33605559,-10.24683258,-3.06534487
-7.85538227,1.02728521,0.02613671,-0.25460022

>  <Name>
2tob cryst

>  <RI>
2.9538e+07

>  <Rbt.Current_Directory>
/home/itssahil/PROJECTS/Mol_Feturizer/New_Systems/rnas/2tob

>  <Rbt.Executable>
rbdock ($Id: //depot/dev/client3/rdock/2013.1/src/exe/rbdock.cxx#4 $)

>  <Rbt.Library>
libRbt.so (2013.1, Build901 2013/11/27)

>  <Rbt.Parameter_File>
/export/apps/rDock/src/rDock_2013.1_src/data/scripts/dock_solv.prm

>  <Rbt.Receptor>
prm/pocket_docking_2.prm

>  <SCORE>
-69.0624

>  <SCORE.INTER>
-48.3582

>  <SCORE.INTER.CONST>
1

>  <SCORE.INTER.POLAR>
-6.90363

>  <SCORE.INTER.ROT>
6

>  <SCORE.INTER.SOLV>
36.7831

>  <SCORE.INTER.VDW>
-29.0877

>  <SCORE.INTER.norm>
-1.51119

>  <SCORE.INTRA>
-20.7194

>  <SCORE.INTRA.DIHEDRAL>
11.7707

>  <SCORE.INTRA.DIHEDRAL.0>
18.4221

>  <SCORE.INTRA.POLAR>
-1.74447

>  <SCORE.INTRA.POLAR.0>
-1.57101

>  <SCORE.INTRA.REPUL>
-0.730195

>  <SCORE.INTRA.REPUL.0>
0.730195

>  <SCORE.INTRA.SOLV>
-4.16074

>  <SCORE.INTRA.SOLV.lig_0>
-127.221

>  <SCORE.INTRA.VDW>
-14.9422

>  <SCORE.INTRA.VDW.0>
10.8385

>  <SCORE.INTRA.norm>
-0.647481

>  <SCORE.RESTR>
0.0151261

>  <SCORE.RESTR.CAVITY>
0.0151261

>  <SCORE.RESTR.norm>
0.00047269

>  <SCORE.SYSTEM>
0

>  <SCORE.SYSTEM.CONST>
0

>  <SCORE.SYSTEM.DIHEDRAL>
0

>  <SCORE.SYSTEM.SOLV>
0

>  <SCORE.SYSTEM.norm>
0

>  <SCORE.heavy>
32

>  <SCORE.norm>
-2.1582

>  <RMSD>
0.963

$$$$
2tob cryst
 OpenBabel11021811463D
libRbt.so/2013.1/901 2013/11/27
 32 34  0  0  0  0  0  0  0  0999 V2000
   -8.6223    0.1582   -7.5994 C   0  0  2  0  0  0  0  0  0  0  0  0
   -8.0139    1.4992   -7.9978 C   0  0  1  0  0  0  0  0  0  0  0  0
   -7.3248    1.3475   -9.3541 C   0  0  2  0  0  0  0  0  0  0  0  0
   -6.2980    0.2077   -9.3209 C   0  0  1  0  0  0  0  0  0  0  0  0
   -6.9530   -1.0721   -8.7897 C   0  0  1  0  0  0  0  0  0  0  0  0
   -5.9890   -2.2279   -8.5782 C   0  0  0  0  0  0  0  0  0  0  0  0
   -9.0335    2.4912   -8.0818 O   0  0  0  0  0  0  0  0  0  0  0  0
   -6.6433    2.5535   -9.9225 N   0  3  0  0  0  0  0  0  0  0  0  0
   -5.8068   -0.0105  -10.6375 O   0  0  0  0  0  0  0  0  0  0  0  0
   -7.5912   -0.8081   -7.5243 O   0  0  0  0  0  0  0  0  0  0  0  0
   -6.6948   -3.4291   -8.2835 O   0  0  0  0  0  0  0  0  0  0  0  0
  -11.8860   -0.7107   -9.0504 C   0  0  2  0  0  0  0  0  0  0  0  0
  -13.0464   -1.7052   -8.9107 C   0  0  0  0  0  0  0  0  0  0  0  0
  -12.5758   -3.1552   -8.9854 C   0  0  1  0  0  0  0  0  0  0  0  0
  -11.5321   -3.3788   -7.8997 C   0  0  2  0  0  0  0  0  0  0  0  0
  -10.3113   -2.4980   -8.1769 C   0  0  1  0  0  0  0  0  0  0  0  0
  -10.6968   -1.0092   -8.1238 C   0  0  1  0  0  0  0  0  0  0  0  0
  -12.3592    0.6923   -8.7995 N   0  3  0  0  0  0  0  0  0  0  0  0
  -13.7283   -4.1033   -8.8404 N   0  3  0  0  0  0  0  0  0  0  0  0
   -9.2997   -2.7795   -7.2180 O   0  0  0  0  0  0  0  0  0  0  0  0
  -11.1400   -4.7630   -7.8547 O   0  0  0  0  0  0  0  0  0  0  0  0
   -9.5824   -0.2010   -8.5558 O   0  0  0  0  0  0  0  0  0  0  0  0
  -11.1428   -5.3012   -6.5613 C   0  0  2  0  0  0  0  0  0  0  0  0
  -10.3474   -6.6107   -6.5394 C   0  0  1  0  0  0  0  0  0  0  0  0
  -11.1341   -7.7418   -7.2023 C   0  0  0  0  0  0  0  0  0  0  0  0
  -12.5081   -7.8311   -6.5581 C   0  0  1  0  0  0  0  0  0  0  0  0
  -13.2205   -6.4989   -6.7143 C   0  0  1  0  0  0  0  0  0  0  0  0
  -14.6055   -6.5269   -6.0937 C   0  0  0  0  0  0  0  0  0  0  0  0
   -9.0510   -6.4190   -7.2649 N   0  3  0  0  0  0  0  0  0  0  0  0
  -14.4475   -6.7351   -4.6123 N   0  3  0  0  0  0  0  0  0  0  0  0
  -13.2719   -8.8640   -7.1647 O   0  0  0  0  0  0  0  0  0  0  0  0
  -12.4610   -5.4735   -6.0521 O   0  0  0  0  0  0  0  0  0  0  0  0
  1  2  1  0  0  0  0
  1 22  1  6  0  0  0
  1 10  1  0  0  0  0
  2  3  1  0  0  0  0
  2  7  1  6  0  0  0
  3  4  1  0  0  0  0
  3  8  1  1  0  0  0
  4  5  1  0  0  0  0
  4  9  1  6  0  0  0
  5  6  1  1  0  0  0
  5 10  1  0  0  0  0
  6 11  1  0  0  0  0
 12 13  1  0  0  0  0
 12 17  1  0  0  0  0
 12 18  1  1  0  0  0
 13 14  1  0  0  0  0
 14 15  1  0  0  0  0
 14 19  1  1  0  0  0
 15 16  1  0  0  0  0
 15 21  1  6  0  0  0
 16 17  1  0  0  0  0
 16 20  1  1  0  0  0
 17 22  1  6  0  0  0
 23 21  1  6  0  0  0
 23 24  1  0  0  0  0
 23 32  1  0  0  0  0
 24 25  1  0  0  0  0
 24 29  1  6  0  0  0
 25 26  1  0  0  0  0
 26 27  1  0  0  0  0
 26 31  1  6  0  0  0
 27 28  1  1  0  0  0
 27 32  1  0  0  0  0
 28 30  1  0  0  0  0
M  CHG  5   8   1  18   1  19   1  29   1  30   1
M  END
>  <CHROM.1>
-150.52422584,-55.15591127,-89.42569035,169.39570780,-171.09441340,-85.63484742
-7.94093549,172.91083253,-131.91914094,178.50883261,152.72511904,-163.76550676
45.25947221,-179.47781084,64.07274960,-173.06901133,-10.21952745,-2.83793753
-7.91428203,0.97101789,0.09544659,-0.24366504

>  <Name>
2tob cryst

>  <RI>
2.9538e+07

>  <Rbt.Current_Directory>
/home/itssahil/PROJECTS/Mol_Feturizer/New_Systems/rnas/2tob

>  <Rbt.Executable>
rbdock ($Id: //depot/dev/client3/rdock/2013.1/src/exe/rbdock.cxx#4 $)

>  <Rbt.Library>
libRbt.so (2013.1, Build901 2013/11/27)

>  <Rbt.Parameter_File>
/export/apps/rDock/src/rDock_2013.1_src/data/scripts/dock_solv.prm

>  <Rbt.Receptor>
prm/pocket_docking_2.prm

>  <SCORE>
-61.1751

>  <SCORE.INTER>
-47.3398

>  <SCORE.INTER.CONST>
1

>  <SCORE.INTER.POLAR>
-6.72382

>  <SCORE.INTER.ROT>
6

>  <SCORE.INTER.SOLV>
37.2685

>  <SCORE.INTER.VDW>
-29.17

>  <SCORE.INTER.norm>
-1.47937

>  <SCORE.INTRA>
-14.1265

>  <SCORE.INTRA.DIHEDRAL>
5.68749

>  <SCORE.INTRA.DIHEDRAL.0>
18.4221

>  <SCORE.INTRA.POLAR>
0.787176

>  <SCORE.INTRA.POLAR.0>
-1.57101

>  <SCORE.INTRA.REPUL>
-0.730195

>  <SCORE.INTRA.REPUL.0>
0.730195

>  <SCORE.INTRA.SOLV>
-3.47346

>  <SCORE.INTRA.SOLV.lig_0>
-127.221

>  <SCORE.INTRA.VDW>
-14.259

>  <SCORE.INTRA.VDW.0>
10.8385

>  <SCORE.INTRA.norm>
-0.441454

>  <SCORE.RESTR>
0.291315

>  <SCORE.RESTR.CAVITY>
0.291315

>  <SCORE.RESTR.norm>
0.00910359

>  <SCORE.SYSTEM>
0

>  <SCORE.SYSTEM.CONST>
0

>  <SCORE.SYSTEM.DIHEDRAL>
0

>  <SCORE.SYSTEM.SOLV>
0

>  <SCORE.SYSTEM.norm>
0

>  <SCORE.heavy>
32

>  <SCORE.norm>
-1.91172

>  <RMSD>
0.972

$$$$
2tob cryst
 OpenBabel11021811463D
libRbt.so/2013.1/901 2013/11/27
 32 34  0  0  0  0  0  0  0  0999 V2000
   -7.9424    0.1623   -7.6889 C   0  0  2  0  0  0  0  0  0  0  0  0
   -7.5401    1.5655   -8.1320 C   0  0  1  0  0  0  0  0  0  0  0  0
   -6.9459    1.4899   -9.5387 C   0  0  2  0  0  0  0  0  0  0  0  0
   -5.7850    0.4878   -9.5884 C   0  0  1  0  0  0  0  0  0  0  0  0
   -6.2306   -0.8593   -9.0092 C   0  0  1  0  0  0  0  0  0  0  0  0
   -5.1156   -1.8837   -8.8762 C   0  0  0  0  0  0  0  0  0  0  0  0
   -8.6794    2.4214   -8.1337 O   0  0  0  0  0  0  0  0  0  0  0  0
   -6.4678    2.7669  -10.1572 N   0  3  0  0  0  0  0  0  0  0  0  0
   -5.3752    0.3218  -10.9400 O   0  0  0  0  0  0  0  0  0  0  0  0
   -6.7956   -0.6667   -7.6970 O   0  0  0  0  0  0  0  0  0  0  0  0
   -5.5636   -3.0304   -8.1606 O   0  0  0  0  0  0  0  0  0  0  0  0
  -11.2986   -0.2166   -8.9560 C   0  0  2  0  0  0  0  0  0  0  0  0
  -12.6822   -0.8116   -8.6613 C   0  0  0  0  0  0  0  0  0  0  0  0
  -12.6411   -2.3318   -8.5328 C   0  0  1  0  0  0  0  0  0  0  0  0
  -11.6467   -2.6956   -7.4388 C   0  0  2  0  0  0  0  0  0  0  0  0
  -10.2442   -2.2442   -7.8540 C   0  0  1  0  0  0  0  0  0  0  0  0
  -10.1940   -0.7141   -8.0104 C   0  0  1  0  0  0  0  0  0  0  0  0
  -11.3462    1.2834   -8.9034 N   0  3  0  0  0  0  0  0  0  0  0  0
  -14.0038   -2.8842   -8.2396 N   0  3  0  0  0  0  0  0  0  0  0  0
   -9.3034   -2.6706   -6.8768 O   0  0  0  0  0  0  0  0  0  0  0  0
  -11.6562   -4.1149   -7.2003 O   0  0  0  0  0  0  0  0  0  0  0  0
   -8.9220   -0.3221   -8.5672 O   0  0  0  0  0  0  0  0  0  0  0  0
  -11.5860   -4.4524   -5.8424 C   0  0  2  0  0  0  0  0  0  0  0  0
  -10.5728   -5.5836   -5.6377 C   0  0  1  0  0  0  0  0  0  0  0  0
  -11.1365   -6.9196   -6.1222 C   0  0  0  0  0  0  0  0  0  0  0  0
  -12.4840   -7.1565   -5.4595 C   0  0  1  0  0  0  0  0  0  0  0  0
  -13.4172   -6.0080   -5.8012 C   0  0  1  0  0  0  0  0  0  0  0  0
  -14.7860   -6.1904   -5.1707 C   0  0  0  0  0  0  0  0  0  0  0  0
   -9.3184   -5.2726   -6.3949 N   0  3  0  0  0  0  0  0  0  0  0  0
  -15.3938   -7.4462   -5.7333 N   0  3  0  0  0  0  0  0  0  0  0  0
  -13.0433   -8.3847   -5.9028 O   0  0  0  0  0  0  0  0  0  0  0  0
  -12.8617   -4.7797   -5.3019 O   0  0  0  0  0  0  0  0  0  0  0  0
  1  2  1  0  0  0  0
  1 22  1  6  0  0  0
  1 10  1  0  0  0  0
  2  3  1  0  0  0  0
  2  7  1  6  0  0  0
  3  4  1  0  0  0  0
  3  8  1  1  0  0  0
  4  5  1  0  0  0  0
  4  9  1  6  0  0  0
  5  6  1  1  0  0  0
  5 10  1  0  0  0  0
  6 11  1  0  0  0  0
 12 13  1  0  0  0  0
 12 17  1  0  0  0  0
 12 18  1  1  0  0  0
 13 14  1  0  0  0  0
 14 15  1  0  0  0  0
 14 19  1  1  0  0  0
 15 16  1  0  0  0  0
 15 21  1  6  0  0  0
 16 17  1  0  0  0  0
 16 20  1  1  0  0  0
 17 22  1  6  0  0  0
 23 21  1  6  0  0  0
 23 24  1  0  0  0  0
 23 32  1  0  0  0  0
 24 25  1  0  0  0  0
 24 29  1  6  0  0  0
 25 26  1  0  0  0  0
 26 27  1  0  0  0  0
 26 31  1  6  0  0  0
 27 28  1  1  0  0  0
 27 32  1  0  0  0  0
 28 30  1  0  0  0  0
M  CHG  5   8   1  18   1  19   1  29   1  30   1
M  END
>  <CHROM.1>
-122.07968516,-170.80368950,-73.50951013,87.12821353,171.70830589,-169.79804980
55.17405459,-152.65382942,-138.88607237,-58.58391093,138.69496629,-135.02684204
44.35539017,-45.45397181,-62.11850620,-58.10073303,-10.02123338,-2.41053109
-7.65549859,-0.88228188,-0.08954036,2.78117761

>  <Name>
2tob cryst

>  <RI>
2.9538e+07

>  <Rbt.Current_Directory>
/home/itssahil/PROJECTS/Mol_Feturizer/New_Systems/rnas/2tob

>  <Rbt.Executable>
rbdock ($Id: //depot/dev/client3/rdock/2013.1/src/exe/rbdock.cxx#4 $)

>  <Rbt.Library>
libRbt.so (2013.1, Build901 2013/11/27)

>  <Rbt.Parameter_File>
/export/apps/rDock/src/rDock_2013.1_src/data/scripts/dock_solv.prm

>  <Rbt.Receptor>
prm/pocket_docking_2.prm

>  <SCORE>
-52.9475

>  <SCORE.INTER>
-39.7765

>  <SCORE.INTER.CONST>
1

>  <SCORE.INTER.POLAR>
-6.05637

>  <SCORE.INTER.ROT>
6

>  <SCORE.INTER.SOLV>
33.7659

>  <SCORE.INTER.VDW>
-25.1851

>  <SCORE.INTER.norm>
-1.24302

>  <SCORE.INTRA>
-14.2122

>  <SCORE.INTRA.DIHEDRAL>
13.9955

>  <SCORE.INTRA.DIHEDRAL.0>
18.4221

>  <SCORE.INTRA.POLAR>
-1.13212

>  <SCORE.INTRA.POLAR.0>
-1.57101

>  <SCORE.INTRA.REPUL>
-0.3382

>  <SCORE.INTRA.REPUL.0>
0.730195

>  <SCORE.INTRA.SOLV>
-1.40282

>  <SCORE.INTRA.SOLV.lig_0>
-127.221

>  <SCORE.INTRA.VDW>
-14.9683

>  <SCORE.INTRA.VDW.0>
10.8385

>  <SCORE.INTRA.norm>
-0.444131

>  <SCORE.RESTR>
1.04119

>  <SCORE.RESTR.CAVITY>
1.04119

>  <SCORE.RESTR.norm>
0.0325371

>  <SCORE.SYSTEM>
0

>  <SCORE.SYSTEM.CONST>
0

>  <SCORE.SYSTEM.DIHEDRAL>
0

>  <SCORE.SYSTEM.SOLV>
0

>  <SCORE.SYSTEM.norm>
0

>  <SCORE.heavy>
32

>  <SCORE.norm>
-1.65461

>  <RMSD>
1.059

$$$$
2tob cryst
 OpenBabel11021811463D
libRbt.so/2013.1/901 2013/11/27
 32 34  0  0  0  0  0  0  0  0999 V2000
   -9.2456   -0.0905   -7.2924 C   0  0  2  0  0  0  0  0  0  0  0  0
   -8.6594    1.2938   -7.5513 C   0  0  1  0  0  0  0  0  0  0  0  0
   -8.0008    1.3033   -8.9311 C   0  0  2  0  0  0  0  0  0  0  0  0
   -6.9628    0.1794   -9.0488 C   0  0  1  0  0  0  0  0  0  0  0  0
   -7.5929   -1.1596   -8.6500 C   0  0  1  0  0  0  0  0  0  0  0  0
   -6.6133   -2.3202   -8.5909 C   0  0  0  0  0  0  0  0  0  0  0  0
   -9.6901    2.2767   -7.5009 O   0  0  0  0  0  0  0  0  0  0  0  0
   -7.3443    2.5734   -9.3756 N   0  3  0  0  0  0  0  0  0  0  0  0
   -6.5005    0.1158  -10.3921 O   0  0  0  0  0  0  0  0  0  0  0  0
   -8.2039   -1.0466   -7.3492 O   0  0  0  0  0  0  0  0  0  0  0  0
   -5.9626   -2.3702   -7.3253 O   0  0  0  0  0  0  0  0  0  0  0  0
  -12.4734   -0.9514   -8.8890 C   0  0  2  0  0  0  0  0  0  0  0  0
  -13.6009   -1.9897   -8.8135 C   0  0  0  0  0  0  0  0  0  0  0  0
  -13.0713   -3.4205   -8.8537 C   0  0  1  0  0  0  0  0  0  0  0  0
  -12.0859   -3.6013   -7.7074 C   0  0  2  0  0  0  0  0  0  0  0  0
  -10.8855   -2.6745   -7.9161 C   0  0  1  0  0  0  0  0  0  0  0  0
  -11.3305   -1.2016   -7.8924 C   0  0  1  0  0  0  0  0  0  0  0  0
  -13.0141    0.4329   -8.6727 N   0  3  0  0  0  0  0  0  0  0  0  0
  -14.1931   -4.4121   -8.7728 N   0  3  0  0  0  0  0  0  0  0  0  0
   -9.9223   -2.9146   -6.8979 O   0  0  0  0  0  0  0  0  0  0  0  0
  -11.6443   -4.9691   -7.6331 O   0  0  0  0  0  0  0  0  0  0  0  0
  -10.2243   -0.3519   -8.2616 O   0  0  0  0  0  0  0  0  0  0  0  0
  -11.0639   -5.3013   -6.4021 C   0  0  2  0  0  0  0  0  0  0  0  0
   -9.8339   -6.1871   -6.6272 C   0  0  1  0  0  0  0  0  0  0  0  0
  -10.2444   -7.6073   -7.0172 C   0  0  0  0  0  0  0  0  0  0  0  0
  -11.2211   -8.1409   -5.9817 C   0  0  1  0  0  0  0  0  0  0  0  0
  -12.4259   -7.2190   -5.9099 C   0  0  1  0  0  0  0  0  0  0  0  0
  -13.4438   -7.7037   -4.8935 C   0  0  0  0  0  0  0  0  0  0  0  0
   -8.9892   -5.6001   -7.7160 N   0  3  0  0  0  0  0  0  0  0  0  0
  -14.7115   -8.0420   -5.6293 N   0  3  0  0  0  0  0  0  0  0  0  0
  -11.6357   -9.4556   -6.3251 O   0  0  0  0  0  0  0  0  0  0  0  0
  -11.9964   -5.9059   -5.5123 O   0  0  0  0  0  0  0  0  0  0  0  0
  1  2  1  0  0  0  0
  1 22  1  6  0  0  0
  1 10  1  0  0  0  0
  2  3  1  0  0  0  0
  2  7  1  6  0  0  0
  3  4  1  0  0  0  0
  3  8  1  1  0  0  0
  4  5  1  0  0  0  0
  4  9  1  6  0  0  0
  5  6  1  1  0  0  0
  5 10  1  0  0  0  0
  6 11  1  0  0  0  0
 12 13  1  0  0  0  0
 12 17  1  0  0  0  0
 12 18  1  1  0  0  0
 13 14  1  0  0  0  0
 14 15  1  0  0  0  0
 14 19  1  1  0  0  0
 15 16  1  0  0  0  0
 15 21  1  6  0  0  0
 16 17  1  0  0  0  0
 16 20  1  1  0  0  0
 17 22  1  6  0  0  0
 23 21  1  6  0  0  0
 23 24  1  0  0  0  0
 23 32  1  0  0  0  0
 24 25  1  0  0  0  0
 24 29  1  6  0  0  0
 25 26  1  0  0  0  0
 26 27  1  0  0  0  0
 26 31  1  6  0  0  0
 27 28  1  1  0  0  0
 27 32  1  0  0  0  0
 28 30  1  0  0  0  0
M  CHG  5   8   1  18   1  19   1  29   1  30   1
M  END
>  <CHROM.1>
-149.66791344,177.72151464,-40.21730119,157.98863090,85.10437554,-64.09806706
109.21195983,-58.04340612,-162.28581640,177.71963113,160.56422004,-139.15644035
167.51837474,174.10202412,-116.51795694,66.42974028,-10.38838737,-3.00290659
-7.64232674,1.09629005,0.00198563,-0.28334930

>  <Name>
2tob cryst

>  <RI>
2.9538e+07

>  <Rbt.Current_Directory>
/home/itssahil/PROJECTS/Mol_Feturizer/New_Systems/rnas/2tob

>  <Rbt.Executable>
rbdock ($Id: //depot/dev/client3/rdock/2013.1/src/exe/rbdock.cxx#4 $)

>  <Rbt.Library>
libRbt.so (2013.1, Build901 2013/11/27)

>  <Rbt.Parameter_File>
/export/apps/rDock/src/rDock_2013.1_src/data/scripts/dock_solv.prm

>  <Rbt.Receptor>
prm/pocket_docking_2.prm

>  <SCORE>
-57.5378

>  <SCORE.INTER>
-41.9028

>  <SCORE.INTER.CONST>
1

>  <SCORE.INTER.POLAR>
-6.2227

>  <SCORE.INTER.ROT>
6

>  <SCORE.INTER.SOLV>
38.9156

>  <SCORE.INTER.VDW>
-27.7647

>  <SCORE.INTER.norm>
-1.30946

>  <SCORE.INTRA>
-15.7175

>  <SCORE.INTRA.DIHEDRAL>
8.229

>  <SCORE.INTRA.DIHEDRAL.0>
18.4221

>  <SCORE.INTRA.POLAR>
0.117009

>  <SCORE.INTRA.POLAR.0>
-1.57101

>  <SCORE.INTRA.REPUL>
-0.730195

>  <SCORE.INTRA.REPUL.0>
0.730195

>  <SCORE.INTRA.SOLV>
-7.04936

>  <SCORE.INTRA.SOLV.lig_0>
-127.221

>  <SCORE.INTRA.VDW>
-13.0541

>  <SCORE.INTRA.VDW.0>
10.8385

>  <SCORE.INTRA.norm>
-0.491171

>  <SCORE.RESTR>
0.082467

>  <SCORE.RESTR.CAVITY>
0.082467

>  <SCORE.RESTR.norm>
0.00257709

>  <SCORE.SYSTEM>
0

>  <SCORE.SYSTEM.CONST>
0

>  <SCORE.SYSTEM.DIHEDRAL>
0

>  <SCORE.SYSTEM.SOLV>
0

>  <SCORE.SYSTEM.norm>
0

>  <SCORE.heavy>
32

>  <SCORE.norm>
-1.79806

>  <RMSD>
1.097

$$$$
2tob cryst
 OpenBabel11021811463D
libRbt.so/2013.1/901 2013/11/27
 32 34  0  0  0  0  0  0  0  0999 V2000
   -8.7034    0.2022   -7.5752 C   0  0  2  0  0  0  0  0  0  0  0  0
   -8.0666    1.5102   -8.0340 C   0  0  1  0  0  0  0  0  0  0  0  0
   -7.3411    1.2707   -9.3584 C   0  0  2  0  0  0  0  0  0  0  0  0
   -6.3305    0.1235   -9.2280 C   0  0  1  0  0  0  0  0  0  0  0  0
   -7.0167   -1.1151   -8.6417 C   0  0  1  0  0  0  0  0  0  0  0  0
   -6.0741   -2.2671   -8.3342 C   0  0  0  0  0  0  0  0  0  0  0  0
   -9.0705    2.5069   -8.2061 O   0  0  0  0  0  0  0  0  0  0  0  0
   -6.6283    2.4332   -9.9767 N   0  3  0  0  0  0  0  0  0  0  0  0
   -5.8048   -0.1779  -10.5145 O   0  0  0  0  0  0  0  0  0  0  0  0
   -7.6874   -0.7694   -7.4132 O   0  0  0  0  0  0  0  0  0  0  0  0
   -5.0666   -2.3784   -9.3344 O   0  0  0  0  0  0  0  0  0  0  0  0
  -11.9091   -0.8389   -9.0449 C   0  0  2  0  0  0  0  0  0  0  0  0
  -13.0127   -1.8973   -8.9142 C   0  0  0  0  0  0  0  0  0  0  0  0
  -12.4612   -3.3184   -8.9901 C   0  0  1  0  0  0  0  0  0  0  0  0
  -11.4123   -3.4864   -7.8994 C   0  0  2  0  0  0  0  0  0  0  0  0
  -10.2413   -2.5377   -8.1676 C   0  0  1  0  0  0  0  0  0  0  0  0
  -10.7100   -1.0730   -8.1126 C   0  0  1  0  0  0  0  0  0  0  0  0
  -12.4615    0.5346   -8.7929 N   0  3  0  0  0  0  0  0  0  0  0  0
  -13.5595   -4.3300   -8.8539 N   0  3  0  0  0  0  0  0  0  0  0  0
   -9.2206   -2.7649   -7.2040 O   0  0  0  0  0  0  0  0  0  0  0  0
  -10.9436   -4.8465   -7.8559 O   0  0  0  0  0  0  0  0  0  0  0  0
   -9.6404   -0.2024   -8.5365 O   0  0  0  0  0  0  0  0  0  0  0  0
  -10.9186   -5.3864   -6.5634 C   0  0  2  0  0  0  0  0  0  0  0  0
  -10.2920   -6.7844   -6.5938 C   0  0  1  0  0  0  0  0  0  0  0  0
  -11.2589   -7.8062   -7.1927 C   0  0  0  0  0  0  0  0  0  0  0  0
  -12.5828   -7.7278   -6.4497 C   0  0  1  0  0  0  0  0  0  0  0  0
  -13.1343   -6.3169   -6.5593 C   0  0  1  0  0  0  0  0  0  0  0  0
  -14.4631   -6.1762   -5.8393 C   0  0  0  0  0  0  0  0  0  0  0  0
   -9.0383   -6.7512   -7.4127 N   0  3  0  0  0  0  0  0  0  0  0  0
  -14.2415   -6.4968   -4.3864 N   0  3  0  0  0  0  0  0  0  0  0  0
  -13.5107   -8.6553   -6.9945 O   0  0  0  0  0  0  0  0  0  0  0  0
  -12.2074   -5.3966   -5.9587 O   0  0  0  0  0  0  0  0  0  0  0  0
  1  2  1  0  0  0  0
  1 22  1  6  0  0  0
  1 10  1  0  0  0  0
  2  3  1  0  0  0  0
  2  7  1  6  0  0  0
  3  4  1  0  0  0  0
  3  8  1  1  0  0  0
  4  5  1  0  0  0  0
  4  9  1  6  0  0  0
  5  6  1  1  0  0  0
  5 10  1  0  0  0  0
  6 11  1  0  0  0  0
 12 13  1  0  0  0  0
 12 17  1  0  0  0  0
 12 18  1  1  0  0  0
 13 14  1  0  0  0  0
 14 15  1  0  0  0  0
 14 19  1  1  0  0  0
 15 16  1  0  0  0  0
 15 21  1  6  0  0  0
 16 17  1  0  0  0  0
 16 20  1  1  0  0  0
 17 22  1  6  0  0  0
 23 21  1  6  0  0  0
 23 24  1  0  0  0  0
 23 32  1  0  0  0  0
 24 25  1  0  0  0  0
 24 29  1  6  0  0  0
 25 26  1  0  0  0  0
 26 27  1  0  0  0  0
 26 31  1  6  0  0  0
 27 28  1  1  0  0  0
 27 32  1  0  0  0  0
 28 30  1  0  0  0  0
M  CHG  5   8   1  18   1  19   1  29   1  30   1
M  END
>  <CHROM.1>
-156.09950144,75.26688239,40.51619893,166.09071025,-38.19963287,155.73040399
-123.25581878,-58.67909996,-132.12368826,68.58094788,153.01769663,-174.94978368
-66.60774184,-59.55401304,60.45851489,-62.66011010,-10.13575876,-2.83619805
-7.91092023,0.94597027,0.13643896,-0.22966083

>  <Name>
2tob cryst

>  <RI>
2.9538e+07

>  <Rbt.Current_Directory>
/home/itssahil/PROJECTS/Mol_Feturizer/New_Systems/rnas/2tob

>  <Rbt.Executable>
rbdock ($Id: //depot/dev/client3/rdock/2013.1/src/exe/rbdock.cxx#4 $)

>  <Rbt.Library>
libRbt.so (2013.1, Build901 2013/11/27)

>  <Rbt.Parameter_File>
/export/apps/rDock/src/rDock_2013.1_src/data/scripts/dock_solv.prm

>  <Rbt.Receptor>
prm/pocket_docking_2.prm

>  <SCORE>
-71.4744

>  <SCORE.INTER>
-57.6355

>  <SCORE.INTER.CONST>
1

>  <SCORE.INTER.POLAR>
-8.11153

>  <SCORE.INTER.ROT>
6

>  <SCORE.INTER.SOLV>
37.8881

>  <SCORE.INTER.VDW>
-31.6146

>  <SCORE.INTER.norm>
-1.80111

>  <SCORE.INTRA>
-14.2156

>  <SCORE.INTRA.DIHEDRAL>
4.79688

>  <SCORE.INTRA.DIHEDRAL.0>
18.4221

>  <SCORE.INTRA.POLAR>
1.04908

>  <SCORE.INTRA.POLAR.0>
-1.57101

>  <SCORE.INTRA.REPUL>
-0.67258

>  <SCORE.INTRA.REPUL.0>
0.730195

>  <SCORE.INTRA.SOLV>
-4.49284

>  <SCORE.INTRA.SOLV.lig_0>
-127.221

>  <SCORE.INTRA.VDW>
-14.5716

>  <SCORE.INTRA.VDW.0>
10.8385

>  <SCORE.INTRA.norm>
-0.444237

>  <SCORE.RESTR>
0.37667

>  <SCORE.RESTR.CAVITY>
0.37667

>  <SCORE.RESTR.norm>
0.0117709

>  <SCORE.SYSTEM>
0

>  <SCORE.SYSTEM.CONST>
0

>  <SCORE.SYSTEM.DIHEDRAL>
0

>  <SCORE.SYSTEM.SOLV>
0

>  <SCORE.SYSTEM.norm>
0

>  <SCORE.heavy>
32

>  <SCORE.norm>
-2.23358

>  <RMSD>
1.107

$$$$
2tob cryst
 OpenBabel11021811463D
libRbt.so/2013.1/901 2013/11/27
 32 34  0  0  0  0  0  0  0  0999 V2000
   -8.8490    0.2529   -7.3436 C   0  0  2  0  0  0  0  0  0  0  0  0
   -8.1311    1.5008   -7.8480 C   0  0  1  0  0  0  0  0  0  0  0  0
   -7.3603    1.1490   -9.1207 C   0  0  2  0  0  0  0  0  0  0  0  0
   -6.4122   -0.0325   -8.8763 C   0  0  1  0  0  0  0  0  0  0  0  0
   -7.1818   -1.2011   -8.2511 C   0  0  1  0  0  0  0  0  0  0  0  0
   -6.3096   -2.3735   -7.8330 C   0  0  0  0  0  0  0  0  0  0  0  0
   -9.0778    2.5293   -8.1250 O   0  0  0  0  0  0  0  0  0  0  0  0
   -6.5663    2.2386   -9.7721 N   0  3  0  0  0  0  0  0  0  0  0  0
   -5.8454   -0.4347  -10.1170 O   0  0  0  0  0  0  0  0  0  0  0  0
   -7.8886   -0.7517   -7.0777 O   0  0  0  0  0  0  0  0  0  0  0  0
   -6.9325   -3.6112   -8.1617 O   0  0  0  0  0  0  0  0  0  0  0  0
  -12.0531   -0.6309   -8.9073 C   0  0  2  0  0  0  0  0  0  0  0  0
  -13.2612   -1.5642   -8.7511 C   0  0  0  0  0  0  0  0  0  0  0  0
  -12.8500   -3.0318   -8.6710 C   0  0  1  0  0  0  0  0  0  0  0  0
  -11.8794   -3.1969   -7.5096 C   0  0  2  0  0  0  0  0  0  0  0  0
  -10.6082   -2.3913   -7.7891 C   0  0  1  0  0  0  0  0  0  0  0  0
  -10.9317   -0.8902   -7.8889 C   0  0  1  0  0  0  0  0  0  0  0  0
  -12.4788    0.8059   -8.8081 N   0  3  0  0  0  0  0  0  0  0  0  0
  -14.0485   -3.9188   -8.5131 N   0  3  0  0  0  0  0  0  0  0  0  0
   -9.6650   -2.6241   -6.7507 O   0  0  0  0  0  0  0  0  0  0  0  0
  -11.5504   -4.5854   -7.3210 O   0  0  0  0  0  0  0  0  0  0  0  0
   -9.7611   -0.1666   -8.3223 O   0  0  0  0  0  0  0  0  0  0  0  0
  -11.7627   -5.0355   -6.0114 C   0  0  2  0  0  0  0  0  0  0  0  0
  -10.6596   -6.0217   -5.6134 C   0  0  1  0  0  0  0  0  0  0  0  0
  -10.8588   -7.3738   -6.2987 C   0  0  0  0  0  0  0  0  0  0  0  0
  -12.2702   -7.8652   -6.0206 C   0  0  1  0  0  0  0  0  0  0  0  0
  -13.2661   -6.8374   -6.5291 C   0  0  1  0  0  0  0  0  0  0  0  0
  -14.6988   -7.2752   -6.2845 C   0  0  0  0  0  0  0  0  0  0  0  0
   -9.3259   -5.4619   -6.0028 N   0  3  0  0  0  0  0  0  0  0  0  0
  -14.9519   -8.5149   -7.0981 N   0  3  0  0  0  0  0  0  0  0  0  0
  -12.4932   -9.1144   -6.6591 O   0  0  0  0  0  0  0  0  0  0  0  0
  -13.0606   -5.5939   -5.8374 O   0  0  0  0  0  0  0  0  0  0  0  0
  1  2  1  0  0  0  0
  1 22  1  6  0  0  0
  1 10  1  0  0  0  0
  2  3  1  0  0  0  0
  2  7  1  6  0  0  0
  3  4  1  0  0  0  0
  3  8  1  1  0  0  0
  4  5  1  0  0  0  0
  4  9  1  6  0  0  0
  5  6  1  1  0  0  0
  5 10  1  0  0  0  0
  6 11  1  0  0  0  0
 12 13  1  0  0  0  0
 12 17  1  0  0  0  0
 12 18  1  1  0  0  0
 13 14  1  0  0  0  0
 14 15  1  0  0  0  0
 14 19  1  1  0  0  0
 15 16  1  0  0  0  0
 15 21  1  6  0  0  0
 16 17  1  0  0  0  0
 16 20  1  1  0  0  0
 17 22  1  6  0  0  0
 23 21  1  6  0  0  0
 23 24  1  0  0  0  0
 23 32  1  0  0  0  0
 24 25  1  0  0  0  0
 24 29  1  6  0  0  0
 25 26  1  0  0  0  0
 26 27  1  0  0  0  0
 26 31  1  6  0  0  0
 27 28  1  1  0  0  0
 27 32  1  0  0  0  0
 28 30  1  0  0  0  0
M  CHG  5   8   1  18   1  19   1  29   1  30   1
M  END
>  <CHROM.1>
-152.34611762,68.51359327,51.05895827,79.14799221,-138.88884425,70.93104804
-8.77479077,-172.36908225,-126.56433571,-174.49520382,152.02724940,-142.45928725
-85.06877020,64.98330664,-64.47661145,51.98639001,-10.39115574,-2.87991098
-7.64736798,0.98448290,-0.03423439,-0.29045846

>  <Name>
2tob cryst

>  <RI>
2.9538e+07

>  <Rbt.Current_Directory>
/home/itssahil/PROJECTS/Mol_Feturizer/New_Systems/rnas/2tob

>  <Rbt.Executable>
rbdock ($Id: //depot/dev/client3/rdock/2013.1/src/exe/rbdock.cxx#4 $)

>  <Rbt.Library>
libRbt.so (2013.1, Build901 2013/11/27)

>  <Rbt.Parameter_File>
/export/apps/rDock/src/rDock_2013.1_src/data/scripts/dock_solv.prm

>  <Rbt.Receptor>
prm/pocket_docking_2.prm

>  <SCORE>
-58.4911

>  <SCORE.INTER>
-42.8507

>  <SCORE.INTER.CONST>
1

>  <SCORE.INTER.POLAR>
-5.76584

>  <SCORE.INTER.ROT>
6

>  <SCORE.INTER.SOLV>
32.4219

>  <SCORE.INTER.VDW>
-27.755

>  <SCORE.INTER.norm>
-1.33908

>  <SCORE.INTRA>
-15.7389

>  <SCORE.INTRA.DIHEDRAL>
12.1806

>  <SCORE.INTRA.DIHEDRAL.0>
18.4221

>  <SCORE.INTRA.POLAR>
-1.0216

>  <SCORE.INTRA.POLAR.0>
-1.57101

>  <SCORE.INTRA.REPUL>
-0.730195

>  <SCORE.INTRA.REPUL.0>
0.730195

>  <SCORE.INTRA.SOLV>
-2.30703

>  <SCORE.INTRA.SOLV.lig_0>
-127.221

>  <SCORE.INTRA.VDW>
-13.5512

>  <SCORE.INTRA.VDW.0>
10.8385

>  <SCORE.INTRA.norm>
-0.491841

>  <SCORE.RESTR>
0.0984871

>  <SCORE.RESTR.CAVITY>
0.0984871

>  <SCORE.RESTR.norm>
0.00307772

>  <SCORE.SYSTEM>
0

>  <SCORE.SYSTEM.CONST>
0

>  <SCORE.SYSTEM.DIHEDRAL>
0

>  <SCORE.SYSTEM.SOLV>
0

>  <SCORE.SYSTEM.norm>
0

>  <SCORE.heavy>
32

>  <SCORE.norm>
-1.82785

>  <RMSD>
1.121

$$$$
2tob cryst
 OpenBabel11021811463D
libRbt.so/2013.1/901 2013/11/27
 32 34  0  0  0  0  0  0  0  0999 V2000
   -8.5094   -0.2121   -7.4843 C   0  0  2  0  0  0  0  0  0  0  0  0
   -8.2784    1.2690   -7.7670 C   0  0  1  0  0  0  0  0  0  0  0  0
   -7.6179    1.4148   -9.1383 C   0  0  2  0  0  0  0  0  0  0  0  0
   -6.3328    0.5801   -9.2174 C   0  0  1  0  0  0  0  0  0  0  0  0
   -6.6202   -0.8653   -8.7964 C   0  0  1  0  0  0  0  0  0  0  0  0
   -5.3858   -1.7466   -8.6987 C   0  0  0  0  0  0  0  0  0  0  0  0
   -9.5203    1.9676   -7.7518 O   0  0  0  0  0  0  0  0  0  0  0  0
   -7.2873    2.7992   -9.6031 N   0  3  0  0  0  0  0  0  0  0  0  0
   -5.8453    0.6075  -10.5530 O   0  0  0  0  0  0  0  0  0  0  0  0
   -7.2632   -0.8822   -7.5063 O   0  0  0  0  0  0  0  0  0  0  0  0
   -4.7905   -1.9289   -9.9794 O   0  0  0  0  0  0  0  0  0  0  0  0
  -11.7330   -0.8849   -8.9393 C   0  0  2  0  0  0  0  0  0  0  0  0
  -13.0296   -1.6913   -8.7856 C   0  0  0  0  0  0  0  0  0  0  0  0
  -12.7840   -3.1963   -8.8496 C   0  0  1  0  0  0  0  0  0  0  0  0
  -11.7799   -3.5665   -7.7667 C   0  0  2  0  0  0  0  0  0  0  0  0
  -10.4416   -2.8827   -8.0572 C   0  0  1  0  0  0  0  0  0  0  0  0
  -10.5973   -1.3523   -8.0154 C   0  0  1  0  0  0  0  0  0  0  0  0
  -11.9872    0.5755   -8.6986 N   0  3  0  0  0  0  0  0  0  0  0  0
  -14.0658   -3.9580   -8.6911 N   0  3  0  0  0  0  0  0  0  0  0  0
   -9.4786   -3.3062   -7.1004 O   0  0  0  0  0  0  0  0  0  0  0  0
  -11.6014   -4.9936   -7.7113 O   0  0  0  0  0  0  0  0  0  0  0  0
   -9.3760   -0.7254   -8.4596 O   0  0  0  0  0  0  0  0  0  0  0  0
  -11.4911   -5.4912   -6.4063 C   0  0  2  0  0  0  0  0  0  0  0  0
  -10.4430   -6.6080   -6.3606 C   0  0  1  0  0  0  0  0  0  0  0  0
  -10.9808   -7.8917   -6.9935 C   0  0  0  0  0  0  0  0  0  0  0  0
  -12.3059   -8.2474   -6.3390 C   0  0  1  0  0  0  0  0  0  0  0  0
  -13.2777   -7.0944   -6.5201 C   0  0  1  0  0  0  0  0  0  0  0  0
  -14.6263   -7.3928   -5.8904 C   0  0  0  0  0  0  0  0  0  0  0  0
   -9.2150   -6.1700   -7.0981 N   0  3  0  0  0  0  0  0  0  0  0  0
  -14.4521   -7.3947   -4.3963 N   0  3  0  0  0  0  0  0  0  0  0  0
  -12.8413   -9.4289   -6.9180 O   0  0  0  0  0  0  0  0  0  0  0  0
  -12.7448   -5.9197   -5.8853 O   0  0  0  0  0  0  0  0  0  0  0  0
  1  2  1  0  0  0  0
  1 22  1  6  0  0  0
  1 10  1  0  0  0  0
  2  3  1  0  0  0  0
  2  7  1  6  0  0  0
  3  4  1  0  0  0  0
  3  8  1  1  0  0  0
  4  5  1  0  0  0  0
  4  9  1  6  0  0  0
  5  6  1  1  0  0  0
  5 10  1  0  0  0  0
  6 11  1  0  0  0  0
 12 13  1  0  0  0  0
 12 17  1  0  0  0  0
 12 18  1  1  0  0  0
 13 14  1  0  0  0  0
 14 15  1  0  0  0  0
 14 19  1  1  0  0  0
 15 16  1  0  0  0  0
 15 21  1  6  0  0  0
 16 17  1  0  0  0  0
 16 20  1  1  0  0  0
 17 22  1  6  0  0  0
 23 21  1  6  0  0  0
 23 24  1  0  0  0  0
 23 32  1  0  0  0  0
 24 25  1  0  0  0  0
 24 29  1  6  0  0  0
 25 26  1  0  0  0  0
 26 27  1  0  0  0  0
 26 31  1  6  0  0  0
 27 28  1  1  0  0  0
 27 32  1  0  0  0  0
 28 30  1  0  0  0  0
M  CHG  5   8   1  18   1  19   1  29   1  30   1
M  END
>  <CHROM.1>
-123.10693912,173.32938783,88.89924253,61.09921183,-65.62664098,65.87085296
-68.21673787,58.85069087,-140.32719317,-61.35467839,137.45308447,-141.29673845
-79.26922462,177.30061422,69.60919151,-59.09641687,-10.19602516,-2.93829732
-7.83040235,0.96302727,0.12915708,-0.23762348

>  <Name>
2tob cryst

>  <RI>
2.9538e+07

>  <Rbt.Current_Directory>
/home/itssahil/PROJECTS/Mol_Feturizer/New_Systems/rnas/2tob

>  <Rbt.Executable>
rbdock ($Id: //depot/dev/client3/rdock/2013.1/src/exe/rbdock.cxx#4 $)

>  <Rbt.Library>
libRbt.so (2013.1, Build901 2013/11/27)

>  <Rbt.Parameter_File>
/export/apps/rDock/src/rDock_2013.1_src/data/scripts/dock_solv.prm

>  <Rbt.Receptor>
prm/pocket_docking_2.prm

>  <SCORE>
-67.4021

>  <SCORE.INTER>
-47.5992

>  <SCORE.INTER.CONST>
1

>  <SCORE.INTER.POLAR>
-6.81502

>  <SCORE.INTER.ROT>
6

>  <SCORE.INTER.SOLV>
34.3837

>  <SCORE.INTER.VDW>
-28.0773

>  <SCORE.INTER.norm>
-1.48748

>  <SCORE.INTRA>
-19.9161

>  <SCORE.INTRA.DIHEDRAL>
8.67782

>  <SCORE.INTRA.DIHEDRAL.0>
18.4221

>  <SCORE.INTRA.POLAR>
-1.06657

>  <SCORE.INTRA.POLAR.0>
-1.57101

>  <SCORE.INTRA.REPUL>
-0.730195

>  <SCORE.INTRA.REPUL.0>
0.730195

>  <SCORE.INTRA.SOLV>
-2.24438

>  <SCORE.INTRA.SOLV.lig_0>
-127.221

>  <SCORE.INTRA.VDW>
-15.8555

>  <SCORE.INTRA.VDW.0>
10.8385

>  <SCORE.INTRA.norm>
-0.622377

>  <SCORE.RESTR>
0.113235

>  <SCORE.RESTR.CAVITY>
0.113235

>  <SCORE.RESTR.norm>
0.00353859

>  <SCORE.SYSTEM>
0

>  <SCORE.SYSTEM.CONST>
0

>  <SCORE.SYSTEM.DIHEDRAL>
0

>  <SCORE.SYSTEM.SOLV>
0

>  <SCORE.SYSTEM.norm>
0

>  <SCORE.heavy>
32

>  <SCORE.norm>
-2.10631

>  <RMSD>
1.130

$$$$
2tob cryst
 OpenBabel11021811463D
libRbt.so/2013.1/901 2013/11/27
 32 34  0  0  0  0  0  0  0  0999 V2000
   -8.8151    0.1842   -7.4592 C   0  0  2  0  0  0  0  0  0  0  0  0
   -8.1572    1.4839   -7.9120 C   0  0  1  0  0  0  0  0  0  0  0  0
   -7.3507    1.2147   -9.1828 C   0  0  2  0  0  0  0  0  0  0  0  0
   -6.3450    0.0772   -8.9611 C   0  0  1  0  0  0  0  0  0  0  0  0
   -7.0605   -1.1499   -8.3858 C   0  0  1  0  0  0  0  0  0  0  0  0
   -6.1336   -2.2880   -7.9914 C   0  0  0  0  0  0  0  0  0  0  0  0
   -9.1530    2.4698   -8.1711 O   0  0  0  0  0  0  0  0  0  0  0  0
   -6.6064    2.3651   -9.7864 N   0  3  0  0  0  0  0  0  0  0  0  0
   -5.7401   -0.2539  -10.2047 O   0  0  0  0  0  0  0  0  0  0  0  0
   -7.8068   -0.7768   -7.2101 O   0  0  0  0  0  0  0  0  0  0  0  0
   -5.2756   -2.6405   -9.0719 O   0  0  0  0  0  0  0  0  0  0  0  0
  -11.9652   -0.8088   -9.0318 C   0  0  2  0  0  0  0  0  0  0  0  0
  -13.1013   -1.8369   -8.9461 C   0  0  0  0  0  0  0  0  0  0  0  0
  -12.5898   -3.2716   -9.0427 C   0  0  1  0  0  0  0  0  0  0  0  0
  -11.5685   -3.4939   -7.9357 C   0  0  2  0  0  0  0  0  0  0  0  0
  -10.3653   -2.5745   -8.1600 C   0  0  1  0  0  0  0  0  0  0  0  0
  -10.7924   -1.0982   -8.0817 C   0  0  1  0  0  0  0  0  0  0  0  0
  -12.4825    0.5746   -8.7602 N   0  3  0  0  0  0  0  0  0  0  0  0
  -13.7195   -4.2531   -8.9504 N   0  3  0  0  0  0  0  0  0  0  0  0
   -9.3713   -2.8524   -7.1819 O   0  0  0  0  0  0  0  0  0  0  0  0
  -11.1403   -4.8678   -7.9133 O   0  0  0  0  0  0  0  0  0  0  0  0
   -9.6896   -0.2504   -8.4652 O   0  0  0  0  0  0  0  0  0  0  0  0
  -11.4510   -5.5289   -6.7178 C   0  0  2  0  0  0  0  0  0  0  0  0
  -10.3550   -6.5465   -6.3843 C   0  0  1  0  0  0  0  0  0  0  0  0
  -10.4494   -7.7724   -7.2930 C   0  0  0  0  0  0  0  0  0  0  0  0
  -11.8628   -8.3282   -7.2273 C   0  0  1  0  0  0  0  0  0  0  0  0
  -12.8437   -7.2496   -7.6530 C   0  0  1  0  0  0  0  0  0  0  0  0
  -14.2772   -7.7475   -7.6137 C   0  0  0  0  0  0  0  0  0  0  0  0
   -9.0115   -5.9066   -6.5554 N   0  3  0  0  0  0  0  0  0  0  0  0
  -14.4376   -8.7892   -8.6870 N   0  3  0  0  0  0  0  0  0  0  0  0
  -11.9882   -9.4606   -8.0758 O   0  0  0  0  0  0  0  0  0  0  0  0
  -12.7401   -6.1319   -6.7549 O   0  0  0  0  0  0  0  0  0  0  0  0
  1  2  1  0  0  0  0
  1 22  1  6  0  0  0
  1 10  1  0  0  0  0
  2  3  1  0  0  0  0
  2  7  1  6  0  0  0
  3  4  1  0  0  0  0
  3  8  1  1  0  0  0
  4  5  1  0  0  0  0
  4  9  1  6  0  0  0
  5  6  1  1  0  0  0
  5 10  1  0  0  0  0
  6 11  1  0  0  0  0
 12 13  1  0  0  0  0
 12 17  1  0  0  0  0
 12 18  1  1  0  0  0
 13 14  1  0  0  0  0
 14 15  1  0  0  0  0
 14 19  1  1  0  0  0
 15 16  1  0  0  0  0
 15 21  1  6  0  0  0
 16 17  1  0  0  0  0
 16 20  1  1  0  0  0
 17 22  1  6  0  0  0
 23 21  1  6  0  0  0
 23 24  1  0  0  0  0
 23 32  1  0  0  0  0
 24 25  1  0  0  0  0
 24 29  1  6  0  0  0
 25 26  1  0  0  0  0
 26 27  1  0  0  0  0
 26 31  1  6  0  0  0
 27 28  1  1  0  0  0
 27 32  1  0  0  0  0
 28 30  1  0  0  0  0
M  CHG  5   8   1  18   1  19   1  29   1  30   1
M  END
>  <CHROM.1>
-155.08979634,-53.85966186,43.51962408,173.04090792,-52.81303139,154.45667100
-1.56295544,57.34313043,-117.83179288,-66.22969776,148.51893511,-145.93928334
13.25066341,54.47804824,-67.55484405,169.66392544,-10.12373266,-3.04967029
-8.13916396,1.01048243,-0.03993471,-0.16001935

>  <Name>
2tob cryst

>  <RI>
0

>  <Rbt.Current_Directory>
/home/itssahil/PROJECTS/Mol_Feturizer/New_Systems/rnas/2tob

>  <Rbt.Executable>
rbdock ($Id: //depot/dev/client3/rdock/2013.1/src/exe/rbdock.cxx#4 $)

>  <Rbt.Library>
libRbt.so (2013.1, Build901 2013/11/27)

>  <Rbt.Parameter_File>
/export/apps/rDock/src/rDock_2013.1_src/data/scripts/dock_solv.prm

>  <Rbt.Receptor>
prm/pocket_docking_3.prm

>  <SCORE>
-70.2907

>  <SCORE.INTER>
-53.6354

>  <SCORE.INTER.CONST>
1

>  <SCORE.INTER.POLAR>
-7.76496

>  <SCORE.INTER.ROT>
6

>  <SCORE.INTER.SOLV>
35.5704

>  <SCORE.INTER.VDW>
-29.3305

>  <SCORE.INTER.norm>
-1.67611

>  <SCORE.INTRA>
-16.7423

>  <SCORE.INTRA.DIHEDRAL>
11.2281

>  <SCORE.INTRA.DIHEDRAL.0>
18.4221

>  <SCORE.INTRA.POLAR>
-0.996406

>  <SCORE.INTRA.POLAR.0>
-1.57101

>  <SCORE.INTRA.REPUL>
-0.730195

>  <SCORE.INTRA.REPUL.0>
0.730195

>  <SCORE.INTRA.SOLV>
-2.36577

>  <SCORE.INTRA.SOLV.lig_0>
-127.221

>  <SCORE.INTRA.VDW>
-14.1347

>  <SCORE.INTRA.VDW.0>
10.8385

>  <SCORE.INTRA.norm>
-0.523196

>  <SCORE.RESTR>
0.0869654

>  <SCORE.RESTR.CAVITY>
0.0869654

>  <SCORE.RESTR.norm>
0.00271767

>  <SCORE.SYSTEM>
0

>  <SCORE.SYSTEM.CONST>
0

>  <SCORE.SYSTEM.DIHEDRAL>
0

>  <SCORE.SYSTEM.SOLV>
0

>  <SCORE.SYSTEM.norm>
0

>  <SCORE.heavy>
32

>  <SCORE.norm>
-2.19658

>  <RMSD>
1.160

$$$$
2tob cryst
 OpenBabel11021811463D
libRbt.so/2013.1/901 2013/11/27
 32 34  0  0  0  0  0  0  0  0999 V2000
   -9.2553    0.0025   -7.3833 C   0  0  2  0  0  0  0  0  0  0  0  0
   -8.7805    1.4002   -7.7680 C   0  0  1  0  0  0  0  0  0  0  0  0
   -7.9852    1.3126   -9.0709 C   0  0  2  0  0  0  0  0  0  0  0  0
   -6.8378    0.3017   -8.9437 C   0  0  1  0  0  0  0  0  0  0  0  0
   -7.3752   -1.0389   -8.4311 C   0  0  1  0  0  0  0  0  0  0  0  0
   -6.3005   -2.0707   -8.1299 C   0  0  0  0  0  0  0  0  0  0  0  0
   -9.9001    2.2645   -7.9422 O   0  0  0  0  0  0  0  0  0  0  0  0
   -7.4105    2.5826   -9.6173 N   0  3  0  0  0  0  0  0  0  0  0  0
   -6.2337    0.1253  -10.2190 O   0  0  0  0  0  0  0  0  0  0  0  0
   -8.1267   -0.8350   -7.2179 O   0  0  0  0  0  0  0  0  0  0  0  0
   -5.8931   -2.7400   -9.3190 O   0  0  0  0  0  0  0  0  0  0  0  0
  -12.3780   -1.0398   -8.9411 C   0  0  2  0  0  0  0  0  0  0  0  0
  -13.5083   -2.0744   -8.8570 C   0  0  0  0  0  0  0  0  0  0  0  0
  -12.9915   -3.5050   -8.9826 C   0  0  1  0  0  0  0  0  0  0  0  0
  -11.9551   -3.7397   -7.8924 C   0  0  2  0  0  0  0  0  0  0  0  0
  -10.7591   -2.8113   -8.1175 C   0  0  1  0  0  0  0  0  0  0  0  0
  -11.1918   -1.3384   -8.0107 C   0  0  1  0  0  0  0  0  0  0  0  0
  -12.8981    0.3368   -8.6413 N   0  3  0  0  0  0  0  0  0  0  0  0
  -14.1155   -4.4932   -8.8913 N   0  3  0  0  0  0  0  0  0  0  0  0
   -9.7513   -3.0996   -7.1567 O   0  0  0  0  0  0  0  0  0  0  0  0
  -11.5204   -5.1118   -7.8969 O   0  0  0  0  0  0  0  0  0  0  0  0
  -10.0979   -0.4795   -8.3949 O   0  0  0  0  0  0  0  0  0  0  0  0
  -11.2514   -5.6154   -6.6176 C   0  0  2  0  0  0  0  0  0  0  0  0
  -10.0985   -6.6225   -6.6852 C   0  0  1  0  0  0  0  0  0  0  0  0
  -10.5593   -7.9438   -7.3010 C   0  0  0  0  0  0  0  0  0  0  0  0
  -11.7827   -8.4399   -6.5473 C   0  0  1  0  0  0  0  0  0  0  0  0
  -12.8750   -7.3871   -6.6200 C   0  0  1  0  0  0  0  0  0  0  0  0
  -14.1293   -7.8282   -5.8877 C   0  0  0  0  0  0  0  0  0  0  0  0
   -8.9866   -6.0531   -7.5117 N   0  3  0  0  0  0  0  0  0  0  0  0
  -13.9085   -7.6131   -4.4153 N   0  3  0  0  0  0  0  0  0  0  0  0
  -12.2467   -9.6602   -7.1072 O   0  0  0  0  0  0  0  0  0  0  0  0
  -12.4081   -6.1747   -6.0044 O   0  0  0  0  0  0  0  0  0  0  0  0
  1  2  1  0  0  0  0
  1 22  1  6  0  0  0
  1 10  1  0  0  0  0
  2  3  1  0  0  0  0
  2  7  1  6  0  0  0
  3  4  1  0  0  0  0
  3  8  1  1  0  0  0
  4  5  1  0  0  0  0
  4  9  1  6  0  0  0
  5  6  1  1  0  0  0
  5 10  1  0  0  0  0
  6 11  1  0  0  0  0
 12 13  1  0  0  0  0
 12 17  1  0  0  0  0
 12 18  1  1  0  0  0
 13 14  1  0  0  0  0
 14 15  1  0  0  0  0
 14 19  1  1  0  0  0
 15 16  1  0  0  0  0
 15 21  1  6  0  0  0
 16 17  1  0  0  0  0
 16 20  1  1  0  0  0
 17 22  1  6  0  0  0
 23 21  1  6  0  0  0
 23 24  1  0  0  0  0
 23 32  1  0  0  0  0
 24 25  1  0  0  0  0
 24 29  1  6  0  0  0
 25 26  1  0  0  0  0
 26 27  1  0  0  0  0
 26 31  1  6  0  0  0
 27 28  1  1  0  0  0
 27 32  1  0  0  0  0
 28 30  1  0  0  0  0
M  CHG  5   8   1  18   1  19   1  29   1  30   1
M  END
>  <CHROM.1>
-146.57165235,175.93941134,82.33362372,72.67713697,-82.22519008,-83.54769836
-129.21678441,-54.00795105,-144.62854563,-177.93943567,145.11567288,-146.39212799
38.38746461,57.46566894,79.05819682,155.55533404,-10.40317525,-3.09467320
-7.83717081,1.08035039,0.08348276,-0.22367117

>  <Name>
2tob cryst

>  <RI>
2.9538e+07

>  <Rbt.Current_Directory>
/home/itssahil/PROJECTS/Mol_Feturizer/New_Systems/rnas/2tob

>  <Rbt.Executable>
rbdock ($Id: //depot/dev/client3/rdock/2013.1/src/exe/rbdock.cxx#4 $)

>  <Rbt.Library>
libRbt.so (2013.1, Build901 2013/11/27)

>  <Rbt.Parameter_File>
/export/apps/rDock/src/rDock_2013.1_src/data/scripts/dock_solv.prm

>  <Rbt.Receptor>
prm/pocket_docking_2.prm

>  <SCORE>
-66.0804

>  <SCORE.INTER>
-49.8338

>  <SCORE.INTER.CONST>
1

>  <SCORE.INTER.POLAR>
-7.43464

>  <SCORE.INTER.ROT>
6

>  <SCORE.INTER.SOLV>
37.6216

>  <SCORE.INTER.VDW>
-28.581

>  <SCORE.INTER.norm>
-1.55731

>  <SCORE.INTRA>
-16.3067

>  <SCORE.INTRA.DIHEDRAL>
12.1751

>  <SCORE.INTRA.DIHEDRAL.0>
18.4221

>  <SCORE.INTRA.POLAR>
-0.452729

>  <SCORE.INTRA.POLAR.0>
-1.57101

>  <SCORE.INTRA.REPUL>
-0.730195

>  <SCORE.INTRA.REPUL.0>
0.730195

>  <SCORE.INTRA.SOLV>
-4.66124

>  <SCORE.INTRA.SOLV.lig_0>
-127.221

>  <SCORE.INTRA.VDW>
-14.8734

>  <SCORE.INTRA.VDW.0>
10.8385

>  <SCORE.INTRA.norm>
-0.509586

>  <SCORE.RESTR>
0.060201

>  <SCORE.RESTR.CAVITY>
0.060201

>  <SCORE.RESTR.norm>
0.00188128

>  <SCORE.SYSTEM>
0

>  <SCORE.SYSTEM.CONST>
0

>  <SCORE.SYSTEM.DIHEDRAL>
0

>  <SCORE.SYSTEM.SOLV>
0

>  <SCORE.SYSTEM.norm>
0

>  <SCORE.heavy>
32

>  <SCORE.norm>
-2.06501

>  <RMSD>
1.164

$$$$
2tob cryst
 OpenBabel11021811463D
libRbt.so/2013.1/901 2013/11/27
 32 34  0  0  0  0  0  0  0  0999 V2000
   -9.1450    0.7442   -7.9109 C   0  0  2  0  0  0  0  0  0  0  0  0
   -8.2446    1.6864   -8.7037 C   0  0  1  0  0  0  0  0  0  0  0  0
   -7.2605    0.8554   -9.5276 C   0  0  2  0  0  0  0  0  0  0  0  0
   -6.4769   -0.1116   -8.6301 C   0  0  1  0  0  0  0  0  0  0  0  0
   -7.4462   -0.9328   -7.7728 C   0  0  1  0  0  0  0  0  0  0  0  0
   -6.7713   -1.8215   -6.7410 C   0  0  0  0  0  0  0  0  0  0  0  0
   -9.0322    2.5005   -9.5685 O   0  0  0  0  0  0  0  0  0  0  0  0
   -6.2683    1.5940  -10.3712 N   0  3  0  0  0  0  0  0  0  0  0  0
   -5.7023   -0.9780   -9.4497 O   0  0  0  0  0  0  0  0  0  0  0  0
   -8.3399   -0.0525   -7.0625 O   0  0  0  0  0  0  0  0  0  0  0  0
   -7.6984   -2.2313   -5.7409 O   0  0  0  0  0  0  0  0  0  0  0  0
  -12.2138   -0.5349   -9.0858 C   0  0  2  0  0  0  0  0  0  0  0  0
  -13.3626   -1.5251   -8.8520 C   0  0  0  0  0  0  0  0  0  0  0  0
  -12.9134   -2.9760   -9.0026 C   0  0  1  0  0  0  0  0  0  0  0  0
  -11.7690   -3.2288   -8.0307 C   0  0  2  0  0  0  0  0  0  0  0  0
  -10.5746   -2.3496   -8.4098 C   0  0  1  0  0  0  0  0  0  0  0  0
  -10.9410   -0.8600   -8.2882 C   0  0  1  0  0  0  0  0  0  0  0  0
  -12.6484    0.8653   -8.7606 N   0  3  0  0  0  0  0  0  0  0  0  0
  -14.0534   -3.9200   -8.7633 N   0  3  0  0  0  0  0  0  0  0  0  0
   -9.4752   -2.6574   -7.5620 O   0  0  0  0  0  0  0  0  0  0  0  0
  -11.3856   -4.6159   -8.0532 O   0  0  0  0  0  0  0  0  0  0  0  0
   -9.8684   -0.0495   -8.8122 O   0  0  0  0  0  0  0  0  0  0  0  0
  -10.9988   -5.1076   -6.7997 C   0  0  2  0  0  0  0  0  0  0  0  0
   -9.7603   -5.9976   -6.9478 C   0  0  1  0  0  0  0  0  0  0  0  0
  -10.1261   -7.3492   -7.5617 C   0  0  0  0  0  0  0  0  0  0  0  0
  -11.2524   -7.9708   -6.7519 C   0  0  1  0  0  0  0  0  0  0  0  0
  -12.4429   -7.0277   -6.7463 C   0  0  1  0  0  0  0  0  0  0  0  0
  -13.6065   -7.5972   -5.9553 C   0  0  0  0  0  0  0  0  0  0  0  0
   -8.7558   -5.3128   -7.8229 N   0  3  0  0  0  0  0  0  0  0  0  0
  -14.6066   -6.4945   -5.7395 N   0  3  0  0  0  0  0  0  0  0  0  0
  -11.6279   -9.2230   -7.3080 O   0  0  0  0  0  0  0  0  0  0  0  0
  -12.0607   -5.7838   -6.1350 O   0  0  0  0  0  0  0  0  0  0  0  0
  1  2  1  0  0  0  0
  1 22  1  6  0  0  0
  1 10  1  0  0  0  0
  2  3  1  0  0  0  0
  2  7  1  6  0  0  0
  3  4  1  0  0  0  0
  3  8  1  1  0  0  0
  4  5  1  0  0  0  0
  4  9  1  6  0  0  0
  5  6  1  1  0  0  0
  5 10  1  0  0  0  0
  6 11  1  0  0  0  0
 12 13  1  0  0  0  0
 12 17  1  0  0  0  0
 12 18  1  1  0  0  0
 13 14  1  0  0  0  0
 14 15  1  0  0  0  0
 14 19  1  1  0  0  0
 15 16  1  0  0  0  0
 15 21  1  6  0  0  0
 16 17  1  0  0  0  0
 16 20  1  1  0  0  0
 17 22  1  6  0  0  0
 23 21  1  6  0  0  0
 23 24  1  0  0  0  0
 23 32  1  0  0  0  0
 24 25  1  0  0  0  0
 24 29  1  6  0  0  0
 25 26  1  0  0  0  0
 26 27  1  0  0  0  0
 26 31  1  6  0  0  0
 27 28  1  1  0  0  0
 27 32  1  0  0  0  0
 28 30  1  0  0  0  0
M  CHG  5   8   1  18   1  19   1  29   1  30   1
M  END
>  <CHROM.1>
-170.06178449,-69.28306039,-173.87199739,67.38384777,162.52552085,51.19112701
-13.33540834,60.56829695,-144.27195780,129.92580639,126.23428177,-138.00561687
-169.50503060,-61.02895105,167.46406986,-147.02741577,-10.20683449,-2.75793013
-7.91233688,1.05388493,-0.05756118,-0.29159128

>  <Name>
2tob cryst

>  <RI>
2.9538e+07

>  <Rbt.Current_Directory>
/home/itssahil/PROJECTS/Mol_Feturizer/New_Systems/rnas/2tob

>  <Rbt.Executable>
rbdock ($Id: //depot/dev/client3/rdock/2013.1/src/exe/rbdock.cxx#4 $)

>  <Rbt.Library>
libRbt.so (2013.1, Build901 2013/11/27)

>  <Rbt.Parameter_File>
/export/apps/rDock/src/rDock_2013.1_src/data/scripts/dock_solv.prm

>  <Rbt.Receptor>
prm/pocket_docking_2.prm

>  <SCORE>
-54.1909

>  <SCORE.INTER>
-45.8255

>  <SCORE.INTER.CONST>
1

>  <SCORE.INTER.POLAR>
-6.69211

>  <SCORE.INTER.ROT>
6

>  <SCORE.INTER.SOLV>
37.5831

>  <SCORE.INTER.VDW>
-28.371

>  <SCORE.INTER.norm>
-1.43205

>  <SCORE.INTRA>
-9.63822

>  <SCORE.INTRA.DIHEDRAL>
14.3728

>  <SCORE.INTRA.DIHEDRAL.0>
18.4221

>  <SCORE.INTRA.POLAR>
0.0751774

>  <SCORE.INTRA.POLAR.0>
-1.57101

>  <SCORE.INTRA.REPUL>
-0.717168

>  <SCORE.INTRA.REPUL.0>
0.730195

>  <SCORE.INTRA.SOLV>
-1.5641

>  <SCORE.INTRA.SOLV.lig_0>
-127.221

>  <SCORE.INTRA.VDW>
-12.7123

>  <SCORE.INTRA.VDW.0>
10.8385

>  <SCORE.INTRA.norm>
-0.301194

>  <SCORE.RESTR>
1.27273

>  <SCORE.RESTR.CAVITY>
1.27273

>  <SCORE.RESTR.norm>
0.0397728

>  <SCORE.SYSTEM>
0

>  <SCORE.SYSTEM.CONST>
0

>  <SCORE.SYSTEM.DIHEDRAL>
0

>  <SCORE.SYSTEM.SOLV>
0

>  <SCORE.SYSTEM.norm>
0

>  <SCORE.heavy>
32

>  <SCORE.norm>
-1.69347

>  <RMSD>
1.166

$$$$
2tob cryst
 OpenBabel11021811463D
libRbt.so/2013.1/901 2013/11/27
 32 34  0  0  0  0  0  0  0  0999 V2000
   -8.6584   -0.2805   -7.4520 C   0  0  2  0  0  0  0  0  0  0  0  0
   -8.3755    1.1904   -7.7404 C   0  0  1  0  0  0  0  0  0  0  0  0
   -7.6925    1.3060   -9.1034 C   0  0  2  0  0  0  0  0  0  0  0  0
   -6.4344    0.4295   -9.1602 C   0  0  1  0  0  0  0  0  0  0  0  0
   -6.7743   -1.0031   -8.7347 C   0  0  1  0  0  0  0  0  0  0  0  0
   -5.5707   -1.9234   -8.6151 C   0  0  0  0  0  0  0  0  0  0  0  0
   -9.5941    1.9292   -7.7460 O   0  0  0  0  0  0  0  0  0  0  0  0
   -7.3107    2.6759   -9.5719 N   0  3  0  0  0  0  0  0  0  0  0  0
   -5.9285    0.4325  -10.4893 O   0  0  0  0  0  0  0  0  0  0  0  0
   -7.4346   -0.9909   -7.4532 O   0  0  0  0  0  0  0  0  0  0  0  0
   -5.9816   -3.2709   -8.4076 O   0  0  0  0  0  0  0  0  0  0  0  0
  -11.8715   -1.0414   -8.9335 C   0  0  2  0  0  0  0  0  0  0  0  0
  -13.1297   -1.9083   -8.7903 C   0  0  0  0  0  0  0  0  0  0  0  0
  -12.8129   -3.4000   -8.8539 C   0  0  1  0  0  0  0  0  0  0  0  0
  -11.8006   -3.7238   -7.7638 C   0  0  2  0  0  0  0  0  0  0  0  0
  -10.4938   -2.9772   -8.0436 C   0  0  1  0  0  0  0  0  0  0  0  0
  -10.7219   -1.4559   -8.0015 C   0  0  1  0  0  0  0  0  0  0  0  0
  -12.1961    0.4051   -8.6933 N   0  3  0  0  0  0  0  0  0  0  0  0
  -14.0584   -4.2215   -8.7058 N   0  3  0  0  0  0  0  0  0  0  0  0
   -9.5192   -3.3561   -7.0800 O   0  0  0  0  0  0  0  0  0  0  0  0
  -11.5553   -5.1410   -7.7084 O   0  0  0  0  0  0  0  0  0  0  0  0
   -9.5283   -0.7715   -8.4359 O   0  0  0  0  0  0  0  0  0  0  0  0
  -11.7714   -5.6948   -6.4399 C   0  0  2  0  0  0  0  0  0  0  0  0
  -10.7121   -6.7633   -6.1497 C   0  0  1  0  0  0  0  0  0  0  0  0
  -10.9861   -8.0385   -6.9474 C   0  0  0  0  0  0  0  0  0  0  0  0
  -12.4158   -8.4855   -6.6884 C   0  0  1  0  0  0  0  0  0  0  0  0
  -13.3674   -7.3709   -7.0869 C   0  0  1  0  0  0  0  0  0  0  0  0
  -14.8162   -7.7605   -6.8563 C   0  0  0  0  0  0  0  0  0  0  0  0
   -9.3583   -6.2347   -6.5121 N   0  3  0  0  0  0  0  0  0  0  0  0
  -15.0525   -7.8161   -5.3717 N   0  3  0  0  0  0  0  0  0  0  0  0
  -12.7078   -9.6613   -7.4302 O   0  0  0  0  0  0  0  0  0  0  0  0
  -13.0924   -6.2046   -6.2924 O   0  0  0  0  0  0  0  0  0  0  0  0
  1  2  1  0  0  0  0
  1 22  1  6  0  0  0
  1 10  1  0  0  0  0
  2  3  1  0  0  0  0
  2  7  1  6  0  0  0
  3  4  1  0  0  0  0
  3  8  1  1  0  0  0
  4  5  1  0  0  0  0
  4  9  1  6  0  0  0
  5  6  1  1  0  0  0
  5 10  1  0  0  0  0
  6 11  1  0  0  0  0
 12 13  1  0  0  0  0
 12 17  1  0  0  0  0
 12 18  1  1  0  0  0
 13 14  1  0  0  0  0
 14 15  1  0  0  0  0
 14 19  1  1  0  0  0
 15 16  1  0  0  0  0
 15 21  1  6  0  0  0
 16 17  1  0  0  0  0
 16 20  1  1  0  0  0
 17 22  1  6  0  0  0
 23 21  1  6  0  0  0
 23 24  1  0  0  0  0
 23 32  1  0  0  0  0
 24 25  1  0  0  0  0
 24 29  1  6  0  0  0
 25 26  1  0  0  0  0
 26 27  1  0  0  0  0
 26 31  1  6  0  0  0
 27 28  1  1  0  0  0
 27 32  1  0  0  0  0
 28 30  1  0  0  0  0
M  CHG  5   8   1  18   1  19   1  29   1  30   1
M  END
>  <CHROM.1>
-128.21676682,54.81996081,-153.52329057,70.05937857,-171.59702652,66.91234718
166.79955699,-52.32168816,-124.80241485,-173.01378432,140.73629887,-141.61890942
147.01757810,177.77155628,70.01280525,56.87892585,-10.35903944,-3.15213423
-7.85305018,0.98212573,0.03288231,-0.23040880

>  <Name>
2tob cryst

>  <RI>
2.9538e+07

>  <Rbt.Current_Directory>
/home/itssahil/PROJECTS/Mol_Feturizer/New_Systems/rnas/2tob

>  <Rbt.Executable>
rbdock ($Id: //depot/dev/client3/rdock/2013.1/src/exe/rbdock.cxx#4 $)

>  <Rbt.Library>
libRbt.so (2013.1, Build901 2013/11/27)

>  <Rbt.Parameter_File>
/export/apps/rDock/src/rDock_2013.1_src/data/scripts/dock_solv.prm

>  <Rbt.Receptor>
prm/pocket_docking_2.prm

>  <SCORE>
-61.0853

>  <SCORE.INTER>
-43.1794

>  <SCORE.INTER.CONST>
1

>  <SCORE.INTER.POLAR>
-6.0348

>  <SCORE.INTER.ROT>
6

>  <SCORE.INTER.SOLV>
32.6306

>  <SCORE.INTER.VDW>
-27.1471

>  <SCORE.INTER.norm>
-1.34936

>  <SCORE.INTRA>
-17.9752

>  <SCORE.INTRA.DIHEDRAL>
11.8366

>  <SCORE.INTRA.DIHEDRAL.0>
18.4221

>  <SCORE.INTRA.POLAR>
-0.914194

>  <SCORE.INTRA.POLAR.0>
-1.57101

>  <SCORE.INTRA.REPUL>
-0.730195

>  <SCORE.INTRA.REPUL.0>
0.730195

>  <SCORE.INTRA.SOLV>
-2.54467

>  <SCORE.INTRA.SOLV.lig_0>
-127.221

>  <SCORE.INTRA.VDW>
-15.8619

>  <SCORE.INTRA.VDW.0>
10.8385

>  <SCORE.INTRA.norm>
-0.561724

>  <SCORE.RESTR>
0.0691974

>  <SCORE.RESTR.CAVITY>
0.0691974

>  <SCORE.RESTR.norm>
0.00216242

>  <SCORE.SYSTEM>
0

>  <SCORE.SYSTEM.CONST>
0

>  <SCORE.SYSTEM.DIHEDRAL>
0

>  <SCORE.SYSTEM.SOLV>
0

>  <SCORE.SYSTEM.norm>
0

>  <SCORE.heavy>
32

>  <SCORE.norm>
-1.90892

>  <RMSD>
1.217

$$$$
2tob cryst
 OpenBabel11021811463D
libRbt.so/2013.1/901 2013/11/27
 32 34  0  0  0  0  0  0  0  0999 V2000
   -7.6945    0.3962   -7.7364 C   0  0  2  0  0  0  0  0  0  0  0  0
   -7.0401    1.7074   -8.1602 C   0  0  1  0  0  0  0  0  0  0  0  0
   -6.3617    1.5076   -9.5157 C   0  0  2  0  0  0  0  0  0  0  0  0
   -5.3761    0.3326   -9.4656 C   0  0  1  0  0  0  0  0  0  0  0  0
   -6.0744   -0.9135   -8.9100 C   0  0  1  0  0  0  0  0  0  0  0  0
   -5.1514   -2.0991   -8.6810 C   0  0  0  0  0  0  0  0  0  0  0  0
   -8.0240    2.7336   -8.2585 O   0  0  0  0  0  0  0  0  0  0  0  0
   -5.6398    2.6784  -10.1073 N   0  3  0  0  0  0  0  0  0  0  0  0
   -4.8978    0.0741  -10.7796 O   0  0  0  0  0  0  0  0  0  0  0  0
   -6.6982   -0.6048   -7.6475 O   0  0  0  0  0  0  0  0  0  0  0  0
   -5.8934   -3.2524   -8.2973 O   0  0  0  0  0  0  0  0  0  0  0  0
  -11.0145   -0.2708   -9.1409 C   0  0  2  0  0  0  0  0  0  0  0  0
  -12.2515   -1.1625   -8.9677 C   0  0  0  0  0  0  0  0  0  0  0  0
  -11.9038   -2.6477   -9.0187 C   0  0  1  0  0  0  0  0  0  0  0  0
  -10.8679   -2.9368   -7.9411 C   0  0  2  0  0  0  0  0  0  0  0  0
   -9.5820   -2.1659   -8.2501 C   0  0  1  0  0  0  0  0  0  0  0  0
   -9.8420   -0.6495   -8.2224 C   0  0  1  0  0  0  0  0  0  0  0  0
  -11.3664    1.1712   -8.9127 N   0  3  0  0  0  0  0  0  0  0  0  0
  -13.1289   -3.4937   -8.8413 N   0  3  0  0  0  0  0  0  0  0  0  0
   -8.5846   -2.5123   -7.2977 O   0  0  0  0  0  0  0  0  0  0  0  0
  -10.5914   -4.3476   -7.8729 O   0  0  0  0  0  0  0  0  0  0  0  0
   -8.6702    0.0549   -8.6836 O   0  0  0  0  0  0  0  0  0  0  0  0
  -10.6505   -4.8648   -6.5722 C   0  0  2  0  0  0  0  0  0  0  0  0
  -10.2771   -6.3509   -6.5843 C   0  0  1  0  0  0  0  0  0  0  0  0
  -11.4119   -7.1972   -7.1619 C   0  0  0  0  0  0  0  0  0  0  0  0
  -12.6959   -6.8787   -6.4131 C   0  0  1  0  0  0  0  0  0  0  0  0
  -12.9942   -5.3951   -6.5418 C   0  0  1  0  0  0  0  0  0  0  0  0
  -14.2725   -5.0146   -5.8169 C   0  0  0  0  0  0  0  0  0  0  0  0
   -9.0433   -6.5485   -7.4103 N   0  3  0  0  0  0  0  0  0  0  0  0
  -13.9919   -5.0310   -4.3391 N   0  3  0  0  0  0  0  0  0  0  0  0
  -13.7755   -7.6382   -6.9384 O   0  0  0  0  0  0  0  0  0  0  0  0
  -11.9165   -4.6417   -5.9606 O   0  0  0  0  0  0  0  0  0  0  0  0
  1  2  1  0  0  0  0
  1 22  1  6  0  0  0
  1 10  1  0  0  0  0
  2  3  1  0  0  0  0
  2  7  1  6  0  0  0
  3  4  1  0  0  0  0
  3  8  1  1  0  0  0
  4  5  1  0  0  0  0
  4  9  1  6  0  0  0
  5  6  1  1  0  0  0
  5 10  1  0  0  0  0
  6 11  1  0  0  0  0
 12 13  1  0  0  0  0
 12 17  1  0  0  0  0
 12 18  1  1  0  0  0
 13 14  1  0  0  0  0
 14 15  1  0  0  0  0
 14 19  1  1  0  0  0
 15 16  1  0  0  0  0
 15 21  1  6  0  0  0
 16 17  1  0  0  0  0
 16 20  1  1  0  0  0
 17 22  1  6  0  0  0
 23 21  1  6  0  0  0
 23 24  1  0  0  0  0
 23 32  1  0  0  0  0
 24 25  1  0  0  0  0
 24 29  1  6  0  0  0
 25 26  1  0  0  0  0
 26 27  1  0  0  0  0
 26 31  1  6  0  0  0
 27 28  1  1  0  0  0
 27 32  1  0  0  0  0
 28 30  1  0  0  0  0
M  CHG  5   8   1  18   1  19   1  29   1  30   1
M  END
>  <CHROM.1>
-147.60615878,-73.14807216,41.67596636,1.62439550,-174.02947823,-70.76197890
54.05102481,-57.18832998,-130.59593580,77.17232873,150.33204768,-177.22745700
-73.82965038,-56.89575751,73.91094835,50.44197208,-9.60747933,-2.36853593
-7.95557236,0.85214884,0.15002686,-0.24305462

>  <Name>
2tob cryst

>  <RI>
2.10184e+07

>  <Rbt.Current_Directory>
/home/itssahil/PROJECTS/Mol_Feturizer/New_Systems/rnas/2tob

>  <Rbt.Executable>
rbdock ($Id: //depot/dev/client3/rdock/2013.1/src/exe/rbdock.cxx#4 $)

>  <Rbt.Library>
libRbt.so (2013.1, Build901 2013/11/27)

>  <Rbt.Parameter_File>
/export/apps/rDock/src/rDock_2013.1_src/data/scripts/dock_solv.prm

>  <Rbt.Receptor>
prm/pocket_docking_7.prm

>  <SCORE>
-53.6628

>  <SCORE.INTER>
-44.2452

>  <SCORE.INTER.CONST>
1

>  <SCORE.INTER.POLAR>
-6.14415

>  <SCORE.INTER.ROT>
6

>  <SCORE.INTER.SOLV>
38.4059

>  <SCORE.INTER.VDW>
-29.4183

>  <SCORE.INTER.norm>
-1.38266

>  <SCORE.INTRA>
-9.54535

>  <SCORE.INTRA.DIHEDRAL>
8.37525

>  <SCORE.INTRA.DIHEDRAL.0>
18.4221

>  <SCORE.INTRA.POLAR>
1.39947

>  <SCORE.INTRA.POLAR.0>
-1.57101

>  <SCORE.INTRA.REPUL>
-0.577252

>  <SCORE.INTRA.REPUL.0>
0.730195

>  <SCORE.INTRA.SOLV>
-3.29278

>  <SCORE.INTRA.SOLV.lig_0>
-127.221

>  <SCORE.INTRA.VDW>
-13.9585

>  <SCORE.INTRA.VDW.0>
10.8385

>  <SCORE.INTRA.norm>
-0.298292

>  <SCORE.RESTR>
0.127774

>  <SCORE.RESTR.CAVITY>
0.127774

>  <SCORE.RESTR.norm>
0.00399295

>  <SCORE.SYSTEM>
0

>  <SCORE.SYSTEM.CONST>
0

>  <SCORE.SYSTEM.DIHEDRAL>
0

>  <SCORE.SYSTEM.SOLV>
0

>  <SCORE.SYSTEM.norm>
0

>  <SCORE.heavy>
32

>  <SCORE.norm>
-1.67696

>  <RMSD>
1.228

$$$$
2tob cryst
 OpenBabel11021811463D
libRbt.so/2013.1/901 2013/11/27
 32 34  0  0  0  0  0  0  0  0999 V2000
   -8.3599   -0.2271   -7.5088 C   0  0  2  0  0  0  0  0  0  0  0  0
   -8.1961    1.2635   -7.7890 C   0  0  1  0  0  0  0  0  0  0  0  0
   -7.5805    1.4423   -9.1771 C   0  0  2  0  0  0  0  0  0  0  0  0
   -6.2658    0.6601   -9.2967 C   0  0  1  0  0  0  0  0  0  0  0  0
   -6.4834   -0.7976   -8.8766 C   0  0  1  0  0  0  0  0  0  0  0  0
   -5.2126   -1.6292   -8.8183 C   0  0  0  0  0  0  0  0  0  0  0  0
   -9.4641    1.9117   -7.7353 O   0  0  0  0  0  0  0  0  0  0  0  0
   -7.3185    2.8410   -9.6427 N   0  3  0  0  0  0  0  0  0  0  0  0
   -5.8172    0.7135  -10.6451 O   0  0  0  0  0  0  0  0  0  0  0  0
   -7.0890   -0.8466   -7.5693 O   0  0  0  0  0  0  0  0  0  0  0  0
   -5.5186   -3.0179   -8.7430 O   0  0  0  0  0  0  0  0  0  0  0  0
  -11.5745   -1.1048   -8.9235 C   0  0  2  0  0  0  0  0  0  0  0  0
  -12.8138   -1.9894   -8.7322 C   0  0  0  0  0  0  0  0  0  0  0  0
  -12.4683   -3.4760   -8.7397 C   0  0  1  0  0  0  0  0  0  0  0  0
  -11.4387   -3.7363   -7.6488 C   0  0  2  0  0  0  0  0  0  0  0  0
  -10.1499   -2.9764   -7.9724 C   0  0  1  0  0  0  0  0  0  0  0  0
  -10.4076   -1.4593   -7.9885 C   0  0  1  0  0  0  0  0  0  0  0  0
  -11.9252    0.3436   -8.7376 N   0  3  0  0  0  0  0  0  0  0  0  0
  -13.6958   -4.3149   -8.5453 N   0  3  0  0  0  0  0  0  0  0  0  0
   -9.1581   -3.2974   -7.0053 O   0  0  0  0  0  0  0  0  0  0  0  0
  -11.1649   -5.1451   -7.5397 O   0  0  0  0  0  0  0  0  0  0  0  0
   -9.2322   -0.7699   -8.4628 O   0  0  0  0  0  0  0  0  0  0  0  0
  -10.7118   -5.5281   -6.2706 C   0  0  2  0  0  0  0  0  0  0  0  0
  -10.1426   -6.9497   -6.3269 C   0  0  1  0  0  0  0  0  0  0  0  0
  -11.2623   -7.9853   -6.4339 C   0  0  0  0  0  0  0  0  0  0  0  0
  -12.2594   -7.7525   -5.3103 C   0  0  1  0  0  0  0  0  0  0  0  0
  -12.8047   -6.3386   -5.4116 C   0  0  1  0  0  0  0  0  0  0  0  0
  -13.8137   -6.0464   -4.3158 C   0  0  0  0  0  0  0  0  0  0  0  0
   -9.2362   -7.0774   -7.5125 N   0  3  0  0  0  0  0  0  0  0  0  0
  -15.0100   -6.9312   -4.5368 N   0  3  0  0  0  0  0  0  0  0  0  0
  -13.3234   -8.6901   -5.3920 O   0  0  0  0  0  0  0  0  0  0  0  0
  -11.7230   -5.4013   -5.2765 O   0  0  0  0  0  0  0  0  0  0  0  0
  1  2  1  0  0  0  0
  1 22  1  6  0  0  0
  1 10  1  0  0  0  0
  2  3  1  0  0  0  0
  2  7  1  6  0  0  0
  3  4  1  0  0  0  0
  3  8  1  1  0  0  0
  4  5  1  0  0  0  0
  4  9  1  6  0  0  0
  5  6  1  1  0  0  0
  5 10  1  0  0  0  0
  6 11  1  0  0  0  0
 12 13  1  0  0  0  0
 12 17  1  0  0  0  0
 12 18  1  1  0  0  0
 13 14  1  0  0  0  0
 14 15  1  0  0  0  0
 14 19  1  1  0  0  0
 15 16  1  0  0  0  0
 15 21  1  6  0  0  0
 16 17  1  0  0  0  0
 16 20  1  1  0  0  0
 17 22  1  6  0  0  0
 23 21  1  6  0  0  0
 23 24  1  0  0  0  0
 23 32  1  0  0  0  0
 24 25  1  0  0  0  0
 24 29  1  6  0  0  0
 25 26  1  0  0  0  0
 26 27  1  0  0  0  0
 26 31  1  6  0  0  0
 27 28  1  1  0  0  0
 27 32  1  0  0  0  0
 28 30  1  0  0  0  0
M  CHG  5   8   1  18   1  19   1  29   1  30   1
M  END
>  <CHROM.1>
-123.73079605,-179.94324546,88.47037990,-172.55588201,-165.92279008,-78.38697212
171.14160893,69.57167014,-154.43708823,-169.95727796,140.94471053,-166.98443390
-159.43200516,71.04935042,-65.48231749,55.18491749,-10.04927149,-2.94455418
-7.59869608,0.97749838,0.15226676,-0.29999238

>  <Name>
2tob cryst

>  <RI>
2.9538e+07

>  <Rbt.Current_Directory>
/home/itssahil/PROJECTS/Mol_Feturizer/New_Systems/rnas/2tob

>  <Rbt.Executable>
rbdock ($Id: //depot/dev/client3/rdock/2013.1/src/exe/rbdock.cxx#4 $)

>  <Rbt.Library>
libRbt.so (2013.1, Build901 2013/11/27)

>  <Rbt.Parameter_File>
/export/apps/rDock/src/rDock_2013.1_src/data/scripts/dock_solv.prm

>  <Rbt.Receptor>
prm/pocket_docking_2.prm

>  <SCORE>
-66.3606

>  <SCORE.INTER>
-45.3615

>  <SCORE.INTER.CONST>
1

>  <SCORE.INTER.POLAR>
-6.59004

>  <SCORE.INTER.ROT>
6

>  <SCORE.INTER.SOLV>
36.7284

>  <SCORE.INTER.VDW>
-28.117

>  <SCORE.INTER.norm>
-1.41755

>  <SCORE.INTRA>
-21.6168

>  <SCORE.INTRA.DIHEDRAL>
4.43224

>  <SCORE.INTRA.DIHEDRAL.0>
18.4221

>  <SCORE.INTRA.POLAR>
-0.845257

>  <SCORE.INTRA.POLAR.0>
-1.57101

>  <SCORE.INTRA.REPUL>
-0.729919

>  <SCORE.INTRA.REPUL.0>
0.730195

>  <SCORE.INTRA.SOLV>
-5.50009

>  <SCORE.INTRA.SOLV.lig_0>
-127.221

>  <SCORE.INTRA.VDW>
-14.5595

>  <SCORE.INTRA.VDW.0>
10.8385

>  <SCORE.INTRA.norm>
-0.675526

>  <SCORE.RESTR>
0.617799

>  <SCORE.RESTR.CAVITY>
0.617799

>  <SCORE.RESTR.norm>
0.0193062

>  <SCORE.SYSTEM>
0

>  <SCORE.SYSTEM.CONST>
0

>  <SCORE.SYSTEM.DIHEDRAL>
0

>  <SCORE.SYSTEM.SOLV>
0

>  <SCORE.SYSTEM.norm>
0

>  <SCORE.heavy>
32

>  <SCORE.norm>
-2.07377

>  <RMSD>
1.240

$$$$
2tob cryst
 OpenBabel11021811463D
libRbt.so/2013.1/901 2013/11/27
 32 34  0  0  0  0  0  0  0  0999 V2000
   -8.8269   -0.2038   -7.5038 C   0  0  2  0  0  0  0  0  0  0  0  0
   -8.8411    1.2850   -7.8363 C   0  0  1  0  0  0  0  0  0  0  0  0
   -8.2285    1.4893   -9.2222 C   0  0  2  0  0  0  0  0  0  0  0  0
   -6.8265    0.8700   -9.2967 C   0  0  1  0  0  0  0  0  0  0  0  0
   -6.8722   -0.5879   -8.8262 C   0  0  1  0  0  0  0  0  0  0  0  0
   -5.5107   -1.2555   -8.7216 C   0  0  0  0  0  0  0  0  0  0  0  0
  -10.1792    1.7748   -7.8223 O   0  0  0  0  0  0  0  0  0  0  0  0
   -8.1308    2.8925   -9.7354 N   0  3  0  0  0  0  0  0  0  0  0  0
   -6.3651    0.9308  -10.6404 O   0  0  0  0  0  0  0  0  0  0  0  0
   -7.4893   -0.6650   -7.5256 O   0  0  0  0  0  0  0  0  0  0  0  0
   -5.6098   -2.6522   -8.9806 O   0  0  0  0  0  0  0  0  0  0  0  0
  -11.9361   -1.2469   -8.9671 C   0  0  2  0  0  0  0  0  0  0  0  0
  -13.1780   -2.1281   -8.7769 C   0  0  0  0  0  0  0  0  0  0  0  0
  -12.8277   -3.6121   -8.7098 C   0  0  1  0  0  0  0  0  0  0  0  0
  -11.8321   -3.8208   -7.5770 C   0  0  2  0  0  0  0  0  0  0  0  0
  -10.5361   -3.0696   -7.8924 C   0  0  1  0  0  0  0  0  0  0  0  0
  -10.7980   -1.5558   -7.9817 C   0  0  1  0  0  0  0  0  0  0  0  0
  -12.2970    0.2065   -8.8547 N   0  3  0  0  0  0  0  0  0  0  0  0
  -14.0580   -4.4474   -8.5181 N   0  3  0  0  0  0  0  0  0  0  0  0
   -9.5743   -3.3445   -6.8818 O   0  0  0  0  0  0  0  0  0  0  0  0
  -11.5574   -5.2224   -7.3990 O   0  0  0  0  0  0  0  0  0  0  0  0
   -9.6105   -0.8820   -8.4481 O   0  0  0  0  0  0  0  0  0  0  0  0
  -10.9873   -5.5250   -6.1556 C   0  0  2  0  0  0  0  0  0  0  0  0
   -9.8486   -6.5345   -6.3356 C   0  0  1  0  0  0  0  0  0  0  0  0
  -10.3954   -7.9330   -6.6236 C   0  0  0  0  0  0  0  0  0  0  0  0
  -11.3977   -8.3036   -5.5424 C   0  0  1  0  0  0  0  0  0  0  0  0
  -12.5109   -7.2707   -5.5182 C   0  0  1  0  0  0  0  0  0  0  0  0
  -13.5500   -7.5902   -4.4588 C   0  0  0  0  0  0  0  0  0  0  0  0
   -8.9737   -6.1021   -7.4720 N   0  3  0  0  0  0  0  0  0  0  0  0
  -14.5982   -6.5118   -4.4951 N   0  3  0  0  0  0  0  0  0  0  0  0
  -11.9379   -9.5937   -5.7910 O   0  0  0  0  0  0  0  0  0  0  0  0
  -11.9548   -5.9799   -5.2156 O   0  0  0  0  0  0  0  0  0  0  0  0
  1  2  1  0  0  0  0
  1 22  1  6  0  0  0
  1 10  1  0  0  0  0
  2  3  1  0  0  0  0
  2  7  1  6  0  0  0
  3  4  1  0  0  0  0
  3  8  1  1  0  0  0
  4  5  1  0  0  0  0
  4  9  1  6  0  0  0
  5  6  1  1  0  0  0
  5 10  1  0  0  0  0
  6 11  1  0  0  0  0
 12 13  1  0  0  0  0
 12 17  1  0  0  0  0
 12 18  1  1  0  0  0
 13 14  1  0  0  0  0
 14 15  1  0  0  0  0
 14 19  1  1  0  0  0
 15 16  1  0  0  0  0
 15 21  1  6  0  0  0
 16 17  1  0  0  0  0
 16 20  1  1  0  0  0
 17 22  1  6  0  0  0
 23 21  1  6  0  0  0
 23 24  1  0  0  0  0
 23 32  1  0  0  0  0
 24 25  1  0  0  0  0
 24 29  1  6  0  0  0
 25 26  1  0  0  0  0
 26 27  1  0  0  0  0
 26 31  1  6  0  0  0
 27 28  1  1  0  0  0
 27 32  1  0  0  0  0
 28 30  1  0  0  0  0
M  CHG  5   8   1  18   1  19   1  29   1  30   1
M  END
>  <CHROM.1>
-116.13300194,178.00748669,52.22414167,74.98695094,-149.36212172,-158.47491486
-116.80626972,57.23155333,-161.88254223,-67.99228378,135.94938684,-137.23902244
159.52043473,-63.90297334,179.29579398,72.59733165,-10.22574914,-3.00009634
-7.62815150,1.08820074,0.10399141,-0.32568153

>  <Name>
2tob cryst

>  <RI>
2.9538e+07

>  <Rbt.Current_Directory>
/home/itssahil/PROJECTS/Mol_Feturizer/New_Systems/rnas/2tob

>  <Rbt.Executable>
rbdock ($Id: //depot/dev/client3/rdock/2013.1/src/exe/rbdock.cxx#4 $)

>  <Rbt.Library>
libRbt.so (2013.1, Build901 2013/11/27)

>  <Rbt.Parameter_File>
/export/apps/rDock/src/rDock_2013.1_src/data/scripts/dock_solv.prm

>  <Rbt.Receptor>
prm/pocket_docking_2.prm

>  <SCORE>
-65.9696

>  <SCORE.INTER>
-50.3686

>  <SCORE.INTER.CONST>
1

>  <SCORE.INTER.POLAR>
-8.31151

>  <SCORE.INTER.ROT>
6

>  <SCORE.INTER.SOLV>
35.2614

>  <SCORE.INTER.VDW>
-25.2278

>  <SCORE.INTER.norm>
-1.57402

>  <SCORE.INTRA>
-15.7176

>  <SCORE.INTRA.DIHEDRAL>
13.3201

>  <SCORE.INTRA.DIHEDRAL.0>
18.4221

>  <SCORE.INTRA.POLAR>
-0.623144

>  <SCORE.INTRA.POLAR.0>
-1.57101

>  <SCORE.INTRA.REPUL>
-0.730195

>  <SCORE.INTRA.REPUL.0>
0.730195

>  <SCORE.INTRA.SOLV>
-5.2746

>  <SCORE.INTRA.SOLV.lig_0>
-127.221

>  <SCORE.INTRA.VDW>
-13.9706

>  <SCORE.INTRA.VDW.0>
10.8385

>  <SCORE.INTRA.norm>
-0.491173

>  <SCORE.RESTR>
0.11653

>  <SCORE.RESTR.CAVITY>
0.11653

>  <SCORE.RESTR.norm>
0.00364158

>  <SCORE.SYSTEM>
0

>  <SCORE.SYSTEM.CONST>
0

>  <SCORE.SYSTEM.DIHEDRAL>
0

>  <SCORE.SYSTEM.SOLV>
0

>  <SCORE.SYSTEM.norm>
0

>  <SCORE.heavy>
32

>  <SCORE.norm>
-2.06155

>  <RMSD>
1.251

$$$$
2tob cryst
 OpenBabel11021811463D
libRbt.so/2013.1/901 2013/11/27
 32 34  0  0  0  0  0  0  0  0999 V2000
   -9.3141    0.5198   -7.8292 C   0  0  2  0  0  0  0  0  0  0  0  0
   -8.4660    1.5141   -8.6160 C   0  0  1  0  0  0  0  0  0  0  0  0
   -7.4583    0.7413   -9.4675 C   0  0  2  0  0  0  0  0  0  0  0  0
   -6.6216   -0.2067   -8.5982 C   0  0  1  0  0  0  0  0  0  0  0  0
   -7.5429   -1.0842   -7.7438 C   0  0  1  0  0  0  0  0  0  0  0  0
   -6.8163   -1.9612   -6.7372 C   0  0  0  0  0  0  0  0  0  0  0  0
   -9.2996    2.3086   -9.4554 O   0  0  0  0  0  0  0  0  0  0  0  0
   -6.5104    1.5372  -10.3101 N   0  3  0  0  0  0  0  0  0  0  0  0
   -5.8217   -1.0240   -9.4434 O   0  0  0  0  0  0  0  0  0  0  0  0
   -8.4640   -0.2563   -7.0060 O   0  0  0  0  0  0  0  0  0  0  0  0
   -7.7358   -2.5587   -5.8288 O   0  0  0  0  0  0  0  0  0  0  0  0
  -12.3519   -0.7925   -9.0441 C   0  0  2  0  0  0  0  0  0  0  0  0
  -13.4974   -1.7892   -8.8216 C   0  0  0  0  0  0  0  0  0  0  0  0
  -13.0357   -3.2378   -8.9536 C   0  0  1  0  0  0  0  0  0  0  0  0
  -11.9058   -3.4751   -7.9611 C   0  0  2  0  0  0  0  0  0  0  0  0
  -10.7115   -2.5903   -8.3271 C   0  0  1  0  0  0  0  0  0  0  0  0
  -11.0902   -1.1025   -8.2231 C   0  0  1  0  0  0  0  0  0  0  0  0
  -12.8017    0.6070   -8.7368 N   0  3  0  0  0  0  0  0  0  0  0  0
  -14.1729   -4.1881   -8.7258 N   0  3  0  0  0  0  0  0  0  0  0  0
   -9.6241   -2.8838   -7.4590 O   0  0  0  0  0  0  0  0  0  0  0  0
  -11.5124   -4.8596   -7.9665 O   0  0  0  0  0  0  0  0  0  0  0  0
  -10.0149   -0.2884   -8.7356 O   0  0  0  0  0  0  0  0  0  0  0  0
  -11.0631   -5.3162   -6.7206 C   0  0  2  0  0  0  0  0  0  0  0  0
   -9.8376   -6.2171   -6.9060 C   0  0  1  0  0  0  0  0  0  0  0  0
  -10.2402   -7.5842   -7.4596 C   0  0  0  0  0  0  0  0  0  0  0  0
  -11.3256   -8.1753   -6.5745 C   0  0  1  0  0  0  0  0  0  0  0  0
  -12.5103   -7.2257   -6.5354 C   0  0  1  0  0  0  0  0  0  0  0  0
  -13.6336   -7.7651   -5.6687 C   0  0  0  0  0  0  0  0  0  0  0  0
   -8.8771   -5.5641   -7.8518 N   0  3  0  0  0  0  0  0  0  0  0  0
  -13.6366   -6.9935   -4.3774 N   0  3  0  0  0  0  0  0  0  0  0  0
  -11.7345   -9.4412   -7.0729 O   0  0  0  0  0  0  0  0  0  0  0  0
  -12.0919   -5.9665   -5.9821 O   0  0  0  0  0  0  0  0  0  0  0  0
  1  2  1  0  0  0  0
  1 22  1  6  0  0  0
  1 10  1  0  0  0  0
  2  3  1  0  0  0  0
  2  7  1  6  0  0  0
  3  4  1  0  0  0  0
  3  8  1  1  0  0  0
  4  5  1  0  0  0  0
  4  9  1  6  0  0  0
  5  6  1  1  0  0  0
  5 10  1  0  0  0  0
  6 11  1  0  0  0  0
 12 13  1  0  0  0  0
 12 17  1  0  0  0  0
 12 18  1  1  0  0  0
 13 14  1  0  0  0  0
 14 15  1  0  0  0  0
 14 19  1  1  0  0  0
 15 16  1  0  0  0  0
 15 21  1  6  0  0  0
 16 17  1  0  0  0  0
 16 20  1  1  0  0  0
 17 22  1  6  0  0  0
 23 21  1  6  0  0  0
 23 24  1  0  0  0  0
 23 32  1  0  0  0  0
 24 25  1  0  0  0  0
 24 29  1  6  0  0  0
 25 26  1  0  0  0  0
 26 27  1  0  0  0  0
 26 31  1  6  0  0  0
 27 28  1  1  0  0  0
 27 32  1  0  0  0  0
 28 30  1  0  0  0  0
M  CHG  5   8   1  18   1  19   1  29   1  30   1
M  END
>  <CHROM.1>
-166.93237609,-72.50236177,-63.22876432,-177.05193873,169.56537284,171.44180835
101.53032015,-176.28927935,-148.05411127,-57.79068456,126.08384629,-138.81198428
166.49084811,60.77687388,105.08513059,-63.27318267,-10.28910222,-2.97827419
-7.78038041,1.09640200,-0.06797797,-0.32649231

>  <Name>
2tob cryst

>  <RI>
0

>  <Rbt.Current_Directory>
/home/itssahil/PROJECTS/Mol_Feturizer/New_Systems/rnas/2tob

>  <Rbt.Executable>
rbdock ($Id: //depot/dev/client3/rdock/2013.1/src/exe/rbdock.cxx#4 $)

>  <Rbt.Library>
libRbt.so (2013.1, Build901 2013/11/27)

>  <Rbt.Parameter_File>
/export/apps/rDock/src/rDock_2013.1_src/data/scripts/dock_solv.prm

>  <Rbt.Receptor>
prm/pocket_docking_3.prm

>  <SCORE>
-65.7732

>  <SCORE.INTER>
-51.8422

>  <SCORE.INTER.CONST>
1

>  <SCORE.INTER.POLAR>
-7.73829

>  <SCORE.INTER.ROT>
6

>  <SCORE.INTER.SOLV>
36.4782

>  <SCORE.INTER.VDW>
-28.5265

>  <SCORE.INTER.norm>
-1.62007

>  <SCORE.INTRA>
-13.938

>  <SCORE.INTRA.DIHEDRAL>
8.363

>  <SCORE.INTRA.DIHEDRAL.0>
18.4221

>  <SCORE.INTRA.POLAR>
0.472932

>  <SCORE.INTRA.POLAR.0>
-1.57101

>  <SCORE.INTRA.REPUL>
-0.686731

>  <SCORE.INTRA.REPUL.0>
0.730195

>  <SCORE.INTRA.SOLV>
-3.81115

>  <SCORE.INTRA.SOLV.lig_0>
-127.221

>  <SCORE.INTRA.VDW>
-14.3883

>  <SCORE.INTRA.VDW.0>
10.8385

>  <SCORE.INTRA.norm>
-0.435564

>  <SCORE.RESTR>
0.0069827

>  <SCORE.RESTR.CAVITY>
0.0069827

>  <SCORE.RESTR.norm>
0.000218209

>  <SCORE.SYSTEM>
0

>  <SCORE.SYSTEM.CONST>
0

>  <SCORE.SYSTEM.DIHEDRAL>
0

>  <SCORE.SYSTEM.SOLV>
0

>  <SCORE.SYSTEM.norm>
0

>  <SCORE.heavy>
32

>  <SCORE.norm>
-2.05541

>  <RMSD>
1.261

$$$$
2tob cryst
 OpenBabel11021811463D
libRbt.so/2013.1/901 2013/11/27
 32 34  0  0  0  0  0  0  0  0999 V2000
   -8.7144   -0.1462   -7.5377 C   0  0  2  0  0  0  0  0  0  0  0  0
   -8.4270    1.3240   -7.8255 C   0  0  1  0  0  0  0  0  0  0  0  0
   -7.7290    1.4365   -9.1812 C   0  0  2  0  0  0  0  0  0  0  0  0
   -6.4711    0.5587   -9.2227 C   0  0  1  0  0  0  0  0  0  0  0  0
   -6.8170   -0.8728   -8.7983 C   0  0  1  0  0  0  0  0  0  0  0  0
   -5.6156   -1.7940   -8.6639 C   0  0  0  0  0  0  0  0  0  0  0  0
   -9.6448    2.0638   -7.8459 O   0  0  0  0  0  0  0  0  0  0  0  0
   -7.3408    2.8052   -9.6480 N   0  3  0  0  0  0  0  0  0  0  0  0
   -5.9507    0.5589  -10.5461 O   0  0  0  0  0  0  0  0  0  0  0  0
   -7.4913   -0.8577   -7.5242 O   0  0  0  0  0  0  0  0  0  0  0  0
   -6.0294   -3.1490   -8.5212 O   0  0  0  0  0  0  0  0  0  0  0  0
  -11.8456   -1.2278   -9.0803 C   0  0  2  0  0  0  0  0  0  0  0  0
  -12.9778   -2.2564   -8.9574 C   0  0  0  0  0  0  0  0  0  0  0  0
  -12.4602   -3.6917   -8.9965 C   0  0  1  0  0  0  0  0  0  0  0  0
  -11.4411   -3.8663   -7.8790 C   0  0  2  0  0  0  0  0  0  0  0  0
  -10.2410   -2.9513   -8.1359 C   0  0  1  0  0  0  0  0  0  0  0  0
  -10.6743   -1.4749   -8.1166 C   0  0  1  0  0  0  0  0  0  0  0  0
  -12.3693    0.1630   -8.8644 N   0  3  0  0  0  0  0  0  0  0  0  0
  -13.5862   -4.6736   -8.8688 N   0  3  0  0  0  0  0  0  0  0  0  0
   -9.2485   -3.1866   -7.1451 O   0  0  0  0  0  0  0  0  0  0  0  0
  -11.0074   -5.2365   -7.8016 O   0  0  0  0  0  0  0  0  0  0  0  0
   -9.5739   -0.6382   -8.5301 O   0  0  0  0  0  0  0  0  0  0  0  0
  -11.0846   -5.7734   -6.5100 C   0  0  2  0  0  0  0  0  0  0  0  0
  -10.4314   -7.1593   -6.4812 C   0  0  1  0  0  0  0  0  0  0  0  0
  -11.3232   -8.2005   -7.1581 C   0  0  0  0  0  0  0  0  0  0  0  0
  -12.7078   -8.1461   -6.5331 C   0  0  1  0  0  0  0  0  0  0  0  0
  -13.2742   -6.7462   -6.6951 C   0  0  1  0  0  0  0  0  0  0  0  0
  -14.6630   -6.6296   -6.0936 C   0  0  0  0  0  0  0  0  0  0  0  0
   -9.1121   -7.1036   -7.1882 N   0  3  0  0  0  0  0  0  0  0  0  0
  -14.5123   -6.4246   -4.6110 N   0  3  0  0  0  0  0  0  0  0  0  0
  -13.5672   -9.0921   -7.1532 O   0  0  0  0  0  0  0  0  0  0  0  0
  -12.4206   -5.8072   -6.0195 O   0  0  0  0  0  0  0  0  0  0  0  0
  1  2  1  0  0  0  0
  1 22  1  6  0  0  0
  1 10  1  0  0  0  0
  2  3  1  0  0  0  0
  2  7  1  6  0  0  0
  3  4  1  0  0  0  0
  3  8  1  1  0  0  0
  4  5  1  0  0  0  0
  4  9  1  6  0  0  0
  5  6  1  1  0  0  0
  5 10  1  0  0  0  0
  6 11  1  0  0  0  0
 12 13  1  0  0  0  0
 12 17  1  0  0  0  0
 12 18  1  1  0  0  0
 13 14  1  0  0  0  0
 14 15  1  0  0  0  0
 14 19  1  1  0  0  0
 15 16  1  0  0  0  0
 15 21  1  6  0  0  0
 16 17  1  0  0  0  0
 16 20  1  1  0  0  0
 17 22  1  6  0  0  0
 23 21  1  6  0  0  0
 23 24  1  0  0  0  0
 23 32  1  0  0  0  0
 24 25  1  0  0  0  0
 24 29  1  6  0  0  0
 25 26  1  0  0  0  0
 26 27  1  0  0  0  0
 26 31  1  6  0  0  0
 27 28  1  1  0  0  0
 27 32  1  0  0  0  0
 28 30  1  0  0  0  0
M  CHG  5   8   1  18   1  19   1  29   1  30   1
M  END
>  <CHROM.1>
-136.45638132,47.12851543,87.54124494,63.64560943,-168.86989197,-84.66180695
-2.50469781,-60.51588012,-129.31212973,60.17115404,147.68081935,-172.36477698
69.75088057,57.67460229,81.45792903,170.97264094,-10.26508493,-3.06192384
-7.87679725,0.99026521,0.08853011,-0.22791539

>  <Name>
2tob cryst

>  <RI>
2.9538e+07

>  <Rbt.Current_Directory>
/home/itssahil/PROJECTS/Mol_Feturizer/New_Systems/rnas/2tob

>  <Rbt.Executable>
rbdock ($Id: //depot/dev/client3/rdock/2013.1/src/exe/rbdock.cxx#4 $)

>  <Rbt.Library>
libRbt.so (2013.1, Build901 2013/11/27)

>  <Rbt.Parameter_File>
/export/apps/rDock/src/rDock_2013.1_src/data/scripts/dock_solv.prm

>  <Rbt.Receptor>
prm/pocket_docking_2.prm

>  <SCORE>
-64.1425

>  <SCORE.INTER>
-53.2882

>  <SCORE.INTER.CONST>
1

>  <SCORE.INTER.POLAR>
-7.83987

>  <SCORE.INTER.ROT>
6

>  <SCORE.INTER.SOLV>
36.8585

>  <SCORE.INTER.VDW>
-29.2788

>  <SCORE.INTER.norm>
-1.66526

>  <SCORE.INTRA>
-11.2407

>  <SCORE.INTRA.DIHEDRAL>
9.68825

>  <SCORE.INTRA.DIHEDRAL.0>
18.4221

>  <SCORE.INTRA.POLAR>
1.39476

>  <SCORE.INTRA.POLAR.0>
-1.57101

>  <SCORE.INTRA.REPUL>
-0.730195

>  <SCORE.INTRA.REPUL.0>
0.730195

>  <SCORE.INTRA.SOLV>
-3.62143

>  <SCORE.INTRA.SOLV.lig_0>
-127.221

>  <SCORE.INTRA.VDW>
-15.3653

>  <SCORE.INTRA.VDW.0>
10.8385

>  <SCORE.INTRA.norm>
-0.351271

>  <SCORE.RESTR>
0.386384

>  <SCORE.RESTR.CAVITY>
0.386384

>  <SCORE.RESTR.norm>
0.0120745

>  <SCORE.SYSTEM>
0

>  <SCORE.SYSTEM.CONST>
0

>  <SCORE.SYSTEM.DIHEDRAL>
0

>  <SCORE.SYSTEM.SOLV>
0

>  <SCORE.SYSTEM.norm>
0

>  <SCORE.heavy>
32

>  <SCORE.norm>
-2.00445

>  <RMSD>
1.276

$$$$
2tob cryst
 OpenBabel11021811463D
libRbt.so/2013.1/901 2013/11/27
 32 34  0  0  0  0  0  0  0  0999 V2000
   -8.9977   -0.0446   -7.3720 C   0  0  2  0  0  0  0  0  0  0  0  0
   -8.5661    1.3856   -7.6805 C   0  0  1  0  0  0  0  0  0  0  0  0
   -7.8804    1.4128   -9.0468 C   0  0  2  0  0  0  0  0  0  0  0  0
   -6.7193    0.4107   -9.0954 C   0  0  1  0  0  0  0  0  0  0  0  0
   -7.2031   -0.9736   -8.6500 C   0  0  1  0  0  0  0  0  0  0  0  0
   -6.1001   -2.0114   -8.5215 C   0  0  0  0  0  0  0  0  0  0  0  0
   -9.7023    2.2457   -7.6927 O   0  0  0  0  0  0  0  0  0  0  0  0
   -7.3616    2.7299   -9.5344 N   0  3  0  0  0  0  0  0  0  0  0  0
   -6.2212    0.3445  -10.4257 O   0  0  0  0  0  0  0  0  0  0  0  0
   -7.8535   -0.8771   -7.3671 O   0  0  0  0  0  0  0  0  0  0  0  0
   -6.6409   -3.3287   -8.5224 O   0  0  0  0  0  0  0  0  0  0  0  0
  -12.1600   -1.1405   -8.9069 C   0  0  2  0  0  0  0  0  0  0  0  0
  -13.2473   -2.2173   -8.7919 C   0  0  0  0  0  0  0  0  0  0  0  0
  -12.6683   -3.6288   -8.8353 C   0  0  1  0  0  0  0  0  0  0  0  0
  -11.6460   -3.7642   -7.7152 C   0  0  2  0  0  0  0  0  0  0  0  0
  -10.4856   -2.7974   -7.9645 C   0  0  1  0  0  0  0  0  0  0  0  0
  -10.9820   -1.3411   -7.9404 C   0  0  1  0  0  0  0  0  0  0  0  0
  -12.7437    0.2256   -8.6870 N   0  3  0  0  0  0  0  0  0  0  0  0
  -13.7513   -4.6588   -8.7153 N   0  3  0  0  0  0  0  0  0  0  0  0
   -9.4870   -2.9940   -6.9715 O   0  0  0  0  0  0  0  0  0  0  0  0
  -11.1540   -5.1148   -7.6422 O   0  0  0  0  0  0  0  0  0  0  0  0
   -9.9175   -0.4561   -8.3469 O   0  0  0  0  0  0  0  0  0  0  0  0
  -11.1898   -5.6518   -6.3487 C   0  0  2  0  0  0  0  0  0  0  0  0
  -10.4348   -6.9848   -6.3161 C   0  0  1  0  0  0  0  0  0  0  0  0
  -11.2468   -8.0920   -6.9888 C   0  0  0  0  0  0  0  0  0  0  0  0
  -12.6311   -8.1392   -6.3625 C   0  0  1  0  0  0  0  0  0  0  0  0
  -13.3007   -6.7861   -6.5283 C   0  0  1  0  0  0  0  0  0  0  0  0
  -14.6939   -6.7716   -5.9257 C   0  0  0  0  0  0  0  0  0  0  0  0
   -9.1240   -6.8330   -7.0248 N   0  3  0  0  0  0  0  0  0  0  0  0
  -14.5588   -6.5313   -4.4469 N   0  3  0  0  0  0  0  0  0  0  0  0
  -13.4179   -9.1488   -6.9786 O   0  0  0  0  0  0  0  0  0  0  0  0
  -12.5191   -5.7837   -5.8566 O   0  0  0  0  0  0  0  0  0  0  0  0
  1  2  1  0  0  0  0
  1 22  1  6  0  0  0
  1 10  1  0  0  0  0
  2  3  1  0  0  0  0
  2  7  1  6  0  0  0
  3  4  1  0  0  0  0
  3  8  1  1  0  0  0
  4  5  1  0  0  0  0
  4  9  1  6  0  0  0
  5  6  1  1  0  0  0
  5 10  1  0  0  0  0
  6 11  1  0  0  0  0
 12 13  1  0  0  0  0
 12 17  1  0  0  0  0
 12 18  1  1  0  0  0
 13 14  1  0  0  0  0
 14 15  1  0  0  0  0
 14 19  1  1  0  0  0
 15 16  1  0  0  0  0
 15 21  1  6  0  0  0
 16 17  1  0  0  0  0
 16 20  1  1  0  0  0
 17 22  1  6  0  0  0
 23 21  1  6  0  0  0
 23 24  1  0  0  0  0
 23 32  1  0  0  0  0
 24 25  1  0  0  0  0
 24 29  1  6  0  0  0
 25 26  1  0  0  0  0
 26 27  1  0  0  0  0
 26 31  1  6  0  0  0
 27 28  1  1  0  0  0
 27 32  1  0  0  0  0
 28 30  1  0  0  0  0
M  CHG  5   8   1  18   1  19   1  29   1  30   1
M  END
>  <CHROM.1>
-145.62646451,-174.40945596,-36.57229928,62.61592592,-161.74534908,-146.94518005
-130.43668845,178.22168734,-130.38585962,173.72993863,154.30167690,-170.33067525
-61.32734745,-60.60421111,82.25882343,-66.07083969,-10.44417563,-3.02851209
-7.72927754,1.01461097,0.10120754,-0.22601639

>  <Name>
2tob cryst

>  <RI>
2.9538e+07

>  <Rbt.Current_Directory>
/home/itssahil/PROJECTS/Mol_Feturizer/New_Systems/rnas/2tob

>  <Rbt.Executable>
rbdock ($Id: //depot/dev/client3/rdock/2013.1/src/exe/rbdock.cxx#4 $)

>  <Rbt.Library>
libRbt.so (2013.1, Build901 2013/11/27)

>  <Rbt.Parameter_File>
/export/apps/rDock/src/rDock_2013.1_src/data/scripts/dock_solv.prm

>  <Rbt.Receptor>
prm/pocket_docking_2.prm

>  <SCORE>
-63.9633

>  <SCORE.INTER>
-50.2983

>  <SCORE.INTER.CONST>
1

>  <SCORE.INTER.POLAR>
-7.12382

>  <SCORE.INTER.ROT>
6

>  <SCORE.INTER.SOLV>
36.1393

>  <SCORE.INTER.VDW>
-29.4325

>  <SCORE.INTER.norm>
-1.57182

>  <SCORE.INTRA>
-14.0409

>  <SCORE.INTRA.DIHEDRAL>
7.90802

>  <SCORE.INTRA.DIHEDRAL.0>
18.4221

>  <SCORE.INTRA.POLAR>
0.747893

>  <SCORE.INTRA.POLAR.0>
-1.57101

>  <SCORE.INTRA.REPUL>
-0.725175

>  <SCORE.INTRA.REPUL.0>
0.730195

>  <SCORE.INTRA.SOLV>
-4.21466

>  <SCORE.INTRA.SOLV.lig_0>
-127.221

>  <SCORE.INTRA.VDW>
-14.8045

>  <SCORE.INTRA.VDW.0>
10.8385

>  <SCORE.INTRA.norm>
-0.438777

>  <SCORE.RESTR>
0.375786

>  <SCORE.RESTR.CAVITY>
0.375786

>  <SCORE.RESTR.norm>
0.0117433

>  <SCORE.SYSTEM>
0

>  <SCORE.SYSTEM.CONST>
0

>  <SCORE.SYSTEM.DIHEDRAL>
0

>  <SCORE.SYSTEM.SOLV>
0

>  <SCORE.SYSTEM.norm>
0

>  <SCORE.heavy>
32

>  <SCORE.norm>
-1.99885

>  <RMSD>
1.299

$$$$
2tob cryst
 OpenBabel11021811463D
libRbt.so/2013.1/901 2013/11/27
 32 34  0  0  0  0  0  0  0  0999 V2000
   -8.0349   -0.4680   -7.5800 C   0  0  2  0  0  0  0  0  0  0  0  0
   -8.0299    1.0459   -7.7671 C   0  0  1  0  0  0  0  0  0  0  0  0
   -7.4943    1.3714   -9.1616 C   0  0  2  0  0  0  0  0  0  0  0  0
   -6.1156    0.7342   -9.3798 C   0  0  1  0  0  0  0  0  0  0  0  0
   -6.1714   -0.7612   -9.0492 C   0  0  1  0  0  0  0  0  0  0  0  0
   -4.8238   -1.4630   -9.0917 C   0  0  0  0  0  0  0  0  0  0  0  0
   -9.3519    1.5589   -7.6250 O   0  0  0  0  0  0  0  0  0  0  0  0
   -7.3905    2.8156   -9.5431 N   0  3  0  0  0  0  0  0  0  0  0  0
   -5.7319    0.9159  -10.7371 O   0  0  0  0  0  0  0  0  0  0  0  0
   -6.7132   -0.9518   -7.7269 O   0  0  0  0  0  0  0  0  0  0  0  0
   -4.8708   -2.5989   -9.9491 O   0  0  0  0  0  0  0  0  0  0  0  0
  -11.2372   -1.0351   -9.0828 C   0  0  2  0  0  0  0  0  0  0  0  0
  -12.6014   -1.7181   -8.9160 C   0  0  0  0  0  0  0  0  0  0  0  0
  -12.4827   -3.2388   -8.8634 C   0  0  1  0  0  0  0  0  0  0  0  0
  -11.5442   -3.6091   -7.7232 C   0  0  2  0  0  0  0  0  0  0  0  0
  -10.1451   -3.0615   -8.0161 C   0  0  1  0  0  0  0  0  0  0  0  0
  -10.1716   -1.5247   -8.0896 C   0  0  1  0  0  0  0  0  0  0  0  0
  -11.3733    0.4552   -8.9563 N   0  3  0  0  0  0  0  0  0  0  0  0
  -13.8283   -3.8782   -8.6945 N   0  3  0  0  0  0  0  0  0  0  0  0
   -9.2487   -3.4908   -6.9992 O   0  0  0  0  0  0  0  0  0  0  0  0
  -11.4890   -5.0380   -7.5595 O   0  0  0  0  0  0  0  0  0  0  0  0
   -8.8896   -1.0355   -8.5356 O   0  0  0  0  0  0  0  0  0  0  0  0
  -10.9838   -5.4373   -6.3153 C   0  0  2  0  0  0  0  0  0  0  0  0
  -10.2298   -6.7634   -6.4596 C   0  0  1  0  0  0  0  0  0  0  0  0
  -11.2013   -7.9305   -6.6378 C   0  0  0  0  0  0  0  0  0  0  0  0
  -12.2161   -7.9054   -5.5063 C   0  0  1  0  0  0  0  0  0  0  0  0
  -12.9461   -6.5736   -5.5196 C   0  0  1  0  0  0  0  0  0  0  0  0
  -13.9808   -6.4896   -4.4122 C   0  0  0  0  0  0  0  0  0  0  0  0
   -9.3190   -6.6927   -7.6467 N   0  3  0  0  0  0  0  0  0  0  0  0
  -14.9971   -5.4516   -4.8027 N   0  3  0  0  0  0  0  0  0  0  0  0
  -13.1455   -8.9698   -5.6526 O   0  0  0  0  0  0  0  0  0  0  0  0
  -11.9989   -5.5107   -5.3199 O   0  0  0  0  0  0  0  0  0  0  0  0
  1  2  1  0  0  0  0
  1 22  1  6  0  0  0
  1 10  1  0  0  0  0
  2  3  1  0  0  0  0
  2  7  1  6  0  0  0
  3  4  1  0  0  0  0
  3  8  1  1  0  0  0
  4  5  1  0  0  0  0
  4  9  1  6  0  0  0
  5  6  1  1  0  0  0
  5 10  1  0  0  0  0
  6 11  1  0  0  0  0
 12 13  1  0  0  0  0
 12 17  1  0  0  0  0
 12 18  1  1  0  0  0
 13 14  1  0  0  0  0
 14 15  1  0  0  0  0
 14 19  1  1  0  0  0
 15 16  1  0  0  0  0
 15 21  1  6  0  0  0
 16 17  1  0  0  0  0
 16 20  1  1  0  0  0
 17 22  1  6  0  0  0
 23 21  1  6  0  0  0
 23 24  1  0  0  0  0
 23 32  1  0  0  0  0
 24 25  1  0  0  0  0
 24 29  1  6  0  0  0
 25 26  1  0  0  0  0
 26 27  1  0  0  0  0
 26 31  1  6  0  0  0
 27 28  1  1  0  0  0
 27 32  1  0  0  0  0
 28 30  1  0  0  0  0
M  CHG  5   8   1  18   1  19   1  29   1  30   1
M  END
>  <CHROM.1>
-105.76372770,176.53285624,-160.46608282,-151.69000288,-126.20967166,143.40755126
-70.62220627,61.36928280,-162.02479885,176.32155748,134.56809392,-148.04222238
-36.96244709,-61.67128014,-157.73424564,-61.73470827,-9.95781831,-2.87886827
-7.74798265,-0.92290864,-0.19713962,2.86968339

>  <Name>
2tob cryst

>  <RI>
2.9538e+07

>  <Rbt.Current_Directory>
/home/itssahil/PROJECTS/Mol_Feturizer/New_Systems/rnas/2tob

>  <Rbt.Executable>
rbdock ($Id: //depot/dev/client3/rdock/2013.1/src/exe/rbdock.cxx#4 $)

>  <Rbt.Library>
libRbt.so (2013.1, Build901 2013/11/27)

>  <Rbt.Parameter_File>
/export/apps/rDock/src/rDock_2013.1_src/data/scripts/dock_solv.prm

>  <Rbt.Receptor>
prm/pocket_docking_2.prm

>  <SCORE>
-55.9967

>  <SCORE.INTER>
-46.5301

>  <SCORE.INTER.CONST>
1

>  <SCORE.INTER.POLAR>
-7.43004

>  <SCORE.INTER.ROT>
6

>  <SCORE.INTER.SOLV>
35.4118

>  <SCORE.INTER.VDW>
-25.6572

>  <SCORE.INTER.norm>
-1.45407

>  <SCORE.INTRA>
-10.7075

>  <SCORE.INTRA.DIHEDRAL>
16.834

>  <SCORE.INTRA.DIHEDRAL.0>
18.4221

>  <SCORE.INTRA.POLAR>
0.51967

>  <SCORE.INTRA.POLAR.0>
-1.57101

>  <SCORE.INTRA.REPUL>
-0.730195

>  <SCORE.INTRA.REPUL.0>
0.730195

>  <SCORE.INTRA.SOLV>
-5.65698

>  <SCORE.INTRA.SOLV.lig_0>
-127.221

>  <SCORE.INTRA.VDW>
-14.412

>  <SCORE.INTRA.VDW.0>
10.8385

>  <SCORE.INTRA.norm>
-0.334611

>  <SCORE.RESTR>
1.241

>  <SCORE.RESTR.CAVITY>
1.241

>  <SCORE.RESTR.norm>
0.0387814

>  <SCORE.SYSTEM>
0

>  <SCORE.SYSTEM.CONST>
0

>  <SCORE.SYSTEM.DIHEDRAL>
0

>  <SCORE.SYSTEM.SOLV>
0

>  <SCORE.SYSTEM.norm>
0

>  <SCORE.heavy>
32

>  <SCORE.norm>
-1.7499

>  <RMSD>
1.313

$$$$
2tob cryst
 OpenBabel11021811463D
libRbt.so/2013.1/901 2013/11/27
 32 34  0  0  0  0  0  0  0  0999 V2000
   -8.7574   -0.3134   -7.5051 C   0  0  2  0  0  0  0  0  0  0  0  0
   -8.5099    1.1638   -7.7943 C   0  0  1  0  0  0  0  0  0  0  0  0
   -7.8062    1.2934   -9.1455 C   0  0  2  0  0  0  0  0  0  0  0  0
   -6.5236    0.4517   -9.1765 C   0  0  1  0  0  0  0  0  0  0  0  0
   -6.8315   -0.9882   -8.7513 C   0  0  1  0  0  0  0  0  0  0  0  0
   -5.6053   -1.8746   -8.6068 C   0  0  0  0  0  0  0  0  0  0  0  0
   -9.7481    1.8687   -7.8245 O   0  0  0  0  0  0  0  0  0  0  0  0
   -7.4540    2.6716   -9.6127 N   0  3  0  0  0  0  0  0  0  0  0  0
   -5.9944    0.4640  -10.4964 O   0  0  0  0  0  0  0  0  0  0  0  0
   -7.5146   -0.9897   -7.4818 O   0  0  0  0  0  0  0  0  0  0  0  0
   -5.9826   -3.2339   -8.4126 O   0  0  0  0  0  0  0  0  0  0  0  0
  -11.8969   -1.2946   -9.0513 C   0  0  2  0  0  0  0  0  0  0  0  0
  -13.0847   -2.2581   -8.9265 C   0  0  0  0  0  0  0  0  0  0  0  0
  -12.6481   -3.7201   -8.9628 C   0  0  1  0  0  0  0  0  0  0  0  0
  -11.6401   -3.9492   -7.8450 C   0  0  2  0  0  0  0  0  0  0  0  0
  -10.3909   -3.1032   -8.1037 C   0  0  1  0  0  0  0  0  0  0  0  0
  -10.7410   -1.6048   -8.0871 C   0  0  1  0  0  0  0  0  0  0  0  0
  -12.3421    0.1238   -8.8381 N   0  3  0  0  0  0  0  0  0  0  0  0
  -13.8270   -4.6374   -8.8332 N   0  3  0  0  0  0  0  0  0  0  0  0
   -9.4130   -3.3916   -7.1124 O   0  0  0  0  0  0  0  0  0  0  0  0
  -11.2836   -5.3413   -7.7651 O   0  0  0  0  0  0  0  0  0  0  0  0
   -9.5957   -0.8316   -8.5022 O   0  0  0  0  0  0  0  0  0  0  0  0
  -11.2820   -5.8420   -6.4566 C   0  0  2  0  0  0  0  0  0  0  0  0
  -10.4849   -7.1494   -6.3992 C   0  0  1  0  0  0  0  0  0  0  0  0
  -11.2720   -8.3001   -7.0270 C   0  0  0  0  0  0  0  0  0  0  0  0
  -12.6441   -8.3725   -6.3766 C   0  0  1  0  0  0  0  0  0  0  0  0
  -13.3586   -7.0462   -6.5692 C   0  0  1  0  0  0  0  0  0  0  0  0
  -14.7419   -7.0578   -5.9442 C   0  0  0  0  0  0  0  0  0  0  0  0
   -9.1908   -6.9772   -7.1336 N   0  3  0  0  0  0  0  0  0  0  0  0
  -14.5775   -7.0155   -4.4495 N   0  3  0  0  0  0  0  0  0  0  0  0
  -13.4082   -9.4233   -6.9510 O   0  0  0  0  0  0  0  0  0  0  0  0
  -12.5986   -6.0011   -5.9390 O   0  0  0  0  0  0  0  0  0  0  0  0
  1  2  1  0  0  0  0
  1 22  1  6  0  0  0
  1 10  1  0  0  0  0
  2  3  1  0  0  0  0
  2  7  1  6  0  0  0
  3  4  1  0  0  0  0
  3  8  1  1  0  0  0
  4  5  1  0  0  0  0
  4  9  1  6  0  0  0
  5  6  1  1  0  0  0
  5 10  1  0  0  0  0
  6 11  1  0  0  0  0
 12 13  1  0  0  0  0
 12 17  1  0  0  0  0
 12 18  1  1  0  0  0
 13 14  1  0  0  0  0
 14 15  1  0  0  0  0
 14 19  1  1  0  0  0
 15 16  1  0  0  0  0
 15 21  1  6  0  0  0
 16 17  1  0  0  0  0
 16 20  1  1  0  0  0
 17 22  1  6  0  0  0
 23 21  1  6  0  0  0
 23 24  1  0  0  0  0
 23 32  1  0  0  0  0
 24 25  1  0  0  0  0
 24 29  1  6  0  0  0
 25 26  1  0  0  0  0
 26 27  1  0  0  0  0
 26 31  1  6  0  0  0
 27 28  1  1  0  0  0
 27 32  1  0  0  0  0
 28 30  1  0  0  0  0
M  CHG  5   8   1  18   1  19   1  29   1  30   1
M  END
>  <CHROM.1>
-131.28682346,-179.76720565,-39.29429401,177.32767155,-171.09603098,67.50930422
-102.44657703,66.93776357,-134.36487768,79.07229201,143.64298993,-162.07203405
71.51508319,-57.46672313,72.39994119,-39.39778439,-10.33784952,-3.20182657
-7.82003255,0.99347605,0.07373856,-0.24863478

>  <Name>
2tob cryst

>  <RI>
0

>  <Rbt.Current_Directory>
/home/itssahil/PROJECTS/Mol_Feturizer/New_Systems/rnas/2tob

>  <Rbt.Executable>
rbdock ($Id: //depot/dev/client3/rdock/2013.1/src/exe/rbdock.cxx#4 $)

>  <Rbt.Library>
libRbt.so (2013.1, Build901 2013/11/27)

>  <Rbt.Parameter_File>
/export/apps/rDock/src/rDock_2013.1_src/data/scripts/dock_solv.prm

>  <Rbt.Receptor>
prm/pocket_docking_3.prm

>  <SCORE>
-58.5255

>  <SCORE.INTER>
-45.0219

>  <SCORE.INTER.CONST>
1

>  <SCORE.INTER.POLAR>
-6.06639

>  <SCORE.INTER.ROT>
6

>  <SCORE.INTER.SOLV>
34.8866

>  <SCORE.INTER.VDW>
-29.0222

>  <SCORE.INTER.norm>
-1.40693

>  <SCORE.INTRA>
-13.5036

>  <SCORE.INTRA.DIHEDRAL>
8.76106

>  <SCORE.INTRA.DIHEDRAL.0>
18.4221

>  <SCORE.INTRA.POLAR>
0.959165

>  <SCORE.INTRA.POLAR.0>
-1.57101

>  <SCORE.INTRA.REPUL>
-0.730195

>  <SCORE.INTRA.REPUL.0>
0.730195

>  <SCORE.INTRA.SOLV>
-3.93771

>  <SCORE.INTRA.SOLV.lig_0>
-127.221

>  <SCORE.INTRA.VDW>
-15.5255

>  <SCORE.INTRA.VDW.0>
10.8385

>  <SCORE.INTRA.norm>
-0.421989

>  <SCORE.RESTR>
0

>  <SCORE.RESTR.CAVITY>
0

>  <SCORE.RESTR.norm>
0

>  <SCORE.SYSTEM>
0

>  <SCORE.SYSTEM.CONST>
0

>  <SCORE.SYSTEM.DIHEDRAL>
0

>  <SCORE.SYSTEM.SOLV>
0

>  <SCORE.SYSTEM.norm>
0

>  <SCORE.heavy>
32

>  <SCORE.norm>
-1.82892

>  <RMSD>
1.313

$$$$
2tob cryst
 OpenBabel11021811463D
libRbt.so/2013.1/901 2013/11/27
 32 34  0  0  0  0  0  0  0  0999 V2000
   -9.2578   -0.0387   -7.1621 C   0  0  2  0  0  0  0  0  0  0  0  0
   -8.7957    1.3721   -7.5128 C   0  0  1  0  0  0  0  0  0  0  0  0
   -7.9810    1.3200   -8.8056 C   0  0  2  0  0  0  0  0  0  0  0  0
   -6.8225    0.3214   -8.6814 C   0  0  1  0  0  0  0  0  0  0  0  0
   -7.3497   -1.0356   -8.2025 C   0  0  1  0  0  0  0  0  0  0  0  0
   -6.2662   -2.0594   -7.9058 C   0  0  0  0  0  0  0  0  0  0  0  0
   -9.9237    2.2255   -7.6865 O   0  0  0  0  0  0  0  0  0  0  0  0
   -7.4150    2.6075   -9.3191 N   0  3  0  0  0  0  0  0  0  0  0  0
   -6.1982    0.1775   -9.9510 O   0  0  0  0  0  0  0  0  0  0  0  0
   -8.1209   -0.8649   -6.9965 O   0  0  0  0  0  0  0  0  0  0  0  0
   -5.4073   -2.2284   -9.0290 O   0  0  0  0  0  0  0  0  0  0  0  0
  -12.3151   -1.1130   -8.8671 C   0  0  2  0  0  0  0  0  0  0  0  0
  -13.4492   -2.1448   -8.8004 C   0  0  0  0  0  0  0  0  0  0  0  0
  -12.9257   -3.5784   -8.8002 C   0  0  1  0  0  0  0  0  0  0  0  0
  -11.9701   -3.7417   -7.6263 C   0  0  2  0  0  0  0  0  0  0  0  0
  -10.7605   -2.8243   -7.8222 C   0  0  1  0  0  0  0  0  0  0  0  0
  -11.1988   -1.3493   -7.8376 C   0  0  1  0  0  0  0  0  0  0  0  0
  -12.8545    0.2774   -8.6907 N   0  3  0  0  0  0  0  0  0  0  0  0
  -14.0539   -4.5634   -8.7287 N   0  3  0  0  0  0  0  0  0  0  0  0
   -9.8243   -3.0492   -6.7757 O   0  0  0  0  0  0  0  0  0  0  0  0
  -11.5371   -5.1098   -7.5151 O   0  0  0  0  0  0  0  0  0  0  0  0
  -10.0797   -0.5116   -8.1948 O   0  0  0  0  0  0  0  0  0  0  0  0
  -11.5689   -5.5995   -6.2029 C   0  0  2  0  0  0  0  0  0  0  0  0
  -10.4034   -6.5688   -5.9794 C   0  0  1  0  0  0  0  0  0  0  0  0
  -10.6617   -7.9068   -6.6728 C   0  0  0  0  0  0  0  0  0  0  0  0
  -12.0148   -8.4394   -6.2299 C   0  0  1  0  0  0  0  0  0  0  0  0
  -13.0891   -7.4230   -6.5754 C   0  0  1  0  0  0  0  0  0  0  0  0
  -14.4688   -7.9017   -6.1614 C   0  0  0  0  0  0  0  0  0  0  0  0
   -9.1431   -5.9667   -6.5207 N   0  3  0  0  0  0  0  0  0  0  0  0
  -14.8252   -9.0880   -7.0150 N   0  3  0  0  0  0  0  0  0  0  0  0
  -12.2927   -9.6763   -6.8709 O   0  0  0  0  0  0  0  0  0  0  0  0
  -12.8215   -6.1937   -5.8796 O   0  0  0  0  0  0  0  0  0  0  0  0
  1  2  1  0  0  0  0
  1 22  1  6  0  0  0
  1 10  1  0  0  0  0
  2  3  1  0  0  0  0
  2  7  1  6  0  0  0
  3  4  1  0  0  0  0
  3  8  1  1  0  0  0
  4  5  1  0  0  0  0
  4  9  1  6  0  0  0
  5  6  1  1  0  0  0
  5 10  1  0  0  0  0
  6 11  1  0  0  0  0
 12 13  1  0  0  0  0
 12 17  1  0  0  0  0
 12 18  1  1  0  0  0
 13 14  1  0  0  0  0
 14 15  1  0  0  0  0
 14 19  1  1  0  0  0
 15 16  1  0  0  0  0
 15 21  1  6  0  0  0
 16 17  1  0  0  0  0
 16 20  1  1  0  0  0
 17 22  1  6  0  0  0
 23 21  1  6  0  0  0
 23 24  1  0  0  0  0
 23 32  1  0  0  0  0
 24 25  1  0  0  0  0
 24 29  1  6  0  0  0
 25 26  1  0  0  0  0
 26 27  1  0  0  0  0
 26 31  1  6  0  0  0
 27 28  1  1  0  0  0
 27 32  1  0  0  0  0
 28 30  1  0  0  0  0
M  CHG  5   8   1  18   1  19   1  29   1  30   1
M  END
>  <CHROM.1>
-144.20149007,-61.71099406,-157.28266741,-60.32372692,-54.40480057,170.54514371
-8.56802867,-57.83106057,-134.85872609,-177.68957654,149.33628916,-144.92129686
115.97611908,41.91548237,-66.98708663,46.95213192,-10.47628461,-3.14503111
-7.68066819,1.04442121,-0.02906497,-0.23298184

>  <Name>
2tob cryst

>  <RI>
2.9538e+07

>  <Rbt.Current_Directory>
/home/itssahil/PROJECTS/Mol_Feturizer/New_Systems/rnas/2tob

>  <Rbt.Executable>
rbdock ($Id: //depot/dev/client3/rdock/2013.1/src/exe/rbdock.cxx#4 $)

>  <Rbt.Library>
libRbt.so (2013.1, Build901 2013/11/27)

>  <Rbt.Parameter_File>
/export/apps/rDock/src/rDock_2013.1_src/data/scripts/dock_solv.prm

>  <Rbt.Receptor>
prm/pocket_docking_2.prm

>  <SCORE>
-65.9868

>  <SCORE.INTER>
-49.0019

>  <SCORE.INTER.CONST>
1

>  <SCORE.INTER.POLAR>
-7.05597

>  <SCORE.INTER.ROT>
6

>  <SCORE.INTER.SOLV>
34.2072

>  <SCORE.INTER.VDW>
-28.1505

>  <SCORE.INTER.norm>
-1.53131

>  <SCORE.INTRA>
-17.0345

>  <SCORE.INTRA.DIHEDRAL>
11.4438

>  <SCORE.INTRA.DIHEDRAL.0>
18.4221

>  <SCORE.INTRA.POLAR>
-1.17962

>  <SCORE.INTRA.POLAR.0>
-1.57101

>  <SCORE.INTRA.REPUL>
-0.730195

>  <SCORE.INTRA.REPUL.0>
0.730195

>  <SCORE.INTRA.SOLV>
-3.32203

>  <SCORE.INTRA.SOLV.lig_0>
-127.221

>  <SCORE.INTRA.VDW>
-13.4337

>  <SCORE.INTRA.VDW.0>
10.8385

>  <SCORE.INTRA.norm>
-0.532329

>  <SCORE.RESTR>
0.0496375

>  <SCORE.RESTR.CAVITY>
0.0496375

>  <SCORE.RESTR.norm>
0.00155117

>  <SCORE.SYSTEM>
0

>  <SCORE.SYSTEM.CONST>
0

>  <SCORE.SYSTEM.DIHEDRAL>
0

>  <SCORE.SYSTEM.SOLV>
0

>  <SCORE.SYSTEM.norm>
0

>  <SCORE.heavy>
32

>  <SCORE.norm>
-2.06209

>  <RMSD>
1.323

$$$$
2tob cryst
 OpenBabel11021811463D
libRbt.so/2013.1/901 2013/11/27
 32 34  0  0  0  0  0  0  0  0999 V2000
   -8.9659   -0.1238   -7.4645 C   0  0  2  0  0  0  0  0  0  0  0  0
   -8.5766    1.3036   -7.8360 C   0  0  1  0  0  0  0  0  0  0  0  0
   -7.8599    1.2864   -9.1864 C   0  0  2  0  0  0  0  0  0  0  0  0
   -6.6641    0.3252   -9.1582 C   0  0  1  0  0  0  0  0  0  0  0  0
   -7.1104   -1.0514   -8.6536 C   0  0  1  0  0  0  0  0  0  0  0  0
   -5.9756   -2.0414   -8.4480 C   0  0  0  0  0  0  0  0  0  0  0  0
   -9.7412    2.1209   -7.9171 O   0  0  0  0  0  0  0  0  0  0  0  0
   -7.3753    2.5951   -9.7291 N   0  3  0  0  0  0  0  0  0  0  0  0
   -6.1325    0.2101  -10.4722 O   0  0  0  0  0  0  0  0  0  0  0  0
   -7.7941   -0.9138   -7.3919 O   0  0  0  0  0  0  0  0  0  0  0  0
   -6.4723   -3.3741   -8.3768 O   0  0  0  0  0  0  0  0  0  0  0  0
  -12.1005   -1.2897   -8.9675 C   0  0  2  0  0  0  0  0  0  0  0  0
  -13.1989   -2.3512   -8.8194 C   0  0  0  0  0  0  0  0  0  0  0  0
  -12.6356   -3.7696   -8.8302 C   0  0  1  0  0  0  0  0  0  0  0  0
  -11.6084   -3.8881   -7.7127 C   0  0  2  0  0  0  0  0  0  0  0  0
  -10.4390   -2.9408   -7.9926 C   0  0  1  0  0  0  0  0  0  0  0  0
  -10.9193   -1.4789   -8.0027 C   0  0  1  0  0  0  0  0  0  0  0  0
  -12.6680    0.0879   -8.7789 N   0  3  0  0  0  0  0  0  0  0  0  0
  -13.7292   -4.7841   -8.6783 N   0  3  0  0  0  0  0  0  0  0  0  0
   -9.4369   -3.1234   -7.0004 O   0  0  0  0  0  0  0  0  0  0  0  0
  -11.1309   -5.2418   -7.6082 O   0  0  0  0  0  0  0  0  0  0  0  0
   -9.8475   -0.6162   -8.4372 O   0  0  0  0  0  0  0  0  0  0  0  0
  -10.6935   -5.5807   -6.3212 C   0  0  2  0  0  0  0  0  0  0  0  0
  -10.0898   -6.9890   -6.3293 C   0  0  1  0  0  0  0  0  0  0  0  0
  -11.1822   -8.0539   -6.4299 C   0  0  0  0  0  0  0  0  0  0  0  0
  -12.2062   -7.8163   -5.3318 C   0  0  1  0  0  0  0  0  0  0  0  0
  -12.7828   -6.4191   -5.4804 C   0  0  1  0  0  0  0  0  0  0  0  0
  -13.8195   -6.1231   -4.4119 C   0  0  0  0  0  0  0  0  0  0  0  0
   -9.1577   -7.1254   -7.4939 N   0  3  0  0  0  0  0  0  0  0  0  0
  -15.0036   -7.0195   -4.6514 N   0  3  0  0  0  0  0  0  0  0  0  0
  -13.2459   -8.7812   -5.4086 O   0  0  0  0  0  0  0  0  0  0  0  0
  -11.7264   -5.4527   -5.3499 O   0  0  0  0  0  0  0  0  0  0  0  0
  1  2  1  0  0  0  0
  1 22  1  6  0  0  0
  1 10  1  0  0  0  0
  2  3  1  0  0  0  0
  2  7  1  6  0  0  0
  3  4  1  0  0  0  0
  3  8  1  1  0  0  0
  4  5  1  0  0  0  0
  4  9  1  6  0  0  0
  5  6  1  1  0  0  0
  5 10  1  0  0  0  0
  6 11  1  0  0  0  0
 12 13  1  0  0  0  0
 12 17  1  0  0  0  0
 12 18  1  1  0  0  0
 13 14  1  0  0  0  0
 14 15  1  0  0  0  0
 14 19  1  1  0  0  0
 15 16  1  0  0  0  0
 15 21  1  6  0  0  0
 16 17  1  0  0  0  0
 16 20  1  1  0  0  0
 17 22  1  6  0  0  0
 23 21  1  6  0  0  0
 23 24  1  0  0  0  0
 23 32  1  0  0  0  0
 24 25  1  0  0  0  0
 24 29  1  6  0  0  0
 25 26  1  0  0  0  0
 26 27  1  0  0  0  0
 26 31  1  6  0  0  0
 27 28  1  1  0  0  0
 27 32  1  0  0  0  0
 28 30  1  0  0  0  0
M  CHG  5   8   1  18   1  19   1  29   1  30   1
M  END
>  <CHROM.1>
-143.44732633,46.63548316,81.34402392,70.89832331,-162.47585908,80.53997498
-10.78969668,176.51181731,-152.81725116,75.95667953,150.44185363,-174.99184326
82.27111895,61.89323167,-66.79588564,174.02383017,-10.32173115,-3.07733146
-7.59474355,1.03205900,0.12022612,-0.31029861

>  <Name>
2tob cryst

>  <RI>
2.9538e+07

>  <Rbt.Current_Directory>
/home/itssahil/PROJECTS/Mol_Feturizer/New_Systems/rnas/2tob

>  <Rbt.Executable>
rbdock ($Id: //depot/dev/client3/rdock/2013.1/src/exe/rbdock.cxx#4 $)

>  <Rbt.Library>
libRbt.so (2013.1, Build901 2013/11/27)

>  <Rbt.Parameter_File>
/export/apps/rDock/src/rDock_2013.1_src/data/scripts/dock_solv.prm

>  <Rbt.Receptor>
prm/pocket_docking_2.prm

>  <SCORE>
-68.6006

>  <SCORE.INTER>
-52.4962

>  <SCORE.INTER.CONST>
1

>  <SCORE.INTER.POLAR>
-7.33595

>  <SCORE.INTER.ROT>
6

>  <SCORE.INTER.SOLV>
35.8998

>  <SCORE.INTER.VDW>
-30.1109

>  <SCORE.INTER.norm>
-1.64051

>  <SCORE.INTRA>
-16.7652

>  <SCORE.INTRA.DIHEDRAL>
4.44045

>  <SCORE.INTRA.DIHEDRAL.0>
18.4221

>  <SCORE.INTRA.POLAR>
0.617639

>  <SCORE.INTRA.POLAR.0>
-1.57101

>  <SCORE.INTRA.REPUL>
-0.730195

>  <SCORE.INTRA.REPUL.0>
0.730195

>  <SCORE.INTRA.SOLV>
-5.53222

>  <SCORE.INTRA.SOLV.lig_0>
-127.221

>  <SCORE.INTRA.VDW>
-14.6683

>  <SCORE.INTRA.VDW.0>
10.8385

>  <SCORE.INTRA.norm>
-0.523911

>  <SCORE.RESTR>
0.660758

>  <SCORE.RESTR.CAVITY>
0.660758

>  <SCORE.RESTR.norm>
0.0206487

>  <SCORE.SYSTEM>
0

>  <SCORE.SYSTEM.CONST>
0

>  <SCORE.SYSTEM.DIHEDRAL>
0

>  <SCORE.SYSTEM.SOLV>
0

>  <SCORE.SYSTEM.norm>
0

>  <SCORE.heavy>
32

>  <SCORE.norm>
-2.14377

>  <RMSD>
1.324

$$$$
2tob cryst
 OpenBabel11021811463D
libRbt.so/2013.1/901 2013/11/27
 32 34  0  0  0  0  0  0  0  0999 V2000
   -8.7306   -0.3768   -7.2378 C   0  0  2  0  0  0  0  0  0  0  0  0
   -8.4184    1.0921   -7.5059 C   0  0  1  0  0  0  0  0  0  0  0  0
   -7.6431    1.2025   -8.8191 C   0  0  2  0  0  0  0  0  0  0  0  0
   -6.3901    0.3172   -8.7899 C   0  0  1  0  0  0  0  0  0  0  0  0
   -6.7683   -1.1128   -8.3888 C   0  0  1  0  0  0  0  0  0  0  0  0
   -5.5820   -2.0415   -8.1874 C   0  0  0  0  0  0  0  0  0  0  0  0
   -9.6286    1.8392   -7.5948 O   0  0  0  0  0  0  0  0  0  0  0  0
   -7.2207    2.5695   -9.2602 N   0  3  0  0  0  0  0  0  0  0  0  0
   -5.7946    0.3163  -10.0813 O   0  0  0  0  0  0  0  0  0  0  0  0
   -7.5145   -1.0957   -7.1555 O   0  0  0  0  0  0  0  0  0  0  0  0
   -4.8908   -2.2542   -9.4141 O   0  0  0  0  0  0  0  0  0  0  0  0
  -11.8316   -1.2117   -8.9212 C   0  0  2  0  0  0  0  0  0  0  0  0
  -13.0621   -2.1271   -8.8658 C   0  0  0  0  0  0  0  0  0  0  0  0
  -12.6854   -3.6047   -8.9289 C   0  0  1  0  0  0  0  0  0  0  0  0
  -11.7289   -3.9068   -7.7835 C   0  0  2  0  0  0  0  0  0  0  0  0
  -10.4371   -3.1079   -7.9739 C   0  0  1  0  0  0  0  0  0  0  0  0
  -10.7252   -1.5970   -7.9265 C   0  0  1  0  0  0  0  0  0  0  0  0
  -12.2250    0.2178   -8.6830 N   0  3  0  0  0  0  0  0  0  0  0  0
  -13.9053   -4.4743   -8.8671 N   0  3  0  0  0  0  0  0  0  0  0  0
   -9.5085   -3.4645   -6.9578 O   0  0  0  0  0  0  0  0  0  0  0  0
  -11.4335   -5.3145   -7.7313 O   0  0  0  0  0  0  0  0  0  0  0  0
   -9.5346   -0.8621   -8.2789 O   0  0  0  0  0  0  0  0  0  0  0  0
  -11.4077   -5.8306   -6.4291 C   0  0  2  0  0  0  0  0  0  0  0  0
  -10.4925   -7.0582   -6.3725 C   0  0  1  0  0  0  0  0  0  0  0  0
  -11.1571   -8.2689   -7.0284 C   0  0  0  0  0  0  0  0  0  0  0  0
  -12.5274   -8.4783   -6.4045 C   0  0  1  0  0  0  0  0  0  0  0  0
  -13.3598   -7.2222   -6.5945 C   0  0  1  0  0  0  0  0  0  0  0  0
  -14.7465   -7.3719   -5.9954 C   0  0  0  0  0  0  0  0  0  0  0  0
   -9.2077   -6.7556   -7.0806 N   0  3  0  0  0  0  0  0  0  0  0  0
  -14.6111   -7.3499   -4.4974 N   0  3  0  0  0  0  0  0  0  0  0  0
  -13.1794   -9.5882   -7.0055 O   0  0  0  0  0  0  0  0  0  0  0  0
  -12.7123   -6.1193   -5.9379 O   0  0  0  0  0  0  0  0  0  0  0  0
  1  2  1  0  0  0  0
  1 22  1  6  0  0  0
  1 10  1  0  0  0  0
  2  3  1  0  0  0  0
  2  7  1  6  0  0  0
  3  4  1  0  0  0  0
  3  8  1  1  0  0  0
  4  5  1  0  0  0  0
  4  9  1  6  0  0  0
  5  6  1  1  0  0  0
  5 10  1  0  0  0  0
  6 11  1  0  0  0  0
 12 13  1  0  0  0  0
 12 17  1  0  0  0  0
 12 18  1  1  0  0  0
 13 14  1  0  0  0  0
 14 15  1  0  0  0  0
 14 19  1  1  0  0  0
 15 16  1  0  0  0  0
 15 21  1  6  0  0  0
 16 17  1  0  0  0  0
 16 20  1  1  0  0  0
 17 22  1  6  0  0  0
 23 21  1  6  0  0  0
 23 24  1  0  0  0  0
 23 32  1  0  0  0  0
 24 25  1  0  0  0  0
 24 29  1  6  0  0  0
 25 26  1  0  0  0  0
 26 27  1  0  0  0  0
 26 31  1  6  0  0  0
 27 28  1  1  0  0  0
 27 32  1  0  0  0  0
 28 30  1  0  0  0  0
M  CHG  5   8   1  18   1  19   1  29   1  30   1
M  END
>  <CHROM.1>
-131.28795290,174.60859062,-29.13877053,-67.21771134,-65.53965079,72.19144816
167.71057258,55.39272024,-138.59697085,-59.00860427,141.99119049,-153.50644791
58.98633573,177.87236831,71.78537575,159.55708846,-10.27073394,-3.20442545
-7.71492642,0.96202976,0.07536981,-0.21897940

>  <Name>
2tob cryst

>  <RI>
2.9538e+07

>  <Rbt.Current_Directory>
/home/itssahil/PROJECTS/Mol_Feturizer/New_Systems/rnas/2tob

>  <Rbt.Executable>
rbdock ($Id: //depot/dev/client3/rdock/2013.1/src/exe/rbdock.cxx#4 $)

>  <Rbt.Library>
libRbt.so (2013.1, Build901 2013/11/27)

>  <Rbt.Parameter_File>
/export/apps/rDock/src/rDock_2013.1_src/data/scripts/dock_solv.prm

>  <Rbt.Receptor>
prm/pocket_docking_2.prm

>  <SCORE>
-56.3222

>  <SCORE.INTER>
-40.0842

>  <SCORE.INTER.CONST>
1

>  <SCORE.INTER.POLAR>
-5.32093

>  <SCORE.INTER.ROT>
6

>  <SCORE.INTER.SOLV>
34.4618

>  <SCORE.INTER.VDW>
-28.0737

>  <SCORE.INTER.norm>
-1.25263

>  <SCORE.INTRA>
-16.4528

>  <SCORE.INTRA.DIHEDRAL>
6.84296

>  <SCORE.INTRA.DIHEDRAL.0>
18.4221

>  <SCORE.INTRA.POLAR>
0.472892

>  <SCORE.INTRA.POLAR.0>
-1.57101

>  <SCORE.INTRA.REPUL>
-0.730195

>  <SCORE.INTRA.REPUL.0>
0.730195

>  <SCORE.INTRA.SOLV>
-3.81375

>  <SCORE.INTRA.SOLV.lig_0>
-127.221

>  <SCORE.INTRA.VDW>
-15.9243

>  <SCORE.INTRA.VDW.0>
10.8385

>  <SCORE.INTRA.norm>
-0.514151

>  <SCORE.RESTR>
0.214795

>  <SCORE.RESTR.CAVITY>
0.214795

>  <SCORE.RESTR.norm>
0.00671234

>  <SCORE.SYSTEM>
0

>  <SCORE.SYSTEM.CONST>
0

>  <SCORE.SYSTEM.DIHEDRAL>
0

>  <SCORE.SYSTEM.SOLV>
0

>  <SCORE.SYSTEM.norm>
0

>  <SCORE.heavy>
32

>  <SCORE.norm>
-1.76007

>  <RMSD>
1.347

$$$$
2tob cryst
 OpenBabel11021811463D
libRbt.so/2013.1/901 2013/11/27
 32 34  0  0  0  0  0  0  0  0999 V2000
   -8.8518   -0.1076   -7.5155 C   0  0  2  0  0  0  0  0  0  0  0  0
   -8.7711    1.3851   -7.8190 C   0  0  1  0  0  0  0  0  0  0  0  0
   -8.0867    1.5796   -9.1724 C   0  0  2  0  0  0  0  0  0  0  0  0
   -6.7181    0.8862   -9.1972 C   0  0  1  0  0  0  0  0  0  0  0  0
   -6.8631   -0.5750   -8.7580 C   0  0  1  0  0  0  0  0  0  0  0  0
   -5.5455   -1.3174   -8.6067 C   0  0  0  0  0  0  0  0  0  0  0  0
  -10.0802    1.9469   -7.8542 O   0  0  0  0  0  0  0  0  0  0  0  0
   -7.8908    2.9840   -9.6531 N   0  3  0  0  0  0  0  0  0  0  0  0
   -6.1940    0.9449  -10.5179 O   0  0  0  0  0  0  0  0  0  0  0  0
   -7.5413   -0.6407   -7.4875 O   0  0  0  0  0  0  0  0  0  0  0  0
   -5.7022   -2.6973   -8.9215 O   0  0  0  0  0  0  0  0  0  0  0  0
  -11.9140   -1.2657   -9.0461 C   0  0  2  0  0  0  0  0  0  0  0  0
  -13.0700   -2.2659   -8.9117 C   0  0  0  0  0  0  0  0  0  0  0  0
  -12.5869   -3.7134   -8.9399 C   0  0  1  0  0  0  0  0  0  0  0  0
  -11.5692   -3.9029   -7.8235 C   0  0  2  0  0  0  0  0  0  0  0  0
  -10.3484   -3.0190   -8.0911 C   0  0  1  0  0  0  0  0  0  0  0  0
  -10.7463   -1.5325   -8.0832 C   0  0  1  0  0  0  0  0  0  0  0  0
  -12.4038    0.1390   -8.8407 N   0  3  0  0  0  0  0  0  0  0  0  0
  -13.7356   -4.6670   -8.8011 N   0  3  0  0  0  0  0  0  0  0  0  0
   -9.3591   -3.2695   -7.1008 O   0  0  0  0  0  0  0  0  0  0  0  0
  -11.1681   -5.2823   -7.7357 O   0  0  0  0  0  0  0  0  0  0  0  0
   -9.6274   -0.7258   -8.5065 O   0  0  0  0  0  0  0  0  0  0  0  0
  -11.2095   -5.7928   -6.4317 C   0  0  2  0  0  0  0  0  0  0  0  0
  -10.4748   -7.1363   -6.3738 C   0  0  1  0  0  0  0  0  0  0  0  0
  -11.3048   -8.2441   -7.0229 C   0  0  0  0  0  0  0  0  0  0  0  0
  -12.6885   -8.2578   -6.3935 C   0  0  1  0  0  0  0  0  0  0  0  0
  -13.3378   -6.8982   -6.5852 C   0  0  1  0  0  0  0  0  0  0  0  0
  -14.7294   -6.8506   -5.9807 C   0  0  0  0  0  0  0  0  0  0  0  0
   -9.1632   -7.0186   -7.0875 N   0  3  0  0  0  0  0  0  0  0  0  0
  -14.5899   -6.9282   -4.4849 N   0  3  0  0  0  0  0  0  0  0  0  0
  -13.4917   -9.2674   -6.9881 O   0  0  0  0  0  0  0  0  0  0  0  0
  -12.5397   -5.8947   -5.9349 O   0  0  0  0  0  0  0  0  0  0  0  0
  1  2  1  0  0  0  0
  1 22  1  6  0  0  0
  1 10  1  0  0  0  0
  2  3  1  0  0  0  0
  2  7  1  6  0  0  0
  3  4  1  0  0  0  0
  3  8  1  1  0  0  0
  4  5  1  0  0  0  0
  4  9  1  6  0  0  0
  5  6  1  1  0  0  0
  5 10  1  0  0  0  0
  6 11  1  0  0  0  0
 12 13  1  0  0  0  0
 12 17  1  0  0  0  0
 12 18  1  1  0  0  0
 13 14  1  0  0  0  0
 14 15  1  0  0  0  0
 14 19  1  1  0  0  0
 15 16  1  0  0  0  0
 15 21  1  6  0  0  0
 16 17  1  0  0  0  0
 16 20  1  1  0  0  0
 17 22  1  6  0  0  0
 23 21  1  6  0  0  0
 23 24  1  0  0  0  0
 23 32  1  0  0  0  0
 24 25  1  0  0  0  0
 24 29  1  6  0  0  0
 25 26  1  0  0  0  0
 26 27  1  0  0  0  0
 26 31  1  6  0  0  0
 27 28  1  1  0  0  0
 27 32  1  0  0  0  0
 28 30  1  0  0  0  0
M  CHG  5   8   1  18   1  19   1  29   1  30   1
M  END
>  <CHROM.1>
-126.39388847,-80.60754505,-139.08376530,61.56513064,-148.26883082,-157.26713514
-122.19846685,-179.43241356,-131.43995683,-174.32514423,139.82206175,-167.07353406
66.46564102,64.02315265,68.36756340,161.79361004,-10.37350975,-3.03543416
-7.83764036,1.01671101,0.08012741,-0.24586071

>  <Name>
2tob cryst

>  <RI>
2.9538e+07

>  <Rbt.Current_Directory>
/home/itssahil/PROJECTS/Mol_Feturizer/New_Systems/rnas/2tob

>  <Rbt.Executable>
rbdock ($Id: //depot/dev/client3/rdock/2013.1/src/exe/rbdock.cxx#4 $)

>  <Rbt.Library>
libRbt.so (2013.1, Build901 2013/11/27)

>  <Rbt.Parameter_File>
/export/apps/rDock/src/rDock_2013.1_src/data/scripts/dock_solv.prm

>  <Rbt.Receptor>
prm/pocket_docking_2.prm

>  <SCORE>
-58.6972

>  <SCORE.INTER>
-49.796

>  <SCORE.INTER.CONST>
1

>  <SCORE.INTER.POLAR>
-7.25711

>  <SCORE.INTER.ROT>
6

>  <SCORE.INTER.SOLV>
36.2563

>  <SCORE.INTER.VDW>
-28.6924

>  <SCORE.INTER.norm>
-1.55612

>  <SCORE.INTRA>
-9.29811

>  <SCORE.INTRA.DIHEDRAL>
16.145

>  <SCORE.INTRA.DIHEDRAL.0>
18.4221

>  <SCORE.INTRA.POLAR>
0.872188

>  <SCORE.INTRA.POLAR.0>
-1.57101

>  <SCORE.INTRA.REPUL>
-0.730195

>  <SCORE.INTRA.REPUL.0>
0.730195

>  <SCORE.INTRA.SOLV>
-3.12673

>  <SCORE.INTRA.SOLV.lig_0>
-127.221

>  <SCORE.INTRA.VDW>
-15.1217

>  <SCORE.INTRA.VDW.0>
10.8385

>  <SCORE.INTRA.norm>
-0.290566

>  <SCORE.RESTR>
0.396928

>  <SCORE.RESTR.CAVITY>
0.396928

>  <SCORE.RESTR.norm>
0.012404

>  <SCORE.SYSTEM>
0

>  <SCORE.SYSTEM.CONST>
0

>  <SCORE.SYSTEM.DIHEDRAL>
0

>  <SCORE.SYSTEM.SOLV>
0

>  <SCORE.SYSTEM.norm>
0

>  <SCORE.heavy>
32

>  <SCORE.norm>
-1.83429

>  <RMSD>
1.355

$$$$
2tob cryst
 OpenBabel11021811463D
libRbt.so/2013.1/901 2013/11/27
 32 34  0  0  0  0  0  0  0  0999 V2000
   -8.6271   -0.0656   -7.3821 C   0  0  2  0  0  0  0  0  0  0  0  0
   -8.0132    1.2756   -7.7712 C   0  0  1  0  0  0  0  0  0  0  0  0
   -7.2483    1.1084   -9.0844 C   0  0  2  0  0  0  0  0  0  0  0  0
   -6.2118   -0.0176   -8.9736 C   0  0  1  0  0  0  0  0  0  0  0  0
   -6.8803   -1.2958   -8.4556 C   0  0  1  0  0  0  0  0  0  0  0  0
   -5.9161   -2.4354   -8.1698 C   0  0  0  0  0  0  0  0  0  0  0  0
   -9.0380    2.2531   -7.9296 O   0  0  0  0  0  0  0  0  0  0  0  0
   -6.5505    2.3125   -9.6367 N   0  3  0  0  0  0  0  0  0  0  0  0
   -5.6460   -0.2531  -10.2568 O   0  0  0  0  0  0  0  0  0  0  0  0
   -7.5906   -1.0173   -7.2325 O   0  0  0  0  0  0  0  0  0  0  0  0
   -4.9631   -2.5684   -9.2195 O   0  0  0  0  0  0  0  0  0  0  0  0
  -11.7634   -1.1011   -9.0137 C   0  0  2  0  0  0  0  0  0  0  0  0
  -12.8718   -2.1594   -8.9324 C   0  0  0  0  0  0  0  0  0  0  0  0
  -12.3157   -3.5805   -8.9561 C   0  0  1  0  0  0  0  0  0  0  0  0
  -11.3319   -3.7315   -7.8039 C   0  0  2  0  0  0  0  0  0  0  0  0
  -10.1481   -2.7848   -8.0170 C   0  0  1  0  0  0  0  0  0  0  0  0
  -10.6203   -1.3202   -8.0100 C   0  0  1  0  0  0  0  0  0  0  0  0
  -12.3306    0.2749   -8.8136 N   0  3  0  0  0  0  0  0  0  0  0  0
  -13.4193   -4.5918   -8.8697 N   0  3  0  0  0  0  0  0  0  0  0  0
   -9.1850   -2.9968   -6.9926 O   0  0  0  0  0  0  0  0  0  0  0  0
  -10.8654   -5.0901   -7.7141 O   0  0  0  0  0  0  0  0  0  0  0  0
   -9.5286   -0.4539   -8.3832 O   0  0  0  0  0  0  0  0  0  0  0  0
  -10.4492   -5.4524   -6.4264 C   0  0  2  0  0  0  0  0  0  0  0  0
   -9.8908   -6.8793   -6.4408 C   0  0  1  0  0  0  0  0  0  0  0  0
  -11.0160   -7.9078   -6.5578 C   0  0  0  0  0  0  0  0  0  0  0  0
  -12.0403   -7.6456   -5.4656 C   0  0  1  0  0  0  0  0  0  0  0  0
  -12.5707   -6.2296   -5.6079 C   0  0  1  0  0  0  0  0  0  0  0  0
  -13.6057   -5.9084   -4.5450 C   0  0  0  0  0  0  0  0  0  0  0  0
   -8.9546   -7.0369   -7.5994 N   0  3  0  0  0  0  0  0  0  0  0  0
  -13.8642   -4.4269   -4.5798 N   0  3  0  0  0  0  0  0  0  0  0  0
  -13.1098   -8.5760   -5.5576 O   0  0  0  0  0  0  0  0  0  0  0  0
  -11.4850   -5.2986   -5.4620 O   0  0  0  0  0  0  0  0  0  0  0  0
  1  2  1  0  0  0  0
  1 22  1  6  0  0  0
  1 10  1  0  0  0  0
  2  3  1  0  0  0  0
  2  7  1  6  0  0  0
  3  4  1  0  0  0  0
  3  8  1  1  0  0  0
  4  5  1  0  0  0  0
  4  9  1  6  0  0  0
  5  6  1  1  0  0  0
  5 10  1  0  0  0  0
  6 11  1  0  0  0  0
 12 13  1  0  0  0  0
 12 17  1  0  0  0  0
 12 18  1  1  0  0  0
 13 14  1  0  0  0  0
 14 15  1  0  0  0  0
 14 19  1  1  0  0  0
 15 16  1  0  0  0  0
 15 21  1  6  0  0  0
 16 17  1  0  0  0  0
 16 20  1  1  0  0  0
 17 22  1  6  0  0  0
 23 21  1  6  0  0  0
 23 24  1  0  0  0  0
 23 32  1  0  0  0  0
 24 25  1  0  0  0  0
 24 29  1  6  0  0  0
 25 26  1  0  0  0  0
 26 27  1  0  0  0  0
 26 31  1  6  0  0  0
 27 28  1  1  0  0  0
 27 32  1  0  0  0  0
 28 30  1  0  0  0  0
M  CHG  5   8   1  18   1  19   1  29   1  30   1
M  END
>  <CHROM.1>
-153.39860513,-57.47214962,36.57947586,172.59368918,-44.24880055,149.67067629
-120.48887448,177.54065305,-154.22597356,178.59291303,154.82224318,-176.54621325
-47.37996567,176.83483031,168.56247840,79.94914929,-9.92381130,-2.90654540
-7.63393790,0.96221906,0.16280468,-0.27132443

>  <Name>
2tob cryst

>  <RI>
2.9538e+07

>  <Rbt.Current_Directory>
/home/itssahil/PROJECTS/Mol_Feturizer/New_Systems/rnas/2tob

>  <Rbt.Executable>
rbdock ($Id: //depot/dev/client3/rdock/2013.1/src/exe/rbdock.cxx#4 $)

>  <Rbt.Library>
libRbt.so (2013.1, Build901 2013/11/27)

>  <Rbt.Parameter_File>
/export/apps/rDock/src/rDock_2013.1_src/data/scripts/dock_solv.prm

>  <Rbt.Receptor>
prm/pocket_docking_2.prm

>  <SCORE>
-69.0605

>  <SCORE.INTER>
-51.652

>  <SCORE.INTER.CONST>
1

>  <SCORE.INTER.POLAR>
-7.41808

>  <SCORE.INTER.ROT>
6

>  <SCORE.INTER.SOLV>
37.2879

>  <SCORE.INTER.VDW>
-29.737

>  <SCORE.INTER.norm>
-1.61412

>  <SCORE.INTRA>
-18.8519

>  <SCORE.INTRA.DIHEDRAL>
1.60343

>  <SCORE.INTRA.DIHEDRAL.0>
18.4221

>  <SCORE.INTRA.POLAR>
-0.0308556

>  <SCORE.INTRA.POLAR.0>
-1.57101

>  <SCORE.INTRA.REPUL>
-0.730195

>  <SCORE.INTRA.REPUL.0>
0.730195

>  <SCORE.INTRA.SOLV>
-7.35963

>  <SCORE.INTRA.SOLV.lig_0>
-127.221

>  <SCORE.INTRA.VDW>
-12.2179

>  <SCORE.INTRA.VDW.0>
10.8385

>  <SCORE.INTRA.norm>
-0.58912

>  <SCORE.RESTR>
1.44328

>  <SCORE.RESTR.CAVITY>
1.44328

>  <SCORE.RESTR.norm>
0.0451027

>  <SCORE.SYSTEM>
0

>  <SCORE.SYSTEM.CONST>
0

>  <SCORE.SYSTEM.DIHEDRAL>
0

>  <SCORE.SYSTEM.SOLV>
0

>  <SCORE.SYSTEM.norm>
0

>  <SCORE.heavy>
32

>  <SCORE.norm>
-2.15814

>  <RMSD>
1.364

$$$$
2tob cryst
 OpenBabel11021811463D
libRbt.so/2013.1/901 2013/11/27
 32 34  0  0  0  0  0  0  0  0999 V2000
   -9.1912   -0.0444   -7.1962 C   0  0  2  0  0  0  0  0  0  0  0  0
   -8.7287    1.3665   -7.5461 C   0  0  1  0  0  0  0  0  0  0  0  0
   -7.8896    1.3108   -8.8230 C   0  0  2  0  0  0  0  0  0  0  0  0
   -6.7294    0.3181   -8.6716 C   0  0  1  0  0  0  0  0  0  0  0  0
   -7.2596   -1.0386   -8.1951 C   0  0  1  0  0  0  0  0  0  0  0  0
   -6.1775   -2.0559   -7.8724 C   0  0  0  0  0  0  0  0  0  0  0  0
   -9.8570    2.2139   -7.7456 O   0  0  0  0  0  0  0  0  0  0  0  0
   -7.3197    2.5981   -9.3329 N   0  3  0  0  0  0  0  0  0  0  0  0
   -6.0807    0.1700   -9.9284 O   0  0  0  0  0  0  0  0  0  0  0  0
   -8.0541   -0.8646   -7.0048 O   0  0  0  0  0  0  0  0  0  0  0  0
   -5.3393   -2.2797   -9.0017 O   0  0  0  0  0  0  0  0  0  0  0  0
  -12.2022   -1.2011   -8.9264 C   0  0  2  0  0  0  0  0  0  0  0  0
  -13.2919   -2.2810   -8.8878 C   0  0  0  0  0  0  0  0  0  0  0  0
  -12.7089   -3.6908   -8.9312 C   0  0  1  0  0  0  0  0  0  0  0  0
  -11.7433   -3.8484   -7.7646 C   0  0  2  0  0  0  0  0  0  0  0  0
  -10.5738   -2.8758   -7.9359 C   0  0  1  0  0  0  0  0  0  0  0  0
  -11.0734   -1.4206   -7.9068 C   0  0  1  0  0  0  0  0  0  0  0  0
  -12.7985    0.1597   -8.7078 N   0  3  0  0  0  0  0  0  0  0  0  0
  -13.7947   -4.7238   -8.8864 N   0  3  0  0  0  0  0  0  0  0  0  0
   -9.6254   -3.0919   -6.8987 O   0  0  0  0  0  0  0  0  0  0  0  0
  -11.2532   -5.1998   -7.6949 O   0  0  0  0  0  0  0  0  0  0  0  0
   -9.9915   -0.5266   -8.2415 O   0  0  0  0  0  0  0  0  0  0  0  0
  -11.2612   -5.7293   -6.3979 C   0  0  2  0  0  0  0  0  0  0  0  0
  -10.4169   -7.0072   -6.3508 C   0  0  1  0  0  0  0  0  0  0  0  0
  -11.1463   -8.1719   -7.0209 C   0  0  0  0  0  0  0  0  0  0  0  0
  -12.5285   -8.3098   -6.4033 C   0  0  1  0  0  0  0  0  0  0  0  0
  -13.2881   -7.0069   -6.5832 C   0  0  1  0  0  0  0  0  0  0  0  0
  -14.6831   -7.0840   -5.9899 C   0  0  0  0  0  0  0  0  0  0  0  0
   -9.1145   -6.7706   -7.0519 N   0  3  0  0  0  0  0  0  0  0  0  0
  -14.5555   -7.0283   -4.4921 N   0  3  0  0  0  0  0  0  0  0  0  0
  -13.2399   -9.3751   -7.0174 O   0  0  0  0  0  0  0  0  0  0  0  0
  -12.5818   -5.9488   -5.9136 O   0  0  0  0  0  0  0  0  0  0  0  0
  1  2  1  0  0  0  0
  1 22  1  6  0  0  0
  1 10  1  0  0  0  0
  2  3  1  0  0  0  0
  2  7  1  6  0  0  0
  3  4  1  0  0  0  0
  3  8  1  1  0  0  0
  4  5  1  0  0  0  0
  4  9  1  6  0  0  0
  5  6  1  1  0  0  0
  5 10  1  0  0  0  0
  6 11  1  0  0  0  0
 12 13  1  0  0  0  0
 12 17  1  0  0  0  0
 12 18  1  1  0  0  0
 13 14  1  0  0  0  0
 14 15  1  0  0  0  0
 14 19  1  1  0  0  0
 15 16  1  0  0  0  0
 15 21  1  6  0  0  0
 16 17  1  0  0  0  0
 16 20  1  1  0  0  0
 17 22  1  6  0  0  0
 23 21  1  6  0  0  0
 23 24  1  0  0  0  0
 23 32  1  0  0  0  0
 24 25  1  0  0  0  0
 24 29  1  6  0  0  0
 25 26  1  0  0  0  0
 26 27  1  0  0  0  0
 26 31  1  6  0  0  0
 27 28  1  1  0  0  0
 27 32  1  0  0  0  0
 28 30  1  0  0  0  0
M  CHG  5   8   1  18   1  19   1  29   1  30   1
M  END
>  <CHROM.1>
-147.21302047,46.66976052,-149.39720938,-57.21452510,-57.47184824,170.79081214
-8.97692103,58.12969262,-134.79882479,61.78564895,148.98810991,-165.92206312
-61.15746624,163.03460054,74.03756208,166.73932805,-10.43903995,-3.10029772
-7.67068649,1.00529926,0.05156999,-0.22367620

>  <Name>
2tob cryst

>  <RI>
2.9538e+07

>  <Rbt.Current_Directory>
/home/itssahil/PROJECTS/Mol_Feturizer/New_Systems/rnas/2tob

>  <Rbt.Executable>
rbdock ($Id: //depot/dev/client3/rdock/2013.1/src/exe/rbdock.cxx#4 $)

>  <Rbt.Library>
libRbt.so (2013.1, Build901 2013/11/27)

>  <Rbt.Parameter_File>
/export/apps/rDock/src/rDock_2013.1_src/data/scripts/dock_solv.prm

>  <Rbt.Receptor>
prm/pocket_docking_2.prm

>  <SCORE>
-68.0657

>  <SCORE.INTER>
-54.7437

>  <SCORE.INTER.CONST>
1

>  <SCORE.INTER.POLAR>
-7.80953

>  <SCORE.INTER.ROT>
6

>  <SCORE.INTER.SOLV>
36.2144

>  <SCORE.INTER.VDW>
-30.1355

>  <SCORE.INTER.norm>
-1.71074

>  <SCORE.INTRA>
-13.7507

>  <SCORE.INTRA.DIHEDRAL>
5.67137

>  <SCORE.INTRA.DIHEDRAL.0>
18.4221

>  <SCORE.INTRA.POLAR>
1.40518

>  <SCORE.INTRA.POLAR.0>
-1.57101

>  <SCORE.INTRA.REPUL>
-0.730195

>  <SCORE.INTRA.REPUL.0>
0.730195

>  <SCORE.INTRA.SOLV>
-4.38845

>  <SCORE.INTRA.SOLV.lig_0>
-127.221

>  <SCORE.INTRA.VDW>
-15.5188

>  <SCORE.INTRA.VDW.0>
10.8385

>  <SCORE.INTRA.norm>
-0.429709

>  <SCORE.RESTR>
0.428633

>  <SCORE.RESTR.CAVITY>
0.428633

>  <SCORE.RESTR.norm>
0.0133948

>  <SCORE.SYSTEM>
0

>  <SCORE.SYSTEM.CONST>
0

>  <SCORE.SYSTEM.DIHEDRAL>
0

>  <SCORE.SYSTEM.SOLV>
0

>  <SCORE.SYSTEM.norm>
0

>  <SCORE.heavy>
32

>  <SCORE.norm>
-2.12705

>  <RMSD>
1.379

$$$$
2tob cryst
 OpenBabel11021811463D
libRbt.so/2013.1/901 2013/11/27
 32 34  0  0  0  0  0  0  0  0999 V2000
   -9.2406   -0.0078   -7.0633 C   0  0  2  0  0  0  0  0  0  0  0  0
   -8.6174    1.3452   -7.3922 C   0  0  1  0  0  0  0  0  0  0  0  0
   -7.7843    1.2106   -8.6672 C   0  0  2  0  0  0  0  0  0  0  0  0
   -6.7466    0.0891   -8.5259 C   0  0  1  0  0  0  0  0  0  0  0  0
   -7.4314   -1.2039   -8.0699 C   0  0  1  0  0  0  0  0  0  0  0  0
   -6.4748   -2.3432   -7.7581 C   0  0  0  0  0  0  0  0  0  0  0  0
   -9.6399    2.3192   -7.5834 O   0  0  0  0  0  0  0  0  0  0  0  0
   -7.0679    2.4304   -9.1575 N   0  3  0  0  0  0  0  0  0  0  0  0
   -6.1133   -0.1157   -9.7826 O   0  0  0  0  0  0  0  0  0  0  0  0
   -8.2061   -0.9558   -6.8798 O   0  0  0  0  0  0  0  0  0  0  0  0
   -5.9003   -2.8640   -8.9524 O   0  0  0  0  0  0  0  0  0  0  0  0
  -12.2347   -1.1526   -8.8914 C   0  0  2  0  0  0  0  0  0  0  0  0
  -13.2656   -2.2892   -8.9154 C   0  0  0  0  0  0  0  0  0  0  0  0
  -12.6068   -3.6646   -8.9744 C   0  0  1  0  0  0  0  0  0  0  0  0
  -11.6714   -3.8018   -7.7809 C   0  0  2  0  0  0  0  0  0  0  0  0
  -10.5509   -2.7646   -7.8896 C   0  0  1  0  0  0  0  0  0  0  0  0
  -11.1285   -1.3391   -7.8409 C   0  0  1  0  0  0  0  0  0  0  0  0
  -12.9098    0.1686   -8.6590 N   0  3  0  0  0  0  0  0  0  0  0  0
  -13.6365   -4.7543   -8.9909 N   0  3  0  0  0  0  0  0  0  0  0  0
   -9.6255   -2.9577   -6.8273 O   0  0  0  0  0  0  0  0  0  0  0  0
  -11.1120   -5.1268   -7.7285 O   0  0  0  0  0  0  0  0  0  0  0  0
  -10.0861   -0.3807   -8.1177 O   0  0  0  0  0  0  0  0  0  0  0  0
  -11.2310   -5.7327   -6.4710 C   0  0  2  0  0  0  0  0  0  0  0  0
  -10.4491   -7.0503   -6.4505 C   0  0  1  0  0  0  0  0  0  0  0  0
  -11.1823   -8.1359   -7.2390 C   0  0  0  0  0  0  0  0  0  0  0  0
  -12.6078   -8.2439   -6.7222 C   0  0  1  0  0  0  0  0  0  0  0  0
  -13.2952   -6.8974   -6.8679 C   0  0  1  0  0  0  0  0  0  0  0  0
  -14.7292   -6.9428   -6.3722 C   0  0  0  0  0  0  0  0  0  0  0  0
   -9.0932   -6.8349   -7.0494 N   0  3  0  0  0  0  0  0  0  0  0  0
  -14.6999   -7.0629   -4.8730 N   0  3  0  0  0  0  0  0  0  0  0  0
  -13.3224   -9.2346   -7.4474 O   0  0  0  0  0  0  0  0  0  0  0  0
  -12.5898   -5.9170   -6.0881 O   0  0  0  0  0  0  0  0  0  0  0  0
  1  2  1  0  0  0  0
  1 22  1  6  0  0  0
  1 10  1  0  0  0  0
  2  3  1  0  0  0  0
  2  7  1  6  0  0  0
  3  4  1  0  0  0  0
  3  8  1  1  0  0  0
  4  5  1  0  0  0  0
  4  9  1  6  0  0  0
  5  6  1  1  0  0  0
  5 10  1  0  0  0  0
  6 11  1  0  0  0  0
 12 13  1  0  0  0  0
 12 17  1  0  0  0  0
 12 18  1  1  0  0  0
 13 14  1  0  0  0  0
 14 15  1  0  0  0  0
 14 19  1  1  0  0  0
 15 16  1  0  0  0  0
 15 21  1  6  0  0  0
 16 17  1  0  0  0  0
 16 20  1  1  0  0  0
 17 22  1  6  0  0  0
 23 21  1  6  0  0  0
 23 24  1  0  0  0  0
 23 32  1  0  0  0  0
 24 25  1  0  0  0  0
 24 29  1  6  0  0  0
 25 26  1  0  0  0  0
 26 27  1  0  0  0  0
 26 31  1  6  0  0  0
 27 28  1  1  0  0  0
 27 32  1  0  0  0  0
 28 30  1  0  0  0  0
M  CHG  5   8   1  18   1  19   1  29   1  30   1
M  END
>  <CHROM.1>
-157.92434942,171.97757439,68.53633797,-48.40367237,-71.65374125,-86.62278170
110.38961861,60.76160462,-129.88300718,63.34095049,156.60612940,-172.39020470
-60.85768727,-61.98000262,70.86802308,41.45229019,-10.46254632,-3.12448697
-7.69949741,1.00329826,0.04619703,-0.17650879

>  <Name>
2tob cryst

>  <RI>
3.35201e+07

>  <Rbt.Current_Directory>
/home/itssahil/PROJECTS/Mol_Feturizer/New_Systems/rnas/2tob

>  <Rbt.Executable>
rbdock ($Id: //depot/dev/client3/rdock/2013.1/src/exe/rbdock.cxx#4 $)

>  <Rbt.Library>
libRbt.so (2013.1, Build901 2013/11/27)

>  <Rbt.Parameter_File>
/export/apps/rDock/src/rDock_2013.1_src/data/scripts/dock_solv.prm

>  <Rbt.Receptor>
prm/pocket_docking_4.prm

>  <SCORE>
-61.472

>  <SCORE.INTER>
-46.6127

>  <SCORE.INTER.CONST>
1

>  <SCORE.INTER.POLAR>
-6.06131

>  <SCORE.INTER.ROT>
6

>  <SCORE.INTER.SOLV>
36.416

>  <SCORE.INTER.VDW>
-30.6094

>  <SCORE.INTER.norm>
-1.45665

>  <SCORE.INTRA>
-14.8594

>  <SCORE.INTRA.DIHEDRAL>
2.45036

>  <SCORE.INTRA.DIHEDRAL.0>
18.4221

>  <SCORE.INTRA.POLAR>
1.3661

>  <SCORE.INTRA.POLAR.0>
-1.57101

>  <SCORE.INTRA.REPUL>
-0.730195

>  <SCORE.INTRA.REPUL.0>
0.730195

>  <SCORE.INTRA.SOLV>
-4.3731

>  <SCORE.INTRA.SOLV.lig_0>
-127.221

>  <SCORE.INTRA.VDW>
-14.8918

>  <SCORE.INTRA.VDW.0>
10.8385

>  <SCORE.INTRA.norm>
-0.464355

>  <SCORE.RESTR>
0

>  <SCORE.RESTR.CAVITY>
0

>  <SCORE.RESTR.norm>
0

>  <SCORE.SYSTEM>
0

>  <SCORE.SYSTEM.CONST>
0

>  <SCORE.SYSTEM.DIHEDRAL>
0

>  <SCORE.SYSTEM.SOLV>
0

>  <SCORE.SYSTEM.norm>
0

>  <SCORE.heavy>
32

>  <SCORE.norm>
-1.921

>  <RMSD>
1.402

$$$$
2tob cryst
 OpenBabel11021811463D
libRbt.so/2013.1/901 2013/11/27
 32 34  0  0  0  0  0  0  0  0999 V2000
   -9.0653   -0.1608   -7.2274 C   0  0  2  0  0  0  0  0  0  0  0  0
   -8.6457    1.2734   -7.5342 C   0  0  1  0  0  0  0  0  0  0  0  0
   -7.7904    1.2794   -8.8015 C   0  0  2  0  0  0  0  0  0  0  0  0
   -6.5998    0.3215   -8.6618 C   0  0  1  0  0  0  0  0  0  0  0  0
   -7.0904   -1.0641   -8.2279 C   0  0  1  0  0  0  0  0  0  0  0  0
   -5.9790   -2.0537   -7.9187 C   0  0  0  0  0  0  0  0  0  0  0  0
   -9.7989    2.0883   -7.7254 O   0  0  0  0  0  0  0  0  0  0  0  0
   -7.2574    2.5978   -9.2702 N   0  3  0  0  0  0  0  0  0  0  0  0
   -5.9320    0.2284   -9.9139 O   0  0  0  0  0  0  0  0  0  0  0  0
   -7.9039   -0.9482   -7.0435 O   0  0  0  0  0  0  0  0  0  0  0  0
   -5.1873   -2.3046   -9.0755 O   0  0  0  0  0  0  0  0  0  0  0  0
  -12.0319   -1.2913   -9.0501 C   0  0  2  0  0  0  0  0  0  0  0  0
  -13.1378   -2.3553   -9.0388 C   0  0  0  0  0  0  0  0  0  0  0  0
  -12.5740   -3.7736   -9.0476 C   0  0  1  0  0  0  0  0  0  0  0  0
  -11.6521   -3.9324   -7.8464 C   0  0  2  0  0  0  0  0  0  0  0  0
  -10.4633   -2.9782   -7.9864 C   0  0  1  0  0  0  0  0  0  0  0  0
  -10.9426   -1.5159   -7.9894 C   0  0  1  0  0  0  0  0  0  0  0  0
  -12.6158    0.0800   -8.8662 N   0  3  0  0  0  0  0  0  0  0  0  0
  -13.6755   -4.7907   -9.0305 N   0  3  0  0  0  0  0  0  0  0  0  0
   -9.5549   -3.1968   -6.9145 O   0  0  0  0  0  0  0  0  0  0  0  0
  -11.1842   -5.2898   -7.7460 O   0  0  0  0  0  0  0  0  0  0  0  0
   -9.8370   -0.6408   -8.2950 O   0  0  0  0  0  0  0  0  0  0  0  0
  -11.2149   -5.7947   -6.4395 C   0  0  2  0  0  0  0  0  0  0  0  0
  -10.4742   -7.1348   -6.3805 C   0  0  1  0  0  0  0  0  0  0  0  0
  -11.3038   -8.2490   -7.0193 C   0  0  0  0  0  0  0  0  0  0  0  0
  -12.6833   -8.2656   -6.3808 C   0  0  1  0  0  0  0  0  0  0  0  0
  -13.3395   -6.9096   -6.5742 C   0  0  1  0  0  0  0  0  0  0  0  0
  -14.7273   -6.8651   -5.9609 C   0  0  0  0  0  0  0  0  0  0  0  0
   -9.1678   -7.0148   -7.1032 N   0  3  0  0  0  0  0  0  0  0  0  0
  -14.5812   -6.9936   -4.4692 N   0  3  0  0  0  0  0  0  0  0  0  0
  -13.4861   -9.2812   -6.9656 O   0  0  0  0  0  0  0  0  0  0  0  0
  -12.5415   -5.8999   -5.9336 O   0  0  0  0  0  0  0  0  0  0  0  0
  1  2  1  0  0  0  0
  1 22  1  6  0  0  0
  1 10  1  0  0  0  0
  2  3  1  0  0  0  0
  2  7  1  6  0  0  0
  3  4  1  0  0  0  0
  3  8  1  1  0  0  0
  4  5  1  0  0  0  0
  4  9  1  6  0  0  0
  5  6  1  1  0  0  0
  5 10  1  0  0  0  0
  6 11  1  0  0  0  0
 12 13  1  0  0  0  0
 12 17  1  0  0  0  0
 12 18  1  1  0  0  0
 13 14  1  0  0  0  0
 14 15  1  0  0  0  0
 14 19  1  1  0  0  0
 15 16  1  0  0  0  0
 15 21  1  6  0  0  0
 16 17  1  0  0  0  0
 16 20  1  1  0  0  0
 17 22  1  6  0  0  0
 23 21  1  6  0  0  0
 23 24  1  0  0  0  0
 23 32  1  0  0  0  0
 24 25  1  0  0  0  0
 24 29  1  6  0  0  0
 25 26  1  0  0  0  0
 26 27  1  0  0  0  0
 26 31  1  6  0  0  0
 27 28  1  1  0  0  0
 27 32  1  0  0  0  0
 28 30  1  0  0  0  0
M  CHG  5   8   1  18   1  19   1  29   1  30   1
M  END
>  <CHROM.1>
-143.59409112,49.58841237,-148.44398462,-65.71651401,-62.32832039,166.11440948
-123.82996849,54.51157439,-136.24128482,174.20839075,149.09792613,-169.86449746
70.81863686,-65.20769875,66.03204318,166.99660649,-10.37291671,-3.14047057
-7.70849179,0.98281268,0.04346433,-0.22869957

>  <Name>
2tob cryst

>  <RI>
2.9538e+07

>  <Rbt.Current_Directory>
/home/itssahil/PROJECTS/Mol_Feturizer/New_Systems/rnas/2tob

>  <Rbt.Executable>
rbdock ($Id: //depot/dev/client3/rdock/2013.1/src/exe/rbdock.cxx#4 $)

>  <Rbt.Library>
libRbt.so (2013.1, Build901 2013/11/27)

>  <Rbt.Parameter_File>
/export/apps/rDock/src/rDock_2013.1_src/data/scripts/dock_solv.prm

>  <Rbt.Receptor>
prm/pocket_docking_2.prm

>  <SCORE>
-70.6325

>  <SCORE.INTER>
-54.9822

>  <SCORE.INTER.CONST>
1

>  <SCORE.INTER.POLAR>
-7.86733

>  <SCORE.INTER.ROT>
6

>  <SCORE.INTER.SOLV>
35.9303

>  <SCORE.INTER.VDW>
-30.0071

>  <SCORE.INTER.norm>
-1.71819

>  <SCORE.INTRA>
-16.1946

>  <SCORE.INTRA.DIHEDRAL>
4.94976

>  <SCORE.INTRA.DIHEDRAL.0>
18.4221

>  <SCORE.INTRA.POLAR>
0.739657

>  <SCORE.INTRA.POLAR.0>
-1.57101

>  <SCORE.INTRA.REPUL>
-0.730195

>  <SCORE.INTRA.REPUL.0>
0.730195

>  <SCORE.INTRA.SOLV>
-5.13462

>  <SCORE.INTRA.SOLV.lig_0>
-127.221

>  <SCORE.INTRA.VDW>
-14.966

>  <SCORE.INTRA.VDW.0>
10.8385

>  <SCORE.INTRA.norm>
-0.506081

>  <SCORE.RESTR>
0.544263

>  <SCORE.RESTR.CAVITY>
0.544263

>  <SCORE.RESTR.norm>
0.0170082

>  <SCORE.SYSTEM>
0

>  <SCORE.SYSTEM.CONST>
0

>  <SCORE.SYSTEM.DIHEDRAL>
0

>  <SCORE.SYSTEM.SOLV>
0

>  <SCORE.SYSTEM.norm>
0

>  <SCORE.heavy>
32

>  <SCORE.norm>
-2.20727

>  <RMSD>
1.413

$$$$
2tob cryst
 OpenBabel11021811463D
libRbt.so/2013.1/901 2013/11/27
 32 34  0  0  0  0  0  0  0  0999 V2000
   -9.0901   -0.1287   -7.4856 C   0  0  2  0  0  0  0  0  0  0  0  0
   -8.7210    1.3007   -7.8697 C   0  0  1  0  0  0  0  0  0  0  0  0
   -7.9529    1.2763   -9.1914 C   0  0  2  0  0  0  0  0  0  0  0  0
   -6.7366    0.3454   -9.0995 C   0  0  1  0  0  0  0  0  0  0  0  0
   -7.1689   -1.0322   -8.5855 C   0  0  1  0  0  0  0  0  0  0  0  0
   -6.0195   -1.9901   -8.3181 C   0  0  0  0  0  0  0  0  0  0  0  0
   -9.9007    2.0876   -8.0105 O   0  0  0  0  0  0  0  0  0  0  0  0
   -7.4793    2.5863   -9.7405 N   0  3  0  0  0  0  0  0  0  0  0  0
   -6.1524    0.2193  -10.3898 O   0  0  0  0  0  0  0  0  0  0  0  0
   -7.9034   -0.8882   -7.3535 O   0  0  0  0  0  0  0  0  0  0  0  0
   -5.0318   -1.8942   -9.3393 O   0  0  0  0  0  0  0  0  0  0  0  0
  -12.1562   -1.3683   -9.0446 C   0  0  2  0  0  0  0  0  0  0  0  0
  -13.2346   -2.4537   -8.9258 C   0  0  0  0  0  0  0  0  0  0  0  0
  -12.6432   -3.8604   -8.9569 C   0  0  1  0  0  0  0  0  0  0  0  0
  -11.6240   -3.9789   -7.8321 C   0  0  2  0  0  0  0  0  0  0  0  0
  -10.4711   -3.0039   -8.0841 C   0  0  1  0  0  0  0  0  0  0  0  0
  -10.9802   -1.5517   -8.0723 C   0  0  1  0  0  0  0  0  0  0  0  0
  -12.7525   -0.0058   -8.8366 N   0  3  0  0  0  0  0  0  0  0  0  0
  -13.7178   -4.8988   -8.8334 N   0  3  0  0  0  0  0  0  0  0  0  0
   -9.4745   -3.1847   -7.0860 O   0  0  0  0  0  0  0  0  0  0  0  0
  -11.1206   -5.3246   -7.7475 O   0  0  0  0  0  0  0  0  0  0  0  0
   -9.9218   -0.6605   -8.4813 O   0  0  0  0  0  0  0  0  0  0  0  0
  -11.2463   -5.8875   -6.4708 C   0  0  2  0  0  0  0  0  0  0  0  0
  -10.4749   -7.2098   -6.4053 C   0  0  1  0  0  0  0  0  0  0  0  0
  -11.2154   -8.3151   -7.1585 C   0  0  0  0  0  0  0  0  0  0  0  0
  -12.6425   -8.3948   -6.6410 C   0  0  1  0  0  0  0  0  0  0  0  0
  -13.3190   -7.0485   -6.8325 C   0  0  1  0  0  0  0  0  0  0  0  0
  -14.7541   -7.0662   -6.3382 C   0  0  0  0  0  0  0  0  0  0  0  0
   -9.1163   -7.0250   -7.0085 N   0  3  0  0  0  0  0  0  0  0  0  0
  -14.7280   -7.1548   -4.8367 N   0  3  0  0  0  0  0  0  0  0  0  0
  -13.3637   -9.4034   -7.3342 O   0  0  0  0  0  0  0  0  0  0  0  0
  -12.6071   -6.0483   -6.0845 O   0  0  0  0  0  0  0  0  0  0  0  0
  1  2  1  0  0  0  0
  1 22  1  6  0  0  0
  1 10  1  0  0  0  0
  2  3  1  0  0  0  0
  2  7  1  6  0  0  0
  3  4  1  0  0  0  0
  3  8  1  1  0  0  0
  4  5  1  0  0  0  0
  4  9  1  6  0  0  0
  5  6  1  1  0  0  0
  5 10  1  0  0  0  0
  6 11  1  0  0  0  0
 12 13  1  0  0  0  0
 12 17  1  0  0  0  0
 12 18  1  1  0  0  0
 13 14  1  0  0  0  0
 14 15  1  0  0  0  0
 14 19  1  1  0  0  0
 15 16  1  0  0  0  0
 15 21  1  6  0  0  0
 16 17  1  0  0  0  0
 16 20  1  1  0  0  0
 17 22  1  6  0  0  0
 23 21  1  6  0  0  0
 23 24  1  0  0  0  0
 23 32  1  0  0  0  0
 24 25  1  0  0  0  0
 24 29  1  6  0  0  0
 25 26  1  0  0  0  0
 26 27  1  0  0  0  0
 26 31  1  6  0  0  0
 27 28  1  1  0  0  0
 27 32  1  0  0  0  0
 28 30  1  0  0  0  0
M  CHG  5   8   1  18   1  19   1  29   1  30   1
M  END
>  <CHROM.1>
-144.06381632,49.07474421,81.16848387,-177.87402897,-40.91751493,169.15378361
-12.74002412,-64.38662607,-125.99728744,63.32723760,148.08758648,-170.17970646
-176.99106450,-56.75552568,70.14176571,-67.86776223,-10.41061598,-3.17727916
-7.89405599,0.99542249,0.07438454,-0.22510732

>  <Name>
2tob cryst

>  <RI>
0

>  <Rbt.Current_Directory>
/home/itssahil/PROJECTS/Mol_Feturizer/New_Systems/rnas/2tob

>  <Rbt.Executable>
rbdock ($Id: //depot/dev/client3/rdock/2013.1/src/exe/rbdock.cxx#4 $)

>  <Rbt.Library>
libRbt.so (2013.1, Build901 2013/11/27)

>  <Rbt.Parameter_File>
/export/apps/rDock/src/rDock_2013.1_src/data/scripts/dock_solv.prm

>  <Rbt.Receptor>
prm/pocket_docking_3.prm

>  <SCORE>
-74.2967

>  <SCORE.INTER>
-59.4392

>  <SCORE.INTER.CONST>
1

>  <SCORE.INTER.POLAR>
-8.52671

>  <SCORE.INTER.ROT>
6

>  <SCORE.INTER.SOLV>
34.671

>  <SCORE.INTER.VDW>
-30.3607

>  <SCORE.INTER.norm>
-1.85747

>  <SCORE.INTRA>
-14.8576

>  <SCORE.INTRA.DIHEDRAL>
5.0906

>  <SCORE.INTRA.DIHEDRAL.0>
18.4221

>  <SCORE.INTRA.POLAR>
0.802182

>  <SCORE.INTRA.POLAR.0>
-1.57101

>  <SCORE.INTRA.REPUL>
-0.730195

>  <SCORE.INTRA.REPUL.0>
0.730195

>  <SCORE.INTRA.SOLV>
-3.40798

>  <SCORE.INTRA.SOLV.lig_0>
-127.221

>  <SCORE.INTRA.VDW>
-14.7753

>  <SCORE.INTRA.VDW.0>
10.8385

>  <SCORE.INTRA.norm>
-0.464299

>  <SCORE.RESTR>
0

>  <SCORE.RESTR.CAVITY>
0

>  <SCORE.RESTR.norm>
0

>  <SCORE.SYSTEM>
0

>  <SCORE.SYSTEM.CONST>
0

>  <SCORE.SYSTEM.DIHEDRAL>
0

>  <SCORE.SYSTEM.SOLV>
0

>  <SCORE.SYSTEM.norm>
0

>  <SCORE.heavy>
32

>  <SCORE.norm>
-2.32177

>  <RMSD>
1.417

$$$$
2tob cryst
 OpenBabel11021811463D
libRbt.so/2013.1/901 2013/11/27
 32 34  0  0  0  0  0  0  0  0999 V2000
   -9.1707   -0.3082   -7.5662 C   0  0  2  0  0  0  0  0  0  0  0  0
   -9.1407    1.1586   -7.9841 C   0  0  1  0  0  0  0  0  0  0  0  0
   -8.4048    1.2789   -9.3189 C   0  0  2  0  0  0  0  0  0  0  0  0
   -7.0078    0.6501   -9.2312 C   0  0  1  0  0  0  0  0  0  0  0  0
   -7.1094   -0.7776   -8.6833 C   0  0  1  0  0  0  0  0  0  0  0  0
   -5.7692   -1.4438   -8.4185 C   0  0  0  0  0  0  0  0  0  0  0  0
  -10.4700    1.6543   -8.1186 O   0  0  0  0  0  0  0  0  0  0  0  0
   -8.2481    2.6492   -9.9014 N   0  3  0  0  0  0  0  0  0  0  0  0
   -6.4275    0.6303  -10.5293 O   0  0  0  0  0  0  0  0  0  0  0  0
   -7.8410   -0.7758   -7.4411 O   0  0  0  0  0  0  0  0  0  0  0  0
   -5.9151   -2.8574   -8.3277 O   0  0  0  0  0  0  0  0  0  0  0  0
  -12.1733   -1.4507   -9.1273 C   0  0  2  0  0  0  0  0  0  0  0  0
  -13.3952   -2.3693   -8.9925 C   0  0  0  0  0  0  0  0  0  0  0  0
  -13.0063   -3.8446   -8.9521 C   0  0  1  0  0  0  0  0  0  0  0  0
  -12.0359   -4.0550   -7.7980 C   0  0  2  0  0  0  0  0  0  0  0  0
  -10.7531   -3.2618   -8.0594 C   0  0  1  0  0  0  0  0  0  0  0  0
  -11.0538   -1.7538   -8.1189 C   0  0  1  0  0  0  0  0  0  0  0  0
  -12.5768   -0.0107   -8.9893 N   0  3  0  0  0  0  0  0  0  0  0  0
  -14.2180   -4.7170   -8.8145 N   0  3  0  0  0  0  0  0  0  0  0  0
   -9.8114   -3.5361   -7.0299 O   0  0  0  0  0  0  0  0  0  0  0  0
  -11.7279   -5.4528   -7.6467 O   0  0  0  0  0  0  0  0  0  0  0  0
   -9.8732   -1.0370   -8.5362 O   0  0  0  0  0  0  0  0  0  0  0  0
  -11.5096   -5.8346   -6.3166 C   0  0  2  0  0  0  0  0  0  0  0  0
  -10.3396   -6.8212   -6.2422 C   0  0  1  0  0  0  0  0  0  0  0  0
  -10.7517   -8.2010   -6.7560 C   0  0  0  0  0  0  0  0  0  0  0  0
  -12.0004   -8.6512   -6.0150 C   0  0  1  0  0  0  0  0  0  0  0  0
  -13.1042   -7.6304   -6.2304 C   0  0  1  0  0  0  0  0  0  0  0  0
  -14.3837   -8.0283   -5.5172 C   0  0  0  0  0  0  0  0  0  0  0  0
   -9.2001   -6.3067   -7.0671 N   0  3  0  0  0  0  0  0  0  0  0  0
  -14.2038   -7.7513   -4.0496 N   0  3  0  0  0  0  0  0  0  0  0  0
  -12.4197   -9.9254   -6.4824 O   0  0  0  0  0  0  0  0  0  0  0  0
  -12.6844   -6.3590   -5.7069 O   0  0  0  0  0  0  0  0  0  0  0  0
  1  2  1  0  0  0  0
  1 22  1  6  0  0  0
  1 10  1  0  0  0  0
  2  3  1  0  0  0  0
  2  7  1  6  0  0  0
  3  4  1  0  0  0  0
  3  8  1  1  0  0  0
  4  5  1  0  0  0  0
  4  9  1  6  0  0  0
  5  6  1  1  0  0  0
  5 10  1  0  0  0  0
  6 11  1  0  0  0  0
 12 13  1  0  0  0  0
 12 17  1  0  0  0  0
 12 18  1  1  0  0  0
 13 14  1  0  0  0  0
 14 15  1  0  0  0  0
 14 19  1  1  0  0  0
 15 16  1  0  0  0  0
 15 21  1  6  0  0  0
 16 17  1  0  0  0  0
 16 20  1  1  0  0  0
 17 22  1  6  0  0  0
 23 21  1  6  0  0  0
 23 24  1  0  0  0  0
 23 32  1  0  0  0  0
 24 25  1  0  0  0  0
 24 29  1  6  0  0  0
 25 26  1  0  0  0  0
 26 27  1  0  0  0  0
 26 31  1  6  0  0  0
 27 28  1  1  0  0  0
 27 32  1  0  0  0  0
 28 30  1  0  0  0  0
M  CHG  5   8   1  18   1  19   1  29   1  30   1
M  END
>  <CHROM.1>
-120.35922157,76.12665346,66.14249932,79.42412978,-161.53662187,-159.90300670
2.53111654,-58.81886581,-146.58869565,-173.80905596,132.88949226,-139.75096885
-77.37851600,-52.04184782,75.85707886,171.49000133,-10.51041307,-3.27409777
-7.75047246,1.08597278,0.00324489,-0.33078170

>  <Name>
2tob cryst

>  <RI>
0

>  <Rbt.Current_Directory>
/home/itssahil/PROJECTS/Mol_Feturizer/New_Systems/rnas/2tob

>  <Rbt.Executable>
rbdock ($Id: //depot/dev/client3/rdock/2013.1/src/exe/rbdock.cxx#4 $)

>  <Rbt.Library>
libRbt.so (2013.1, Build901 2013/11/27)

>  <Rbt.Parameter_File>
/export/apps/rDock/src/rDock_2013.1_src/data/scripts/dock_solv.prm

>  <Rbt.Receptor>
prm/pocket_docking_5.prm

>  <SCORE>
-67.5906

>  <SCORE.INTER>
-54.039

>  <SCORE.INTER.CONST>
1

>  <SCORE.INTER.POLAR>
-8.63715

>  <SCORE.INTER.ROT>
6

>  <SCORE.INTER.SOLV>
33.6852

>  <SCORE.INTER.VDW>
-26.0639

>  <SCORE.INTER.norm>
-1.68872

>  <SCORE.INTRA>
-13.7514

>  <SCORE.INTRA.DIHEDRAL>
16.6289

>  <SCORE.INTRA.DIHEDRAL.0>
18.4221

>  <SCORE.INTRA.POLAR>
-0.387519

>  <SCORE.INTRA.POLAR.0>
-1.57101

>  <SCORE.INTRA.REPUL>
-0.730195

>  <SCORE.INTRA.REPUL.0>
0.730195

>  <SCORE.INTRA.SOLV>
-3.30727

>  <SCORE.INTRA.SOLV.lig_0>
-127.221

>  <SCORE.INTRA.VDW>
-15.4437

>  <SCORE.INTRA.VDW.0>
10.8385

>  <SCORE.INTRA.norm>
-0.429732

>  <SCORE.RESTR>
0.199868

>  <SCORE.RESTR.CAVITY>
0.199868

>  <SCORE.RESTR.norm>
0.00624587

>  <SCORE.SYSTEM>
0

>  <SCORE.SYSTEM.CONST>
0

>  <SCORE.SYSTEM.DIHEDRAL>
0

>  <SCORE.SYSTEM.SOLV>
0

>  <SCORE.SYSTEM.norm>
0

>  <SCORE.heavy>
32

>  <SCORE.norm>
-2.11221

>  <RMSD>
1.430

$$$$
2tob cryst
 OpenBabel11021811463D
libRbt.so/2013.1/901 2013/11/27
 32 34  0  0  0  0  0  0  0  0999 V2000
   -9.2879   -0.1816   -7.0384 C   0  0  2  0  0  0  0  0  0  0  0  0
   -8.7528    1.2182   -7.3236 C   0  0  1  0  0  0  0  0  0  0  0  0
   -7.9023    1.1746   -8.5935 C   0  0  2  0  0  0  0  0  0  0  0  0
   -6.7939    0.1204   -8.4728 C   0  0  1  0  0  0  0  0  0  0  0  0
   -7.3955   -1.2273   -8.0595 C   0  0  1  0  0  0  0  0  0  0  0  0
   -6.3683   -2.3094   -7.7697 C   0  0  0  0  0  0  0  0  0  0  0  0
   -9.8358    2.1278   -7.4981 O   0  0  0  0  0  0  0  0  0  0  0  0
   -7.2640    2.4524   -9.0428 N   0  3  0  0  0  0  0  0  0  0  0  0
   -6.1383   -0.0068   -9.7284 O   0  0  0  0  0  0  0  0  0  0  0  0
   -8.1946   -1.0643   -6.8708 O   0  0  0  0  0  0  0  0  0  0  0  0
   -5.8546   -2.8577   -8.9793 O   0  0  0  0  0  0  0  0  0  0  0  0
  -12.2406   -1.3288   -8.9234 C   0  0  2  0  0  0  0  0  0  0  0  0
  -13.2912   -2.4471   -8.9510 C   0  0  0  0  0  0  0  0  0  0  0  0
  -12.6562   -3.8349   -8.9662 C   0  0  1  0  0  0  0  0  0  0  0  0
  -11.7535   -3.9645   -7.7470 C   0  0  2  0  0  0  0  0  0  0  0  0
  -10.6119   -2.9497   -7.8478 C   0  0  1  0  0  0  0  0  0  0  0  0
  -11.1645   -1.5135   -7.8419 C   0  0  1  0  0  0  0  0  0  0  0  0
  -12.8972    0.0086   -8.7343 N   0  3  0  0  0  0  0  0  0  0  0  0
  -13.7049   -4.9064   -8.9871 N   0  3  0  0  0  0  0  0  0  0  0  0
   -9.7170   -3.1377   -6.7589 O   0  0  0  0  0  0  0  0  0  0  0  0
  -11.2197   -5.2979   -7.6543 O   0  0  0  0  0  0  0  0  0  0  0  0
  -10.0983   -0.5795   -8.1111 O   0  0  0  0  0  0  0  0  0  0  0  0
  -11.2302   -5.8131   -6.3516 C   0  0  2  0  0  0  0  0  0  0  0  0
  -10.4065   -7.1039   -6.2944 C   0  0  1  0  0  0  0  0  0  0  0  0
  -11.1578   -8.2639   -6.9484 C   0  0  0  0  0  0  0  0  0  0  0  0
  -12.5392   -8.3726   -6.3231 C   0  0  1  0  0  0  0  0  0  0  0  0
  -13.2784   -7.0596   -6.5138 C   0  0  1  0  0  0  0  0  0  0  0  0
  -14.6717   -7.1076   -5.9134 C   0  0  0  0  0  0  0  0  0  0  0  0
   -9.1038   -6.8961   -7.0039 N   0  3  0  0  0  0  0  0  0  0  0  0
  -14.5314   -7.1909   -4.4180 N   0  3  0  0  0  0  0  0  0  0  0  0
  -13.2706   -9.4328   -6.9223 O   0  0  0  0  0  0  0  0  0  0  0  0
  -12.5519   -6.0059   -5.8590 O   0  0  0  0  0  0  0  0  0  0  0  0
  1  2  1  0  0  0  0
  1 22  1  6  0  0  0
  1 10  1  0  0  0  0
  2  3  1  0  0  0  0
  2  7  1  6  0  0  0
  3  4  1  0  0  0  0
  3  8  1  1  0  0  0
  4  5  1  0  0  0  0
  4  9  1  6  0  0  0
  5  6  1  1  0  0  0
  5 10  1  0  0  0  0
  6 11  1  0  0  0  0
 12 13  1  0  0  0  0
 12 17  1  0  0  0  0
 12 18  1  1  0  0  0
 13 14  1  0  0  0  0
 14 15  1  0  0  0  0
 14 19  1  1  0  0  0
 15 16  1  0  0  0  0
 15 21  1  6  0  0  0
 16 17  1  0  0  0  0
 16 20  1  1  0  0  0
 17 22  1  6  0  0  0
 23 21  1  6  0  0  0
 23 24  1  0  0  0  0
 23 32  1  0  0  0  0
 24 25  1  0  0  0  0
 24 29  1  6  0  0  0
 25 26  1  0  0  0  0
 26 27  1  0  0  0  0
 26 31  1  6  0  0  0
 27 28  1  1  0  0  0
 27 32  1  0  0  0  0
 28 30  1  0  0  0  0
M  CHG  5   8   1  18   1  19   1  29   1  30   1
M  END
>  <CHROM.1>
-151.86864472,178.33780125,69.79705073,-54.88308948,-77.87500793,-79.70475382
-10.34559785,54.65283410,-137.35711821,177.00384477,155.46438791,-168.98682235
-61.25357031,-176.34539973,67.89539386,50.02147806,-10.48404433,-3.23182409
-7.58426314,1.01851714,0.04119636,-0.21573235

>  <Name>
2tob cryst

>  <RI>
0

>  <Rbt.Current_Directory>
/home/itssahil/PROJECTS/Mol_Feturizer/New_Systems/rnas/2tob

>  <Rbt.Executable>
rbdock ($Id: //depot/dev/client3/rdock/2013.1/src/exe/rbdock.cxx#4 $)

>  <Rbt.Library>
libRbt.so (2013.1, Build901 2013/11/27)

>  <Rbt.Parameter_File>
/export/apps/rDock/src/rDock_2013.1_src/data/scripts/dock_solv.prm

>  <Rbt.Receptor>
prm/pocket_docking_3.prm

>  <SCORE>
-61.4735

>  <SCORE.INTER>
-44.2693

>  <SCORE.INTER.CONST>
1

>  <SCORE.INTER.POLAR>
-5.82027

>  <SCORE.INTER.ROT>
6

>  <SCORE.INTER.SOLV>
35.2798

>  <SCORE.INTER.VDW>
-29.4719

>  <SCORE.INTER.norm>
-1.38342

>  <SCORE.INTRA>
-17.2042

>  <SCORE.INTRA.DIHEDRAL>
1.08173

>  <SCORE.INTRA.DIHEDRAL.0>
18.4221

>  <SCORE.INTRA.POLAR>
0.744028

>  <SCORE.INTRA.POLAR.0>
-1.57101

>  <SCORE.INTRA.REPUL>
-0.730195

>  <SCORE.INTRA.REPUL.0>
0.730195

>  <SCORE.INTRA.SOLV>
-5.3642

>  <SCORE.INTRA.SOLV.lig_0>
-127.221

>  <SCORE.INTRA.VDW>
-13.9417

>  <SCORE.INTRA.VDW.0>
10.8385

>  <SCORE.INTRA.norm>
-0.537632

>  <SCORE.RESTR>
0

>  <SCORE.RESTR.CAVITY>
0

>  <SCORE.RESTR.norm>
0

>  <SCORE.SYSTEM>
0

>  <SCORE.SYSTEM.CONST>
0

>  <SCORE.SYSTEM.DIHEDRAL>
0

>  <SCORE.SYSTEM.SOLV>
0

>  <SCORE.SYSTEM.norm>
0

>  <SCORE.heavy>
32

>  <SCORE.norm>
-1.92105

>  <RMSD>
1.484

$$$$
2tob cryst
 OpenBabel11021811463D
libRbt.so/2013.1/901 2013/11/27
 32 34  0  0  0  0  0  0  0  0999 V2000
   -8.9853   -0.1615   -7.1971 C   0  0  2  0  0  0  0  0  0  0  0  0
   -8.5853    1.2838   -7.4766 C   0  0  1  0  0  0  0  0  0  0  0  0
   -7.8096    1.3378   -8.7931 C   0  0  2  0  0  0  0  0  0  0  0  0
   -6.6128    0.3781   -8.7619 C   0  0  1  0  0  0  0  0  0  0  0  0
   -7.0758   -1.0235   -8.3495 C   0  0  1  0  0  0  0  0  0  0  0  0
   -5.9475   -2.0213   -8.1456 C   0  0  0  0  0  0  0  0  0  0  0  0
   -9.7481    2.1026   -7.5666 O   0  0  0  0  0  0  0  0  0  0  0  0
   -7.3065    2.6736   -9.2452 N   0  3  0  0  0  0  0  0  0  0  0  0
   -6.0233    0.3322  -10.0553 O   0  0  0  0  0  0  0  0  0  0  0  0
   -7.8149   -0.9526   -7.1138 O   0  0  0  0  0  0  0  0  0  0  0  0
   -6.4382   -3.3573   -8.1901 O   0  0  0  0  0  0  0  0  0  0  0  0
  -12.0013   -1.3254   -8.9656 C   0  0  2  0  0  0  0  0  0  0  0  0
  -13.0911   -2.4043   -8.9068 C   0  0  0  0  0  0  0  0  0  0  0  0
  -12.5060   -3.8123   -8.8408 C   0  0  1  0  0  0  0  0  0  0  0  0
  -11.5895   -3.8962   -7.6279 C   0  0  2  0  0  0  0  0  0  0  0  0
  -10.4144   -2.9322   -7.8093 C   0  0  1  0  0  0  0  0  0  0  0  0
  -10.9156   -1.4795   -7.8888 C   0  0  1  0  0  0  0  0  0  0  0  0
  -12.6069    0.0443   -8.8546 N   0  3  0  0  0  0  0  0  0  0  0  0
  -13.5922   -4.8441   -8.7785 N   0  3  0  0  0  0  0  0  0  0  0  0
   -9.5097   -3.0825   -6.7225 O   0  0  0  0  0  0  0  0  0  0  0  0
  -11.1020   -5.2395   -7.4564 O   0  0  0  0  0  0  0  0  0  0  0  0
   -9.8213   -0.6040   -8.2321 O   0  0  0  0  0  0  0  0  0  0  0  0
  -10.5313   -5.4688   -6.1976 C   0  0  2  0  0  0  0  0  0  0  0  0
   -9.9794   -6.8965   -6.1272 C   0  0  1  0  0  0  0  0  0  0  0  0
  -11.1108   -7.9164   -5.9959 C   0  0  0  0  0  0  0  0  0  0  0  0
  -11.9937   -7.5262   -4.8215 C   0  0  1  0  0  0  0  0  0  0  0  0
  -12.5371   -6.1262   -5.0488 C   0  0  1  0  0  0  0  0  0  0  0  0
  -13.4341   -5.6803   -3.9083 C   0  0  0  0  0  0  0  0  0  0  0  0
   -9.1921   -7.1886   -7.3675 N   0  3  0  0  0  0  0  0  0  0  0  0
  -14.7062   -6.4803   -3.9767 N   0  3  0  0  0  0  0  0  0  0  0  0
  -13.0667   -8.4467   -4.6828 O   0  0  0  0  0  0  0  0  0  0  0  0
  -11.4413   -5.1997   -5.1364 O   0  0  0  0  0  0  0  0  0  0  0  0
  1  2  1  0  0  0  0
  1 22  1  6  0  0  0
  1 10  1  0  0  0  0
  2  3  1  0  0  0  0
  2  7  1  6  0  0  0
  3  4  1  0  0  0  0
  3  8  1  1  0  0  0
  4  5  1  0  0  0  0
  4  9  1  6  0  0  0
  5  6  1  1  0  0  0
  5 10  1  0  0  0  0
  6 11  1  0  0  0  0
 12 13  1  0  0  0  0
 12 17  1  0  0  0  0
 12 18  1  1  0  0  0
 13 14  1  0  0  0  0
 14 15  1  0  0  0  0
 14 19  1  1  0  0  0
 15 16  1  0  0  0  0
 15 21  1  6  0  0  0
 16 17  1  0  0  0  0
 16 20  1  1  0  0  0
 17 22  1  6  0  0  0
 23 21  1  6  0  0  0
 23 24  1  0  0  0  0
 23 32  1  0  0  0  0
 24 25  1  0  0  0  0
 24 29  1  6  0  0  0
 25 26  1  0  0  0  0
 26 27  1  0  0  0  0
 26 31  1  6  0  0  0
 27 28  1  1  0  0  0
 27 32  1  0  0  0  0
 28 30  1  0  0  0  0
M  CHG  5   8   1  18   1  19   1  29   1  30   1
M  END
>  <CHROM.1>
-142.87465556,44.46435666,-35.13671880,-69.54634445,-161.41174372,-80.51285825
-125.13502795,54.21756160,-165.14530705,175.92392212,155.09531623,-177.22832628
87.66714412,65.59812745,-70.48076628,171.23226851,-10.23736155,-2.99740945
-7.32561371,1.04465328,0.08978244,-0.34639882

>  <Name>
2tob cryst

>  <RI>
0

>  <Rbt.Current_Directory>
/home/itssahil/PROJECTS/Mol_Feturizer/New_Systems/rnas/2tob

>  <Rbt.Executable>
rbdock ($Id: //depot/dev/client3/rdock/2013.1/src/exe/rbdock.cxx#4 $)

>  <Rbt.Library>
libRbt.so (2013.1, Build901 2013/11/27)

>  <Rbt.Parameter_File>
/export/apps/rDock/src/rDock_2013.1_src/data/scripts/dock_solv.prm

>  <Rbt.Receptor>
prm/pocket_docking_3.prm

>  <SCORE>
-61.0715

>  <SCORE.INTER>
-41.1445

>  <SCORE.INTER.CONST>
1

>  <SCORE.INTER.POLAR>
-5.80479

>  <SCORE.INTER.ROT>
6

>  <SCORE.INTER.SOLV>
36.4936

>  <SCORE.INTER.VDW>
-27.8449

>  <SCORE.INTER.norm>
-1.28577

>  <SCORE.INTRA>
-19.968

>  <SCORE.INTRA.DIHEDRAL>
2.23054

>  <SCORE.INTRA.DIHEDRAL.0>
18.4221

>  <SCORE.INTRA.POLAR>
-0.257856

>  <SCORE.INTRA.POLAR.0>
-1.57101

>  <SCORE.INTRA.REPUL>
-0.730195

>  <SCORE.INTRA.REPUL.0>
0.730195

>  <SCORE.INTRA.SOLV>
-7.71437

>  <SCORE.INTRA.SOLV.lig_0>
-127.221

>  <SCORE.INTRA.VDW>
-12.6984

>  <SCORE.INTRA.VDW.0>
10.8385

>  <SCORE.INTRA.norm>
-0.623999

>  <SCORE.RESTR>
0.0409768

>  <SCORE.RESTR.CAVITY>
0.0409768

>  <SCORE.RESTR.norm>
0.00128053

>  <SCORE.SYSTEM>
0

>  <SCORE.SYSTEM.CONST>
0

>  <SCORE.SYSTEM.DIHEDRAL>
0

>  <SCORE.SYSTEM.SOLV>
0

>  <SCORE.SYSTEM.norm>
0

>  <SCORE.heavy>
32

>  <SCORE.norm>
-1.90848

>  <RMSD>
1.506

$$$$
2tob cryst
 OpenBabel11021811463D
libRbt.so/2013.1/901 2013/11/27
 32 34  0  0  0  0  0  0  0  0999 V2000
   -8.7757   -0.3048   -7.5386 C   0  0  2  0  0  0  0  0  0  0  0  0
   -8.8635    1.1945   -7.8059 C   0  0  1  0  0  0  0  0  0  0  0  0
   -8.2672    1.4883   -9.1828 C   0  0  2  0  0  0  0  0  0  0  0  0
   -6.8372    0.9418   -9.2870 C   0  0  1  0  0  0  0  0  0  0  0  0
   -6.8101   -0.5357   -8.8804 C   0  0  1  0  0  0  0  0  0  0  0  0
   -5.4175   -1.1401   -8.8077 C   0  0  0  0  0  0  0  0  0  0  0  0
  -10.2237    1.6176   -7.7678 O   0  0  0  0  0  0  0  0  0  0  0  0
   -8.2398    2.9155   -9.6346 N   0  3  0  0  0  0  0  0  0  0  0  0
   -6.3848    1.0832  -10.6277 O   0  0  0  0  0  0  0  0  0  0  0  0
   -7.4174   -0.6991   -7.5831 O   0  0  0  0  0  0  0  0  0  0  0  0
   -5.4645   -2.5480   -9.0155 O   0  0  0  0  0  0  0  0  0  0  0  0
  -11.8111   -1.5023   -9.0848 C   0  0  2  0  0  0  0  0  0  0  0  0
  -12.9944   -2.4659   -8.9222 C   0  0  0  0  0  0  0  0  0  0  0  0
  -12.5455   -3.9223   -8.8415 C   0  0  1  0  0  0  0  0  0  0  0  0
  -11.5664   -4.0607   -7.6839 C   0  0  2  0  0  0  0  0  0  0  0  0
  -10.3173   -3.2234   -7.9698 C   0  0  1  0  0  0  0  0  0  0  0  0
  -10.6794   -1.7312   -8.0705 C   0  0  1  0  0  0  0  0  0  0  0  0
  -12.2729   -0.0767   -8.9861 N   0  3  0  0  0  0  0  0  0  0  0  0
  -13.7204   -4.8393   -8.6773 N   0  3  0  0  0  0  0  0  0  0  0  0
   -9.3643   -3.4304   -6.9349 O   0  0  0  0  0  0  0  0  0  0  0  0
  -11.2014   -5.4400   -7.4944 O   0  0  0  0  0  0  0  0  0  0  0  0
   -9.5293   -0.9788   -8.5099 O   0  0  0  0  0  0  0  0  0  0  0  0
  -10.7442   -5.7229   -6.2007 C   0  0  2  0  0  0  0  0  0  0  0  0
  -10.0940   -7.1100   -6.1688 C   0  0  1  0  0  0  0  0  0  0  0  0
  -11.1510   -8.2131   -6.2270 C   0  0  0  0  0  0  0  0  0  0  0  0
  -12.1748   -7.9744   -5.1289 C   0  0  1  0  0  0  0  0  0  0  0  0
  -12.7987   -6.6026   -5.3174 C   0  0  1  0  0  0  0  0  0  0  0  0
  -13.8374   -6.3070   -4.2507 C   0  0  0  0  0  0  0  0  0  0  0  0
   -9.1658   -7.2527   -7.3358 N   0  3  0  0  0  0  0  0  0  0  0  0
  -15.1546   -6.8646   -4.7166 N   0  3  0  0  0  0  0  0  0  0  0  0
  -13.1823   -8.9752   -5.1669 O   0  0  0  0  0  0  0  0  0  0  0  0
  -11.7742   -5.5981   -5.2259 O   0  0  0  0  0  0  0  0  0  0  0  0
  1  2  1  0  0  0  0
  1 22  1  6  0  0  0
  1 10  1  0  0  0  0
  2  3  1  0  0  0  0
  2  7  1  6  0  0  0
  3  4  1  0  0  0  0
  3  8  1  1  0  0  0
  4  5  1  0  0  0  0
  4  9  1  6  0  0  0
  5  6  1  1  0  0  0
  5 10  1  0  0  0  0
  6 11  1  0  0  0  0
 12 13  1  0  0  0  0
 12 17  1  0  0  0  0
 12 18  1  1  0  0  0
 13 14  1  0  0  0  0
 14 15  1  0  0  0  0
 14 19  1  1  0  0  0
 15 16  1  0  0  0  0
 15 21  1  6  0  0  0
 16 17  1  0  0  0  0
 16 20  1  1  0  0  0
 17 22  1  6  0  0  0
 23 21  1  6  0  0  0
 23 24  1  0  0  0  0
 23 32  1  0  0  0  0
 24 25  1  0  0  0  0
 24 29  1  6  0  0  0
 25 26  1  0  0  0  0
 26 27  1  0  0  0  0
 26 31  1  6  0  0  0
 27 28  1  1  0  0  0
 27 32  1  0  0  0  0
 28 30  1  0  0  0  0
M  CHG  5   8   1  18   1  19   1  29   1  30   1
M  END
>  <CHROM.1>
-116.24655181,175.45506118,-82.88007773,85.02744101,-154.28966413,-156.54529777
126.01037995,-64.23609144,-156.99767698,-178.51792226,139.28015090,-167.57160840
-31.41348251,152.97384125,-86.68362437,55.38900137,-10.27551816,-3.06088501
-7.60598555,1.04290902,0.10796720,-0.33779515

>  <Name>
2tob cryst

>  <RI>
0

>  <Rbt.Current_Directory>
/home/itssahil/PROJECTS/Mol_Feturizer/New_Systems/rnas/2tob

>  <Rbt.Executable>
rbdock ($Id: //depot/dev/client3/rdock/2013.1/src/exe/rbdock.cxx#4 $)

>  <Rbt.Library>
libRbt.so (2013.1, Build901 2013/11/27)

>  <Rbt.Parameter_File>
/export/apps/rDock/src/rDock_2013.1_src/data/scripts/dock_solv.prm

>  <Rbt.Receptor>
prm/pocket_docking_3.prm

>  <SCORE>
-63.0944

>  <SCORE.INTER>
-50.6494

>  <SCORE.INTER.CONST>
1

>  <SCORE.INTER.POLAR>
-8.20889

>  <SCORE.INTER.ROT>
6

>  <SCORE.INTER.SOLV>
35.7622

>  <SCORE.INTER.VDW>
-25.924

>  <SCORE.INTER.norm>
-1.58279

>  <SCORE.INTRA>
-12.456

>  <SCORE.INTRA.DIHEDRAL>
16.207

>  <SCORE.INTRA.DIHEDRAL.0>
18.4221

>  <SCORE.INTRA.POLAR>
0.0542511

>  <SCORE.INTRA.POLAR.0>
-1.57101

>  <SCORE.INTRA.REPUL>
-0.730195

>  <SCORE.INTRA.REPUL.0>
0.730195

>  <SCORE.INTRA.SOLV>
-5.41913

>  <SCORE.INTRA.SOLV.lig_0>
-127.221

>  <SCORE.INTRA.VDW>
-14.3834

>  <SCORE.INTRA.VDW.0>
10.8385

>  <SCORE.INTRA.norm>
-0.389249

>  <SCORE.RESTR>
0.0109743

>  <SCORE.RESTR.CAVITY>
0.0109743

>  <SCORE.RESTR.norm>
0.000342945

>  <SCORE.SYSTEM>
0

>  <SCORE.SYSTEM.CONST>
0

>  <SCORE.SYSTEM.DIHEDRAL>
0

>  <SCORE.SYSTEM.SOLV>
0

>  <SCORE.SYSTEM.norm>
0

>  <SCORE.heavy>
32

>  <SCORE.norm>
-1.9717

>  <RMSD>
1.507

$$$$
2tob cryst
 OpenBabel11021811463D
libRbt.so/2013.1/901 2013/11/27
 32 34  0  0  0  0  0  0  0  0999 V2000
   -8.4266    0.6012   -8.3290 C   0  0  2  0  0  0  0  0  0  0  0  0
   -7.2946    1.1742   -9.1759 C   0  0  1  0  0  0  0  0  0  0  0  0
   -6.4469    0.0218   -9.7155 C   0  0  2  0  0  0  0  0  0  0  0  0
   -5.9491   -0.8723   -8.5722 C   0  0  1  0  0  0  0  0  0  0  0  0
   -7.1279   -1.3029   -7.6925 C   0  0  1  0  0  0  0  0  0  0  0  0
   -6.7297   -2.0739   -6.4447 C   0  0  0  0  0  0  0  0  0  0  0  0
   -7.8304    1.9289  -10.2594 O   0  0  0  0  0  0  0  0  0  0  0  0
   -5.2639    0.3715  -10.5640 N   0  3  0  0  0  0  0  0  0  0  0  0
   -5.3135   -2.0182   -9.1246 O   0  0  0  0  0  0  0  0  0  0  0  0
   -7.8689   -0.1434   -7.2626 O   0  0  0  0  0  0  0  0  0  0  0  0
   -7.8388   -2.2199   -5.5636 O   0  0  0  0  0  0  0  0  0  0  0  0
  -11.6391   -0.2970   -9.2133 C   0  0  2  0  0  0  0  0  0  0  0  0
  -12.9108   -1.0947   -8.8947 C   0  0  0  0  0  0  0  0  0  0  0  0
  -12.7212   -2.5935   -9.1115 C   0  0  1  0  0  0  0  0  0  0  0  0
  -11.5548   -3.0604   -8.2516 C   0  0  2  0  0  0  0  0  0  0  0  0
  -10.2691   -2.3749   -8.7208 C   0  0  1  0  0  0  0  0  0  0  0  0
  -10.3734   -0.8503   -8.5397 C   0  0  1  0  0  0  0  0  0  0  0  0
  -11.8077    1.1438   -8.8248 N   0  3  0  0  0  0  0  0  0  0  0  0
  -13.9763   -3.3472   -8.7875 N   0  3  0  0  0  0  0  0  0  0  0  0
   -9.1666   -2.8846   -7.9814 O   0  0  0  0  0  0  0  0  0  0  0  0
  -11.4084   -4.4899   -8.3337 O   0  0  0  0  0  0  0  0  0  0  0  0
   -9.2312   -0.2081   -9.1435 O   0  0  0  0  0  0  0  0  0  0  0  0
  -11.4081   -5.1228   -7.0838 C   0  0  2  0  0  0  0  0  0  0  0  0
  -10.3893   -6.2673   -7.0787 C   0  0  1  0  0  0  0  0  0  0  0  0
  -10.9031   -7.4629   -7.8813 C   0  0  0  0  0  0  0  0  0  0  0  0
  -12.2812   -7.8471   -7.3675 C   0  0  1  0  0  0  0  0  0  0  0  0
  -13.2129   -6.6547   -7.4973 C   0  0  1  0  0  0  0  0  0  0  0  0
  -14.6114   -6.9787   -7.0039 C   0  0  0  0  0  0  0  0  0  0  0  0
   -9.1001   -5.7900   -7.6734 N   0  3  0  0  0  0  0  0  0  0  0  0
  -14.5813   -6.9981   -5.5000 N   0  3  0  0  0  0  0  0  0  0  0  0
  -12.7947   -8.9469   -8.1056 O   0  0  0  0  0  0  0  0  0  0  0  0
  -12.7063   -5.5674   -6.7048 O   0  0  0  0  0  0  0  0  0  0  0  0
  1  2  1  0  0  0  0
  1 22  1  6  0  0  0
  1 10  1  0  0  0  0
  2  3  1  0  0  0  0
  2  7  1  6  0  0  0
  3  4  1  0  0  0  0
  3  8  1  1  0  0  0
  4  5  1  0  0  0  0
  4  9  1  6  0  0  0
  5  6  1  1  0  0  0
  5 10  1  0  0  0  0
  6 11  1  0  0  0  0
 12 13  1  0  0  0  0
 12 17  1  0  0  0  0
 12 18  1  1  0  0  0
 13 14  1  0  0  0  0
 14 15  1  0  0  0  0
 14 19  1  1  0  0  0
 15 16  1  0  0  0  0
 15 21  1  6  0  0  0
 16 17  1  0  0  0  0
 16 20  1  1  0  0  0
 17 22  1  6  0  0  0
 23 21  1  6  0  0  0
 23 24  1  0  0  0  0
 23 32  1  0  0  0  0
 24 25  1  0  0  0  0
 24 29  1  6  0  0  0
 25 26  1  0  0  0  0
 26 27  1  0  0  0  0
 26 31  1  6  0  0  0
 27 28  1  1  0  0  0
 27 32  1  0  0  0  0
 28 30  1  0  0  0  0
M  CHG  5   8   1  18   1  19   1  29   1  30   1
M  END
>  <CHROM.1>
-179.74949592,175.40571920,-36.24012659,172.98541761,169.19277803,-179.51924238
-74.47206076,-9.32379393,-125.84159332,-60.85439832,116.49984263,-141.36531939
32.28181236,175.81337020,75.43284081,-52.47064532,-10.08319267,-2.88675001
-8.12812998,0.88807877,-0.05324339,-0.29022452

>  <Name>
2tob cryst

>  <RI>
3.35201e+07

>  <Rbt.Current_Directory>
/home/itssahil/PROJECTS/Mol_Feturizer/New_Systems/rnas/2tob

>  <Rbt.Executable>
rbdock ($Id: //depot/dev/client3/rdock/2013.1/src/exe/rbdock.cxx#4 $)

>  <Rbt.Library>
libRbt.so (2013.1, Build901 2013/11/27)

>  <Rbt.Parameter_File>
/export/apps/rDock/src/rDock_2013.1_src/data/scripts/dock_solv.prm

>  <Rbt.Receptor>
prm/pocket_docking_4.prm

>  <SCORE>
-57.8486

>  <SCORE.INTER>
-42.2907

>  <SCORE.INTER.CONST>
1

>  <SCORE.INTER.POLAR>
-6.52113

>  <SCORE.INTER.ROT>
6

>  <SCORE.INTER.SOLV>
37.0142

>  <SCORE.INTER.VDW>
-26.3948

>  <SCORE.INTER.norm>
-1.32158

>  <SCORE.INTRA>
-15.5579

>  <SCORE.INTRA.DIHEDRAL>
9.44047

>  <SCORE.INTRA.DIHEDRAL.0>
18.4221

>  <SCORE.INTRA.POLAR>
-0.343272

>  <SCORE.INTRA.POLAR.0>
-1.57101

>  <SCORE.INTRA.REPUL>
-0.730195

>  <SCORE.INTRA.REPUL.0>
0.730195

>  <SCORE.INTRA.SOLV>
-2.85616

>  <SCORE.INTRA.SOLV.lig_0>
-127.221

>  <SCORE.INTRA.VDW>
-14.032

>  <SCORE.INTRA.VDW.0>
10.8385

>  <SCORE.INTRA.norm>
-0.486185

>  <SCORE.RESTR>
0

>  <SCORE.RESTR.CAVITY>
0

>  <SCORE.RESTR.norm>
0

>  <SCORE.SYSTEM>
0

>  <SCORE.SYSTEM.CONST>
0

>  <SCORE.SYSTEM.DIHEDRAL>
0

>  <SCORE.SYSTEM.SOLV>
0

>  <SCORE.SYSTEM.norm>
0

>  <SCORE.heavy>
32

>  <SCORE.norm>
-1.80777

>  <RMSD>
1.514

$$$$
2tob cryst
 OpenBabel11021811463D
libRbt.so/2013.1/901 2013/11/27
 32 34  0  0  0  0  0  0  0  0999 V2000
   -8.7034    0.1066   -7.3155 C   0  0  2  0  0  0  0  0  0  0  0  0
   -7.9535    1.3849   -7.6769 C   0  0  1  0  0  0  0  0  0  0  0  0
   -7.3722    1.2378   -9.0833 C   0  0  2  0  0  0  0  0  0  0  0  0
   -6.4996   -0.0202   -9.1851 C   0  0  1  0  0  0  0  0  0  0  0  0
   -7.2798   -1.2408   -8.6847 C   0  0  1  0  0  0  0  0  0  0  0  0
   -6.4606   -2.5186   -8.6055 C   0  0  0  0  0  0  0  0  0  0  0  0
   -8.8410    2.4991   -7.6347 O   0  0  0  0  0  0  0  0  0  0  0  0
   -6.5775    2.3845   -9.6268 N   0  3  0  0  0  0  0  0  0  0  0  0
   -6.1203   -0.2112  -10.5423 O   0  0  0  0  0  0  0  0  0  0  0  0
   -7.8018   -0.9829   -7.3660 O   0  0  0  0  0  0  0  0  0  0  0  0
   -5.3542   -2.3575   -7.7237 O   0  0  0  0  0  0  0  0  0  0  0  0
  -11.9389   -0.8355   -8.9033 C   0  0  2  0  0  0  0  0  0  0  0  0
  -12.9985   -1.9430   -8.8280 C   0  0  0  0  0  0  0  0  0  0  0  0
  -12.3760   -3.3362   -8.7987 C   0  0  1  0  0  0  0  0  0  0  0  0
  -11.4223   -3.4123   -7.6144 C   0  0  2  0  0  0  0  0  0  0  0  0
  -10.2780   -2.4158   -7.8164 C   0  0  1  0  0  0  0  0  0  0  0  0
  -10.8183   -0.9756   -7.8609 C   0  0  1  0  0  0  0  0  0  0  0  0
  -12.5758    0.5164   -8.7554 N   0  3  0  0  0  0  0  0  0  0  0  0
  -13.4331   -4.3965   -8.7193 N   0  3  0  0  0  0  0  0  0  0  0  0
   -9.3381   -2.5569   -6.7587 O   0  0  0  0  0  0  0  0  0  0  0  0
  -10.8956   -4.7446   -7.4761 O   0  0  0  0  0  0  0  0  0  0  0  0
   -9.7573   -0.0675   -8.2236 O   0  0  0  0  0  0  0  0  0  0  0  0
  -10.1456   -4.9288   -6.3073 C   0  0  2  0  0  0  0  0  0  0  0  0
   -9.7375   -6.3999   -6.1756 C   0  0  1  0  0  0  0  0  0  0  0  0
  -10.9277   -7.2644   -5.7589 C   0  0  0  0  0  0  0  0  0  0  0  0
  -11.5538   -6.6722   -4.5066 C   0  0  1  0  0  0  0  0  0  0  0  0
  -11.9829   -5.2433   -4.7906 C   0  0  1  0  0  0  0  0  0  0  0  0
  -12.6230   -4.5973   -3.5753 C   0  0  0  0  0  0  0  0  0  0  0  0
   -9.2063   -6.8895   -7.4877 N   0  3  0  0  0  0  0  0  0  0  0  0
  -13.9614   -5.2473   -3.3535 N   0  3  0  0  0  0  0  0  0  0  0  0
  -12.6754   -7.4446   -4.1024 O   0  0  0  0  0  0  0  0  0  0  0  0
  -10.8298   -4.4632   -5.1489 O   0  0  0  0  0  0  0  0  0  0  0  0
  1  2  1  0  0  0  0
  1 22  1  6  0  0  0
  1 10  1  0  0  0  0
  2  3  1  0  0  0  0
  2  7  1  6  0  0  0
  3  4  1  0  0  0  0
  3  8  1  1  0  0  0
  4  5  1  0  0  0  0
  4  9  1  6  0  0  0
  5  6  1  1  0  0  0
  5 10  1  0  0  0  0
  6 11  1  0  0  0  0
 12 13  1  0  0  0  0
 12 17  1  0  0  0  0
 12 18  1  1  0  0  0
 13 14  1  0  0  0  0
 14 15  1  0  0  0  0
 14 19  1  1  0  0  0
 15 16  1  0  0  0  0
 15 21  1  6  0  0  0
 16 17  1  0  0  0  0
 16 20  1  1  0  0  0
 17 22  1  6  0  0  0
 23 21  1  6  0  0  0
 23 24  1  0  0  0  0
 23 32  1  0  0  0  0
 24 25  1  0  0  0  0
 24 29  1  6  0  0  0
 25 26  1  0  0  0  0
 26 27  1  0  0  0  0
 26 31  1  6  0  0  0
 27 28  1  1  0  0  0
 27 32  1  0  0  0  0
 28 30  1  0  0  0  0
M  CHG  5   8   1  18   1  19   1  29   1  30   1
M  END
>  <CHROM.1>
-162.53443422,-57.37350185,29.00416966,85.82761177,59.65214109,49.07491014
-3.16875848,176.45046081,-172.30448726,-54.45062533,171.67593529,174.69123318
67.15299975,64.69164567,-70.35283449,-70.15257376,-9.94631949,-2.58755802
-7.32483244,1.01849230,0.14636699,-0.40983149

>  <Name>
2tob cryst

>  <RI>
3.35201e+07

>  <Rbt.Current_Directory>
/home/itssahil/PROJECTS/Mol_Feturizer/New_Systems/rnas/2tob

>  <Rbt.Executable>
rbdock ($Id: //depot/dev/client3/rdock/2013.1/src/exe/rbdock.cxx#4 $)

>  <Rbt.Library>
libRbt.so (2013.1, Build901 2013/11/27)

>  <Rbt.Parameter_File>
/export/apps/rDock/src/rDock_2013.1_src/data/scripts/dock_solv.prm

>  <Rbt.Receptor>
prm/pocket_docking_4.prm

>  <SCORE>
-61.3073

>  <SCORE.INTER>
-43.8035

>  <SCORE.INTER.CONST>
1

>  <SCORE.INTER.POLAR>
-6.4803

>  <SCORE.INTER.ROT>
6

>  <SCORE.INTER.SOLV>
37.8792

>  <SCORE.INTER.VDW>
-27.8277

>  <SCORE.INTER.norm>
-1.36886

>  <SCORE.INTRA>
-17.5682

>  <SCORE.INTRA.DIHEDRAL>
-6.25496

>  <SCORE.INTRA.DIHEDRAL.0>
18.4221

>  <SCORE.INTRA.POLAR>
0.550431

>  <SCORE.INTRA.POLAR.0>
-1.57101

>  <SCORE.INTRA.REPUL>
-0.730195

>  <SCORE.INTRA.REPUL.0>
0.730195

>  <SCORE.INTRA.SOLV>
-8.19525

>  <SCORE.INTRA.SOLV.lig_0>
-127.221

>  <SCORE.INTRA.VDW>
-8.56363

>  <SCORE.INTRA.VDW.0>
10.8385

>  <SCORE.INTRA.norm>
-0.549008

>  <SCORE.RESTR>
0.0644888

>  <SCORE.RESTR.CAVITY>
0.0644888

>  <SCORE.RESTR.norm>
0.00201527

>  <SCORE.SYSTEM>
0

>  <SCORE.SYSTEM.CONST>
0

>  <SCORE.SYSTEM.DIHEDRAL>
0

>  <SCORE.SYSTEM.SOLV>
0

>  <SCORE.SYSTEM.norm>
0

>  <SCORE.heavy>
32

>  <SCORE.norm>
-1.91585

>  <RMSD>
1.579

$$$$
2tob cryst
 OpenBabel11021811463D
libRbt.so/2013.1/901 2013/11/27
 32 34  0  0  0  0  0  0  0  0999 V2000
   -8.8614   -0.2976   -7.5655 C   0  0  2  0  0  0  0  0  0  0  0  0
   -8.8941    1.1996   -7.8557 C   0  0  1  0  0  0  0  0  0  0  0  0
   -8.2549    1.4540   -9.2211 C   0  0  2  0  0  0  0  0  0  0  0  0
   -6.8411    0.8607   -9.2817 C   0  0  1  0  0  0  0  0  0  0  0  0
   -6.8717   -0.6107   -8.8541 C   0  0  1  0  0  0  0  0  0  0  0  0
   -5.5015   -1.2581   -8.7381 C   0  0  0  0  0  0  0  0  0  0  0  0
  -10.2405    1.6664   -7.8576 O   0  0  0  0  0  0  0  0  0  0  0  0
   -8.1704    2.8729   -9.6918 N   0  3  0  0  0  0  0  0  0  0  0  0
   -6.3514    0.9680  -10.6125 O   0  0  0  0  0  0  0  0  0  0  0  0
   -7.5157   -0.7356   -7.5704 O   0  0  0  0  0  0  0  0  0  0  0  0
   -5.6203   -2.6502   -8.4629 O   0  0  0  0  0  0  0  0  0  0  0  0
  -11.8798   -1.5282   -9.1353 C   0  0  2  0  0  0  0  0  0  0  0  0
  -13.0447   -2.5155   -8.9823 C   0  0  0  0  0  0  0  0  0  0  0  0
  -12.5675   -3.9631   -8.9034 C   0  0  1  0  0  0  0  0  0  0  0  0
  -11.5923   -4.0857   -7.7407 C   0  0  2  0  0  0  0  0  0  0  0  0
  -10.3584   -3.2229   -8.0170 C   0  0  1  0  0  0  0  0  0  0  0  0
  -10.7495   -1.7378   -8.1154 C   0  0  1  0  0  0  0  0  0  0  0  0
  -12.3703   -0.1123   -9.0350 N   0  3  0  0  0  0  0  0  0  0  0  0
  -13.7249   -4.9036   -8.7486 N   0  3  0  0  0  0  0  0  0  0  0  0
   -9.4074   -3.4141   -6.9773 O   0  0  0  0  0  0  0  0  0  0  0  0
  -11.2011   -5.4580   -7.5533 O   0  0  0  0  0  0  0  0  0  0  0  0
   -9.6121   -0.9614   -8.5460 O   0  0  0  0  0  0  0  0  0  0  0  0
  -10.8002   -5.7493   -6.2429 C   0  0  2  0  0  0  0  0  0  0  0  0
  -10.1770   -7.1480   -6.1867 C   0  0  1  0  0  0  0  0  0  0  0  0
  -11.2509   -8.2317   -6.2871 C   0  0  0  0  0  0  0  0  0  0  0  0
  -12.3123   -7.9745   -5.2297 C   0  0  1  0  0  0  0  0  0  0  0  0
  -12.9033   -6.5915   -5.4414 C   0  0  1  0  0  0  0  0  0  0  0  0
  -13.9774   -6.2771   -4.4160 C   0  0  0  0  0  0  0  0  0  0  0  0
   -9.2066   -7.3075   -7.3165 N   0  3  0  0  0  0  0  0  0  0  0  0
  -13.3124   -6.1345   -3.0742 N   0  3  0  0  0  0  0  0  0  0  0  0
  -13.3356   -8.9567   -5.3079 O   0  0  0  0  0  0  0  0  0  0  0  0
  -11.8651   -5.6059   -5.3091 O   0  0  0  0  0  0  0  0  0  0  0  0
  1  2  1  0  0  0  0
  1 22  1  6  0  0  0
  1 10  1  0  0  0  0
  2  3  1  0  0  0  0
  2  7  1  6  0  0  0
  3  4  1  0  0  0  0
  3  8  1  1  0  0  0
  4  5  1  0  0  0  0
  4  9  1  6  0  0  0
  5  6  1  1  0  0  0
  5 10  1  0  0  0  0
  6 11  1  0  0  0  0
 12 13  1  0  0  0  0
 12 17  1  0  0  0  0
 12 18  1  1  0  0  0
 13 14  1  0  0  0  0
 14 15  1  0  0  0  0
 14 19  1  1  0  0  0
 15 16  1  0  0  0  0
 15 21  1  6  0  0  0
 16 17  1  0  0  0  0
 16 20  1  1  0  0  0
 17 22  1  6  0  0  0
 23 21  1  6  0  0  0
 23 24  1  0  0  0  0
 23 32  1  0  0  0  0
 24 25  1  0  0  0  0
 24 29  1  6  0  0  0
 25 26  1  0  0  0  0
 26 27  1  0  0  0  0
 26 31  1  6  0  0  0
 27 28  1  1  0  0  0
 27 32  1  0  0  0  0
 28 30  1  0  0  0  0
M  CHG  5   8   1  18   1  19   1  29   1  30   1
M  END
>  <CHROM.1>
-119.96721022,173.09597324,47.01019439,-178.73103647,-174.45493186,-171.88694820
-119.43493939,173.91378142,-154.40773868,74.42946112,140.54712377,-170.27756083
95.69763653,66.40147974,68.46217495,-48.40873927,-10.26043543,-3.06804597
-7.57012150,1.07005126,0.08984206,-0.36426346

>  <Name>
2tob cryst

>  <RI>
2.10184e+07

>  <Rbt.Current_Directory>
/home/itssahil/PROJECTS/Mol_Feturizer/New_Systems/rnas/2tob

>  <Rbt.Executable>
rbdock ($Id: //depot/dev/client3/rdock/2013.1/src/exe/rbdock.cxx#4 $)

>  <Rbt.Library>
libRbt.so (2013.1, Build901 2013/11/27)

>  <Rbt.Parameter_File>
/export/apps/rDock/src/rDock_2013.1_src/data/scripts/dock_solv.prm

>  <Rbt.Receptor>
prm/pocket_docking_7.prm

>  <SCORE>
-62.5844

>  <SCORE.INTER>
-46.2029

>  <SCORE.INTER.CONST>
1

>  <SCORE.INTER.POLAR>
-7.26193

>  <SCORE.INTER.ROT>
6

>  <SCORE.INTER.SOLV>
36.0436

>  <SCORE.INTER.VDW>
-26.21

>  <SCORE.INTER.norm>
-1.44384

>  <SCORE.INTRA>
-16.3815

>  <SCORE.INTRA.DIHEDRAL>
6.25348

>  <SCORE.INTRA.DIHEDRAL.0>
18.4221

>  <SCORE.INTRA.POLAR>
0.320839

>  <SCORE.INTRA.POLAR.0>
-1.57101

>  <SCORE.INTRA.REPUL>
-0.730195

>  <SCORE.INTRA.REPUL.0>
0.730195

>  <SCORE.INTRA.SOLV>
-5.61546

>  <SCORE.INTRA.SOLV.lig_0>
-127.221

>  <SCORE.INTRA.VDW>
-14.1404

>  <SCORE.INTRA.VDW.0>
10.8385

>  <SCORE.INTRA.norm>
-0.511921

>  <SCORE.RESTR>
0

>  <SCORE.RESTR.CAVITY>
0

>  <SCORE.RESTR.norm>
0

>  <SCORE.SYSTEM>
0

>  <SCORE.SYSTEM.CONST>
0

>  <SCORE.SYSTEM.DIHEDRAL>
0

>  <SCORE.SYSTEM.SOLV>
0

>  <SCORE.SYSTEM.norm>
0

>  <SCORE.heavy>
32

>  <SCORE.norm>
-1.95576

>  <RMSD>
1.584

$$$$
2tob cryst
 OpenBabel11021811463D
libRbt.so/2013.1/901 2013/11/27
 32 34  0  0  0  0  0  0  0  0999 V2000
   -8.7257    0.2903   -7.2977 C   0  0  2  0  0  0  0  0  0  0  0  0
   -8.0586    1.5837   -7.7549 C   0  0  1  0  0  0  0  0  0  0  0  0
   -7.2676    1.3084   -9.0340 C   0  0  2  0  0  0  0  0  0  0  0  0
   -6.2717    0.1600   -8.8241 C   0  0  1  0  0  0  0  0  0  0  0  0
   -6.9944   -1.0606   -8.2438 C   0  0  1  0  0  0  0  0  0  0  0  0
   -6.0755   -2.2090   -7.8604 C   0  0  0  0  0  0  0  0  0  0  0  0
   -9.0465    2.5805   -8.0025 O   0  0  0  0  0  0  0  0  0  0  0  0
   -6.5171    2.4520   -9.6430 N   0  3  0  0  0  0  0  0  0  0  0  0
   -5.6826   -0.1753  -10.0742 O   0  0  0  0  0  0  0  0  0  0  0  0
   -7.7250   -0.6818   -7.0602 O   0  0  0  0  0  0  0  0  0  0  0  0
   -5.6712   -2.9410   -9.0130 O   0  0  0  0  0  0  0  0  0  0  0  0
  -11.8323   -0.8455   -8.9167 C   0  0  2  0  0  0  0  0  0  0  0  0
  -12.9107   -1.9336   -8.8271 C   0  0  0  0  0  0  0  0  0  0  0  0
  -12.3155   -3.3389   -8.8454 C   0  0  1  0  0  0  0  0  0  0  0  0
  -11.3248   -3.4568   -7.6953 C   0  0  2  0  0  0  0  0  0  0  0  0
  -10.1682   -2.4788   -7.9164 C   0  0  1  0  0  0  0  0  0  0  0  0
  -10.6809   -1.0278   -7.9152 C   0  0  1  0  0  0  0  0  0  0  0  0
  -12.4369    0.5153   -8.7217 N   0  3  0  0  0  0  0  0  0  0  0  0
  -13.3904   -4.3800   -8.7509 N   0  3  0  0  0  0  0  0  0  0  0  0
   -9.1969   -2.6589   -6.8936 O   0  0  0  0  0  0  0  0  0  0  0  0
  -10.8206   -4.8015   -7.6002 O   0  0  0  0  0  0  0  0  0  0  0  0
   -9.6145   -0.1334   -8.2958 O   0  0  0  0  0  0  0  0  0  0  0  0
  -10.1917   -5.0758   -6.3787 C   0  0  2  0  0  0  0  0  0  0  0  0
   -9.8327   -6.5633   -6.2991 C   0  0  1  0  0  0  0  0  0  0  0  0
  -11.0775   -7.4158   -6.0514 C   0  0  0  0  0  0  0  0  0  0  0  0
  -11.8079   -6.8802   -4.8305 C   0  0  1  0  0  0  0  0  0  0  0  0
  -12.1741   -5.4252   -5.0661 C   0  0  1  0  0  0  0  0  0  0  0  0
  -12.9136   -4.8334   -3.8799 C   0  0  0  0  0  0  0  0  0  0  0  0
   -9.1885   -6.9903   -7.5822 N   0  3  0  0  0  0  0  0  0  0  0  0
  -11.9133   -4.5874   -2.7836 N   0  3  0  0  0  0  0  0  0  0  0  0
  -12.9810   -7.6421   -4.5831 O   0  0  0  0  0  0  0  0  0  0  0  0
  -10.9738   -4.6592   -5.2645 O   0  0  0  0  0  0  0  0  0  0  0  0
  1  2  1  0  0  0  0
  1 22  1  6  0  0  0
  1 10  1  0  0  0  0
  2  3  1  0  0  0  0
  2  7  1  6  0  0  0
  3  4  1  0  0  0  0
  3  8  1  1  0  0  0
  4  5  1  0  0  0  0
  4  9  1  6  0  0  0
  5  6  1  1  0  0  0
  5 10  1  0  0  0  0
  6 11  1  0  0  0  0
 12 13  1  0  0  0  0
 12 17  1  0  0  0  0
 12 18  1  1  0  0  0
 13 14  1  0  0  0  0
 14 15  1  0  0  0  0
 14 19  1  1  0  0  0
 15 16  1  0  0  0  0
 15 21  1  6  0  0  0
 16 17  1  0  0  0  0
 16 20  1  1  0  0  0
 17 22  1  6  0  0  0
 23 21  1  6  0  0  0
 23 24  1  0  0  0  0
 23 32  1  0  0  0  0
 24 25  1  0  0  0  0
 24 29  1  6  0  0  0
 25 26  1  0  0  0  0
 26 27  1  0  0  0  0
 26 31  1  6  0  0  0
 27 28  1  1  0  0  0
 27 32  1  0  0  0  0
 28 30  1  0  0  0  0
M  CHG  5   8   1  18   1  19   1  29   1  30   1
M  END
>  <CHROM.1>
-158.32529604,69.63072475,162.30573995,-44.25625424,-77.95761165,-75.83297292
0.32052056,-59.12948215,-164.11211791,-148.21507143,154.49253223,173.46859191
71.50739280,-178.43855433,74.83643112,-59.15044333,-9.85419369,-2.59281303
-7.37660412,1.03259236,0.15802202,-0.35966589

>  <Name>
2tob cryst

>  <RI>
3.35201e+07

>  <Rbt.Current_Directory>
/home/itssahil/PROJECTS/Mol_Feturizer/New_Systems/rnas/2tob

>  <Rbt.Executable>
rbdock ($Id: //depot/dev/client3/rdock/2013.1/src/exe/rbdock.cxx#4 $)

>  <Rbt.Library>
libRbt.so (2013.1, Build901 2013/11/27)

>  <Rbt.Parameter_File>
/export/apps/rDock/src/rDock_2013.1_src/data/scripts/dock_solv.prm

>  <Rbt.Receptor>
prm/pocket_docking_4.prm

>  <SCORE>
-60.1648

>  <SCORE.INTER>
-45.8712

>  <SCORE.INTER.CONST>
1

>  <SCORE.INTER.POLAR>
-6.32351

>  <SCORE.INTER.ROT>
6

>  <SCORE.INTER.SOLV>
38.2004

>  <SCORE.INTER.VDW>
-29.8359

>  <SCORE.INTER.norm>
-1.43348

>  <SCORE.INTRA>
-14.2936

>  <SCORE.INTRA.DIHEDRAL>
1.06954

>  <SCORE.INTRA.DIHEDRAL.0>
18.4221

>  <SCORE.INTRA.POLAR>
0.873741

>  <SCORE.INTRA.POLAR.0>
-1.57101

>  <SCORE.INTRA.REPUL>
-0.730195

>  <SCORE.INTRA.REPUL.0>
0.730195

>  <SCORE.INTRA.SOLV>
-8.44429

>  <SCORE.INTRA.SOLV.lig_0>
-127.221

>  <SCORE.INTRA.VDW>
-9.92593

>  <SCORE.INTRA.VDW.0>
10.8385

>  <SCORE.INTRA.norm>
-0.446674

>  <SCORE.RESTR>
0

>  <SCORE.RESTR.CAVITY>
0

>  <SCORE.RESTR.norm>
0

>  <SCORE.SYSTEM>
0

>  <SCORE.SYSTEM.CONST>
0

>  <SCORE.SYSTEM.DIHEDRAL>
0

>  <SCORE.SYSTEM.SOLV>
0

>  <SCORE.SYSTEM.norm>
0

>  <SCORE.heavy>
32

>  <SCORE.norm>
-1.88015

>  <RMSD>
1.590

$$$$
2tob cryst
 OpenBabel11021811463D
libRbt.so/2013.1/901 2013/11/27
 32 34  0  0  0  0  0  0  0  0999 V2000
   -7.8310    0.5753   -7.8237 C   0  0  2  0  0  0  0  0  0  0  0  0
   -7.2582    1.9028   -8.3103 C   0  0  1  0  0  0  0  0  0  0  0  0
   -6.6308    1.6962   -9.6892 C   0  0  2  0  0  0  0  0  0  0  0  0
   -5.5898    0.5695   -9.6527 C   0  0  1  0  0  0  0  0  0  0  0  0
   -6.2037   -0.6911   -9.0341 C   0  0  1  0  0  0  0  0  0  0  0  0
   -5.2169   -1.8263   -8.8159 C   0  0  0  0  0  0  0  0  0  0  0  0
   -8.2926    2.8796   -8.3912 O   0  0  0  0  0  0  0  0  0  0  0  0
   -5.9912    2.8818  -10.3429 N   0  3  0  0  0  0  0  0  0  0  0  0
   -5.1575    0.2964  -10.9796 O   0  0  0  0  0  0  0  0  0  0  0  0
   -6.7858   -0.3761   -7.7534 O   0  0  0  0  0  0  0  0  0  0  0  0
   -5.8781   -2.9832   -8.3138 O   0  0  0  0  0  0  0  0  0  0  0  0
  -11.1817   -0.2485   -9.0498 C   0  0  2  0  0  0  0  0  0  0  0  0
  -12.3781   -1.1756   -8.7965 C   0  0  0  0  0  0  0  0  0  0  0  0
  -11.9839   -2.6495   -8.8338 C   0  0  1  0  0  0  0  0  0  0  0  0
  -10.8871   -2.8805   -7.8033 C   0  0  2  0  0  0  0  0  0  0  0  0
   -9.6445   -2.0756   -8.1922 C   0  0  1  0  0  0  0  0  0  0  0  0
   -9.9534   -0.5682   -8.1832 C   0  0  1  0  0  0  0  0  0  0  0  0
  -11.5699    1.1862   -8.8345 N   0  3  0  0  0  0  0  0  0  0  0  0
  -13.1698   -3.5305   -8.5778 N   0  3  0  0  0  0  0  0  0  0  0  0
   -8.5904   -2.3680   -7.2836 O   0  0  0  0  0  0  0  0  0  0  0  0
  -10.5606   -4.2798   -7.7195 O   0  0  0  0  0  0  0  0  0  0  0  0
   -8.8300    0.1632   -8.7169 O   0  0  0  0  0  0  0  0  0  0  0  0
  -10.0726   -4.6639   -6.4637 C   0  0  2  0  0  0  0  0  0  0  0  0
   -9.9477   -6.1897   -6.3970 C   0  0  1  0  0  0  0  0  0  0  0  0
  -11.3213   -6.8473   -6.2607 C   0  0  0  0  0  0  0  0  0  0  0  0
  -12.0518   -6.2252   -5.0817 C   0  0  1  0  0  0  0  0  0  0  0  0
  -12.1772   -4.7282   -5.3053 C   0  0  1  0  0  0  0  0  0  0  0  0
  -12.9057   -4.0486   -4.1601 C   0  0  0  0  0  0  0  0  0  0  0  0
   -9.2812   -6.6904   -7.6414 N   0  3  0  0  0  0  0  0  0  0  0  0
  -12.0081   -4.0804   -2.9534 N   0  3  0  0  0  0  0  0  0  0  0  0
  -13.3411   -6.8041   -4.9382 O   0  0  0  0  0  0  0  0  0  0  0  0
  -10.8641   -4.1501   -5.3978 O   0  0  0  0  0  0  0  0  0  0  0  0
  1  2  1  0  0  0  0
  1 22  1  6  0  0  0
  1 10  1  0  0  0  0
  2  3  1  0  0  0  0
  2  7  1  6  0  0  0
  3  4  1  0  0  0  0
  3  8  1  1  0  0  0
  4  5  1  0  0  0  0
  4  9  1  6  0  0  0
  5  6  1  1  0  0  0
  5 10  1  0  0  0  0
  6 11  1  0  0  0  0
 12 13  1  0  0  0  0
 12 17  1  0  0  0  0
 12 18  1  1  0  0  0
 13 14  1  0  0  0  0
 14 15  1  0  0  0  0
 14 19  1  1  0  0  0
 15 16  1  0  0  0  0
 15 21  1  6  0  0  0
 16 17  1  0  0  0  0
 16 20  1  1  0  0  0
 17 22  1  6  0  0  0
 23 21  1  6  0  0  0
 23 24  1  0  0  0  0
 23 32  1  0  0  0  0
 24 25  1  0  0  0  0
 24 29  1  6  0  0  0
 25 26  1  0  0  0  0
 26 27  1  0  0  0  0
 26 31  1  6  0  0  0
 27 28  1  1  0  0  0
 27 32  1  0  0  0  0
 28 30  1  0  0  0  0
M  CHG  5   8   1  18   1  19   1  29   1  30   1
M  END
>  <CHROM.1>
-146.93783268,68.17975274,39.73617798,81.60663050,-176.57072671,-145.21547675
53.14353100,68.57191800,-152.15615404,68.16479295,149.35445300,171.69609490
171.62915393,-58.51434546,69.97399454,-173.09524215,-9.47309321,-2.11736074
-7.67736633,0.93912456,0.24370041,-0.34697559

>  <Name>
2tob cryst

>  <RI>
3.35201e+07

>  <Rbt.Current_Directory>
/home/itssahil/PROJECTS/Mol_Feturizer/New_Systems/rnas/2tob

>  <Rbt.Executable>
rbdock ($Id: //depot/dev/client3/rdock/2013.1/src/exe/rbdock.cxx#4 $)

>  <Rbt.Library>
libRbt.so (2013.1, Build901 2013/11/27)

>  <Rbt.Parameter_File>
/export/apps/rDock/src/rDock_2013.1_src/data/scripts/dock_solv.prm

>  <Rbt.Receptor>
prm/pocket_docking_4.prm

>  <SCORE>
-66.1629

>  <SCORE.INTER>
-50.8386

>  <SCORE.INTER.CONST>
1

>  <SCORE.INTER.POLAR>
-7.3218

>  <SCORE.INTER.ROT>
6

>  <SCORE.INTER.SOLV>
39.0419

>  <SCORE.INTER.VDW>
-30.1004

>  <SCORE.INTER.norm>
-1.58871

>  <SCORE.INTRA>
-15.3242

>  <SCORE.INTRA.DIHEDRAL>
2.31081

>  <SCORE.INTRA.DIHEDRAL.0>
18.4221

>  <SCORE.INTRA.POLAR>
1.5554

>  <SCORE.INTRA.POLAR.0>
-1.57101

>  <SCORE.INTRA.REPUL>
-0.730195

>  <SCORE.INTRA.REPUL.0>
0.730195

>  <SCORE.INTRA.SOLV>
-6.43719

>  <SCORE.INTRA.SOLV.lig_0>
-127.221

>  <SCORE.INTRA.VDW>
-14.8984

>  <SCORE.INTRA.VDW.0>
10.8385

>  <SCORE.INTRA.norm>
-0.478883

>  <SCORE.RESTR>
0

>  <SCORE.RESTR.CAVITY>
0

>  <SCORE.RESTR.norm>
0

>  <SCORE.SYSTEM>
0

>  <SCORE.SYSTEM.CONST>
0

>  <SCORE.SYSTEM.DIHEDRAL>
0

>  <SCORE.SYSTEM.SOLV>
0

>  <SCORE.SYSTEM.norm>
0

>  <SCORE.heavy>
32

>  <SCORE.norm>
-2.06759

>  <RMSD>
1.598

$$$$
2tob cryst
 OpenBabel11021811463D
libRbt.so/2013.1/901 2013/11/27
 32 34  0  0  0  0  0  0  0  0999 V2000
   -9.3737    0.3904   -7.8167 C   0  0  2  0  0  0  0  0  0  0  0  0
   -8.5250    1.4139   -8.5645 C   0  0  1  0  0  0  0  0  0  0  0  0
   -7.4585    0.6764   -9.3748 C   0  0  2  0  0  0  0  0  0  0  0  0
   -6.6296   -0.2482   -8.4734 C   0  0  1  0  0  0  0  0  0  0  0  0
   -7.5579   -1.1575   -7.6608 C   0  0  1  0  0  0  0  0  0  0  0  0
   -6.8471   -2.0152   -6.6268 C   0  0  0  0  0  0  0  0  0  0  0  0
   -9.3472    2.1851   -9.4363 O   0  0  0  0  0  0  0  0  0  0  0  0
   -6.5015    1.5049  -10.1746 N   0  3  0  0  0  0  0  0  0  0  0  0
   -5.7695   -1.0367   -9.2862 O   0  0  0  0  0  0  0  0  0  0  0  0
   -8.5349   -0.3618   -6.9604 O   0  0  0  0  0  0  0  0  0  0  0  0
   -7.7857   -2.7296   -5.8290 O   0  0  0  0  0  0  0  0  0  0  0  0
  -12.3384   -0.9686   -9.0779 C   0  0  2  0  0  0  0  0  0  0  0  0
  -13.4618   -2.0004   -8.9092 C   0  0  0  0  0  0  0  0  0  0  0  0
  -12.9717   -3.4286   -9.1317 C   0  0  1  0  0  0  0  0  0  0  0  0
  -11.8299   -3.7021   -8.1624 C   0  0  2  0  0  0  0  0  0  0  0  0
  -10.6565   -2.7722   -8.4815 C   0  0  1  0  0  0  0  0  0  0  0  0
  -11.0646   -1.3016   -8.2851 C   0  0  1  0  0  0  0  0  0  0  0  0
  -12.8142    0.4001   -8.6836 N   0  3  0  0  0  0  0  0  0  0  0  0
  -14.0877   -4.4143   -8.9549 N   0  3  0  0  0  0  0  0  0  0  0  0
   -9.5570   -3.0951   -7.6396 O   0  0  0  0  0  0  0  0  0  0  0  0
  -11.4085   -5.0752   -8.2543 O   0  0  0  0  0  0  0  0  0  0  0  0
  -10.0099   -0.4358   -8.7539 O   0  0  0  0  0  0  0  0  0  0  0  0
  -11.6711   -5.8174   -7.0955 C   0  0  2  0  0  0  0  0  0  0  0  0
  -10.5571   -6.8453   -6.8706 C   0  0  1  0  0  0  0  0  0  0  0  0
  -10.6767   -8.0085   -7.8555 C   0  0  0  0  0  0  0  0  0  0  0  0
  -12.0831   -8.5799   -7.7765 C   0  0  1  0  0  0  0  0  0  0  0  0
  -13.0859   -7.4841   -8.0932 C   0  0  1  0  0  0  0  0  0  0  0  0
  -14.5137   -7.9961   -8.0358 C   0  0  0  0  0  0  0  0  0  0  0  0
   -9.2249   -6.1835   -7.0467 N   0  3  0  0  0  0  0  0  0  0  0  0
  -14.8480   -8.2820   -6.5972 N   0  3  0  0  0  0  0  0  0  0  0  0
  -12.2322   -9.6542   -8.6939 O   0  0  0  0  0  0  0  0  0  0  0  0
  -12.9568   -6.4280   -7.1264 O   0  0  0  0  0  0  0  0  0  0  0  0
  1  2  1  0  0  0  0
  1 22  1  6  0  0  0
  1 10  1  0  0  0  0
  2  3  1  0  0  0  0
  2  7  1  6  0  0  0
  3  4  1  0  0  0  0
  3  8  1  1  0  0  0
  4  5  1  0  0  0  0
  4  9  1  6  0  0  0
  5  6  1  1  0  0  0
  5 10  1  0  0  0  0
  6 11  1  0  0  0  0
 12 13  1  0  0  0  0
 12 17  1  0  0  0  0
 12 18  1  1  0  0  0
 13 14  1  0  0  0  0
 14 15  1  0  0  0  0
 14 19  1  1  0  0  0
 15 16  1  0  0  0  0
 15 21  1  6  0  0  0
 16 17  1  0  0  0  0
 16 20  1  1  0  0  0
 17 22  1  6  0  0  0
 23 21  1  6  0  0  0
 23 24  1  0  0  0  0
 23 32  1  0  0  0  0
 24 25  1  0  0  0  0
 24 29  1  6  0  0  0
 25 26  1  0  0  0  0
 26 27  1  0  0  0  0
 26 31  1  6  0  0  0
 27 28  1  1  0  0  0
 27 32  1  0  0  0  0
 28 30  1  0  0  0  0
M  CHG  5   8   1  18   1  19   1  29   1  30   1
M  END
>  <CHROM.1>
-167.94584118,-73.58306858,64.32300336,176.46989489,174.29348450,-53.93762848
102.55402964,-173.46552484,-113.43916236,135.87651592,122.28283456,-145.15595893
-100.80155625,-179.76420764,69.86055197,60.19956574,-10.50037173,-3.23488746
-8.11476385,1.01835465,-0.16246862,-0.21559325

>  <Name>
2tob cryst

>  <RI>
3.35201e+07

>  <Rbt.Current_Directory>
/home/itssahil/PROJECTS/Mol_Feturizer/New_Systems/rnas/2tob

>  <Rbt.Executable>
rbdock ($Id: //depot/dev/client3/rdock/2013.1/src/exe/rbdock.cxx#4 $)

>  <Rbt.Library>
libRbt.so (2013.1, Build901 2013/11/27)

>  <Rbt.Parameter_File>
/export/apps/rDock/src/rDock_2013.1_src/data/scripts/dock_solv.prm

>  <Rbt.Receptor>
prm/pocket_docking_4.prm

>  <SCORE>
-55.6912

>  <SCORE.INTER>
-46.3342

>  <SCORE.INTER.CONST>
1

>  <SCORE.INTER.POLAR>
-6.68451

>  <SCORE.INTER.ROT>
6

>  <SCORE.INTER.SOLV>
32.8712

>  <SCORE.INTER.VDW>
-27.1648

>  <SCORE.INTER.norm>
-1.44794

>  <SCORE.INTRA>
-9.35695

>  <SCORE.INTRA.DIHEDRAL>
14.3467

>  <SCORE.INTRA.DIHEDRAL.0>
18.4221

>  <SCORE.INTRA.POLAR>
0.50551

>  <SCORE.INTRA.POLAR.0>
-1.57101

>  <SCORE.INTRA.REPUL>
-0.730195

>  <SCORE.INTRA.REPUL.0>
0.730195

>  <SCORE.INTRA.SOLV>
-1.97119

>  <SCORE.INTRA.SOLV.lig_0>
-127.221

>  <SCORE.INTRA.VDW>
-13.6124

>  <SCORE.INTRA.VDW.0>
10.8385

>  <SCORE.INTRA.norm>
-0.292405

>  <SCORE.RESTR>
0

>  <SCORE.RESTR.CAVITY>
0

>  <SCORE.RESTR.norm>
0

>  <SCORE.SYSTEM>
0

>  <SCORE.SYSTEM.CONST>
0

>  <SCORE.SYSTEM.DIHEDRAL>
0

>  <SCORE.SYSTEM.SOLV>
0

>  <SCORE.SYSTEM.norm>
0

>  <SCORE.heavy>
32

>  <SCORE.norm>
-1.74035

>  <RMSD>
1.609

$$$$
2tob cryst
 OpenBabel11021811463D
libRbt.so/2013.1/901 2013/11/27
 32 34  0  0  0  0  0  0  0  0999 V2000
   -8.7112    0.2519   -7.2903 C   0  0  2  0  0  0  0  0  0  0  0  0
   -8.0321    1.5475   -7.7230 C   0  0  1  0  0  0  0  0  0  0  0  0
   -7.2412    1.2883   -9.0056 C   0  0  2  0  0  0  0  0  0  0  0  0
   -6.2557    0.1277   -8.8148 C   0  0  1  0  0  0  0  0  0  0  0  0
   -6.9900   -1.0968   -8.2577 C   0  0  1  0  0  0  0  0  0  0  0  0
   -6.0819   -2.2599   -7.8936 C   0  0  0  0  0  0  0  0  0  0  0  0
   -9.0108    2.5571   -7.9543 O   0  0  0  0  0  0  0  0  0  0  0  0
   -6.4798    2.4361   -9.5927 N   0  3  0  0  0  0  0  0  0  0  0  0
   -5.6673   -0.1902  -10.0698 O   0  0  0  0  0  0  0  0  0  0  0  0
   -7.7194   -0.7329   -7.0687 O   0  0  0  0  0  0  0  0  0  0  0  0
   -6.7479   -3.5033   -8.0888 O   0  0  0  0  0  0  0  0  0  0  0  0
  -11.7888   -0.9034   -8.9717 C   0  0  2  0  0  0  0  0  0  0  0  0
  -12.8477   -2.0122   -8.9055 C   0  0  0  0  0  0  0  0  0  0  0  0
  -12.2249   -3.4055   -8.9034 C   0  0  1  0  0  0  0  0  0  0  0  0
  -11.2618   -3.5004   -7.7281 C   0  0  2  0  0  0  0  0  0  0  0  0
  -10.1192   -2.5005   -7.9233 C   0  0  1  0  0  0  0  0  0  0  0  0
  -10.6600   -1.0599   -7.9406 C   0  0  1  0  0  0  0  0  0  0  0  0
  -12.4246    0.4458   -8.7973 N   0  3  0  0  0  0  0  0  0  0  0  0
  -13.2813   -4.4672   -8.8324 N   0  3  0  0  0  0  0  0  0  0  0  0
   -9.1709   -2.6583   -6.8755 O   0  0  0  0  0  0  0  0  0  0  0  0
  -10.7340   -4.8346   -7.6151 O   0  0  0  0  0  0  0  0  0  0  0  0
   -9.6019   -0.1460   -8.2972 O   0  0  0  0  0  0  0  0  0  0  0  0
  -10.0150   -5.0512   -6.4324 C   0  0  2  0  0  0  0  0  0  0  0  0
   -9.7568   -6.5501   -6.2458 C   0  0  1  0  0  0  0  0  0  0  0  0
  -11.0305   -7.2766   -5.8130 C   0  0  0  0  0  0  0  0  0  0  0  0
  -11.6038   -6.5813   -4.5887 C   0  0  1  0  0  0  0  0  0  0  0  0
  -11.8860   -5.1277   -4.9264 C   0  0  1  0  0  0  0  0  0  0  0  0
  -12.4677   -4.3788   -3.7410 C   0  0  0  0  0  0  0  0  0  0  0  0
   -9.2672   -7.1360   -7.5345 N   0  3  0  0  0  0  0  0  0  0  0  0
  -13.8793   -4.8564   -3.5360 N   0  3  0  0  0  0  0  0  0  0  0  0
  -12.8000   -7.2236   -4.1708 O   0  0  0  0  0  0  0  0  0  0  0  0
  -10.6580   -4.4793   -5.2984 O   0  0  0  0  0  0  0  0  0  0  0  0
  1  2  1  0  0  0  0
  1 22  1  6  0  0  0
  1 10  1  0  0  0  0
  2  3  1  0  0  0  0
  2  7  1  6  0  0  0
  3  4  1  0  0  0  0
  3  8  1  1  0  0  0
  4  5  1  0  0  0  0
  4  9  1  6  0  0  0
  5  6  1  1  0  0  0
  5 10  1  0  0  0  0
  6 11  1  0  0  0  0
 12 13  1  0  0  0  0
 12 17  1  0  0  0  0
 12 18  1  1  0  0  0
 13 14  1  0  0  0  0
 14 15  1  0  0  0  0
 14 19  1  1  0  0  0
 15 16  1  0  0  0  0
 15 21  1  6  0  0  0
 16 17  1  0  0  0  0
 16 20  1  1  0  0  0
 17 22  1  6  0  0  0
 23 21  1  6  0  0  0
 23 24  1  0  0  0  0
 23 32  1  0  0  0  0
 24 25  1  0  0  0  0
 24 29  1  6  0  0  0
 25 26  1  0  0  0  0
 26 27  1  0  0  0  0
 26 31  1  6  0  0  0
 27 28  1  1  0  0  0
 27 32  1  0  0  0  0
 28 30  1  0  0  0  0
M  CHG  5   8   1  18   1  19   1  29   1  30   1
M  END
>  <CHROM.1>
-159.60094316,-171.62513310,39.16200951,-46.11434196,-148.40036176,-55.68174320
-0.73996968,59.66188111,-170.14265179,-45.96442837,157.26299138,167.64136938
-161.02560665,-48.98395242,-71.91967272,-61.08451031,-9.89508556,-2.59910990
-7.34604808,1.02591715,0.15404615,-0.36526217

>  <Name>
2tob cryst

>  <RI>
0

>  <Rbt.Current_Directory>
/home/itssahil/PROJECTS/Mol_Feturizer/New_Systems/rnas/2tob

>  <Rbt.Executable>
rbdock ($Id: //depot/dev/client3/rdock/2013.1/src/exe/rbdock.cxx#4 $)

>  <Rbt.Library>
libRbt.so (2013.1, Build901 2013/11/27)

>  <Rbt.Parameter_File>
/export/apps/rDock/src/rDock_2013.1_src/data/scripts/dock_solv.prm

>  <Rbt.Receptor>
prm/pocket_docking_5.prm

>  <SCORE>
-62.0835

>  <SCORE.INTER>
-41.406

>  <SCORE.INTER.CONST>
1

>  <SCORE.INTER.POLAR>
-5.41108

>  <SCORE.INTER.ROT>
6

>  <SCORE.INTER.SOLV>
37.1544

>  <SCORE.INTER.VDW>
-29.5518

>  <SCORE.INTER.norm>
-1.29394

>  <SCORE.INTRA>
-20.8104

>  <SCORE.INTRA.DIHEDRAL>
-1.42356

>  <SCORE.INTRA.DIHEDRAL.0>
18.4221

>  <SCORE.INTRA.POLAR>
-0.55102

>  <SCORE.INTRA.POLAR.0>
-1.57101

>  <SCORE.INTRA.REPUL>
-0.730195

>  <SCORE.INTRA.REPUL.0>
0.730195

>  <SCORE.INTRA.SOLV>
-7.07074

>  <SCORE.INTRA.SOLV.lig_0>
-127.221

>  <SCORE.INTRA.VDW>
-11.0388

>  <SCORE.INTRA.VDW.0>
10.8385

>  <SCORE.INTRA.norm>
-0.650323

>  <SCORE.RESTR>
0.132839

>  <SCORE.RESTR.CAVITY>
0.132839

>  <SCORE.RESTR.norm>
0.00415123

>  <SCORE.SYSTEM>
0

>  <SCORE.SYSTEM.CONST>
0

>  <SCORE.SYSTEM.DIHEDRAL>
0

>  <SCORE.SYSTEM.SOLV>
0

>  <SCORE.SYSTEM.norm>
0

>  <SCORE.heavy>
32

>  <SCORE.norm>
-1.94011

>  <RMSD>
1.613

$$$$
2tob cryst
 OpenBabel11021811463D
libRbt.so/2013.1/901 2013/11/27
 32 34  0  0  0  0  0  0  0  0999 V2000
   -8.2085    0.1498   -7.7191 C   0  0  2  0  0  0  0  0  0  0  0  0
   -7.7459    1.5253   -8.1891 C   0  0  1  0  0  0  0  0  0  0  0  0
   -7.0303    1.3756   -9.5320 C   0  0  2  0  0  0  0  0  0  0  0  0
   -5.8858    0.3585   -9.4308 C   0  0  1  0  0  0  0  0  0  0  0  0
   -6.4028   -0.9540   -8.8318 C   0  0  1  0  0  0  0  0  0  0  0  0
   -5.3207   -1.9840   -8.5519 C   0  0  0  0  0  0  0  0  0  0  0  0
   -8.8666    2.3937   -8.3328 O   0  0  0  0  0  0  0  0  0  0  0  0
   -6.4785    2.6158  -10.1639 N   0  3  0  0  0  0  0  0  0  0  0  0
   -5.3601    0.1233  -10.7310 O   0  0  0  0  0  0  0  0  0  0  0  0
   -7.0791   -0.6923   -7.5859 O   0  0  0  0  0  0  0  0  0  0  0  0
   -4.4670   -2.1418   -9.6806 O   0  0  0  0  0  0  0  0  0  0  0  0
  -11.4920   -0.4185   -9.0482 C   0  0  2  0  0  0  0  0  0  0  0  0
  -12.8165   -1.1665   -8.8446 C   0  0  0  0  0  0  0  0  0  0  0  0
  -12.6407   -2.6809   -8.9160 C   0  0  1  0  0  0  0  0  0  0  0  0
  -11.6138   -3.0960   -7.8715 C   0  0  2  0  0  0  0  0  0  0  0  0
  -10.2583   -2.4723   -8.2132 C   0  0  1  0  0  0  0  0  0  0  0  0
  -10.3441   -0.9365   -8.1674 C   0  0  1  0  0  0  0  0  0  0  0  0
  -11.6717    1.0516   -8.7998 N   0  3  0  0  0  0  0  0  0  0  0  0
  -13.9482   -3.3849   -8.7082 N   0  3  0  0  0  0  0  0  0  0  0  0
   -9.2796   -2.9387   -7.2930 O   0  0  0  0  0  0  0  0  0  0  0  0
  -11.4970   -4.5296   -7.8211 O   0  0  0  0  0  0  0  0  0  0  0  0
   -9.1138   -0.3644   -8.6582 O   0  0  0  0  0  0  0  0  0  0  0  0
  -11.0505   -5.0093   -6.5829 C   0  0  2  0  0  0  0  0  0  0  0  0
  -10.8568   -6.5278   -6.6506 C   0  0  1  0  0  0  0  0  0  0  0  0
  -12.2025   -7.2535   -6.6456 C   0  0  0  0  0  0  0  0  0  0  0  0
  -13.0159   -6.7771   -5.4530 C   0  0  1  0  0  0  0  0  0  0  0  0
  -13.2014   -5.2724   -5.5439 C   0  0  1  0  0  0  0  0  0  0  0  0
  -14.0139   -4.7356   -4.3796 C   0  0  0  0  0  0  0  0  0  0  0  0
  -10.1099   -6.8800   -7.9003 N   0  3  0  0  0  0  0  0  0  0  0  0
  -13.9244   -3.2342   -4.4026 N   0  3  0  0  0  0  0  0  0  0  0  0
  -14.2817   -7.4216   -5.4292 O   0  0  0  0  0  0  0  0  0  0  0  0
  -11.9143   -4.6325   -5.5158 O   0  0  0  0  0  0  0  0  0  0  0  0
  1  2  1  0  0  0  0
  1 22  1  6  0  0  0
  1 10  1  0  0  0  0
  2  3  1  0  0  0  0
  2  7  1  6  0  0  0
  3  4  1  0  0  0  0
  3  8  1  1  0  0  0
  4  5  1  0  0  0  0
  4  9  1  6  0  0  0
  5  6  1  1  0  0  0
  5 10  1  0  0  0  0
  6 11  1  0  0  0  0
 12 13  1  0  0  0  0
 12 17  1  0  0  0  0
 12 18  1  1  0  0  0
 13 14  1  0  0  0  0
 14 15  1  0  0  0  0
 14 19  1  1  0  0  0
 15 16  1  0  0  0  0
 15 21  1  6  0  0  0
 16 17  1  0  0  0  0
 16 20  1  1  0  0  0
 17 22  1  6  0  0  0
 23 21  1  6  0  0  0
 23 24  1  0  0  0  0
 23 32  1  0  0  0  0
 24 25  1  0  0  0  0
 24 29  1  6  0  0  0
 25 26  1  0  0  0  0
 26 27  1  0  0  0  0
 26 31  1  6  0  0  0
 27 28  1  1  0  0  0
 27 32  1  0  0  0  0
 28 30  1  0  0  0  0
M  CHG  5   8   1  18   1  19   1  29   1  30   1
M  END
>  <CHROM.1>
-133.01696818,78.03803691,-74.34734925,-169.74857773,-48.52635696,171.28087784
52.58549624,83.32183659,-154.45823849,-55.31269191,135.37025369,-175.84223936
79.27291856,70.53419291,169.27068205,-30.85811381,-10.04931364,-2.35497753
-7.81000591,0.81169752,0.24863942,-0.24645386

>  <Name>
2tob cryst

>  <RI>
0

>  <Rbt.Current_Directory>
/home/itssahil/PROJECTS/Mol_Feturizer/New_Systems/rnas/2tob

>  <Rbt.Executable>
rbdock ($Id: //depot/dev/client3/rdock/2013.1/src/exe/rbdock.cxx#4 $)

>  <Rbt.Library>
libRbt.so (2013.1, Build901 2013/11/27)

>  <Rbt.Parameter_File>
/export/apps/rDock/src/rDock_2013.1_src/data/scripts/dock_solv.prm

>  <Rbt.Receptor>
prm/pocket_docking_3.prm

>  <SCORE>
-67.9588

>  <SCORE.INTER>
-46.5682

>  <SCORE.INTER.CONST>
1

>  <SCORE.INTER.POLAR>
-6.28501

>  <SCORE.INTER.ROT>
6

>  <SCORE.INTER.SOLV>
35.0638

>  <SCORE.INTER.VDW>
-29.3834

>  <SCORE.INTER.norm>
-1.45526

>  <SCORE.INTRA>
-22.2508

>  <SCORE.INTRA.DIHEDRAL>
5.36639

>  <SCORE.INTRA.DIHEDRAL.0>
18.4221

>  <SCORE.INTRA.POLAR>
-0.948654

>  <SCORE.INTRA.POLAR.0>
-1.57101

>  <SCORE.INTRA.REPUL>
-0.730195

>  <SCORE.INTRA.REPUL.0>
0.730195

>  <SCORE.INTRA.SOLV>
-6.50335

>  <SCORE.INTRA.SOLV.lig_0>
-127.221

>  <SCORE.INTRA.VDW>
-14.8059

>  <SCORE.INTRA.VDW.0>
10.8385

>  <SCORE.INTRA.norm>
-0.695337

>  <SCORE.RESTR>
0.860208

>  <SCORE.RESTR.CAVITY>
0.860208

>  <SCORE.RESTR.norm>
0.0268815

>  <SCORE.SYSTEM>
0

>  <SCORE.SYSTEM.CONST>
0

>  <SCORE.SYSTEM.DIHEDRAL>
0

>  <SCORE.SYSTEM.SOLV>
0

>  <SCORE.SYSTEM.norm>
0

>  <SCORE.heavy>
32

>  <SCORE.norm>
-2.12371

>  <RMSD>
1.621

$$$$
2tob cryst
 OpenBabel11021811463D
libRbt.so/2013.1/901 2013/11/27
 32 34  0  0  0  0  0  0  0  0999 V2000
   -7.9217   -0.4719   -7.6791 C   0  0  2  0  0  0  0  0  0  0  0  0
   -8.2950    1.0072   -7.6669 C   0  0  1  0  0  0  0  0  0  0  0  0
   -8.0660    1.5878   -9.0626 C   0  0  2  0  0  0  0  0  0  0  0  0
   -6.6266    1.3350   -9.5302 C   0  0  1  0  0  0  0  0  0  0  0  0
   -6.2847   -0.1526   -9.3924 C   0  0  1  0  0  0  0  0  0  0  0  0
   -4.8338   -0.4923   -9.6917 C   0  0  0  0  0  0  0  0  0  0  0  0
   -9.6627    1.1616   -7.2974 O   0  0  0  0  0  0  0  0  0  0  0  0
   -8.3576    3.0427   -9.2629 N   0  3  0  0  0  0  0  0  0  0  0  0
   -6.5048    1.7359  -10.8891 O   0  0  0  0  0  0  0  0  0  0  0  0
   -6.5618   -0.5977   -8.0495 O   0  0  0  0  0  0  0  0  0  0  0  0
   -4.6319   -1.9019   -9.6867 O   0  0  0  0  0  0  0  0  0  0  0  0
  -11.1079   -1.3061   -9.0905 C   0  0  2  0  0  0  0  0  0  0  0  0
  -12.4258   -2.0585   -8.8623 C   0  0  0  0  0  0  0  0  0  0  0  0
  -12.2152   -3.5644   -8.7309 C   0  0  1  0  0  0  0  0  0  0  0  0
  -11.2389   -3.8161   -7.5901 C   0  0  2  0  0  0  0  0  0  0  0  0
   -9.8798   -3.2035   -7.9376 C   0  0  1  0  0  0  0  0  0  0  0  0
   -9.9997   -1.6771   -8.0925 C   0  0  1  0  0  0  0  0  0  0  0  0
  -11.3312    0.1781   -9.0412 N   0  3  0  0  0  0  0  0  0  0  0  0
  -13.5173   -4.2722   -8.5033 N   0  3  0  0  0  0  0  0  0  0  0  0
   -8.9439   -3.5231   -6.9159 O   0  0  0  0  0  0  0  0  0  0  0  0
  -11.0955   -5.2281   -7.3514 O   0  0  0  0  0  0  0  0  0  0  0  0
   -8.7563   -1.1380   -8.5876 O   0  0  0  0  0  0  0  0  0  0  0  0
  -10.4748   -5.5270   -6.1315 C   0  0  2  0  0  0  0  0  0  0  0  0
   -9.9129   -6.9521   -6.1673 C   0  0  1  0  0  0  0  0  0  0  0  0
  -11.0329   -7.9866   -6.0530 C   0  0  0  0  0  0  0  0  0  0  0  0
  -11.8711   -7.6732   -4.8242 C   0  0  1  0  0  0  0  0  0  0  0  0
  -12.4305   -6.2665   -4.9468 C   0  0  1  0  0  0  0  0  0  0  0  0
  -13.2846   -5.8956   -3.7480 C   0  0  0  0  0  0  0  0  0  0  0  0
   -9.1732   -7.1644   -7.4524 N   0  3  0  0  0  0  0  0  0  0  0  0
  -14.6184   -6.5745   -3.8990 N   0  3  0  0  0  0  0  0  0  0  0  0
  -12.9329   -8.6085   -4.6989 O   0  0  0  0  0  0  0  0  0  0  0  0
  -11.3440   -5.3280   -5.0217 O   0  0  0  0  0  0  0  0  0  0  0  0
  1  2  1  0  0  0  0
  1 22  1  6  0  0  0
  1 10  1  0  0  0  0
  2  3  1  0  0  0  0
  2  7  1  6  0  0  0
  3  4  1  0  0  0  0
  3  8  1  1  0  0  0
  4  5  1  0  0  0  0
  4  9  1  6  0  0  0
  5  6  1  1  0  0  0
  5 10  1  0  0  0  0
  6 11  1  0  0  0  0
 12 13  1  0  0  0  0
 12 17  1  0  0  0  0
 12 18  1  1  0  0  0
 13 14  1  0  0  0  0
 14 15  1  0  0  0  0
 14 19  1  1  0  0  0
 15 16  1  0  0  0  0
 15 21  1  6  0  0  0
 16 17  1  0  0  0  0
 16 20  1  1  0  0  0
 17 22  1  6  0  0  0
 23 21  1  6  0  0  0
 23 24  1  0  0  0  0
 23 32  1  0  0  0  0
 24 25  1  0  0  0  0
 24 29  1  6  0  0  0
 25 26  1  0  0  0  0
 26 27  1  0  0  0  0
 26 31  1  6  0  0  0
 27 28  1  1  0  0  0
 27 32  1  0  0  0  0
 28 30  1  0  0  0  0
M  CHG  5   8   1  18   1  19   1  29   1  30   1
M  END
>  <CHROM.1>
-89.91889578,-179.52778177,-109.54097869,68.08282796,-173.56584615,-85.81379664
-62.18219181,-59.66852213,-165.63887441,177.66880417,134.67972642,-159.81851093
69.73677732,66.74803918,-77.06790940,-65.52269761,-9.85936880,-2.84404334
-7.56397530,-1.01991287,-0.21044220,2.79981941

>  <Name>
2tob cryst

>  <RI>
3.35201e+07

>  <Rbt.Current_Directory>
/home/itssahil/PROJECTS/Mol_Feturizer/New_Systems/rnas/2tob

>  <Rbt.Executable>
rbdock ($Id: //depot/dev/client3/rdock/2013.1/src/exe/rbdock.cxx#4 $)

>  <Rbt.Library>
libRbt.so (2013.1, Build901 2013/11/27)

>  <Rbt.Parameter_File>
/export/apps/rDock/src/rDock_2013.1_src/data/scripts/dock_solv.prm

>  <Rbt.Receptor>
prm/pocket_docking_4.prm

>  <SCORE>
-71.1326

>  <SCORE.INTER>
-56.1188

>  <SCORE.INTER.CONST>
1

>  <SCORE.INTER.POLAR>
-8.2589

>  <SCORE.INTER.ROT>
6

>  <SCORE.INTER.SOLV>
36.022

>  <SCORE.INTER.VDW>
-29.4902

>  <SCORE.INTER.norm>
-1.75371

>  <SCORE.INTRA>
-15.0137

>  <SCORE.INTRA.DIHEDRAL>
2.40516

>  <SCORE.INTRA.DIHEDRAL.0>
18.4221

>  <SCORE.INTRA.POLAR>
0.640743

>  <SCORE.INTRA.POLAR.0>
-1.57101

>  <SCORE.INTRA.REPUL>
-0.730195

>  <SCORE.INTRA.REPUL.0>
0.730195

>  <SCORE.INTRA.SOLV>
-3.27759

>  <SCORE.INTRA.SOLV.lig_0>
-127.221

>  <SCORE.INTRA.VDW>
-13.1051

>  <SCORE.INTRA.VDW.0>
10.8385

>  <SCORE.INTRA.norm>
-0.46918

>  <SCORE.RESTR>
0

>  <SCORE.RESTR.CAVITY>
0

>  <SCORE.RESTR.norm>
0

>  <SCORE.SYSTEM>
0

>  <SCORE.SYSTEM.CONST>
0

>  <SCORE.SYSTEM.DIHEDRAL>
0

>  <SCORE.SYSTEM.SOLV>
0

>  <SCORE.SYSTEM.norm>
0

>  <SCORE.heavy>
32

>  <SCORE.norm>
-2.22289

>  <RMSD>
1.621

$$$$
2tob cryst
 OpenBabel11021811463D
libRbt.so/2013.1/901 2013/11/27
 32 34  0  0  0  0  0  0  0  0999 V2000
   -8.1843   -0.2535   -7.4510 C   0  0  2  0  0  0  0  0  0  0  0  0
   -8.0239    1.2395   -7.7196 C   0  0  1  0  0  0  0  0  0  0  0  0
   -7.4595    1.4322   -9.1275 C   0  0  2  0  0  0  0  0  0  0  0  0
   -6.1539    0.6458   -9.3051 C   0  0  1  0  0  0  0  0  0  0  0  0
   -6.3628   -0.8159   -8.8943 C   0  0  1  0  0  0  0  0  0  0  0  0
   -5.0946   -1.6537   -8.8931 C   0  0  0  0  0  0  0  0  0  0  0  0
   -9.2859    1.8926   -7.6112 O   0  0  0  0  0  0  0  0  0  0  0  0
   -7.2082    2.8352   -9.5860 N   0  3  0  0  0  0  0  0  0  0  0  0
   -5.7555    0.7132  -10.6686 O   0  0  0  0  0  0  0  0  0  0  0  0
   -6.9196   -0.8778   -7.5660 O   0  0  0  0  0  0  0  0  0  0  0  0
   -5.3949   -3.0274   -8.6685 O   0  0  0  0  0  0  0  0  0  0  0  0
  -11.4403   -0.6637   -8.9191 C   0  0  2  0  0  0  0  0  0  0  0  0
  -12.8440   -1.2471   -8.7086 C   0  0  0  0  0  0  0  0  0  0  0  0
  -12.8218   -2.7664   -8.5651 C   0  0  1  0  0  0  0  0  0  0  0  0
  -11.9019   -3.1271   -7.4068 C   0  0  2  0  0  0  0  0  0  0  0  0
  -10.4726   -2.6883   -7.7352 C   0  0  1  0  0  0  0  0  0  0  0  0
  -10.4018   -1.1601   -7.9007 C   0  0  1  0  0  0  0  0  0  0  0  0
  -11.4806    0.8371   -8.8819 N   0  3  0  0  0  0  0  0  0  0  0  0
  -14.2043   -3.3075   -8.3551 N   0  3  0  0  0  0  0  0  0  0  0  0
   -9.5991   -3.1124   -6.6964 O   0  0  0  0  0  0  0  0  0  0  0  0
  -11.9365   -4.5442   -7.1578 O   0  0  0  0  0  0  0  0  0  0  0  0
   -9.0941   -0.7811   -8.3782 O   0  0  0  0  0  0  0  0  0  0  0  0
  -12.9852   -4.9367   -6.3159 C   0  0  2  0  0  0  0  0  0  0  0  0
  -12.4312   -5.3382   -4.9448 C   0  0  1  0  0  0  0  0  0  0  0  0
  -11.7390   -6.6998   -5.0099 C   0  0  0  0  0  0  0  0  0  0  0  0
  -12.6952   -7.7112   -5.6212 C   0  0  1  0  0  0  0  0  0  0  0  0
  -13.1081   -7.2361   -7.0034 C   0  0  1  0  0  0  0  0  0  0  0  0
  -14.0621   -8.2105   -7.6701 C   0  0  0  0  0  0  0  0  0  0  0  0
  -11.4493   -4.3060   -4.4819 N   0  3  0  0  0  0  0  0  0  0  0  0
  -15.3632   -8.1777   -6.9158 N   0  3  0  0  0  0  0  0  0  0  0  0
  -12.0746   -8.9858   -5.7115 O   0  0  0  0  0  0  0  0  0  0  0  0
  -13.7791   -5.9697   -6.8897 O   0  0  0  0  0  0  0  0  0  0  0  0
  1  2  1  0  0  0  0
  1 22  1  6  0  0  0
  1 10  1  0  0  0  0
  2  3  1  0  0  0  0
  2  7  1  6  0  0  0
  3  4  1  0  0  0  0
  3  8  1  1  0  0  0
  4  5  1  0  0  0  0
  4  9  1  6  0  0  0
  5  6  1  1  0  0  0
  5 10  1  0  0  0  0
  6 11  1  0  0  0  0
 12 13  1  0  0  0  0
 12 17  1  0  0  0  0
 12 18  1  1  0  0  0
 13 14  1  0  0  0  0
 14 15  1  0  0  0  0
 14 19  1  1  0  0  0
 15 16  1  0  0  0  0
 15 21  1  6  0  0  0
 16 17  1  0  0  0  0
 16 20  1  1  0  0  0
 17 22  1  6  0  0  0
 23 21  1  6  0  0  0
 23 24  1  0  0  0  0
 23 32  1  0  0  0  0
 24 25  1  0  0  0  0
 24 29  1  6  0  0  0
 25 26  1  0  0  0  0
 26 27  1  0  0  0  0
 26 31  1  6  0  0  0
 27 28  1  1  0  0  0
 27 32  1  0  0  0  0
 28 30  1  0  0  0  0
M  CHG  5   8   1  18   1  19   1  29   1  30   1
M  END
>  <CHROM.1>
-108.14772254,171.99894990,-151.98721572,172.41467092,-172.61324308,-72.04102481
-64.84461671,64.01528739,-85.45632731,78.62103242,136.60092480,-108.14501275
-56.77922211,171.12955755,68.15524057,-48.25787851,-10.35927557,-2.74530191
-7.65115908,-0.90676044,-0.00939253,2.82277799

>  <Name>
2tob cryst

>  <RI>
2.10184e+07

>  <Rbt.Current_Directory>
/home/itssahil/PROJECTS/Mol_Feturizer/New_Systems/rnas/2tob

>  <Rbt.Executable>
rbdock ($Id: //depot/dev/client3/rdock/2013.1/src/exe/rbdock.cxx#4 $)

>  <Rbt.Library>
libRbt.so (2013.1, Build901 2013/11/27)

>  <Rbt.Parameter_File>
/export/apps/rDock/src/rDock_2013.1_src/data/scripts/dock_solv.prm

>  <Rbt.Receptor>
prm/pocket_docking_7.prm

>  <SCORE>
-59.7656

>  <SCORE.INTER>
-42.2422

>  <SCORE.INTER.CONST>
1

>  <SCORE.INTER.POLAR>
-6.29705

>  <SCORE.INTER.ROT>
6

>  <SCORE.INTER.SOLV>
28.6724

>  <SCORE.INTER.VDW>
-24.3288

>  <SCORE.INTER.norm>
-1.32007

>  <SCORE.INTRA>
-17.5234

>  <SCORE.INTRA.DIHEDRAL>
9.06862

>  <SCORE.INTRA.DIHEDRAL.0>
18.4221

>  <SCORE.INTRA.POLAR>
-0.763019

>  <SCORE.INTRA.POLAR.0>
-1.57101

>  <SCORE.INTRA.REPUL>
-0.730195

>  <SCORE.INTRA.REPUL.0>
0.730195

>  <SCORE.INTRA.SOLV>
-1.44088

>  <SCORE.INTRA.SOLV.lig_0>
-127.221

>  <SCORE.INTRA.VDW>
-15.092

>  <SCORE.INTRA.VDW.0>
10.8385

>  <SCORE.INTRA.norm>
-0.547606

>  <SCORE.RESTR>
0

>  <SCORE.RESTR.CAVITY>
0

>  <SCORE.RESTR.norm>
0

>  <SCORE.SYSTEM>
0

>  <SCORE.SYSTEM.CONST>
0

>  <SCORE.SYSTEM.DIHEDRAL>
0

>  <SCORE.SYSTEM.SOLV>
0

>  <SCORE.SYSTEM.norm>
0

>  <SCORE.heavy>
32

>  <SCORE.norm>
-1.86767

>  <RMSD>
1.627

$$$$
2tob cryst
 OpenBabel11021811463D
libRbt.so/2013.1/901 2013/11/27
 32 34  0  0  0  0  0  0  0  0999 V2000
   -8.9271   -0.0381   -7.3705 C   0  0  2  0  0  0  0  0  0  0  0  0
   -8.4876    1.3687   -7.7637 C   0  0  1  0  0  0  0  0  0  0  0  0
   -7.7728    1.3057   -9.1138 C   0  0  2  0  0  0  0  0  0  0  0  0
   -6.6119    0.3031   -9.0711 C   0  0  1  0  0  0  0  0  0  0  0  0
   -7.1065   -1.0490   -8.5456 C   0  0  1  0  0  0  0  0  0  0  0  0
   -6.0075   -2.0754   -8.3252 C   0  0  0  0  0  0  0  0  0  0  0  0
   -9.6224    2.2256   -7.8570 O   0  0  0  0  0  0  0  0  0  0  0  0
   -7.2424    2.5879   -9.6763 N   0  3  0  0  0  0  0  0  0  0  0  0
   -6.0856    0.1493  -10.3832 O   0  0  0  0  0  0  0  0  0  0  0  0
   -7.7840   -0.8680   -7.2860 O   0  0  0  0  0  0  0  0  0  0  0  0
   -5.0506   -2.0277   -9.3786 O   0  0  0  0  0  0  0  0  0  0  0  0
  -12.0974   -1.0852   -8.9064 C   0  0  2  0  0  0  0  0  0  0  0  0
  -13.2679   -2.0605   -8.7224 C   0  0  0  0  0  0  0  0  0  0  0  0
  -12.7992   -3.5076   -8.5986 C   0  0  1  0  0  0  0  0  0  0  0  0
  -11.8243   -3.5996   -7.4328 C   0  0  2  0  0  0  0  0  0  0  0  0
  -10.5855   -2.7531   -7.7362 C   0  0  1  0  0  0  0  0  0  0  0  0
  -10.9679   -1.2696   -7.8807 C   0  0  1  0  0  0  0  0  0  0  0  0
  -12.5796    0.3359   -8.8502 N   0  3  0  0  0  0  0  0  0  0  0  0
  -13.9620   -4.4362   -8.4143 N   0  3  0  0  0  0  0  0  0  0  0  0
   -9.6351   -2.9174   -6.6913 O   0  0  0  0  0  0  0  0  0  0  0  0
  -11.4410   -4.9677   -7.2028 O   0  0  0  0  0  0  0  0  0  0  0  0
   -9.8262   -0.5136   -8.3355 O   0  0  0  0  0  0  0  0  0  0  0  0
  -12.3156   -5.6561   -6.3521 C   0  0  2  0  0  0  0  0  0  0  0  0
  -11.7030   -5.7659   -4.9519 C   0  0  1  0  0  0  0  0  0  0  0  0
  -10.5790   -6.8020   -4.9243 C   0  0  0  0  0  0  0  0  0  0  0  0
  -11.1032   -8.1142   -5.4847 C   0  0  1  0  0  0  0  0  0  0  0  0
  -11.6088   -7.8869   -6.8987 C   0  0  1  0  0  0  0  0  0  0  0  0
  -12.1418   -9.1668   -7.5167 C   0  0  0  0  0  0  0  0  0  0  0  0
  -11.1570   -4.4331   -4.5405 N   0  3  0  0  0  0  0  0  0  0  0  0
  -13.3496   -9.5959   -6.7292 N   0  3  0  0  0  0  0  0  0  0  0  0
  -10.0757   -9.0952   -5.4885 O   0  0  0  0  0  0  0  0  0  0  0  0
  -12.6814   -6.9301   -6.8716 O   0  0  0  0  0  0  0  0  0  0  0  0
  1  2  1  0  0  0  0
  1 22  1  6  0  0  0
  1 10  1  0  0  0  0
  2  3  1  0  0  0  0
  2  7  1  6  0  0  0
  3  4  1  0  0  0  0
  3  8  1  1  0  0  0
  4  5  1  0  0  0  0
  4  9  1  6  0  0  0
  5  6  1  1  0  0  0
  5 10  1  0  0  0  0
  6 11  1  0  0  0  0
 12 13  1  0  0  0  0
 12 17  1  0  0  0  0
 12 18  1  1  0  0  0
 13 14  1  0  0  0  0
 14 15  1  0  0  0  0
 14 19  1  1  0  0  0
 15 16  1  0  0  0  0
 15 21  1  6  0  0  0
 16 17  1  0  0  0  0
 16 20  1  1  0  0  0
 17 22  1  6  0  0  0
 23 21  1  6  0  0  0
 23 24  1  0  0  0  0
 23 32  1  0  0  0  0
 24 25  1  0  0  0  0
 24 29  1  6  0  0  0
 25 26  1  0  0  0  0
 26 27  1  0  0  0  0
 26 31  1  6  0  0  0
 27 28  1  1  0  0  0
 27 32  1  0  0  0  0
 28 30  1  0  0  0  0
M  CHG  5   8   1  18   1  19   1  29   1  30   1
M  END
>  <CHROM.1>
-140.13656487,42.44838611,79.15631961,67.20164732,-40.55851862,165.83404479
114.53796787,65.27143672,-87.03162730,-69.70291154,152.50774448,-102.39285948
-66.34376114,64.19723868,64.73181049,-60.51254428,-10.18279974,-3.06154585
-7.60688877,1.10680148,0.00838818,-0.29482409

>  <Name>
2tob cryst

>  <RI>
0

>  <Rbt.Current_Directory>
/home/itssahil/PROJECTS/Mol_Feturizer/New_Systems/rnas/2tob

>  <Rbt.Executable>
rbdock ($Id: //depot/dev/client3/rdock/2013.1/src/exe/rbdock.cxx#4 $)

>  <Rbt.Library>
libRbt.so (2013.1, Build901 2013/11/27)

>  <Rbt.Parameter_File>
/export/apps/rDock/src/rDock_2013.1_src/data/scripts/dock_solv.prm

>  <Rbt.Receptor>
prm/pocket_docking_3.prm

>  <SCORE>
-62.885

>  <SCORE.INTER>
-50.5734

>  <SCORE.INTER.CONST>
1

>  <SCORE.INTER.POLAR>
-6.98146

>  <SCORE.INTER.ROT>
6

>  <SCORE.INTER.SOLV>
27.7835

>  <SCORE.INTER.VDW>
-27.3052

>  <SCORE.INTER.norm>
-1.58042

>  <SCORE.INTRA>
-12.3155

>  <SCORE.INTRA.DIHEDRAL>
7.87906

>  <SCORE.INTRA.DIHEDRAL.0>
18.4221

>  <SCORE.INTRA.POLAR>
0.553069

>  <SCORE.INTRA.POLAR.0>
-1.57101

>  <SCORE.INTRA.REPUL>
-0.730195

>  <SCORE.INTRA.REPUL.0>
0.730195

>  <SCORE.INTRA.SOLV>
-2.21139

>  <SCORE.INTRA.SOLV.lig_0>
-127.221

>  <SCORE.INTRA.VDW>
-13.3788

>  <SCORE.INTRA.VDW.0>
10.8385

>  <SCORE.INTRA.norm>
-0.38486

>  <SCORE.RESTR>
0.00391349

>  <SCORE.RESTR.CAVITY>
0.00391349

>  <SCORE.RESTR.norm>
0.000122297

>  <SCORE.SYSTEM>
0

>  <SCORE.SYSTEM.CONST>
0

>  <SCORE.SYSTEM.DIHEDRAL>
0

>  <SCORE.SYSTEM.SOLV>
0

>  <SCORE.SYSTEM.norm>
0

>  <SCORE.heavy>
32

>  <SCORE.norm>
-1.96516

>  <RMSD>
1.643

$$$$
2tob cryst
 OpenBabel11021811463D
libRbt.so/2013.1/901 2013/11/27
 32 34  0  0  0  0  0  0  0  0999 V2000
   -9.1501   -0.0864   -7.2366 C   0  0  2  0  0  0  0  0  0  0  0  0
   -8.5469    1.2858   -7.5198 C   0  0  1  0  0  0  0  0  0  0  0  0
   -7.9052    1.2684   -8.9075 C   0  0  2  0  0  0  0  0  0  0  0  0
   -6.8853    0.1278   -9.0236 C   0  0  1  0  0  0  0  0  0  0  0  0
   -7.5302   -1.1966   -8.6006 C   0  0  1  0  0  0  0  0  0  0  0  0
   -6.5671   -2.3708   -8.5388 C   0  0  0  0  0  0  0  0  0  0  0  0
   -9.5622    2.2844   -7.4692 O   0  0  0  0  0  0  0  0  0  0  0  0
   -7.2356    2.5230   -9.3758 N   0  3  0  0  0  0  0  0  0  0  0  0
   -6.4406    0.0408  -10.3715 O   0  0  0  0  0  0  0  0  0  0  0  0
   -8.1234   -1.0585   -7.2939 O   0  0  0  0  0  0  0  0  0  0  0  0
   -7.2629   -3.6051   -8.6812 O   0  0  0  0  0  0  0  0  0  0  0  0
  -12.2737   -1.2146   -8.9125 C   0  0  2  0  0  0  0  0  0  0  0  0
  -13.2685   -2.3827   -8.8809 C   0  0  0  0  0  0  0  0  0  0  0  0
  -12.5671   -3.7382   -8.8903 C   0  0  1  0  0  0  0  0  0  0  0  0
  -11.6184   -3.7974   -7.7010 C   0  0  2  0  0  0  0  0  0  0  0  0
  -10.5321   -2.7311   -7.8618 C   0  0  1  0  0  0  0  0  0  0  0  0
  -11.1539   -1.3235   -7.8655 C   0  0  1  0  0  0  0  0  0  0  0  0
  -12.9883    0.0933   -8.7275 N   0  3  0  0  0  0  0  0  0  0  0  0
  -13.5621   -4.8593   -8.8532 N   0  3  0  0  0  0  0  0  0  0  0  0
   -9.5926   -2.8519   -6.8012 O   0  0  0  0  0  0  0  0  0  0  0  0
  -11.0171   -5.1012   -7.6001 O   0  0  0  0  0  0  0  0  0  0  0  0
  -10.1444   -0.3451   -8.1905 O   0  0  0  0  0  0  0  0  0  0  0  0
  -10.4143   -5.3424   -6.3587 C   0  0  2  0  0  0  0  0  0  0  0  0
   -9.9275   -6.7936   -6.2883 C   0  0  1  0  0  0  0  0  0  0  0  0
  -11.1000   -7.7575   -6.1047 C   0  0  0  0  0  0  0  0  0  0  0  0
  -11.9222   -7.3124   -4.9061 C   0  0  1  0  0  0  0  0  0  0  0  0
  -12.4073   -5.8912   -5.1332 C   0  0  1  0  0  0  0  0  0  0  0  0
  -13.2422   -5.3902   -3.9687 C   0  0  0  0  0  0  0  0  0  0  0  0
   -9.1983   -7.1369   -7.5508 N   0  3  0  0  0  0  0  0  0  0  0  0
  -13.7064   -3.9969   -4.2944 N   0  3  0  0  0  0  0  0  0  0  0  0
  -13.0315   -8.1797   -4.7185 O   0  0  0  0  0  0  0  0  0  0  0  0
  -11.2732   -5.0183   -5.2706 O   0  0  0  0  0  0  0  0  0  0  0  0
  1  2  1  0  0  0  0
  1 22  1  6  0  0  0
  1 10  1  0  0  0  0
  2  3  1  0  0  0  0
  2  7  1  6  0  0  0
  3  4  1  0  0  0  0
  3  8  1  1  0  0  0
  4  5  1  0  0  0  0
  4  9  1  6  0  0  0
  5  6  1  1  0  0  0
  5 10  1  0  0  0  0
  6 11  1  0  0  0  0
 12 13  1  0  0  0  0
 12 17  1  0  0  0  0
 12 18  1  1  0  0  0
 13 14  1  0  0  0  0
 14 15  1  0  0  0  0
 14 19  1  1  0  0  0
 15 16  1  0  0  0  0
 15 21  1  6  0  0  0
 16 17  1  0  0  0  0
 16 20  1  1  0  0  0
 17 22  1  6  0  0  0
 23 21  1  6  0  0  0
 23 24  1  0  0  0  0
 23 32  1  0  0  0  0
 24 25  1  0  0  0  0
 24 29  1  6  0  0  0
 25 26  1  0  0  0  0
 26 27  1  0  0  0  0
 26 31  1  6  0  0  0
 27 28  1  1  0  0  0
 27 32  1  0  0  0  0
 28 30  1  0  0  0  0
M  CHG  5   8   1  18   1  19   1  29   1  30   1
M  END
>  <CHROM.1>
-158.43913304,178.86233574,79.61538505,70.96135767,-156.40721628,-175.13319673
106.27312270,54.33624167,-164.39733163,-60.55280393,168.20161178,174.30899534
80.02922262,173.64862115,-178.55714218,-174.34331349,-10.31385169,-2.85273433
-7.44157647,1.07109251,0.21834741,-0.28664467

>  <Name>
2tob cryst

>  <RI>
0

>  <Rbt.Current_Directory>
/home/itssahil/PROJECTS/Mol_Feturizer/New_Systems/rnas/2tob

>  <Rbt.Executable>
rbdock ($Id: //depot/dev/client3/rdock/2013.1/src/exe/rbdock.cxx#4 $)

>  <Rbt.Library>
libRbt.so (2013.1, Build901 2013/11/27)

>  <Rbt.Parameter_File>
/export/apps/rDock/src/rDock_2013.1_src/data/scripts/dock_solv.prm

>  <Rbt.Receptor>
prm/pocket_docking_3.prm

>  <SCORE>
-63.9406

>  <SCORE.INTER>
-45.3553

>  <SCORE.INTER.CONST>
1

>  <SCORE.INTER.POLAR>
-6.29892

>  <SCORE.INTER.ROT>
6

>  <SCORE.INTER.SOLV>
36.9845

>  <SCORE.INTER.VDW>
-29.1686

>  <SCORE.INTER.norm>
-1.41735

>  <SCORE.INTRA>
-18.9971

>  <SCORE.INTRA.DIHEDRAL>
-6.53473

>  <SCORE.INTRA.DIHEDRAL.0>
18.4221

>  <SCORE.INTRA.POLAR>
1.39336

>  <SCORE.INTRA.POLAR.0>
-1.57101

>  <SCORE.INTRA.REPUL>
-0.730195

>  <SCORE.INTRA.REPUL.0>
0.730195

>  <SCORE.INTRA.SOLV>
-8.44069

>  <SCORE.INTRA.SOLV.lig_0>
-127.221

>  <SCORE.INTRA.VDW>
-12.5959

>  <SCORE.INTRA.VDW.0>
10.8385

>  <SCORE.INTRA.norm>
-0.593659

>  <SCORE.RESTR>
0.411849

>  <SCORE.RESTR.CAVITY>
0.411849

>  <SCORE.RESTR.norm>
0.0128703

>  <SCORE.SYSTEM>
0

>  <SCORE.SYSTEM.CONST>
0

>  <SCORE.SYSTEM.DIHEDRAL>
0

>  <SCORE.SYSTEM.SOLV>
0

>  <SCORE.SYSTEM.norm>
0

>  <SCORE.heavy>
32

>  <SCORE.norm>
-1.99814

>  <RMSD>
1.656

$$$$
2tob cryst
 OpenBabel11021811463D
libRbt.so/2013.1/901 2013/11/27
 32 34  0  0  0  0  0  0  0  0999 V2000
   -8.0680    0.3164   -7.7394 C   0  0  2  0  0  0  0  0  0  0  0  0
   -7.5075    1.6403   -8.2495 C   0  0  1  0  0  0  0  0  0  0  0  0
   -6.8397    1.4065   -9.6049 C   0  0  2  0  0  0  0  0  0  0  0  0
   -5.7790    0.3020   -9.5082 C   0  0  1  0  0  0  0  0  0  0  0  0
   -6.3854   -0.9522   -8.8693 C   0  0  1  0  0  0  0  0  0  0  0  0
   -5.3835   -2.0611   -8.5922 C   0  0  0  0  0  0  0  0  0  0  0  0
   -8.5576    2.5939   -8.3860 O   0  0  0  0  0  0  0  0  0  0  0  0
   -6.2053    2.5851  -10.2759 N   0  3  0  0  0  0  0  0  0  0  0  0
   -5.3063   -0.0007  -10.8148 O   0  0  0  0  0  0  0  0  0  0  0  0
   -7.0074   -0.6119   -7.6140 O   0  0  0  0  0  0  0  0  0  0  0  0
   -4.5036   -2.2371   -9.6979 O   0  0  0  0  0  0  0  0  0  0  0  0
  -11.3801   -0.5575   -9.0161 C   0  0  2  0  0  0  0  0  0  0  0  0
  -12.5825   -1.4776   -8.7658 C   0  0  0  0  0  0  0  0  0  0  0  0
  -12.1897   -2.9524   -8.7622 C   0  0  1  0  0  0  0  0  0  0  0  0
  -11.1138   -3.1613   -7.7054 C   0  0  2  0  0  0  0  0  0  0  0  0
   -9.8626   -2.3665   -8.0876 C   0  0  1  0  0  0  0  0  0  0  0  0
  -10.1696   -0.8589   -8.1185 C   0  0  1  0  0  0  0  0  0  0  0  0
  -11.7705    0.8819   -8.8407 N   0  3  0  0  0  0  0  0  0  0  0  0
  -13.3817   -3.8264   -8.5101 N   0  3  0  0  0  0  0  0  0  0  0  0
   -8.8271   -2.6394   -7.1521 O   0  0  0  0  0  0  0  0  0  0  0  0
  -10.7910   -4.5586   -7.5839 O   0  0  0  0  0  0  0  0  0  0  0  0
   -9.0348   -0.1408   -8.6461 O   0  0  0  0  0  0  0  0  0  0  0  0
  -10.1457   -4.8791   -6.3824 C   0  0  2  0  0  0  0  0  0  0  0  0
   -9.9102   -6.3912   -6.3038 C   0  0  1  0  0  0  0  0  0  0  0  0
  -11.2128   -7.1348   -6.0077 C   0  0  0  0  0  0  0  0  0  0  0  0
  -11.8533   -6.5340   -4.7668 C   0  0  1  0  0  0  0  0  0  0  0  0
  -12.1041   -5.0545   -5.0008 C   0  0  1  0  0  0  0  0  0  0  0  0
  -12.7502   -4.3971   -3.7948 C   0  0  0  0  0  0  0  0  0  0  0  0
   -9.3485   -6.8767   -7.6048 N   0  3  0  0  0  0  0  0  0  0  0  0
  -12.9577   -2.9417   -4.1136 N   0  3  0  0  0  0  0  0  0  0  0  0
  -13.0770   -7.1934   -4.4741 O   0  0  0  0  0  0  0  0  0  0  0  0
  -10.8513   -4.3931   -5.2455 O   0  0  0  0  0  0  0  0  0  0  0  0
  1  2  1  0  0  0  0
  1 22  1  6  0  0  0
  1 10  1  0  0  0  0
  2  3  1  0  0  0  0
  2  7  1  6  0  0  0
  3  4  1  0  0  0  0
  3  8  1  1  0  0  0
  4  5  1  0  0  0  0
  4  9  1  6  0  0  0
  5  6  1  1  0  0  0
  5 10  1  0  0  0  0
  6 11  1  0  0  0  0
 12 13  1  0  0  0  0
 12 17  1  0  0  0  0
 12 18  1  1  0  0  0
 13 14  1  0  0  0  0
 14 15  1  0  0  0  0
 14 19  1  1  0  0  0
 15 16  1  0  0  0  0
 15 21  1  6  0  0  0
 16 17  1  0  0  0  0
 16 20  1  1  0  0  0
 17 22  1  6  0  0  0
 23 21  1  6  0  0  0
 23 24  1  0  0  0  0
 23 32  1  0  0  0  0
 24 25  1  0  0  0  0
 24 29  1  6  0  0  0
 25 26  1  0  0  0  0
 26 27  1  0  0  0  0
 26 31  1  6  0  0  0
 27 28  1  1  0  0  0
 27 32  1  0  0  0  0
 28 30  1  0  0  0  0
M  CHG  5   8   1  18   1  19   1  29   1  30   1
M  END
>  <CHROM.1>
-145.91779213,-167.79804787,-75.92313606,-173.70794357,-43.87404263,164.43888841
54.98813839,69.01668470,-161.06354392,84.85194330,147.95641276,176.89332932
-56.89286031,73.80063849,179.89272551,-160.66498414,-9.57229889,-2.31222136
-7.64890461,0.91162318,0.27983267,-0.33116054

>  <Name>
2tob cryst

>  <RI>
3.35201e+07

>  <Rbt.Current_Directory>
/home/itssahil/PROJECTS/Mol_Feturizer/New_Systems/rnas/2tob

>  <Rbt.Executable>
rbdock ($Id: //depot/dev/client3/rdock/2013.1/src/exe/rbdock.cxx#4 $)

>  <Rbt.Library>
libRbt.so (2013.1, Build901 2013/11/27)

>  <Rbt.Parameter_File>
/export/apps/rDock/src/rDock_2013.1_src/data/scripts/dock_solv.prm

>  <Rbt.Receptor>
prm/pocket_docking_4.prm

>  <SCORE>
-73.8258

>  <SCORE.INTER>
-53.5512

>  <SCORE.INTER.CONST>
1

>  <SCORE.INTER.POLAR>
-7.55018

>  <SCORE.INTER.ROT>
6

>  <SCORE.INTER.SOLV>
36.9957

>  <SCORE.INTER.VDW>
-30.4655

>  <SCORE.INTER.norm>
-1.67348

>  <SCORE.INTRA>
-20.2745

>  <SCORE.INTRA.DIHEDRAL>
-0.00884731

>  <SCORE.INTRA.DIHEDRAL.0>
18.4221

>  <SCORE.INTRA.POLAR>
0.603373

>  <SCORE.INTRA.POLAR.0>
-1.57101

>  <SCORE.INTRA.REPUL>
-0.730195

>  <SCORE.INTRA.REPUL.0>
0.730195

>  <SCORE.INTRA.SOLV>
-8.06291

>  <SCORE.INTRA.SOLV.lig_0>
-127.221

>  <SCORE.INTRA.VDW>
-14.6392

>  <SCORE.INTRA.VDW.0>
10.8385

>  <SCORE.INTRA.norm>
-0.633579

>  <SCORE.RESTR>
0

>  <SCORE.RESTR.CAVITY>
0

>  <SCORE.RESTR.norm>
0

>  <SCORE.SYSTEM>
0

>  <SCORE.SYSTEM.CONST>
0

>  <SCORE.SYSTEM.DIHEDRAL>
0

>  <SCORE.SYSTEM.SOLV>
0

>  <SCORE.SYSTEM.norm>
0

>  <SCORE.heavy>
32

>  <SCORE.norm>
-2.30706

>  <RMSD>
1.669

$$$$
2tob cryst
 OpenBabel11021811463D
libRbt.so/2013.1/901 2013/11/27
 32 34  0  0  0  0  0  0  0  0999 V2000
   -8.9360   -0.1528   -7.1259 C   0  0  2  0  0  0  0  0  0  0  0  0
   -8.4030    1.2462   -7.4186 C   0  0  1  0  0  0  0  0  0  0  0  0
   -7.5985    1.2084   -8.7182 C   0  0  2  0  0  0  0  0  0  0  0  0
   -6.4929    0.1468   -8.6457 C   0  0  1  0  0  0  0  0  0  0  0  0
   -7.0875   -1.2008   -8.2222 C   0  0  1  0  0  0  0  0  0  0  0  0
   -6.0572   -2.2912   -7.9780 C   0  0  0  0  0  0  0  0  0  0  0  0
   -9.4860    2.1635   -7.5469 O   0  0  0  0  0  0  0  0  0  0  0  0
   -6.9689    2.4861   -9.1795 N   0  3  0  0  0  0  0  0  0  0  0  0
   -5.8832    0.0263   -9.9248 O   0  0  0  0  0  0  0  0  0  0  0  0
   -7.8428   -1.0431   -7.0045 O   0  0  0  0  0  0  0  0  0  0  0  0
   -6.6319   -3.5813   -8.1596 O   0  0  0  0  0  0  0  0  0  0  0  0
  -11.9446   -1.2695   -8.9578 C   0  0  2  0  0  0  0  0  0  0  0  0
  -13.0241   -2.3600   -8.9354 C   0  0  0  0  0  0  0  0  0  0  0  0
  -12.4260   -3.7630   -8.8781 C   0  0  1  0  0  0  0  0  0  0  0  0
  -11.5320   -3.8552   -7.6492 C   0  0  2  0  0  0  0  0  0  0  0  0
  -10.3636   -2.8769   -7.7941 C   0  0  1  0  0  0  0  0  0  0  0  0
  -10.8781   -1.4283   -7.8626 C   0  0  1  0  0  0  0  0  0  0  0  0
  -12.5663    0.0923   -8.8388 N   0  3  0  0  0  0  0  0  0  0  0  0
  -13.5025   -4.8063   -8.8515 N   0  3  0  0  0  0  0  0  0  0  0  0
   -9.4784   -3.0338   -6.6924 O   0  0  0  0  0  0  0  0  0  0  0  0
  -11.0340   -5.1959   -7.4875 O   0  0  0  0  0  0  0  0  0  0  0  0
   -9.7865   -0.5371   -8.1721 O   0  0  0  0  0  0  0  0  0  0  0  0
  -10.3875   -5.4063   -6.2626 C   0  0  2  0  0  0  0  0  0  0  0  0
   -9.8987   -6.8558   -6.1728 C   0  0  1  0  0  0  0  0  0  0  0  0
  -11.0641   -7.8135   -5.9235 C   0  0  0  0  0  0  0  0  0  0  0  0
  -11.8431   -7.3375   -4.7080 C   0  0  1  0  0  0  0  0  0  0  0  0
  -12.3358   -5.9220   -4.9536 C   0  0  1  0  0  0  0  0  0  0  0  0
  -13.1288   -5.3910   -3.7732 C   0  0  0  0  0  0  0  0  0  0  0  0
   -9.2149   -7.2315   -7.4514 N   0  3  0  0  0  0  0  0  0  0  0  0
  -13.4902   -3.9595   -4.0616 N   0  3  0  0  0  0  0  0  0  0  0  0
  -12.9452   -8.1987   -4.4593 O   0  0  0  0  0  0  0  0  0  0  0  0
  -11.2072   -5.0540   -5.1532 O   0  0  0  0  0  0  0  0  0  0  0  0
  1  2  1  0  0  0  0
  1 22  1  6  0  0  0
  1 10  1  0  0  0  0
  2  3  1  0  0  0  0
  2  7  1  6  0  0  0
  3  4  1  0  0  0  0
  3  8  1  1  0  0  0
  4  5  1  0  0  0  0
  4  9  1  6  0  0  0
  5  6  1  1  0  0  0
  5 10  1  0  0  0  0
  6 11  1  0  0  0  0
 12 13  1  0  0  0  0
 12 17  1  0  0  0  0
 12 18  1  1  0  0  0
 13 14  1  0  0  0  0
 14 15  1  0  0  0  0
 14 19  1  1  0  0  0
 15 16  1  0  0  0  0
 15 21  1  6  0  0  0
 16 17  1  0  0  0  0
 16 20  1  1  0  0  0
 17 22  1  6  0  0  0
 23 21  1  6  0  0  0
 23 24  1  0  0  0  0
 23 32  1  0  0  0  0
 24 25  1  0  0  0  0
 24 29  1  6  0  0  0
 25 26  1  0  0  0  0
 26 27  1  0  0  0  0
 26 31  1  6  0  0  0
 27 28  1  1  0  0  0
 27 32  1  0  0  0  0
 28 30  1  0  0  0  0
M  CHG  5   8   1  18   1  19   1  29   1  30   1
M  END
>  <CHROM.1>
-149.61485308,176.24692843,-173.01849320,-53.48468036,-154.93219241,78.56611787
-119.66842420,57.68493952,-170.07508008,174.91325804,158.12484974,179.67979552
84.78032611,67.98414241,176.03730143,70.53359030,-10.10216663,-2.89639119
-7.29264849,1.04983503,0.12420786,-0.32810309

>  <Name>
2tob cryst

>  <RI>
0

>  <Rbt.Current_Directory>
/home/itssahil/PROJECTS/Mol_Feturizer/New_Systems/rnas/2tob

>  <Rbt.Executable>
rbdock ($Id: //depot/dev/client3/rdock/2013.1/src/exe/rbdock.cxx#4 $)

>  <Rbt.Library>
libRbt.so (2013.1, Build901 2013/11/27)

>  <Rbt.Parameter_File>
/export/apps/rDock/src/rDock_2013.1_src/data/scripts/dock_solv.prm

>  <Rbt.Receptor>
prm/pocket_docking_6.prm

>  <SCORE>
-61.7493

>  <SCORE.INTER>
-41.8186

>  <SCORE.INTER.CONST>
1

>  <SCORE.INTER.POLAR>
-5.22881

>  <SCORE.INTER.ROT>
6

>  <SCORE.INTER.SOLV>
36.0211

>  <SCORE.INTER.VDW>
-30.0567

>  <SCORE.INTER.norm>
-1.30683

>  <SCORE.INTRA>
-19.9689

>  <SCORE.INTRA.DIHEDRAL>
-2.42099

>  <SCORE.INTRA.DIHEDRAL.0>
18.4221

>  <SCORE.INTRA.POLAR>
0.48575

>  <SCORE.INTRA.POLAR.0>
-1.57101

>  <SCORE.INTRA.REPUL>
-0.730195

>  <SCORE.INTRA.REPUL.0>
0.730195

>  <SCORE.INTRA.SOLV>
-9.21138

>  <SCORE.INTRA.SOLV.lig_0>
-127.221

>  <SCORE.INTRA.VDW>
-12.1533

>  <SCORE.INTRA.VDW.0>
10.8385

>  <SCORE.INTRA.norm>
-0.624029

>  <SCORE.RESTR>
0.0382367

>  <SCORE.RESTR.CAVITY>
0.0382367

>  <SCORE.RESTR.norm>
0.0011949

>  <SCORE.SYSTEM>
0

>  <SCORE.SYSTEM.CONST>
0

>  <SCORE.SYSTEM.DIHEDRAL>
0

>  <SCORE.SYSTEM.SOLV>
0

>  <SCORE.SYSTEM.norm>
0

>  <SCORE.heavy>
32

>  <SCORE.norm>
-1.92967

>  <RMSD>
1.678

$$$$
2tob cryst
 OpenBabel11021811463D
libRbt.so/2013.1/901 2013/11/27
 32 34  0  0  0  0  0  0  0  0999 V2000
   -8.4595    0.2296   -7.6221 C   0  0  2  0  0  0  0  0  0  0  0  0
   -7.8902    1.5628   -8.0970 C   0  0  1  0  0  0  0  0  0  0  0  0
   -7.1988    1.3548   -9.4447 C   0  0  2  0  0  0  0  0  0  0  0  0
   -6.1399    0.2484   -9.3506 C   0  0  1  0  0  0  0  0  0  0  0  0
   -6.7572   -1.0176   -8.7464 C   0  0  1  0  0  0  0  0  0  0  0  0
   -5.7602   -2.1318   -8.4731 C   0  0  0  0  0  0  0  0  0  0  0  0
   -8.9379    2.5191   -8.2335 O   0  0  0  0  0  0  0  0  0  0  0  0
   -6.5530    2.5459  -10.0819 N   0  3  0  0  0  0  0  0  0  0  0  0
   -5.6444   -0.0294  -10.6543 O   0  0  0  0  0  0  0  0  0  0  0  0
   -7.4010   -0.7012   -7.4960 O   0  0  0  0  0  0  0  0  0  0  0  0
   -6.4313   -3.3637   -8.2283 O   0  0  0  0  0  0  0  0  0  0  0  0
  -11.6876   -0.8479   -9.0205 C   0  0  2  0  0  0  0  0  0  0  0  0
  -12.8037   -1.8829   -8.8252 C   0  0  0  0  0  0  0  0  0  0  0  0
  -12.2697   -3.3127   -8.8165 C   0  0  1  0  0  0  0  0  0  0  0  0
  -11.2208   -3.4280   -7.7191 C   0  0  2  0  0  0  0  0  0  0  0  0
  -10.0388   -2.5115   -8.0452 C   0  0  1  0  0  0  0  0  0  0  0  0
  -10.4895   -1.0405   -8.0774 C   0  0  1  0  0  0  0  0  0  0  0  0
  -12.2227    0.5449   -8.8505 N   0  3  0  0  0  0  0  0  0  0  0  0
  -13.3800   -4.3007   -8.6185 N   0  3  0  0  0  0  0  0  0  0  0  0
   -9.0190   -2.6932   -7.0710 O   0  0  0  0  0  0  0  0  0  0  0  0
  -10.7686   -4.7887   -7.5948 O   0  0  0  0  0  0  0  0  0  0  0  0
   -9.4102   -0.2100   -8.5541 O   0  0  0  0  0  0  0  0  0  0  0  0
  -10.0089   -5.0203   -6.4407 C   0  0  2  0  0  0  0  0  0  0  0  0
   -9.7307   -6.5198   -6.2914 C   0  0  1  0  0  0  0  0  0  0  0  0
  -10.9826   -7.2670   -5.8309 C   0  0  0  0  0  0  0  0  0  0  0  0
  -11.5216   -6.6006   -4.5754 C   0  0  1  0  0  0  0  0  0  0  0  0
  -11.8284   -5.1437   -4.8758 C   0  0  1  0  0  0  0  0  0  0  0  0
  -12.3775   -4.4231   -3.6579 C   0  0  0  0  0  0  0  0  0  0  0  0
   -9.2784   -7.0765   -7.6064 N   0  3  0  0  0  0  0  0  0  0  0  0
  -12.6889   -3.0064   -4.0565 N   0  3  0  0  0  0  0  0  0  0  0  0
  -12.6973   -7.2625   -4.1307 O   0  0  0  0  0  0  0  0  0  0  0  0
  -10.6195   -4.4762   -5.2755 O   0  0  0  0  0  0  0  0  0  0  0  0
  1  2  1  0  0  0  0
  1 22  1  6  0  0  0
  1 10  1  0  0  0  0
  2  3  1  0  0  0  0
  2  7  1  6  0  0  0
  3  4  1  0  0  0  0
  3  8  1  1  0  0  0
  4  5  1  0  0  0  0
  4  9  1  6  0  0  0
  5  6  1  1  0  0  0
  5 10  1  0  0  0  0
  6 11  1  0  0  0  0
 12 13  1  0  0  0  0
 12 17  1  0  0  0  0
 12 18  1  1  0  0  0
 13 14  1  0  0  0  0
 14 15  1  0  0  0  0
 14 19  1  1  0  0  0
 15 16  1  0  0  0  0
 15 21  1  6  0  0  0
 16 17  1  0  0  0  0
 16 20  1  1  0  0  0
 17 22  1  6  0  0  0
 23 21  1  6  0  0  0
 23 24  1  0  0  0  0
 23 32  1  0  0  0  0
 24 25  1  0  0  0  0
 24 29  1  6  0  0  0
 25 26  1  0  0  0  0
 26 27  1  0  0  0  0
 26 31  1  6  0  0  0
 27 28  1  1  0  0  0
 27 32  1  0  0  0  0
 28 30  1  0  0  0  0
M  CHG  5   8   1  18   1  19   1  29   1  30   1
M  END
>  <CHROM.1>
-151.42329063,-175.82550010,-78.60703273,174.39074278,-165.81944976,80.17986651
-6.78204841,177.91427114,-168.00610300,174.54477867,153.59737211,172.43536743
-167.75358540,-68.60299067,-178.36057394,-43.95387464,-9.75130858,-2.48583562
-7.52492422,1.02723622,0.22451744,-0.36767104

>  <Name>
2tob cryst

>  <RI>
3.35201e+07

>  <Rbt.Current_Directory>
/home/itssahil/PROJECTS/Mol_Feturizer/New_Systems/rnas/2tob

>  <Rbt.Executable>
rbdock ($Id: //depot/dev/client3/rdock/2013.1/src/exe/rbdock.cxx#4 $)

>  <Rbt.Library>
libRbt.so (2013.1, Build901 2013/11/27)

>  <Rbt.Parameter_File>
/export/apps/rDock/src/rDock_2013.1_src/data/scripts/dock_solv.prm

>  <Rbt.Receptor>
prm/pocket_docking_4.prm

>  <SCORE>
-71.3963

>  <SCORE.INTER>
-51.409

>  <SCORE.INTER.CONST>
1

>  <SCORE.INTER.POLAR>
-6.76189

>  <SCORE.INTER.ROT>
6

>  <SCORE.INTER.SOLV>
36.919

>  <SCORE.INTER.VDW>
-31.6394

>  <SCORE.INTER.norm>
-1.60653

>  <SCORE.INTRA>
-19.9873

>  <SCORE.INTRA.DIHEDRAL>
-2.57923

>  <SCORE.INTRA.DIHEDRAL.0>
18.4221

>  <SCORE.INTRA.POLAR>
0.547219

>  <SCORE.INTRA.POLAR.0>
-1.57101

>  <SCORE.INTRA.REPUL>
-0.730195

>  <SCORE.INTRA.REPUL.0>
0.730195

>  <SCORE.INTRA.SOLV>
-8.8039

>  <SCORE.INTRA.SOLV.lig_0>
-127.221

>  <SCORE.INTRA.VDW>
-12.5053

>  <SCORE.INTRA.VDW.0>
10.8385

>  <SCORE.INTRA.norm>
-0.624603

>  <SCORE.RESTR>
0

>  <SCORE.RESTR.CAVITY>
0

>  <SCORE.RESTR.norm>
0

>  <SCORE.SYSTEM>
0

>  <SCORE.SYSTEM.CONST>
0

>  <SCORE.SYSTEM.DIHEDRAL>
0

>  <SCORE.SYSTEM.SOLV>
0

>  <SCORE.SYSTEM.norm>
0

>  <SCORE.heavy>
32

>  <SCORE.norm>
-2.23113

>  <RMSD>
1.682

$$$$
2tob cryst
 OpenBabel11021811463D
libRbt.so/2013.1/901 2013/11/27
 32 34  0  0  0  0  0  0  0  0999 V2000
   -8.3848   -0.1782   -7.5365 C   0  0  2  0  0  0  0  0  0  0  0  0
   -8.1970    1.3109   -7.8088 C   0  0  1  0  0  0  0  0  0  0  0  0
   -7.5668    1.4866   -9.1906 C   0  0  2  0  0  0  0  0  0  0  0  0
   -6.2626    0.6859   -9.3022 C   0  0  1  0  0  0  0  0  0  0  0  0
   -6.5050   -0.7703   -8.8903 C   0  0  1  0  0  0  0  0  0  0  0  0
   -5.2469   -1.6205   -8.8245 C   0  0  0  0  0  0  0  0  0  0  0  0
   -9.4559    1.9773   -7.7633 O   0  0  0  0  0  0  0  0  0  0  0  0
   -7.2804    2.8833   -9.6479 N   0  3  0  0  0  0  0  0  0  0  0  0
   -5.8014    0.7384  -10.6464 O   0  0  0  0  0  0  0  0  0  0  0  0
   -7.1226   -0.8159   -7.5885 O   0  0  0  0  0  0  0  0  0  0  0  0
   -5.5559   -2.9532   -8.4293 O   0  0  0  0  0  0  0  0  0  0  0  0
  -11.6119   -0.9383   -8.9571 C   0  0  2  0  0  0  0  0  0  0  0  0
  -12.8824   -1.7816   -8.7847 C   0  0  0  0  0  0  0  0  0  0  0  0
  -12.5925   -3.2791   -8.8379 C   0  0  1  0  0  0  0  0  0  0  0  0
  -11.5682   -3.6096   -7.7611 C   0  0  2  0  0  0  0  0  0  0  0  0
  -10.2535   -2.8887   -8.0696 C   0  0  1  0  0  0  0  0  0  0  0  0
  -10.4545   -1.3634   -8.0396 C   0  0  1  0  0  0  0  0  0  0  0  0
  -11.9075    0.5160   -8.7267 N   0  3  0  0  0  0  0  0  0  0  0  0
  -13.8494   -4.0773   -8.6611 N   0  3  0  0  0  0  0  0  0  0  0  0
   -9.2699   -3.2749   -7.1181 O   0  0  0  0  0  0  0  0  0  0  0  0
  -11.3466   -5.0302   -7.6950 O   0  0  0  0  0  0  0  0  0  0  0  0
   -9.2565   -0.7043   -8.5003 O   0  0  0  0  0  0  0  0  0  0  0  0
  -10.6800   -5.4367   -6.5318 C   0  0  2  0  0  0  0  0  0  0  0  0
  -10.6920   -6.9657   -6.4309 C   0  0  1  0  0  0  0  0  0  0  0  0
  -12.0753   -7.4782   -6.0292 C   0  0  0  0  0  0  0  0  0  0  0  0
  -12.5190   -6.7622   -4.7638 C   0  0  1  0  0  0  0  0  0  0  0  0
  -12.5383   -5.2649   -5.0178 C   0  0  1  0  0  0  0  0  0  0  0  0
  -12.9806   -4.4926   -3.7882 C   0  0  0  0  0  0  0  0  0  0  0  0
  -10.3111   -7.5558   -7.7538 N   0  3  0  0  0  0  0  0  0  0  0  0
  -14.4552   -4.7225   -3.5998 N   0  3  0  0  0  0  0  0  0  0  0  0
  -13.8110   -7.2048   -4.3729 O   0  0  0  0  0  0  0  0  0  0  0  0
  -11.2140   -4.8244   -5.3628 O   0  0  0  0  0  0  0  0  0  0  0  0
  1  2  1  0  0  0  0
  1 22  1  6  0  0  0
  1 10  1  0  0  0  0
  2  3  1  0  0  0  0
  2  7  1  6  0  0  0
  3  4  1  0  0  0  0
  3  8  1  1  0  0  0
  4  5  1  0  0  0  0
  4  9  1  6  0  0  0
  5  6  1  1  0  0  0
  5 10  1  0  0  0  0
  6 11  1  0  0  0  0
 12 13  1  0  0  0  0
 12 17  1  0  0  0  0
 12 18  1  1  0  0  0
 13 14  1  0  0  0  0
 14 15  1  0  0  0  0
 14 19  1  1  0  0  0
 15 16  1  0  0  0  0
 15 21  1  6  0  0  0
 16 17  1  0  0  0  0
 16 20  1  1  0  0  0
 17 22  1  6  0  0  0
 23 21  1  6  0  0  0
 23 24  1  0  0  0  0
 23 32  1  0  0  0  0
 24 25  1  0  0  0  0
 24 29  1  6  0  0  0
 25 26  1  0  0  0  0
 26 27  1  0  0  0  0
 26 31  1  6  0  0  0
 27 28  1  1  0  0  0
 27 32  1  0  0  0  0
 28 30  1  0  0  0  0
M  CHG  5   8   1  18   1  19   1  29   1  30   1
M  END
>  <CHROM.1>
-122.94629106,172.63857787,-33.23358815,64.65727281,179.69547736,-157.66373788
-62.90400249,-173.01084775,-165.24732993,84.76551681,138.59407728,170.65388448
-67.93623316,64.60992488,-71.96508223,52.42627075,-10.11526379,-2.62893013
-7.51715931,0.92590987,0.23283035,-0.30278317

>  <Name>
2tob cryst

>  <RI>
0

>  <Rbt.Current_Directory>
/home/itssahil/PROJECTS/Mol_Feturizer/New_Systems/rnas/2tob

>  <Rbt.Executable>
rbdock ($Id: //depot/dev/client3/rdock/2013.1/src/exe/rbdock.cxx#4 $)

>  <Rbt.Library>
libRbt.so (2013.1, Build901 2013/11/27)

>  <Rbt.Parameter_File>
/export/apps/rDock/src/rDock_2013.1_src/data/scripts/dock_solv.prm

>  <Rbt.Receptor>
prm/pocket_docking_5.prm

>  <SCORE>
-66.1934

>  <SCORE.INTER>
-45.9931

>  <SCORE.INTER.CONST>
1

>  <SCORE.INTER.POLAR>
-6.94603

>  <SCORE.INTER.ROT>
6

>  <SCORE.INTER.SOLV>
33.9777

>  <SCORE.INTER.VDW>
-26.4345

>  <SCORE.INTER.norm>
-1.43729

>  <SCORE.INTRA>
-20.2003

>  <SCORE.INTRA.DIHEDRAL>
3.69222

>  <SCORE.INTRA.DIHEDRAL.0>
18.4221

>  <SCORE.INTRA.POLAR>
-0.332938

>  <SCORE.INTRA.POLAR.0>
-1.57101

>  <SCORE.INTRA.REPUL>
-0.730195

>  <SCORE.INTRA.REPUL.0>
0.730195

>  <SCORE.INTRA.SOLV>
-6.05829

>  <SCORE.INTRA.SOLV.lig_0>
-127.221

>  <SCORE.INTRA.VDW>
-14.2343

>  <SCORE.INTRA.VDW.0>
10.8385

>  <SCORE.INTRA.norm>
-0.63126

>  <SCORE.RESTR>
0

>  <SCORE.RESTR.CAVITY>
0

>  <SCORE.RESTR.norm>
0

>  <SCORE.SYSTEM>
0

>  <SCORE.SYSTEM.CONST>
0

>  <SCORE.SYSTEM.DIHEDRAL>
0

>  <SCORE.SYSTEM.SOLV>
0

>  <SCORE.SYSTEM.norm>
0

>  <SCORE.heavy>
32

>  <SCORE.norm>
-2.06855

>  <RMSD>
1.683

$$$$
2tob cryst
 OpenBabel11021811463D
libRbt.so/2013.1/901 2013/11/27
 32 34  0  0  0  0  0  0  0  0999 V2000
   -9.0705   -0.4118   -6.9521 C   0  0  2  0  0  0  0  0  0  0  0  0
   -8.3855    0.9409   -7.1190 C   0  0  1  0  0  0  0  0  0  0  0  0
   -7.6780    0.9746   -8.4739 C   0  0  2  0  0  0  0  0  0  0  0  0
   -6.7126   -0.2097   -8.6158 C   0  0  1  0  0  0  0  0  0  0  0  0
   -7.4436   -1.5212   -8.3085 C   0  0  1  0  0  0  0  0  0  0  0  0
   -6.5453   -2.7468   -8.2778 C   0  0  0  0  0  0  0  0  0  0  0  0
   -9.3503    1.9875   -7.0513 O   0  0  0  0  0  0  0  0  0  0  0  0
   -6.9236    2.2180   -8.8297 N   0  3  0  0  0  0  0  0  0  0  0  0
   -6.2070   -0.2373   -9.9447 O   0  0  0  0  0  0  0  0  0  0  0  0
   -8.0927   -1.4322   -7.0243 O   0  0  0  0  0  0  0  0  0  0  0  0
   -7.2673   -3.9141   -8.6572 O   0  0  0  0  0  0  0  0  0  0  0  0
  -12.0867   -1.3749   -8.9178 C   0  0  2  0  0  0  0  0  0  0  0  0
  -13.0970   -2.5261   -9.0133 C   0  0  0  0  0  0  0  0  0  0  0  0
  -12.4187   -3.8930   -8.9829 C   0  0  1  0  0  0  0  0  0  0  0  0
  -11.5961   -3.9938   -7.7057 C   0  0  2  0  0  0  0  0  0  0  0  0
  -10.4832   -2.9432   -7.7319 C   0  0  1  0  0  0  0  0  0  0  0  0
  -11.0802   -1.5253   -7.7661 C   0  0  1  0  0  0  0  0  0  0  0  0
  -12.7966   -0.0591   -8.7759 N   0  3  0  0  0  0  0  0  0  0  0  0
  -13.4291   -4.9973   -9.0718 N   0  3  0  0  0  0  0  0  0  0  0  0
   -9.6577   -3.1026   -6.5851 O   0  0  0  0  0  0  0  0  0  0  0  0
  -11.0277   -5.3095   -7.5746 O   0  0  0  0  0  0  0  0  0  0  0  0
  -10.0285   -0.5578   -7.9653 O   0  0  0  0  0  0  0  0  0  0  0  0
  -10.5443   -5.5821   -6.2882 C   0  0  2  0  0  0  0  0  0  0  0  0
   -9.9968   -7.0120   -6.2288 C   0  0  1  0  0  0  0  0  0  0  0  0
  -11.1333   -8.0345   -6.2100 C   0  0  0  0  0  0  0  0  0  0  0  0
  -12.0949   -7.6834   -5.0862 C   0  0  1  0  0  0  0  0  0  0  0  0
  -12.6231   -6.2760   -5.3024 C   0  0  1  0  0  0  0  0  0  0  0  0
  -13.5966   -5.8681   -4.2115 C   0  0  0  0  0  0  0  0  0  0  0  0
   -9.1260   -7.2626   -7.4215 N   0  3  0  0  0  0  0  0  0  0  0  0
  -14.1260   -4.5007   -4.5476 N   0  3  0  0  0  0  0  0  0  0  0  0
  -13.1738   -8.6070   -5.0526 O   0  0  0  0  0  0  0  0  0  0  0  0
  -11.5251   -5.3482   -5.2832 O   0  0  0  0  0  0  0  0  0  0  0  0
  1  2  1  0  0  0  0
  1 22  1  6  0  0  0
  1 10  1  0  0  0  0
  2  3  1  0  0  0  0
  2  7  1  6  0  0  0
  3  4  1  0  0  0  0
  3  8  1  1  0  0  0
  4  5  1  0  0  0  0
  4  9  1  6  0  0  0
  5  6  1  1  0  0  0
  5 10  1  0  0  0  0
  6 11  1  0  0  0  0
 12 13  1  0  0  0  0
 12 17  1  0  0  0  0
 12 18  1  1  0  0  0
 13 14  1  0  0  0  0
 14 15  1  0  0  0  0
 14 19  1  1  0  0  0
 15 16  1  0  0  0  0
 15 21  1  6  0  0  0
 16 17  1  0  0  0  0
 16 20  1  1  0  0  0
 17 22  1  6  0  0  0
 23 21  1  6  0  0  0
 23 24  1  0  0  0  0
 23 32  1  0  0  0  0
 24 25  1  0  0  0  0
 24 29  1  6  0  0  0
 25 26  1  0  0  0  0
 26 27  1  0  0  0  0
 26 31  1  6  0  0  0
 27 28  1  1  0  0  0
 27 32  1  0  0  0  0
 28 30  1  0  0  0  0
M  CHG  5   8   1  18   1  19   1  29   1  30   1
M  END
>  <CHROM.1>
-160.10426755,45.52202901,173.26314742,-50.81900356,-150.78532630,-173.13704032
116.07788535,52.19003656,-165.03806319,-57.94896261,173.09280738,178.35703315
-27.11893255,68.22643001,-176.78368136,-161.61046078,-10.29094909,-3.13890125
-7.35093375,1.03492058,0.15900122,-0.24993254

>  <Name>
2tob cryst

>  <RI>
0

>  <Rbt.Current_Directory>
/home/itssahil/PROJECTS/Mol_Feturizer/New_Systems/rnas/2tob

>  <Rbt.Executable>
rbdock ($Id: //depot/dev/client3/rdock/2013.1/src/exe/rbdock.cxx#4 $)

>  <Rbt.Library>
libRbt.so (2013.1, Build901 2013/11/27)

>  <Rbt.Parameter_File>
/export/apps/rDock/src/rDock_2013.1_src/data/scripts/dock_solv.prm

>  <Rbt.Receptor>
prm/pocket_docking_3.prm

>  <SCORE>
-57.6271

>  <SCORE.INTER>
-40.6747

>  <SCORE.INTER.CONST>
1

>  <SCORE.INTER.POLAR>
-5.46568

>  <SCORE.INTER.ROT>
6

>  <SCORE.INTER.SOLV>
36.5184

>  <SCORE.INTER.VDW>
-28.6703

>  <SCORE.INTER.norm>
-1.27108

>  <SCORE.INTRA>
-17.0281

>  <SCORE.INTRA.DIHEDRAL>
-4.02048

>  <SCORE.INTRA.DIHEDRAL.0>
18.4221

>  <SCORE.INTRA.POLAR>
1.27006

>  <SCORE.INTRA.POLAR.0>
-1.57101

>  <SCORE.INTRA.REPUL>
-0.730195

>  <SCORE.INTRA.REPUL.0>
0.730195

>  <SCORE.INTRA.SOLV>
-9.0608

>  <SCORE.INTRA.SOLV.lig_0>
-127.221

>  <SCORE.INTRA.VDW>
-11.1547

>  <SCORE.INTRA.VDW.0>
10.8385

>  <SCORE.INTRA.norm>
-0.53213

>  <SCORE.RESTR>
0.0756688

>  <SCORE.RESTR.CAVITY>
0.0756688

>  <SCORE.RESTR.norm>
0.00236465

>  <SCORE.SYSTEM>
0

>  <SCORE.SYSTEM.CONST>
0

>  <SCORE.SYSTEM.DIHEDRAL>
0

>  <SCORE.SYSTEM.SOLV>
0

>  <SCORE.SYSTEM.norm>
0

>  <SCORE.heavy>
32

>  <SCORE.norm>
-1.80085

>  <RMSD>
1.690

$$$$
2tob cryst
 OpenBabel11021811463D
libRbt.so/2013.1/901 2013/11/27
 32 34  0  0  0  0  0  0  0  0999 V2000
   -7.7738    0.3431   -7.6454 C   0  0  2  0  0  0  0  0  0  0  0  0
   -7.0997    1.6454   -8.0655 C   0  0  1  0  0  0  0  0  0  0  0  0
   -6.4346    1.4426   -9.4272 C   0  0  2  0  0  0  0  0  0  0  0  0
   -5.4693    0.2503   -9.3917 C   0  0  1  0  0  0  0  0  0  0  0  0
   -6.1851   -0.9870   -8.8389 C   0  0  1  0  0  0  0  0  0  0  0  0
   -5.2814   -2.1900   -8.6242 C   0  0  0  0  0  0  0  0  0  0  0  0
   -8.0662    2.6892   -8.1503 O   0  0  0  0  0  0  0  0  0  0  0  0
   -5.6966    2.6044  -10.0166 N   0  3  0  0  0  0  0  0  0  0  0  0
   -5.0049   -0.0080  -10.7107 O   0  0  0  0  0  0  0  0  0  0  0  0
   -6.7945   -0.6757   -7.5701 O   0  0  0  0  0  0  0  0  0  0  0  0
   -6.0465   -3.3489   -8.3093 O   0  0  0  0  0  0  0  0  0  0  0  0
  -11.0900   -0.3661   -9.0762 C   0  0  2  0  0  0  0  0  0  0  0  0
  -12.3090   -1.2821   -8.9025 C   0  0  0  0  0  0  0  0  0  0  0  0
  -11.9265   -2.7596   -8.9119 C   0  0  1  0  0  0  0  0  0  0  0  0
  -10.9031   -2.9988   -7.8104 C   0  0  2  0  0  0  0  0  0  0  0  0
   -9.6300   -2.2057   -8.1163 C   0  0  1  0  0  0  0  0  0  0  0  0
   -9.9252   -0.6955   -8.1293 C   0  0  1  0  0  0  0  0  0  0  0  0
  -11.4787    1.0723   -8.8887 N   0  3  0  0  0  0  0  0  0  0  0  0
  -13.1348   -3.6295   -8.7348 N   0  3  0  0  0  0  0  0  0  0  0  0
   -8.6416   -2.5061   -7.1391 O   0  0  0  0  0  0  0  0  0  0  0  0
  -10.5956   -4.4008   -7.7036 O   0  0  0  0  0  0  0  0  0  0  0  0
   -8.7621    0.0249   -8.5876 O   0  0  0  0  0  0  0  0  0  0  0  0
  -10.0703   -4.7628   -6.4564 C   0  0  2  0  0  0  0  0  0  0  0  0
   -9.9727   -6.2885   -6.3543 C   0  0  1  0  0  0  0  0  0  0  0  0
  -11.3529   -6.9145   -6.1523 C   0  0  0  0  0  0  0  0  0  0  0  0
  -12.0285   -6.2479   -4.9648 C   0  0  1  0  0  0  0  0  0  0  0  0
  -12.1327   -4.7548   -5.2229 C   0  0  1  0  0  0  0  0  0  0  0  0
  -12.8063   -4.0317   -4.0707 C   0  0  0  0  0  0  0  0  0  0  0  0
   -9.3612   -6.8342   -7.6080 N   0  3  0  0  0  0  0  0  0  0  0  0
  -12.7996   -2.5591   -4.3779 N   0  3  0  0  0  0  0  0  0  0  0  0
  -13.3228   -6.7967   -4.7607 O   0  0  0  0  0  0  0  0  0  0  0  0
  -10.8129   -4.2060   -5.3769 O   0  0  0  0  0  0  0  0  0  0  0  0
  1  2  1  0  0  0  0
  1 22  1  6  0  0  0
  1 10  1  0  0  0  0
  2  3  1  0  0  0  0
  2  7  1  6  0  0  0
  3  4  1  0  0  0  0
  3  8  1  1  0  0  0
  4  5  1  0  0  0  0
  4  9  1  6  0  0  0
  5  6  1  1  0  0  0
  5 10  1  0  0  0  0
  6 11  1  0  0  0  0
 12 13  1  0  0  0  0
 12 17  1  0  0  0  0
 12 18  1  1  0  0  0
 13 14  1  0  0  0  0
 14 15  1  0  0  0  0
 14 19  1  1  0  0  0
 15 16  1  0  0  0  0
 15 21  1  6  0  0  0
 16 17  1  0  0  0  0
 16 20  1  1  0  0  0
 17 22  1  6  0  0  0
 23 21  1  6  0  0  0
 23 24  1  0  0  0  0
 23 32  1  0  0  0  0
 24 25  1  0  0  0  0
 24 29  1  6  0  0  0
 25 26  1  0  0  0  0
 26 27  1  0  0  0  0
 26 31  1  6  0  0  0
 27 28  1  1  0  0  0
 27 32  1  0  0  0  0
 28 30  1  0  0  0  0
M  CHG  5   8   1  18   1  19   1  29   1  30   1
M  END
>  <CHROM.1>
-149.33429207,63.49558959,151.94106876,8.87222139,-171.05104259,-78.59961372
-58.29011790,-172.80598049,-158.11887843,74.66614580,153.97017482,171.44316243
175.34712956,-58.22803559,177.00829858,77.28820576,-9.46211808,-2.21495977
-7.63655216,0.88871565,0.25236409,-0.29354176

>  <Name>
2tob cryst

>  <RI>
0

>  <Rbt.Current_Directory>
/home/itssahil/PROJECTS/Mol_Feturizer/New_Systems/rnas/2tob

>  <Rbt.Executable>
rbdock ($Id: //depot/dev/client3/rdock/2013.1/src/exe/rbdock.cxx#4 $)

>  <Rbt.Library>
libRbt.so (2013.1, Build901 2013/11/27)

>  <Rbt.Parameter_File>
/export/apps/rDock/src/rDock_2013.1_src/data/scripts/dock_solv.prm

>  <Rbt.Receptor>
prm/pocket_docking_6.prm

>  <SCORE>
-59.2606

>  <SCORE.INTER>
-45.7116

>  <SCORE.INTER.CONST>
1

>  <SCORE.INTER.POLAR>
-5.9807

>  <SCORE.INTER.ROT>
6

>  <SCORE.INTER.SOLV>
38.1706

>  <SCORE.INTER.VDW>
-30.8622

>  <SCORE.INTER.norm>
-1.42849

>  <SCORE.INTRA>
-13.5879

>  <SCORE.INTRA.DIHEDRAL>
3.09302

>  <SCORE.INTRA.DIHEDRAL.0>
18.4221

>  <SCORE.INTRA.POLAR>
1.41273

>  <SCORE.INTRA.POLAR.0>
-1.57101

>  <SCORE.INTRA.REPUL>
-0.730195

>  <SCORE.INTRA.REPUL.0>
0.730195

>  <SCORE.INTRA.SOLV>
-7.6613

>  <SCORE.INTRA.SOLV.lig_0>
-127.221

>  <SCORE.INTRA.VDW>
-12.4561

>  <SCORE.INTRA.VDW.0>
10.8385

>  <SCORE.INTRA.norm>
-0.424621

>  <SCORE.RESTR>
0.0388439

>  <SCORE.RESTR.CAVITY>
0.0388439

>  <SCORE.RESTR.norm>
0.00121387

>  <SCORE.SYSTEM>
0

>  <SCORE.SYSTEM.CONST>
0

>  <SCORE.SYSTEM.DIHEDRAL>
0

>  <SCORE.SYSTEM.SOLV>
0

>  <SCORE.SYSTEM.norm>
0

>  <SCORE.heavy>
32

>  <SCORE.norm>
-1.85189

>  <RMSD>
1.710

$$$$
2tob cryst
 OpenBabel11021811463D
libRbt.so/2013.1/901 2013/11/27
 32 34  0  0  0  0  0  0  0  0999 V2000
   -8.4115   -0.3997   -7.5516 C   0  0  2  0  0  0  0  0  0  0  0  0
   -8.6220    1.0856   -7.8287 C   0  0  1  0  0  0  0  0  0  0  0  0
   -8.1580    1.3950   -9.2523 C   0  0  2  0  0  0  0  0  0  0  0  0
   -6.7067    0.9438   -9.4641 C   0  0  1  0  0  0  0  0  0  0  0  0
   -6.5470   -0.5213   -9.0436 C   0  0  1  0  0  0  0  0  0  0  0  0
   -5.1149   -1.0297   -9.0755 C   0  0  0  0  0  0  0  0  0  0  0  0
  -10.0007    1.4172   -7.6869 O   0  0  0  0  0  0  0  0  0  0  0  0
   -8.2637    2.8129   -9.7216 N   0  3  0  0  0  0  0  0  0  0  0  0
   -6.3724    1.0922  -10.8383 O   0  0  0  0  0  0  0  0  0  0  0  0
   -7.0372   -0.7027   -7.7001 O   0  0  0  0  0  0  0  0  0  0  0  0
   -5.0832   -2.4477   -9.2016 O   0  0  0  0  0  0  0  0  0  0  0  0
  -11.5240   -1.3550   -9.0217 C   0  0  2  0  0  0  0  0  0  0  0  0
  -12.8397   -2.1156   -8.8083 C   0  0  0  0  0  0  0  0  0  0  0  0
  -12.6159   -3.6131   -8.6165 C   0  0  1  0  0  0  0  0  0  0  0  0
  -11.6736   -3.8117   -7.4373 C   0  0  2  0  0  0  0  0  0  0  0  0
  -10.3114   -3.1945   -7.7637 C   0  0  1  0  0  0  0  0  0  0  0  0
  -10.4439   -1.6763   -7.9767 C   0  0  1  0  0  0  0  0  0  0  0  0
  -11.7660    0.1271   -9.0326 N   0  3  0  0  0  0  0  0  0  0  0  0
  -13.9163   -4.3288   -8.4047 N   0  3  0  0  0  0  0  0  0  0  0  0
   -9.4048   -3.4658   -6.7023 O   0  0  0  0  0  0  0  0  0  0  0  0
  -11.5215   -5.2125   -7.1438 O   0  0  0  0  0  0  0  0  0  0  0  0
   -9.1918   -1.1392   -8.4515 O   0  0  0  0  0  0  0  0  0  0  0  0
  -12.4889   -5.7047   -6.2581 C   0  0  2  0  0  0  0  0  0  0  0  0
  -11.8458   -6.0129   -4.9018 C   0  0  1  0  0  0  0  0  0  0  0  0
  -11.0050   -7.2880   -4.9702 C   0  0  0  0  0  0  0  0  0  0  0  0
  -11.8597   -8.4137   -5.5299 C   0  0  1  0  0  0  0  0  0  0  0  0
  -12.3715   -8.0165   -6.9036 C   0  0  1  0  0  0  0  0  0  0  0  0
  -13.2301   -9.1063   -7.5194 C   0  0  0  0  0  0  0  0  0  0  0  0
  -10.9731   -4.8667   -4.4916 N   0  3  0  0  0  0  0  0  0  0  0  0
  -14.5148   -9.1824   -6.7405 N   0  3  0  0  0  0  0  0  0  0  0  0
  -11.1008   -9.6110   -5.6222 O   0  0  0  0  0  0  0  0  0  0  0  0
  -13.1787   -6.8326   -6.7859 O   0  0  0  0  0  0  0  0  0  0  0  0
  1  2  1  0  0  0  0
  1 22  1  6  0  0  0
  1 10  1  0  0  0  0
  2  3  1  0  0  0  0
  2  7  1  6  0  0  0
  3  4  1  0  0  0  0
  3  8  1  1  0  0  0
  4  5  1  0  0  0  0
  4  9  1  6  0  0  0
  5  6  1  1  0  0  0
  5 10  1  0  0  0  0
  6 11  1  0  0  0  0
 12 13  1  0  0  0  0
 12 17  1  0  0  0  0
 12 18  1  1  0  0  0
 13 14  1  0  0  0  0
 14 15  1  0  0  0  0
 14 19  1  1  0  0  0
 15 16  1  0  0  0  0
 15 21  1  6  0  0  0
 16 17  1  0  0  0  0
 16 20  1  1  0  0  0
 17 22  1  6  0  0  0
 23 21  1  6  0  0  0
 23 24  1  0  0  0  0
 23 32  1  0  0  0  0
 24 25  1  0  0  0  0
 24 29  1  6  0  0  0
 25 26  1  0  0  0  0
 26 27  1  0  0  0  0
 26 31  1  6  0  0  0
 27 28  1  1  0  0  0
 27 32  1  0  0  0  0
 28 30  1  0  0  0  0
M  CHG  5   8   1  18   1  19   1  29   1  30   1
M  END
>  <CHROM.1>
-100.50034870,52.74870731,37.29993249,-176.41600983,-156.91959781,-155.48910887
172.91048322,-53.43007995,-87.92054142,80.90377710,132.97333523,-109.30075754
-177.32700533,-66.85222667,69.59267076,35.47783708,-10.24350590,-3.15659621
-7.70603298,-1.04769043,0.03224480,2.79790700

>  <Name>
2tob cryst

>  <RI>
3.35201e+07

>  <Rbt.Current_Directory>
/home/itssahil/PROJECTS/Mol_Feturizer/New_Systems/rnas/2tob

>  <Rbt.Executable>
rbdock ($Id: //depot/dev/client3/rdock/2013.1/src/exe/rbdock.cxx#4 $)

>  <Rbt.Library>
libRbt.so (2013.1, Build901 2013/11/27)

>  <Rbt.Parameter_File>
/export/apps/rDock/src/rDock_2013.1_src/data/scripts/dock_solv.prm

>  <Rbt.Receptor>
prm/pocket_docking_4.prm

>  <SCORE>
-67.3273

>  <SCORE.INTER>
-51.4356

>  <SCORE.INTER.CONST>
1

>  <SCORE.INTER.POLAR>
-8.41258

>  <SCORE.INTER.ROT>
6

>  <SCORE.INTER.SOLV>
26.6779

>  <SCORE.INTER.VDW>
-22.7411

>  <SCORE.INTER.norm>
-1.60736

>  <SCORE.INTRA>
-15.8918

>  <SCORE.INTRA.DIHEDRAL>
13.122

>  <SCORE.INTRA.DIHEDRAL.0>
18.4221

>  <SCORE.INTRA.POLAR>
-1.06938

>  <SCORE.INTRA.POLAR.0>
-1.57101

>  <SCORE.INTRA.REPUL>
-0.730195

>  <SCORE.INTRA.REPUL.0>
0.730195

>  <SCORE.INTRA.SOLV>
-0.812008

>  <SCORE.INTRA.SOLV.lig_0>
-127.221

>  <SCORE.INTRA.VDW>
-14.7599

>  <SCORE.INTRA.VDW.0>
10.8385

>  <SCORE.INTRA.norm>
-0.496618

>  <SCORE.RESTR>
0

>  <SCORE.RESTR.CAVITY>
0

>  <SCORE.RESTR.norm>
0

>  <SCORE.SYSTEM>
0

>  <SCORE.SYSTEM.CONST>
0

>  <SCORE.SYSTEM.DIHEDRAL>
0

>  <SCORE.SYSTEM.SOLV>
0

>  <SCORE.SYSTEM.norm>
0

>  <SCORE.heavy>
32

>  <SCORE.norm>
-2.10398

>  <RMSD>
1.720

$$$$
2tob cryst
 OpenBabel11021811463D
libRbt.so/2013.1/901 2013/11/27
 32 34  0  0  0  0  0  0  0  0999 V2000
   -8.4766   -0.1597   -7.3725 C   0  0  2  0  0  0  0  0  0  0  0  0
   -8.1548    1.2904   -7.7198 C   0  0  1  0  0  0  0  0  0  0  0  0
   -7.5443    1.3410   -9.1207 C   0  0  2  0  0  0  0  0  0  0  0  0
   -6.3251    0.4145   -9.2191 C   0  0  1  0  0  0  0  0  0  0  0  0
   -6.6947   -0.9912   -8.7330 C   0  0  1  0  0  0  0  0  0  0  0  0
   -5.5218   -1.9543   -8.6511 C   0  0  0  0  0  0  0  0  0  0  0  0
   -9.3432    2.0759   -7.6818 O   0  0  0  0  0  0  0  0  0  0  0  0
   -7.1377    2.6812   -9.6501 N   0  3  0  0  0  0  0  0  0  0  0  0
   -5.8936    0.3605  -10.5731 O   0  0  0  0  0  0  0  0  0  0  0  0
   -7.2822   -0.9173   -7.4186 O   0  0  0  0  0  0  0  0  0  0  0  0
   -5.9738   -3.2852   -8.4227 O   0  0  0  0  0  0  0  0  0  0  0  0
  -11.7456   -0.3251   -8.8300 C   0  0  2  0  0  0  0  0  0  0  0  0
  -13.1934   -0.7889   -8.6207 C   0  0  0  0  0  0  0  0  0  0  0  0
  -13.2997   -2.3053   -8.4854 C   0  0  1  0  0  0  0  0  0  0  0  0
  -12.4127   -2.7488   -7.3302 C   0  0  2  0  0  0  0  0  0  0  0  0
  -10.9517   -2.4307   -7.6581 C   0  0  1  0  0  0  0  0  0  0  0  0
  -10.7520   -0.9131   -7.8155 C   0  0  1  0  0  0  0  0  0  0  0  0
  -11.6588    1.1735   -8.7848 N   0  3  0  0  0  0  0  0  0  0  0  0
  -14.7229   -2.7287   -8.2765 N   0  3  0  0  0  0  0  0  0  0  0  0
  -10.1164   -2.9327   -6.6226 O   0  0  0  0  0  0  0  0  0  0  0  0
  -12.5669   -4.1592   -7.0887 O   0  0  0  0  0  0  0  0  0  0  0  0
   -9.4173   -0.6435   -8.2927 O   0  0  0  0  0  0  0  0  0  0  0  0
  -12.1417   -4.5562   -5.8142 C   0  0  2  0  0  0  0  0  0  0  0  0
  -11.3851   -5.8855   -5.9071 C   0  0  1  0  0  0  0  0  0  0  0  0
  -12.3480   -7.0497   -6.1419 C   0  0  0  0  0  0  0  0  0  0  0  0
  -13.4313   -7.0172   -5.0759 C   0  0  1  0  0  0  0  0  0  0  0  0
  -14.1540   -5.6828   -5.1387 C   0  0  1  0  0  0  0  0  0  0  0  0
  -15.2553   -5.5914   -4.0982 C   0  0  0  0  0  0  0  0  0  0  0  0
  -10.4020   -5.8219   -7.0354 N   0  3  0  0  0  0  0  0  0  0  0  0
  -14.6086   -5.4747   -2.7450 N   0  3  0  0  0  0  0  0  0  0  0  0
  -14.3537   -8.0787   -5.2765 O   0  0  0  0  0  0  0  0  0  0  0  0
  -13.2171   -4.6226   -4.8837 O   0  0  0  0  0  0  0  0  0  0  0  0
  1  2  1  0  0  0  0
  1 22  1  6  0  0  0
  1 10  1  0  0  0  0
  2  3  1  0  0  0  0
  2  7  1  6  0  0  0
  3  4  1  0  0  0  0
  3  8  1  1  0  0  0
  4  5  1  0  0  0  0
  4  9  1  6  0  0  0
  5  6  1  1  0  0  0
  5 10  1  0  0  0  0
  6 11  1  0  0  0  0
 12 13  1  0  0  0  0
 12 17  1  0  0  0  0
 12 18  1  1  0  0  0
 13 14  1  0  0  0  0
 14 15  1  0  0  0  0
 14 19  1  1  0  0  0
 15 16  1  0  0  0  0
 15 21  1  6  0  0  0
 16 17  1  0  0  0  0
 16 20  1  1  0  0  0
 17 22  1  6  0  0  0
 23 21  1  6  0  0  0
 23 24  1  0  0  0  0
 23 32  1  0  0  0  0
 24 25  1  0  0  0  0
 24 29  1  6  0  0  0
 25 26  1  0  0  0  0
 26 27  1  0  0  0  0
 26 31  1  6  0  0  0
 27 28  1  1  0  0  0
 27 32  1  0  0  0  0
 28 30  1  0  0  0  0
M  CHG  5   8   1  18   1  19   1  29   1  30   1
M  END
>  <CHROM.1>
-110.86152500,175.31259139,-155.43664446,-177.18143382,-169.78089501,68.63392014
56.68749569,-36.75153906,-160.54729593,-57.37607419,134.63990031,-139.05648825
-68.71113317,-58.74898594,70.97717372,69.81699552,-10.62871878,-2.42116782
-7.33097073,-0.84441983,-0.17546667,2.77428752

>  <Name>
2tob cryst

>  <RI>
0

>  <Rbt.Current_Directory>
/home/itssahil/PROJECTS/Mol_Feturizer/New_Systems/rnas/2tob

>  <Rbt.Executable>
rbdock ($Id: //depot/dev/client3/rdock/2013.1/src/exe/rbdock.cxx#4 $)

>  <Rbt.Library>
libRbt.so (2013.1, Build901 2013/11/27)

>  <Rbt.Parameter_File>
/export/apps/rDock/src/rDock_2013.1_src/data/scripts/dock_solv.prm

>  <Rbt.Receptor>
prm/pocket_docking_5.prm

>  <SCORE>
-58.5479

>  <SCORE.INTER>
-40.4902

>  <SCORE.INTER.CONST>
1

>  <SCORE.INTER.POLAR>
-5.36247

>  <SCORE.INTER.ROT>
6

>  <SCORE.INTER.SOLV>
31.9091

>  <SCORE.INTER.VDW>
-27.355

>  <SCORE.INTER.norm>
-1.26532

>  <SCORE.INTRA>
-18.0576

>  <SCORE.INTRA.DIHEDRAL>
6.1448

>  <SCORE.INTRA.DIHEDRAL.0>
18.4221

>  <SCORE.INTRA.POLAR>
-0.233971

>  <SCORE.INTRA.POLAR.0>
-1.57101

>  <SCORE.INTRA.REPUL>
-0.730195

>  <SCORE.INTRA.REPUL.0>
0.730195

>  <SCORE.INTRA.SOLV>
-3.71787

>  <SCORE.INTRA.SOLV.lig_0>
-127.221

>  <SCORE.INTRA.VDW>
-14.8246

>  <SCORE.INTRA.VDW.0>
10.8385

>  <SCORE.INTRA.norm>
-0.564302

>  <SCORE.RESTR>
0

>  <SCORE.RESTR.CAVITY>
0

>  <SCORE.RESTR.norm>
0

>  <SCORE.SYSTEM>
0

>  <SCORE.SYSTEM.CONST>
0

>  <SCORE.SYSTEM.DIHEDRAL>
0

>  <SCORE.SYSTEM.SOLV>
0

>  <SCORE.SYSTEM.norm>
0

>  <SCORE.heavy>
32

>  <SCORE.norm>
-1.82962

>  <RMSD>
1.736

$$$$
2tob cryst
 OpenBabel11021811463D
libRbt.so/2013.1/901 2013/11/27
 32 34  0  0  0  0  0  0  0  0999 V2000
   -8.0988    0.1236   -7.5658 C   0  0  2  0  0  0  0  0  0  0  0  0
   -7.5369    1.4811   -7.9763 C   0  0  1  0  0  0  0  0  0  0  0  0
   -6.7782    1.3255   -9.2946 C   0  0  2  0  0  0  0  0  0  0  0  0
   -5.7011    0.2386   -9.1802 C   0  0  1  0  0  0  0  0  0  0  0  0
   -6.3187   -1.0563   -8.6410 C   0  0  1  0  0  0  0  0  0  0  0  0
   -5.3118   -2.1572   -8.3508 C   0  0  0  0  0  0  0  0  0  0  0  0
   -8.5974    2.4193   -8.1368 O   0  0  0  0  0  0  0  0  0  0  0  0
   -6.1289    2.5470   -9.8675 N   0  3  0  0  0  0  0  0  0  0  0  0
   -5.1386    0.0080  -10.4657 O   0  0  0  0  0  0  0  0  0  0  0  0
   -7.0276   -0.7886   -7.4146 O   0  0  0  0  0  0  0  0  0  0  0  0
   -5.9581   -3.4223   -8.2530 O   0  0  0  0  0  0  0  0  0  0  0  0
  -11.3470   -0.4312   -9.0665 C   0  0  2  0  0  0  0  0  0  0  0  0
  -12.6586   -1.2160   -8.9290 C   0  0  0  0  0  0  0  0  0  0  0  0
  -12.4367   -2.7250   -8.9853 C   0  0  1  0  0  0  0  0  0  0  0  0
  -11.4541   -3.1082   -7.8873 C   0  0  2  0  0  0  0  0  0  0  0  0
  -10.1008   -2.4471   -8.1607 C   0  0  1  0  0  0  0  0  0  0  0  0
  -10.2322   -0.9143   -8.1253 C   0  0  1  0  0  0  0  0  0  0  0  0
  -11.5807    1.0338   -8.8335 N   0  3  0  0  0  0  0  0  0  0  0  0
  -13.7328   -3.4653   -8.8429 N   0  3  0  0  0  0  0  0  0  0  0  0
   -9.1586   -2.8834   -7.1892 O   0  0  0  0  0  0  0  0  0  0  0  0
  -11.2997   -4.5379   -7.8254 O   0  0  0  0  0  0  0  0  0  0  0  0
   -8.9947   -0.3087   -8.5539 O   0  0  0  0  0  0  0  0  0  0  0  0
  -10.6148   -4.9756   -6.6844 C   0  0  2  0  0  0  0  0  0  0  0  0
  -10.6673   -6.5046   -6.5988 C   0  0  1  0  0  0  0  0  0  0  0  0
  -12.0535   -6.9828   -6.1662 C   0  0  0  0  0  0  0  0  0  0  0  0
  -12.4439   -6.2686   -4.8823 C   0  0  1  0  0  0  0  0  0  0  0  0
  -12.4276   -4.7687   -5.1204 C   0  0  1  0  0  0  0  0  0  0  0  0
  -12.8159   -3.9978   -3.8717 C   0  0  0  0  0  0  0  0  0  0  0  0
  -10.3376   -7.0906   -7.9373 N   0  3  0  0  0  0  0  0  0  0  0  0
  -12.9839   -2.5518   -4.2510 N   0  3  0  0  0  0  0  0  0  0  0  0
  -13.7372   -6.6793   -4.4621 O   0  0  0  0  0  0  0  0  0  0  0  0
  -11.1008   -4.3615   -5.4955 O   0  0  0  0  0  0  0  0  0  0  0  0
  1  2  1  0  0  0  0
  1 22  1  6  0  0  0
  1 10  1  0  0  0  0
  2  3  1  0  0  0  0
  2  7  1  6  0  0  0
  3  4  1  0  0  0  0
  3  8  1  1  0  0  0
  4  5  1  0  0  0  0
  4  9  1  6  0  0  0
  5  6  1  1  0  0  0
  5 10  1  0  0  0  0
  6 11  1  0  0  0  0
 12 13  1  0  0  0  0
 12 17  1  0  0  0  0
 12 18  1  1  0  0  0
 13 14  1  0  0  0  0
 14 15  1  0  0  0  0
 14 19  1  1  0  0  0
 15 16  1  0  0  0  0
 15 21  1  6  0  0  0
 16 17  1  0  0  0  0
 16 20  1  1  0  0  0
 17 22  1  6  0  0  0
 23 21  1  6  0  0  0
 23 24  1  0  0  0  0
 23 32  1  0  0  0  0
 24 25  1  0  0  0  0
 24 29  1  6  0  0  0
 25 26  1  0  0  0  0
 26 27  1  0  0  0  0
 26 31  1  6  0  0  0
 27 28  1  1  0  0  0
 27 32  1  0  0  0  0
 28 30  1  0  0  0  0
M  CHG  5   8   1  18   1  19   1  29   1  30   1
M  END
>  <CHROM.1>
-137.73600187,-178.67354598,-78.33734549,-60.18631179,-162.26716483,58.52209822
-65.45980860,70.38929963,-168.54280780,-55.17725210,141.05683817,172.09160386
57.95231399,64.85736521,-171.23937827,-167.14071773,-9.83346186,-2.31198388
-7.60433203,0.86572656,0.21810912,-0.29712833

>  <Name>
2tob cryst

>  <RI>
3.35201e+07

>  <Rbt.Current_Directory>
/home/itssahil/PROJECTS/Mol_Feturizer/New_Systems/rnas/2tob

>  <Rbt.Executable>
rbdock ($Id: //depot/dev/client3/rdock/2013.1/src/exe/rbdock.cxx#4 $)

>  <Rbt.Library>
libRbt.so (2013.1, Build901 2013/11/27)

>  <Rbt.Parameter_File>
/export/apps/rDock/src/rDock_2013.1_src/data/scripts/dock_solv.prm

>  <Rbt.Receptor>
prm/pocket_docking_4.prm

>  <SCORE>
-58.6553

>  <SCORE.INTER>
-38.5356

>  <SCORE.INTER.CONST>
1

>  <SCORE.INTER.POLAR>
-5.47199

>  <SCORE.INTER.ROT>
6

>  <SCORE.INTER.SOLV>
35.1922

>  <SCORE.INTER.VDW>
-26.7812

>  <SCORE.INTER.norm>
-1.20424

>  <SCORE.INTRA>
-20.1197

>  <SCORE.INTRA.DIHEDRAL>
-3.22067

>  <SCORE.INTRA.DIHEDRAL.0>
18.4221

>  <SCORE.INTRA.POLAR>
1.09327

>  <SCORE.INTRA.POLAR.0>
-1.57101

>  <SCORE.INTRA.REPUL>
-0.730195

>  <SCORE.INTRA.REPUL.0>
0.730195

>  <SCORE.INTRA.SOLV>
-8.47913

>  <SCORE.INTRA.SOLV.lig_0>
-127.221

>  <SCORE.INTRA.VDW>
-14.3359

>  <SCORE.INTRA.VDW.0>
10.8385

>  <SCORE.INTRA.norm>
-0.628739

>  <SCORE.RESTR>
0

>  <SCORE.RESTR.CAVITY>
0

>  <SCORE.RESTR.norm>
0

>  <SCORE.SYSTEM>
0

>  <SCORE.SYSTEM.CONST>
0

>  <SCORE.SYSTEM.DIHEDRAL>
0

>  <SCORE.SYSTEM.SOLV>
0

>  <SCORE.SYSTEM.norm>
0

>  <SCORE.heavy>
32

>  <SCORE.norm>
-1.83298

>  <RMSD>
1.786

$$$$
2tob cryst
 OpenBabel11021811463D
libRbt.so/2013.1/901 2013/11/27
 32 34  0  0  0  0  0  0  0  0999 V2000
   -8.1134   -0.4190   -7.6529 C   0  0  2  0  0  0  0  0  0  0  0  0
   -8.4324    1.0715   -7.7119 C   0  0  1  0  0  0  0  0  0  0  0  0
   -8.0967    1.5955   -9.1085 C   0  0  2  0  0  0  0  0  0  0  0  0
   -6.6414    1.2772   -9.4762 C   0  0  1  0  0  0  0  0  0  0  0  0
   -6.3632   -0.2156   -9.2693 C   0  0  1  0  0  0  0  0  0  0  0  0
   -4.9100   -0.6153   -9.4657 C   0  0  0  0  0  0  0  0  0  0  0  0
   -9.8137    1.2856   -7.4343 O   0  0  0  0  0  0  0  0  0  0  0  0
   -8.3220    3.0518   -9.3736 N   0  3  0  0  0  0  0  0  0  0  0  0
   -6.4215    1.6265  -10.8371 O   0  0  0  0  0  0  0  0  0  0  0  0
   -6.7387   -0.6044   -7.9329 O   0  0  0  0  0  0  0  0  0  0  0  0
   -4.5420   -0.5299  -10.8387 O   0  0  0  0  0  0  0  0  0  0  0  0
  -11.2424   -1.3645   -9.1497 C   0  0  2  0  0  0  0  0  0  0  0  0
  -12.5287   -2.1782   -8.9536 C   0  0  0  0  0  0  0  0  0  0  0  0
  -12.2509   -3.6727   -8.8175 C   0  0  1  0  0  0  0  0  0  0  0  0
  -11.2917   -3.8798   -7.6534 C   0  0  2  0  0  0  0  0  0  0  0  0
   -9.9548   -3.2037   -7.9679 C   0  0  1  0  0  0  0  0  0  0  0  0
  -10.1424   -1.6845   -8.1252 C   0  0  1  0  0  0  0  0  0  0  0  0
  -11.5362    0.1076   -9.1055 N   0  3  0  0  0  0  0  0  0  0  0  0
  -13.5234   -4.4411   -8.6215 N   0  3  0  0  0  0  0  0  0  0  0  0
   -9.0298   -3.4804   -6.9239 O   0  0  0  0  0  0  0  0  0  0  0  0
  -11.0880   -5.2840   -7.4116 O   0  0  0  0  0  0  0  0  0  0  0  0
   -8.9141   -1.0869   -8.5901 O   0  0  0  0  0  0  0  0  0  0  0  0
  -10.5460   -5.5593   -6.1494 C   0  0  2  0  0  0  0  0  0  0  0  0
  -10.0041   -6.9922   -6.1156 C   0  0  1  0  0  0  0  0  0  0  0  0
  -11.1440   -8.0085   -6.0431 C   0  0  0  0  0  0  0  0  0  0  0  0
  -12.0497   -7.6522   -4.8753 C   0  0  1  0  0  0  0  0  0  0  0  0
  -12.5798   -6.2419   -5.0666 C   0  0  1  0  0  0  0  0  0  0  0  0
  -13.4986   -5.8288   -3.9311 C   0  0  0  0  0  0  0  0  0  0  0  0
   -9.1919   -7.2474   -7.3480 N   0  3  0  0  0  0  0  0  0  0  0  0
  -14.0956   -4.4923   -4.2783 N   0  3  0  0  0  0  0  0  0  0  0  0
  -13.1308   -8.5698   -4.7907 O   0  0  0  0  0  0  0  0  0  0  0  0
  -11.4771   -5.3201   -5.0994 O   0  0  0  0  0  0  0  0  0  0  0  0
  1  2  1  0  0  0  0
  1 22  1  6  0  0  0
  1 10  1  0  0  0  0
  2  3  1  0  0  0  0
  2  7  1  6  0  0  0
  3  4  1  0  0  0  0
  3  8  1  1  0  0  0
  4  5  1  0  0  0  0
  4  9  1  6  0  0  0
  5  6  1  1  0  0  0
  5 10  1  0  0  0  0
  6 11  1  0  0  0  0
 12 13  1  0  0  0  0
 12 17  1  0  0  0  0
 12 18  1  1  0  0  0
 13 14  1  0  0  0  0
 14 15  1  0  0  0  0
 14 19  1  1  0  0  0
 15 16  1  0  0  0  0
 15 21  1  6  0  0  0
 16 17  1  0  0  0  0
 16 20  1  1  0  0  0
 17 22  1  6  0  0  0
 23 21  1  6  0  0  0
 23 24  1  0  0  0  0
 23 32  1  0  0  0  0
 24 25  1  0  0  0  0
 24 29  1  6  0  0  0
 25 26  1  0  0  0  0
 26 27  1  0  0  0  0
 26 31  1  6  0  0  0
 27 28  1  1  0  0  0
 27 32  1  0  0  0  0
 28 30  1  0  0  0  0
M  CHG  5   8   1  18   1  19   1  29   1  30   1
M  END
>  <CHROM.1>
-96.11794383,64.66744450,132.54270816,63.37004464,-70.20445594,53.62624236
175.52700189,62.79534052,-162.58809670,-172.96932692,136.61323816,-164.33122237
-33.14719562,64.20370416,-173.67594781,-178.26563552,-9.92541667,-2.73767852
-7.64362085,-1.00478782,-0.25191025,2.82655741

>  <Name>
2tob cryst

>  <RI>
0

>  <Rbt.Current_Directory>
/home/itssahil/PROJECTS/Mol_Feturizer/New_Systems/rnas/2tob

>  <Rbt.Executable>
rbdock ($Id: //depot/dev/client3/rdock/2013.1/src/exe/rbdock.cxx#4 $)

>  <Rbt.Library>
libRbt.so (2013.1, Build901 2013/11/27)

>  <Rbt.Parameter_File>
/export/apps/rDock/src/rDock_2013.1_src/data/scripts/dock_solv.prm

>  <Rbt.Receptor>
prm/pocket_docking_3.prm

>  <SCORE>
-61.5401

>  <SCORE.INTER>
-44.4345

>  <SCORE.INTER.CONST>
1

>  <SCORE.INTER.POLAR>
-6.45864

>  <SCORE.INTER.ROT>
6

>  <SCORE.INTER.SOLV>
35.7936

>  <SCORE.INTER.VDW>
-27.6254

>  <SCORE.INTER.norm>
-1.38858

>  <SCORE.INTRA>
-17.3115

>  <SCORE.INTRA.DIHEDRAL>
0.866314

>  <SCORE.INTRA.DIHEDRAL.0>
18.4221

>  <SCORE.INTRA.POLAR>
0.292847

>  <SCORE.INTRA.POLAR.0>
-1.57101

>  <SCORE.INTRA.REPUL>
-0.730195

>  <SCORE.INTRA.REPUL.0>
0.730195

>  <SCORE.INTRA.SOLV>
-5.01928

>  <SCORE.INTRA.SOLV.lig_0>
-127.221

>  <SCORE.INTRA.VDW>
-12.5797

>  <SCORE.INTRA.VDW.0>
10.8385

>  <SCORE.INTRA.norm>
-0.540984

>  <SCORE.RESTR>
0.205887

>  <SCORE.RESTR.CAVITY>
0.205887

>  <SCORE.RESTR.norm>
0.00643396

>  <SCORE.SYSTEM>
0

>  <SCORE.SYSTEM.CONST>
0

>  <SCORE.SYSTEM.DIHEDRAL>
0

>  <SCORE.SYSTEM.SOLV>
0

>  <SCORE.SYSTEM.norm>
0

>  <SCORE.heavy>
32

>  <SCORE.norm>
-1.92313

>  <RMSD>
1.794

$$$$
2tob cryst
 OpenBabel11021811463D
libRbt.so/2013.1/901 2013/11/27
 32 34  0  0  0  0  0  0  0  0999 V2000
   -9.1257   -0.1058   -7.4648 C   0  0  2  0  0  0  0  0  0  0  0  0
   -8.7164    1.3379   -7.7387 C   0  0  1  0  0  0  0  0  0  0  0  0
   -7.9966    1.4021   -9.0860 C   0  0  2  0  0  0  0  0  0  0  0  0
   -6.8139    0.4251   -9.1207 C   0  0  1  0  0  0  0  0  0  0  0  0
   -7.2798   -0.9762   -8.7106 C   0  0  1  0  0  0  0  0  0  0  0  0
   -6.1589   -1.9931   -8.5704 C   0  0  0  0  0  0  0  0  0  0  0  0
   -9.8697    2.1746   -7.7664 O   0  0  0  0  0  0  0  0  0  0  0  0
   -7.4932    2.7376   -9.5385 N   0  3  0  0  0  0  0  0  0  0  0  0
   -6.2805    0.3915  -10.4385 O   0  0  0  0  0  0  0  0  0  0  0  0
   -7.9647   -0.9147   -7.4436 O   0  0  0  0  0  0  0  0  0  0  0  0
   -5.8825   -2.2568   -7.1986 O   0  0  0  0  0  0  0  0  0  0  0  0
  -12.2649   -1.1668   -9.0298 C   0  0  2  0  0  0  0  0  0  0  0  0
  -13.3487   -2.2516   -8.9700 C   0  0  0  0  0  0  0  0  0  0  0  0
  -12.7697   -3.6549   -9.1282 C   0  0  1  0  0  0  0  0  0  0  0  0
  -11.7234   -3.8689   -8.0432 C   0  0  2  0  0  0  0  0  0  0  0  0
  -10.5694   -2.8840   -8.2464 C   0  0  1  0  0  0  0  0  0  0  0  0
  -11.0662   -1.4343   -8.1060 C   0  0  1  0  0  0  0  0  0  0  0  0
  -12.8447    0.1784   -8.6987 N   0  3  0  0  0  0  0  0  0  0  0  0
  -13.8492   -4.6933   -9.0601 N   0  3  0  0  0  0  0  0  0  0  0  0
   -9.5494   -3.1499   -7.2920 O   0  0  0  0  0  0  0  0  0  0  0  0
  -11.2290   -5.2202   -8.0791 O   0  0  0  0  0  0  0  0  0  0  0  0
  -10.0113   -0.5197   -8.4698 O   0  0  0  0  0  0  0  0  0  0  0  0
  -10.6324   -5.6274   -6.8787 C   0  0  2  0  0  0  0  0  0  0  0  0
  -10.6817   -7.1545   -6.7633 C   0  0  1  0  0  0  0  0  0  0  0  0
  -12.0945   -7.6342   -6.4292 C   0  0  0  0  0  0  0  0  0  0  0  0
  -12.5882   -6.8953   -5.1958 C   0  0  1  0  0  0  0  0  0  0  0  0
  -12.5628   -5.4009   -5.4655 C   0  0  1  0  0  0  0  0  0  0  0  0
  -13.0521   -4.6061   -4.2684 C   0  0  0  0  0  0  0  0  0  0  0  0
  -10.2451   -7.7669   -8.0586 N   0  3  0  0  0  0  0  0  0  0  0  0
  -12.0223   -4.7254   -3.1783 N   0  3  0  0  0  0  0  0  0  0  0  0
  -13.9077   -7.3071   -4.8685 O   0  0  0  0  0  0  0  0  0  0  0  0
  -11.2134   -4.9914   -5.7453 O   0  0  0  0  0  0  0  0  0  0  0  0
  1  2  1  0  0  0  0
  1 22  1  6  0  0  0
  1 10  1  0  0  0  0
  2  3  1  0  0  0  0
  2  7  1  6  0  0  0
  3  4  1  0  0  0  0
  3  8  1  1  0  0  0
  4  5  1  0  0  0  0
  4  9  1  6  0  0  0
  5  6  1  1  0  0  0
  5 10  1  0  0  0  0
  6 11  1  0  0  0  0
 12 13  1  0  0  0  0
 12 17  1  0  0  0  0
 12 18  1  1  0  0  0
 13 14  1  0  0  0  0
 14 15  1  0  0  0  0
 14 19  1  1  0  0  0
 15 16  1  0  0  0  0
 15 21  1  6  0  0  0
 16 17  1  0  0  0  0
 16 20  1  1  0  0  0
 17 22  1  6  0  0  0
 23 21  1  6  0  0  0
 23 24  1  0  0  0  0
 23 32  1  0  0  0  0
 24 25  1  0  0  0  0
 24 29  1  6  0  0  0
 25 26  1  0  0  0  0
 26 27  1  0  0  0  0
 26 31  1  6  0  0  0
 27 28  1  1  0  0  0
 27 32  1  0  0  0  0
 28 30  1  0  0  0  0
M  CHG  5   8   1  18   1  19   1  29   1  30   1
M  END
>  <CHROM.1>
-145.69726208,179.02178040,79.41299677,-177.01570981,105.06868246,-140.84122003
108.38064811,61.72766134,-159.48238209,-43.93262354,149.98240858,155.86916839
-59.14772017,178.57752861,69.48552123,59.64746010,-10.35149114,-2.75264334
-7.58496629,1.02615555,0.03882014,-0.35300352

>  <Name>
2tob cryst

>  <RI>
0

>  <Rbt.Current_Directory>
/home/itssahil/PROJECTS/Mol_Feturizer/New_Systems/rnas/2tob

>  <Rbt.Executable>
rbdock ($Id: //depot/dev/client3/rdock/2013.1/src/exe/rbdock.cxx#4 $)

>  <Rbt.Library>
libRbt.so (2013.1, Build901 2013/11/27)

>  <Rbt.Parameter_File>
/export/apps/rDock/src/rDock_2013.1_src/data/scripts/dock_solv.prm

>  <Rbt.Receptor>
prm/pocket_docking_3.prm

>  <SCORE>
-54.8197

>  <SCORE.INTER>
-43.9264

>  <SCORE.INTER.CONST>
1

>  <SCORE.INTER.POLAR>
-6.73044

>  <SCORE.INTER.ROT>
6

>  <SCORE.INTER.SOLV>
36.3825

>  <SCORE.INTER.VDW>
-26.577

>  <SCORE.INTER.norm>
-1.3727

>  <SCORE.INTRA>
-11.3842

>  <SCORE.INTRA.DIHEDRAL>
9.50066

>  <SCORE.INTRA.DIHEDRAL.0>
18.4221

>  <SCORE.INTRA.POLAR>
1.09639

>  <SCORE.INTRA.POLAR.0>
-1.57101

>  <SCORE.INTRA.REPUL>
-0.730195

>  <SCORE.INTRA.REPUL.0>
0.730195

>  <SCORE.INTRA.SOLV>
-7.26798

>  <SCORE.INTRA.SOLV.lig_0>
-127.221

>  <SCORE.INTRA.VDW>
-12.5773

>  <SCORE.INTRA.VDW.0>
10.8385

>  <SCORE.INTRA.norm>
-0.355757

>  <SCORE.RESTR>
0.490945

>  <SCORE.RESTR.CAVITY>
0.490945

>  <SCORE.RESTR.norm>
0.015342

>  <SCORE.SYSTEM>
0

>  <SCORE.SYSTEM.CONST>
0

>  <SCORE.SYSTEM.DIHEDRAL>
0

>  <SCORE.SYSTEM.SOLV>
0

>  <SCORE.SYSTEM.norm>
0

>  <SCORE.heavy>
32

>  <SCORE.norm>
-1.71312

>  <RMSD>
1.802

$$$$
2tob cryst
 OpenBabel11021811463D
libRbt.so/2013.1/901 2013/11/27
 32 34  0  0  0  0  0  0  0  0999 V2000
   -7.9293    0.3938   -7.7145 C   0  0  2  0  0  0  0  0  0  0  0  0
   -7.2599    1.7033   -8.1197 C   0  0  1  0  0  0  0  0  0  0  0  0
   -6.4803    1.4813   -9.4161 C   0  0  2  0  0  0  0  0  0  0  0  0
   -5.4882    0.3205   -9.2651 C   0  0  1  0  0  0  0  0  0  0  0  0
   -6.2119   -0.9214   -8.7333 C   0  0  1  0  0  0  0  0  0  0  0  0
   -5.2954   -2.0896   -8.4085 C   0  0  0  0  0  0  0  0  0  0  0  0
   -8.2450    2.7143   -8.3151 O   0  0  0  0  0  0  0  0  0  0  0  0
   -5.7295    2.6474   -9.9802 N   0  3  0  0  0  0  0  0  0  0  0  0
   -4.9106    0.0381  -10.5336 O   0  0  0  0  0  0  0  0  0  0  0  0
   -6.9313   -0.5920   -7.5283 O   0  0  0  0  0  0  0  0  0  0  0  0
   -6.0291   -3.3087   -8.3510 O   0  0  0  0  0  0  0  0  0  0  0  0
  -11.1644   -0.3128   -9.2156 C   0  0  2  0  0  0  0  0  0  0  0  0
  -12.3784   -1.2489   -9.1438 C   0  0  0  0  0  0  0  0  0  0  0  0
  -11.9939   -2.7100   -9.3595 C   0  0  1  0  0  0  0  0  0  0  0  0
  -10.9490   -3.0912   -8.3199 C   0  0  2  0  0  0  0  0  0  0  0  0
   -9.6833   -2.2589   -8.5403 C   0  0  1  0  0  0  0  0  0  0  0  0
   -9.9810   -0.7620   -8.3440 C   0  0  1  0  0  0  0  0  0  0  0  0
  -11.5516    1.0856   -8.8285 N   0  3  0  0  0  0  0  0  0  0  0  0
  -13.1972   -3.6008   -9.2784 N   0  3  0  0  0  0  0  0  0  0  0  0
   -8.6757   -2.6841   -7.6315 O   0  0  0  0  0  0  0  0  0  0  0  0
  -10.6373   -4.4935   -8.4090 O   0  0  0  0  0  0  0  0  0  0  0  0
   -8.8280    0.0184   -8.7230 O   0  0  0  0  0  0  0  0  0  0  0  0
  -11.5761   -5.3147   -7.7712 C   0  0  2  0  0  0  0  0  0  0  0  0
  -10.8566   -6.3655   -6.9190 C   0  0  1  0  0  0  0  0  0  0  0  0
  -10.2382   -7.4541   -7.7967 C   0  0  0  0  0  0  0  0  0  0  0  0
  -11.3113   -8.0176   -8.7141 C   0  0  1  0  0  0  0  0  0  0  0  0
  -11.8897   -6.8933   -9.5557 C   0  0  1  0  0  0  0  0  0  0  0  0
  -12.9666   -7.3959  -10.5000 C   0  0  0  0  0  0  0  0  0  0  0  0
   -9.7776   -5.7042   -6.1178 N   0  3  0  0  0  0  0  0  0  0  0  0
  -12.3012   -8.2194  -11.5687 N   0  3  0  0  0  0  0  0  0  0  0  0
  -10.7636   -9.0220   -9.5563 O   0  0  0  0  0  0  0  0  0  0  0  0
  -12.4844   -5.9104   -8.6914 O   0  0  0  0  0  0  0  0  0  0  0  0
  1  2  1  0  0  0  0
  1 22  1  6  0  0  0
  1 10  1  0  0  0  0
  2  3  1  0  0  0  0
  2  7  1  6  0  0  0
  3  4  1  0  0  0  0
  3  8  1  1  0  0  0
  4  5  1  0  0  0  0
  4  9  1  6  0  0  0
  5  6  1  1  0  0  0
  5 10  1  0  0  0  0
  6 11  1  0  0  0  0
 12 13  1  0  0  0  0
 12 17  1  0  0  0  0
 12 18  1  1  0  0  0
 13 14  1  0  0  0  0
 14 15  1  0  0  0  0
 14 19  1  1  0  0  0
 15 16  1  0  0  0  0
 15 21  1  6  0  0  0
 16 17  1  0  0  0  0
 16 20  1  1  0  0  0
 17 22  1  6  0  0  0
 23 21  1  6  0  0  0
 23 24  1  0  0  0  0
 23 32  1  0  0  0  0
 24 25  1  0  0  0  0
 24 29  1  6  0  0  0
 25 26  1  0  0  0  0
 26 27  1  0  0  0  0
 26 31  1  6  0  0  0
 27 28  1  6  0  0  0
 27 32  1  0  0  0  0
 28 30  1  0  0  0  0
M  CHG  5   8   1  18   1  19   1  29   1  30   1
M  END
>  <CHROM.1>
-151.37459824,-66.09510386,162.31978228,-59.41596365,-160.84968364,-170.02094903
52.62341188,-64.65195128,-80.51326990,177.13754207,143.87048006,-134.06495277
80.27743788,-33.22911232,-70.53527199,174.47892381,-9.46834506,-2.75089891
-8.74957709,1.02159749,-0.07356427,-0.02145008

>  <Name>
2tob cryst

>  <RI>
0

>  <Rbt.Current_Directory>
/home/itssahil/PROJECTS/Mol_Feturizer/New_Systems/rnas/2tob

>  <Rbt.Executable>
rbdock ($Id: //depot/dev/client3/rdock/2013.1/src/exe/rbdock.cxx#4 $)

>  <Rbt.Library>
libRbt.so (2013.1, Build901 2013/11/27)

>  <Rbt.Parameter_File>
/export/apps/rDock/src/rDock_2013.1_src/data/scripts/dock_solv.prm

>  <Rbt.Receptor>
prm/blind_docking_80.prm

>  <SCORE>
-52.1636

>  <SCORE.INTER>
-43.291

>  <SCORE.INTER.CONST>
1

>  <SCORE.INTER.POLAR>
-5.5931

>  <SCORE.INTER.ROT>
6

>  <SCORE.INTER.SOLV>
37.3514

>  <SCORE.INTER.VDW>
-30.2674

>  <SCORE.INTER.norm>
-1.35284

>  <SCORE.INTRA>
-17.2612

>  <SCORE.INTRA.DIHEDRAL>
5.07255

>  <SCORE.INTRA.DIHEDRAL.0>
18.4221

>  <SCORE.INTRA.POLAR>
-0.853712

>  <SCORE.INTRA.POLAR.0>
-1.57101

>  <SCORE.INTRA.REPUL>
-0.730195

>  <SCORE.INTRA.REPUL.0>
0.730195

>  <SCORE.INTRA.SOLV>
-2.08599

>  <SCORE.INTRA.SOLV.lig_0>
-127.221

>  <SCORE.INTRA.VDW>
-12.2009

>  <SCORE.INTRA.VDW.0>
10.8385

>  <SCORE.INTRA.norm>
-0.539412

>  <SCORE.RESTR>
8.38855

>  <SCORE.RESTR.CAVITY>
8.38855

>  <SCORE.RESTR.norm>
0.262142

>  <SCORE.SYSTEM>
0

>  <SCORE.SYSTEM.CONST>
0

>  <SCORE.SYSTEM.DIHEDRAL>
0

>  <SCORE.SYSTEM.SOLV>
0

>  <SCORE.SYSTEM.norm>
0

>  <SCORE.heavy>
32

>  <SCORE.norm>
-1.63011

>  <RMSD>
1.811

$$$$
2tob cryst
 OpenBabel11021811463D
libRbt.so/2013.1/901 2013/11/27
 32 34  0  0  0  0  0  0  0  0999 V2000
   -9.2211   -0.1333   -7.2538 C   0  0  2  0  0  0  0  0  0  0  0  0
   -8.7606    1.2893   -7.5557 C   0  0  1  0  0  0  0  0  0  0  0  0
   -7.9120    1.2764   -8.8275 C   0  0  2  0  0  0  0  0  0  0  0  0
   -6.7497    0.2828   -8.6988 C   0  0  1  0  0  0  0  0  0  0  0  0
   -7.2791   -1.0898   -8.2692 C   0  0  1  0  0  0  0  0  0  0  0  0
   -6.1960   -2.1136   -7.9708 C   0  0  0  0  0  0  0  0  0  0  0  0
   -9.8901    2.1391   -7.7367 O   0  0  0  0  0  0  0  0  0  0  0  0
   -7.3425    2.5807   -9.2924 N   0  3  0  0  0  0  0  0  0  0  0  0
   -6.0914    0.1763   -9.9548 O   0  0  0  0  0  0  0  0  0  0  0  0
   -8.0827   -0.9558   -7.0799 O   0  0  0  0  0  0  0  0  0  0  0  0
   -5.7842   -2.7774   -9.1613 O   0  0  0  0  0  0  0  0  0  0  0  0
  -12.2272   -1.2422   -9.0069 C   0  0  2  0  0  0  0  0  0  0  0  0
  -13.3027   -2.3368   -9.0198 C   0  0  0  0  0  0  0  0  0  0  0  0
  -12.7036   -3.7327   -9.1672 C   0  0  1  0  0  0  0  0  0  0  0  0
  -11.7139   -3.9540   -8.0316 C   0  0  2  0  0  0  0  0  0  0  0  0
  -10.5598   -2.9565   -8.1597 C   0  0  1  0  0  0  0  0  0  0  0  0
  -11.0764   -1.5133   -8.0250 C   0  0  1  0  0  0  0  0  0  0  0  0
  -12.8358    0.0931   -8.6877 N   0  3  0  0  0  0  0  0  0  0  0  0
  -13.7756   -4.7810   -9.1710 N   0  3  0  0  0  0  0  0  0  0  0  0
   -9.5890   -3.2279   -7.1566 O   0  0  0  0  0  0  0  0  0  0  0  0
  -11.2060   -5.3003   -8.0606 O   0  0  0  0  0  0  0  0  0  0  0  0
  -10.0122   -0.5847   -8.3197 O   0  0  0  0  0  0  0  0  0  0  0  0
  -10.6052   -5.6953   -6.8582 C   0  0  2  0  0  0  0  0  0  0  0  0
  -10.6211   -7.2233   -6.7443 C   0  0  1  0  0  0  0  0  0  0  0  0
  -12.0241   -7.7347   -6.4162 C   0  0  0  0  0  0  0  0  0  0  0  0
  -12.5389   -7.0081   -5.1842 C   0  0  1  0  0  0  0  0  0  0  0  0
  -12.5458   -5.5132   -5.4525 C   0  0  1  0  0  0  0  0  0  0  0  0
  -13.0573   -4.7307   -4.2566 C   0  0  0  0  0  0  0  0  0  0  0  0
  -10.1658   -7.8246   -8.0385 N   0  3  0  0  0  0  0  0  0  0  0  0
  -12.0370   -4.8420   -3.1567 N   0  3  0  0  0  0  0  0  0  0  0  0
  -13.8503   -7.4495   -4.8624 O   0  0  0  0  0  0  0  0  0  0  0  0
  -11.2047   -5.0735   -5.7265 O   0  0  0  0  0  0  0  0  0  0  0  0
  1  2  1  0  0  0  0
  1 22  1  6  0  0  0
  1 10  1  0  0  0  0
  2  3  1  0  0  0  0
  2  7  1  6  0  0  0
  3  4  1  0  0  0  0
  3  8  1  1  0  0  0
  4  5  1  0  0  0  0
  4  9  1  6  0  0  0
  5  6  1  1  0  0  0
  5 10  1  0  0  0  0
  6 11  1  0  0  0  0
 12 13  1  0  0  0  0
 12 17  1  0  0  0  0
 12 18  1  1  0  0  0
 13 14  1  0  0  0  0
 14 15  1  0  0  0  0
 14 19  1  1  0  0  0
 15 16  1  0  0  0  0
 15 21  1  6  0  0  0
 16 17  1  0  0  0  0
 16 20  1  1  0  0  0
 17 22  1  6  0  0  0
 23 21  1  6  0  0  0
 23 24  1  0  0  0  0
 23 32  1  0  0  0  0
 24 25  1  0  0  0  0
 24 29  1  6  0  0  0
 25 26  1  0  0  0  0
 26 27  1  0  0  0  0
 26 31  1  6  0  0  0
 27 28  1  1  0  0  0
 27 32  1  0  0  0  0
 28 30  1  0  0  0  0
M  CHG  5   8   1  18   1  19   1  29   1  30   1
M  END
>  <CHROM.1>
-148.45283212,178.29263062,87.92701239,67.51455566,-85.72466925,-79.00168670
-8.52686926,57.21213650,-162.71546956,178.05595368,147.26537817,156.68868731
-56.66767341,179.96659775,68.80803295,160.52372914,-10.32511053,-2.85821871
-7.54486217,1.01609215,0.13518956,-0.27645650

>  <Name>
2tob cryst

>  <RI>
0

>  <Rbt.Current_Directory>
/home/itssahil/PROJECTS/Mol_Feturizer/New_Systems/rnas/2tob

>  <Rbt.Executable>
rbdock ($Id: //depot/dev/client3/rdock/2013.1/src/exe/rbdock.cxx#4 $)

>  <Rbt.Library>
libRbt.so (2013.1, Build901 2013/11/27)

>  <Rbt.Parameter_File>
/export/apps/rDock/src/rDock_2013.1_src/data/scripts/dock_solv.prm

>  <Rbt.Receptor>
prm/pocket_docking_3.prm

>  <SCORE>
-59.0648

>  <SCORE.INTER>
-44.135

>  <SCORE.INTER.CONST>
1

>  <SCORE.INTER.POLAR>
-5.86857

>  <SCORE.INTER.ROT>
6

>  <SCORE.INTER.SOLV>
35.1927

>  <SCORE.INTER.VDW>
-29.1923

>  <SCORE.INTER.norm>
-1.37922

>  <SCORE.INTRA>
-15.3308

>  <SCORE.INTRA.DIHEDRAL>
3.52887

>  <SCORE.INTRA.DIHEDRAL.0>
18.4221

>  <SCORE.INTRA.POLAR>
0.792981

>  <SCORE.INTRA.POLAR.0>
-1.57101

>  <SCORE.INTRA.REPUL>
-0.730195

>  <SCORE.INTRA.REPUL.0>
0.730195

>  <SCORE.INTRA.SOLV>
-6.91169

>  <SCORE.INTRA.SOLV.lig_0>
-127.221

>  <SCORE.INTRA.VDW>
-12.6845

>  <SCORE.INTRA.VDW.0>
10.8385

>  <SCORE.INTRA.norm>
-0.479087

>  <SCORE.RESTR>
0.400936

>  <SCORE.RESTR.CAVITY>
0.400936

>  <SCORE.RESTR.norm>
0.0125293

>  <SCORE.SYSTEM>
0

>  <SCORE.SYSTEM.CONST>
0

>  <SCORE.SYSTEM.DIHEDRAL>
0

>  <SCORE.SYSTEM.SOLV>
0

>  <SCORE.SYSTEM.norm>
0

>  <SCORE.heavy>
32

>  <SCORE.norm>
-1.84578

>  <RMSD>
1.821

$$$$
2tob cryst
 OpenBabel11021811463D
libRbt.so/2013.1/901 2013/11/27
 32 34  0  0  0  0  0  0  0  0999 V2000
   -9.1282   -0.1508   -7.3790 C   0  0  2  0  0  0  0  0  0  0  0  0
   -8.5205    1.2204   -7.6578 C   0  0  1  0  0  0  0  0  0  0  0  0
   -7.8285    1.1881   -9.0208 C   0  0  2  0  0  0  0  0  0  0  0  0
   -6.8005    0.0507   -9.0849 C   0  0  1  0  0  0  0  0  0  0  0  0
   -7.4551   -1.2711   -8.6686 C   0  0  1  0  0  0  0  0  0  0  0  0
   -6.4903   -2.4401   -8.5565 C   0  0  0  0  0  0  0  0  0  0  0  0
   -9.5410    2.2150   -7.6572 O   0  0  0  0  0  0  0  0  0  0  0  0
   -7.1473    2.4396   -9.4806 N   0  3  0  0  0  0  0  0  0  0  0  0
   -6.3065   -0.0515  -10.4145 O   0  0  0  0  0  0  0  0  0  0  0  0
   -8.0962   -1.1189   -7.3863 O   0  0  0  0  0  0  0  0  0  0  0  0
   -7.1707   -3.6780   -8.7364 O   0  0  0  0  0  0  0  0  0  0  0  0
  -12.3052   -1.1188   -9.0025 C   0  0  2  0  0  0  0  0  0  0  0  0
  -13.3617   -2.2319   -8.9953 C   0  0  0  0  0  0  0  0  0  0  0  0
  -12.7422   -3.6165   -9.1640 C   0  0  1  0  0  0  0  0  0  0  0  0
  -11.7219   -3.8258   -8.0535 C   0  0  2  0  0  0  0  0  0  0  0  0
  -10.5886   -2.8078   -8.2041 C   0  0  1  0  0  0  0  0  0  0  0  0
  -11.1267   -1.3745   -8.0498 C   0  0  1  0  0  0  0  0  0  0  0  0
  -12.9290    0.2042   -8.6622 N   0  3  0  0  0  0  0  0  0  0  0  0
  -13.7958   -4.6832   -9.1474 N   0  3  0  0  0  0  0  0  0  0  0  0
   -9.5896   -3.0670   -7.2259 O   0  0  0  0  0  0  0  0  0  0  0  0
  -11.1917   -5.1630   -8.1014 O   0  0  0  0  0  0  0  0  0  0  0  0
  -10.0860   -0.4261   -8.3651 O   0  0  0  0  0  0  0  0  0  0  0  0
  -10.6384   -5.5869   -6.8862 C   0  0  2  0  0  0  0  0  0  0  0  0
  -10.7512   -7.1102   -6.7647 C   0  0  1  0  0  0  0  0  0  0  0  0
  -12.1889   -7.5315   -6.4598 C   0  0  0  0  0  0  0  0  0  0  0  0
  -12.6797   -6.7667   -5.2412 C   0  0  1  0  0  0  0  0  0  0  0  0
  -12.5888   -5.2760   -5.5172 C   0  0  1  0  0  0  0  0  0  0  0  0
  -13.0721   -4.4557   -4.3350 C   0  0  0  0  0  0  0  0  0  0  0  0
  -10.3110   -7.7467   -8.0472 N   0  3  0  0  0  0  0  0  0  0  0  0
  -12.0372   -4.5522   -3.2475 N   0  3  0  0  0  0  0  0  0  0  0  0
  -14.0215   -7.1238   -4.9412 O   0  0  0  0  0  0  0  0  0  0  0  0
  -11.2183   -4.9220   -5.7689 O   0  0  0  0  0  0  0  0  0  0  0  0
  1  2  1  0  0  0  0
  1 22  1  6  0  0  0
  1 10  1  0  0  0  0
  2  3  1  0  0  0  0
  2  7  1  6  0  0  0
  3  4  1  0  0  0  0
  3  8  1  1  0  0  0
  4  5  1  0  0  0  0
  4  9  1  6  0  0  0
  5  6  1  1  0  0  0
  5 10  1  0  0  0  0
  6 11  1  0  0  0  0
 12 13  1  0  0  0  0
 12 17  1  0  0  0  0
 12 18  1  1  0  0  0
 13 14  1  0  0  0  0
 14 15  1  0  0  0  0
 14 19  1  1  0  0  0
 15 16  1  0  0  0  0
 15 21  1  6  0  0  0
 16 17  1  0  0  0  0
 16 20  1  1  0  0  0
 17 22  1  6  0  0  0
 23 21  1  6  0  0  0
 23 24  1  0  0  0  0
 23 32  1  0  0  0  0
 24 25  1  0  0  0  0
 24 29  1  6  0  0  0
 25 26  1  0  0  0  0
 26 27  1  0  0  0  0
 26 31  1  6  0  0  0
 27 28  1  1  0  0  0
 27 32  1  0  0  0  0
 28 30  1  0  0  0  0
M  CHG  5   8   1  18   1  19   1  29   1  30   1
M  END
>  <CHROM.1>
-156.57810331,176.89749339,82.10862585,63.95456408,-155.17824675,-168.11315225
110.14937024,-67.23981984,-158.51431234,-41.91121775,158.64521967,151.54497571
175.34480135,62.39837136,72.37145494,-68.80264238,-10.40619808,-2.82963711
-7.63046507,1.00435378,0.22657852,-0.24321859

>  <Name>
2tob cryst

>  <RI>
2.9538e+07

>  <Rbt.Current_Directory>
/home/itssahil/PROJECTS/Mol_Feturizer/New_Systems/rnas/2tob

>  <Rbt.Executable>
rbdock ($Id: //depot/dev/client3/rdock/2013.1/src/exe/rbdock.cxx#4 $)

>  <Rbt.Library>
libRbt.so (2013.1, Build901 2013/11/27)

>  <Rbt.Parameter_File>
/export/apps/rDock/src/rDock_2013.1_src/data/scripts/dock_solv.prm

>  <Rbt.Receptor>
prm/pocket_docking_2.prm

>  <SCORE>
-58.0702

>  <SCORE.INTER>
-43.9934

>  <SCORE.INTER.CONST>
1

>  <SCORE.INTER.POLAR>
-6.1843

>  <SCORE.INTER.ROT>
6

>  <SCORE.INTER.SOLV>
35.0141

>  <SCORE.INTER.VDW>
-27.986

>  <SCORE.INTER.norm>
-1.37479

>  <SCORE.INTRA>
-16.4274

>  <SCORE.INTRA.DIHEDRAL>
0.964098

>  <SCORE.INTRA.DIHEDRAL.0>
18.4221

>  <SCORE.INTRA.POLAR>
0.839989

>  <SCORE.INTRA.POLAR.0>
-1.57101

>  <SCORE.INTRA.REPUL>
-0.730195

>  <SCORE.INTRA.REPUL.0>
0.730195

>  <SCORE.INTRA.SOLV>
-6.75118

>  <SCORE.INTRA.SOLV.lig_0>
-127.221

>  <SCORE.INTRA.VDW>
-12.7389

>  <SCORE.INTRA.VDW.0>
10.8385

>  <SCORE.INTRA.norm>
-0.513357

>  <SCORE.RESTR>
2.35063

>  <SCORE.RESTR.CAVITY>
2.35063

>  <SCORE.RESTR.norm>
0.0734573

>  <SCORE.SYSTEM>
0

>  <SCORE.SYSTEM.CONST>
0

>  <SCORE.SYSTEM.DIHEDRAL>
0

>  <SCORE.SYSTEM.SOLV>
0

>  <SCORE.SYSTEM.norm>
0

>  <SCORE.heavy>
32

>  <SCORE.norm>
-1.81469

>  <RMSD>
1.830

$$$$
2tob cryst
 OpenBabel11021811463D
libRbt.so/2013.1/901 2013/11/27
 32 34  0  0  0  0  0  0  0  0999 V2000
   -9.0096   -0.0916   -7.2338 C   0  0  2  0  0  0  0  0  0  0  0  0
   -8.4541    1.2962   -7.5379 C   0  0  1  0  0  0  0  0  0  0  0  0
   -7.6225    1.2276   -8.8190 C   0  0  2  0  0  0  0  0  0  0  0  0
   -6.5312    0.1549   -8.7053 C   0  0  1  0  0  0  0  0  0  0  0  0
   -7.1504   -1.1786   -8.2726 C   0  0  1  0  0  0  0  0  0  0  0  0
   -6.1384   -2.2764   -7.9883 C   0  0  0  0  0  0  0  0  0  0  0  0
   -9.5233    2.2234   -7.7046 O   0  0  0  0  0  0  0  0  0  0  0  0
   -6.9683    2.4902   -9.2876 N   0  3  0  0  0  0  0  0  0  0  0  0
   -5.8957    0.0062   -9.9688 O   0  0  0  0  0  0  0  0  0  0  0  0
   -7.9297   -0.9921   -7.0742 O   0  0  0  0  0  0  0  0  0  0  0  0
   -6.7225   -3.5628   -8.1667 O   0  0  0  0  0  0  0  0  0  0  0  0
  -12.0531   -1.1216   -9.0092 C   0  0  2  0  0  0  0  0  0  0  0  0
  -13.1457   -2.1991   -9.0195 C   0  0  0  0  0  0  0  0  0  0  0  0
  -12.5665   -3.6073   -9.1231 C   0  0  1  0  0  0  0  0  0  0  0  0
  -11.6035   -3.8181   -7.9628 C   0  0  2  0  0  0  0  0  0  0  0  0
  -10.4310   -2.8422   -8.0896 C   0  0  1  0  0  0  0  0  0  0  0  0
  -10.9268   -1.3883   -7.9981 C   0  0  1  0  0  0  0  0  0  0  0  0
  -12.6462    0.2301   -8.7327 N   0  3  0  0  0  0  0  0  0  0  0  0
  -13.6551   -4.6383   -9.1252 N   0  3  0  0  0  0  0  0  0  0  0  0
   -9.4852   -3.1059   -7.0611 O   0  0  0  0  0  0  0  0  0  0  0  0
  -11.1171   -5.1727   -7.9510 O   0  0  0  0  0  0  0  0  0  0  0  0
   -9.8419   -0.4836   -8.2917 O   0  0  0  0  0  0  0  0  0  0  0  0
  -10.5193   -5.5396   -6.7383 C   0  0  2  0  0  0  0  0  0  0  0  0
  -10.5932   -7.0596   -6.5591 C   0  0  1  0  0  0  0  0  0  0  0  0
  -12.0114   -7.5012   -6.1969 C   0  0  0  0  0  0  0  0  0  0  0  0
  -12.4845   -6.7035   -4.9924 C   0  0  1  0  0  0  0  0  0  0  0  0
  -12.4362   -5.2222   -5.3243 C   0  0  1  0  0  0  0  0  0  0  0  0
  -12.9042   -4.3703   -4.1584 C   0  0  0  0  0  0  0  0  0  0  0  0
  -10.1754   -7.7326   -7.8304 N   0  3  0  0  0  0  0  0  0  0  0  0
  -11.8673   -4.4581   -3.0721 N   0  3  0  0  0  0  0  0  0  0  0  0
  -13.8085   -7.0791   -4.6403 O   0  0  0  0  0  0  0  0  0  0  0  0
  -11.0821   -4.8474   -5.6289 O   0  0  0  0  0  0  0  0  0  0  0  0
  1  2  1  0  0  0  0
  1 22  1  6  0  0  0
  1 10  1  0  0  0  0
  2  3  1  0  0  0  0
  2  7  1  6  0  0  0
  3  4  1  0  0  0  0
  3  8  1  1  0  0  0
  4  5  1  0  0  0  0
  4  9  1  6  0  0  0
  5  6  1  1  0  0  0
  5 10  1  0  0  0  0
  6 11  1  0  0  0  0
 12 13  1  0  0  0  0
 12 17  1  0  0  0  0
 12 18  1  1  0  0  0
 13 14  1  0  0  0  0
 14 15  1  0  0  0  0
 14 19  1  1  0  0  0
 15 16  1  0  0  0  0
 15 21  1  6  0  0  0
 16 17  1  0  0  0  0
 16 20  1  1  0  0  0
 17 22  1  6  0  0  0
 23 21  1  6  0  0  0
 23 24  1  0  0  0  0
 23 32  1  0  0  0  0
 24 25  1  0  0  0  0
 24 29  1  6  0  0  0
 25 26  1  0  0  0  0
 26 27  1  0  0  0  0
 26 31  1  6  0  0  0
 27 28  1  1  0  0  0
 27 32  1  0  0  0  0
 28 30  1  0  0  0  0
M  CHG  5   8   1  18   1  19   1  29   1  30   1
M  END
>  <CHROM.1>
-151.39728783,43.32299920,-55.55708802,-55.44926585,-154.68367201,-58.04840416
116.01992488,62.95391054,-164.10916716,-48.43412503,151.48582363,155.14915264
60.27084361,176.83951302,69.65207780,164.93030885,-10.22186442,-2.78518364
-7.44067935,1.01135620,0.09021850,-0.32347320

>  <Name>
2tob cryst

>  <RI>
0

>  <Rbt.Current_Directory>
/home/itssahil/PROJECTS/Mol_Feturizer/New_Systems/rnas/2tob

>  <Rbt.Executable>
rbdock ($Id: //depot/dev/client3/rdock/2013.1/src/exe/rbdock.cxx#4 $)

>  <Rbt.Library>
libRbt.so (2013.1, Build901 2013/11/27)

>  <Rbt.Parameter_File>
/export/apps/rDock/src/rDock_2013.1_src/data/scripts/dock_solv.prm

>  <Rbt.Receptor>
prm/pocket_docking_5.prm

>  <SCORE>
-56.7565

>  <SCORE.INTER>
-36.6245

>  <SCORE.INTER.CONST>
1

>  <SCORE.INTER.POLAR>
-4.6045

>  <SCORE.INTER.ROT>
6

>  <SCORE.INTER.SOLV>
35.0907

>  <SCORE.INTER.VDW>
-28.3649

>  <SCORE.INTER.norm>
-1.14451

>  <SCORE.INTRA>
-20.132

>  <SCORE.INTRA.DIHEDRAL>
0.702178

>  <SCORE.INTRA.DIHEDRAL.0>
18.4221

>  <SCORE.INTRA.POLAR>
-0.0596428

>  <SCORE.INTRA.POLAR.0>
-1.57101

>  <SCORE.INTRA.REPUL>
-0.730195

>  <SCORE.INTRA.REPUL.0>
0.730195

>  <SCORE.INTRA.SOLV>
-7.40852

>  <SCORE.INTRA.SOLV.lig_0>
-127.221

>  <SCORE.INTRA.VDW>
-12.9251

>  <SCORE.INTRA.VDW.0>
10.8385

>  <SCORE.INTRA.norm>
-0.629125

>  <SCORE.RESTR>
0

>  <SCORE.RESTR.CAVITY>
0

>  <SCORE.RESTR.norm>
0

>  <SCORE.SYSTEM>
0

>  <SCORE.SYSTEM.CONST>
0

>  <SCORE.SYSTEM.DIHEDRAL>
0

>  <SCORE.SYSTEM.SOLV>
0

>  <SCORE.SYSTEM.norm>
0

>  <SCORE.heavy>
32

>  <SCORE.norm>
-1.77364

>  <RMSD>
1.834

$$$$
2tob cryst
 OpenBabel11021811463D
libRbt.so/2013.1/901 2013/11/27
 32 34  0  0  0  0  0  0  0  0999 V2000
   -9.4330    0.3333   -7.8110 C   0  0  2  0  0  0  0  0  0  0  0  0
   -8.7149    1.4320   -8.5884 C   0  0  1  0  0  0  0  0  0  0  0  0
   -7.6734    0.7906   -9.5058 C   0  0  2  0  0  0  0  0  0  0  0  0
   -6.7167   -0.1031   -8.7054 C   0  0  1  0  0  0  0  0  0  0  0  0
   -7.5159   -1.0950   -7.8532 C   0  0  1  0  0  0  0  0  0  0  0  0
   -6.6700   -1.9335   -6.9090 C   0  0  0  0  0  0  0  0  0  0  0  0
   -9.6529    2.1722   -9.3651 O   0  0  0  0  0  0  0  0  0  0  0  0
   -6.8395    1.7034  -10.3503 N   0  3  0  0  0  0  0  0  0  0  0  0
   -5.8774   -0.8091   -9.6106 O   0  0  0  0  0  0  0  0  0  0  0  0
   -8.4810   -0.3863   -7.0505 O   0  0  0  0  0  0  0  0  0  0  0  0
   -5.6345   -2.6062   -7.6183 O   0  0  0  0  0  0  0  0  0  0  0  0
  -12.3999   -1.1184   -9.0359 C   0  0  2  0  0  0  0  0  0  0  0  0
  -13.4967   -2.1701   -8.8211 C   0  0  0  0  0  0  0  0  0  0  0  0
  -12.9663   -3.5942   -8.9629 C   0  0  1  0  0  0  0  0  0  0  0  0
  -11.8267   -3.7842   -7.9713 C   0  0  2  0  0  0  0  0  0  0  0  0
  -10.6758   -2.8409   -8.3305 C   0  0  1  0  0  0  0  0  0  0  0  0
  -11.1252   -1.3736   -8.2163 C   0  0  1  0  0  0  0  0  0  0  0  0
  -12.9161    0.2558   -8.7192 N   0  3  0  0  0  0  0  0  0  0  0  0
  -14.0569   -4.5992   -8.7425 N   0  3  0  0  0  0  0  0  0  0  0  0
   -9.5760   -3.0882   -7.4637 O   0  0  0  0  0  0  0  0  0  0  0  0
  -11.3676   -5.1482   -7.9861 O   0  0  0  0  0  0  0  0  0  0  0  0
  -10.0897   -0.5055   -8.7224 O   0  0  0  0  0  0  0  0  0  0  0  0
  -10.6544   -5.5088   -6.8355 C   0  0  2  0  0  0  0  0  0  0  0  0
  -10.5228   -7.0336   -6.7596 C   0  0  1  0  0  0  0  0  0  0  0  0
  -11.8482   -7.6793   -6.3546 C   0  0  0  0  0  0  0  0  0  0  0  0
  -12.3440   -7.0275   -5.0739 C   0  0  1  0  0  0  0  0  0  0  0  0
  -12.5054   -5.5349   -5.3032 C   0  0  1  0  0  0  0  0  0  0  0  0
  -13.0055   -4.8264   -4.0573 C   0  0  0  0  0  0  0  0  0  0  0  0
  -10.1018   -7.5649   -8.0953 N   0  3  0  0  0  0  0  0  0  0  0  0
  -13.4987   -3.4644   -4.4628 N   0  3  0  0  0  0  0  0  0  0  0  0
  -13.5851   -7.5950   -4.6793 O   0  0  0  0  0  0  0  0  0  0  0  0
  -11.2315   -4.9673   -5.6521 O   0  0  0  0  0  0  0  0  0  0  0  0
  1  2  1  0  0  0  0
  1 22  1  6  0  0  0
  1 10  1  0  0  0  0
  2  3  1  0  0  0  0
  2  7  1  6  0  0  0
  3  4  1  0  0  0  0
  3  8  1  1  0  0  0
  4  5  1  0  0  0  0
  4  9  1  6  0  0  0
  5  6  1  1  0  0  0
  5 10  1  0  0  0  0
  6 11  1  0  0  0  0
 12 13  1  0  0  0  0
 12 17  1  0  0  0  0
 12 18  1  1  0  0  0
 13 14  1  0  0  0  0
 14 15  1  0  0  0  0
 14 19  1  1  0  0  0
 15 16  1  0  0  0  0
 15 21  1  6  0  0  0
 16 17  1  0  0  0  0
 16 20  1  1  0  0  0
 17 22  1  6  0  0  0
 23 21  1  6  0  0  0
 23 24  1  0  0  0  0
 23 32  1  0  0  0  0
 24 25  1  0  0  0  0
 24 29  1  6  0  0  0
 25 26  1  0  0  0  0
 26 27  1  0  0  0  0
 26 31  1  6  0  0  0
 27 28  1  1  0  0  0
 27 32  1  0  0  0  0
 28 30  1  0  0  0  0
M  CHG  5   8   1  18   1  19   1  29   1  30   1
M  END
>  <CHROM.1>
-162.86510945,-77.49471519,-64.56945345,79.43335294,-54.28280411,-56.98283309
-140.16114589,-57.64033153,-160.24118573,-62.80881685,125.78725425,165.31756929
178.56757222,63.68869467,-164.40754159,64.51170780,-10.39268408,-2.79151787
-7.62676349,0.99633186,0.04728099,-0.38477588

>  <Name>
2tob cryst

>  <RI>
0

>  <Rbt.Current_Directory>
/home/itssahil/PROJECTS/Mol_Feturizer/New_Systems/rnas/2tob

>  <Rbt.Executable>
rbdock ($Id: //depot/dev/client3/rdock/2013.1/src/exe/rbdock.cxx#4 $)

>  <Rbt.Library>
libRbt.so (2013.1, Build901 2013/11/27)

>  <Rbt.Parameter_File>
/export/apps/rDock/src/rDock_2013.1_src/data/scripts/dock_solv.prm

>  <Rbt.Receptor>
prm/pocket_docking_3.prm

>  <SCORE>
-52.1856

>  <SCORE.INTER>
-36.1797

>  <SCORE.INTER.CONST>
1

>  <SCORE.INTER.POLAR>
-5.43559

>  <SCORE.INTER.ROT>
6

>  <SCORE.INTER.SOLV>
34.4588

>  <SCORE.INTER.VDW>
-25.0875

>  <SCORE.INTER.norm>
-1.13062

>  <SCORE.INTRA>
-16.5132

>  <SCORE.INTRA.DIHEDRAL>
-0.116855

>  <SCORE.INTRA.DIHEDRAL.0>
18.4221

>  <SCORE.INTRA.POLAR>
1.56931

>  <SCORE.INTRA.POLAR.0>
-1.57101

>  <SCORE.INTRA.REPUL>
-0.730195

>  <SCORE.INTRA.REPUL.0>
0.730195

>  <SCORE.INTRA.SOLV>
-7.18035

>  <SCORE.INTRA.SOLV.lig_0>
-127.221

>  <SCORE.INTRA.VDW>
-14.5493

>  <SCORE.INTRA.VDW.0>
10.8385

>  <SCORE.INTRA.norm>
-0.516038

>  <SCORE.RESTR>
0.507381

>  <SCORE.RESTR.CAVITY>
0.507381

>  <SCORE.RESTR.norm>
0.0158556

>  <SCORE.SYSTEM>
0

>  <SCORE.SYSTEM.CONST>
0

>  <SCORE.SYSTEM.DIHEDRAL>
0

>  <SCORE.SYSTEM.SOLV>
0

>  <SCORE.SYSTEM.norm>
0

>  <SCORE.heavy>
32

>  <SCORE.norm>
-1.6308

>  <RMSD>
1.862

$$$$
2tob cryst
 OpenBabel11021811463D
libRbt.so/2013.1/901 2013/11/27
 32 34  0  0  0  0  0  0  0  0999 V2000
   -9.1816   -0.1057   -7.2825 C   0  0  2  0  0  0  0  0  0  0  0  0
   -8.6074    1.2821   -7.5496 C   0  0  1  0  0  0  0  0  0  0  0  0
   -7.9558    1.2912   -8.9328 C   0  0  2  0  0  0  0  0  0  0  0  0
   -6.9098    0.1748   -9.0514 C   0  0  1  0  0  0  0  0  0  0  0  0
   -7.5277   -1.1673   -8.6443 C   0  0  1  0  0  0  0  0  0  0  0  0
   -6.5389   -2.3201   -8.5857 C   0  0  0  0  0  0  0  0  0  0  0  0
   -9.6452    2.2573   -7.4977 O   0  0  0  0  0  0  0  0  0  0  0  0
   -7.3114    2.5646   -9.3855 N   0  3  0  0  0  0  0  0  0  0  0  0
   -6.4538    0.1097  -10.3968 O   0  0  0  0  0  0  0  0  0  0  0  0
   -8.1329   -1.0540   -7.3408 O   0  0  0  0  0  0  0  0  0  0  0  0
   -5.4962   -2.0468   -7.6552 O   0  0  0  0  0  0  0  0  0  0  0  0
  -12.3920   -1.0576   -8.8636 C   0  0  2  0  0  0  0  0  0  0  0  0
  -13.4723   -2.1461   -8.8051 C   0  0  0  0  0  0  0  0  0  0  0  0
  -12.8815   -3.5506   -8.8934 C   0  0  1  0  0  0  0  0  0  0  0  0
  -11.8742   -3.7207   -7.7646 C   0  0  2  0  0  0  0  0  0  0  0  0
  -10.7181   -2.7366   -7.9603 C   0  0  1  0  0  0  0  0  0  0  0  0
  -11.2264   -1.2860   -7.8884 C   0  0  1  0  0  0  0  0  0  0  0  0
  -12.9896    0.2948   -8.6006 N   0  3  0  0  0  0  0  0  0  0  0  0
  -13.9579   -4.5923   -8.8281 N   0  3  0  0  0  0  0  0  0  0  0  0
   -9.7321   -2.9633   -6.9610 O   0  0  0  0  0  0  0  0  0  0  0  0
  -11.3726   -5.0695   -7.7355 O   0  0  0  0  0  0  0  0  0  0  0  0
  -10.1632   -0.3783   -8.2457 O   0  0  0  0  0  0  0  0  0  0  0  0
  -10.6329   -5.3643   -6.5828 C   0  0  2  0  0  0  0  0  0  0  0  0
  -10.5692   -6.8814   -6.3776 C   0  0  1  0  0  0  0  0  0  0  0  0
  -11.9064   -7.4234   -5.8719 C   0  0  0  0  0  0  0  0  0  0  0  0
  -12.3217   -6.6399   -4.6372 C   0  0  1  0  0  0  0  0  0  0  0  0
  -12.4225   -5.1664   -4.9913 C   0  0  1  0  0  0  0  0  0  0  0  0
  -12.8408   -4.3293   -3.7962 C   0  0  0  0  0  0  0  0  0  0  0  0
  -10.2252   -7.5462   -7.6750 N   0  3  0  0  0  0  0  0  0  0  0  0
  -14.2970   -4.5950   -3.5286 N   0  3  0  0  0  0  0  0  0  0  0  0
  -13.5716   -7.1091   -4.1517 O   0  0  0  0  0  0  0  0  0  0  0  0
  -11.1381   -4.6948   -5.4325 O   0  0  0  0  0  0  0  0  0  0  0  0
  1  2  1  0  0  0  0
  1 22  1  6  0  0  0
  1 10  1  0  0  0  0
  2  3  1  0  0  0  0
  2  7  1  6  0  0  0
  3  4  1  0  0  0  0
  3  8  1  1  0  0  0
  4  5  1  0  0  0  0
  4  9  1  6  0  0  0
  5  6  1  1  0  0  0
  5 10  1  0  0  0  0
  6 11  1  0  0  0  0
 12 13  1  0  0  0  0
 12 17  1  0  0  0  0
 12 18  1  1  0  0  0
 13 14  1  0  0  0  0
 14 15  1  0  0  0  0
 14 19  1  1  0  0  0
 15 16  1  0  0  0  0
 15 21  1  6  0  0  0
 16 17  1  0  0  0  0
 16 20  1  1  0  0  0
 17 22  1  6  0  0  0
 23 21  1  6  0  0  0
 23 24  1  0  0  0  0
 23 32  1  0  0  0  0
 24 25  1  0  0  0  0
 24 29  1  6  0  0  0
 25 26  1  0  0  0  0
 26 27  1  0  0  0  0
 26 31  1  6  0  0  0
 27 28  1  1  0  0  0
 27 32  1  0  0  0  0
 28 30  1  0  0  0  0
M  CHG  5   8   1  18   1  19   1  29   1  30   1
M  END
>  <CHROM.1>
-152.58684189,-179.16546314,83.45990256,162.47590486,59.15919631,-167.60729935
-10.68409450,-178.20146165,-168.99731869,-44.98856949,160.77885284,159.79522290
-58.86334127,70.86142796,-72.68555627,-61.21599208,-10.44490559,-2.67547683
-7.37032841,0.98188525,0.16379119,-0.33504183

>  <Name>
2tob cryst

>  <RI>
0

>  <Rbt.Current_Directory>
/home/itssahil/PROJECTS/Mol_Feturizer/New_Systems/rnas/2tob

>  <Rbt.Executable>
rbdock ($Id: //depot/dev/client3/rdock/2013.1/src/exe/rbdock.cxx#4 $)

>  <Rbt.Library>
libRbt.so (2013.1, Build901 2013/11/27)

>  <Rbt.Parameter_File>
/export/apps/rDock/src/rDock_2013.1_src/data/scripts/dock_solv.prm

>  <Rbt.Receptor>
prm/pocket_docking_5.prm

>  <SCORE>
-64.1262

>  <SCORE.INTER>
-45.0826

>  <SCORE.INTER.CONST>
1

>  <SCORE.INTER.POLAR>
-6.79571

>  <SCORE.INTER.ROT>
6

>  <SCORE.INTER.SOLV>
35.4327

>  <SCORE.INTER.VDW>
-26.8136

>  <SCORE.INTER.norm>
-1.40883

>  <SCORE.INTRA>
-19.2584

>  <SCORE.INTRA.DIHEDRAL>
-2.30511

>  <SCORE.INTRA.DIHEDRAL.0>
18.4221

>  <SCORE.INTRA.POLAR>
0.339873

>  <SCORE.INTRA.POLAR.0>
-1.57101

>  <SCORE.INTRA.REPUL>
-0.729769

>  <SCORE.INTRA.REPUL.0>
0.730195

>  <SCORE.INTRA.SOLV>
-8.05042

>  <SCORE.INTRA.SOLV.lig_0>
-127.221

>  <SCORE.INTRA.VDW>
-11.5874

>  <SCORE.INTRA.VDW.0>
10.8385

>  <SCORE.INTRA.norm>
-0.601826

>  <SCORE.RESTR>
0.21483

>  <SCORE.RESTR.CAVITY>
0.21483

>  <SCORE.RESTR.norm>
0.00671343

>  <SCORE.SYSTEM>
0

>  <SCORE.SYSTEM.CONST>
0

>  <SCORE.SYSTEM.DIHEDRAL>
0

>  <SCORE.SYSTEM.SOLV>
0

>  <SCORE.SYSTEM.norm>
0

>  <SCORE.heavy>
32

>  <SCORE.norm>
-2.00394

>  <RMSD>
1.863

$$$$
2tob cryst
 OpenBabel11021811463D
libRbt.so/2013.1/901 2013/11/27
 32 34  0  0  0  0  0  0  0  0999 V2000
   -7.8631   -0.4618   -7.6907 C   0  0  2  0  0  0  0  0  0  0  0  0
   -8.2389    1.0166   -7.6809 C   0  0  1  0  0  0  0  0  0  0  0  0
   -8.0233    1.5923   -9.0808 C   0  0  2  0  0  0  0  0  0  0  0  0
   -6.5877    1.3403   -9.5601 C   0  0  1  0  0  0  0  0  0  0  0  0
   -6.2419   -0.1462   -9.4197 C   0  0  1  0  0  0  0  0  0  0  0  0
   -4.7931   -0.4845   -9.7305 C   0  0  0  0  0  0  0  0  0  0  0  0
   -9.6035    1.1701   -7.2999 O   0  0  0  0  0  0  0  0  0  0  0  0
   -8.3193    3.0459   -9.2841 N   0  3  0  0  0  0  0  0  0  0  0  0
   -6.4787    1.7361  -10.9216 O   0  0  0  0  0  0  0  0  0  0  0  0
   -6.5062   -0.5866   -8.0727 O   0  0  0  0  0  0  0  0  0  0  0  0
   -4.4911   -0.2143  -11.0957 O   0  0  0  0  0  0  0  0  0  0  0  0
  -11.0529   -1.2486   -9.1208 C   0  0  2  0  0  0  0  0  0  0  0  0
  -12.3956   -1.9543   -8.8876 C   0  0  0  0  0  0  0  0  0  0  0  0
  -12.2316   -3.4606   -8.7045 C   0  0  1  0  0  0  0  0  0  0  0  0
  -11.2789   -3.7031   -7.5419 C   0  0  2  0  0  0  0  0  0  0  0  0
   -9.8976   -3.1422   -7.8892 C   0  0  1  0  0  0  0  0  0  0  0  0
   -9.9700   -1.6189   -8.0951 C   0  0  1  0  0  0  0  0  0  0  0  0
  -11.2328    0.2423   -9.1228 N   0  3  0  0  0  0  0  0  0  0  0  0
  -13.5571   -4.1221   -8.4731 N   0  3  0  0  0  0  0  0  0  0  0  0
   -8.9856   -3.4553   -6.8441 O   0  0  0  0  0  0  0  0  0  0  0  0
  -11.1807   -5.1102   -7.2555 O   0  0  0  0  0  0  0  0  0  0  0  0
   -8.7045   -1.1328   -8.5893 O   0  0  0  0  0  0  0  0  0  0  0  0
  -10.4789   -5.3913   -6.0761 C   0  0  2  0  0  0  0  0  0  0  0  0
   -9.8997   -6.8085   -6.1388 C   0  0  1  0  0  0  0  0  0  0  0  0
  -10.9948   -7.8579   -5.9462 C   0  0  0  0  0  0  0  0  0  0  0  0
  -11.7571   -7.5473   -4.6682 C   0  0  1  0  0  0  0  0  0  0  0  0
  -12.3436   -6.1496   -4.7636 C   0  0  1  0  0  0  0  0  0  0  0  0
  -13.1244   -5.7821   -3.5149 C   0  0  0  0  0  0  0  0  0  0  0  0
   -9.2408   -7.0197   -7.4673 N   0  3  0  0  0  0  0  0  0  0  0  0
  -13.6338   -4.3764   -3.6815 N   0  3  0  0  0  0  0  0  0  0  0  0
  -12.7950   -8.4966   -4.4690 O   0  0  0  0  0  0  0  0  0  0  0  0
  -11.2780   -5.1964   -4.9141 O   0  0  0  0  0  0  0  0  0  0  0  0
  1  2  1  0  0  0  0
  1 22  1  6  0  0  0
  1 10  1  0  0  0  0
  2  3  1  0  0  0  0
  2  7  1  6  0  0  0
  3  4  1  0  0  0  0
  3  8  1  1  0  0  0
  4  5  1  0  0  0  0
  4  9  1  6  0  0  0
  5  6  1  1  0  0  0
  5 10  1  0  0  0  0
  6 11  1  0  0  0  0
 12 13  1  0  0  0  0
 12 17  1  0  0  0  0
 12 18  1  1  0  0  0
 13 14  1  0  0  0  0
 14 15  1  0  0  0  0
 14 19  1  1  0  0  0
 15 16  1  0  0  0  0
 15 21  1  6  0  0  0
 16 17  1  0  0  0  0
 16 20  1  1  0  0  0
 17 22  1  6  0  0  0
 23 21  1  6  0  0  0
 23 24  1  0  0  0  0
 23 32  1  0  0  0  0
 24 25  1  0  0  0  0
 24 29  1  6  0  0  0
 25 26  1  0  0  0  0
 26 27  1  0  0  0  0
 26 31  1  6  0  0  0
 27 28  1  1  0  0  0
 27 32  1  0  0  0  0
 28 30  1  0  0  0  0
M  CHG  5   8   1  18   1  19   1  29   1  30   1
M  END
>  <CHROM.1>
-87.14722108,178.06983945,14.13828844,-177.35520065,-64.18607815,-138.83377595
-169.72457907,-57.89923361,-171.08038259,-63.17136303,134.66956324,-155.73188124
-168.42701497,172.86247425,178.47573845,177.53255982,-9.78769041,-2.63649355
-7.57443718,-1.00595210,-0.29928115,2.80786714

>  <Name>
2tob cryst

>  <RI>
3.35201e+07

>  <Rbt.Current_Directory>
/home/itssahil/PROJECTS/Mol_Feturizer/New_Systems/rnas/2tob

>  <Rbt.Executable>
rbdock ($Id: //depot/dev/client3/rdock/2013.1/src/exe/rbdock.cxx#4 $)

>  <Rbt.Library>
libRbt.so (2013.1, Build901 2013/11/27)

>  <Rbt.Parameter_File>
/export/apps/rDock/src/rDock_2013.1_src/data/scripts/dock_solv.prm

>  <Rbt.Receptor>
prm/pocket_docking_4.prm

>  <SCORE>
-63.1168

>  <SCORE.INTER>
-48.3274

>  <SCORE.INTER.CONST>
1

>  <SCORE.INTER.POLAR>
-6.83868

>  <SCORE.INTER.ROT>
6

>  <SCORE.INTER.SOLV>
34.1426

>  <SCORE.INTER.VDW>
-28.4035

>  <SCORE.INTER.norm>
-1.51023

>  <SCORE.INTRA>
-14.7894

>  <SCORE.INTRA.DIHEDRAL>
3.54902

>  <SCORE.INTRA.DIHEDRAL.0>
18.4221

>  <SCORE.INTRA.POLAR>
0.703663

>  <SCORE.INTRA.POLAR.0>
-1.57101

>  <SCORE.INTRA.REPUL>
-0.730195

>  <SCORE.INTRA.REPUL.0>
0.730195

>  <SCORE.INTRA.SOLV>
-4.41918

>  <SCORE.INTRA.SOLV.lig_0>
-127.221

>  <SCORE.INTRA.VDW>
-13.0958

>  <SCORE.INTRA.VDW.0>
10.8385

>  <SCORE.INTRA.norm>
-0.462169

>  <SCORE.RESTR>
0

>  <SCORE.RESTR.CAVITY>
0

>  <SCORE.RESTR.norm>
0

>  <SCORE.SYSTEM>
0

>  <SCORE.SYSTEM.CONST>
0

>  <SCORE.SYSTEM.DIHEDRAL>
0

>  <SCORE.SYSTEM.SOLV>
0

>  <SCORE.SYSTEM.norm>
0

>  <SCORE.heavy>
32

>  <SCORE.norm>
-1.9724

>  <RMSD>
1.866

$$$$
2tob cryst
 OpenBabel11021811463D
libRbt.so/2013.1/901 2013/11/27
 32 34  0  0  0  0  0  0  0  0999 V2000
   -8.6781    0.3984   -7.7318 C   0  0  2  0  0  0  0  0  0  0  0  0
   -8.0188    1.6864   -8.2148 C   0  0  1  0  0  0  0  0  0  0  0  0
   -7.2554    1.3979   -9.5078 C   0  0  2  0  0  0  0  0  0  0  0  0
   -6.2572    0.2496   -9.3084 C   0  0  1  0  0  0  0  0  0  0  0  0
   -6.9695   -0.9643   -8.7017 C   0  0  1  0  0  0  0  0  0  0  0  0
   -6.0446   -2.1108   -8.3273 C   0  0  0  0  0  0  0  0  0  0  0  0
   -9.0101    2.6826   -8.4507 O   0  0  0  0  0  0  0  0  0  0  0  0
   -6.5162    2.5344  -10.1430 N   0  3  0  0  0  0  0  0  0  0  0  0
   -5.6952   -0.0982  -10.5675 O   0  0  0  0  0  0  0  0  0  0  0  0
   -7.6743   -0.5733   -7.5065 O   0  0  0  0  0  0  0  0  0  0  0  0
   -5.0347   -2.2906   -9.3150 O   0  0  0  0  0  0  0  0  0  0  0  0
  -11.8784   -0.6478   -9.1423 C   0  0  2  0  0  0  0  0  0  0  0  0
  -12.9659   -1.7262   -9.0448 C   0  0  0  0  0  0  0  0  0  0  0  0
  -12.4105   -3.1285   -9.2779 C   0  0  1  0  0  0  0  0  0  0  0  0
  -11.3003   -3.3805   -8.2669 C   0  0  2  0  0  0  0  0  0  0  0  0
  -10.1526   -2.3984   -8.5146 C   0  0  1  0  0  0  0  0  0  0  0  0
  -10.6268   -0.9499   -8.3031 C   0  0  1  0  0  0  0  0  0  0  0  0
  -12.4245    0.6916   -8.7383 N   0  3  0  0  0  0  0  0  0  0  0  0
  -13.4927   -4.1607   -9.1712 N   0  3  0  0  0  0  0  0  0  0  0  0
   -9.0774   -2.6984   -7.6337 O   0  0  0  0  0  0  0  0  0  0  0  0
  -10.8211   -4.7337   -8.3711 O   0  0  0  0  0  0  0  0  0  0  0  0
   -9.5886   -0.0328   -8.7069 O   0  0  0  0  0  0  0  0  0  0  0  0
  -11.6412   -5.6668   -7.7235 C   0  0  2  0  0  0  0  0  0  0  0  0
  -10.7802   -6.6620   -6.9386 C   0  0  1  0  0  0  0  0  0  0  0  0
  -10.0932   -7.6536   -7.8779 C   0  0  0  0  0  0  0  0  0  0  0  0
  -11.1428   -8.2981   -8.7690 C   0  0  1  0  0  0  0  0  0  0  0  0
  -11.8705   -7.2154   -9.5468 C   0  0  1  0  0  0  0  0  0  0  0  0
  -12.9314   -7.7989  -10.4623 C   0  0  0  0  0  0  0  0  0  0  0  0
   -9.7400   -5.9163   -6.1605 N   0  3  0  0  0  0  0  0  0  0  0  0
  -12.2348   -8.4526  -11.6243 N   0  3  0  0  0  0  0  0  0  0  0  0
  -10.5331   -9.2144   -9.6671 O   0  0  0  0  0  0  0  0  0  0  0  0
  -12.5238   -6.3260   -8.6253 O   0  0  0  0  0  0  0  0  0  0  0  0
  1  2  1  0  0  0  0
  1 22  1  6  0  0  0
  1 10  1  0  0  0  0
  2  3  1  0  0  0  0
  2  7  1  6  0  0  0
  3  4  1  0  0  0  0
  3  8  1  1  0  0  0
  4  5  1  0  0  0  0
  4  9  1  6  0  0  0
  5  6  1  1  0  0  0
  5 10  1  0  0  0  0
  6 11  1  0  0  0  0
 12 13  1  0  0  0  0
 12 17  1  0  0  0  0
 12 18  1  1  0  0  0
 13 14  1  0  0  0  0
 14 15  1  0  0  0  0
 14 19  1  1  0  0  0
 15 16  1  0  0  0  0
 15 21  1  6  0  0  0
 16 17  1  0  0  0  0
 16 20  1  1  0  0  0
 17 22  1  6  0  0  0
 23 21  1  6  0  0  0
 23 24  1  0  0  0  0
 23 32  1  0  0  0  0
 24 25  1  0  0  0  0
 24 29  1  6  0  0  0
 25 26  1  0  0  0  0
 26 27  1  0  0  0  0
 26 31  1  6  0  0  0
 27 28  1  6  0  0  0
 27 32  1  0  0  0  0
 28 30  1  0  0  0  0
M  CHG  5   8   1  18   1  19   1  29   1  30   1
M  END
>  <CHROM.1>
-159.94461908,-178.24200252,167.55110546,77.87064228,-40.14384953,161.22578379
-122.56223518,51.13198556,-80.01767037,70.82694685,146.85417000,-136.44378997
-51.11805593,-43.42081175,-73.53015517,-60.91251013,-9.82080146,-2.91413687
-8.78573706,1.09653640,0.00332305,0.01653957

>  <Name>
2tob cryst

>  <RI>
0

>  <Rbt.Current_Directory>
/home/itssahil/PROJECTS/Mol_Feturizer/New_Systems/rnas/2tob

>  <Rbt.Executable>
rbdock ($Id: //depot/dev/client3/rdock/2013.1/src/exe/rbdock.cxx#4 $)

>  <Rbt.Library>
libRbt.so (2013.1, Build901 2013/11/27)

>  <Rbt.Parameter_File>
/export/apps/rDock/src/rDock_2013.1_src/data/scripts/dock_solv.prm

>  <Rbt.Receptor>
prm/blind_docking_80.prm

>  <SCORE>
-59.2364

>  <SCORE.INTER>
-55.8834

>  <SCORE.INTER.CONST>
1

>  <SCORE.INTER.POLAR>
-7.27526

>  <SCORE.INTER.ROT>
6

>  <SCORE.INTER.SOLV>
37.3009

>  <SCORE.INTER.VDW>
-33.0384

>  <SCORE.INTER.norm>
-1.74635

>  <SCORE.INTRA>
-12.1327

>  <SCORE.INTRA.DIHEDRAL>
6.48727

>  <SCORE.INTRA.DIHEDRAL.0>
18.4221

>  <SCORE.INTRA.POLAR>
0.295094

>  <SCORE.INTRA.POLAR.0>
-1.57101

>  <SCORE.INTRA.REPUL>
-0.730195

>  <SCORE.INTRA.REPUL.0>
0.730195

>  <SCORE.INTRA.SOLV>
-1.75997

>  <SCORE.INTRA.SOLV.lig_0>
-127.221

>  <SCORE.INTRA.VDW>
-11.8486

>  <SCORE.INTRA.VDW.0>
10.8385

>  <SCORE.INTRA.norm>
-0.379145

>  <SCORE.RESTR>
8.77957

>  <SCORE.RESTR.CAVITY>
8.77957

>  <SCORE.RESTR.norm>
0.274361

>  <SCORE.SYSTEM>
0

>  <SCORE.SYSTEM.CONST>
0

>  <SCORE.SYSTEM.DIHEDRAL>
0

>  <SCORE.SYSTEM.SOLV>
0

>  <SCORE.SYSTEM.norm>
0

>  <SCORE.heavy>
32

>  <SCORE.norm>
-1.85114

>  <RMSD>
1.875

$$$$
2tob cryst
 OpenBabel11021811463D
libRbt.so/2013.1/901 2013/11/27
 32 34  0  0  0  0  0  0  0  0999 V2000
   -9.0613   -0.0351   -7.4714 C   0  0  2  0  0  0  0  0  0  0  0  0
   -8.5732    1.3650   -7.8299 C   0  0  1  0  0  0  0  0  0  0  0  0
   -7.8449    1.3074   -9.1730 C   0  0  2  0  0  0  0  0  0  0  0  0
   -6.7167    0.2679   -9.1387 C   0  0  1  0  0  0  0  0  0  0  0  0
   -7.2596   -1.0785   -8.6473 C   0  0  1  0  0  0  0  0  0  0  0  0
   -6.1961   -2.1436   -8.4364 C   0  0  0  0  0  0  0  0  0  0  0  0
   -9.6793    2.2592   -7.9178 O   0  0  0  0  0  0  0  0  0  0  0  0
   -7.2679    2.5835   -9.7025 N   0  3  0  0  0  0  0  0  0  0  0  0
   -6.1800    0.1247  -10.4478 O   0  0  0  0  0  0  0  0  0  0  0  0
   -7.9459   -0.9023   -7.3918 O   0  0  0  0  0  0  0  0  0  0  0  0
   -5.1208   -1.9750   -9.3547 O   0  0  0  0  0  0  0  0  0  0  0  0
  -12.2207   -1.1162   -8.9922 C   0  0  2  0  0  0  0  0  0  0  0  0
  -13.3106   -2.1920   -8.8927 C   0  0  0  0  0  0  0  0  0  0  0  0
  -12.7397   -3.6034   -8.9991 C   0  0  1  0  0  0  0  0  0  0  0  0
  -11.6944   -3.7833   -7.9068 C   0  0  2  0  0  0  0  0  0  0  0  0
  -10.5349   -2.8130   -8.1460 C   0  0  1  0  0  0  0  0  0  0  0  0
  -11.0235   -1.3564   -8.0590 C   0  0  1  0  0  0  0  0  0  0  0  0
  -12.7929    0.2434   -8.7108 N   0  3  0  0  0  0  0  0  0  0  0  0
  -13.8250   -4.6325   -8.8930 N   0  3  0  0  0  0  0  0  0  0  0  0
   -9.5163   -3.0494   -7.1823 O   0  0  0  0  0  0  0  0  0  0  0  0
  -11.2076   -5.1377   -7.8929 O   0  0  0  0  0  0  0  0  0  0  0  0
   -9.9635   -0.4618   -8.4561 O   0  0  0  0  0  0  0  0  0  0  0  0
  -10.4875   -5.4593   -6.7351 C   0  0  2  0  0  0  0  0  0  0  0  0
  -10.4669   -6.9788   -6.5386 C   0  0  1  0  0  0  0  0  0  0  0  0
  -11.8231   -7.4873   -6.0492 C   0  0  0  0  0  0  0  0  0  0  0  0
  -12.2291   -6.7002   -4.8137 C   0  0  1  0  0  0  0  0  0  0  0  0
  -12.2866   -5.2224   -5.1596 C   0  0  1  0  0  0  0  0  0  0  0  0
  -12.6937   -4.3813   -3.9634 C   0  0  0  0  0  0  0  0  0  0  0  0
  -10.1283   -7.6450   -7.8367 N   0  3  0  0  0  0  0  0  0  0  0  0
  -12.9735   -2.9855   -4.4495 N   0  3  0  0  0  0  0  0  0  0  0  0
  -13.4959   -7.1381   -4.3431 O   0  0  0  0  0  0  0  0  0  0  0  0
  -10.9857   -4.7832   -5.5855 O   0  0  0  0  0  0  0  0  0  0  0  0
  1  2  1  0  0  0  0
  1 22  1  6  0  0  0
  1 10  1  0  0  0  0
  2  3  1  0  0  0  0
  2  7  1  6  0  0  0
  3  4  1  0  0  0  0
  3  8  1  1  0  0  0
  4  5  1  0  0  0  0
  4  9  1  6  0  0  0
  5  6  1  1  0  0  0
  5 10  1  0  0  0  0
  6 11  1  0  0  0  0
 12 13  1  0  0  0  0
 12 17  1  0  0  0  0
 12 18  1  1  0  0  0
 13 14  1  0  0  0  0
 14 15  1  0  0  0  0
 14 19  1  1  0  0  0
 15 16  1  0  0  0  0
 15 21  1  6  0  0  0
 16 17  1  0  0  0  0
 16 20  1  1  0  0  0
 17 22  1  6  0  0  0
 23 21  1  6  0  0  0
 23 24  1  0  0  0  0
 23 32  1  0  0  0  0
 24 25  1  0  0  0  0
 24 29  1  6  0  0  0
 25 26  1  0  0  0  0
 26 27  1  0  0  0  0
 26 31  1  6  0  0  0
 27 28  1  1  0  0  0
 27 32  1  0  0  0  0
 28 30  1  0  0  0  0
M  CHG  5   8   1  18   1  19   1  29   1  30   1
M  END
>  <CHROM.1>
-149.18905726,175.09191562,-31.47581153,70.00571206,-31.63017542,162.05117769
-132.27498167,-62.59093084,-165.94798044,-46.89850609,151.09322697,158.66132990
-53.05931200,61.55495666,-169.61331880,66.13757509,-10.24381637,-2.62930174
-7.60894880,0.98197344,0.22869246,-0.28359967

>  <Name>
2tob cryst

>  <RI>
2.9538e+07

>  <Rbt.Current_Directory>
/home/itssahil/PROJECTS/Mol_Feturizer/New_Systems/rnas/2tob

>  <Rbt.Executable>
rbdock ($Id: //depot/dev/client3/rdock/2013.1/src/exe/rbdock.cxx#4 $)

>  <Rbt.Library>
libRbt.so (2013.1, Build901 2013/11/27)

>  <Rbt.Parameter_File>
/export/apps/rDock/src/rDock_2013.1_src/data/scripts/dock_solv.prm

>  <Rbt.Receptor>
prm/pocket_docking_2.prm

>  <SCORE>
-66.9249

>  <SCORE.INTER>
-54.579

>  <SCORE.INTER.CONST>
1

>  <SCORE.INTER.POLAR>
-7.44216

>  <SCORE.INTER.ROT>
6

>  <SCORE.INTER.SOLV>
34.4182

>  <SCORE.INTER.VDW>
-30.6516

>  <SCORE.INTER.norm>
-1.70559

>  <SCORE.INTRA>
-14.9577

>  <SCORE.INTRA.DIHEDRAL>
2.53531

>  <SCORE.INTRA.DIHEDRAL.0>
18.4221

>  <SCORE.INTRA.POLAR>
1.03682

>  <SCORE.INTRA.POLAR.0>
-1.57101

>  <SCORE.INTRA.REPUL>
-0.70137

>  <SCORE.INTRA.REPUL.0>
0.730195

>  <SCORE.INTRA.SOLV>
-7.16017

>  <SCORE.INTRA.SOLV.lig_0>
-127.221

>  <SCORE.INTRA.VDW>
-12.6636

>  <SCORE.INTRA.VDW.0>
10.8385

>  <SCORE.INTRA.norm>
-0.467427

>  <SCORE.RESTR>
2.61173

>  <SCORE.RESTR.CAVITY>
2.61173

>  <SCORE.RESTR.norm>
0.0816165

>  <SCORE.SYSTEM>
0

>  <SCORE.SYSTEM.CONST>
0

>  <SCORE.SYSTEM.DIHEDRAL>
0

>  <SCORE.SYSTEM.SOLV>
0

>  <SCORE.SYSTEM.norm>
0

>  <SCORE.heavy>
32

>  <SCORE.norm>
-2.0914

>  <RMSD>
1.880

$$$$
2tob cryst
 OpenBabel11021811463D
libRbt.so/2013.1/901 2013/11/27
 32 34  0  0  0  0  0  0  0  0999 V2000
   -7.8730   -1.1183   -8.0531 C   0  0  2  0  0  0  0  0  0  0  0  0
   -8.1246   -0.0396   -7.0042 C   0  0  1  0  0  0  0  0  0  0  0  0
   -8.3275    1.3011   -7.7106 C   0  0  2  0  0  0  0  0  0  0  0  0
   -7.1400    1.6204   -8.6283 C   0  0  1  0  0  0  0  0  0  0  0  0
   -6.8695    0.4383   -9.5655 C   0  0  1  0  0  0  0  0  0  0  0  0
   -5.6218    0.5891  -10.4202 C   0  0  0  0  0  0  0  0  0  0  0  0
   -9.2830   -0.3636   -6.2400 O   0  0  0  0  0  0  0  0  0  0  0  0
   -8.5731    2.5042   -6.8538 N   0  3  0  0  0  0  0  0  0  0  0  0
   -7.4437    2.7823   -9.3900 O   0  0  0  0  0  0  0  0  0  0  0  0
   -6.7204   -0.7727   -8.7978 O   0  0  0  0  0  0  0  0  0  0  0  0
   -4.4962   -0.0072   -9.7835 O   0  0  0  0  0  0  0  0  0  0  0  0
  -11.3886   -1.2481   -9.2078 C   0  0  2  0  0  0  0  0  0  0  0  0
  -12.7246   -1.9306   -8.8849 C   0  0  0  0  0  0  0  0  0  0  0  0
  -12.5867   -3.4466   -8.7758 C   0  0  1  0  0  0  0  0  0  0  0  0
  -11.5433   -3.7596   -7.7122 C   0  0  2  0  0  0  0  0  0  0  0  0
  -10.1826   -3.2180   -8.1578 C   0  0  1  0  0  0  0  0  0  0  0  0
  -10.2309   -1.6862   -8.2969 C   0  0  1  0  0  0  0  0  0  0  0  0
  -11.5269    0.2455   -9.1358 N   0  3  0  0  0  0  0  0  0  0  0  0
  -13.9046   -4.0853   -8.4544 N   0  3  0  0  0  0  0  0  0  0  0  0
   -9.1919   -3.5957   -7.2103 O   0  0  0  0  0  0  0  0  0  0  0  0
  -11.4591   -5.1793   -7.4907 O   0  0  0  0  0  0  0  0  0  0  0  0
   -9.0005   -1.2105   -8.8814 O   0  0  0  0  0  0  0  0  0  0  0  0
  -10.8814   -5.5181   -6.2603 C   0  0  2  0  0  0  0  0  0  0  0  0
   -9.7640   -6.5448   -6.4736 C   0  0  1  0  0  0  0  0  0  0  0  0
  -10.3403   -7.9265   -6.7839 C   0  0  0  0  0  0  0  0  0  0  0  0
  -11.3376   -8.3006   -5.6994 C   0  0  1  0  0  0  0  0  0  0  0  0
  -12.4307   -7.2478   -5.6415 C   0  0  1  0  0  0  0  0  0  0  0  0
  -13.4642   -7.5695   -4.5773 C   0  0  0  0  0  0  0  0  0  0  0  0
   -8.8935   -6.1055   -7.6107 N   0  3  0  0  0  0  0  0  0  0  0  0
  -14.5245   -6.5033   -4.6208 N   0  3  0  0  0  0  0  0  0  0  0  0
  -11.9049   -9.5749   -5.9682 O   0  0  0  0  0  0  0  0  0  0  0  0
  -11.8471   -5.9741   -5.3189 O   0  0  0  0  0  0  0  0  0  0  0  0
  1  2  1  0  0  0  0
  1 22  1  6  0  0  0
  1 10  1  0  0  0  0
  2  3  1  0  0  0  0
  2  7  1  6  0  0  0
  3  4  1  0  0  0  0
  3  8  1  1  0  0  0
  4  5  1  0  0  0  0
  4  9  1  6  0  0  0
  5  6  1  1  0  0  0
  5 10  1  0  0  0  0
  6 11  1  0  0  0  0
 12 13  1  0  0  0  0
 12 17  1  0  0  0  0
 12 18  1  1  0  0  0
 13 14  1  0  0  0  0
 14 15  1  0  0  0  0
 14 19  1  1  0  0  0
 15 16  1  0  0  0  0
 15 21  1  6  0  0  0
 16 17  1  0  0  0  0
 16 20  1  1  0  0  0
 17 22  1  6  0  0  0
 23 21  1  6  0  0  0
 23 24  1  0  0  0  0
 23 32  1  0  0  0  0
 24 25  1  0  0  0  0
 24 29  1  6  0  0  0
 25 26  1  0  0  0  0
 26 27  1  0  0  0  0
 26 31  1  6  0  0  0
 27 28  1  1  0  0  0
 27 32  1  0  0  0  0
 28 30  1  0  0  0  0
M  CHG  5   8   1  18   1  19   1  29   1  30   1
M  END
>  <CHROM.1>
-66.34380872,178.89201752,57.76197527,-56.95232264,92.84925753,-179.02552413
177.17759950,-63.16785971,-159.82268256,-63.55594989,160.58732829,-129.32024833
43.85165211,43.09527561,-178.24300237,-166.93282211,-9.98764742,-2.89626736
-7.60565782,-1.04963484,-0.13695852,2.88495129

>  <Name>
2tob cryst

>  <RI>
2.9538e+07

>  <Rbt.Current_Directory>
/home/itssahil/PROJECTS/Mol_Feturizer/New_Systems/rnas/2tob

>  <Rbt.Executable>
rbdock ($Id: //depot/dev/client3/rdock/2013.1/src/exe/rbdock.cxx#4 $)

>  <Rbt.Library>
libRbt.so (2013.1, Build901 2013/11/27)

>  <Rbt.Parameter_File>
/export/apps/rDock/src/rDock_2013.1_src/data/scripts/dock_solv.prm

>  <Rbt.Receptor>
prm/pocket_docking_2.prm

>  <SCORE>
-53.4488

>  <SCORE.INTER>
-35.1029

>  <SCORE.INTER.CONST>
1

>  <SCORE.INTER.POLAR>
-4.87742

>  <SCORE.INTER.ROT>
6

>  <SCORE.INTER.SOLV>
36.0673

>  <SCORE.INTER.VDW>
-26.7663

>  <SCORE.INTER.norm>
-1.09697

>  <SCORE.INTRA>
-18.6963

>  <SCORE.INTRA.DIHEDRAL>
-2.29494

>  <SCORE.INTRA.DIHEDRAL.0>
18.4221

>  <SCORE.INTRA.POLAR>
0.415657

>  <SCORE.INTRA.POLAR.0>
-1.57101

>  <SCORE.INTRA.REPUL>
-0.730195

>  <SCORE.INTRA.REPUL.0>
0.730195

>  <SCORE.INTRA.SOLV>
-4.64778

>  <SCORE.INTRA.SOLV.lig_0>
-127.221

>  <SCORE.INTRA.VDW>
-12.9872

>  <SCORE.INTRA.VDW.0>
10.8385

>  <SCORE.INTRA.norm>
-0.584259

>  <SCORE.RESTR>
0.350417

>  <SCORE.RESTR.CAVITY>
0.350417

>  <SCORE.RESTR.norm>
0.0109505

>  <SCORE.SYSTEM>
0

>  <SCORE.SYSTEM.CONST>
0

>  <SCORE.SYSTEM.DIHEDRAL>
0

>  <SCORE.SYSTEM.SOLV>
0

>  <SCORE.SYSTEM.norm>
0

>  <SCORE.heavy>
32

>  <SCORE.norm>
-1.67027

>  <RMSD>
1.897

$$$$
2tob cryst
 OpenBabel11021811463D
libRbt.so/2013.1/901 2013/11/27
 32 34  0  0  0  0  0  0  0  0999 V2000
   -9.2068   -0.5789   -6.7739 C   0  0  2  0  0  0  0  0  0  0  0  0
   -8.5357    0.7890   -6.8469 C   0  0  1  0  0  0  0  0  0  0  0  0
   -7.8720    0.9433   -8.2156 C   0  0  2  0  0  0  0  0  0  0  0  0
   -6.9045   -0.2163   -8.4876 C   0  0  1  0  0  0  0  0  0  0  0  0
   -7.6174   -1.5554   -8.2698 C   0  0  1  0  0  0  0  0  0  0  0  0
   -6.7112   -2.7713   -8.3713 C   0  0  0  0  0  0  0  0  0  0  0  0
   -9.5041    1.8176   -6.6605 O   0  0  0  0  0  0  0  0  0  0  0  0
   -7.1370    2.2189   -8.4882 N   0  3  0  0  0  0  0  0  0  0  0  0
   -6.4415   -0.1270   -9.8292 O   0  0  0  0  0  0  0  0  0  0  0  0
   -8.2256   -1.5809   -6.9630 O   0  0  0  0  0  0  0  0  0  0  0  0
   -7.4734   -3.9552   -8.5840 O   0  0  0  0  0  0  0  0  0  0  0  0
  -12.2684   -1.3976   -8.7411 C   0  0  2  0  0  0  0  0  0  0  0  0
  -13.3451   -2.4894   -8.8027 C   0  0  0  0  0  0  0  0  0  0  0  0
  -12.7551   -3.8900   -8.6628 C   0  0  1  0  0  0  0  0  0  0  0  0
  -11.9833   -3.9584   -7.3522 C   0  0  2  0  0  0  0  0  0  0  0  0
  -10.8065   -2.9808   -7.4020 C   0  0  1  0  0  0  0  0  0  0  0  0
  -11.3121   -1.5346   -7.5459 C   0  0  1  0  0  0  0  0  0  0  0  0
  -12.8987   -0.0349   -8.7073 N   0  3  0  0  0  0  0  0  0  0  0  0
  -13.8292   -4.9347   -8.7207 N   0  3  0  0  0  0  0  0  0  0  0  0
  -10.0311   -3.1162   -6.2177 O   0  0  0  0  0  0  0  0  0  0  0  0
  -11.5031   -5.2950   -7.1190 O   0  0  0  0  0  0  0  0  0  0  0  0
  -10.1958   -0.6471   -7.7653 O   0  0  0  0  0  0  0  0  0  0  0  0
  -11.3130   -5.5903   -5.7628 C   0  0  2  0  0  0  0  0  0  0  0  0
  -10.6484   -6.9631   -5.6159 C   0  0  1  0  0  0  0  0  0  0  0  0
  -11.6433   -8.0880   -5.9030 C   0  0  0  0  0  0  0  0  0  0  0  0
  -12.8755   -7.8910   -5.0348 C   0  0  1  0  0  0  0  0  0  0  0  0
  -13.4819   -6.5301   -5.3298 C   0  0  1  0  0  0  0  0  0  0  0  0
  -14.7237   -6.2760   -4.4947 C   0  0  0  0  0  0  0  0  0  0  0  0
   -9.4981   -7.0651   -6.5699 N   0  3  0  0  0  0  0  0  0  0  0  0
  -15.4192   -5.0641   -5.0519 N   0  3  0  0  0  0  0  0  0  0  0  0
  -13.8286   -8.9128   -5.2907 O   0  0  0  0  0  0  0  0  0  0  0  0
  -12.5232   -5.5051   -5.0180 O   0  0  0  0  0  0  0  0  0  0  0  0
  1  2  1  0  0  0  0
  1 22  1  6  0  0  0
  1 10  1  0  0  0  0
  2  3  1  0  0  0  0
  2  7  1  6  0  0  0
  3  4  1  0  0  0  0
  3  8  1  1  0  0  0
  4  5  1  0  0  0  0
  4  9  1  6  0  0  0
  5  6  1  1  0  0  0
  5 10  1  0  0  0  0
  6 11  1  0  0  0  0
 12 13  1  0  0  0  0
 12 17  1  0  0  0  0
 12 18  1  1  0  0  0
 13 14  1  0  0  0  0
 14 15  1  0  0  0  0
 14 19  1  1  0  0  0
 15 16  1  0  0  0  0
 15 21  1  6  0  0  0
 16 17  1  0  0  0  0
 16 20  1  1  0  0  0
 17 22  1  6  0  0  0
 23 21  1  6  0  0  0
 23 24  1  0  0  0  0
 23 32  1  0  0  0  0
 24 25  1  0  0  0  0
 24 29  1  6  0  0  0
 25 26  1  0  0  0  0
 26 27  1  0  0  0  0
 26 31  1  6  0  0  0
 27 28  1  1  0  0  0
 27 32  1  0  0  0  0
 28 30  1  0  0  0  0
M  CHG  5   8   1  18   1  19   1  29   1  30   1
M  END
>  <CHROM.1>
-153.52339655,-29.54725821,55.28371958,-56.43602686,-161.50199483,179.02659074
113.79826931,-66.07947265,-153.98262606,154.63642584,178.26957356,-173.34054857
-162.64289845,62.30028149,-167.92943479,65.81465398,-10.70109724,-3.21320957
-7.15812340,0.96759851,0.10581425,-0.26760820

>  <Name>
2tob cryst

>  <RI>
0

>  <Rbt.Current_Directory>
/home/itssahil/PROJECTS/Mol_Feturizer/New_Systems/rnas/2tob

>  <Rbt.Executable>
rbdock ($Id: //depot/dev/client3/rdock/2013.1/src/exe/rbdock.cxx#4 $)

>  <Rbt.Library>
libRbt.so (2013.1, Build901 2013/11/27)

>  <Rbt.Parameter_File>
/export/apps/rDock/src/rDock_2013.1_src/data/scripts/dock_solv.prm

>  <Rbt.Receptor>
prm/pocket_docking_6.prm

>  <SCORE>
-56.5881

>  <SCORE.INTER>
-38.6021

>  <SCORE.INTER.CONST>
1

>  <SCORE.INTER.POLAR>
-5.17167

>  <SCORE.INTER.ROT>
6

>  <SCORE.INTER.SOLV>
32.0736

>  <SCORE.INTER.VDW>
-26.787

>  <SCORE.INTER.norm>
-1.20632

>  <SCORE.INTRA>
-17.986

>  <SCORE.INTRA.DIHEDRAL>
0.314848

>  <SCORE.INTRA.DIHEDRAL.0>
18.4221

>  <SCORE.INTRA.POLAR>
0.524644

>  <SCORE.INTRA.POLAR.0>
-1.57101

>  <SCORE.INTRA.REPUL>
-0.705649

>  <SCORE.INTRA.REPUL.0>
0.730195

>  <SCORE.INTRA.SOLV>
-7.71777

>  <SCORE.INTRA.SOLV.lig_0>
-127.221

>  <SCORE.INTRA.VDW>
-12.54

>  <SCORE.INTRA.VDW.0>
10.8385

>  <SCORE.INTRA.norm>
-0.562061

>  <SCORE.RESTR>
0

>  <SCORE.RESTR.CAVITY>
0

>  <SCORE.RESTR.norm>
0

>  <SCORE.SYSTEM>
0

>  <SCORE.SYSTEM.CONST>
0

>  <SCORE.SYSTEM.DIHEDRAL>
0

>  <SCORE.SYSTEM.SOLV>
0

>  <SCORE.SYSTEM.norm>
0

>  <SCORE.heavy>
32

>  <SCORE.norm>
-1.76838

>  <RMSD>
1.914

$$$$
2tob cryst
 OpenBabel11021811463D
libRbt.so/2013.1/901 2013/11/27
 32 34  0  0  0  0  0  0  0  0999 V2000
   -9.1224   -0.1103   -7.5059 C   0  0  2  0  0  0  0  0  0  0  0  0
   -8.7122    1.3047   -7.9018 C   0  0  1  0  0  0  0  0  0  0  0  0
   -7.9553    1.2484   -9.2290 C   0  0  2  0  0  0  0  0  0  0  0  0
   -6.7676    0.2809   -9.1401 C   0  0  1  0  0  0  0  0  0  0  0  0
   -7.2383   -1.0795   -8.6142 C   0  0  1  0  0  0  0  0  0  0  0  0
   -6.1171   -2.0708   -8.3491 C   0  0  0  0  0  0  0  0  0  0  0  0
   -9.8681    2.1268   -8.0390 O   0  0  0  0  0  0  0  0  0  0  0  0
   -7.4455    2.5396   -9.7900 N   0  3  0  0  0  0  0  0  0  0  0  0
   -6.1974    0.1287  -10.4340 O   0  0  0  0  0  0  0  0  0  0  0  0
   -7.9587   -0.9053   -7.3777 O   0  0  0  0  0  0  0  0  0  0  0  0
   -5.1092   -1.9757   -9.3505 O   0  0  0  0  0  0  0  0  0  0  0  0
  -12.2260   -1.3074   -9.0266 C   0  0  2  0  0  0  0  0  0  0  0  0
  -13.3114   -2.3849   -8.8996 C   0  0  0  0  0  0  0  0  0  0  0  0
  -12.7323   -3.7960   -8.9501 C   0  0  1  0  0  0  0  0  0  0  0  0
  -11.6972   -3.9314   -7.8418 C   0  0  2  0  0  0  0  0  0  0  0  0
  -10.5402   -2.9639   -8.1040 C   0  0  1  0  0  0  0  0  0  0  0  0
  -11.0370   -1.5078   -8.0737 C   0  0  1  0  0  0  0  0  0  0  0  0
  -12.8078    0.0583   -8.7995 N   0  3  0  0  0  0  0  0  0  0  0  0
  -13.8134   -4.8266   -8.8181 N   0  3  0  0  0  0  0  0  0  0  0  0
   -9.5302   -3.1604   -7.1225 O   0  0  0  0  0  0  0  0  0  0  0  0
  -11.2038   -5.2818   -7.7749 O   0  0  0  0  0  0  0  0  0  0  0  0
   -9.9776   -0.6222   -8.4920 O   0  0  0  0  0  0  0  0  0  0  0  0
  -10.4394   -5.5397   -6.6296 C   0  0  2  0  0  0  0  0  0  0  0  0
  -10.3818   -7.0487   -6.3697 C   0  0  1  0  0  0  0  0  0  0  0  0
  -11.7106   -7.5609   -5.8134 C   0  0  0  0  0  0  0  0  0  0  0  0
  -12.0912   -6.7291   -4.5993 C   0  0  1  0  0  0  0  0  0  0  0  0
  -12.1898   -5.2689   -5.0054 C   0  0  1  0  0  0  0  0  0  0  0  0
  -12.5738   -4.3849   -3.8328 C   0  0  0  0  0  0  0  0  0  0  0  0
  -10.0730   -7.7637   -7.6492 N   0  3  0  0  0  0  0  0  0  0  0  0
  -11.4307   -4.3864   -2.8549 N   0  3  0  0  0  0  0  0  0  0  0  0
  -13.3327   -7.1699   -4.0679 O   0  0  0  0  0  0  0  0  0  0  0  0
  -10.9127   -4.8242   -5.4935 O   0  0  0  0  0  0  0  0  0  0  0  0
  1  2  1  0  0  0  0
  1 22  1  6  0  0  0
  1 10  1  0  0  0  0
  2  3  1  0  0  0  0
  2  7  1  6  0  0  0
  3  4  1  0  0  0  0
  3  8  1  1  0  0  0
  4  5  1  0  0  0  0
  4  9  1  6  0  0  0
  5  6  1  1  0  0  0
  5 10  1  0  0  0  0
  6 11  1  0  0  0  0
 12 13  1  0  0  0  0
 12 17  1  0  0  0  0
 12 18  1  1  0  0  0
 13 14  1  0  0  0  0
 14 15  1  0  0  0  0
 14 19  1  1  0  0  0
 15 16  1  0  0  0  0
 15 21  1  6  0  0  0
 16 17  1  0  0  0  0
 16 20  1  1  0  0  0
 17 22  1  6  0  0  0
 23 21  1  6  0  0  0
 23 24  1  0  0  0  0
 23 32  1  0  0  0  0
 24 25  1  0  0  0  0
 24 29  1  6  0  0  0
 25 26  1  0  0  0  0
 26 27  1  0  0  0  0
 26 31  1  6  0  0  0
 27 28  1  1  0  0  0
 27 32  1  0  0  0  0
 28 30  1  0  0  0  0
M  CHG  5   8   1  18   1  19   1  29   1  30   1
M  END
>  <CHROM.1>
-145.77197281,49.03705643,78.68365915,174.71357821,-38.67234099,164.15807513
106.47899751,53.12432599,-168.83891265,-51.69901046,148.41058715,159.74624907
178.41682366,62.59108785,67.47209199,64.04952404,-10.18244622,-2.76767250
-7.49859531,1.04355219,0.11779464,-0.40775182

>  <Name>
2tob cryst

>  <RI>
0

>  <Rbt.Current_Directory>
/home/itssahil/PROJECTS/Mol_Feturizer/New_Systems/rnas/2tob

>  <Rbt.Executable>
rbdock ($Id: //depot/dev/client3/rdock/2013.1/src/exe/rbdock.cxx#4 $)

>  <Rbt.Library>
libRbt.so (2013.1, Build901 2013/11/27)

>  <Rbt.Parameter_File>
/export/apps/rDock/src/rDock_2013.1_src/data/scripts/dock_solv.prm

>  <Rbt.Receptor>
prm/pocket_docking_6.prm

>  <SCORE>
-73.8015

>  <SCORE.INTER>
-56.5394

>  <SCORE.INTER.CONST>
1

>  <SCORE.INTER.POLAR>
-8.13125

>  <SCORE.INTER.ROT>
6

>  <SCORE.INTER.SOLV>
33.3913

>  <SCORE.INTER.VDW>
-29.3192

>  <SCORE.INTER.norm>
-1.76686

>  <SCORE.INTRA>
-17.2621

>  <SCORE.INTRA.DIHEDRAL>
0.429263

>  <SCORE.INTRA.DIHEDRAL.0>
18.4221

>  <SCORE.INTRA.POLAR>
0.61862

>  <SCORE.INTRA.POLAR.0>
-1.57101

>  <SCORE.INTRA.REPUL>
-0.730195

>  <SCORE.INTRA.REPUL.0>
0.730195

>  <SCORE.INTRA.SOLV>
-7.63064

>  <SCORE.INTRA.SOLV.lig_0>
-127.221

>  <SCORE.INTRA.VDW>
-12.1137

>  <SCORE.INTRA.VDW.0>
10.8385

>  <SCORE.INTRA.norm>
-0.53944

>  <SCORE.RESTR>
0

>  <SCORE.RESTR.CAVITY>
0

>  <SCORE.RESTR.norm>
0

>  <SCORE.SYSTEM>
0

>  <SCORE.SYSTEM.CONST>
0

>  <SCORE.SYSTEM.DIHEDRAL>
0

>  <SCORE.SYSTEM.SOLV>
0

>  <SCORE.SYSTEM.norm>
0

>  <SCORE.heavy>
32

>  <SCORE.norm>
-2.3063

>  <RMSD>
1.942

$$$$
2tob cryst
 OpenBabel11021811463D
libRbt.so/2013.1/901 2013/11/27
 32 34  0  0  0  0  0  0  0  0999 V2000
   -9.3680   -0.3324   -7.5395 C   0  0  2  0  0  0  0  0  0  0  0  0
   -9.3354    1.0953   -8.0757 C   0  0  1  0  0  0  0  0  0  0  0  0
   -8.5173    1.1213   -9.3671 C   0  0  2  0  0  0  0  0  0  0  0  0
   -7.1187    0.5324   -9.1399 C   0  0  1  0  0  0  0  0  0  0  0  0
   -7.2317   -0.8472   -8.4821 C   0  0  1  0  0  0  0  0  0  0  0  0
   -5.9006   -1.4601   -8.0792 C   0  0  0  0  0  0  0  0  0  0  0  0
  -10.6613    1.5493   -8.3341 O   0  0  0  0  0  0  0  0  0  0  0  0
   -8.3461    2.4422  -10.0511 N   0  3  0  0  0  0  0  0  0  0  0  0
   -6.4560    0.4185  -10.3929 O   0  0  0  0  0  0  0  0  0  0  0  0
   -8.0415   -0.7591   -7.2927 O   0  0  0  0  0  0  0  0  0  0  0  0
   -5.1430   -1.8269   -9.2278 O   0  0  0  0  0  0  0  0  0  0  0  0
  -12.2779   -1.6313   -9.0953 C   0  0  2  0  0  0  0  0  0  0  0  0
  -13.4778   -2.5787   -8.9616 C   0  0  0  0  0  0  0  0  0  0  0  0
  -13.0527   -4.0432   -8.9006 C   0  0  1  0  0  0  0  0  0  0  0  0
  -12.0886   -4.2163   -7.7351 C   0  0  2  0  0  0  0  0  0  0  0  0
  -10.8235   -3.3942   -7.9935 C   0  0  1  0  0  0  0  0  0  0  0  0
  -11.1611   -1.8950   -8.0730 C   0  0  1  0  0  0  0  0  0  0  0  0
  -12.7184   -0.2005   -8.9777 N   0  3  0  0  0  0  0  0  0  0  0  0
  -14.2435   -4.9441   -8.7644 N   0  3  0  0  0  0  0  0  0  0  0  0
   -9.8852   -3.6334   -6.9521 O   0  0  0  0  0  0  0  0  0  0  0  0
  -11.7473   -5.6042   -7.5649 O   0  0  0  0  0  0  0  0  0  0  0  0
   -9.9946   -1.1537   -8.4874 O   0  0  0  0  0  0  0  0  0  0  0  0
  -11.7633   -6.0222   -6.2279 C   0  0  2  0  0  0  0  0  0  0  0  0
  -11.3316   -7.4895   -6.1348 C   0  0  1  0  0  0  0  0  0  0  0  0
  -12.4417   -8.4203   -6.6235 C   0  0  0  0  0  0  0  0  0  0  0  0
  -13.7242   -8.0947   -5.8751 C   0  0  1  0  0  0  0  0  0  0  0  0
  -14.0833   -6.6378   -6.1099 C   0  0  1  0  0  0  0  0  0  0  0  0
  -15.3629   -6.2520   -5.3902 C   0  0  0  0  0  0  0  0  0  0  0  0
  -10.1054   -7.7024   -6.9682 N   0  3  0  0  0  0  0  0  0  0  0  0
  -15.0771   -6.2276   -3.9135 N   0  3  0  0  0  0  0  0  0  0  0  0
  -14.7817   -8.9328   -6.3194 O   0  0  0  0  0  0  0  0  0  0  0  0
  -13.0264   -5.8014   -5.6094 O   0  0  0  0  0  0  0  0  0  0  0  0
  1  2  1  0  0  0  0
  1 22  1  6  0  0  0
  1 10  1  0  0  0  0
  2  3  1  0  0  0  0
  2  7  1  6  0  0  0
  3  4  1  0  0  0  0
  3  8  1  1  0  0  0
  4  5  1  0  0  0  0
  4  9  1  6  0  0  0
  5  6  1  1  0  0  0
  5 10  1  0  0  0  0
  6 11  1  0  0  0  0
 12 13  1  0  0  0  0
 12 17  1  0  0  0  0
 12 18  1  1  0  0  0
 13 14  1  0  0  0  0
 14 15  1  0  0  0  0
 14 19  1  1  0  0  0
 15 16  1  0  0  0  0
 15 21  1  6  0  0  0
 16 17  1  0  0  0  0
 16 20  1  1  0  0  0
 17 22  1  6  0  0  0
 23 21  1  6  0  0  0
 23 24  1  0  0  0  0
 23 32  1  0  0  0  0
 24 25  1  0  0  0  0
 24 29  1  6  0  0  0
 25 26  1  0  0  0  0
 26 27  1  0  0  0  0
 26 31  1  6  0  0  0
 27 28  1  1  0  0  0
 27 32  1  0  0  0  0
 28 30  1  0  0  0  0
M  CHG  5   8   1  18   1  19   1  29   1  30   1
M  END
>  <CHROM.1>
-122.45578121,76.16035368,69.50291948,70.64750180,-69.34802529,-174.98962869
-119.13866863,61.39301419,-135.97974250,65.37912818,129.06046952,-177.58757199
-47.91373305,172.21280345,70.46348881,38.60488515,-10.90272684,-3.20392755
-7.71318412,0.94751634,0.07358766,-0.31581100

>  <Name>
2tob cryst

>  <RI>
0

>  <Rbt.Current_Directory>
/home/itssahil/PROJECTS/Mol_Feturizer/New_Systems/rnas/2tob

>  <Rbt.Executable>
rbdock ($Id: //depot/dev/client3/rdock/2013.1/src/exe/rbdock.cxx#4 $)

>  <Rbt.Library>
libRbt.so (2013.1, Build901 2013/11/27)

>  <Rbt.Parameter_File>
/export/apps/rDock/src/rDock_2013.1_src/data/scripts/dock_solv.prm

>  <Rbt.Receptor>
prm/pocket_docking_3.prm

>  <SCORE>
-65.7866

>  <SCORE.INTER>
-53.0327

>  <SCORE.INTER.CONST>
1

>  <SCORE.INTER.POLAR>
-8.65021

>  <SCORE.INTER.ROT>
6

>  <SCORE.INTER.SOLV>
30.4133

>  <SCORE.INTER.VDW>
-24.2589

>  <SCORE.INTER.norm>
-1.65727

>  <SCORE.INTRA>
-12.7781

>  <SCORE.INTRA.DIHEDRAL>
9.88841

>  <SCORE.INTRA.DIHEDRAL.0>
18.4221

>  <SCORE.INTRA.POLAR>
0.819835

>  <SCORE.INTRA.POLAR.0>
-1.57101

>  <SCORE.INTRA.REPUL>
-0.730195

>  <SCORE.INTRA.REPUL.0>
0.730195

>  <SCORE.INTRA.SOLV>
-2.59026

>  <SCORE.INTRA.SOLV.lig_0>
-127.221

>  <SCORE.INTRA.VDW>
-15.5636

>  <SCORE.INTRA.VDW.0>
10.8385

>  <SCORE.INTRA.norm>
-0.399315

>  <SCORE.RESTR>
0.024222

>  <SCORE.RESTR.CAVITY>
0.024222

>  <SCORE.RESTR.norm>
0.000756937

>  <SCORE.SYSTEM>
0

>  <SCORE.SYSTEM.CONST>
0

>  <SCORE.SYSTEM.DIHEDRAL>
0

>  <SCORE.SYSTEM.SOLV>
0

>  <SCORE.SYSTEM.norm>
0

>  <SCORE.heavy>
32

>  <SCORE.norm>
-2.05583

>  <RMSD>
1.991

$$$$
2tob cryst
 OpenBabel11021811463D
libRbt.so/2013.1/901 2013/11/27
 32 34  0  0  0  0  0  0  0  0999 V2000
   -9.8603    0.7447   -8.0236 C   0  0  2  0  0  0  0  0  0  0  0  0
   -8.6382    1.3498   -8.7071 C   0  0  1  0  0  0  0  0  0  0  0  0
   -7.5332    0.2951   -8.7715 C   0  0  2  0  0  0  0  0  0  0  0  0
   -7.2268   -0.2614   -7.3748 C   0  0  1  0  0  0  0  0  0  0  0  0
   -8.5215   -0.7318   -6.7028 C   0  0  1  0  0  0  0  0  0  0  0  0
   -8.3539   -1.1685   -5.2567 C   0  0  0  0  0  0  0  0  0  0  0  0
   -8.9772    1.7759  -10.0240 O   0  0  0  0  0  0  0  0  0  0  0  0
   -6.2315    0.6940   -9.3947 N   0  3  0  0  0  0  0  0  0  0  0  0
   -6.3225   -1.3518   -7.4997 O   0  0  0  0  0  0  0  0  0  0  0  0
   -9.4973    0.3292   -6.7205 O   0  0  0  0  0  0  0  0  0  0  0  0
   -8.5021   -0.0621   -4.3726 O   0  0  0  0  0  0  0  0  0  0  0  0
  -12.6397   -0.9351   -8.9996 C   0  0  2  0  0  0  0  0  0  0  0  0
  -13.7361   -1.9717   -8.7191 C   0  0  0  0  0  0  0  0  0  0  0  0
  -13.2240   -3.4034   -8.8515 C   0  0  1  0  0  0  0  0  0  0  0  0
  -12.0475   -3.5833   -7.9020 C   0  0  2  0  0  0  0  0  0  0  0  0
  -10.9038   -2.6587   -8.3264 C   0  0  1  0  0  0  0  0  0  0  0  0
  -11.3356   -1.1851   -8.2258 C   0  0  1  0  0  0  0  0  0  0  0  0
  -13.1310    0.4502   -8.6920 N   0  3  0  0  0  0  0  0  0  0  0  0
  -14.3136   -4.3932   -8.5667 N   0  3  0  0  0  0  0  0  0  0  0  0
   -9.7725   -2.8982   -7.4989 O   0  0  0  0  0  0  0  0  0  0  0  0
  -11.6012   -4.9517   -7.9060 O   0  0  0  0  0  0  0  0  0  0  0  0
  -10.3137   -0.3377   -8.7909 O   0  0  0  0  0  0  0  0  0  0  0  0
  -11.0840   -5.3728   -6.6740 C   0  0  2  0  0  0  0  0  0  0  0  0
   -9.8416   -6.2409   -6.8989 C   0  0  1  0  0  0  0  0  0  0  0  0
  -10.2273   -7.6288   -7.4114 C   0  0  0  0  0  0  0  0  0  0  0  0
  -11.2545   -8.2353   -6.4692 C   0  0  1  0  0  0  0  0  0  0  0  0
  -12.4641   -7.3200   -6.3931 C   0  0  1  0  0  0  0  0  0  0  0  0
  -13.5316   -7.8763   -5.4684 C   0  0  0  0  0  0  0  0  0  0  0  0
   -8.9435   -5.5772   -7.8972 N   0  3  0  0  0  0  0  0  0  0  0  0
  -14.6729   -6.8969   -5.4329 N   0  3  0  0  0  0  0  0  0  0  0  0
  -11.6470   -9.5212   -6.9279 O   0  0  0  0  0  0  0  0  0  0  0  0
  -12.0594   -6.0395   -5.8797 O   0  0  0  0  0  0  0  0  0  0  0  0
  1  2  1  0  0  0  0
  1 22  1  6  0  0  0
  1 10  1  0  0  0  0
  2  3  1  0  0  0  0
  2  7  1  6  0  0  0
  3  4  1  0  0  0  0
  3  8  1  1  0  0  0
  4  5  1  0  0  0  0
  4  9  1  6  0  0  0
  5  6  1  1  0  0  0
  5 10  1  0  0  0  0
  6 11  1  0  0  0  0
 12 13  1  0  0  0  0
 12 17  1  0  0  0  0
 12 18  1  1  0  0  0
 13 14  1  0  0  0  0
 14 15  1  0  0  0  0
 14 19  1  1  0  0  0
 15 16  1  0  0  0  0
 15 21  1  6  0  0  0
 16 17  1  0  0  0  0
 16 20  1  1  0  0  0
 17 22  1  6  0  0  0
 23 21  1  6  0  0  0
 23 24  1  0  0  0  0
 23 32  1  0  0  0  0
 24 25  1  0  0  0  0
 24 29  1  6  0  0  0
 25 26  1  0  0  0  0
 26 27  1  0  0  0  0
 26 31  1  6  0  0  0
 27 28  1  1  0  0  0
 27 32  1  0  0  0  0
 28 30  1  0  0  0  0
M  CHG  5   8   1  18   1  19   1  29   1  30   1
M  END
>  <CHROM.1>
170.65883900,63.01998463,-57.42670596,-57.02012291,88.31699213,61.27462395
-25.52745023,67.73837180,-148.13651178,-55.46059870,109.45684708,-139.40328204
-73.37826326,-57.02253206,178.87460678,-48.91227275,-10.56924732,-2.95588176
-7.52420786,1.09850056,-0.20546306,-0.29152083

>  <Name>
2tob cryst

>  <RI>
2.9538e+07

>  <Rbt.Current_Directory>
/home/itssahil/PROJECTS/Mol_Feturizer/New_Systems/rnas/2tob

>  <Rbt.Executable>
rbdock ($Id: //depot/dev/client3/rdock/2013.1/src/exe/rbdock.cxx#4 $)

>  <Rbt.Library>
libRbt.so (2013.1, Build901 2013/11/27)

>  <Rbt.Parameter_File>
/export/apps/rDock/src/rDock_2013.1_src/data/scripts/dock_solv.prm

>  <Rbt.Receptor>
prm/pocket_docking_2.prm

>  <SCORE>
-51.056

>  <SCORE.INTER>
-36.6671

>  <SCORE.INTER.CONST>
1

>  <SCORE.INTER.POLAR>
-5.59316

>  <SCORE.INTER.ROT>
6

>  <SCORE.INTER.SOLV>
35.4365

>  <SCORE.INTER.VDW>
-25.2131

>  <SCORE.INTER.norm>
-1.14585

>  <SCORE.INTRA>
-17.1415

>  <SCORE.INTRA.DIHEDRAL>
3.8871

>  <SCORE.INTRA.DIHEDRAL.0>
18.4221

>  <SCORE.INTRA.POLAR>
0.452173

>  <SCORE.INTRA.POLAR.0>
-1.57101

>  <SCORE.INTRA.REPUL>
-0.730195

>  <SCORE.INTRA.REPUL.0>
0.730195

>  <SCORE.INTRA.SOLV>
-5.06867

>  <SCORE.INTRA.SOLV.lig_0>
-127.221

>  <SCORE.INTRA.VDW>
-14.4372

>  <SCORE.INTRA.VDW.0>
10.8385

>  <SCORE.INTRA.norm>
-0.535673

>  <SCORE.RESTR>
2.75269

>  <SCORE.RESTR.CAVITY>
2.75269

>  <SCORE.RESTR.norm>
0.0860214

>  <SCORE.SYSTEM>
0

>  <SCORE.SYSTEM.CONST>
0

>  <SCORE.SYSTEM.DIHEDRAL>
0

>  <SCORE.SYSTEM.SOLV>
0

>  <SCORE.SYSTEM.norm>
0

>  <SCORE.heavy>
32

>  <SCORE.norm>
-1.5955

>  <RMSD>
2.014

$$$$
2tob cryst
 OpenBabel11021811463D
libRbt.so/2013.1/901 2013/11/27
 32 34  0  0  0  0  0  0  0  0999 V2000
   -8.9306   -0.4342   -7.4155 C   0  0  2  0  0  0  0  0  0  0  0  0
   -8.7155    1.0158   -7.8377 C   0  0  1  0  0  0  0  0  0  0  0  0
   -7.9843    1.0381   -9.1802 C   0  0  2  0  0  0  0  0  0  0  0  0
   -6.6795    0.2340   -9.1051 C   0  0  1  0  0  0  0  0  0  0  0  0
   -6.9592   -1.1678   -8.5524 C   0  0  1  0  0  0  0  0  0  0  0  0
   -5.7138   -2.0015   -8.2995 C   0  0  0  0  0  0  0  0  0  0  0  0
   -9.9708    1.6792   -7.9599 O   0  0  0  0  0  0  0  0  0  0  0  0
   -7.6577    2.3759   -9.7680 N   0  3  0  0  0  0  0  0  0  0  0  0
   -6.1203    0.1374  -10.4091 O   0  0  0  0  0  0  0  0  0  0  0  0
   -7.6713   -1.0697   -7.3028 O   0  0  0  0  0  0  0  0  0  0  0  0
   -4.8587   -1.9936   -9.4382 O   0  0  0  0  0  0  0  0  0  0  0  0
  -12.0498   -1.4162   -8.9378 C   0  0  2  0  0  0  0  0  0  0  0  0
  -13.3037   -2.2834   -8.7623 C   0  0  0  0  0  0  0  0  0  0  0  0
  -12.9693   -3.7697   -8.6709 C   0  0  1  0  0  0  0  0  0  0  0  0
  -11.9986   -3.9744   -7.5159 C   0  0  2  0  0  0  0  0  0  0  0  0
  -10.6894   -3.2392   -7.8139 C   0  0  1  0  0  0  0  0  0  0  0  0
  -10.9347   -1.7242   -7.9260 C   0  0  1  0  0  0  0  0  0  0  0  0
  -12.3988    0.0417   -8.8496 N   0  3  0  0  0  0  0  0  0  0  0  0
  -14.2112   -4.5910   -8.4943 N   0  3  0  0  0  0  0  0  0  0  0  0
   -9.7507   -3.5112   -6.7810 O   0  0  0  0  0  0  0  0  0  0  0  0
  -11.7412   -5.3763   -7.3161 O   0  0  0  0  0  0  0  0  0  0  0  0
   -9.7316   -1.0673   -8.3763 O   0  0  0  0  0  0  0  0  0  0  0  0
  -11.1195   -5.6600   -6.0931 C   0  0  2  0  0  0  0  0  0  0  0  0
  -10.9415   -7.1739   -5.9371 C   0  0  1  0  0  0  0  0  0  0  0  0
  -12.2738   -7.8532   -5.6189 C   0  0  0  0  0  0  0  0  0  0  0  0
  -12.9028   -7.1679   -4.4166 C   0  0  1  0  0  0  0  0  0  0  0  0
  -13.0958   -5.6937   -4.7264 C   0  0  1  0  0  0  0  0  0  0  0  0
  -13.7280   -4.9535   -3.5617 C   0  0  0  0  0  0  0  0  0  0  0  0
  -10.3864   -7.7442   -7.2060 N   0  3  0  0  0  0  0  0  0  0  0  0
  -12.7327   -4.9236   -2.4340 N   0  3  0  0  0  0  0  0  0  0  0  0
  -14.1530   -7.7662   -4.1051 O   0  0  0  0  0  0  0  0  0  0  0  0
  -11.8169   -5.0920   -4.9896 O   0  0  0  0  0  0  0  0  0  0  0  0
  1  2  1  0  0  0  0
  1 22  1  6  0  0  0
  1 10  1  0  0  0  0
  2  3  1  0  0  0  0
  2  7  1  6  0  0  0
  3  4  1  0  0  0  0
  3  8  1  1  0  0  0
  4  5  1  0  0  0  0
  4  9  1  6  0  0  0
  5  6  1  1  0  0  0
  5 10  1  0  0  0  0
  6 11  1  0  0  0  0
 12 13  1  0  0  0  0
 12 17  1  0  0  0  0
 12 18  1  1  0  0  0
 13 14  1  0  0  0  0
 14 15  1  0  0  0  0
 14 19  1  1  0  0  0
 15 16  1  0  0  0  0
 15 21  1  6  0  0  0
 16 17  1  0  0  0  0
 16 20  1  1  0  0  0
 17 22  1  6  0  0  0
 23 21  1  6  0  0  0
 23 24  1  0  0  0  0
 23 32  1  0  0  0  0
 24 25  1  0  0  0  0
 24 29  1  6  0  0  0
 25 26  1  0  0  0  0
 26 27  1  0  0  0  0
 26 31  1  6  0  0  0
 27 28  1  1  0  0  0
 27 32  1  0  0  0  0
 28 30  1  0  0  0  0
M  CHG  5   8   1  18   1  19   1  29   1  30   1
M  END
>  <CHROM.1>
-125.56197180,170.46152365,-134.00875886,-179.56796525,-49.78103452,173.88086930
132.55448693,-59.90747941,-165.78264475,-176.84767480,138.63295861,177.46080978
-51.09675797,-57.01675733,67.91935863,-66.58354403,-10.42228176,-2.95614183
-7.31459189,0.95711589,0.14857996,-0.42202304

>  <Name>
2tob cryst

>  <RI>
3.35201e+07

>  <Rbt.Current_Directory>
/home/itssahil/PROJECTS/Mol_Feturizer/New_Systems/rnas/2tob

>  <Rbt.Executable>
rbdock ($Id: //depot/dev/client3/rdock/2013.1/src/exe/rbdock.cxx#4 $)

>  <Rbt.Library>
libRbt.so (2013.1, Build901 2013/11/27)

>  <Rbt.Parameter_File>
/export/apps/rDock/src/rDock_2013.1_src/data/scripts/dock_solv.prm

>  <Rbt.Receptor>
prm/pocket_docking_4.prm

>  <SCORE>
-66.7928

>  <SCORE.INTER>
-46.4407

>  <SCORE.INTER.CONST>
1

>  <SCORE.INTER.POLAR>
-6.2858

>  <SCORE.INTER.ROT>
6

>  <SCORE.INTER.SOLV>
28.3123

>  <SCORE.INTER.VDW>
-27.0453

>  <SCORE.INTER.norm>
-1.45127

>  <SCORE.INTRA>
-20.3521

>  <SCORE.INTRA.DIHEDRAL>
3.23321

>  <SCORE.INTRA.DIHEDRAL.0>
18.4221

>  <SCORE.INTRA.POLAR>
-0.574077

>  <SCORE.INTRA.POLAR.0>
-1.57101

>  <SCORE.INTRA.REPUL>
-0.730195

>  <SCORE.INTRA.REPUL.0>
0.730195

>  <SCORE.INTRA.SOLV>
-6.71239

>  <SCORE.INTRA.SOLV.lig_0>
-127.221

>  <SCORE.INTRA.VDW>
-13.0097

>  <SCORE.INTRA.VDW.0>
10.8385

>  <SCORE.INTRA.norm>
-0.636003

>  <SCORE.RESTR>
0

>  <SCORE.RESTR.CAVITY>
0

>  <SCORE.RESTR.norm>
0

>  <SCORE.SYSTEM>
0

>  <SCORE.SYSTEM.CONST>
0

>  <SCORE.SYSTEM.DIHEDRAL>
0

>  <SCORE.SYSTEM.SOLV>
0

>  <SCORE.SYSTEM.norm>
0

>  <SCORE.heavy>
32

>  <SCORE.norm>
-2.08728

>  <RMSD>
2.030

$$$$
2tob cryst
 OpenBabel11021811463D
libRbt.so/2013.1/901 2013/11/27
 32 34  0  0  0  0  0  0  0  0999 V2000
   -9.4197   -0.5163   -7.5602 C   0  0  2  0  0  0  0  0  0  0  0  0
   -9.2716    0.9106   -8.0790 C   0  0  1  0  0  0  0  0  0  0  0  0
   -8.4481    0.8867   -9.3671 C   0  0  2  0  0  0  0  0  0  0  0  0
   -7.1017    0.1861   -9.1419 C   0  0  1  0  0  0  0  0  0  0  0  0
   -7.3267   -1.1879   -8.5012 C   0  0  1  0  0  0  0  0  0  0  0  0
   -6.0502   -1.9092   -8.1009 C   0  0  0  0  0  0  0  0  0  0  0  0
  -10.5561    1.4713   -8.3368 O   0  0  0  0  0  0  0  0  0  0  0  0
   -8.1696    2.1978  -10.0344 N   0  3  0  0  0  0  0  0  0  0  0  0
   -6.4443    0.0346  -10.3938 O   0  0  0  0  0  0  0  0  0  0  0  0
   -8.1324   -1.0498   -7.3138 O   0  0  0  0  0  0  0  0  0  0  0  0
   -5.6273   -2.7993   -9.1287 O   0  0  0  0  0  0  0  0  0  0  0  0
  -12.4329   -1.6681   -9.0076 C   0  0  2  0  0  0  0  0  0  0  0  0
  -13.6396   -2.6061   -8.8692 C   0  0  0  0  0  0  0  0  0  0  0  0
  -13.2402   -4.0766   -8.9554 C   0  0  1  0  0  0  0  0  0  0  0  0
  -12.2040   -4.3580   -7.8760 C   0  0  2  0  0  0  0  0  0  0  0  0
  -10.9431   -3.5355   -8.1530 C   0  0  1  0  0  0  0  0  0  0  0  0
  -11.2557   -2.0302   -8.0884 C   0  0  1  0  0  0  0  0  0  0  0  0
  -12.8363   -0.2455   -8.7454 N   0  3  0  0  0  0  0  0  0  0  0  0
  -14.4368   -4.9686   -8.8114 N   0  3  0  0  0  0  0  0  0  0  0  0
   -9.9423   -3.8722   -7.2006 O   0  0  0  0  0  0  0  0  0  0  0  0
  -11.8795   -5.7598   -7.8418 O   0  0  0  0  0  0  0  0  0  0  0  0
  -10.1052   -1.2741   -8.5202 O   0  0  0  0  0  0  0  0  0  0  0  0
  -11.1752   -6.1409   -6.6923 C   0  0  2  0  0  0  0  0  0  0  0  0
  -10.9869   -7.6615   -6.6760 C   0  0  1  0  0  0  0  0  0  0  0  0
  -12.2941   -8.3726   -6.3253 C   0  0  0  0  0  0  0  0  0  0  0  0
  -12.8390   -7.7937   -5.0296 C   0  0  1  0  0  0  0  0  0  0  0  0
  -13.0529   -6.2999   -5.2011 C   0  0  1  0  0  0  0  0  0  0  0  0
  -13.6035   -5.6630   -3.9380 C   0  0  0  0  0  0  0  0  0  0  0  0
  -10.5203   -8.1208   -8.0232 N   0  3  0  0  0  0  0  0  0  0  0  0
  -12.4892   -5.5894   -2.9301 N   0  3  0  0  0  0  0  0  0  0  0  0
  -14.0649   -8.4231   -4.6843 O   0  0  0  0  0  0  0  0  0  0  0  0
  -11.7951   -5.6710   -5.5000 O   0  0  0  0  0  0  0  0  0  0  0  0
  1  2  1  0  0  0  0
  1 22  1  6  0  0  0
  1 10  1  0  0  0  0
  2  3  1  0  0  0  0
  2  7  1  6  0  0  0
  3  4  1  0  0  0  0
  3  8  1  1  0  0  0
  4  5  1  0  0  0  0
  4  9  1  6  0  0  0
  5  6  1  1  0  0  0
  5 10  1  0  0  0  0
  6 11  1  0  0  0  0
 12 13  1  0  0  0  0
 12 17  1  0  0  0  0
 12 18  1  1  0  0  0
 13 14  1  0  0  0  0
 14 15  1  0  0  0  0
 14 19  1  1  0  0  0
 15 16  1  0  0  0  0
 15 21  1  6  0  0  0
 16 17  1  0  0  0  0
 16 20  1  1  0  0  0
 17 22  1  6  0  0  0
 23 21  1  6  0  0  0
 23 24  1  0  0  0  0
 23 32  1  0  0  0  0
 24 25  1  0  0  0  0
 24 29  1  6  0  0  0
 25 26  1  0  0  0  0
 26 27  1  0  0  0  0
 26 31  1  6  0  0  0
 27 28  1  1  0  0  0
 27 32  1  0  0  0  0
 28 30  1  0  0  0  0
M  CHG  5   8   1  18   1  19   1  29   1  30   1
M  END
>  <CHROM.1>
-128.36041153,73.26337208,32.94578123,84.55328933,-94.60393475,-65.78415451
127.67018100,-61.90953342,-166.27523694,178.96417682,127.55649913,174.74955524
178.49023145,178.71554436,73.81882062,47.85589651,-10.68115402,-3.29609045
-7.59843867,1.03291148,0.09827857,-0.37536535

>  <Name>
2tob cryst

>  <RI>
0

>  <Rbt.Current_Directory>
/home/itssahil/PROJECTS/Mol_Feturizer/New_Systems/rnas/2tob

>  <Rbt.Executable>
rbdock ($Id: //depot/dev/client3/rdock/2013.1/src/exe/rbdock.cxx#4 $)

>  <Rbt.Library>
libRbt.so (2013.1, Build901 2013/11/27)

>  <Rbt.Parameter_File>
/export/apps/rDock/src/rDock_2013.1_src/data/scripts/dock_solv.prm

>  <Rbt.Receptor>
prm/pocket_docking_3.prm

>  <SCORE>
-57.308

>  <SCORE.INTER>
-46.0675

>  <SCORE.INTER.CONST>
1

>  <SCORE.INTER.POLAR>
-7.26995

>  <SCORE.INTER.ROT>
6

>  <SCORE.INTER.SOLV>
31.2919

>  <SCORE.INTER.VDW>
-24.5091

>  <SCORE.INTER.norm>
-1.43961

>  <SCORE.INTRA>
-11.7367

>  <SCORE.INTRA.DIHEDRAL>
9.30425

>  <SCORE.INTRA.DIHEDRAL.0>
18.4221

>  <SCORE.INTRA.POLAR>
1.05801

>  <SCORE.INTRA.POLAR.0>
-1.57101

>  <SCORE.INTRA.REPUL>
-0.730195

>  <SCORE.INTRA.REPUL.0>
0.730195

>  <SCORE.INTRA.SOLV>
-6.4623

>  <SCORE.INTRA.SOLV.lig_0>
-127.221

>  <SCORE.INTRA.VDW>
-13.1039

>  <SCORE.INTRA.VDW.0>
10.8385

>  <SCORE.INTRA.norm>
-0.366771

>  <SCORE.RESTR>
0.496128

>  <SCORE.RESTR.CAVITY>
0.496128

>  <SCORE.RESTR.norm>
0.015504

>  <SCORE.SYSTEM>
0

>  <SCORE.SYSTEM.CONST>
0

>  <SCORE.SYSTEM.DIHEDRAL>
0

>  <SCORE.SYSTEM.SOLV>
0

>  <SCORE.SYSTEM.norm>
0

>  <SCORE.heavy>
32

>  <SCORE.norm>
-1.79087

>  <RMSD>
2.035

$$$$
2tob cryst
 OpenBabel11021811463D
libRbt.so/2013.1/901 2013/11/27
 32 34  0  0  0  0  0  0  0  0999 V2000
   -8.0725   -0.4684   -7.6334 C   0  0  2  0  0  0  0  0  0  0  0  0
   -8.3961    1.0203   -7.7105 C   0  0  1  0  0  0  0  0  0  0  0  0
   -8.0843    1.5232   -9.1203 C   0  0  2  0  0  0  0  0  0  0  0  0
   -6.6344    1.2024   -9.5066 C   0  0  1  0  0  0  0  0  0  0  0  0
   -6.3492   -0.2864   -9.2810 C   0  0  1  0  0  0  0  0  0  0  0  0
   -4.8984   -0.6858   -9.4946 C   0  0  0  0  0  0  0  0  0  0  0  0
   -9.7733    1.2357   -7.4140 O   0  0  0  0  0  0  0  0  0  0  0  0
   -8.3175    2.9746   -9.4045 N   0  3  0  0  0  0  0  0  0  0  0  0
   -6.4374    1.5309  -10.8761 O   0  0  0  0  0  0  0  0  0  0  0  0
   -6.7020   -0.6550   -7.9327 O   0  0  0  0  0  0  0  0  0  0  0  0
   -4.7991   -2.0585   -9.8603 O   0  0  0  0  0  0  0  0  0  0  0  0
  -11.2226   -1.3674   -9.1019 C   0  0  2  0  0  0  0  0  0  0  0  0
  -12.5362   -2.1302   -8.8832 C   0  0  0  0  0  0  0  0  0  0  0  0
  -12.3099   -3.6284   -8.7009 C   0  0  1  0  0  0  0  0  0  0  0  0
  -11.3591   -3.8325   -7.5294 C   0  0  2  0  0  0  0  0  0  0  0  0
   -9.9997   -3.2125   -7.8621 C   0  0  1  0  0  0  0  0  0  0  0  0
  -10.1350   -1.6933   -8.0662 C   0  0  1  0  0  0  0  0  0  0  0  0
  -11.4659    0.1146   -9.1033 N   0  3  0  0  0  0  0  0  0  0  0  0
  -13.6082   -4.3464   -8.4837 N   0  3  0  0  0  0  0  0  0  0  0  0
   -9.0854   -3.4886   -6.8086 O   0  0  0  0  0  0  0  0  0  0  0  0
  -11.2038   -5.2347   -7.2443 O   0  0  0  0  0  0  0  0  0  0  0  0
   -8.8866   -1.1526   -8.5470 O   0  0  0  0  0  0  0  0  0  0  0  0
  -10.6175   -5.4884   -5.9975 C   0  0  2  0  0  0  0  0  0  0  0  0
  -10.4666   -6.9990   -5.7896 C   0  0  1  0  0  0  0  0  0  0  0  0
  -11.8166   -7.6486   -5.4847 C   0  0  0  0  0  0  0  0  0  0  0  0
  -12.4652   -6.9166   -4.3209 C   0  0  1  0  0  0  0  0  0  0  0  0
  -12.6279   -5.4503   -4.6816 C   0  0  1  0  0  0  0  0  0  0  0  0
  -13.2779   -4.6644   -3.5572 C   0  0  0  0  0  0  0  0  0  0  0  0
   -9.8885   -7.6172   -7.0255 N   0  3  0  0  0  0  0  0  0  0  0  0
  -12.3071   -4.6048   -2.4095 N   0  3  0  0  0  0  0  0  0  0  0  0
  -13.7318   -7.4866   -4.0230 O   0  0  0  0  0  0  0  0  0  0  0  0
  -11.3338   -4.8758   -4.9306 O   0  0  0  0  0  0  0  0  0  0  0  0
  1  2  1  0  0  0  0
  1 22  1  6  0  0  0
  1 10  1  0  0  0  0
  2  3  1  0  0  0  0
  2  7  1  6  0  0  0
  3  4  1  0  0  0  0
  3  8  1  1  0  0  0
  4  5  1  0  0  0  0
  4  9  1  6  0  0  0
  5  6  1  1  0  0  0
  5 10  1  0  0  0  0
  6 11  1  0  0  0  0
 12 13  1  0  0  0  0
 12 17  1  0  0  0  0
 12 18  1  1  0  0  0
 13 14  1  0  0  0  0
 14 15  1  0  0  0  0
 14 19  1  1  0  0  0
 15 16  1  0  0  0  0
 15 21  1  6  0  0  0
 16 17  1  0  0  0  0
 16 20  1  1  0  0  0
 17 22  1  6  0  0  0
 23 21  1  6  0  0  0
 23 24  1  0  0  0  0
 23 32  1  0  0  0  0
 24 25  1  0  0  0  0
 24 29  1  6  0  0  0
 25 26  1  0  0  0  0
 26 27  1  0  0  0  0
 26 31  1  6  0  0  0
 27 28  1  1  0  0  0
 27 32  1  0  0  0  0
 28 30  1  0  0  0  0
M  CHG  5   8   1  18   1  19   1  29   1  30   1
M  END
>  <CHROM.1>
-93.36035574,170.71409257,137.58640216,178.87465392,-153.93980099,162.07975627
172.52203554,58.37779676,-165.26395259,-71.23759363,135.76763333,-178.92139644
-42.76359724,61.10505742,68.31825240,49.08759780,-9.95325553,-2.68576601
-7.40003887,-0.98864744,-0.28184302,2.77044432

>  <Name>
2tob cryst

>  <RI>
3.35201e+07

>  <Rbt.Current_Directory>
/home/itssahil/PROJECTS/Mol_Feturizer/New_Systems/rnas/2tob

>  <Rbt.Executable>
rbdock ($Id: //depot/dev/client3/rdock/2013.1/src/exe/rbdock.cxx#4 $)

>  <Rbt.Library>
libRbt.so (2013.1, Build901 2013/11/27)

>  <Rbt.Parameter_File>
/export/apps/rDock/src/rDock_2013.1_src/data/scripts/dock_solv.prm

>  <Rbt.Receptor>
prm/pocket_docking_4.prm

>  <SCORE>
-65.1933

>  <SCORE.INTER>
-49.0565

>  <SCORE.INTER.CONST>
1

>  <SCORE.INTER.POLAR>
-7.33715

>  <SCORE.INTER.ROT>
6

>  <SCORE.INTER.SOLV>
32.4718

>  <SCORE.INTER.VDW>
-26.6711

>  <SCORE.INTER.norm>
-1.53301

>  <SCORE.INTRA>
-16.1368

>  <SCORE.INTRA.DIHEDRAL>
1.86562

>  <SCORE.INTRA.DIHEDRAL.0>
18.4221

>  <SCORE.INTRA.POLAR>
0.918178

>  <SCORE.INTRA.POLAR.0>
-1.57101

>  <SCORE.INTRA.REPUL>
-0.730195

>  <SCORE.INTRA.REPUL.0>
0.730195

>  <SCORE.INTRA.SOLV>
-5.05877

>  <SCORE.INTRA.SOLV.lig_0>
-127.221

>  <SCORE.INTRA.VDW>
-14.0111

>  <SCORE.INTRA.VDW.0>
10.8385

>  <SCORE.INTRA.norm>
-0.504275

>  <SCORE.RESTR>
0

>  <SCORE.RESTR.CAVITY>
0

>  <SCORE.RESTR.norm>
0

>  <SCORE.SYSTEM>
0

>  <SCORE.SYSTEM.CONST>
0

>  <SCORE.SYSTEM.DIHEDRAL>
0

>  <SCORE.SYSTEM.SOLV>
0

>  <SCORE.SYSTEM.norm>
0

>  <SCORE.heavy>
32

>  <SCORE.norm>
-2.03729

>  <RMSD>
2.035

$$$$
2tob cryst
 OpenBabel11021811463D
libRbt.so/2013.1/901 2013/11/27
 32 34  0  0  0  0  0  0  0  0999 V2000
   -9.5652    0.3532   -7.9018 C   0  0  2  0  0  0  0  0  0  0  0  0
   -8.3431    0.9755   -8.5698 C   0  0  1  0  0  0  0  0  0  0  0  0
   -7.2908   -0.1118   -8.7896 C   0  0  2  0  0  0  0  0  0  0  0  0
   -6.9581   -0.8245   -7.4720 C   0  0  1  0  0  0  0  0  0  0  0  0
   -8.2469   -1.3086   -6.7985 C   0  0  1  0  0  0  0  0  0  0  0  0
   -8.0453   -1.9018   -5.4137 C   0  0  0  0  0  0  0  0  0  0  0  0
   -8.7114    1.5516   -9.8201 O   0  0  0  0  0  0  0  0  0  0  0  0
   -5.9965    0.2960   -9.4223 N   0  3  0  0  0  0  0  0  0  0  0  0
   -6.1101   -1.9324   -7.7472 O   0  0  0  0  0  0  0  0  0  0  0  0
   -9.1730   -0.2120   -6.6652 O   0  0  0  0  0  0  0  0  0  0  0  0
   -9.2662   -2.4304   -4.9061 O   0  0  0  0  0  0  0  0  0  0  0  0
  -12.4465   -1.0722   -9.0484 C   0  0  2  0  0  0  0  0  0  0  0  0
  -13.6063   -2.0571   -8.8492 C   0  0  0  0  0  0  0  0  0  0  0  0
  -13.1731   -3.5068   -9.0495 C   0  0  1  0  0  0  0  0  0  0  0  0
  -12.0324   -3.8056   -8.0865 C   0  0  2  0  0  0  0  0  0  0  0  0
  -10.8280   -2.9272   -8.4346 C   0  0  1  0  0  0  0  0  0  0  0  0
  -11.1780   -1.4387   -8.2619 C   0  0  1  0  0  0  0  0  0  0  0  0
  -12.8659    0.3207   -8.6752 N   0  3  0  0  0  0  0  0  0  0  0  0
  -14.3237   -4.4458   -8.8433 N   0  3  0  0  0  0  0  0  0  0  0  0
   -9.7328   -3.2761   -7.5976 O   0  0  0  0  0  0  0  0  0  0  0  0
  -11.6643   -5.1953   -8.1566 O   0  0  0  0  0  0  0  0  0  0  0  0
  -10.0962   -0.6225   -8.7572 O   0  0  0  0  0  0  0  0  0  0  0  0
  -11.5324   -5.8009   -6.9002 C   0  0  2  0  0  0  0  0  0  0  0  0
  -10.3327   -6.7542   -6.9040 C   0  0  1  0  0  0  0  0  0  0  0  0
  -10.6491   -8.0314   -7.6826 C   0  0  0  0  0  0  0  0  0  0  0  0
  -11.9313   -8.6382   -7.1360 C   0  0  1  0  0  0  0  0  0  0  0  0
  -13.0556   -7.6246   -7.2593 C   0  0  1  0  0  0  0  0  0  0  0  0
  -14.3684   -8.1758   -6.7333 C   0  0  0  0  0  0  0  0  0  0  0  0
   -9.1556   -6.0721   -7.5305 N   0  3  0  0  0  0  0  0  0  0  0  0
  -14.8762   -9.1904   -7.7211 N   0  3  0  0  0  0  0  0  0  0  0  0
  -12.2626   -9.8200   -7.8513 O   0  0  0  0  0  0  0  0  0  0  0  0
  -12.7279   -6.4555   -6.4894 O   0  0  0  0  0  0  0  0  0  0  0  0
  1  2  1  0  0  0  0
  1 22  1  6  0  0  0
  1 10  1  0  0  0  0
  2  3  1  0  0  0  0
  2  7  1  6  0  0  0
  3  4  1  0  0  0  0
  3  8  1  1  0  0  0
  4  5  1  0  0  0  0
  4  9  1  6  0  0  0
  5  6  1  1  0  0  0
  5 10  1  0  0  0  0
  6 11  1  0  0  0  0
 12 13  1  0  0  0  0
 12 17  1  0  0  0  0
 12 18  1  1  0  0  0
 13 14  1  0  0  0  0
 14 15  1  0  0  0  0
 14 19  1  1  0  0  0
 15 16  1  0  0  0  0
 15 21  1  6  0  0  0
 16 17  1  0  0  0  0
 16 20  1  1  0  0  0
 17 22  1  6  0  0  0
 23 21  1  6  0  0  0
 23 24  1  0  0  0  0
 23 32  1  0  0  0  0
 24 25  1  0  0  0  0
 24 29  1  6  0  0  0
 25 26  1  0  0  0  0
 26 27  1  0  0  0  0
 26 31  1  6  0  0  0
 27 28  1  1  0  0  0
 27 32  1  0  0  0  0
 28 30  1  0  0  0  0
M  CHG  5   8   1  18   1  19   1  29   1  30   1
M  END
>  <CHROM.1>
173.58274293,-51.82151179,-64.93912903,-175.19779949,-174.98469894,52.24175843
-137.46731257,-171.71747142,-132.74699582,149.15087977,111.97171796,-140.49199239
-85.05559835,-52.40687126,-72.79837195,-176.49775325,-10.63074570,-3.45455025
-7.80822511,1.01856937,-0.23811651,-0.23823206

>  <Name>
2tob cryst

>  <RI>
0

>  <Rbt.Current_Directory>
/home/itssahil/PROJECTS/Mol_Feturizer/New_Systems/rnas/2tob

>  <Rbt.Executable>
rbdock ($Id: //depot/dev/client3/rdock/2013.1/src/exe/rbdock.cxx#4 $)

>  <Rbt.Library>
libRbt.so (2013.1, Build901 2013/11/27)

>  <Rbt.Parameter_File>
/export/apps/rDock/src/rDock_2013.1_src/data/scripts/dock_solv.prm

>  <Rbt.Receptor>
prm/pocket_docking_3.prm

>  <SCORE>
-56.6236

>  <SCORE.INTER>
-39.6574

>  <SCORE.INTER.CONST>
1

>  <SCORE.INTER.POLAR>
-5.78619

>  <SCORE.INTER.ROT>
6

>  <SCORE.INTER.SOLV>
32.3987

>  <SCORE.INTER.VDW>
-25.5505

>  <SCORE.INTER.norm>
-1.23929

>  <SCORE.INTRA>
-16.9662

>  <SCORE.INTRA.DIHEDRAL>
10.3297

>  <SCORE.INTRA.DIHEDRAL.0>
18.4221

>  <SCORE.INTRA.POLAR>
-0.893557

>  <SCORE.INTRA.POLAR.0>
-1.57101

>  <SCORE.INTRA.REPUL>
-0.730195

>  <SCORE.INTRA.REPUL.0>
0.730195

>  <SCORE.INTRA.SOLV>
-2.78848

>  <SCORE.INTRA.SOLV.lig_0>
-127.221

>  <SCORE.INTRA.VDW>
-14.0477

>  <SCORE.INTRA.VDW.0>
10.8385

>  <SCORE.INTRA.norm>
-0.530193

>  <SCORE.RESTR>
0

>  <SCORE.RESTR.CAVITY>
0

>  <SCORE.RESTR.norm>
0

>  <SCORE.SYSTEM>
0

>  <SCORE.SYSTEM.CONST>
0

>  <SCORE.SYSTEM.DIHEDRAL>
0

>  <SCORE.SYSTEM.SOLV>
0

>  <SCORE.SYSTEM.norm>
0

>  <SCORE.heavy>
32

>  <SCORE.norm>
-1.76949

>  <RMSD>
2.046

$$$$
2tob cryst
 OpenBabel11021811463D
libRbt.so/2013.1/901 2013/11/27
 32 34  0  0  0  0  0  0  0  0999 V2000
   -8.9741   -0.5401   -6.8452 C   0  0  2  0  0  0  0  0  0  0  0  0
   -8.3632    0.8480   -7.0097 C   0  0  1  0  0  0  0  0  0  0  0  0
   -7.7253    0.9479   -8.3956 C   0  0  2  0  0  0  0  0  0  0  0  0
   -6.7128   -0.1842   -8.6139 C   0  0  1  0  0  0  0  0  0  0  0  0
   -7.3646   -1.5367   -8.3059 C   0  0  1  0  0  0  0  0  0  0  0  0
   -6.4086   -2.7174   -8.3497 C   0  0  0  0  0  0  0  0  0  0  0  0
   -9.3723    1.8444   -6.8690 O   0  0  0  0  0  0  0  0  0  0  0  0
   -7.0493    2.2346   -8.7550 N   0  3  0  0  0  0  0  0  0  0  0  0
   -6.2721   -0.1560   -9.9657 O   0  0  0  0  0  0  0  0  0  0  0  0
   -7.9535   -1.5095   -6.9903 O   0  0  0  0  0  0  0  0  0  0  0  0
   -7.1172   -3.9363   -8.5496 O   0  0  0  0  0  0  0  0  0  0  0  0
  -11.9627   -1.6865   -8.7606 C   0  0  2  0  0  0  0  0  0  0  0  0
  -12.9344   -2.8742   -8.7775 C   0  0  0  0  0  0  0  0  0  0  0  0
  -12.2194   -4.2077   -8.5780 C   0  0  1  0  0  0  0  0  0  0  0  0
  -11.4511   -4.1501   -7.2648 C   0  0  2  0  0  0  0  0  0  0  0  0
  -10.3686   -3.0716   -7.3543 C   0  0  1  0  0  0  0  0  0  0  0  0
  -11.0039   -1.6851   -7.5596 C   0  0  1  0  0  0  0  0  0  0  0  0
  -12.7154   -0.3873   -8.7849 N   0  3  0  0  0  0  0  0  0  0  0  0
  -13.1928   -5.3480   -8.5932 N   0  3  0  0  0  0  0  0  0  0  0  0
   -9.5900   -3.0856   -6.1645 O   0  0  0  0  0  0  0  0  0  0  0  0
  -10.8516   -5.4261   -6.9751 O   0  0  0  0  0  0  0  0  0  0  0  0
   -9.9725   -0.7089   -7.8148 O   0  0  0  0  0  0  0  0  0  0  0  0
  -10.6749   -5.6607   -5.6053 C   0  0  2  0  0  0  0  0  0  0  0  0
  -10.4047   -7.1491   -5.3614 C   0  0  1  0  0  0  0  0  0  0  0  0
  -11.6839   -7.9719   -5.5172 C   0  0  0  0  0  0  0  0  0  0  0  0
  -12.7651   -7.3766   -4.6298 C   0  0  1  0  0  0  0  0  0  0  0  0
  -12.9909   -5.9268   -5.0219 C   0  0  1  0  0  0  0  0  0  0  0  0
  -14.0676   -5.2767   -4.1720 C   0  0  0  0  0  0  0  0  0  0  0  0
   -9.3809   -7.6370   -6.3399 N   0  3  0  0  0  0  0  0  0  0  0  0
  -14.0437   -3.7971   -4.4426 N   0  3  0  0  0  0  0  0  0  0  0  0
  -13.9742   -8.1100   -4.7649 O   0  0  0  0  0  0  0  0  0  0  0  0
  -11.7725   -5.1879   -4.8317 O   0  0  0  0  0  0  0  0  0  0  0  0
  1  2  1  0  0  0  0
  1 22  1  6  0  0  0
  1 10  1  0  0  0  0
  2  3  1  0  0  0  0
  2  7  1  6  0  0  0
  3  4  1  0  0  0  0
  3  8  1  1  0  0  0
  4  5  1  0  0  0  0
  4  9  1  6  0  0  0
  5  6  1  1  0  0  0
  5 10  1  0  0  0  0
  6 11  1  0  0  0  0
 12 13  1  0  0  0  0
 12 17  1  0  0  0  0
 12 18  1  1  0  0  0
 13 14  1  0  0  0  0
 14 15  1  0  0  0  0
 14 19  1  1  0  0  0
 15 16  1  0  0  0  0
 15 21  1  6  0  0  0
 16 17  1  0  0  0  0
 16 20  1  1  0  0  0
 17 22  1  6  0  0  0
 23 21  1  6  0  0  0
 23 24  1  0  0  0  0
 23 32  1  0  0  0  0
 24 25  1  0  0  0  0
 24 29  1  6  0  0  0
 25 26  1  0  0  0  0
 26 27  1  0  0  0  0
 26 31  1  6  0  0  0
 27 28  1  1  0  0  0
 27 32  1  0  0  0  0
 28 30  1  0  0  0  0
M  CHG  5   8   1  18   1  19   1  29   1  30   1
M  END
>  <CHROM.1>
-157.08844314,-39.38203766,179.87358501,73.90811402,-158.47505301,-62.38845344
130.48510657,65.94824713,-152.36672161,64.86614703,-179.68396090,164.48490713
-37.67234909,65.68539714,169.44427859,83.30773129,-10.35018949,-3.15533018
-7.07126664,0.98291207,0.20013056,-0.27275558

>  <Name>
2tob cryst

>  <RI>
0

>  <Rbt.Current_Directory>
/home/itssahil/PROJECTS/Mol_Feturizer/New_Systems/rnas/2tob

>  <Rbt.Executable>
rbdock ($Id: //depot/dev/client3/rdock/2013.1/src/exe/rbdock.cxx#4 $)

>  <Rbt.Library>
libRbt.so (2013.1, Build901 2013/11/27)

>  <Rbt.Parameter_File>
/export/apps/rDock/src/rDock_2013.1_src/data/scripts/dock_solv.prm

>  <Rbt.Receptor>
prm/pocket_docking_5.prm

>  <SCORE>
-47.5521

>  <SCORE.INTER>
-31.4916

>  <SCORE.INTER.CONST>
1

>  <SCORE.INTER.POLAR>
-3.87131

>  <SCORE.INTER.ROT>
6

>  <SCORE.INTER.SOLV>
30.2933

>  <SCORE.INTER.VDW>
-25.7878

>  <SCORE.INTER.norm>
-0.984113

>  <SCORE.INTRA>
-16.0605

>  <SCORE.INTRA.DIHEDRAL>
-1.02398

>  <SCORE.INTRA.DIHEDRAL.0>
18.4221

>  <SCORE.INTRA.POLAR>
1.0687

>  <SCORE.INTRA.POLAR.0>
-1.57101

>  <SCORE.INTRA.REPUL>
-0.693912

>  <SCORE.INTRA.REPUL.0>
0.730195

>  <SCORE.INTRA.SOLV>
-7.45066

>  <SCORE.INTRA.SOLV.lig_0>
-127.221

>  <SCORE.INTRA.VDW>
-11.9872

>  <SCORE.INTRA.VDW.0>
10.8385

>  <SCORE.INTRA.norm>
-0.501891

>  <SCORE.RESTR>
0

>  <SCORE.RESTR.CAVITY>
0

>  <SCORE.RESTR.norm>
0

>  <SCORE.SYSTEM>
0

>  <SCORE.SYSTEM.CONST>
0

>  <SCORE.SYSTEM.DIHEDRAL>
0

>  <SCORE.SYSTEM.SOLV>
0

>  <SCORE.SYSTEM.norm>
0

>  <SCORE.heavy>
32

>  <SCORE.norm>
-1.486

>  <RMSD>
2.055

$$$$
2tob cryst
 OpenBabel11021811463D
libRbt.so/2013.1/901 2013/11/27
 32 34  0  0  0  0  0  0  0  0999 V2000
   -9.1449   -0.4958   -7.5330 C   0  0  2  0  0  0  0  0  0  0  0  0
   -9.0862    0.9412   -8.0413 C   0  0  1  0  0  0  0  0  0  0  0  0
   -8.3545    0.9629   -9.3836 C   0  0  2  0  0  0  0  0  0  0  0  0
   -6.9706    0.3113   -9.2620 C   0  0  1  0  0  0  0  0  0  0  0  0
   -7.0994   -1.0772   -8.6262 C   0  0  1  0  0  0  0  0  0  0  0  0
   -5.7722   -1.7541   -8.3253 C   0  0  0  0  0  0  0  0  0  0  0  0
  -10.4054    1.4558   -8.2016 O   0  0  0  0  0  0  0  0  0  0  0  0
   -8.1719    2.2909  -10.0507 N   0  3  0  0  0  0  0  0  0  0  0  0
   -6.3971    0.1987  -10.5585 O   0  0  0  0  0  0  0  0  0  0  0  0
   -7.8247   -0.9829   -7.3839 O   0  0  0  0  0  0  0  0  0  0  0  0
   -5.9171   -3.1706   -8.3125 O   0  0  0  0  0  0  0  0  0  0  0  0
  -12.1775   -1.6752   -9.0085 C   0  0  2  0  0  0  0  0  0  0  0  0
  -13.4155   -2.5606   -8.8117 C   0  0  0  0  0  0  0  0  0  0  0  0
  -13.0536   -4.0374   -8.6802 C   0  0  1  0  0  0  0  0  0  0  0  0
  -12.0814   -4.1932   -7.5189 C   0  0  2  0  0  0  0  0  0  0  0  0
  -10.7856   -3.4420   -7.8346 C   0  0  1  0  0  0  0  0  0  0  0  0
  -11.0588   -1.9353   -7.9874 C   0  0  1  0  0  0  0  0  0  0  0  0
  -12.5537   -0.2222   -8.9597 N   0  3  0  0  0  0  0  0  0  0  0  0
  -14.2804   -4.8767   -8.4834 N   0  3  0  0  0  0  0  0  0  0  0  0
   -9.8439   -3.6688   -6.7935 O   0  0  0  0  0  0  0  0  0  0  0  0
  -11.7984   -5.5842   -7.2813 O   0  0  0  0  0  0  0  0  0  0  0  0
   -9.8673   -1.2683   -8.4535 O   0  0  0  0  0  0  0  0  0  0  0  0
  -11.2821   -5.8376   -6.0039 C   0  0  2  0  0  0  0  0  0  0  0  0
  -11.0514   -7.3417   -5.8234 C   0  0  1  0  0  0  0  0  0  0  0  0
  -12.3757   -8.0804   -5.6276 C   0  0  0  0  0  0  0  0  0  0  0  0
  -13.1450   -7.4228   -4.4934 C   0  0  1  0  0  0  0  0  0  0  0  0
  -13.3744   -5.9592   -4.8282 C   0  0  1  0  0  0  0  0  0  0  0  0
  -14.1458   -5.2469   -3.7320 C   0  0  0  0  0  0  0  0  0  0  0  0
  -10.3545   -7.8880   -7.0315 N   0  3  0  0  0  0  0  0  0  0  0  0
  -13.2682   -5.1825   -2.5119 N   0  3  0  0  0  0  0  0  0  0  0  0
  -14.3907   -8.0768   -4.2971 O   0  0  0  0  0  0  0  0  0  0  0  0
  -12.1049   -5.3005   -4.9738 O   0  0  0  0  0  0  0  0  0  0  0  0
  1  2  1  0  0  0  0
  1 22  1  6  0  0  0
  1 10  1  0  0  0  0
  2  3  1  0  0  0  0
  2  7  1  6  0  0  0
  3  4  1  0  0  0  0
  3  8  1  1  0  0  0
  4  5  1  0  0  0  0
  4  9  1  6  0  0  0
  5  6  1  1  0  0  0
  5 10  1  0  0  0  0
  6 11  1  0  0  0  0
 12 13  1  0  0  0  0
 12 17  1  0  0  0  0
 12 18  1  1  0  0  0
 13 14  1  0  0  0  0
 14 15  1  0  0  0  0
 14 19  1  1  0  0  0
 15 16  1  0  0  0  0
 15 21  1  6  0  0  0
 16 17  1  0  0  0  0
 16 20  1  1  0  0  0
 17 22  1  6  0  0  0
 23 21  1  6  0  0  0
 23 24  1  0  0  0  0
 23 32  1  0  0  0  0
 24 25  1  0  0  0  0
 24 29  1  6  0  0  0
 25 26  1  0  0  0  0
 26 27  1  0  0  0  0
 26 31  1  6  0  0  0
 27 28  1  1  0  0  0
 27 32  1  0  0  0  0
 28 30  1  0  0  0  0
M  CHG  5   8   1  18   1  19   1  29   1  30   1
M  END
>  <CHROM.1>
-120.51150506,69.39538458,-92.66852490,179.42375765,-154.23982055,-167.54697920
1.80690757,-63.06986964,-160.49110119,-57.31681056,133.03297661,178.27609038
66.01845096,174.43337989,67.35954799,54.87099928,-10.66238308,-3.15101913
-7.33361720,0.99731713,0.11171728,-0.44682283

>  <Name>
2tob cryst

>  <RI>
0

>  <Rbt.Current_Directory>
/home/itssahil/PROJECTS/Mol_Feturizer/New_Systems/rnas/2tob

>  <Rbt.Executable>
rbdock ($Id: //depot/dev/client3/rdock/2013.1/src/exe/rbdock.cxx#4 $)

>  <Rbt.Library>
libRbt.so (2013.1, Build901 2013/11/27)

>  <Rbt.Parameter_File>
/export/apps/rDock/src/rDock_2013.1_src/data/scripts/dock_solv.prm

>  <Rbt.Receptor>
prm/pocket_docking_5.prm

>  <SCORE>
-64.3492

>  <SCORE.INTER>
-49.6714

>  <SCORE.INTER.CONST>
1

>  <SCORE.INTER.POLAR>
-7.75842

>  <SCORE.INTER.ROT>
6

>  <SCORE.INTER.SOLV>
29.7005

>  <SCORE.INTER.VDW>
-24.7531

>  <SCORE.INTER.norm>
-1.55223

>  <SCORE.INTRA>
-14.6778

>  <SCORE.INTRA.DIHEDRAL>
6.38692

>  <SCORE.INTRA.DIHEDRAL.0>
18.4221

>  <SCORE.INTRA.POLAR>
0.801244

>  <SCORE.INTRA.POLAR.0>
-1.57101

>  <SCORE.INTRA.REPUL>
-0.701935

>  <SCORE.INTRA.REPUL.0>
0.730195

>  <SCORE.INTRA.SOLV>
-6.51824

>  <SCORE.INTRA.SOLV.lig_0>
-127.221

>  <SCORE.INTRA.VDW>
-13.8267

>  <SCORE.INTRA.VDW.0>
10.8385

>  <SCORE.INTRA.norm>
-0.45868

>  <SCORE.RESTR>
0

>  <SCORE.RESTR.CAVITY>
0

>  <SCORE.RESTR.norm>
0

>  <SCORE.SYSTEM>
0

>  <SCORE.SYSTEM.CONST>
0

>  <SCORE.SYSTEM.DIHEDRAL>
0

>  <SCORE.SYSTEM.SOLV>
0

>  <SCORE.SYSTEM.norm>
0

>  <SCORE.heavy>
32

>  <SCORE.norm>
-2.01091

>  <RMSD>
2.102

$$$$
2tob cryst
 OpenBabel11021811463D
libRbt.so/2013.1/901 2013/11/27
 32 34  0  0  0  0  0  0  0  0999 V2000
   -7.8428   -0.6185   -7.6529 C   0  0  2  0  0  0  0  0  0  0  0  0
   -8.2550    0.8489   -7.5908 C   0  0  1  0  0  0  0  0  0  0  0  0
   -8.0872    1.4701   -8.9777 C   0  0  2  0  0  0  0  0  0  0  0  0
   -6.6574    1.2688   -9.4972 C   0  0  1  0  0  0  0  0  0  0  0  0
   -6.2715   -0.2118   -9.4087 C   0  0  1  0  0  0  0  0  0  0  0  0
   -4.8225   -0.5037   -9.7626 C   0  0  0  0  0  0  0  0  0  0  0  0
   -9.6136    0.9563   -7.1742 O   0  0  0  0  0  0  0  0  0  0  0  0
   -8.4240    2.9209   -9.1313 N   0  3  0  0  0  0  0  0  0  0  0  0
   -6.5907    1.7064  -10.8486 O   0  0  0  0  0  0  0  0  0  0  0  0
   -6.4927   -0.6975   -8.0695 O   0  0  0  0  0  0  0  0  0  0  0  0
   -4.6333   -1.8914  -10.0200 O   0  0  0  0  0  0  0  0  0  0  0  0
  -11.0347   -1.3149   -9.1029 C   0  0  2  0  0  0  0  0  0  0  0  0
  -12.4041   -1.9714   -8.8818 C   0  0  0  0  0  0  0  0  0  0  0  0
  -12.2966   -3.4827   -8.6981 C   0  0  1  0  0  0  0  0  0  0  0  0
  -11.3633   -3.7600   -7.5275 C   0  0  2  0  0  0  0  0  0  0  0  0
   -9.9596   -3.2495   -7.8626 C   0  0  1  0  0  0  0  0  0  0  0  0
   -9.9748   -1.7246   -8.0682 C   0  0  1  0  0  0  0  0  0  0  0  0
  -11.1603    0.1816   -9.1057 N   0  3  0  0  0  0  0  0  0  0  0  0
  -13.6472   -4.0957   -8.4785 N   0  3  0  0  0  0  0  0  0  0  0  0
   -9.0686   -3.5959   -6.8099 O   0  0  0  0  0  0  0  0  0  0  0  0
  -11.3188   -5.1698   -7.2412 O   0  0  0  0  0  0  0  0  0  0  0  0
   -8.6883   -1.2847   -8.5512 O   0  0  0  0  0  0  0  0  0  0  0  0
  -10.7962   -5.4652   -5.9754 C   0  0  2  0  0  0  0  0  0  0  0  0
  -10.7282   -6.9835   -5.7804 C   0  0  1  0  0  0  0  0  0  0  0  0
  -12.1197   -7.5684   -5.5370 C   0  0  0  0  0  0  0  0  0  0  0  0
  -12.7776   -6.8171   -4.3908 C   0  0  1  0  0  0  0  0  0  0  0  0
  -12.8534   -5.3408   -4.7395 C   0  0  1  0  0  0  0  0  0  0  0  0
  -13.5083   -4.5354   -3.6321 C   0  0  0  0  0  0  0  0  0  0  0  0
  -10.1322   -7.6168   -6.9999 N   0  3  0  0  0  0  0  0  0  0  0  0
  -12.5582   -4.4880   -2.4668 N   0  3  0  0  0  0  0  0  0  0  0  0
  -14.0817   -7.3265   -4.1502 O   0  0  0  0  0  0  0  0  0  0  0  0
  -11.5236   -4.8288   -4.9302 O   0  0  0  0  0  0  0  0  0  0  0  0
  1  2  1  0  0  0  0
  1 22  1  6  0  0  0
  1 10  1  0  0  0  0
  2  3  1  0  0  0  0
  2  7  1  6  0  0  0
  3  4  1  0  0  0  0
  3  8  1  1  0  0  0
  4  5  1  0  0  0  0
  4  9  1  6  0  0  0
  5  6  1  1  0  0  0
  5 10  1  0  0  0  0
  6 11  1  0  0  0  0
 12 13  1  0  0  0  0
 12 17  1  0  0  0  0
 12 18  1  1  0  0  0
 13 14  1  0  0  0  0
 14 15  1  0  0  0  0
 14 19  1  1  0  0  0
 15 16  1  0  0  0  0
 15 21  1  6  0  0  0
 16 17  1  0  0  0  0
 16 20  1  1  0  0  0
 17 22  1  6  0  0  0
 23 21  1  6  0  0  0
 23 24  1  0  0  0  0
 23 32  1  0  0  0  0
 24 25  1  0  0  0  0
 24 29  1  6  0  0  0
 25 26  1  0  0  0  0
 26 27  1  0  0  0  0
 26 31  1  6  0  0  0
 27 28  1  1  0  0  0
 27 32  1  0  0  0  0
 28 30  1  0  0  0  0
M  CHG  5   8   1  18   1  19   1  29   1  30   1
M  END
>  <CHROM.1>
-82.37059625,176.23772498,138.07052790,170.79304767,-163.82249428,165.87268247
-45.51991055,-68.68538784,-163.14012505,-178.48592642,133.28170651,-177.50519050
-54.69903105,-56.58982434,70.62201793,45.61109129,-9.98083746,-2.64538923
-7.41180730,-0.93351686,-0.33316006,2.82060934

>  <Name>
2tob cryst

>  <RI>
3.35201e+07

>  <Rbt.Current_Directory>
/home/itssahil/PROJECTS/Mol_Feturizer/New_Systems/rnas/2tob

>  <Rbt.Executable>
rbdock ($Id: //depot/dev/client3/rdock/2013.1/src/exe/rbdock.cxx#4 $)

>  <Rbt.Library>
libRbt.so (2013.1, Build901 2013/11/27)

>  <Rbt.Parameter_File>
/export/apps/rDock/src/rDock_2013.1_src/data/scripts/dock_solv.prm

>  <Rbt.Receptor>
prm/pocket_docking_4.prm

>  <SCORE>
-65.5544

>  <SCORE.INTER>
-48.7742

>  <SCORE.INTER.CONST>
1

>  <SCORE.INTER.POLAR>
-7.06189

>  <SCORE.INTER.ROT>
6

>  <SCORE.INTER.SOLV>
30.2255

>  <SCORE.INTER.VDW>
-26.6517

>  <SCORE.INTER.norm>
-1.5242

>  <SCORE.INTRA>
-16.7802

>  <SCORE.INTRA.DIHEDRAL>
-1.5219

>  <SCORE.INTRA.DIHEDRAL.0>
18.4221

>  <SCORE.INTRA.POLAR>
1.00644

>  <SCORE.INTRA.POLAR.0>
-1.57101

>  <SCORE.INTRA.REPUL>
-0.730195

>  <SCORE.INTRA.REPUL.0>
0.730195

>  <SCORE.INTRA.SOLV>
-3.47408

>  <SCORE.INTRA.SOLV.lig_0>
-127.221

>  <SCORE.INTRA.VDW>
-14.0531

>  <SCORE.INTRA.VDW.0>
10.8385

>  <SCORE.INTRA.norm>
-0.52438

>  <SCORE.RESTR>
0

>  <SCORE.RESTR.CAVITY>
0

>  <SCORE.RESTR.norm>
0

>  <SCORE.SYSTEM>
0

>  <SCORE.SYSTEM.CONST>
0

>  <SCORE.SYSTEM.DIHEDRAL>
0

>  <SCORE.SYSTEM.SOLV>
0

>  <SCORE.SYSTEM.norm>
0

>  <SCORE.heavy>
32

>  <SCORE.norm>
-2.04858

>  <RMSD>
2.122

$$$$
2tob cryst
 OpenBabel11021811463D
libRbt.so/2013.1/901 2013/11/27
 32 34  0  0  0  0  0  0  0  0999 V2000
   -7.9507   -1.4090   -7.3926 C   0  0  2  0  0  0  0  0  0  0  0  0
   -8.2979   -0.1169   -6.6598 C   0  0  1  0  0  0  0  0  0  0  0  0
   -8.2583    1.0434   -7.6548 C   0  0  2  0  0  0  0  0  0  0  0  0
   -6.9022    1.1037   -8.3702 C   0  0  1  0  0  0  0  0  0  0  0  0
   -6.5653   -0.2655   -8.9707 C   0  0  1  0  0  0  0  0  0  0  0  0
   -5.1754   -0.3581   -9.5788 C   0  0  0  0  0  0  0  0  0  0  0  0
   -9.5981   -0.2167   -6.0851 O   0  0  0  0  0  0  0  0  0  0  0  0
   -8.5546    2.4144   -7.1310 N   0  3  0  0  0  0  0  0  0  0  0  0
   -6.9662    2.0816   -9.4006 O   0  0  0  0  0  0  0  0  0  0  0  0
   -6.6579   -1.2836   -7.9542 O   0  0  0  0  0  0  0  0  0  0  0  0
   -4.8901   -1.6911   -9.9906 O   0  0  0  0  0  0  0  0  0  0  0  0
  -11.2341   -1.7321   -9.0319 C   0  0  2  0  0  0  0  0  0  0  0  0
  -12.5806   -2.4565   -8.9004 C   0  0  0  0  0  0  0  0  0  0  0  0
  -12.4136   -3.9697   -8.7931 C   0  0  1  0  0  0  0  0  0  0  0  0
  -11.5135   -4.2713   -7.6028 C   0  0  2  0  0  0  0  0  0  0  0  0
  -10.1220   -3.6850   -7.8543 C   0  0  1  0  0  0  0  0  0  0  0  0
  -10.1965   -2.1530   -7.9792 C   0  0  1  0  0  0  0  0  0  0  0  0
  -11.4251   -0.2442   -8.9602 N   0  3  0  0  0  0  0  0  0  0  0  0
  -13.7432   -4.6499   -8.6601 N   0  3  0  0  0  0  0  0  0  0  0  0
   -9.2566   -4.0508   -6.7870 O   0  0  0  0  0  0  0  0  0  0  0  0
  -11.4177   -5.6916   -7.3902 O   0  0  0  0  0  0  0  0  0  0  0  0
   -8.9135   -1.6338   -8.3866 O   0  0  0  0  0  0  0  0  0  0  0  0
  -11.4799   -6.0584   -6.0395 C   0  0  2  0  0  0  0  0  0  0  0  0
  -10.7835   -7.4075   -5.8326 C   0  0  1  0  0  0  0  0  0  0  0  0
  -11.6410   -8.5553   -6.3663 C   0  0  0  0  0  0  0  0  0  0  0  0
  -13.0276   -8.4637   -5.7500 C   0  0  1  0  0  0  0  0  0  0  0  0
  -13.6376   -7.1152   -6.0910 C   0  0  1  0  0  0  0  0  0  0  0  0
  -15.0303   -6.9651   -5.5061 C   0  0  0  0  0  0  0  0  0  0  0  0
   -9.4656   -7.4027   -6.5444 N   0  3  0  0  0  0  0  0  0  0  0  0
  -14.8926   -6.7678   -4.0212 N   0  3  0  0  0  0  0  0  0  0  0  0
  -13.8559   -9.5088   -6.2398 O   0  0  0  0  0  0  0  0  0  0  0  0
  -12.8150   -6.0701   -5.5453 O   0  0  0  0  0  0  0  0  0  0  0  0
  1  2  1  0  0  0  0
  1 22  1  6  0  0  0
  1 10  1  0  0  0  0
  2  3  1  0  0  0  0
  2  7  1  6  0  0  0
  3  4  1  0  0  0  0
  3  8  1  1  0  0  0
  4  5  1  0  0  0  0
  4  9  1  6  0  0  0
  5  6  1  1  0  0  0
  5 10  1  0  0  0  0
  6 11  1  0  0  0  0
 12 13  1  0  0  0  0
 12 17  1  0  0  0  0
 12 18  1  1  0  0  0
 13 14  1  0  0  0  0
 14 15  1  0  0  0  0
 14 19  1  1  0  0  0
 15 16  1  0  0  0  0
 15 21  1  6  0  0  0
 16 17  1  0  0  0  0
 16 20  1  1  0  0  0
 17 22  1  6  0  0  0
 23 21  1  6  0  0  0
 23 24  1  0  0  0  0
 23 32  1  0  0  0  0
 24 25  1  0  0  0  0
 24 29  1  6  0  0  0
 25 26  1  0  0  0  0
 26 27  1  0  0  0  0
 26 31  1  6  0  0  0
 27 28  1  1  0  0  0
 27 32  1  0  0  0  0
 28 30  1  0  0  0  0
M  CHG  5   8   1  18   1  19   1  29   1  30   1
M  END
>  <CHROM.1>
-77.36688602,-169.72356252,178.10046592,77.11918935,174.10123539,171.18281551
179.03675256,63.70810631,-138.13862313,68.78830692,154.86401153,-155.27203689
-36.73996089,174.90301562,73.14053387,-170.88759775,-10.28677760,-3.34385881
-7.41295083,-0.93507289,-0.17487968,2.96149055

>  <Name>
2tob cryst

>  <RI>
2.9538e+07

>  <Rbt.Current_Directory>
/home/itssahil/PROJECTS/Mol_Feturizer/New_Systems/rnas/2tob

>  <Rbt.Executable>
rbdock ($Id: //depot/dev/client3/rdock/2013.1/src/exe/rbdock.cxx#4 $)

>  <Rbt.Library>
libRbt.so (2013.1, Build901 2013/11/27)

>  <Rbt.Parameter_File>
/export/apps/rDock/src/rDock_2013.1_src/data/scripts/dock_solv.prm

>  <Rbt.Receptor>
prm/pocket_docking_2.prm

>  <SCORE>
-57.9223

>  <SCORE.INTER>
-42.8896

>  <SCORE.INTER.CONST>
1

>  <SCORE.INTER.POLAR>
-5.61884

>  <SCORE.INTER.ROT>
6

>  <SCORE.INTER.SOLV>
30.8341

>  <SCORE.INTER.VDW>
-27.7416

>  <SCORE.INTER.norm>
-1.3403

>  <SCORE.INTRA>
-15.9594

>  <SCORE.INTRA.DIHEDRAL>
-0.980492

>  <SCORE.INTRA.DIHEDRAL.0>
18.4221

>  <SCORE.INTRA.POLAR>
1.39721

>  <SCORE.INTRA.POLAR.0>
-1.57101

>  <SCORE.INTRA.REPUL>
-0.730195

>  <SCORE.INTRA.REPUL.0>
0.730195

>  <SCORE.INTRA.SOLV>
-2.39672

>  <SCORE.INTRA.SOLV.lig_0>
-127.221

>  <SCORE.INTRA.VDW>
-15.3703

>  <SCORE.INTRA.VDW.0>
10.8385

>  <SCORE.INTRA.norm>
-0.498731

>  <SCORE.RESTR>
0.926711

>  <SCORE.RESTR.CAVITY>
0.926711

>  <SCORE.RESTR.norm>
0.0289597

>  <SCORE.SYSTEM>
0

>  <SCORE.SYSTEM.CONST>
0

>  <SCORE.SYSTEM.DIHEDRAL>
0

>  <SCORE.SYSTEM.SOLV>
0

>  <SCORE.SYSTEM.norm>
0

>  <SCORE.heavy>
32

>  <SCORE.norm>
-1.81007

>  <RMSD>
2.123

$$$$
2tob cryst
 OpenBabel11021811463D
libRbt.so/2013.1/901 2013/11/27
 32 34  0  0  0  0  0  0  0  0999 V2000
   -7.8300   -1.4239   -7.9025 C   0  0  2  0  0  0  0  0  0  0  0  0
   -8.0690   -0.3213   -6.8758 C   0  0  1  0  0  0  0  0  0  0  0  0
   -8.2320    1.0110   -7.6079 C   0  0  2  0  0  0  0  0  0  0  0  0
   -7.0263    1.2865   -8.5162 C   0  0  1  0  0  0  0  0  0  0  0  0
   -6.7722    0.0820   -9.4291 C   0  0  1  0  0  0  0  0  0  0  0  0
   -5.5110    0.1888  -10.2706 C   0  0  0  0  0  0  0  0  0  0  0  0
   -9.2438   -0.6049   -6.1207 O   0  0  0  0  0  0  0  0  0  0  0  0
   -8.4599    2.2345   -6.7754 N   0  3  0  0  0  0  0  0  0  0  0  0
   -7.2936    2.4414   -9.3017 O   0  0  0  0  0  0  0  0  0  0  0  0
   -6.6606   -1.1183   -8.6386 O   0  0  0  0  0  0  0  0  0  0  0  0
   -4.3818   -0.3035   -9.5562 O   0  0  0  0  0  0  0  0  0  0  0  0
  -11.3330   -1.4501   -9.0969 C   0  0  2  0  0  0  0  0  0  0  0  0
  -12.7008   -2.0635   -8.7685 C   0  0  0  0  0  0  0  0  0  0  0  0
  -12.6300   -3.5798   -8.6096 C   0  0  1  0  0  0  0  0  0  0  0  0
  -11.6125   -3.9028   -7.5240 C   0  0  2  0  0  0  0  0  0  0  0  0
  -10.2250   -3.4350   -7.9702 C   0  0  1  0  0  0  0  0  0  0  0  0
  -10.2052   -1.9079   -8.1587 C   0  0  1  0  0  0  0  0  0  0  0  0
  -11.4072    0.0497   -9.0743 N   0  3  0  0  0  0  0  0  0  0  0  0
  -13.9777   -4.1504   -8.2839 N   0  3  0  0  0  0  0  0  0  0  0  0
   -9.2617   -3.8242   -6.9993 O   0  0  0  0  0  0  0  0  0  0  0  0
  -11.5925   -5.3169   -7.2564 O   0  0  0  0  0  0  0  0  0  0  0  0
   -8.9491   -1.5047   -8.7432 O   0  0  0  0  0  0  0  0  0  0  0  0
  -11.6193   -5.6260   -5.8903 C   0  0  2  0  0  0  0  0  0  0  0  0
  -10.7743   -6.8757   -5.6214 C   0  0  1  0  0  0  0  0  0  0  0  0
  -11.4922   -8.1373   -6.1015 C   0  0  0  0  0  0  0  0  0  0  0  0
  -12.8834   -8.1769   -5.4900 C   0  0  1  0  0  0  0  0  0  0  0  0
  -13.6417   -6.9241   -5.8927 C   0  0  1  0  0  0  0  0  0  0  0  0
  -15.0455   -6.9077   -5.3154 C   0  0  0  0  0  0  0  0  0  0  0  0
   -9.4619   -6.7528   -6.3327 N   0  3  0  0  0  0  0  0  0  0  0  0
  -15.8600   -7.9422   -6.0430 N   0  3  0  0  0  0  0  0  0  0  0  0
  -13.5841   -9.3312   -5.9309 O   0  0  0  0  0  0  0  0  0  0  0  0
  -12.9468   -5.7678   -5.3959 O   0  0  0  0  0  0  0  0  0  0  0  0
  1  2  1  0  0  0  0
  1 22  1  6  0  0  0
  1 10  1  0  0  0  0
  2  3  1  0  0  0  0
  2  7  1  6  0  0  0
  3  4  1  0  0  0  0
  3  8  1  1  0  0  0
  4  5  1  0  0  0  0
  4  9  1  6  0  0  0
  5  6  1  1  0  0  0
  5 10  1  0  0  0  0
  6 11  1  0  0  0  0
 12 13  1  0  0  0  0
 12 17  1  0  0  0  0
 12 18  1  1  0  0  0
 13 14  1  0  0  0  0
 14 15  1  0  0  0  0
 14 19  1  1  0  0  0
 15 16  1  0  0  0  0
 15 21  1  6  0  0  0
 16 17  1  0  0  0  0
 16 20  1  1  0  0  0
 17 22  1  6  0  0  0
 23 21  1  6  0  0  0
 23 24  1  0  0  0  0
 23 32  1  0  0  0  0
 24 25  1  0  0  0  0
 24 29  1  6  0  0  0
 25 26  1  0  0  0  0
 26 27  1  0  0  0  0
 26 31  1  6  0  0  0
 27 28  1  1  0  0  0
 27 32  1  0  0  0  0
 28 30  1  0  0  0  0
M  CHG  5   8   1  18   1  19   1  29   1  30   1
M  END
>  <CHROM.1>
-64.75882292,63.12999620,60.18927390,-65.14296890,87.14322034,58.60963015
-59.25412867,63.49349761,-133.35413335,175.64040371,160.08201139,-144.93650169
-121.17006284,63.08203191,-71.32104658,50.44411037,-10.33102081,-3.12123173
-7.48232901,-0.93027402,-0.01555674,2.83339291

>  <Name>
2tob cryst

>  <RI>
2.10184e+07

>  <Rbt.Current_Directory>
/home/itssahil/PROJECTS/Mol_Feturizer/New_Systems/rnas/2tob

>  <Rbt.Executable>
rbdock ($Id: //depot/dev/client3/rdock/2013.1/src/exe/rbdock.cxx#4 $)

>  <Rbt.Library>
libRbt.so (2013.1, Build901 2013/11/27)

>  <Rbt.Parameter_File>
/export/apps/rDock/src/rDock_2013.1_src/data/scripts/dock_solv.prm

>  <Rbt.Receptor>
prm/pocket_docking_7.prm

>  <SCORE>
-51.9228

>  <SCORE.INTER>
-33.0315

>  <SCORE.INTER.CONST>
1

>  <SCORE.INTER.POLAR>
-3.99466

>  <SCORE.INTER.ROT>
6

>  <SCORE.INTER.SOLV>
29.9726

>  <SCORE.INTER.VDW>
-26.2964

>  <SCORE.INTER.norm>
-1.03223

>  <SCORE.INTRA>
-18.8912

>  <SCORE.INTRA.DIHEDRAL>
1.3623

>  <SCORE.INTRA.DIHEDRAL.0>
18.4221

>  <SCORE.INTRA.POLAR>
-0.467966

>  <SCORE.INTRA.POLAR.0>
-1.57101

>  <SCORE.INTRA.REPUL>
-0.730195

>  <SCORE.INTRA.REPUL.0>
0.730195

>  <SCORE.INTRA.SOLV>
-2.61335

>  <SCORE.INTRA.SOLV.lig_0>
-127.221

>  <SCORE.INTRA.VDW>
-13.0237

>  <SCORE.INTRA.VDW.0>
10.8385

>  <SCORE.INTRA.norm>
-0.590352

>  <SCORE.RESTR>
0

>  <SCORE.RESTR.CAVITY>
0

>  <SCORE.RESTR.norm>
0

>  <SCORE.SYSTEM>
0

>  <SCORE.SYSTEM.CONST>
0

>  <SCORE.SYSTEM.DIHEDRAL>
0

>  <SCORE.SYSTEM.SOLV>
0

>  <SCORE.SYSTEM.norm>
0

>  <SCORE.heavy>
32

>  <SCORE.norm>
-1.62259

>  <RMSD>
2.123

$$$$
2tob cryst
 OpenBabel11021811463D
libRbt.so/2013.1/901 2013/11/27
 32 34  0  0  0  0  0  0  0  0999 V2000
   -8.5637   -0.1314   -7.3145 C   0  0  2  0  0  0  0  0  0  0  0  0
   -8.2786    1.3251   -7.6669 C   0  0  1  0  0  0  0  0  0  0  0  0
   -7.6653    1.3858   -9.0661 C   0  0  2  0  0  0  0  0  0  0  0  0
   -6.4222    0.4908   -9.1572 C   0  0  1  0  0  0  0  0  0  0  0  0
   -6.7568   -0.9220   -8.6662 C   0  0  1  0  0  0  0  0  0  0  0  0
   -5.5596   -1.8541   -8.5769 C   0  0  0  0  0  0  0  0  0  0  0  0
   -9.4870    2.0798   -7.6355 O   0  0  0  0  0  0  0  0  0  0  0  0
   -7.2920    2.7339   -9.6000 N   0  3  0  0  0  0  0  0  0  0  0  0
   -5.9855    0.4425  -10.5096 O   0  0  0  0  0  0  0  0  0  0  0  0
   -7.3501   -0.8580   -7.3539 O   0  0  0  0  0  0  0  0  0  0  0  0
   -4.9111   -1.9685   -9.8395 O   0  0  0  0  0  0  0  0  0  0  0  0
  -11.8008   -0.2743   -8.8095 C   0  0  2  0  0  0  0  0  0  0  0  0
  -13.2618   -0.7045   -8.6210 C   0  0  0  0  0  0  0  0  0  0  0  0
  -13.4045   -2.2176   -8.4820 C   0  0  1  0  0  0  0  0  0  0  0  0
  -12.5455   -2.6765   -7.3118 C   0  0  2  0  0  0  0  0  0  0  0  0
  -11.0728   -2.3928   -7.6182 C   0  0  1  0  0  0  0  0  0  0  0  0
  -10.8365   -0.8806   -7.7779 C   0  0  1  0  0  0  0  0  0  0  0  0
  -11.6808    1.2221   -8.7682 N   0  3  0  0  0  0  0  0  0  0  0  0
  -14.8399   -2.6079   -8.2936 N   0  3  0  0  0  0  0  0  0  0  0  0
  -10.2651   -2.9096   -6.5682 O   0  0  0  0  0  0  0  0  0  0  0  0
  -12.7353   -4.0822   -7.0677 O   0  0  0  0  0  0  0  0  0  0  0  0
   -9.4889   -0.6432   -8.2353 O   0  0  0  0  0  0  0  0  0  0  0  0
  -12.5264   -4.4491   -5.7319 C   0  0  2  0  0  0  0  0  0  0  0  0
  -11.8923   -5.8426   -5.6667 C   0  0  1  0  0  0  0  0  0  0  0  0
  -12.9192   -6.9285   -5.9888 C   0  0  0  0  0  0  0  0  0  0  0  0
  -14.1294   -6.7468   -5.0871 C   0  0  1  0  0  0  0  0  0  0  0  0
  -14.7085   -5.3593   -5.3019 C   0  0  1  0  0  0  0  0  0  0  0  0
  -15.9277   -5.1187   -4.4302 C   0  0  0  0  0  0  0  0  0  0  0  0
  -10.7633   -5.9232   -6.6477 N   0  3  0  0  0  0  0  0  0  0  0  0
  -16.5971   -3.8577   -4.9042 N   0  3  0  0  0  0  0  0  0  0  0  0
  -15.1115   -7.7323   -5.3739 O   0  0  0  0  0  0  0  0  0  0  0  0
  -13.7197   -4.3735   -4.9594 O   0  0  0  0  0  0  0  0  0  0  0  0
  1  2  1  0  0  0  0
  1 22  1  6  0  0  0
  1 10  1  0  0  0  0
  2  3  1  0  0  0  0
  2  7  1  6  0  0  0
  3  4  1  0  0  0  0
  3  8  1  1  0  0  0
  4  5  1  0  0  0  0
  4  9  1  6  0  0  0
  5  6  1  1  0  0  0
  5 10  1  0  0  0  0
  6 11  1  0  0  0  0
 12 13  1  0  0  0  0
 12 17  1  0  0  0  0
 12 18  1  1  0  0  0
 13 14  1  0  0  0  0
 14 15  1  0  0  0  0
 14 19  1  1  0  0  0
 15 16  1  0  0  0  0
 15 21  1  6  0  0  0
 16 17  1  0  0  0  0
 16 20  1  1  0  0  0
 17 22  1  6  0  0  0
 23 21  1  6  0  0  0
 23 24  1  0  0  0  0
 23 32  1  0  0  0  0
 24 25  1  0  0  0  0
 24 29  1  6  0  0  0
 25 26  1  0  0  0  0
 26 27  1  0  0  0  0
 26 31  1  6  0  0  0
 27 28  1  1  0  0  0
 27 32  1  0  0  0  0
 28 30  1  0  0  0  0
M  CHG  5   8   1  18   1  19   1  29   1  30   1
M  END
>  <CHROM.1>
-107.74447444,178.02894495,87.07250697,64.34988676,-57.61038975,166.84479704
-77.46809352,-123.52793187,-151.70293443,-174.39383870,132.37987834,-144.84970109
-81.65826519,177.60402190,-168.45491439,-175.61044272,-10.87878570,-2.21912844
-7.42695288,0.73202562,0.18809296,-0.31612765

>  <Name>
2tob cryst

>  <RI>
0

>  <Rbt.Current_Directory>
/home/itssahil/PROJECTS/Mol_Feturizer/New_Systems/rnas/2tob

>  <Rbt.Executable>
rbdock ($Id: //depot/dev/client3/rdock/2013.1/src/exe/rbdock.cxx#4 $)

>  <Rbt.Library>
libRbt.so (2013.1, Build901 2013/11/27)

>  <Rbt.Parameter_File>
/export/apps/rDock/src/rDock_2013.1_src/data/scripts/dock_solv.prm

>  <Rbt.Receptor>
prm/pocket_docking_6.prm

>  <SCORE>
-59.6978

>  <SCORE.INTER>
-43.2343

>  <SCORE.INTER.CONST>
1

>  <SCORE.INTER.POLAR>
-5.75357

>  <SCORE.INTER.ROT>
6

>  <SCORE.INTER.SOLV>
30.5091

>  <SCORE.INTER.VDW>
-27.414

>  <SCORE.INTER.norm>
-1.35107

>  <SCORE.INTRA>
-16.4904

>  <SCORE.INTRA.DIHEDRAL>
10.8969

>  <SCORE.INTRA.DIHEDRAL.0>
18.4221

>  <SCORE.INTRA.POLAR>
-0.770702

>  <SCORE.INTRA.POLAR.0>
-1.57101

>  <SCORE.INTRA.REPUL>
-0.730195

>  <SCORE.INTRA.REPUL.0>
0.730195

>  <SCORE.INTRA.SOLV>
-2.44803

>  <SCORE.INTRA.SOLV.lig_0>
-127.221

>  <SCORE.INTRA.VDW>
-14.4435

>  <SCORE.INTRA.VDW.0>
10.8385

>  <SCORE.INTRA.norm>
-0.515325

>  <SCORE.RESTR>
0.026916

>  <SCORE.RESTR.CAVITY>
0.026916

>  <SCORE.RESTR.norm>
0.000841124

>  <SCORE.SYSTEM>
0

>  <SCORE.SYSTEM.CONST>
0

>  <SCORE.SYSTEM.DIHEDRAL>
0

>  <SCORE.SYSTEM.SOLV>
0

>  <SCORE.SYSTEM.norm>
0

>  <SCORE.heavy>
32

>  <SCORE.norm>
-1.86556

>  <RMSD>
2.128

$$$$
2tob cryst
 OpenBabel11021811463D
libRbt.so/2013.1/901 2013/11/27
 32 34  0  0  0  0  0  0  0  0999 V2000
   -9.2615   -0.4981   -7.5342 C   0  0  2  0  0  0  0  0  0  0  0  0
   -9.1395    0.9111   -8.1053 C   0  0  1  0  0  0  0  0  0  0  0  0
   -8.3366    0.8516   -9.4051 C   0  0  2  0  0  0  0  0  0  0  0  0
   -6.9780    0.1754   -9.1776 C   0  0  1  0  0  0  0  0  0  0  0  0
   -7.1757   -1.1776   -8.4854 C   0  0  1  0  0  0  0  0  0  0  0  0
   -5.8840   -1.8690   -8.0809 C   0  0  0  0  0  0  0  0  0  0  0  0
  -10.4349    1.4471   -8.3615 O   0  0  0  0  0  0  0  0  0  0  0  0
   -8.0851    2.1414  -10.1227 N   0  3  0  0  0  0  0  0  0  0  0  0
   -6.3390   -0.0124  -10.4340 O   0  0  0  0  0  0  0  0  0  0  0  0
   -7.9639   -1.0072   -7.2904 O   0  0  0  0  0  0  0  0  0  0  0  0
   -5.0547   -2.0977   -9.2157 O   0  0  0  0  0  0  0  0  0  0  0  0
  -12.2704   -1.6636   -9.0081 C   0  0  2  0  0  0  0  0  0  0  0  0
  -13.5154   -2.5437   -8.8332 C   0  0  0  0  0  0  0  0  0  0  0  0
  -13.1667   -4.0275   -8.7551 C   0  0  1  0  0  0  0  0  0  0  0  0
  -12.1883   -4.2322   -7.6067 C   0  0  2  0  0  0  0  0  0  0  0  0
  -10.8875   -3.4826   -7.9054 C   0  0  1  0  0  0  0  0  0  0  0  0
  -11.1474   -1.9691   -8.0044 C   0  0  1  0  0  0  0  0  0  0  0  0
  -12.6325   -0.2097   -8.9067 N   0  3  0  0  0  0  0  0  0  0  0  0
  -14.4000   -4.8617   -8.5787 N   0  3  0  0  0  0  0  0  0  0  0  0
   -9.9411   -3.7539   -6.8794 O   0  0  0  0  0  0  0  0  0  0  0  0
  -11.9169   -5.6331   -7.4191 O   0  0  0  0  0  0  0  0  0  0  0  0
   -9.9528   -1.2975   -8.4556 O   0  0  0  0  0  0  0  0  0  0  0  0
  -11.3182   -5.9247   -6.1866 C   0  0  2  0  0  0  0  0  0  0  0  0
  -11.1046   -7.4363   -6.0549 C   0  0  1  0  0  0  0  0  0  0  0  0
  -12.4261   -8.1557   -5.7831 C   0  0  0  0  0  0  0  0  0  0  0  0
  -13.1021   -7.5105   -4.5841 C   0  0  1  0  0  0  0  0  0  0  0  0
  -13.3259   -6.0358   -4.8706 C   0  0  1  0  0  0  0  0  0  0  0  0
  -14.0055   -5.3350   -3.7083 C   0  0  0  0  0  0  0  0  0  0  0  0
  -10.5039   -7.9672   -7.3201 N   0  3  0  0  0  0  0  0  0  0  0  0
  -14.2021   -3.8921   -4.0855 N   0  3  0  0  0  0  0  0  0  0  0  0
  -14.3435   -8.1466   -4.3154 O   0  0  0  0  0  0  0  0  0  0  0  0
  -12.0571   -5.3966   -5.0903 O   0  0  0  0  0  0  0  0  0  0  0  0
  1  2  1  0  0  0  0
  1 22  1  6  0  0  0
  1 10  1  0  0  0  0
  2  3  1  0  0  0  0
  2  7  1  6  0  0  0
  3  4  1  0  0  0  0
  3  8  1  1  0  0  0
  4  5  1  0  0  0  0
  4  9  1  6  0  0  0
  5  6  1  1  0  0  0
  5 10  1  0  0  0  0
  6 11  1  0  0  0  0
 12 13  1  0  0  0  0
 12 17  1  0  0  0  0
 12 18  1  1  0  0  0
 13 14  1  0  0  0  0
 14 15  1  0  0  0  0
 14 19  1  1  0  0  0
 15 16  1  0  0  0  0
 15 21  1  6  0  0  0
 16 17  1  0  0  0  0
 16 20  1  1  0  0  0
 17 22  1  6  0  0  0
 23 21  1  6  0  0  0
 23 24  1  0  0  0  0
 23 32  1  0  0  0  0
 24 25  1  0  0  0  0
 24 29  1  6  0  0  0
 25 26  1  0  0  0  0
 26 27  1  0  0  0  0
 26 31  1  6  0  0  0
 27 28  1  1  0  0  0
 27 32  1  0  0  0  0
 28 30  1  0  0  0  0
M  CHG  5   8   1  18   1  19   1  29   1  30   1
M  END
>  <CHROM.1>
-123.61408054,-165.70784028,157.95702105,178.48669565,-58.88506465,-177.87857639
3.53297018,-179.01537368,-164.20494047,-176.18185809,129.24299990,178.30303303
-174.48189137,179.07353984,-179.27289538,-45.52949340,-10.70705199,-3.11984478
-7.47102123,0.95084077,0.15617549,-0.38147832

>  <Name>
2tob cryst

>  <RI>
3.35201e+07

>  <Rbt.Current_Directory>
/home/itssahil/PROJECTS/Mol_Feturizer/New_Systems/rnas/2tob

>  <Rbt.Executable>
rbdock ($Id: //depot/dev/client3/rdock/2013.1/src/exe/rbdock.cxx#4 $)

>  <Rbt.Library>
libRbt.so (2013.1, Build901 2013/11/27)

>  <Rbt.Parameter_File>
/export/apps/rDock/src/rDock_2013.1_src/data/scripts/dock_solv.prm

>  <Rbt.Receptor>
prm/pocket_docking_4.prm

>  <SCORE>
-69.0105

>  <SCORE.INTER>
-50.4135

>  <SCORE.INTER.CONST>
1

>  <SCORE.INTER.POLAR>
-8.02233

>  <SCORE.INTER.ROT>
6

>  <SCORE.INTER.SOLV>
28.5434

>  <SCORE.INTER.VDW>
-23.9824

>  <SCORE.INTER.norm>
-1.57542

>  <SCORE.INTRA>
-18.597

>  <SCORE.INTRA.DIHEDRAL>
3.04697

>  <SCORE.INTRA.DIHEDRAL.0>
18.4221

>  <SCORE.INTRA.POLAR>
0.15874

>  <SCORE.INTRA.POLAR.0>
-1.57101

>  <SCORE.INTRA.REPUL>
-0.730195

>  <SCORE.INTRA.REPUL.0>
0.730195

>  <SCORE.INTRA.SOLV>
-6.7435

>  <SCORE.INTRA.SOLV.lig_0>
-127.221

>  <SCORE.INTRA.VDW>
-13.6375

>  <SCORE.INTRA.VDW.0>
10.8385

>  <SCORE.INTRA.norm>
-0.581156

>  <SCORE.RESTR>
0

>  <SCORE.RESTR.CAVITY>
0

>  <SCORE.RESTR.norm>
0

>  <SCORE.SYSTEM>
0

>  <SCORE.SYSTEM.CONST>
0

>  <SCORE.SYSTEM.DIHEDRAL>
0

>  <SCORE.SYSTEM.SOLV>
0

>  <SCORE.SYSTEM.norm>
0

>  <SCORE.heavy>
32

>  <SCORE.norm>
-2.15658

>  <RMSD>
2.148

$$$$
2tob cryst
 OpenBabel11021811463D
libRbt.so/2013.1/901 2013/11/27
 32 34  0  0  0  0  0  0  0  0999 V2000
   -9.1609   -1.2874   -6.5177 C   0  0  2  0  0  0  0  0  0  0  0  0
   -8.7102    0.0870   -6.0331 C   0  0  1  0  0  0  0  0  0  0  0  0
   -8.0957    0.8498   -7.2071 C   0  0  2  0  0  0  0  0  0  0  0  0
   -6.9642    0.0393   -7.8531 C   0  0  1  0  0  0  0  0  0  0  0  0
   -7.4588   -1.3705   -8.1949 C   0  0  1  0  0  0  0  0  0  0  0  0
   -6.3769   -2.3068   -8.7078 C   0  0  0  0  0  0  0  0  0  0  0  0
   -9.8235    0.8108   -5.5160 O   0  0  0  0  0  0  0  0  0  0  0  0
   -7.5701    2.2259   -6.9390 N   0  3  0  0  0  0  0  0  0  0  0  0
   -6.5376    0.7028   -9.0363 O   0  0  0  0  0  0  0  0  0  0  0  0
   -8.0391   -1.9839   -7.0266 O   0  0  0  0  0  0  0  0  0  0  0  0
   -5.3694   -2.5058   -7.7213 O   0  0  0  0  0  0  0  0  0  0  0  0
  -12.1208   -1.7186   -8.7409 C   0  0  2  0  0  0  0  0  0  0  0  0
  -13.2094   -2.7684   -9.0016 C   0  0  0  0  0  0  0  0  0  0  0  0
  -12.6668   -4.1930   -8.9271 C   0  0  1  0  0  0  0  0  0  0  0  0
  -12.0310   -4.3948   -7.5585 C   0  0  2  0  0  0  0  0  0  0  0  0
  -10.8342   -3.4524   -7.4084 C   0  0  1  0  0  0  0  0  0  0  0  0
  -11.2915   -1.9846   -7.4747 C   0  0  1  0  0  0  0  0  0  0  0  0
  -12.7217   -0.3453   -8.6504 N   0  3  0  0  0  0  0  0  0  0  0  0
  -13.7521   -5.1962   -9.1799 N   0  3  0  0  0  0  0  0  0  0  0  0
  -10.1837   -3.7104   -6.1705 O   0  0  0  0  0  0  0  0  0  0  0  0
  -11.6055   -5.7602   -7.3967 O   0  0  0  0  0  0  0  0  0  0  0  0
  -10.1399   -1.1159   -7.5065 O   0  0  0  0  0  0  0  0  0  0  0  0
  -11.3003   -6.0955   -6.0711 C   0  0  2  0  0  0  0  0  0  0  0  0
  -10.5161   -7.4114   -6.0331 C   0  0  1  0  0  0  0  0  0  0  0  0
  -11.4318   -8.6041   -6.3099 C   0  0  0  0  0  0  0  0  0  0  0  0
  -12.6145   -8.5504   -5.3564 C   0  0  1  0  0  0  0  0  0  0  0  0
  -13.3498   -7.2352   -5.5463 C   0  0  1  0  0  0  0  0  0  0  0  0
  -14.5491   -7.1241   -4.6224 C   0  0  0  0  0  0  0  0  0  0  0  0
   -9.4285   -7.3738   -7.0623 N   0  3  0  0  0  0  0  0  0  0  0  0
  -15.0765   -5.7181   -4.7115 N   0  3  0  0  0  0  0  0  0  0  0  0
  -13.4950   -9.6383   -5.5998 O   0  0  0  0  0  0  0  0  0  0  0  0
  -12.4603   -6.1460   -5.2474 O   0  0  0  0  0  0  0  0  0  0  0  0
  1  2  1  0  0  0  0
  1 22  1  6  0  0  0
  1 10  1  0  0  0  0
  2  3  1  0  0  0  0
  2  7  1  6  0  0  0
  3  4  1  0  0  0  0
  3  8  1  1  0  0  0
  4  5  1  0  0  0  0
  4  9  1  6  0  0  0
  5  6  1  1  0  0  0
  5 10  1  0  0  0  0
  6 11  1  0  0  0  0
 12 13  1  0  0  0  0
 12 17  1  0  0  0  0
 12 18  1  1  0  0  0
 13 14  1  0  0  0  0
 14 15  1  0  0  0  0
 14 19  1  1  0  0  0
 15 16  1  0  0  0  0
 15 21  1  6  0  0  0
 16 17  1  0  0  0  0
 16 20  1  1  0  0  0
 17 22  1  6  0  0  0
 23 21  1  6  0  0  0
 23 24  1  0  0  0  0
 23 32  1  0  0  0  0
 24 25  1  0  0  0  0
 24 29  1  6  0  0  0
 25 26  1  0  0  0  0
 26 27  1  0  0  0  0
 26 31  1  6  0  0  0
 27 28  1  1  0  0  0
 27 32  1  0  0  0  0
 28 30  1  0  0  0  0
M  CHG  5   8   1  18   1  19   1  29   1  30   1
M  END
>  <CHROM.1>
-137.92923867,67.38801283,133.64915162,-55.52532260,61.90267197,63.10543984
-91.20651910,167.68977901,-166.02039317,-68.67674607,-173.22923895,-165.01972464
-37.48881462,179.54705246,170.79426719,-157.28087061,-10.58689618,-3.51635704
-7.03425938,-0.97187116,-0.00875514,2.93509713

>  <Name>
2tob cryst

>  <RI>
2.9538e+07

>  <Rbt.Current_Directory>
/home/itssahil/PROJECTS/Mol_Feturizer/New_Systems/rnas/2tob

>  <Rbt.Executable>
rbdock ($Id: //depot/dev/client3/rdock/2013.1/src/exe/rbdock.cxx#4 $)

>  <Rbt.Library>
libRbt.so (2013.1, Build901 2013/11/27)

>  <Rbt.Parameter_File>
/export/apps/rDock/src/rDock_2013.1_src/data/scripts/dock_solv.prm

>  <Rbt.Receptor>
prm/pocket_docking_2.prm

>  <SCORE>
-33.4548

>  <SCORE.INTER>
-20.0546

>  <SCORE.INTER.CONST>
1

>  <SCORE.INTER.POLAR>
-4.29527

>  <SCORE.INTER.ROT>
6

>  <SCORE.INTER.SOLV>
35.8494

>  <SCORE.INTER.VDW>
-18.602

>  <SCORE.INTER.norm>
-0.626707

>  <SCORE.INTRA>
-16.4602

>  <SCORE.INTRA.DIHEDRAL>
-1.68021

>  <SCORE.INTRA.DIHEDRAL.0>
18.4221

>  <SCORE.INTRA.POLAR>
1.15506

>  <SCORE.INTRA.POLAR.0>
-1.57101

>  <SCORE.INTRA.REPUL>
-0.730195

>  <SCORE.INTRA.REPUL.0>
0.730195

>  <SCORE.INTRA.SOLV>
-9.73033

>  <SCORE.INTRA.SOLV.lig_0>
-127.221

>  <SCORE.INTRA.VDW>
-11.0311

>  <SCORE.INTRA.VDW.0>
10.8385

>  <SCORE.INTRA.norm>
-0.51438

>  <SCORE.RESTR>
3.06003

>  <SCORE.RESTR.CAVITY>
3.06003

>  <SCORE.RESTR.norm>
0.0956258

>  <SCORE.SYSTEM>
0

>  <SCORE.SYSTEM.CONST>
0

>  <SCORE.SYSTEM.DIHEDRAL>
0

>  <SCORE.SYSTEM.SOLV>
0

>  <SCORE.SYSTEM.norm>
0

>  <SCORE.heavy>
32

>  <SCORE.norm>
-1.04546

>  <RMSD>
2.160

$$$$
2tob cryst
 OpenBabel11021811463D
libRbt.so/2013.1/901 2013/11/27
 32 34  0  0  0  0  0  0  0  0999 V2000
   -9.3223   -0.4816   -7.5104 C   0  0  2  0  0  0  0  0  0  0  0  0
   -9.1730    0.9322   -8.0635 C   0  0  1  0  0  0  0  0  0  0  0  0
   -8.3736    0.8734   -9.3655 C   0  0  2  0  0  0  0  0  0  0  0  0
   -7.0285    0.1673   -9.1495 C   0  0  1  0  0  0  0  0  0  0  0  0
   -7.2521   -1.1904   -8.4744 C   0  0  1  0  0  0  0  0  0  0  0  0
   -5.9739   -1.9128   -8.0815 C   0  0  0  0  0  0  0  0  0  0  0  0
  -10.4577    1.4973   -8.3101 O   0  0  0  0  0  0  0  0  0  0  0  0
   -8.0976    2.1672  -10.0669 N   0  3  0  0  0  0  0  0  0  0  0  0
   -6.3956   -0.0171  -10.4095 O   0  0  0  0  0  0  0  0  0  0  0  0
   -8.0347   -1.0197   -7.2758 O   0  0  0  0  0  0  0  0  0  0  0  0
   -5.5668   -2.8155   -9.1048 O   0  0  0  0  0  0  0  0  0  0  0  0
  -12.3576   -1.6604   -8.9236 C   0  0  2  0  0  0  0  0  0  0  0  0
  -13.5723   -2.5804   -8.7410 C   0  0  0  0  0  0  0  0  0  0  0  0
  -13.1831   -4.0562   -8.7386 C   0  0  1  0  0  0  0  0  0  0  0  0
  -12.1575   -4.2817   -7.6362 C   0  0  2  0  0  0  0  0  0  0  0  0
  -10.8884   -3.4854   -7.9500 C   0  0  1  0  0  0  0  0  0  0  0  0
  -11.1904   -1.9767   -7.9753 C   0  0  1  0  0  0  0  0  0  0  0  0
  -12.7526   -0.2223   -8.7475 N   0  3  0  0  0  0  0  0  0  0  0  0
  -14.3873   -4.9301   -8.5531 N   0  3  0  0  0  0  0  0  0  0  0  0
   -9.8976   -3.7733   -6.9715 O   0  0  0  0  0  0  0  0  0  0  0  0
  -11.8436   -5.6813   -7.5183 O   0  0  0  0  0  0  0  0  0  0  0  0
  -10.0310   -1.2549   -8.4407 O   0  0  0  0  0  0  0  0  0  0  0  0
  -11.3402   -6.0354   -6.2597 C   0  0  2  0  0  0  0  0  0  0  0  0
  -11.2386   -7.5603   -6.1486 C   0  0  1  0  0  0  0  0  0  0  0  0
  -12.6199   -8.1908   -5.9694 C   0  0  0  0  0  0  0  0  0  0  0  0
  -13.3200   -7.5214   -4.7978 C   0  0  1  0  0  0  0  0  0  0  0  0
  -13.4252   -6.0300   -5.0648 C   0  0  1  0  0  0  0  0  0  0  0  0
  -14.1229   -5.3042   -3.9288 C   0  0  0  0  0  0  0  0  0  0  0  0
  -10.6017   -8.1094   -7.3882 N   0  3  0  0  0  0  0  0  0  0  0  0
  -14.1413   -3.8361   -4.2562 N   0  3  0  0  0  0  0  0  0  0  0  0
  -14.6157   -8.0743   -4.6152 O   0  0  0  0  0  0  0  0  0  0  0  0
  -12.1049   -5.4766   -5.1969 O   0  0  0  0  0  0  0  0  0  0  0  0
  1  2  1  0  0  0  0
  1 22  1  6  0  0  0
  1 10  1  0  0  0  0
  2  3  1  0  0  0  0
  2  7  1  6  0  0  0
  3  4  1  0  0  0  0
  3  8  1  1  0  0  0
  4  5  1  0  0  0  0
  4  9  1  6  0  0  0
  5  6  1  1  0  0  0
  5 10  1  0  0  0  0
  6 11  1  0  0  0  0
 12 13  1  0  0  0  0
 12 17  1  0  0  0  0
 12 18  1  1  0  0  0
 13 14  1  0  0  0  0
 14 15  1  0  0  0  0
 14 19  1  1  0  0  0
 15 16  1  0  0  0  0
 15 21  1  6  0  0  0
 16 17  1  0  0  0  0
 16 20  1  1  0  0  0
 17 22  1  6  0  0  0
 23 21  1  6  0  0  0
 23 24  1  0  0  0  0
 23 32  1  0  0  0  0
 24 25  1  0  0  0  0
 24 29  1  6  0  0  0
 25 26  1  0  0  0  0
 26 27  1  0  0  0  0
 26 31  1  6  0  0  0
 27 28  1  1  0  0  0
 27 32  1  0  0  0  0
 28 30  1  0  0  0  0
M  CHG  5   8   1  18   1  19   1  29   1  30   1
M  END
>  <CHROM.1>
-127.47967784,-167.27769673,-86.27602039,174.51641841,-93.81120753,-68.20405953
6.22733283,57.85813668,-156.92610040,74.30741762,129.57182588,171.30122360
174.10310436,63.22616442,178.15668512,-63.62023230,-10.78591754,-3.16730857
-7.50553334,0.94982251,0.19286887,-0.32372927

>  <Name>
2tob cryst

>  <RI>
3.35201e+07

>  <Rbt.Current_Directory>
/home/itssahil/PROJECTS/Mol_Feturizer/New_Systems/rnas/2tob

>  <Rbt.Executable>
rbdock ($Id: //depot/dev/client3/rdock/2013.1/src/exe/rbdock.cxx#4 $)

>  <Rbt.Library>
libRbt.so (2013.1, Build901 2013/11/27)

>  <Rbt.Parameter_File>
/export/apps/rDock/src/rDock_2013.1_src/data/scripts/dock_solv.prm

>  <Rbt.Receptor>
prm/pocket_docking_4.prm

>  <SCORE>
-56.4951

>  <SCORE.INTER>
-42.3207

>  <SCORE.INTER.CONST>
1

>  <SCORE.INTER.POLAR>
-6.86364

>  <SCORE.INTER.ROT>
6

>  <SCORE.INTER.SOLV>
28.8205

>  <SCORE.INTER.VDW>
-22.5418

>  <SCORE.INTER.norm>
-1.32252

>  <SCORE.INTRA>
-14.1781

>  <SCORE.INTRA.DIHEDRAL>
8.50498

>  <SCORE.INTRA.DIHEDRAL.0>
18.4221

>  <SCORE.INTRA.POLAR>
0.780077

>  <SCORE.INTRA.POLAR.0>
-1.57101

>  <SCORE.INTRA.REPUL>
-0.730195

>  <SCORE.INTRA.REPUL.0>
0.730195

>  <SCORE.INTRA.SOLV>
-5.99851

>  <SCORE.INTRA.SOLV.lig_0>
-127.221

>  <SCORE.INTRA.VDW>
-14.4326

>  <SCORE.INTRA.VDW.0>
10.8385

>  <SCORE.INTRA.norm>
-0.443065

>  <SCORE.RESTR>
0.00366813

>  <SCORE.RESTR.CAVITY>
0.00366813

>  <SCORE.RESTR.norm>
0.000114629

>  <SCORE.SYSTEM>
0

>  <SCORE.SYSTEM.CONST>
0

>  <SCORE.SYSTEM.DIHEDRAL>
0

>  <SCORE.SYSTEM.SOLV>
0

>  <SCORE.SYSTEM.norm>
0

>  <SCORE.heavy>
32

>  <SCORE.norm>
-1.76547

>  <RMSD>
2.160

$$$$
2tob cryst
 OpenBabel11021811463D
libRbt.so/2013.1/901 2013/11/27
 32 34  0  0  0  0  0  0  0  0999 V2000
   -7.8853   -1.5188   -7.2919 C   0  0  2  0  0  0  0  0  0  0  0  0
   -8.1808   -0.2521   -6.4949 C   0  0  1  0  0  0  0  0  0  0  0  0
   -8.1330    0.9499   -7.4386 C   0  0  2  0  0  0  0  0  0  0  0  0
   -6.7925    1.0071   -8.1832 C   0  0  1  0  0  0  0  0  0  0  0  0
   -6.5063   -0.3422   -8.8511 C   0  0  1  0  0  0  0  0  0  0  0  0
   -5.1337   -0.4434   -9.4961 C   0  0  0  0  0  0  0  0  0  0  0  0
   -9.4696   -0.3439   -5.8939 O   0  0  0  0  0  0  0  0  0  0  0  0
   -8.3804    2.3034   -6.8481 N   0  3  0  0  0  0  0  0  0  0  0  0
   -6.8540    2.0313   -9.1678 O   0  0  0  0  0  0  0  0  0  0  0  0
   -6.6028   -1.4018   -7.8784 O   0  0  0  0  0  0  0  0  0  0  0  0
   -4.8894   -1.7662   -9.9632 O   0  0  0  0  0  0  0  0  0  0  0  0
  -11.1914   -1.6700   -8.9431 C   0  0  2  0  0  0  0  0  0  0  0  0
  -12.5867   -2.2850   -8.7696 C   0  0  0  0  0  0  0  0  0  0  0  0
  -12.5274   -3.7903   -8.5249 C   0  0  1  0  0  0  0  0  0  0  0  0
  -11.6627   -4.0447   -7.2979 C   0  0  2  0  0  0  0  0  0  0  0  0
  -10.2311   -3.5808   -7.5779 C   0  0  1  0  0  0  0  0  0  0  0  0
  -10.1967   -2.0649   -7.8402 C   0  0  1  0  0  0  0  0  0  0  0  0
  -11.2783   -0.1721   -9.0076 N   0  3  0  0  0  0  0  0  0  0  0  0
  -13.9027   -4.3623   -8.3536 N   0  3  0  0  0  0  0  0  0  0  0  0
   -9.4043   -3.9077   -6.4682 O   0  0  0  0  0  0  0  0  0  0  0  0
  -11.6690   -5.4432   -6.9578 O   0  0  0  0  0  0  0  0  0  0  0  0
   -8.8763   -1.6742   -8.2713 O   0  0  0  0  0  0  0  0  0  0  0  0
  -11.4152   -5.6882   -5.6020 C   0  0  2  0  0  0  0  0  0  0  0  0
  -10.5166   -6.9205   -5.4538 C   0  0  1  0  0  0  0  0  0  0  0  0
  -11.2997   -8.2061   -5.7213 C   0  0  0  0  0  0  0  0  0  0  0  0
  -12.5380   -8.2226   -4.8397 C   0  0  1  0  0  0  0  0  0  0  0  0
  -13.3788   -6.9931   -5.1366 C   0  0  1  0  0  0  0  0  0  0  0  0
  -14.6370   -6.9554   -4.2883 C   0  0  0  0  0  0  0  0  0  0  0  0
   -9.3767   -6.8257   -6.4208 N   0  3  0  0  0  0  0  0  0  0  0  0
  -15.2775   -5.6059   -4.4657 N   0  3  0  0  0  0  0  0  0  0  0  0
  -13.2978   -9.3992   -5.0773 O   0  0  0  0  0  0  0  0  0  0  0  0
  -12.6134   -5.8120   -4.8433 O   0  0  0  0  0  0  0  0  0  0  0  0
  1  2  1  0  0  0  0
  1 22  1  6  0  0  0
  1 10  1  0  0  0  0
  2  3  1  0  0  0  0
  2  7  1  6  0  0  0
  3  4  1  0  0  0  0
  3  8  1  1  0  0  0
  4  5  1  0  0  0  0
  4  9  1  6  0  0  0
  5  6  1  1  0  0  0
  5 10  1  0  0  0  0
  6 11  1  0  0  0  0
 12 13  1  0  0  0  0
 12 17  1  0  0  0  0
 12 18  1  1  0  0  0
 13 14  1  0  0  0  0
 14 15  1  0  0  0  0
 14 19  1  1  0  0  0
 15 16  1  0  0  0  0
 15 21  1  6  0  0  0
 16 17  1  0  0  0  0
 16 20  1  1  0  0  0
 17 22  1  6  0  0  0
 23 21  1  6  0  0  0
 23 24  1  0  0  0  0
 23 32  1  0  0  0  0
 24 25  1  0  0  0  0
 24 29  1  6  0  0  0
 25 26  1  0  0  0  0
 26 27  1  0  0  0  0
 26 31  1  6  0  0  0
 27 28  1  1  0  0  0
 27 32  1  0  0  0  0
 28 30  1  0  0  0  0
M  CHG  5   8   1  18   1  19   1  29   1  30   1
M  END
>  <CHROM.1>
-72.01794196,-179.34419480,-59.99645168,-57.82739533,173.63339693,171.29540381
62.23217678,-177.65624245,-154.05606659,-58.58022307,159.24463598,-140.56390426
140.35298140,-57.29709081,170.18019361,76.80210388,-10.21259934,-3.20720122
-7.10942877,-0.92541055,-0.15136187,2.86815881

>  <Name>
2tob cryst

>  <RI>
3.35201e+07

>  <Rbt.Current_Directory>
/home/itssahil/PROJECTS/Mol_Feturizer/New_Systems/rnas/2tob

>  <Rbt.Executable>
rbdock ($Id: //depot/dev/client3/rdock/2013.1/src/exe/rbdock.cxx#4 $)

>  <Rbt.Library>
libRbt.so (2013.1, Build901 2013/11/27)

>  <Rbt.Parameter_File>
/export/apps/rDock/src/rDock_2013.1_src/data/scripts/dock_solv.prm

>  <Rbt.Receptor>
prm/pocket_docking_4.prm

>  <SCORE>
-61.8951

>  <SCORE.INTER>
-40.7064

>  <SCORE.INTER.CONST>
1

>  <SCORE.INTER.POLAR>
-5.22138

>  <SCORE.INTER.ROT>
6

>  <SCORE.INTER.SOLV>
30.2487

>  <SCORE.INTER.VDW>
-27.4159

>  <SCORE.INTER.norm>
-1.27207

>  <SCORE.INTRA>
-21.1887

>  <SCORE.INTRA.DIHEDRAL>
-3.29483

>  <SCORE.INTRA.DIHEDRAL.0>
18.4221

>  <SCORE.INTRA.POLAR>
0.222017

>  <SCORE.INTRA.POLAR.0>
-1.57101

>  <SCORE.INTRA.REPUL>
-0.730195

>  <SCORE.INTRA.REPUL.0>
0.730195

>  <SCORE.INTRA.SOLV>
-4.99634

>  <SCORE.INTRA.SOLV.lig_0>
-127.221

>  <SCORE.INTRA.VDW>
-14.147

>  <SCORE.INTRA.VDW.0>
10.8385

>  <SCORE.INTRA.norm>
-0.662148

>  <SCORE.RESTR>
0

>  <SCORE.RESTR.CAVITY>
0

>  <SCORE.RESTR.norm>
0

>  <SCORE.SYSTEM>
0

>  <SCORE.SYSTEM.CONST>
0

>  <SCORE.SYSTEM.DIHEDRAL>
0

>  <SCORE.SYSTEM.SOLV>
0

>  <SCORE.SYSTEM.norm>
0

>  <SCORE.heavy>
32

>  <SCORE.norm>
-1.93422

>  <RMSD>
2.175

$$$$
2tob cryst
 OpenBabel11021811463D
libRbt.so/2013.1/901 2013/11/27
 32 34  0  0  0  0  0  0  0  0999 V2000
   -7.9504   -1.4608   -7.4076 C   0  0  2  0  0  0  0  0  0  0  0  0
   -8.2632   -0.1893   -6.6252 C   0  0  1  0  0  0  0  0  0  0  0  0
   -8.1970    1.0066   -7.5756 C   0  0  2  0  0  0  0  0  0  0  0  0
   -6.8415    1.0602   -8.2928 C   0  0  1  0  0  0  0  0  0  0  0  0
   -6.5406   -0.2932   -8.9459 C   0  0  1  0  0  0  0  0  0  0  0  0
   -5.1550   -0.3973   -9.5619 C   0  0  0  0  0  0  0  0  0  0  0  0
   -9.5641   -0.2784   -6.0502 O   0  0  0  0  0  0  0  0  0  0  0  0
   -8.4575    2.3637   -6.9991 N   0  3  0  0  0  0  0  0  0  0  0  0
   -6.8835    2.0779   -9.2851 O   0  0  0  0  0  0  0  0  0  0  0  0
   -6.6562   -1.3466   -7.9685 O   0  0  0  0  0  0  0  0  0  0  0  0
   -4.8911   -1.7282   -9.9941 O   0  0  0  0  0  0  0  0  0  0  0  0
  -11.2531   -1.5272   -9.0085 C   0  0  2  0  0  0  0  0  0  0  0  0
  -12.6421   -2.1705   -8.8984 C   0  0  0  0  0  0  0  0  0  0  0  0
  -12.5734   -3.6951   -8.8968 C   0  0  1  0  0  0  0  0  0  0  0  0
  -11.6759   -4.1352   -7.7484 C   0  0  2  0  0  0  0  0  0  0  0  0
  -10.2532   -3.6241   -7.9885 C   0  0  1  0  0  0  0  0  0  0  0  0
  -10.2287   -2.0856   -8.0082 C   0  0  1  0  0  0  0  0  0  0  0  0
  -11.3446   -0.0386   -8.8327 N   0  3  0  0  0  0  0  0  0  0  0  0
  -13.9426   -4.2955   -8.7825 N   0  3  0  0  0  0  0  0  0  0  0  0
   -9.3965   -4.1174   -6.9664 O   0  0  0  0  0  0  0  0  0  0  0  0
  -11.6705   -5.5699   -7.6339 O   0  0  0  0  0  0  0  0  0  0  0  0
   -8.9210   -1.6236   -8.4062 O   0  0  0  0  0  0  0  0  0  0  0  0
  -11.1425   -6.0303   -6.4207 C   0  0  2  0  0  0  0  0  0  0  0  0
  -10.9047   -7.5422   -6.4955 C   0  0  1  0  0  0  0  0  0  0  0  0
  -12.2244   -8.3099   -6.4155 C   0  0  0  0  0  0  0  0  0  0  0  0
  -12.9866   -7.8547   -5.1816 C   0  0  1  0  0  0  0  0  0  0  0  0
  -13.2243   -6.3570   -5.2657 C   0  0  1  0  0  0  0  0  0  0  0  0
  -13.9891   -5.8415   -4.0601 C   0  0  0  0  0  0  0  0  0  0  0  0
  -10.2159   -7.8757   -7.7831 N   0  3  0  0  0  0  0  0  0  0  0  0
  -15.4579   -5.9055   -4.3786 N   0  3  0  0  0  0  0  0  0  0  0  0
  -14.2281   -8.5387   -5.0875 O   0  0  0  0  0  0  0  0  0  0  0  0
  -11.9586   -5.6767   -5.3092 O   0  0  0  0  0  0  0  0  0  0  0  0
  1  2  1  0  0  0  0
  1 22  1  6  0  0  0
  1 10  1  0  0  0  0
  2  3  1  0  0  0  0
  2  7  1  6  0  0  0
  3  4  1  0  0  0  0
  3  8  1  1  0  0  0
  4  5  1  0  0  0  0
  4  9  1  6  0  0  0
  5  6  1  1  0  0  0
  5 10  1  0  0  0  0
  6 11  1  0  0  0  0
 12 13  1  0  0  0  0
 12 17  1  0  0  0  0
 12 18  1  1  0  0  0
 13 14  1  0  0  0  0
 14 15  1  0  0  0  0
 14 19  1  1  0  0  0
 15 16  1  0  0  0  0
 15 21  1  6  0  0  0
 16 17  1  0  0  0  0
 16 20  1  1  0  0  0
 17 22  1  6  0  0  0
 23 21  1  6  0  0  0
 23 24  1  0  0  0  0
 23 32  1  0  0  0  0
 24 25  1  0  0  0  0
 24 29  1  6  0  0  0
 25 26  1  0  0  0  0
 26 27  1  0  0  0  0
 26 31  1  6  0  0  0
 27 28  1  1  0  0  0
 27 32  1  0  0  0  0
 28 30  1  0  0  0  0
M  CHG  5   8   1  18   1  19   1  29   1  30   1
M  END
>  <CHROM.1>
-75.45154652,-175.52266461,-67.17664421,177.20529955,172.61620506,167.41045512
-174.61032296,-57.70603224,-165.25435586,-61.80857554,151.47305060,-168.32762404
68.43823430,165.50993064,-90.53379808,-179.99729284,-10.30834356,-3.16981565
-7.38216524,-0.87242158,-0.31435336,3.04643500

>  <Name>
2tob cryst

>  <RI>
2.9538e+07

>  <Rbt.Current_Directory>
/home/itssahil/PROJECTS/Mol_Feturizer/New_Systems/rnas/2tob

>  <Rbt.Executable>
rbdock ($Id: //depot/dev/client3/rdock/2013.1/src/exe/rbdock.cxx#4 $)

>  <Rbt.Library>
libRbt.so (2013.1, Build901 2013/11/27)

>  <Rbt.Parameter_File>
/export/apps/rDock/src/rDock_2013.1_src/data/scripts/dock_solv.prm

>  <Rbt.Receptor>
prm/pocket_docking_2.prm

>  <SCORE>
-58.114

>  <SCORE.INTER>
-40.499

>  <SCORE.INTER.CONST>
1

>  <SCORE.INTER.POLAR>
-5.35279

>  <SCORE.INTER.ROT>
6

>  <SCORE.INTER.SOLV>
32.118

>  <SCORE.INTER.VDW>
-27.4627

>  <SCORE.INTER.norm>
-1.26559

>  <SCORE.INTRA>
-19.46

>  <SCORE.INTRA.DIHEDRAL>
-6.92248

>  <SCORE.INTRA.DIHEDRAL.0>
18.4221

>  <SCORE.INTRA.POLAR>
1.44251

>  <SCORE.INTRA.POLAR.0>
-1.57101

>  <SCORE.INTRA.REPUL>
-0.730195

>  <SCORE.INTRA.REPUL.0>
0.730195

>  <SCORE.INTRA.SOLV>
-5.9482

>  <SCORE.INTRA.SOLV.lig_0>
-127.221

>  <SCORE.INTRA.VDW>
-14.2782

>  <SCORE.INTRA.VDW.0>
10.8385

>  <SCORE.INTRA.norm>
-0.608124

>  <SCORE.RESTR>
1.84497

>  <SCORE.RESTR.CAVITY>
1.84497

>  <SCORE.RESTR.norm>
0.0576554

>  <SCORE.SYSTEM>
0

>  <SCORE.SYSTEM.CONST>
0

>  <SCORE.SYSTEM.DIHEDRAL>
0

>  <SCORE.SYSTEM.SOLV>
0

>  <SCORE.SYSTEM.norm>
0

>  <SCORE.heavy>
32

>  <SCORE.norm>
-1.81606

>  <RMSD>
2.184

$$$$
2tob cryst
 OpenBabel11021811463D
libRbt.so/2013.1/901 2013/11/27
 32 34  0  0  0  0  0  0  0  0999 V2000
   -7.7222   -1.5841   -8.2975 C   0  0  2  0  0  0  0  0  0  0  0  0
   -7.8482   -0.7313   -7.0390 C   0  0  1  0  0  0  0  0  0  0  0  0
   -8.0514    0.7280   -7.4473 C   0  0  2  0  0  0  0  0  0  0  0  0
   -6.9268    1.1960   -8.3805 C   0  0  1  0  0  0  0  0  0  0  0  0
   -6.7775    0.2190   -9.5519 C   0  0  1  0  0  0  0  0  0  0  0  0
   -5.5948    0.5078  -10.4618 C   0  0  0  0  0  0  0  0  0  0  0  0
   -8.9559   -1.1738   -6.2592 O   0  0  0  0  0  0  0  0  0  0  0  0
   -8.1814    1.7411   -6.3525 N   0  3  0  0  0  0  0  0  0  0  0  0
   -7.2419    2.4936   -8.8697 O   0  0  0  0  0  0  0  0  0  0  0  0
   -6.6179   -1.1243   -9.0535 O   0  0  0  0  0  0  0  0  0  0  0  0
   -4.3906   -0.0132   -9.9085 O   0  0  0  0  0  0  0  0  0  0  0  0
  -11.3041   -1.2360   -9.2159 C   0  0  2  0  0  0  0  0  0  0  0  0
  -12.6900   -1.7262   -8.7754 C   0  0  0  0  0  0  0  0  0  0  0  0
  -12.7320   -3.2394   -8.5812 C   0  0  1  0  0  0  0  0  0  0  0  0
  -11.6683   -3.6234   -7.5619 C   0  0  2  0  0  0  0  0  0  0  0  0
  -10.2832   -3.2825   -8.1174 C   0  0  1  0  0  0  0  0  0  0  0  0
  -10.1524   -1.7666   -8.3477 C   0  0  1  0  0  0  0  0  0  0  0  0
  -11.2536    0.2649   -9.2284 N   0  3  0  0  0  0  0  0  0  0  0  0
  -14.0947   -3.6886   -8.1460 N   0  3  0  0  0  0  0  0  0  0  0  0
   -9.2871   -3.7303   -7.2068 O   0  0  0  0  0  0  0  0  0  0  0  0
  -11.7445   -5.0283   -7.2586 O   0  0  0  0  0  0  0  0  0  0  0  0
   -8.9133   -1.4820   -9.0300 O   0  0  0  0  0  0  0  0  0  0  0  0
  -12.1654   -5.2937   -5.9490 C   0  0  2  0  0  0  0  0  0  0  0  0
  -11.0876   -6.0899   -5.2057 C   0  0  1  0  0  0  0  0  0  0  0  0
  -11.0555   -7.5436   -5.6782 C   0  0  0  0  0  0  0  0  0  0  0  0
  -12.4543   -8.1289   -5.5706 C   0  0  1  0  0  0  0  0  0  0  0  0
  -13.4093   -7.2976   -6.4094 C   0  0  1  0  0  0  0  0  0  0  0  0
  -14.8266   -7.8375   -6.3471 C   0  0  0  0  0  0  0  0  0  0  0  0
   -9.7490   -5.4622   -5.4463 N   0  3  0  0  0  0  0  0  0  0  0  0
  -14.9295   -8.9870   -7.3119 N   0  3  0  0  0  0  0  0  0  0  0  0
  -12.4617   -9.4767   -6.0191 O   0  0  0  0  0  0  0  0  0  0  0  0
  -13.4286   -5.9491   -5.9114 O   0  0  0  0  0  0  0  0  0  0  0  0
  1  2  1  0  0  0  0
  1 22  1  6  0  0  0
  1 10  1  0  0  0  0
  2  3  1  0  0  0  0
  2  7  1  6  0  0  0
  3  4  1  0  0  0  0
  3  8  1  1  0  0  0
  4  5  1  0  0  0  0
  4  9  1  6  0  0  0
  5  6  1  1  0  0  0
  5 10  1  0  0  0  0
  6 11  1  0  0  0  0
 12 13  1  0  0  0  0
 12 17  1  0  0  0  0
 12 18  1  1  0  0  0
 13 14  1  0  0  0  0
 14 15  1  0  0  0  0
 14 19  1  1  0  0  0
 15 16  1  0  0  0  0
 15 21  1  6  0  0  0
 16 17  1  0  0  0  0
 16 20  1  1  0  0  0
 17 22  1  6  0  0  0
 23 21  1  6  0  0  0
 23 24  1  0  0  0  0
 23 32  1  0  0  0  0
 24 25  1  0  0  0  0
 24 29  1  6  0  0  0
 25 26  1  0  0  0  0
 26 27  1  0  0  0  0
 26 31  1  6  0  0  0
 27 28  1  1  0  0  0
 27 32  1  0  0  0  0
 28 30  1  0  0  0  0
M  CHG  5   8   1  18   1  19   1  29   1  30   1
M  END
>  <CHROM.1>
-53.27036640,179.11232611,33.49415879,-58.75603851,81.35309836,177.75276701
179.28845191,78.93120756,-112.17449151,-78.43235853,165.17893482,-120.41296314
-158.60964243,154.27529043,-81.18649537,47.19066720,-10.24078885,-3.06390426
-7.58706443,-0.93378693,0.13183960,2.75135682

>  <Name>
2tob cryst

>  <RI>
2.9538e+07

>  <Rbt.Current_Directory>
/home/itssahil/PROJECTS/Mol_Feturizer/New_Systems/rnas/2tob

>  <Rbt.Executable>
rbdock ($Id: //depot/dev/client3/rdock/2013.1/src/exe/rbdock.cxx#4 $)

>  <Rbt.Library>
libRbt.so (2013.1, Build901 2013/11/27)

>  <Rbt.Parameter_File>
/export/apps/rDock/src/rDock_2013.1_src/data/scripts/dock_solv.prm

>  <Rbt.Receptor>
prm/pocket_docking_2.prm

>  <SCORE>
-43.4538

>  <SCORE.INTER>
-30.9391

>  <SCORE.INTER.CONST>
1

>  <SCORE.INTER.POLAR>
-4.16858

>  <SCORE.INTER.ROT>
6

>  <SCORE.INTER.SOLV>
26.5745

>  <SCORE.INTER.VDW>
-23.189

>  <SCORE.INTER.norm>
-0.966848

>  <SCORE.INTRA>
-13.462

>  <SCORE.INTRA.DIHEDRAL>
7.97461

>  <SCORE.INTRA.DIHEDRAL.0>
18.4221

>  <SCORE.INTRA.POLAR>
-0.53689

>  <SCORE.INTRA.POLAR.0>
-1.57101

>  <SCORE.INTRA.REPUL>
-0.730195

>  <SCORE.INTRA.REPUL.0>
0.730195

>  <SCORE.INTRA.SOLV>
-0.541427

>  <SCORE.INTRA.SOLV.lig_0>
-127.221

>  <SCORE.INTRA.VDW>
-11.7022

>  <SCORE.INTRA.VDW.0>
10.8385

>  <SCORE.INTRA.norm>
-0.420688

>  <SCORE.RESTR>
0.947337

>  <SCORE.RESTR.CAVITY>
0.947337

>  <SCORE.RESTR.norm>
0.0296043

>  <SCORE.SYSTEM>
0

>  <SCORE.SYSTEM.CONST>
0

>  <SCORE.SYSTEM.DIHEDRAL>
0

>  <SCORE.SYSTEM.SOLV>
0

>  <SCORE.SYSTEM.norm>
0

>  <SCORE.heavy>
32

>  <SCORE.norm>
-1.35793

>  <RMSD>
2.188

$$$$
2tob cryst
 OpenBabel11021811463D
libRbt.so/2013.1/901 2013/11/27
 32 34  0  0  0  0  0  0  0  0999 V2000
   -7.6115   -0.9562   -8.2233 C   0  0  2  0  0  0  0  0  0  0  0  0
   -8.0139   -0.0333   -7.0773 C   0  0  1  0  0  0  0  0  0  0  0  0
   -8.4974    1.2960   -7.6577 C   0  0  2  0  0  0  0  0  0  0  0  0
   -7.4339    1.9093   -8.5784 C   0  0  1  0  0  0  0  0  0  0  0  0
   -6.9885    0.8797   -9.6227 C   0  0  1  0  0  0  0  0  0  0  0  0
   -5.8314    1.3346  -10.4970 C   0  0  0  0  0  0  0  0  0  0  0  0
   -9.0548   -0.6332   -6.3109 O   0  0  0  0  0  0  0  0  0  0  0  0
   -8.9261    2.3573   -6.6925 N   0  3  0  0  0  0  0  0  0  0  0  0
   -7.9851    3.0488   -9.2265 O   0  0  0  0  0  0  0  0  0  0  0  0
   -6.5794   -0.3379   -8.9682 O   0  0  0  0  0  0  0  0  0  0  0  0
   -4.7943    1.9080   -9.7073 O   0  0  0  0  0  0  0  0  0  0  0  0
  -11.1348   -1.0586   -9.2382 C   0  0  2  0  0  0  0  0  0  0  0  0
  -12.5017   -1.6219   -8.8270 C   0  0  0  0  0  0  0  0  0  0  0  0
  -12.4749   -3.1391   -8.6629 C   0  0  1  0  0  0  0  0  0  0  0  0
  -11.4078   -3.4932   -7.6363 C   0  0  2  0  0  0  0  0  0  0  0  0
  -10.0331   -3.0766   -8.1653 C   0  0  1  0  0  0  0  0  0  0  0  0
   -9.9709   -1.5520   -8.3642 C   0  0  1  0  0  0  0  0  0  0  0  0
  -11.1549    0.4430   -9.2206 N   0  3  0  0  0  0  0  0  0  0  0  0
  -13.8205   -3.6603   -8.2558 N   0  3  0  0  0  0  0  0  0  0  0  0
   -9.0291   -3.4954   -7.2496 O   0  0  0  0  0  0  0  0  0  0  0  0
  -11.4217   -4.9060   -7.3615 O   0  0  0  0  0  0  0  0  0  0  0  0
   -8.7377   -1.1959   -9.0232 O   0  0  0  0  0  0  0  0  0  0  0  0
  -12.0372   -5.2312   -6.1457 C   0  0  2  0  0  0  0  0  0  0  0  0
  -11.0196   -5.8832   -5.2037 C   0  0  1  0  0  0  0  0  0  0  0  0
  -10.7129   -7.3176   -5.6349 C   0  0  0  0  0  0  0  0  0  0  0  0
  -12.0198   -8.0818   -5.7731 C   0  0  1  0  0  0  0  0  0  0  0  0
  -12.9048   -7.3785   -6.7873 C   0  0  1  0  0  0  0  0  0  0  0  0
  -14.2272   -8.0999   -6.9742 C   0  0  0  0  0  0  0  0  0  0  0  0
   -9.7526   -5.0841   -5.2081 N   0  3  0  0  0  0  0  0  0  0  0  0
  -14.6124   -7.9972   -8.4247 N   0  3  0  0  0  0  0  0  0  0  0  0
  -11.7697   -9.4166   -6.1900 O   0  0  0  0  0  0  0  0  0  0  0  0
  -13.1899   -6.0468   -6.3266 O   0  0  0  0  0  0  0  0  0  0  0  0
  1  2  1  0  0  0  0
  1 22  1  6  0  0  0
  1 10  1  0  0  0  0
  2  3  1  0  0  0  0
  2  7  1  6  0  0  0
  3  4  1  0  0  0  0
  3  8  1  1  0  0  0
  4  5  1  0  0  0  0
  4  9  1  6  0  0  0
  5  6  1  1  0  0  0
  5 10  1  0  0  0  0
  6 11  1  0  0  0  0
 12 13  1  0  0  0  0
 12 17  1  0  0  0  0
 12 18  1  1  0  0  0
 13 14  1  0  0  0  0
 14 15  1  0  0  0  0
 14 19  1  1  0  0  0
 15 16  1  0  0  0  0
 15 21  1  6  0  0  0
 16 17  1  0  0  0  0
 16 20  1  1  0  0  0
 17 22  1  6  0  0  0
 23 21  1  6  0  0  0
 23 24  1  0  0  0  0
 23 32  1  0  0  0  0
 24 25  1  0  0  0  0
 24 29  1  6  0  0  0
 25 26  1  0  0  0  0
 26 27  1  0  0  0  0
 26 31  1  6  0  0  0
 27 28  1  1  0  0  0
 27 32  1  0  0  0  0
 28 30  1  0  0  0  0
M  CHG  5   8   1  18   1  19   1  29   1  30   1
M  END
>  <CHROM.1>
-47.16640849,-175.98251349,-65.52632452,-169.69248114,46.75254387,-63.92215940
65.93114258,-43.28505968,-102.90026238,-88.01378933,150.77121886,-117.11146541
-38.19643441,-44.10895753,-143.51725163,-46.02730485,-10.16983165,-2.67734024
-7.72586495,-1.00765277,0.26882303,2.72743099

>  <Name>
2tob cryst

>  <RI>
2.9538e+07

>  <Rbt.Current_Directory>
/home/itssahil/PROJECTS/Mol_Feturizer/New_Systems/rnas/2tob

>  <Rbt.Executable>
rbdock ($Id: //depot/dev/client3/rdock/2013.1/src/exe/rbdock.cxx#4 $)

>  <Rbt.Library>
libRbt.so (2013.1, Build901 2013/11/27)

>  <Rbt.Parameter_File>
/export/apps/rDock/src/rDock_2013.1_src/data/scripts/dock_solv.prm

>  <Rbt.Receptor>
prm/pocket_docking_2.prm

>  <SCORE>
-48.9945

>  <SCORE.INTER>
-37.689

>  <SCORE.INTER.CONST>
1

>  <SCORE.INTER.POLAR>
-5.11615

>  <SCORE.INTER.ROT>
6

>  <SCORE.INTER.SOLV>
28.2396

>  <SCORE.INTER.VDW>
-25.0854

>  <SCORE.INTER.norm>
-1.17778

>  <SCORE.INTRA>
-13.0214

>  <SCORE.INTRA.DIHEDRAL>
10.3704

>  <SCORE.INTRA.DIHEDRAL.0>
18.4221

>  <SCORE.INTRA.POLAR>
-1.06147

>  <SCORE.INTRA.POLAR.0>
-1.57101

>  <SCORE.INTRA.REPUL>
-0.730195

>  <SCORE.INTRA.REPUL.0>
0.730195

>  <SCORE.INTRA.SOLV>
0.3846

>  <SCORE.INTRA.SOLV.lig_0>
-127.221

>  <SCORE.INTRA.VDW>
-11.1389

>  <SCORE.INTRA.VDW.0>
10.8385

>  <SCORE.INTRA.norm>
-0.406919

>  <SCORE.RESTR>
1.71592

>  <SCORE.RESTR.CAVITY>
1.71592

>  <SCORE.RESTR.norm>
0.0536224

>  <SCORE.SYSTEM>
0

>  <SCORE.SYSTEM.CONST>
0

>  <SCORE.SYSTEM.DIHEDRAL>
0

>  <SCORE.SYSTEM.SOLV>
0

>  <SCORE.SYSTEM.norm>
0

>  <SCORE.heavy>
32

>  <SCORE.norm>
-1.53108

>  <RMSD>
2.279

$$$$
2tob cryst
 OpenBabel11021811463D
libRbt.so/2013.1/901 2013/11/27
 32 34  0  0  0  0  0  0  0  0999 V2000
   -8.3043   -0.5346   -7.3840 C   0  0  2  0  0  0  0  0  0  0  0  0
   -8.1824    0.9608   -7.6591 C   0  0  1  0  0  0  0  0  0  0  0  0
   -7.6035    1.1617   -9.0599 C   0  0  2  0  0  0  0  0  0  0  0  0
   -6.2738    0.4117   -9.2143 C   0  0  1  0  0  0  0  0  0  0  0  0
   -6.4471   -1.0531   -8.7979 C   0  0  1  0  0  0  0  0  0  0  0  0
   -5.1559   -1.8546   -8.7738 C   0  0  0  0  0  0  0  0  0  0  0  0
   -9.4637    1.5784   -7.5723 O   0  0  0  0  0  0  0  0  0  0  0  0
   -7.3854    2.5687   -9.5231 N   0  3  0  0  0  0  0  0  0  0  0  0
   -5.8579    0.4829  -10.5723 O   0  0  0  0  0  0  0  0  0  0  0  0
   -7.0209   -1.1234   -7.4773 O   0  0  0  0  0  0  0  0  0  0  0  0
   -4.5497   -1.8778  -10.0621 O   0  0  0  0  0  0  0  0  0  0  0  0
  -11.5137   -1.0098   -8.9399 C   0  0  2  0  0  0  0  0  0  0  0  0
  -12.9208   -1.5926   -8.7514 C   0  0  0  0  0  0  0  0  0  0  0  0
  -12.8965   -3.1051   -8.5483 C   0  0  1  0  0  0  0  0  0  0  0  0
  -12.0123   -3.4153   -7.3483 C   0  0  2  0  0  0  0  0  0  0  0  0
  -10.5753   -2.9816   -7.6481 C   0  0  1  0  0  0  0  0  0  0  0  0
  -10.5060   -1.4605   -7.8706 C   0  0  1  0  0  0  0  0  0  0  0  0
  -11.5618    0.4910   -8.9624 N   0  3  0  0  0  0  0  0  0  0  0  0
  -14.2825   -3.6454   -8.3613 N   0  3  0  0  0  0  0  0  0  0  0  0
   -9.7335   -3.3601   -6.5664 O   0  0  0  0  0  0  0  0  0  0  0  0
  -12.0486   -4.8220   -7.0455 O   0  0  0  0  0  0  0  0  0  0  0  0
   -9.1854   -1.0930   -8.3208 O   0  0  0  0  0  0  0  0  0  0  0  0
  -11.2626   -5.1748   -5.9409 C   0  0  2  0  0  0  0  0  0  0  0  0
  -11.3317   -6.6885   -5.7135 C   0  0  1  0  0  0  0  0  0  0  0  0
  -12.6766   -7.0918   -5.1084 C   0  0  0  0  0  0  0  0  0  0  0  0
  -12.9275   -6.2579   -3.8624 C   0  0  1  0  0  0  0  0  0  0  0  0
  -12.9099   -4.7856   -4.2350 C   0  0  1  0  0  0  0  0  0  0  0  0
  -13.1613   -3.8984   -3.0292 C   0  0  0  0  0  0  0  0  0  0  0  0
  -11.1444   -7.3980   -7.0193 N   0  3  0  0  0  0  0  0  0  0  0  0
  -13.0179   -2.4664   -3.4671 N   0  3  0  0  0  0  0  0  0  0  0  0
  -14.1801   -6.5974   -3.2847 O   0  0  0  0  0  0  0  0  0  0  0  0
  -11.6197   -4.4465   -4.7709 O   0  0  0  0  0  0  0  0  0  0  0  0
  1  2  1  0  0  0  0
  1 22  1  6  0  0  0
  1 10  1  0  0  0  0
  2  3  1  0  0  0  0
  2  7  1  6  0  0  0
  3  4  1  0  0  0  0
  3  8  1  1  0  0  0
  4  5  1  0  0  0  0
  4  9  1  6  0  0  0
  5  6  1  1  0  0  0
  5 10  1  0  0  0  0
  6 11  1  0  0  0  0
 12 13  1  0  0  0  0
 12 17  1  0  0  0  0
 12 18  1  1  0  0  0
 13 14  1  0  0  0  0
 14 15  1  0  0  0  0
 14 19  1  1  0  0  0
 15 16  1  0  0  0  0
 15 21  1  6  0  0  0
 16 17  1  0  0  0  0
 16 20  1  1  0  0  0
 17 22  1  6  0  0  0
 23 21  1  6  0  0  0
 23 24  1  0  0  0  0
 23 32  1  0  0  0  0
 24 25  1  0  0  0  0
 24 29  1  6  0  0  0
 25 26  1  0  0  0  0
 26 27  1  0  0  0  0
 26 31  1  6  0  0  0
 27 28  1  1  0  0  0
 27 32  1  0  0  0  0
 28 30  1  0  0  0  0
M  CHG  5   8   1  18   1  19   1  29   1  30   1
M  END
>  <CHROM.1>
-105.89722647,53.62274851,-43.28565527,68.41186147,-60.05284535,178.71528003
-65.03252033,-173.98883879,-179.48894951,177.37679912,137.10873064,-178.56606320
-170.59336051,61.94951579,175.56942977,71.23355175,-10.22821957,-2.47723062
-7.22937778,-0.83748732,-0.28969843,2.76757700

>  <Name>
2tob cryst

>  <RI>
3.35201e+07

>  <Rbt.Current_Directory>
/home/itssahil/PROJECTS/Mol_Feturizer/New_Systems/rnas/2tob

>  <Rbt.Executable>
rbdock ($Id: //depot/dev/client3/rdock/2013.1/src/exe/rbdock.cxx#4 $)

>  <Rbt.Library>
libRbt.so (2013.1, Build901 2013/11/27)

>  <Rbt.Parameter_File>
/export/apps/rDock/src/rDock_2013.1_src/data/scripts/dock_solv.prm

>  <Rbt.Receptor>
prm/pocket_docking_4.prm

>  <SCORE>
-63.3052

>  <SCORE.INTER>
-44.415

>  <SCORE.INTER.CONST>
1

>  <SCORE.INTER.POLAR>
-6.3227

>  <SCORE.INTER.ROT>
6

>  <SCORE.INTER.SOLV>
26.599

>  <SCORE.INTER.VDW>
-25.0007

>  <SCORE.INTER.norm>
-1.38797

>  <SCORE.INTRA>
-18.8902

>  <SCORE.INTRA.DIHEDRAL>
-4.10627

>  <SCORE.INTRA.DIHEDRAL.0>
18.4221

>  <SCORE.INTRA.POLAR>
0.710294

>  <SCORE.INTRA.POLAR.0>
-1.57101

>  <SCORE.INTRA.REPUL>
-0.730195

>  <SCORE.INTRA.REPUL.0>
0.730195

>  <SCORE.INTRA.SOLV>
-6.77263

>  <SCORE.INTRA.SOLV.lig_0>
-127.221

>  <SCORE.INTRA.VDW>
-12.2147

>  <SCORE.INTRA.VDW.0>
10.8385

>  <SCORE.INTRA.norm>
-0.590317

>  <SCORE.RESTR>
0

>  <SCORE.RESTR.CAVITY>
0

>  <SCORE.RESTR.norm>
0

>  <SCORE.SYSTEM>
0

>  <SCORE.SYSTEM.CONST>
0

>  <SCORE.SYSTEM.DIHEDRAL>
0

>  <SCORE.SYSTEM.SOLV>
0

>  <SCORE.SYSTEM.norm>
0

>  <SCORE.heavy>
32

>  <SCORE.norm>
-1.97829

>  <RMSD>
2.316

$$$$
2tob cryst
 OpenBabel11021811463D
libRbt.so/2013.1/901 2013/11/27
 32 34  0  0  0  0  0  0  0  0999 V2000
   -8.5525    0.7579   -8.6676 C   0  0  2  0  0  0  0  0  0  0  0  0
   -7.1361    0.8035   -9.2323 C   0  0  1  0  0  0  0  0  0  0  0  0
   -6.4837   -0.5666   -9.0459 C   0  0  2  0  0  0  0  0  0  0  0  0
   -6.5305   -0.9984   -7.5742 C   0  0  1  0  0  0  0  0  0  0  0  0
   -7.9645   -0.8954   -7.0434 C   0  0  1  0  0  0  0  0  0  0  0  0
   -8.1016   -1.1613   -5.5532 C   0  0  0  0  0  0  0  0  0  0  0  0
   -7.1742    1.1364  -10.6174 O   0  0  0  0  0  0  0  0  0  0  0  0
   -5.0734   -0.7317   -9.5210 N   0  3  0  0  0  0  0  0  0  0  0  0
   -6.0715   -2.3405   -7.4714 O   0  0  0  0  0  0  0  0  0  0  0  0
   -8.4871    0.4246   -7.2939 O   0  0  0  0  0  0  0  0  0  0  0  0
   -9.4513   -0.9956   -5.1308 O   0  0  0  0  0  0  0  0  0  0  0  0
  -11.6950   -0.3224   -9.2629 C   0  0  2  0  0  0  0  0  0  0  0  0
  -12.9248   -1.1457   -8.8569 C   0  0  0  0  0  0  0  0  0  0  0  0
  -12.7303   -2.6378   -9.1120 C   0  0  1  0  0  0  0  0  0  0  0  0
  -11.4918   -3.0979   -8.3554 C   0  0  2  0  0  0  0  0  0  0  0  0
  -10.2583   -2.3844   -8.9145 C   0  0  1  0  0  0  0  0  0  0  0  0
  -10.3712   -0.8647   -8.7013 C   0  0  1  0  0  0  0  0  0  0  0  0
  -11.8540    1.1095   -8.8392 N   0  3  0  0  0  0  0  0  0  0  0  0
  -13.9437   -3.4168   -8.7012 N   0  3  0  0  0  0  0  0  0  0  0  0
   -9.0926   -2.8867   -8.2735 O   0  0  0  0  0  0  0  0  0  0  0  0
  -11.3306   -4.5234   -8.4717 O   0  0  0  0  0  0  0  0  0  0  0  0
   -9.2908   -0.1948   -9.3838 O   0  0  0  0  0  0  0  0  0  0  0  0
  -11.9005   -5.2373   -7.4095 C   0  0  2  0  0  0  0  0  0  0  0  0
  -10.8463   -6.1433   -6.7647 C   0  0  1  0  0  0  0  0  0  0  0  0
  -10.5473   -7.3536   -7.6497 C   0  0  0  0  0  0  0  0  0  0  0  0
  -11.8540   -8.0530   -7.9877 C   0  0  1  0  0  0  0  0  0  0  0  0
  -12.7785   -7.0727   -8.6883 C   0  0  1  0  0  0  0  0  0  0  0  0
  -14.1028   -7.7161   -9.0579 C   0  0  0  0  0  0  0  0  0  0  0  0
   -9.5847   -5.3652   -6.5487 N   0  3  0  0  0  0  0  0  0  0  0  0
  -14.9675   -6.6656   -9.6995 N   0  3  0  0  0  0  0  0  0  0  0  0
  -11.6117   -9.1748   -8.8250 O   0  0  0  0  0  0  0  0  0  0  0  0
  -13.0544   -5.9688   -7.8096 O   0  0  0  0  0  0  0  0  0  0  0  0
  1  2  1  0  0  0  0
  1 22  1  6  0  0  0
  1 10  1  0  0  0  0
  2  3  1  0  0  0  0
  2  7  1  6  0  0  0
  3  4  1  0  0  0  0
  3  8  1  1  0  0  0
  4  5  1  0  0  0  0
  4  9  1  6  0  0  0
  5  6  1  1  0  0  0
  5 10  1  0  0  0  0
  6 11  1  0  0  0  0
 12 13  1  0  0  0  0
 12 17  1  0  0  0  0
 12 18  1  1  0  0  0
 13 14  1  0  0  0  0
 14 15  1  0  0  0  0
 14 19  1  1  0  0  0
 15 16  1  0  0  0  0
 15 21  1  6  0  0  0
 16 17  1  0  0  0  0
 16 20  1  1  0  0  0
 17 22  1  6  0  0  0
 23 21  1  6  0  0  0
 23 24  1  0  0  0  0
 23 32  1  0  0  0  0
 24 25  1  0  0  0  0
 24 29  1  6  0  0  0
 25 26  1  0  0  0  0
 26 27  1  0  0  0  0
 26 31  1  6  0  0  0
 27 28  1  1  0  0  0
 27 32  1  0  0  0  0
 28 30  1  0  0  0  0
M  CHG  5   8   1  18   1  19   1  29   1  30   1
M  END
>  <CHROM.1>
151.30680579,75.84174239,54.22779906,86.09245175,177.74036055,-61.72981401
-77.42545676,-163.84983265,-94.04150809,-48.80484491,107.74799976,-124.87181253
64.47424755,-58.39695760,178.05223628,-60.20080315,-10.21364521,-2.92313574
-8.26828753,0.90449378,-0.22530681,-0.17729552

>  <Name>
2tob cryst

>  <RI>
3.35201e+07

>  <Rbt.Current_Directory>
/home/itssahil/PROJECTS/Mol_Feturizer/New_Systems/rnas/2tob

>  <Rbt.Executable>
rbdock ($Id: //depot/dev/client3/rdock/2013.1/src/exe/rbdock.cxx#4 $)

>  <Rbt.Library>
libRbt.so (2013.1, Build901 2013/11/27)

>  <Rbt.Parameter_File>
/export/apps/rDock/src/rDock_2013.1_src/data/scripts/dock_solv.prm

>  <Rbt.Receptor>
prm/pocket_docking_4.prm

>  <SCORE>
-43.7485

>  <SCORE.INTER>
-32.4943

>  <SCORE.INTER.CONST>
1

>  <SCORE.INTER.POLAR>
-4.86388

>  <SCORE.INTER.ROT>
6

>  <SCORE.INTER.SOLV>
36.3596

>  <SCORE.INTER.VDW>
-25.1698

>  <SCORE.INTER.norm>
-1.01545

>  <SCORE.INTRA>
-11.4609

>  <SCORE.INTRA.DIHEDRAL>
9.01766

>  <SCORE.INTRA.DIHEDRAL.0>
18.4221

>  <SCORE.INTRA.POLAR>
0.32044

>  <SCORE.INTRA.POLAR.0>
-1.57101

>  <SCORE.INTRA.REPUL>
-0.723523

>  <SCORE.INTRA.REPUL.0>
0.730195

>  <SCORE.INTRA.SOLV>
0.156468

>  <SCORE.INTRA.SOLV.lig_0>
-127.221

>  <SCORE.INTRA.VDW>
-13.5199

>  <SCORE.INTRA.VDW.0>
10.8385

>  <SCORE.INTRA.norm>
-0.358155

>  <SCORE.RESTR>
0.206725

>  <SCORE.RESTR.CAVITY>
0.206725

>  <SCORE.RESTR.norm>
0.00646015

>  <SCORE.SYSTEM>
0

>  <SCORE.SYSTEM.CONST>
0

>  <SCORE.SYSTEM.DIHEDRAL>
0

>  <SCORE.SYSTEM.SOLV>
0

>  <SCORE.SYSTEM.norm>
0

>  <SCORE.heavy>
32

>  <SCORE.norm>
-1.36714

>  <RMSD>
2.323

$$$$
2tob cryst
 OpenBabel11021811463D
libRbt.so/2013.1/901 2013/11/27
 32 34  0  0  0  0  0  0  0  0999 V2000
   -9.8554   -0.3652   -7.4033 C   0  0  2  0  0  0  0  0  0  0  0  0
   -9.5784    0.9483   -8.1278 C   0  0  1  0  0  0  0  0  0  0  0  0
   -8.6032    0.6852   -9.2756 C   0  0  2  0  0  0  0  0  0  0  0  0
   -7.3288    0.0007   -8.7639 C   0  0  1  0  0  0  0  0  0  0  0  0
   -7.6948   -1.2381   -7.9390 C   0  0  1  0  0  0  0  0  0  0  0  0
   -6.5124   -1.9115   -7.2617 C   0  0  0  0  0  0  0  0  0  0  0  0
  -10.7938    1.4880   -8.6401 O   0  0  0  0  0  0  0  0  0  0  0  0
   -8.1839    1.8562  -10.1092 N   0  3  0  0  0  0  0  0  0  0  0  0
   -6.5287   -0.3779   -9.8768 O   0  0  0  0  0  0  0  0  0  0  0  0
   -8.6346   -0.8801   -6.9062 O   0  0  0  0  0  0  0  0  0  0  0  0
   -5.5969   -2.4190   -8.2271 O   0  0  0  0  0  0  0  0  0  0  0  0
  -12.7622   -1.6788   -8.8434 C   0  0  2  0  0  0  0  0  0  0  0  0
  -13.9758   -2.6051   -8.6874 C   0  0  0  0  0  0  0  0  0  0  0  0
  -13.5786   -4.0787   -8.6707 C   0  0  1  0  0  0  0  0  0  0  0  0
  -12.5789   -4.2949   -7.5430 C   0  0  2  0  0  0  0  0  0  0  0  0
  -11.3069   -3.4924   -7.8283 C   0  0  1  0  0  0  0  0  0  0  0  0
  -11.6166   -1.9856   -7.8659 C   0  0  1  0  0  0  0  0  0  0  0  0
  -13.1694   -0.2424   -8.6817 N   0  3  0  0  0  0  0  0  0  0  0  0
  -14.7820   -4.9588   -8.5117 N   0  3  0  0  0  0  0  0  0  0  0  0
  -10.3387   -3.7716   -6.8250 O   0  0  0  0  0  0  0  0  0  0  0  0
  -12.2601   -5.6924   -7.4128 O   0  0  0  0  0  0  0  0  0  0  0  0
  -10.4503   -1.2586   -8.3052 O   0  0  0  0  0  0  0  0  0  0  0  0
  -11.7042   -6.0238   -6.1703 C   0  0  2  0  0  0  0  0  0  0  0  0
  -11.3832   -7.5215   -6.1252 C   0  0  1  0  0  0  0  0  0  0  0  0
  -12.6582   -8.3517   -5.9746 C   0  0  0  0  0  0  0  0  0  0  0  0
  -13.4411   -7.8412   -4.7757 C   0  0  1  0  0  0  0  0  0  0  0  0
  -13.7617   -6.3705   -4.9781 C   0  0  1  0  0  0  0  0  0  0  0  0
  -14.5507   -5.8024   -3.8124 C   0  0  0  0  0  0  0  0  0  0  0  0
  -10.6805   -7.9191   -7.3868 N   0  3  0  0  0  0  0  0  0  0  0  0
  -14.9701   -4.4032   -4.1722 N   0  3  0  0  0  0  0  0  0  0  0  0
  -14.6426   -8.5826   -4.6183 O   0  0  0  0  0  0  0  0  0  0  0  0
  -12.5357   -5.6273   -5.0850 O   0  0  0  0  0  0  0  0  0  0  0  0
  1  2  1  0  0  0  0
  1 22  1  6  0  0  0
  1 10  1  0  0  0  0
  2  3  1  0  0  0  0
  2  7  1  6  0  0  0
  3  4  1  0  0  0  0
  3  8  1  1  0  0  0
  4  5  1  0  0  0  0
  4  9  1  6  0  0  0
  5  6  1  1  0  0  0
  5 10  1  0  0  0  0
  6 11  1  0  0  0  0
 12 13  1  0  0  0  0
 12 17  1  0  0  0  0
 12 18  1  1  0  0  0
 13 14  1  0  0  0  0
 14 15  1  0  0  0  0
 14 19  1  1  0  0  0
 15 16  1  0  0  0  0
 15 21  1  6  0  0  0
 16 17  1  0  0  0  0
 16 20  1  1  0  0  0
 17 22  1  6  0  0  0
 23 21  1  6  0  0  0
 23 24  1  0  0  0  0
 23 32  1  0  0  0  0
 24 25  1  0  0  0  0
 24 29  1  6  0  0  0
 25 26  1  0  0  0  0
 26 27  1  0  0  0  0
 26 31  1  6  0  0  0
 27 28  1  1  0  0  0
 27 32  1  0  0  0  0
 28 30  1  0  0  0  0
M  CHG  5   8   1  18   1  19   1  29   1  30   1
M  END
>  <CHROM.1>
-133.41559541,57.58233615,-71.10562744,80.71715136,-63.71641746,-174.02217459
-140.71047965,-54.20628138,-160.84402201,81.54458769,122.68847948,-179.39007262
-53.89713707,65.64176493,-173.00663555,67.86090231,-11.12631689,-3.25691458
-7.35188229,0.96217575,0.07178743,-0.38155052

>  <Name>
2tob cryst

>  <RI>
3.75586e+07

>  <Rbt.Current_Directory>
/home/itssahil/PROJECTS/Mol_Feturizer/New_Systems/rnas/2tob

>  <Rbt.Executable>
rbdock ($Id: //depot/dev/client3/rdock/2013.1/src/exe/rbdock.cxx#4 $)

>  <Rbt.Library>
libRbt.so (2013.1, Build901 2013/11/27)

>  <Rbt.Parameter_File>
/export/apps/rDock/src/rDock_2013.1_src/data/scripts/dock_solv.prm

>  <Rbt.Receptor>
prm/pocket_docking_8.prm

>  <SCORE>
-57.1985

>  <SCORE.INTER>
-42.4992

>  <SCORE.INTER.CONST>
1

>  <SCORE.INTER.POLAR>
-6.70818

>  <SCORE.INTER.ROT>
6

>  <SCORE.INTER.SOLV>
28.4135

>  <SCORE.INTER.VDW>
-23.0434

>  <SCORE.INTER.norm>
-1.3281

>  <SCORE.INTRA>
-14.6993

>  <SCORE.INTRA.DIHEDRAL>
4.70196

>  <SCORE.INTRA.DIHEDRAL.0>
18.4221

>  <SCORE.INTRA.POLAR>
1.31239

>  <SCORE.INTRA.POLAR.0>
-1.57101

>  <SCORE.INTRA.REPUL>
-0.730195

>  <SCORE.INTRA.REPUL.0>
0.730195

>  <SCORE.INTRA.SOLV>
-6.27266

>  <SCORE.INTRA.SOLV.lig_0>
-127.221

>  <SCORE.INTRA.VDW>
-14.725

>  <SCORE.INTRA.VDW.0>
10.8385

>  <SCORE.INTRA.norm>
-0.459352

>  <SCORE.RESTR>
0

>  <SCORE.RESTR.CAVITY>
0

>  <SCORE.RESTR.norm>
0

>  <SCORE.SYSTEM>
0

>  <SCORE.SYSTEM.CONST>
0

>  <SCORE.SYSTEM.DIHEDRAL>
0

>  <SCORE.SYSTEM.SOLV>
0

>  <SCORE.SYSTEM.norm>
0

>  <SCORE.heavy>
32

>  <SCORE.norm>
-1.78745

>  <RMSD>
2.327

$$$$
2tob cryst
 OpenBabel11021811463D
libRbt.so/2013.1/901 2013/11/27
 32 34  0  0  0  0  0  0  0  0999 V2000
   -8.0161    0.0227   -7.6005 C   0  0  2  0  0  0  0  0  0  0  0  0
   -7.5588    1.4122   -8.0332 C   0  0  1  0  0  0  0  0  0  0  0  0
   -6.9067    1.3124   -9.4125 C   0  0  2  0  0  0  0  0  0  0  0  0
   -5.7710    0.2806   -9.4066 C   0  0  1  0  0  0  0  0  0  0  0  0
   -6.2760   -1.0510   -8.8401 C   0  0  1  0  0  0  0  0  0  0  0  0
   -5.1948   -2.1028   -8.6536 C   0  0  0  0  0  0  0  0  0  0  0  0
   -8.6744    2.2971   -8.0887 O   0  0  0  0  0  0  0  0  0  0  0  0
   -6.3694    2.5727  -10.0164 N   0  3  0  0  0  0  0  0  0  0  0  0
   -5.3078    0.0955  -10.7383 O   0  0  0  0  0  0  0  0  0  0  0  0
   -6.8919   -0.8356   -7.5546 O   0  0  0  0  0  0  0  0  0  0  0  0
   -5.7691   -3.3793   -8.3923 O   0  0  0  0  0  0  0  0  0  0  0  0
  -11.1900    0.0571   -9.3111 C   0  0  2  0  0  0  0  0  0  0  0  0
  -12.6998   -0.1604   -9.1427 C   0  0  0  0  0  0  0  0  0  0  0  0
  -13.0333   -1.5882   -8.7190 C   0  0  1  0  0  0  0  0  0  0  0  0
  -12.2909   -1.8920   -7.4251 C   0  0  2  0  0  0  0  0  0  0  0  0
  -10.7822   -1.8423   -7.6792 C   0  0  1  0  0  0  0  0  0  0  0  0
  -10.3549   -0.4301   -8.1165 C   0  0  1  0  0  0  0  0  0  0  0  0
  -10.8891    1.5078   -9.5568 N   0  3  0  0  0  0  0  0  0  0  0  0
  -14.5128   -1.7697   -8.5568 N   0  3  0  0  0  0  0  0  0  0  0  0
  -10.0921   -2.2212   -6.4950 O   0  0  0  0  0  0  0  0  0  0  0  0
  -12.6627   -3.1886   -6.9230 O   0  0  0  0  0  0  0  0  0  0  0  0
   -8.9691   -0.4421   -8.5179 O   0  0  0  0  0  0  0  0  0  0  0  0
  -12.2798   -4.2424   -7.7630 C   0  0  2  0  0  0  0  0  0  0  0  0
  -12.9340   -5.5467   -7.2952 C   0  0  1  0  0  0  0  0  0  0  0  0
  -12.2588   -6.0762   -6.0298 C   0  0  0  0  0  0  0  0  0  0  0  0
  -10.7618   -6.1774   -6.2742 C   0  0  1  0  0  0  0  0  0  0  0  0
  -10.2243   -4.8087   -6.6543 C   0  0  1  0  0  0  0  0  0  0  0  0
   -8.7279   -4.8436   -6.9064 C   0  0  0  0  0  0  0  0  0  0  0  0
  -14.3857   -5.3045   -7.0166 N   0  3  0  0  0  0  0  0  0  0  0  0
   -8.5042   -4.7621   -8.3918 N   0  3  0  0  0  0  0  0  0  0  0  0
  -10.1020   -6.6515   -5.1090 O   0  0  0  0  0  0  0  0  0  0  0  0
  -10.8650   -4.3654   -7.8625 O   0  0  0  0  0  0  0  0  0  0  0  0
  1  2  1  0  0  0  0
  1 22  1  6  0  0  0
  1 10  1  0  0  0  0
  2  3  1  0  0  0  0
  2  7  1  6  0  0  0
  3  4  1  0  0  0  0
  3  8  1  1  0  0  0
  4  5  1  0  0  0  0
  4  9  1  6  0  0  0
  5  6  1  1  0  0  0
  5 10  1  0  0  0  0
  6 11  1  0  0  0  0
 12 13  1  0  0  0  0
 12 17  1  0  0  0  0
 12 18  1  1  0  0  0
 13 14  1  0  0  0  0
 14 15  1  0  0  0  0
 14 19  1  1  0  0  0
 15 16  1  0  0  0  0
 15 21  1  6  0  0  0
 16 17  1  0  0  0  0
 16 20  1  1  0  0  0
 17 22  1  6  0  0  0
 23 21  1  1  0  0  0
 23 24  1  0  0  0  0
 23 32  1  0  0  0  0
 24 25  1  0  0  0  0
 24 29  1  1  0  0  0
 25 26  1  0  0  0  0
 26 27  1  0  0  0  0
 26 31  1  1  0  0  0
 27 28  1  6  0  0  0
 27 32  1  0  0  0  0
 28 30  1  0  0  0  0
M  CHG  5   8   1  18   1  19   1  29   1  30   1
M  END
>  <CHROM.1>
-104.48379048,48.74244502,164.25651514,172.14574950,-168.00957484,-152.09430786
-146.30331078,-23.50531297,64.82175227,55.50577426,138.39291061,-169.48196776
-53.23945551,-17.34634871,105.37077868,-70.86823716,-9.71025756,-1.99947951
-8.02107879,0.82162819,0.05007591,-0.34449891

>  <Name>
2tob cryst

>  <RI>
2.04895e+07

>  <Rbt.Current_Directory>
/home/itssahil/PROJECTS/Mol_Feturizer/New_Systems/rnas/2tob

>  <Rbt.Executable>
rbdock ($Id: //depot/dev/client3/rdock/2013.1/src/exe/rbdock.cxx#4 $)

>  <Rbt.Library>
libRbt.so (2013.1, Build901 2013/11/27)

>  <Rbt.Parameter_File>
/export/apps/rDock/src/rDock_2013.1_src/data/scripts/dock_solv.prm

>  <Rbt.Receptor>
prm/blind_docking_20.prm

>  <SCORE>
-24.1283

>  <SCORE.INTER>
-32.5041

>  <SCORE.INTER.CONST>
1

>  <SCORE.INTER.POLAR>
-6.25657

>  <SCORE.INTER.ROT>
6

>  <SCORE.INTER.SOLV>
41.4412

>  <SCORE.INTER.VDW>
-22.2279

>  <SCORE.INTER.norm>
-1.01575

>  <SCORE.INTRA>
2.04966

>  <SCORE.INTRA.DIHEDRAL>
14.6855

>  <SCORE.INTRA.DIHEDRAL.0>
18.4221

>  <SCORE.INTRA.POLAR>
-0.205798

>  <SCORE.INTRA.POLAR.0>
-1.57101

>  <SCORE.INTRA.REPUL>
-0.730195

>  <SCORE.INTRA.REPUL.0>
0.730195

>  <SCORE.INTRA.SOLV>
0.263603

>  <SCORE.INTRA.SOLV.lig_0>
-127.221

>  <SCORE.INTRA.VDW>
-1.07419

>  <SCORE.INTRA.VDW.0>
10.8385

>  <SCORE.INTRA.norm>
0.064052

>  <SCORE.RESTR>
6.32618

>  <SCORE.RESTR.CAVITY>
6.32618

>  <SCORE.RESTR.norm>
0.197693

>  <SCORE.SYSTEM>
0

>  <SCORE.SYSTEM.CONST>
0

>  <SCORE.SYSTEM.DIHEDRAL>
0

>  <SCORE.SYSTEM.SOLV>
0

>  <SCORE.SYSTEM.norm>
0

>  <SCORE.heavy>
32

>  <SCORE.norm>
-0.754008

>  <RMSD>
2.339

$$$$
2tob cryst
 OpenBabel11021811463D
libRbt.so/2013.1/901 2013/11/27
 32 34  0  0  0  0  0  0  0  0999 V2000
   -7.8990   -1.4126   -7.8014 C   0  0  2  0  0  0  0  0  0  0  0  0
   -8.1698   -0.2523   -6.8488 C   0  0  1  0  0  0  0  0  0  0  0  0
   -8.2484    1.0438   -7.6559 C   0  0  2  0  0  0  0  0  0  0  0  0
   -6.9810    1.2408   -8.4982 C   0  0  1  0  0  0  0  0  0  0  0  0
   -6.7053   -0.0157   -9.3314 C   0  0  1  0  0  0  0  0  0  0  0  0
   -5.3915    0.0148  -10.0951 C   0  0  0  0  0  0  0  0  0  0  0  0
   -9.3970   -0.4661   -6.1567 O   0  0  0  0  0  0  0  0  0  0  0  0
   -8.4924    2.3144   -6.9022 N   0  3  0  0  0  0  0  0  0  0  0  0
   -7.1655    2.3597   -9.3563 O   0  0  0  0  0  0  0  0  0  0  0  0
   -6.6778   -1.1757   -8.4759 O   0  0  0  0  0  0  0  0  0  0  0  0
   -5.4305    0.9903  -11.1318 O   0  0  0  0  0  0  0  0  0  0  0  0
  -11.3288   -1.2882   -9.1277 C   0  0  2  0  0  0  0  0  0  0  0  0
  -12.7404   -1.8369   -8.8801 C   0  0  0  0  0  0  0  0  0  0  0  0
  -12.7637   -3.3615   -8.8154 C   0  0  1  0  0  0  0  0  0  0  0  0
  -11.8042   -3.8115   -7.7223 C   0  0  2  0  0  0  0  0  0  0  0  0
  -10.3774   -3.4019   -8.0961 C   0  0  1  0  0  0  0  0  0  0  0  0
  -10.2620   -1.8701   -8.1868 C   0  0  1  0  0  0  0  0  0  0  0  0
  -11.3159    0.2091   -9.0123 N   0  3  0  0  0  0  0  0  0  0  0  0
  -14.1528   -3.8686   -8.5672 N   0  3  0  0  0  0  0  0  0  0  0  0
   -9.4719   -3.9075   -7.1232 O   0  0  0  0  0  0  0  0  0  0  0  0
  -11.8758   -5.2380   -7.5444 O   0  0  0  0  0  0  0  0  0  0  0  0
   -8.9655   -1.5084   -8.7065 O   0  0  0  0  0  0  0  0  0  0  0  0
  -12.8575   -5.6367   -6.6279 C   0  0  2  0  0  0  0  0  0  0  0  0
  -12.2738   -5.6504   -5.2111 C   0  0  1  0  0  0  0  0  0  0  0  0
  -11.3481   -6.8505   -5.0106 C   0  0  0  0  0  0  0  0  0  0  0  0
  -12.0933   -8.1186   -5.3947 C   0  0  1  0  0  0  0  0  0  0  0  0
  -12.5511   -8.0108   -6.8389 C   0  0  1  0  0  0  0  0  0  0  0  0
  -13.2993   -9.2539   -7.2848 C   0  0  0  0  0  0  0  0  0  0  0  0
  -11.5035   -4.3873   -4.9769 N   0  3  0  0  0  0  0  0  0  0  0  0
  -13.8245   -9.0081   -8.6728 N   0  3  0  0  0  0  0  0  0  0  0  0
  -11.2530   -9.2529   -5.2354 O   0  0  0  0  0  0  0  0  0  0  0  0
  -13.4401   -6.8890   -6.9730 O   0  0  0  0  0  0  0  0  0  0  0  0
  1  2  1  0  0  0  0
  1 22  1  6  0  0  0
  1 10  1  0  0  0  0
  2  3  1  0  0  0  0
  2  7  1  6  0  0  0
  3  4  1  0  0  0  0
  3  8  1  1  0  0  0
  4  5  1  0  0  0  0
  4  9  1  6  0  0  0
  5  6  1  1  0  0  0
  5 10  1  0  0  0  0
  6 11  1  0  0  0  0
 12 13  1  0  0  0  0
 12 17  1  0  0  0  0
 12 18  1  1  0  0  0
 13 14  1  0  0  0  0
 14 15  1  0  0  0  0
 14 19  1  1  0  0  0
 15 16  1  0  0  0  0
 15 21  1  6  0  0  0
 16 17  1  0  0  0  0
 16 20  1  1  0  0  0
 17 22  1  6  0  0  0
 23 21  1  6  0  0  0
 23 24  1  0  0  0  0
 23 32  1  0  0  0  0
 24 25  1  0  0  0  0
 24 29  1  6  0  0  0
 25 26  1  0  0  0  0
 26 27  1  0  0  0  0
 26 31  1  6  0  0  0
 27 28  1  1  0  0  0
 27 32  1  0  0  0  0
 28 30  1  0  0  0  0
M  CHG  5   8   1  18   1  19   1  29   1  30   1
M  END
>  <CHROM.1>
-65.76537121,-102.83889145,-65.63693307,-58.35072425,-68.10640910,57.15988361
-56.64463241,-61.42260701,-88.18678548,77.79133819,153.60726121,-87.92529323
47.80520413,63.10317866,174.72677259,171.14953005,-10.31122718,-3.04576082
-7.70359027,-0.99637453,0.21445303,2.74631200

>  <Name>
2tob cryst

>  <RI>
2.9538e+07

>  <Rbt.Current_Directory>
/home/itssahil/PROJECTS/Mol_Feturizer/New_Systems/rnas/2tob

>  <Rbt.Executable>
rbdock ($Id: //depot/dev/client3/rdock/2013.1/src/exe/rbdock.cxx#4 $)

>  <Rbt.Library>
libRbt.so (2013.1, Build901 2013/11/27)

>  <Rbt.Parameter_File>
/export/apps/rDock/src/rDock_2013.1_src/data/scripts/dock_solv.prm

>  <Rbt.Receptor>
prm/pocket_docking_2.prm

>  <SCORE>
-52.6392

>  <SCORE.INTER>
-38.8926

>  <SCORE.INTER.CONST>
1

>  <SCORE.INTER.POLAR>
-5.06899

>  <SCORE.INTER.ROT>
6

>  <SCORE.INTER.SOLV>
24.7201

>  <SCORE.INTER.VDW>
-24.8718

>  <SCORE.INTER.norm>
-1.21539

>  <SCORE.INTRA>
-15.9217

>  <SCORE.INTRA.DIHEDRAL>
-0.343973

>  <SCORE.INTRA.DIHEDRAL.0>
18.4221

>  <SCORE.INTRA.POLAR>
0.540305

>  <SCORE.INTRA.POLAR.0>
-1.57101

>  <SCORE.INTRA.REPUL>
-0.730195

>  <SCORE.INTRA.REPUL.0>
0.730195

>  <SCORE.INTRA.SOLV>
-0.762774

>  <SCORE.INTRA.SOLV.lig_0>
-127.221

>  <SCORE.INTRA.VDW>
-13.5544

>  <SCORE.INTRA.VDW.0>
10.8385

>  <SCORE.INTRA.norm>
-0.497554

>  <SCORE.RESTR>
2.17514

>  <SCORE.RESTR.CAVITY>
2.17514

>  <SCORE.RESTR.norm>
0.0679731

>  <SCORE.SYSTEM>
0

>  <SCORE.SYSTEM.CONST>
0

>  <SCORE.SYSTEM.DIHEDRAL>
0

>  <SCORE.SYSTEM.SOLV>
0

>  <SCORE.SYSTEM.norm>
0

>  <SCORE.heavy>
32

>  <SCORE.norm>
-1.64498

>  <RMSD>
2.357

$$$$
2tob cryst
 OpenBabel11021811463D
libRbt.so/2013.1/901 2013/11/27
 32 34  0  0  0  0  0  0  0  0999 V2000
   -8.2138   -0.3988   -7.0716 C   0  0  2  0  0  0  0  0  0  0  0  0
   -7.9848    1.0766   -7.3840 C   0  0  1  0  0  0  0  0  0  0  0  0
   -7.5275    1.2106   -8.8369 C   0  0  2  0  0  0  0  0  0  0  0  0
   -6.2917    0.3409   -9.1032 C   0  0  1  0  0  0  0  0  0  0  0  0
   -6.5553   -1.0979   -8.6458 C   0  0  1  0  0  0  0  0  0  0  0  0
   -5.3452   -2.0137   -8.7298 C   0  0  0  0  0  0  0  0  0  0  0  0
   -9.1911    1.8094   -7.1873 O   0  0  0  0  0  0  0  0  0  0  0  0
   -7.2293    2.5874   -9.3441 N   0  3  0  0  0  0  0  0  0  0  0  0
   -6.0036    0.3611  -10.4956 O   0  0  0  0  0  0  0  0  0  0  0  0
   -7.0035   -1.1032   -7.2756 O   0  0  0  0  0  0  0  0  0  0  0  0
   -5.7133   -3.3650   -8.4724 O   0  0  0  0  0  0  0  0  0  0  0  0
  -11.5723   -1.0769   -8.4352 C   0  0  2  0  0  0  0  0  0  0  0  0
  -12.9426   -1.6389   -8.0332 C   0  0  0  0  0  0  0  0  0  0  0  0
  -12.8361   -3.0276   -7.4091 C   0  0  1  0  0  0  0  0  0  0  0  0
  -11.9065   -2.9447   -6.2063 C   0  0  2  0  0  0  0  0  0  0  0  0
  -10.5016   -2.5559   -6.6736 C   0  0  1  0  0  0  0  0  0  0  0  0
  -10.5156   -1.1606   -7.3224 C   0  0  1  0  0  0  0  0  0  0  0  0
  -11.6972    0.3514   -8.8821 N   0  3  0  0  0  0  0  0  0  0  0  0
  -14.1876   -3.5485   -7.0215 N   0  3  0  0  0  0  0  0  0  0  0  0
   -9.6138   -2.5739   -5.5629 O   0  0  0  0  0  0  0  0  0  0  0  0
  -11.8634   -4.2060   -5.5144 O   0  0  0  0  0  0  0  0  0  0  0  0
   -9.2275   -0.8832   -7.9104 O   0  0  0  0  0  0  0  0  0  0  0  0
  -12.8322   -4.3238   -4.5093 C   0  0  2  0  0  0  0  0  0  0  0  0
  -12.1523   -4.4643   -3.1433 C   0  0  1  0  0  0  0  0  0  0  0  0
  -11.5497   -5.8589   -2.9711 C   0  0  0  0  0  0  0  0  0  0  0  0
  -12.6237   -6.8985   -3.2476 C   0  0  1  0  0  0  0  0  0  0  0  0
  -13.1607   -6.6999   -4.6543 C   0  0  1  0  0  0  0  0  0  0  0  0
  -14.2366   -7.7157   -4.9931 C   0  0  0  0  0  0  0  0  0  0  0  0
  -11.0682   -3.4384   -3.0179 N   0  3  0  0  0  0  0  0  0  0  0  0
  -15.5132   -7.2813   -4.3263 N   0  3  0  0  0  0  0  0  0  0  0  0
  -12.0901   -8.2081   -3.1121 O   0  0  0  0  0  0  0  0  0  0  0  0
  -13.7422   -5.3894   -4.7603 O   0  0  0  0  0  0  0  0  0  0  0  0
  1  2  1  0  0  0  0
  1 22  1  6  0  0  0
  1 10  1  0  0  0  0
  2  3  1  0  0  0  0
  2  7  1  6  0  0  0
  3  4  1  0  0  0  0
  3  8  1  1  0  0  0
  4  5  1  0  0  0  0
  4  9  1  6  0  0  0
  5  6  1  1  0  0  0
  5 10  1  0  0  0  0
  6 11  1  0  0  0  0
 12 13  1  0  0  0  0
 12 17  1  0  0  0  0
 12 18  1  1  0  0  0
 13 14  1  0  0  0  0
 14 15  1  0  0  0  0
 14 19  1  1  0  0  0
 15 16  1  0  0  0  0
 15 21  1  6  0  0  0
 16 17  1  0  0  0  0
 16 20  1  1  0  0  0
 17 22  1  6  0  0  0
 23 21  1  6  0  0  0
 23 24  1  0  0  0  0
 23 32  1  0  0  0  0
 24 25  1  0  0  0  0
 24 29  1  6  0  0  0
 25 26  1  0  0  0  0
 26 27  1  0  0  0  0
 26 31  1  6  0  0  0
 27 28  1  1  0  0  0
 27 32  1  0  0  0  0
 28 30  1  0  0  0  0
M  CHG  5   8   1  18   1  19   1  29   1  30   1
M  END
>  <CHROM.1>
-107.63542150,-56.68369272,-41.04890451,174.88080822,-171.72505664,61.99643002
-175.02854867,-171.69428150,-90.04132985,-67.87325504,155.86850737,-116.63503999
-51.64289825,172.29840685,77.77278136,46.01749975,-10.40045250,-2.62193538
-6.57785777,-0.91745662,-0.04964740,2.56970153

>  <Name>
2tob cryst

>  <RI>
3.35201e+07

>  <Rbt.Current_Directory>
/home/itssahil/PROJECTS/Mol_Feturizer/New_Systems/rnas/2tob

>  <Rbt.Executable>
rbdock ($Id: //depot/dev/client3/rdock/2013.1/src/exe/rbdock.cxx#4 $)

>  <Rbt.Library>
libRbt.so (2013.1, Build901 2013/11/27)

>  <Rbt.Parameter_File>
/export/apps/rDock/src/rDock_2013.1_src/data/scripts/dock_solv.prm

>  <Rbt.Receptor>
prm/pocket_docking_4.prm

>  <SCORE>
-47.9103

>  <SCORE.INTER>
-29.9217

>  <SCORE.INTER.CONST>
1

>  <SCORE.INTER.POLAR>
-4.09659

>  <SCORE.INTER.ROT>
6

>  <SCORE.INTER.SOLV>
25.1645

>  <SCORE.INTER.VDW>
-22.2807

>  <SCORE.INTER.norm>
-0.935054

>  <SCORE.INTRA>
-17.9886

>  <SCORE.INTRA.DIHEDRAL>
5.1243

>  <SCORE.INTRA.DIHEDRAL.0>
18.4221

>  <SCORE.INTRA.POLAR>
-0.286926

>  <SCORE.INTRA.POLAR.0>
-1.57101

>  <SCORE.INTRA.REPUL>
-0.730195

>  <SCORE.INTRA.REPUL.0>
0.730195

>  <SCORE.INTRA.SOLV>
-2.52872

>  <SCORE.INTRA.SOLV.lig_0>
-127.221

>  <SCORE.INTRA.VDW>
-14.6599

>  <SCORE.INTRA.VDW.0>
10.8385

>  <SCORE.INTRA.norm>
-0.562144

>  <SCORE.RESTR>
0

>  <SCORE.RESTR.CAVITY>
0

>  <SCORE.RESTR.norm>
0

>  <SCORE.SYSTEM>
0

>  <SCORE.SYSTEM.CONST>
0

>  <SCORE.SYSTEM.DIHEDRAL>
0

>  <SCORE.SYSTEM.SOLV>
0

>  <SCORE.SYSTEM.norm>
0

>  <SCORE.heavy>
32

>  <SCORE.norm>
-1.4972

>  <RMSD>
2.363

$$$$
2tob cryst
 OpenBabel11021811463D
libRbt.so/2013.1/901 2013/11/27
 32 34  0  0  0  0  0  0  0  0999 V2000
   -7.8164   -0.9076   -7.5866 C   0  0  2  0  0  0  0  0  0  0  0  0
   -8.3886    0.4706   -7.2702 C   0  0  1  0  0  0  0  0  0  0  0  0
   -8.4561    1.2876   -8.5608 C   0  0  2  0  0  0  0  0  0  0  0  0
   -7.0821    1.3488   -9.2412 C   0  0  1  0  0  0  0  0  0  0  0  0
   -6.5170   -0.0659   -9.4087 C   0  0  1  0  0  0  0  0  0  0  0  0
   -5.0942   -0.1133   -9.9413 C   0  0  0  0  0  0  0  0  0  0  0  0
   -9.6932    0.3403   -6.7118 O   0  0  0  0  0  0  0  0  0  0  0  0
   -8.9767    2.6883   -8.4665 N   0  3  0  0  0  0  0  0  0  0  0  0
   -7.2236    1.9673  -10.5139 O   0  0  0  0  0  0  0  0  0  0  0  0
   -6.5236   -0.7506   -8.1400 O   0  0  0  0  0  0  0  0  0  0  0  0
   -5.0868   -0.1486  -11.3648 O   0  0  0  0  0  0  0  0  0  0  0  0
  -11.0207   -1.5485   -9.0440 C   0  0  2  0  0  0  0  0  0  0  0  0
  -12.4018   -2.1798   -8.8220 C   0  0  0  0  0  0  0  0  0  0  0  0
  -12.3207   -3.6914   -8.6275 C   0  0  1  0  0  0  0  0  0  0  0  0
  -11.3955   -3.9764   -7.4525 C   0  0  2  0  0  0  0  0  0  0  0  0
   -9.9823   -3.4925   -7.7872 C   0  0  1  0  0  0  0  0  0  0  0  0
   -9.9708   -1.9690   -8.0035 C   0  0  1  0  0  0  0  0  0  0  0  0
  -11.1205   -0.0501   -9.0575 N   0  3  0  0  0  0  0  0  0  0  0  0
  -13.6822   -4.2796   -8.4074 N   0  3  0  0  0  0  0  0  0  0  0  0
   -9.1002   -3.8467   -6.7297 O   0  0  0  0  0  0  0  0  0  0  0  0
  -11.3760   -5.3847   -7.1562 O   0  0  0  0  0  0  0  0  0  0  0  0
   -8.6756   -1.5546   -8.4859 O   0  0  0  0  0  0  0  0  0  0  0  0
  -10.8008   -5.6851   -5.9146 C   0  0  2  0  0  0  0  0  0  0  0  0
  -10.7036   -7.2042   -5.7384 C   0  0  1  0  0  0  0  0  0  0  0  0
  -12.0761   -7.8119   -5.4481 C   0  0  0  0  0  0  0  0  0  0  0  0
  -12.7001   -7.0821   -4.2697 C   0  0  1  0  0  0  0  0  0  0  0  0
  -12.8105   -5.6037   -4.5995 C   0  0  1  0  0  0  0  0  0  0  0  0
  -13.4339   -4.8192   -3.4593 C   0  0  0  0  0  0  0  0  0  0  0  0
  -10.1458   -7.8163   -6.9866 N   0  3  0  0  0  0  0  0  0  0  0  0
  -13.3581   -3.3570   -3.8044 N   0  3  0  0  0  0  0  0  0  0  0  0
  -13.9865   -7.6132   -3.9847 O   0  0  0  0  0  0  0  0  0  0  0  0
  -11.4965   -5.0702   -4.8355 O   0  0  0  0  0  0  0  0  0  0  0  0
  1  2  1  0  0  0  0
  1 22  1  6  0  0  0
  1 10  1  0  0  0  0
  2  3  1  0  0  0  0
  2  7  1  6  0  0  0
  3  4  1  0  0  0  0
  3  8  1  1  0  0  0
  4  5  1  0  0  0  0
  4  9  1  6  0  0  0
  5  6  1  1  0  0  0
  5 10  1  0  0  0  0
  6 11  1  0  0  0  0
 12 13  1  0  0  0  0
 12 17  1  0  0  0  0
 12 18  1  1  0  0  0
 13 14  1  0  0  0  0
 14 15  1  0  0  0  0
 14 19  1  1  0  0  0
 15 16  1  0  0  0  0
 15 21  1  6  0  0  0
 16 17  1  0  0  0  0
 16 20  1  1  0  0  0
 17 22  1  6  0  0  0
 23 21  1  6  0  0  0
 23 24  1  0  0  0  0
 23 32  1  0  0  0  0
 24 25  1  0  0  0  0
 24 29  1  6  0  0  0
 25 26  1  0  0  0  0
 26 27  1  0  0  0  0
 26 31  1  6  0  0  0
 27 28  1  1  0  0  0
 27 32  1  0  0  0  0
 28 30  1  0  0  0  0
M  CHG  5   8   1  18   1  19   1  29   1  30   1
M  END
>  <CHROM.1>
-69.26552918,175.31112940,-143.64770001,-178.86449513,-89.14652352,-129.55180359
75.30439044,-53.53881435,-166.13612705,179.58277690,133.85046175,-174.79587363
-53.05246910,-56.89513239,173.55749942,-47.85760740,-10.10762860,-2.71609035
-7.38480347,-0.92149740,-0.45956714,2.92945986

>  <Name>
2tob cryst

>  <RI>
3.35201e+07

>  <Rbt.Current_Directory>
/home/itssahil/PROJECTS/Mol_Feturizer/New_Systems/rnas/2tob

>  <Rbt.Executable>
rbdock ($Id: //depot/dev/client3/rdock/2013.1/src/exe/rbdock.cxx#4 $)

>  <Rbt.Library>
libRbt.so (2013.1, Build901 2013/11/27)

>  <Rbt.Parameter_File>
/export/apps/rDock/src/rDock_2013.1_src/data/scripts/dock_solv.prm

>  <Rbt.Receptor>
prm/pocket_docking_4.prm

>  <SCORE>
-61.3072

>  <SCORE.INTER>
-48.382

>  <SCORE.INTER.CONST>
1

>  <SCORE.INTER.POLAR>
-7.39748

>  <SCORE.INTER.ROT>
6

>  <SCORE.INTER.SOLV>
28.2112

>  <SCORE.INTER.VDW>
-24.6002

>  <SCORE.INTER.norm>
-1.51194

>  <SCORE.INTRA>
-12.9252

>  <SCORE.INTRA.DIHEDRAL>
2.53236

>  <SCORE.INTRA.DIHEDRAL.0>
18.4221

>  <SCORE.INTRA.POLAR>
0.977647

>  <SCORE.INTRA.POLAR.0>
-1.57101

>  <SCORE.INTRA.REPUL>
-0.730195

>  <SCORE.INTRA.REPUL.0>
0.730195

>  <SCORE.INTRA.SOLV>
-3.07362

>  <SCORE.INTRA.SOLV.lig_0>
-127.221

>  <SCORE.INTRA.VDW>
-12.3276

>  <SCORE.INTRA.VDW.0>
10.8385

>  <SCORE.INTRA.norm>
-0.403912

>  <SCORE.RESTR>
0

>  <SCORE.RESTR.CAVITY>
0

>  <SCORE.RESTR.norm>
0

>  <SCORE.SYSTEM>
0

>  <SCORE.SYSTEM.CONST>
0

>  <SCORE.SYSTEM.DIHEDRAL>
0

>  <SCORE.SYSTEM.SOLV>
0

>  <SCORE.SYSTEM.norm>
0

>  <SCORE.heavy>
32

>  <SCORE.norm>
-1.91585

>  <RMSD>
2.393

$$$$
2tob cryst
 OpenBabel11021811463D
libRbt.so/2013.1/901 2013/11/27
 32 34  0  0  0  0  0  0  0  0999 V2000
   -7.8984   -1.4073   -7.8213 C   0  0  2  0  0  0  0  0  0  0  0  0
   -8.1333   -0.2882   -6.8116 C   0  0  1  0  0  0  0  0  0  0  0  0
   -8.2717    1.0363   -7.5627 C   0  0  2  0  0  0  0  0  0  0  0  0
   -7.0536    1.2842   -8.4623 C   0  0  1  0  0  0  0  0  0  0  0  0
   -6.8061    0.0645   -9.3568 C   0  0  1  0  0  0  0  0  0  0  0  0
   -5.5353    0.1439  -10.1869 C   0  0  0  0  0  0  0  0  0  0  0  0
   -9.3190   -0.5466   -6.0646 O   0  0  0  0  0  0  0  0  0  0  0  0
   -8.4918    2.2735   -6.7486 N   0  3  0  0  0  0  0  0  0  0  0  0
   -7.2980    2.4320   -9.2655 O   0  0  0  0  0  0  0  0  0  0  0  0
   -6.7180   -1.1266   -8.5495 O   0  0  0  0  0  0  0  0  0  0  0  0
   -4.4527   -0.4957   -9.5187 O   0  0  0  0  0  0  0  0  0  0  0  0
  -11.3924   -1.4716   -9.0407 C   0  0  2  0  0  0  0  0  0  0  0  0
  -12.7481   -2.1259   -8.7425 C   0  0  0  0  0  0  0  0  0  0  0  0
  -12.6441   -3.6447   -8.6332 C   0  0  1  0  0  0  0  0  0  0  0  0
  -11.6266   -3.9808   -7.5517 C   0  0  2  0  0  0  0  0  0  0  0  0
  -10.2472   -3.4676   -7.9723 C   0  0  1  0  0  0  0  0  0  0  0  0
  -10.2605   -1.9350   -8.1101 C   0  0  1  0  0  0  0  0  0  0  0  0
  -11.5004    0.0246   -8.9690 N   0  3  0  0  0  0  0  0  0  0  0  0
  -13.9808   -4.2557   -8.3361 N   0  3  0  0  0  0  0  0  0  0  0  0
   -9.2816   -3.8672   -7.0080 O   0  0  0  0  0  0  0  0  0  0  0  0
  -11.5764   -5.4021   -7.3308 O   0  0  0  0  0  0  0  0  0  0  0  0
   -9.0102   -1.4848   -8.6720 O   0  0  0  0  0  0  0  0  0  0  0  0
  -11.0669   -5.7532   -6.0739 C   0  0  2  0  0  0  0  0  0  0  0  0
  -10.9639   -7.2778   -5.9600 C   0  0  1  0  0  0  0  0  0  0  0  0
  -12.3440   -7.9086   -5.7728 C   0  0  0  0  0  0  0  0  0  0  0  0
  -13.0389   -7.2370   -4.5994 C   0  0  1  0  0  0  0  0  0  0  0  0
  -13.1462   -5.7462   -4.8691 C   0  0  1  0  0  0  0  0  0  0  0  0
  -13.8390   -5.0183   -3.7314 C   0  0  0  0  0  0  0  0  0  0  0  0
  -10.3326   -7.8292   -7.2014 N   0  3  0  0  0  0  0  0  0  0  0  0
  -15.2887   -5.4199   -3.7364 N   0  3  0  0  0  0  0  0  0  0  0  0
  -14.3335   -7.7902   -4.4094 O   0  0  0  0  0  0  0  0  0  0  0  0
  -11.8268   -5.1925   -5.0087 O   0  0  0  0  0  0  0  0  0  0  0  0
  1  2  1  0  0  0  0
  1 22  1  6  0  0  0
  1 10  1  0  0  0  0
  2  3  1  0  0  0  0
  2  7  1  6  0  0  0
  3  4  1  0  0  0  0
  3  8  1  1  0  0  0
  4  5  1  0  0  0  0
  4  9  1  6  0  0  0
  5  6  1  1  0  0  0
  5 10  1  0  0  0  0
  6 11  1  0  0  0  0
 12 13  1  0  0  0  0
 12 17  1  0  0  0  0
 12 18  1  1  0  0  0
 13 14  1  0  0  0  0
 14 15  1  0  0  0  0
 14 19  1  1  0  0  0
 15 16  1  0  0  0  0
 15 21  1  6  0  0  0
 16 17  1  0  0  0  0
 16 20  1  1  0  0  0
 17 22  1  6  0  0  0
 23 21  1  6  0  0  0
 23 24  1  0  0  0  0
 23 32  1  0  0  0  0
 24 25  1  0  0  0  0
 24 29  1  6  0  0  0
 25 26  1  0  0  0  0
 26 27  1  0  0  0  0
 26 31  1  6  0  0  0
 27 28  1  1  0  0  0
 27 32  1  0  0  0  0
 28 30  1  0  0  0  0
M  CHG  5   8   1  18   1  19   1  29   1  30   1
M  END
>  <CHROM.1>
-68.10777967,-179.60853306,59.51976710,-57.59535537,94.01561669,56.88541199
57.32607359,-171.05485125,-157.92696393,69.54633786,160.09613123,-176.32453516
-53.91134423,64.32805132,-69.61642628,51.39816262,-10.33353572,-2.90743246
-7.24293516,-0.87687613,-0.32143092,2.95836618

>  <Name>
2tob cryst

>  <RI>
3.35201e+07

>  <Rbt.Current_Directory>
/home/itssahil/PROJECTS/Mol_Feturizer/New_Systems/rnas/2tob

>  <Rbt.Executable>
rbdock ($Id: //depot/dev/client3/rdock/2013.1/src/exe/rbdock.cxx#4 $)

>  <Rbt.Library>
libRbt.so (2013.1, Build901 2013/11/27)

>  <Rbt.Parameter_File>
/export/apps/rDock/src/rDock_2013.1_src/data/scripts/dock_solv.prm

>  <Rbt.Receptor>
prm/pocket_docking_4.prm

>  <SCORE>
-54.9332

>  <SCORE.INTER>
-33.4546

>  <SCORE.INTER.CONST>
1

>  <SCORE.INTER.POLAR>
-3.99029

>  <SCORE.INTER.ROT>
6

>  <SCORE.INTER.SOLV>
29.9871

>  <SCORE.INTER.VDW>
-26.5978

>  <SCORE.INTER.norm>
-1.04546

>  <SCORE.INTRA>
-21.4786

>  <SCORE.INTRA.DIHEDRAL>
-9.26194

>  <SCORE.INTRA.DIHEDRAL.0>
18.4221

>  <SCORE.INTRA.POLAR>
0.700438

>  <SCORE.INTRA.POLAR.0>
-1.57101

>  <SCORE.INTRA.REPUL>
-0.688839

>  <SCORE.INTRA.REPUL.0>
0.730195

>  <SCORE.INTRA.SOLV>
-5.31154

>  <SCORE.INTRA.SOLV.lig_0>
-127.221

>  <SCORE.INTRA.VDW>
-13.1292

>  <SCORE.INTRA.VDW.0>
10.8385

>  <SCORE.INTRA.norm>
-0.671206

>  <SCORE.RESTR>
0

>  <SCORE.RESTR.CAVITY>
0

>  <SCORE.RESTR.norm>
0

>  <SCORE.SYSTEM>
0

>  <SCORE.SYSTEM.CONST>
0

>  <SCORE.SYSTEM.DIHEDRAL>
0

>  <SCORE.SYSTEM.SOLV>
0

>  <SCORE.SYSTEM.norm>
0

>  <SCORE.heavy>
32

>  <SCORE.norm>
-1.71666

>  <RMSD>
2.396

$$$$
2tob cryst
 OpenBabel11021811463D
libRbt.so/2013.1/901 2013/11/27
 32 34  0  0  0  0  0  0  0  0999 V2000
   -8.8050    0.4867   -8.5932 C   0  0  2  0  0  0  0  0  0  0  0  0
   -7.4139    0.5952   -9.2096 C   0  0  1  0  0  0  0  0  0  0  0  0
   -6.6649   -0.7173   -8.9771 C   0  0  2  0  0  0  0  0  0  0  0  0
   -6.6350   -1.0724   -7.4846 C   0  0  1  0  0  0  0  0  0  0  0  0
   -8.0549   -1.0357   -6.9089 C   0  0  1  0  0  0  0  0  0  0  0  0
   -8.1257   -1.2304   -5.4032 C   0  0  0  0  0  0  0  0  0  0  0  0
   -7.5188    0.8507  -10.6077 O   0  0  0  0  0  0  0  0  0  0  0  0
   -5.2627   -0.8144   -9.4931 N   0  3  0  0  0  0  0  0  0  0  0  0
   -6.0835   -2.3740   -7.3300 O   0  0  0  0  0  0  0  0  0  0  0  0
   -8.6731    0.2319   -7.2075 O   0  0  0  0  0  0  0  0  0  0  0  0
   -7.8548   -2.5841   -5.0539 O   0  0  0  0  0  0  0  0  0  0  0  0
  -11.9046   -0.3839   -9.1921 C   0  0  2  0  0  0  0  0  0  0  0  0
  -13.2377   -1.0482   -8.8224 C   0  0  0  0  0  0  0  0  0  0  0  0
  -13.2172   -2.5554   -9.0618 C   0  0  1  0  0  0  0  0  0  0  0  0
  -12.0690   -3.1543   -8.2613 C   0  0  2  0  0  0  0  0  0  0  0  0
  -10.7406   -2.6009   -8.7832 C   0  0  1  0  0  0  0  0  0  0  0  0
  -10.6752   -1.0765   -8.5832 C   0  0  1  0  0  0  0  0  0  0  0  0
  -11.9026    1.0610   -8.7828 N   0  3  0  0  0  0  0  0  0  0  0  0
  -14.5289   -3.1778   -8.6870 N   0  3  0  0  0  0  0  0  0  0  0  0
   -9.6658   -3.2339   -8.1005 O   0  0  0  0  0  0  0  0  0  0  0  0
  -12.0780   -4.5899   -8.3634 O   0  0  0  0  0  0  0  0  0  0  0  0
   -9.5000   -0.5492   -9.2332 O   0  0  0  0  0  0  0  0  0  0  0  0
  -11.1233   -5.2126   -7.5489 C   0  0  2  0  0  0  0  0  0  0  0  0
  -11.1747   -6.7306   -7.7516 C   0  0  1  0  0  0  0  0  0  0  0  0
  -12.4051   -7.3335   -7.0732 C   0  0  0  0  0  0  0  0  0  0  0  0
  -12.4322   -6.8934   -5.6184 C   0  0  1  0  0  0  0  0  0  0  0  0
  -12.4564   -5.3760   -5.5561 C   0  0  1  0  0  0  0  0  0  0  0  0
  -12.4900   -4.8735   -4.1241 C   0  0  0  0  0  0  0  0  0  0  0  0
  -11.2185   -7.0367   -9.2172 N   0  3  0  0  0  0  0  0  0  0  0  0
  -11.1824   -5.2340   -3.4737 N   0  3  0  0  0  0  0  0  0  0  0  0
  -13.5752   -7.4243   -4.9629 O   0  0  0  0  0  0  0  0  0  0  0  0
  -11.2693   -4.8560   -6.1784 O   0  0  0  0  0  0  0  0  0  0  0  0
  1  2  1  0  0  0  0
  1 22  1  6  0  0  0
  1 10  1  0  0  0  0
  2  3  1  0  0  0  0
  2  7  1  6  0  0  0
  3  4  1  0  0  0  0
  3  8  1  1  0  0  0
  4  5  1  0  0  0  0
  4  9  1  6  0  0  0
  5  6  1  1  0  0  0
  5 10  1  0  0  0  0
  6 11  1  0  0  0  0
 12 13  1  0  0  0  0
 12 17  1  0  0  0  0
 12 18  1  1  0  0  0
 13 14  1  0  0  0  0
 14 15  1  0  0  0  0
 14 19  1  1  0  0  0
 15 16  1  0  0  0  0
 15 21  1  6  0  0  0
 16 17  1  0  0  0  0
 16 20  1  1  0  0  0
 17 22  1  6  0  0  0
 23 21  1  6  0  0  0
 23 24  1  0  0  0  0
 23 32  1  0  0  0  0
 24 25  1  0  0  0  0
 24 29  1  6  0  0  0
 25 26  1  0  0  0  0
 26 27  1  0  0  0  0
 26 31  1  6  0  0  0
 27 28  1  1  0  0  0
 27 32  1  0  0  0  0
 28 30  1  0  0  0  0
M  CHG  5   8   1  18   1  19   1  29   1  30   1
M  END
>  <CHROM.1>
163.09356284,65.16485113,-173.28866091,78.51583035,-72.67148696,50.60188746
-75.87794899,-156.72974257,-174.33860867,176.27070641,96.84105268,-178.30645245
-170.84411666,-56.95089282,66.67120812,-73.82172033,-10.28179705,-2.82141308
-7.60687526,0.87902912,-0.30153511,-0.62376054

>  <Name>
2tob cryst

>  <RI>
0

>  <Rbt.Current_Directory>
/home/itssahil/PROJECTS/Mol_Feturizer/New_Systems/rnas/2tob

>  <Rbt.Executable>
rbdock ($Id: //depot/dev/client3/rdock/2013.1/src/exe/rbdock.cxx#4 $)

>  <Rbt.Library>
libRbt.so (2013.1, Build901 2013/11/27)

>  <Rbt.Parameter_File>
/export/apps/rDock/src/rDock_2013.1_src/data/scripts/dock_solv.prm

>  <Rbt.Receptor>
prm/pocket_docking_3.prm

>  <SCORE>
-52.9007

>  <SCORE.INTER>
-32.7844

>  <SCORE.INTER.CONST>
1

>  <SCORE.INTER.POLAR>
-5.93915

>  <SCORE.INTER.ROT>
6

>  <SCORE.INTER.SOLV>
36.7264

>  <SCORE.INTER.VDW>
-21.9012

>  <SCORE.INTER.norm>
-1.02451

>  <SCORE.INTRA>
-20.233

>  <SCORE.INTRA.DIHEDRAL>
-6.38293

>  <SCORE.INTRA.DIHEDRAL.0>
18.4221

>  <SCORE.INTRA.POLAR>
0.64989

>  <SCORE.INTRA.POLAR.0>
-1.57101

>  <SCORE.INTRA.REPUL>
-0.705811

>  <SCORE.INTRA.REPUL.0>
0.730195

>  <SCORE.INTRA.SOLV>
-7.03281

>  <SCORE.INTRA.SOLV.lig_0>
-127.221

>  <SCORE.INTRA.VDW>
-12.2057

>  <SCORE.INTRA.VDW.0>
10.8385

>  <SCORE.INTRA.norm>
-0.632281

>  <SCORE.RESTR>
0.116658

>  <SCORE.RESTR.CAVITY>
0.116658

>  <SCORE.RESTR.norm>
0.00364557

>  <SCORE.SYSTEM>
0

>  <SCORE.SYSTEM.CONST>
0

>  <SCORE.SYSTEM.DIHEDRAL>
0

>  <SCORE.SYSTEM.SOLV>
0

>  <SCORE.SYSTEM.norm>
0

>  <SCORE.heavy>
32

>  <SCORE.norm>
-1.65315

>  <RMSD>
2.398

$$$$
2tob cryst
 OpenBabel11021811463D
libRbt.so/2013.1/901 2013/11/27
 32 34  0  0  0  0  0  0  0  0999 V2000
   -9.6342    0.1742   -8.4298 C   0  0  2  0  0  0  0  0  0  0  0  0
   -8.2336    0.4594   -8.9626 C   0  0  1  0  0  0  0  0  0  0  0  0
   -7.3022   -0.6781   -8.5426 C   0  0  2  0  0  0  0  0  0  0  0  0
   -7.3374   -0.8799   -7.0219 C   0  0  1  0  0  0  0  0  0  0  0  0
   -8.7867   -1.0316   -6.5470 C   0  0  1  0  0  0  0  0  0  0  0  0
   -8.9480   -1.0921   -5.0369 C   0  0  0  0  0  0  0  0  0  0  0  0
   -8.2637    0.5599  -10.3838 O   0  0  0  0  0  0  0  0  0  0  0  0
   -5.8654   -0.5830   -8.9530 N   0  3  0  0  0  0  0  0  0  0  0  0
   -6.5956   -2.0479   -6.6933 O   0  0  0  0  0  0  0  0  0  0  0  0
   -9.5767    0.0780   -7.0192 O   0  0  0  0  0  0  0  0  0  0  0  0
   -8.4657   -2.3302   -4.5248 O   0  0  0  0  0  0  0  0  0  0  0  0
  -12.4855   -1.3313   -9.0739 C   0  0  2  0  0  0  0  0  0  0  0  0
  -13.6858   -2.2068   -8.6893 C   0  0  0  0  0  0  0  0  0  0  0  0
  -13.3611   -3.6962   -8.7638 C   0  0  1  0  0  0  0  0  0  0  0  0
  -12.1700   -3.9750   -7.8574 C   0  0  2  0  0  0  0  0  0  0  0  0
  -10.9437   -3.2235   -8.3814 C   0  0  1  0  0  0  0  0  0  0  0  0
  -11.1853   -1.7042   -8.3443 C   0  0  1  0  0  0  0  0  0  0  0  0
  -12.7867    0.1184   -8.8229 N   0  3  0  0  0  0  0  0  0  0  0  0
  -14.5487   -4.5260   -8.3778 N   0  3  0  0  0  0  0  0  0  0  0  0
   -9.8108   -3.5616   -7.5913 O   0  0  0  0  0  0  0  0  0  0  0  0
  -11.8962   -5.3870   -7.8045 O   0  0  0  0  0  0  0  0  0  0  0  0
  -10.0962   -1.0209   -8.9991 O   0  0  0  0  0  0  0  0  0  0  0  0
  -11.7855   -5.8847   -6.4997 C   0  0  2  0  0  0  0  0  0  0  0  0
  -10.5869   -6.8345   -6.4035 C   0  0  1  0  0  0  0  0  0  0  0  0
  -10.8918   -8.1728   -7.0770 C   0  0  0  0  0  0  0  0  0  0  0  0
  -12.1833   -8.7319   -6.5025 C   0  0  1  0  0  0  0  0  0  0  0  0
  -13.3045   -7.7327   -6.7291 C   0  0  1  0  0  0  0  0  0  0  0  0
  -14.6263   -8.2383   -6.1802 C   0  0  0  0  0  0  0  0  0  0  0  0
   -9.3990   -6.2070   -7.0658 N   0  3  0  0  0  0  0  0  0  0  0  0
  -14.5604   -8.1776   -4.6786 N   0  3  0  0  0  0  0  0  0  0  0  0
  -12.5040   -9.9698   -7.1212 O   0  0  0  0  0  0  0  0  0  0  0  0
  -12.9883   -6.5029   -6.0549 O   0  0  0  0  0  0  0  0  0  0  0  0
  1  2  1  0  0  0  0
  1 22  1  6  0  0  0
  1 10  1  0  0  0  0
  2  3  1  0  0  0  0
  2  7  1  6  0  0  0
  3  4  1  0  0  0  0
  3  8  1  1  0  0  0
  4  5  1  0  0  0  0
  4  9  1  6  0  0  0
  5  6  1  1  0  0  0
  5 10  1  0  0  0  0
  6 11  1  0  0  0  0
 12 13  1  0  0  0  0
 12 17  1  0  0  0  0
 12 18  1  1  0  0  0
 13 14  1  0  0  0  0
 14 15  1  0  0  0  0
 14 19  1  1  0  0  0
 15 16  1  0  0  0  0
 15 21  1  6  0  0  0
 16 17  1  0  0  0  0
 16 20  1  1  0  0  0
 17 22  1  6  0  0  0
 23 21  1  6  0  0  0
 23 24  1  0  0  0  0
 23 32  1  0  0  0  0
 24 25  1  0  0  0  0
 24 29  1  6  0  0  0
 25 26  1  0  0  0  0
 26 27  1  0  0  0  0
 26 31  1  6  0  0  0
 27 28  1  1  0  0  0
 27 32  1  0  0  0  0
 28 30  1  0  0  0  0
M  CHG  5   8   1  18   1  19   1  29   1  30   1
M  END
>  <CHROM.1>
160.73208355,45.29510717,69.76767706,77.71146043,-71.54212575,-174.97921796
-18.89304013,-47.26159886,-129.10615081,177.76264028,98.23289905,-136.30727201
29.47235861,175.82883595,72.26585716,174.64741962,-10.75184967,-3.58022087
-7.45922629,0.99629016,-0.27354946,-0.38906886

>  <Name>
2tob cryst

>  <RI>
3.75586e+07

>  <Rbt.Current_Directory>
/home/itssahil/PROJECTS/Mol_Feturizer/New_Systems/rnas/2tob

>  <Rbt.Executable>
rbdock ($Id: //depot/dev/client3/rdock/2013.1/src/exe/rbdock.cxx#4 $)

>  <Rbt.Library>
libRbt.so (2013.1, Build901 2013/11/27)

>  <Rbt.Parameter_File>
/export/apps/rDock/src/rDock_2013.1_src/data/scripts/dock_solv.prm

>  <Rbt.Receptor>
prm/pocket_docking_8.prm

>  <SCORE>
-52.399

>  <SCORE.INTER>
-38.3516

>  <SCORE.INTER.CONST>
1

>  <SCORE.INTER.POLAR>
-5.65642

>  <SCORE.INTER.ROT>
6

>  <SCORE.INTER.SOLV>
30.1493

>  <SCORE.INTER.VDW>
-24.3628

>  <SCORE.INTER.norm>
-1.19849

>  <SCORE.INTRA>
-14.0473

>  <SCORE.INTRA.DIHEDRAL>
10.1074

>  <SCORE.INTRA.DIHEDRAL.0>
18.4221

>  <SCORE.INTRA.POLAR>
0.331847

>  <SCORE.INTRA.POLAR.0>
-1.57101

>  <SCORE.INTRA.REPUL>
-0.730195

>  <SCORE.INTRA.REPUL.0>
0.730195

>  <SCORE.INTRA.SOLV>
-2.81683

>  <SCORE.INTRA.SOLV.lig_0>
-127.221

>  <SCORE.INTRA.VDW>
-15.1699

>  <SCORE.INTRA.VDW.0>
10.8385

>  <SCORE.INTRA.norm>
-0.43898

>  <SCORE.RESTR>
0

>  <SCORE.RESTR.CAVITY>
0

>  <SCORE.RESTR.norm>
0

>  <SCORE.SYSTEM>
0

>  <SCORE.SYSTEM.CONST>
0

>  <SCORE.SYSTEM.DIHEDRAL>
0

>  <SCORE.SYSTEM.SOLV>
0

>  <SCORE.SYSTEM.norm>
0

>  <SCORE.heavy>
32

>  <SCORE.norm>
-1.63747

>  <RMSD>
2.398

$$$$
2tob cryst
 OpenBabel11021811463D
libRbt.so/2013.1/901 2013/11/27
 32 34  0  0  0  0  0  0  0  0999 V2000
   -9.8209   -0.6776   -7.7423 C   0  0  2  0  0  0  0  0  0  0  0  0
   -9.7049    0.7432   -8.2853 C   0  0  1  0  0  0  0  0  0  0  0  0
   -8.7929    0.7321   -9.5124 C   0  0  2  0  0  0  0  0  0  0  0  0
   -7.4337    0.1038   -9.1774 C   0  0  1  0  0  0  0  0  0  0  0  0
   -7.6374   -1.2654   -8.5195 C   0  0  1  0  0  0  0  0  0  0  0  0
   -6.3592   -1.9140   -8.0140 C   0  0  0  0  0  0  0  0  0  0  0  0
  -10.9935    1.2342   -8.6450 O   0  0  0  0  0  0  0  0  0  0  0  0
   -8.5311    2.0406  -10.1916 N   0  3  0  0  0  0  0  0  0  0  0  0
   -6.6837   -0.0422  -10.3767 O   0  0  0  0  0  0  0  0  0  0  0  0
   -8.5301   -1.1415   -7.3943 O   0  0  0  0  0  0  0  0  0  0  0  0
   -5.4665   -2.1816   -9.0908 O   0  0  0  0  0  0  0  0  0  0  0  0
  -12.1909   -2.9146   -9.4845 C   0  0  2  0  0  0  0  0  0  0  0  0
  -12.9760   -4.2177   -9.2828 C   0  0  0  0  0  0  0  0  0  0  0  0
  -12.0796   -5.3672   -8.8306 C   0  0  1  0  0  0  0  0  0  0  0  0
  -11.3742   -4.9512   -7.5471 C   0  0  2  0  0  0  0  0  0  0  0  0
  -10.4599   -3.7571   -7.8320 C   0  0  1  0  0  0  0  0  0  0  0  0
  -11.2849   -2.5451   -8.2994 C   0  0  1  0  0  0  0  0  0  0  0  0
  -13.1255   -1.7715   -9.7585 N   0  3  0  0  0  0  0  0  0  0  0  0
  -12.8734   -6.6243   -8.6362 N   0  3  0  0  0  0  0  0  0  0  0  0
   -9.7294   -3.4319   -6.6561 O   0  0  0  0  0  0  0  0  0  0  0  0
  -10.6037   -6.0456   -7.0178 O   0  0  0  0  0  0  0  0  0  0  0  0
  -10.4004   -1.4889   -8.7280 O   0  0  0  0  0  0  0  0  0  0  0  0
  -10.5078   -6.0351   -5.6202 C   0  0  2  0  0  0  0  0  0  0  0  0
  -10.1234   -7.4290   -5.1131 C   0  0  1  0  0  0  0  0  0  0  0  0
  -11.3084   -8.3911   -5.2010 C   0  0  0  0  0  0  0  0  0  0  0  0
  -12.5011   -7.7717   -4.4906 C   0  0  1  0  0  0  0  0  0  0  0  0
  -12.8271   -6.4353   -5.1345 C   0  0  1  0  0  0  0  0  0  0  0  0
  -14.0174   -5.7676   -4.4701 C   0  0  0  0  0  0  0  0  0  0  0  0
   -8.9907   -7.9637   -5.9345 N   0  3  0  0  0  0  0  0  0  0  0  0
  -13.5740   -5.2556   -3.1269 N   0  3  0  0  0  0  0  0  0  0  0  0
  -13.6261   -8.6355   -4.5691 O   0  0  0  0  0  0  0  0  0  0  0  0
  -11.6974   -5.5560   -5.0021 O   0  0  0  0  0  0  0  0  0  0  0  0
  1  2  1  0  0  0  0
  1 22  1  6  0  0  0
  1 10  1  0  0  0  0
  2  3  1  0  0  0  0
  2  7  1  6  0  0  0
  3  4  1  0  0  0  0
  3  8  1  1  0  0  0
  4  5  1  0  0  0  0
  4  9  1  6  0  0  0
  5  6  1  1  0  0  0
  5 10  1  0  0  0  0
  6 11  1  0  0  0  0
 12 13  1  0  0  0  0
 12 17  1  0  0  0  0
 12 18  1  1  0  0  0
 13 14  1  0  0  0  0
 14 15  1  0  0  0  0
 14 19  1  1  0  0  0
 15 16  1  0  0  0  0
 15 21  1  6  0  0  0
 16 17  1  0  0  0  0
 16 20  1  1  0  0  0
 17 22  1  6  0  0  0
 23 21  1  6  0  0  0
 23 24  1  0  0  0  0
 23 32  1  0  0  0  0
 24 25  1  0  0  0  0
 24 29  1  6  0  0  0
 25 26  1  0  0  0  0
 26 27  1  0  0  0  0
 26 31  1  6  0  0  0
 27 28  1  1  0  0  0
 27 32  1  0  0  0  0
 28 30  1  0  0  0  0
M  CHG  5   8   1  18   1  19   1  29   1  30   1
M  END
>  <CHROM.1>
-144.83162415,58.63873646,-97.32367017,175.39749588,-62.98971244,-178.78689904
76.25908952,175.52943912,-148.84404436,70.17123877,158.22485746,160.31916948
86.66822189,71.78150937,73.10722573,-167.02338401,-10.49119589,-3.57311231
-7.43070788,1.12205069,0.00463531,-0.50649781

>  <Name>
2tob cryst

>  <RI>
0

>  <Rbt.Current_Directory>
/home/itssahil/PROJECTS/Mol_Feturizer/New_Systems/rnas/2tob

>  <Rbt.Executable>
rbdock ($Id: //depot/dev/client3/rdock/2013.1/src/exe/rbdock.cxx#4 $)

>  <Rbt.Library>
libRbt.so (2013.1, Build901 2013/11/27)

>  <Rbt.Parameter_File>
/export/apps/rDock/src/rDock_2013.1_src/data/scripts/dock_solv.prm

>  <Rbt.Receptor>
prm/pocket_docking_5.prm

>  <SCORE>
-64.5406

>  <SCORE.INTER>
-46.5448

>  <SCORE.INTER.CONST>
1

>  <SCORE.INTER.POLAR>
-6.89353

>  <SCORE.INTER.ROT>
6

>  <SCORE.INTER.SOLV>
31.6727

>  <SCORE.INTER.VDW>
-26.209

>  <SCORE.INTER.norm>
-1.45452

>  <SCORE.INTRA>
-17.9958

>  <SCORE.INTRA.DIHEDRAL>
0.823607

>  <SCORE.INTRA.DIHEDRAL.0>
18.4221

>  <SCORE.INTRA.POLAR>
0.838333

>  <SCORE.INTRA.POLAR.0>
-1.57101

>  <SCORE.INTRA.REPUL>
-0.730195

>  <SCORE.INTRA.REPUL.0>
0.730195

>  <SCORE.INTRA.SOLV>
-6.82595

>  <SCORE.INTRA.SOLV.lig_0>
-127.221

>  <SCORE.INTRA.VDW>
-14.194

>  <SCORE.INTRA.VDW.0>
10.8385

>  <SCORE.INTRA.norm>
-0.56237

>  <SCORE.RESTR>
0

>  <SCORE.RESTR.CAVITY>
0

>  <SCORE.RESTR.norm>
0

>  <SCORE.SYSTEM>
0

>  <SCORE.SYSTEM.CONST>
0

>  <SCORE.SYSTEM.DIHEDRAL>
0

>  <SCORE.SYSTEM.SOLV>
0

>  <SCORE.SYSTEM.norm>
0

>  <SCORE.heavy>
32

>  <SCORE.norm>
-2.01689

>  <RMSD>
2.422

$$$$
2tob cryst
 OpenBabel11021811463D
libRbt.so/2013.1/901 2013/11/27
 32 34  0  0  0  0  0  0  0  0999 V2000
   -8.1999   -0.0701   -7.3681 C   0  0  2  0  0  0  0  0  0  0  0  0
   -8.0032    1.4003   -7.7233 C   0  0  1  0  0  0  0  0  0  0  0  0
   -7.4401    1.4967   -9.1414 C   0  0  2  0  0  0  0  0  0  0  0  0
   -6.1554    0.6686   -9.2767 C   0  0  1  0  0  0  0  0  0  0  0  0
   -6.3991   -0.7611   -8.7812 C   0  0  1  0  0  0  0  0  0  0  0  0
   -5.1523   -1.6292   -8.7349 C   0  0  0  0  0  0  0  0  0  0  0  0
   -9.2480    2.0902   -7.6495 O   0  0  0  0  0  0  0  0  0  0  0  0
   -7.1556    2.8640   -9.6813 N   0  3  0  0  0  0  0  0  0  0  0  0
   -5.7610    0.6469  -10.6428 O   0  0  0  0  0  0  0  0  0  0  0  0
   -6.9517   -0.7318   -7.4500 O   0  0  0  0  0  0  0  0  0  0  0  0
   -4.6473   -1.8612  -10.0459 O   0  0  0  0  0  0  0  0  0  0  0  0
  -11.3702   -0.1250   -8.9847 C   0  0  2  0  0  0  0  0  0  0  0  0
  -12.8709   -0.4019   -8.8229 C   0  0  0  0  0  0  0  0  0  0  0  0
  -13.1580   -1.8716   -8.5278 C   0  0  1  0  0  0  0  0  0  0  0  0
  -12.3917   -2.2692   -7.2737 C   0  0  2  0  0  0  0  0  0  0  0  0
  -10.8882   -2.1515   -7.5362 C   0  0  1  0  0  0  0  0  0  0  0  0
  -10.5072   -0.6933   -7.8471 C   0  0  1  0  0  0  0  0  0  0  0  0
  -11.1143    1.3503   -9.1001 N   0  3  0  0  0  0  0  0  0  0  0  0
  -14.6295   -2.1113   -8.3691 N   0  3  0  0  0  0  0  0  0  0  0  0
  -10.1735   -2.6154   -6.3978 O   0  0  0  0  0  0  0  0  0  0  0  0
  -12.7198   -3.6165   -6.8882 O   0  0  0  0  0  0  0  0  0  0  0  0
   -9.1265   -0.6274   -8.2606 O   0  0  0  0  0  0  0  0  0  0  0  0
  -12.4550   -4.5622   -7.8873 C   0  0  2  0  0  0  0  0  0  0  0  0
  -12.8240   -5.9638   -7.3900 C   0  0  1  0  0  0  0  0  0  0  0  0
  -11.7941   -6.4779   -6.3837 C   0  0  0  0  0  0  0  0  0  0  0  0
  -10.4081   -6.3751   -6.9995 C   0  0  1  0  0  0  0  0  0  0  0  0
  -10.1355   -4.9296   -7.3775 C   0  0  1  0  0  0  0  0  0  0  0  0
   -8.7590   -4.7608   -7.9947 C   0  0  0  0  0  0  0  0  0  0  0  0
  -14.1728   -5.9232   -6.7399 N   0  3  0  0  0  0  0  0  0  0  0  0
   -8.1303   -3.5302   -7.4004 N   0  3  0  0  0  0  0  0  0  0  0  0
   -9.4246   -6.8303   -6.0811 O   0  0  0  0  0  0  0  0  0  0  0  0
  -11.1084   -4.4999   -8.3449 O   0  0  0  0  0  0  0  0  0  0  0  0
  1  2  1  0  0  0  0
  1 22  1  6  0  0  0
  1 10  1  0  0  0  0
  2  3  1  0  0  0  0
  2  7  1  6  0  0  0
  3  4  1  0  0  0  0
  3  8  1  1  0  0  0
  4  5  1  0  0  0  0
  4  9  1  6  0  0  0
  5  6  1  1  0  0  0
  5 10  1  0  0  0  0
  6 11  1  0  0  0  0
 12 13  1  0  0  0  0
 12 17  1  0  0  0  0
 12 18  1  1  0  0  0
 13 14  1  0  0  0  0
 14 15  1  0  0  0  0
 14 19  1  1  0  0  0
 15 16  1  0  0  0  0
 15 21  1  6  0  0  0
 16 17  1  0  0  0  0
 16 20  1  1  0  0  0
 17 22  1  6  0  0  0
 23 21  1  1  0  0  0
 23 24  1  0  0  0  0
 23 32  1  0  0  0  0
 24 25  1  0  0  0  0
 24 29  1  1  0  0  0
 25 26  1  0  0  0  0
 26 27  1  0  0  0  0
 26 31  1  1  0  0  0
 27 28  1  6  0  0  0
 27 32  1  0  0  0  0
 28 30  1  0  0  0  0
M  CHG  5   8   1  18   1  19   1  29   1  30   1
M  END
>  <CHROM.1>
-95.77627310,57.60896889,85.14304816,70.01617491,-65.81986691,177.57891603
-178.85845414,95.18738093,58.00135064,-57.75293576,130.95541757,179.63526027
-171.48549972,175.98179206,-136.49774636,20.00236647,-9.76404379,-2.00279696
-8.03814288,0.83076166,0.09502761,-0.23823030

>  <Name>
2tob cryst

>  <RI>
0

>  <Rbt.Current_Directory>
/home/itssahil/PROJECTS/Mol_Feturizer/New_Systems/rnas/2tob

>  <Rbt.Executable>
rbdock ($Id: //depot/dev/client3/rdock/2013.1/src/exe/rbdock.cxx#4 $)

>  <Rbt.Library>
libRbt.so (2013.1, Build901 2013/11/27)

>  <Rbt.Parameter_File>
/export/apps/rDock/src/rDock_2013.1_src/data/scripts/dock_solv.prm

>  <Rbt.Receptor>
prm/blind_docking_80.prm

>  <SCORE>
-47.9033

>  <SCORE.INTER>
-49.8004

>  <SCORE.INTER.CONST>
1

>  <SCORE.INTER.POLAR>
-6.9528

>  <SCORE.INTER.ROT>
6

>  <SCORE.INTER.SOLV>
36.7169

>  <SCORE.INTER.VDW>
-29.8632

>  <SCORE.INTER.norm>
-1.55626

>  <SCORE.INTRA>
-7.45858

>  <SCORE.INTRA.DIHEDRAL>
4.70697

>  <SCORE.INTRA.DIHEDRAL.0>
18.4221

>  <SCORE.INTRA.POLAR>
0.221356

>  <SCORE.INTRA.POLAR.0>
-1.57101

>  <SCORE.INTRA.REPUL>
-0.730195

>  <SCORE.INTRA.REPUL.0>
0.730195

>  <SCORE.INTRA.SOLV>
5.03461

>  <SCORE.INTRA.SOLV.lig_0>
-127.221

>  <SCORE.INTRA.VDW>
-9.431

>  <SCORE.INTRA.VDW.0>
10.8385

>  <SCORE.INTRA.norm>
-0.233081

>  <SCORE.RESTR>
9.35568

>  <SCORE.RESTR.CAVITY>
9.35568

>  <SCORE.RESTR.norm>
0.292365

>  <SCORE.SYSTEM>
0

>  <SCORE.SYSTEM.CONST>
0

>  <SCORE.SYSTEM.DIHEDRAL>
0

>  <SCORE.SYSTEM.SOLV>
0

>  <SCORE.SYSTEM.norm>
0

>  <SCORE.heavy>
32

>  <SCORE.norm>
-1.49698

>  <RMSD>
2.463

$$$$
2tob cryst
 OpenBabel11021811463D
libRbt.so/2013.1/901 2013/11/27
 32 34  0  0  0  0  0  0  0  0999 V2000
   -8.3758   -0.3011   -7.3625 C   0  0  2  0  0  0  0  0  0  0  0  0
   -8.1730    1.1858   -7.6363 C   0  0  1  0  0  0  0  0  0  0  0  0
   -7.5947    1.3569   -9.0413 C   0  0  2  0  0  0  0  0  0  0  0  0
   -6.3101    0.5343   -9.2073 C   0  0  1  0  0  0  0  0  0  0  0  0
   -6.5614   -0.9193   -8.7918 C   0  0  1  0  0  0  0  0  0  0  0  0
   -5.3166   -1.7914   -8.7791 C   0  0  0  0  0  0  0  0  0  0  0  0
   -9.4173    1.8735   -7.5386 O   0  0  0  0  0  0  0  0  0  0  0  0
   -7.3023    2.7505   -9.5041 N   0  3  0  0  0  0  0  0  0  0  0  0
   -5.9014    0.5849  -10.5685 O   0  0  0  0  0  0  0  0  0  0  0  0
   -7.1279   -0.9602   -7.4668 O   0  0  0  0  0  0  0  0  0  0  0  0
   -5.6587   -3.1601   -8.5857 O   0  0  0  0  0  0  0  0  0  0  0  0
  -11.6099   -0.4989   -8.8861 C   0  0  2  0  0  0  0  0  0  0  0  0
  -13.0619   -0.9602   -8.7013 C   0  0  0  0  0  0  0  0  0  0  0  0
  -13.1708   -2.4744   -8.5448 C   0  0  1  0  0  0  0  0  0  0  0  0
  -12.3091   -2.8994   -7.3638 C   0  0  2  0  0  0  0  0  0  0  0  0
  -10.8414   -2.5857   -7.6646 C   0  0  1  0  0  0  0  0  0  0  0  0
  -10.6386   -1.0705   -7.8412 C   0  0  1  0  0  0  0  0  0  0  0  0
  -11.5244    1.0002   -8.8623 N   0  3  0  0  0  0  0  0  0  0  0  0
  -14.5981   -2.8952   -8.3605 N   0  3  0  0  0  0  0  0  0  0  0  0
  -10.0288   -3.0711   -6.6034 O   0  0  0  0  0  0  0  0  0  0  0  0
  -12.4683   -4.3060   -7.1038 O   0  0  0  0  0  0  0  0  0  0  0  0
   -9.2939   -0.8077   -8.2932 O   0  0  0  0  0  0  0  0  0  0  0  0
  -11.9854   -4.6989   -5.8488 C   0  0  2  0  0  0  0  0  0  0  0  0
  -12.2285   -6.1976   -5.6421 C   0  0  1  0  0  0  0  0  0  0  0  0
  -13.7042   -6.4803   -5.3591 C   0  0  0  0  0  0  0  0  0  0  0  0
  -14.1620   -5.6050   -4.2037 C   0  0  1  0  0  0  0  0  0  0  0  0
  -13.9392   -4.1463   -4.5634 C   0  0  1  0  0  0  0  0  0  0  0  0
  -14.3840   -3.2187   -3.4473 C   0  0  0  0  0  0  0  0  0  0  0  0
  -11.8087   -6.9451   -6.8703 N   0  3  0  0  0  0  0  0  0  0  0  0
  -15.8880   -3.1954   -3.4330 N   0  3  0  0  0  0  0  0  0  0  0  0
  -15.5366   -5.8320   -3.9264 O   0  0  0  0  0  0  0  0  0  0  0  0
  -12.5376   -3.9219   -4.7915 O   0  0  0  0  0  0  0  0  0  0  0  0
  1  2  1  0  0  0  0
  1 22  1  6  0  0  0
  1 10  1  0  0  0  0
  2  3  1  0  0  0  0
  2  7  1  6  0  0  0
  3  4  1  0  0  0  0
  3  8  1  1  0  0  0
  4  5  1  0  0  0  0
  4  9  1  6  0  0  0
  5  6  1  1  0  0  0
  5 10  1  0  0  0  0
  6 11  1  0  0  0  0
 12 13  1  0  0  0  0
 12 17  1  0  0  0  0
 12 18  1  1  0  0  0
 13 14  1  0  0  0  0
 14 15  1  0  0  0  0
 14 19  1  1  0  0  0
 15 16  1  0  0  0  0
 15 21  1  6  0  0  0
 16 17  1  0  0  0  0
 16 20  1  1  0  0  0
 17 22  1  6  0  0  0
 23 21  1  6  0  0  0
 23 24  1  0  0  0  0
 23 32  1  0  0  0  0
 24 25  1  0  0  0  0
 24 29  1  6  0  0  0
 25 26  1  0  0  0  0
 26 27  1  0  0  0  0
 26 31  1  6  0  0  0
 27 28  1  1  0  0  0
 27 32  1  0  0  0  0
 28 30  1  0  0  0  0
M  CHG  5   8   1  18   1  19   1  29   1  30   1
M  END
>  <CHROM.1>
-104.37372619,45.64004219,83.64901877,66.32245908,-171.08360070,-78.88434233
60.59700288,-40.24680106,-164.72003881,-178.36366164,134.23902147,178.49242774
-171.01438409,52.48337667,-73.66935855,-65.05337211,-10.73653824,-2.16658921
-7.21632056,-0.71050693,-0.28034559,2.81498312

>  <Name>
2tob cryst

>  <RI>
0

>  <Rbt.Current_Directory>
/home/itssahil/PROJECTS/Mol_Feturizer/New_Systems/rnas/2tob

>  <Rbt.Executable>
rbdock ($Id: //depot/dev/client3/rdock/2013.1/src/exe/rbdock.cxx#4 $)

>  <Rbt.Library>
libRbt.so (2013.1, Build901 2013/11/27)

>  <Rbt.Parameter_File>
/export/apps/rDock/src/rDock_2013.1_src/data/scripts/dock_solv.prm

>  <Rbt.Receptor>
prm/pocket_docking_6.prm

>  <SCORE>
-64.1027

>  <SCORE.INTER>
-44.905

>  <SCORE.INTER.CONST>
1

>  <SCORE.INTER.POLAR>
-6.61782

>  <SCORE.INTER.ROT>
6

>  <SCORE.INTER.SOLV>
29.6406

>  <SCORE.INTER.VDW>
-25.3575

>  <SCORE.INTER.norm>
-1.40328

>  <SCORE.INTRA>
-19.1977

>  <SCORE.INTRA.DIHEDRAL>
1.53814

>  <SCORE.INTRA.DIHEDRAL.0>
18.4221

>  <SCORE.INTRA.POLAR>
0.174236

>  <SCORE.INTRA.POLAR.0>
-1.57101

>  <SCORE.INTRA.REPUL>
-0.730195

>  <SCORE.INTRA.REPUL.0>
0.730195

>  <SCORE.INTRA.SOLV>
-5.14891

>  <SCORE.INTRA.SOLV.lig_0>
-127.221

>  <SCORE.INTRA.VDW>
-14.3337

>  <SCORE.INTRA.VDW.0>
10.8385

>  <SCORE.INTRA.norm>
-0.599928

>  <SCORE.RESTR>
0

>  <SCORE.RESTR.CAVITY>
0

>  <SCORE.RESTR.norm>
0

>  <SCORE.SYSTEM>
0

>  <SCORE.SYSTEM.CONST>
0

>  <SCORE.SYSTEM.DIHEDRAL>
0

>  <SCORE.SYSTEM.SOLV>
0

>  <SCORE.SYSTEM.norm>
0

>  <SCORE.heavy>
32

>  <SCORE.norm>
-2.00321

>  <RMSD>
2.476

$$$$
2tob cryst
 OpenBabel11021811463D
libRbt.so/2013.1/901 2013/11/27
 32 34  0  0  0  0  0  0  0  0999 V2000
   -9.2773   -0.0406   -7.3022 C   0  0  2  0  0  0  0  0  0  0  0  0
   -9.1943    1.3735   -7.8682 C   0  0  1  0  0  0  0  0  0  0  0  0
   -8.4681    1.3274   -9.2129 C   0  0  2  0  0  0  0  0  0  0  0  0
   -7.0960    0.6555   -9.0702 C   0  0  1  0  0  0  0  0  0  0  0  0
   -7.2477   -0.7036   -8.3784 C   0  0  1  0  0  0  0  0  0  0  0  0
   -5.9319   -1.3924   -8.0552 C   0  0  0  0  0  0  0  0  0  0  0  0
  -10.5045    1.9056   -8.0443 O   0  0  0  0  0  0  0  0  0  0  0  0
   -8.2640    2.6238   -9.9337 N   0  3  0  0  0  0  0  0  0  0  0  0
   -6.5305    0.4801  -10.3631 O   0  0  0  0  0  0  0  0  0  0  0  0
   -7.9657   -0.5459   -7.1383 O   0  0  0  0  0  0  0  0  0  0  0  0
   -5.3064   -1.8723   -9.2411 O   0  0  0  0  0  0  0  0  0  0  0  0
  -12.1619   -1.8225   -8.6785 C   0  0  2  0  0  0  0  0  0  0  0  0
  -13.1744   -2.9319   -8.3637 C   0  0  0  0  0  0  0  0  0  0  0  0
  -12.4940   -4.2592   -8.0402 C   0  0  1  0  0  0  0  0  0  0  0  0
  -11.5436   -4.0405   -6.8712 C   0  0  2  0  0  0  0  0  0  0  0  0
  -10.4413   -3.0628   -7.2863 C   0  0  1  0  0  0  0  0  0  0  0  0
  -11.0414   -1.6894   -7.6351 C   0  0  1  0  0  0  0  0  0  0  0  0
  -12.8558   -0.4982   -8.8201 N   0  3  0  0  0  0  0  0  0  0  0  0
  -13.5060   -5.3217   -7.7315 N   0  3  0  0  0  0  0  0  0  0  0  0
   -9.5013   -2.9351   -6.2270 O   0  0  0  0  0  0  0  0  0  0  0  0
  -10.9621   -5.2891   -6.4536 O   0  0  0  0  0  0  0  0  0  0  0  0
  -10.0178   -0.8360   -8.1880 O   0  0  0  0  0  0  0  0  0  0  0  0
  -10.5038   -5.2754   -5.1298 C   0  0  2  0  0  0  0  0  0  0  0  0
  -10.3351   -6.7110   -4.6213 C   0  0  1  0  0  0  0  0  0  0  0  0
  -11.6918   -7.3534   -4.3311 C   0  0  0  0  0  0  0  0  0  0  0  0
  -12.4788   -6.4459   -3.3995 C   0  0  1  0  0  0  0  0  0  0  0  0
  -12.6419   -5.0831   -4.0499 C   0  0  1  0  0  0  0  0  0  0  0  0
  -13.4275   -4.1303   -3.1672 C   0  0  0  0  0  0  0  0  0  0  0  0
   -9.6136   -7.5237   -5.6521 N   0  3  0  0  0  0  0  0  0  0  0  0
  -13.5585   -2.8212   -3.8966 N   0  3  0  0  0  0  0  0  0  0  0  0
  -13.7540   -7.0077   -3.1234 O   0  0  0  0  0  0  0  0  0  0  0  0
  -11.3446   -4.5064   -4.2764 O   0  0  0  0  0  0  0  0  0  0  0  0
  1  2  1  0  0  0  0
  1 22  1  6  0  0  0
  1 10  1  0  0  0  0
  2  3  1  0  0  0  0
  2  7  1  6  0  0  0
  3  4  1  0  0  0  0
  3  8  1  1  0  0  0
  4  5  1  0  0  0  0
  4  9  1  6  0  0  0
  5  6  1  1  0  0  0
  5 10  1  0  0  0  0
  6 11  1  0  0  0  0
 12 13  1  0  0  0  0
 12 17  1  0  0  0  0
 12 18  1  1  0  0  0
 13 14  1  0  0  0  0
 14 15  1  0  0  0  0
 14 19  1  1  0  0  0
 15 16  1  0  0  0  0
 15 21  1  6  0  0  0
 16 17  1  0  0  0  0
 16 20  1  1  0  0  0
 17 22  1  6  0  0  0
 23 21  1  6  0  0  0
 23 24  1  0  0  0  0
 23 32  1  0  0  0  0
 24 25  1  0  0  0  0
 24 29  1  6  0  0  0
 25 26  1  0  0  0  0
 26 27  1  0  0  0  0
 26 31  1  6  0  0  0
 27 28  1  1  0  0  0
 27 32  1  0  0  0  0
 28 30  1  0  0  0  0
M  CHG  5   8   1  18   1  19   1  29   1  30   1
M  END
>  <CHROM.1>
-133.78336684,-55.73285459,-55.83103054,-169.15199168,-71.70310318,-174.27352672
-135.33942767,-171.47898819,-157.14235253,76.89622600,148.77646928,161.50027403
-160.56920114,-55.75262191,-179.08395546,71.96291066,-10.39232380,-2.66334373
-6.91525219,1.04776466,0.19193966,-0.49124050

>  <Name>
2tob cryst

>  <RI>
3.35201e+07

>  <Rbt.Current_Directory>
/home/itssahil/PROJECTS/Mol_Feturizer/New_Systems/rnas/2tob

>  <Rbt.Executable>
rbdock ($Id: //depot/dev/client3/rdock/2013.1/src/exe/rbdock.cxx#4 $)

>  <Rbt.Library>
libRbt.so (2013.1, Build901 2013/11/27)

>  <Rbt.Parameter_File>
/export/apps/rDock/src/rDock_2013.1_src/data/scripts/dock_solv.prm

>  <Rbt.Receptor>
prm/pocket_docking_4.prm

>  <SCORE>
-62.5008

>  <SCORE.INTER>
-45.0013

>  <SCORE.INTER.CONST>
1

>  <SCORE.INTER.POLAR>
-7.10408

>  <SCORE.INTER.ROT>
6

>  <SCORE.INTER.SOLV>
26.6252

>  <SCORE.INTER.VDW>
-22.7957

>  <SCORE.INTER.norm>
-1.40629

>  <SCORE.INTRA>
-17.4995

>  <SCORE.INTRA.DIHEDRAL>
2.80759

>  <SCORE.INTRA.DIHEDRAL.0>
18.4221

>  <SCORE.INTRA.POLAR>
0.646366

>  <SCORE.INTRA.POLAR.0>
-1.57101

>  <SCORE.INTRA.REPUL>
-0.730195

>  <SCORE.INTRA.REPUL.0>
0.730195

>  <SCORE.INTRA.SOLV>
-6.81923

>  <SCORE.INTRA.SOLV.lig_0>
-127.221

>  <SCORE.INTRA.VDW>
-14.0403

>  <SCORE.INTRA.VDW.0>
10.8385

>  <SCORE.INTRA.norm>
-0.546858

>  <SCORE.RESTR>
0

>  <SCORE.RESTR.CAVITY>
0

>  <SCORE.RESTR.norm>
0

>  <SCORE.SYSTEM>
0

>  <SCORE.SYSTEM.CONST>
0

>  <SCORE.SYSTEM.DIHEDRAL>
0

>  <SCORE.SYSTEM.SOLV>
0

>  <SCORE.SYSTEM.norm>
0

>  <SCORE.heavy>
32

>  <SCORE.norm>
-1.95315

>  <RMSD>
2.481

$$$$
2tob cryst
 OpenBabel11021811463D
libRbt.so/2013.1/901 2013/11/27
 32 34  0  0  0  0  0  0  0  0999 V2000
   -8.1440   -1.6287   -7.2365 C   0  0  2  0  0  0  0  0  0  0  0  0
   -8.6837   -0.3450   -6.6139 C   0  0  1  0  0  0  0  0  0  0  0  0
   -8.6737    0.7606   -7.6700 C   0  0  2  0  0  0  0  0  0  0  0  0
   -7.2726    0.9277   -8.2729 C   0  0  1  0  0  0  0  0  0  0  0  0
   -6.7470   -0.4270   -8.7601 C   0  0  1  0  0  0  0  0  0  0  0  0
   -5.3065   -0.4027   -9.2444 C   0  0  0  0  0  0  0  0  0  0  0  0
  -10.0129   -0.5526   -6.1439 O   0  0  0  0  0  0  0  0  0  0  0  0
   -9.1525    2.1174   -7.2557 N   0  3  0  0  0  0  0  0  0  0  0  0
   -7.3437    1.8394   -9.3619 O   0  0  0  0  0  0  0  0  0  0  0  0
   -6.8258   -1.3959   -7.6956 O   0  0  0  0  0  0  0  0  0  0  0  0
   -4.8188   -1.7246   -9.4509 O   0  0  0  0  0  0  0  0  0  0  0  0
  -11.2879   -1.8723   -8.9988 C   0  0  2  0  0  0  0  0  0  0  0  0
  -12.6864   -2.5035   -8.9665 C   0  0  0  0  0  0  0  0  0  0  0  0
  -12.6318   -4.0285   -8.9941 C   0  0  1  0  0  0  0  0  0  0  0  0
  -11.7927   -4.5014   -7.8151 C   0  0  2  0  0  0  0  0  0  0  0  0
  -10.3556   -3.9999   -7.9784 C   0  0  1  0  0  0  0  0  0  0  0  0
  -10.3161   -2.4617   -7.9643 C   0  0  1  0  0  0  0  0  0  0  0  0
  -11.3737   -0.3868   -8.7958 N   0  3  0  0  0  0  0  0  0  0  0  0
  -14.0103   -4.6171   -8.9559 N   0  3  0  0  0  0  0  0  0  0  0  0
   -9.5519   -4.5231   -6.9285 O   0  0  0  0  0  0  0  0  0  0  0  0
  -11.8057   -5.9382   -7.7311 O   0  0  0  0  0  0  0  0  0  0  0  0
   -8.9872   -2.0048   -8.2916 O   0  0  0  0  0  0  0  0  0  0  0  0
  -11.1960   -6.4342   -6.5714 C   0  0  2  0  0  0  0  0  0  0  0  0
  -11.2723   -7.9645   -6.5555 C   0  0  1  0  0  0  0  0  0  0  0  0
  -12.6878   -8.4400   -6.2271 C   0  0  0  0  0  0  0  0  0  0  0  0
  -13.1456   -7.7753   -4.9389 C   0  0  1  0  0  0  0  0  0  0  0  0
  -13.0966   -6.2670   -5.1104 C   0  0  1  0  0  0  0  0  0  0  0  0
  -13.5495   -5.5443   -3.8547 C   0  0  0  0  0  0  0  0  0  0  0  0
  -10.8703   -8.4979   -7.8962 N   0  3  0  0  0  0  0  0  0  0  0  0
  -12.3934   -5.5139   -2.8927 N   0  3  0  0  0  0  0  0  0  0  0  0
  -14.4668   -8.1842   -4.6145 O   0  0  0  0  0  0  0  0  0  0  0  0
  -11.7448   -5.8641   -5.3880 O   0  0  0  0  0  0  0  0  0  0  0  0
  1  2  1  0  0  0  0
  1 22  1  6  0  0  0
  1 10  1  0  0  0  0
  2  3  1  0  0  0  0
  2  7  1  6  0  0  0
  3  4  1  0  0  0  0
  3  8  1  1  0  0  0
  4  5  1  0  0  0  0
  4  9  1  6  0  0  0
  5  6  1  1  0  0  0
  5 10  1  0  0  0  0
  6 11  1  0  0  0  0
 12 13  1  0  0  0  0
 12 17  1  0  0  0  0
 12 18  1  1  0  0  0
 13 14  1  0  0  0  0
 14 15  1  0  0  0  0
 14 19  1  1  0  0  0
 15 16  1  0  0  0  0
 15 21  1  6  0  0  0
 16 17  1  0  0  0  0
 16 20  1  1  0  0  0
 17 22  1  6  0  0  0
 23 21  1  6  0  0  0
 23 24  1  0  0  0  0
 23 32  1  0  0  0  0
 24 25  1  0  0  0  0
 24 29  1  6  0  0  0
 25 26  1  0  0  0  0
 26 27  1  0  0  0  0
 26 31  1  6  0  0  0
 27 28  1  1  0  0  0
 27 32  1  0  0  0  0
 28 30  1  0  0  0  0
M  CHG  5   8   1  18   1  19   1  29   1  30   1
M  END
>  <CHROM.1>
-68.86502343,70.64287032,-59.66432901,-60.81248463,169.56883951,-79.41631362
91.00007589,65.46348425,-172.28721589,-57.10214636,139.54636917,179.21622741
165.84021694,69.77775987,80.77325741,170.95843641,-10.37735849,-3.36766702
-7.27499312,-0.93146715,-0.32296144,3.02185014

>  <Name>
2tob cryst

>  <RI>
0

>  <Rbt.Current_Directory>
/home/itssahil/PROJECTS/Mol_Feturizer/New_Systems/rnas/2tob

>  <Rbt.Executable>
rbdock ($Id: //depot/dev/client3/rdock/2013.1/src/exe/rbdock.cxx#4 $)

>  <Rbt.Library>
libRbt.so (2013.1, Build901 2013/11/27)

>  <Rbt.Parameter_File>
/export/apps/rDock/src/rDock_2013.1_src/data/scripts/dock_solv.prm

>  <Rbt.Receptor>
prm/pocket_docking_3.prm

>  <SCORE>
-55.301

>  <SCORE.INTER>
-36.8064

>  <SCORE.INTER.CONST>
1

>  <SCORE.INTER.POLAR>
-5.17623

>  <SCORE.INTER.ROT>
6

>  <SCORE.INTER.SOLV>
27.4

>  <SCORE.INTER.VDW>
-24.0168

>  <SCORE.INTER.norm>
-1.1502

>  <SCORE.INTRA>
-19.0783

>  <SCORE.INTRA.DIHEDRAL>
-4.92215

>  <SCORE.INTRA.DIHEDRAL.0>
18.4221

>  <SCORE.INTRA.POLAR>
0.502029

>  <SCORE.INTRA.POLAR.0>
-1.57101

>  <SCORE.INTRA.REPUL>
-0.730195

>  <SCORE.INTRA.REPUL.0>
0.730195

>  <SCORE.INTRA.SOLV>
-4.16546

>  <SCORE.INTRA.SOLV.lig_0>
-127.221

>  <SCORE.INTRA.VDW>
-12.5904

>  <SCORE.INTRA.VDW.0>
10.8385

>  <SCORE.INTRA.norm>
-0.596196

>  <SCORE.RESTR>
0.583652

>  <SCORE.RESTR.CAVITY>
0.583652

>  <SCORE.RESTR.norm>
0.0182391

>  <SCORE.SYSTEM>
0

>  <SCORE.SYSTEM.CONST>
0

>  <SCORE.SYSTEM.DIHEDRAL>
0

>  <SCORE.SYSTEM.SOLV>
0

>  <SCORE.SYSTEM.norm>
0

>  <SCORE.heavy>
32

>  <SCORE.norm>
-1.72816

>  <RMSD>
2.503

$$$$
2tob cryst
 OpenBabel11021811463D
libRbt.so/2013.1/901 2013/11/27
 32 34  0  0  0  0  0  0  0  0999 V2000
   -8.3743    0.1542   -6.5748 C   0  0  2  0  0  0  0  0  0  0  0  0
   -8.5232    1.4844   -7.3065 C   0  0  1  0  0  0  0  0  0  0  0  0
   -8.5176    1.2248   -8.8132 C   0  0  2  0  0  0  0  0  0  0  0  0
   -7.2618    0.4472   -9.2291 C   0  0  1  0  0  0  0  0  0  0  0  0
   -7.1125   -0.8085   -8.3632 C   0  0  1  0  0  0  0  0  0  0  0  0
   -5.8220   -1.5780   -8.5927 C   0  0  0  0  0  0  0  0  0  0  0  0
   -9.7444    2.1143   -6.9290 O   0  0  0  0  0  0  0  0  0  0  0  0
   -8.6363    2.4103   -9.7200 N   0  3  0  0  0  0  0  0  0  0  0  0
   -7.3776    0.0802  -10.5981 O   0  0  0  0  0  0  0  0  0  0  0  0
   -7.1566   -0.4505   -6.9675 O   0  0  0  0  0  0  0  0  0  0  0  0
   -6.0143   -2.9701   -8.3634 O   0  0  0  0  0  0  0  0  0  0  0  0
  -10.6955   -1.2631   -4.9107 C   0  0  2  0  0  0  0  0  0  0  0  0
  -11.3381   -2.3828   -4.0809 C   0  0  0  0  0  0  0  0  0  0  0  0
  -11.9790   -3.4553   -4.9574 C   0  0  1  0  0  0  0  0  0  0  0  0
  -10.9144   -4.0119   -5.8927 C   0  0  2  0  0  0  0  0  0  0  0  0
  -10.4273   -2.9026   -6.8283 C   0  0  1  0  0  0  0  0  0  0  0  0
   -9.7650   -1.7703   -6.0237 C   0  0  1  0  0  0  0  0  0  0  0  0
   -9.9290   -0.3227   -4.0256 N   0  3  0  0  0  0  0  0  0  0  0  0
  -12.5931   -4.5378   -4.1211 N   0  3  0  0  0  0  0  0  0  0  0  0
   -9.5051   -3.4466   -7.7641 O   0  0  0  0  0  0  0  0  0  0  0  0
  -11.4422   -5.1078   -6.6621 O   0  0  0  0  0  0  0  0  0  0  0  0
   -9.4693   -0.6601   -6.8966 O   0  0  0  0  0  0  0  0  0  0  0  0
  -11.4693   -6.3197   -5.9598 C   0  0  2  0  0  0  0  0  0  0  0  0
  -10.4043   -7.2699   -6.5176 C   0  0  1  0  0  0  0  0  0  0  0  0
  -10.8321   -7.8406   -7.8699 C   0  0  0  0  0  0  0  0  0  0  0  0
  -12.2138   -8.4590   -7.7302 C   0  0  1  0  0  0  0  0  0  0  0  0
  -13.1884   -7.3997   -7.2457 C   0  0  1  0  0  0  0  0  0  0  0  0
  -14.5919   -7.9568   -7.0914 C   0  0  0  0  0  0  0  0  0  0  0  0
   -9.1119   -6.5304   -6.6796 N   0  3  0  0  0  0  0  0  0  0  0  0
  -15.5427   -6.7970   -6.9745 N   0  3  0  0  0  0  0  0  0  0  0  0
  -12.6481   -8.9845   -8.9764 O   0  0  0  0  0  0  0  0  0  0  0  0
  -12.7628   -6.9145   -5.9611 O   0  0  0  0  0  0  0  0  0  0  0  0
  1  2  1  0  0  0  0
  1 22  1  6  0  0  0
  1 10  1  0  0  0  0
  2  3  1  0  0  0  0
  2  7  1  1  0  0  0
  3  4  1  0  0  0  0
  3  8  1  6  0  0  0
  4  5  1  0  0  0  0
  4  9  1  6  0  0  0
  5  6  1  1  0  0  0
  5 10  1  0  0  0  0
  6 11  1  0  0  0  0
 12 13  1  0  0  0  0
 12 17  1  0  0  0  0
 12 18  1  1  0  0  0
 13 14  1  0  0  0  0
 14 15  1  0  0  0  0
 14 19  1  1  0  0  0
 15 16  1  0  0  0  0
 15 21  1  6  0  0  0
 16 17  1  0  0  0  0
 16 20  1  6  0  0  0
 17 22  1  6  0  0  0
 23 21  1  6  0  0  0
 23 24  1  0  0  0  0
 23 32  1  0  0  0  0
 24 25  1  0  0  0  0
 24 29  1  6  0  0  0
 25 26  1  0  0  0  0
 26 27  1  0  0  0  0
 26 31  1  6  0  0  0
 27 28  1  1  0  0  0
 27 32  1  0  0  0  0
 28 30  1  0  0  0  0
M  CHG  5   8   1  18   1  19   1  29   1  30   1
M  END
>  <CHROM.1>
-160.93914452,-178.29221876,-49.81658546,-47.62342718,-149.30445272,75.53812512
159.53840673,178.26904474,-80.31480303,-66.04500546,87.99911116,-108.68572329
-50.15414468,66.69225063,-165.08017622,63.32522882,-10.16777506,-3.18453116
-7.04323017,0.81628977,0.72435169,0.40751868

>  <Name>
2tob cryst

>  <RI>
0

>  <Rbt.Current_Directory>
/home/itssahil/PROJECTS/Mol_Feturizer/New_Systems/rnas/2tob

>  <Rbt.Executable>
rbdock ($Id: //depot/dev/client3/rdock/2013.1/src/exe/rbdock.cxx#4 $)

>  <Rbt.Library>
libRbt.so (2013.1, Build901 2013/11/27)

>  <Rbt.Parameter_File>
/export/apps/rDock/src/rDock_2013.1_src/data/scripts/dock_solv.prm

>  <Rbt.Receptor>
prm/pocket_docking_6.prm

>  <SCORE>
-51.4742

>  <SCORE.INTER>
-36.1227

>  <SCORE.INTER.CONST>
1

>  <SCORE.INTER.POLAR>
-4.889

>  <SCORE.INTER.ROT>
6

>  <SCORE.INTER.SOLV>
30.8878

>  <SCORE.INTER.VDW>
-25.6811

>  <SCORE.INTER.norm>
-1.12884

>  <SCORE.INTRA>
-15.3824

>  <SCORE.INTRA.DIHEDRAL>
2.15291

>  <SCORE.INTRA.DIHEDRAL.0>
18.4221

>  <SCORE.INTRA.POLAR>
0.390152

>  <SCORE.INTRA.POLAR.0>
-1.57101

>  <SCORE.INTRA.REPUL>
-0.730195

>  <SCORE.INTRA.REPUL.0>
0.730195

>  <SCORE.INTRA.SOLV>
-4.06871

>  <SCORE.INTRA.SOLV.lig_0>
-127.221

>  <SCORE.INTRA.VDW>
-12.1001

>  <SCORE.INTRA.VDW.0>
10.8385

>  <SCORE.INTRA.norm>
-0.4807

>  <SCORE.RESTR>
0.0309648

>  <SCORE.RESTR.CAVITY>
0.0309648

>  <SCORE.RESTR.norm>
0.00096765

>  <SCORE.SYSTEM>
0

>  <SCORE.SYSTEM.CONST>
0

>  <SCORE.SYSTEM.DIHEDRAL>
0

>  <SCORE.SYSTEM.SOLV>
0

>  <SCORE.SYSTEM.norm>
0

>  <SCORE.heavy>
32

>  <SCORE.norm>
-1.60857

>  <RMSD>
2.520

$$$$
2tob cryst
 OpenBabel11021811463D
libRbt.so/2013.1/901 2013/11/27
 32 34  0  0  0  0  0  0  0  0999 V2000
  -10.2335   -0.7300   -7.6900 C   0  0  2  0  0  0  0  0  0  0  0  0
   -9.9541    0.6187   -8.3457 C   0  0  1  0  0  0  0  0  0  0  0  0
   -8.8379    0.4472   -9.3764 C   0  0  2  0  0  0  0  0  0  0  0  0
   -7.5927   -0.1786   -8.7343 C   0  0  1  0  0  0  0  0  0  0  0  0
   -7.9765   -1.4609   -7.9878 C   0  0  1  0  0  0  0  0  0  0  0  0
   -6.8424   -2.0858   -7.1919 C   0  0  0  0  0  0  0  0  0  0  0  0
  -11.1320    1.1033   -8.9848 O   0  0  0  0  0  0  0  0  0  0  0  0
   -8.3961    1.6651  -10.1268 N   0  3  0  0  0  0  0  0  0  0  0  0
   -6.6471   -0.4765   -9.7538 O   0  0  0  0  0  0  0  0  0  0  0  0
   -9.0500   -1.1891   -7.0648 O   0  0  0  0  0  0  0  0  0  0  0  0
   -5.7451   -2.4079   -8.0404 O   0  0  0  0  0  0  0  0  0  0  0  0
  -12.3866   -3.1149   -9.4732 C   0  0  2  0  0  0  0  0  0  0  0  0
  -13.1242   -4.4487   -9.2942 C   0  0  0  0  0  0  0  0  0  0  0  0
  -12.1917   -5.5668   -8.8363 C   0  0  1  0  0  0  0  0  0  0  0  0
  -11.5234   -5.1348   -7.5384 C   0  0  2  0  0  0  0  0  0  0  0  0
  -10.6511   -3.9042   -7.7992 C   0  0  1  0  0  0  0  0  0  0  0  0
  -11.5145   -2.7209   -8.2706 C   0  0  1  0  0  0  0  0  0  0  0  0
  -13.3598   -2.0061   -9.7536 N   0  3  0  0  0  0  0  0  0  0  0  0
  -12.9397   -6.8549   -8.6644 N   0  3  0  0  0  0  0  0  0  0  0  0
   -9.9526   -3.5611   -6.6090 O   0  0  0  0  0  0  0  0  0  0  0  0
  -10.7200   -6.2032   -7.0049 O   0  0  0  0  0  0  0  0  0  0  0  0
  -10.6644   -1.6281   -8.6767 O   0  0  0  0  0  0  0  0  0  0  0  0
  -10.7170   -6.2527   -5.6049 C   0  0  2  0  0  0  0  0  0  0  0  0
  -10.2862   -7.6455   -5.1330 C   0  0  1  0  0  0  0  0  0  0  0  0
  -11.4048   -8.6664   -5.3428 C   0  0  0  0  0  0  0  0  0  0  0  0
  -12.6757   -8.1476   -4.6896 C   0  0  1  0  0  0  0  0  0  0  0  0
  -13.0359   -6.8027   -5.2963 C   0  0  1  0  0  0  0  0  0  0  0  0
  -14.3042   -6.2335   -4.6867 C   0  0  0  0  0  0  0  0  0  0  0  0
   -9.0727   -8.0777   -5.8973 N   0  3  0  0  0  0  0  0  0  0  0  0
  -13.9995   -5.8312   -3.2696 N   0  3  0  0  0  0  0  0  0  0  0  0
  -13.7409   -9.0677   -4.8817 O   0  0  0  0  0  0  0  0  0  0  0  0
  -11.9705   -5.8695   -5.0495 O   0  0  0  0  0  0  0  0  0  0  0  0
  1  2  1  0  0  0  0
  1 22  1  6  0  0  0
  1 10  1  0  0  0  0
  2  3  1  0  0  0  0
  2  7  1  6  0  0  0
  3  4  1  0  0  0  0
  3  8  1  1  0  0  0
  4  5  1  0  0  0  0
  4  9  1  6  0  0  0
  5  6  1  1  0  0  0
  5 10  1  0  0  0  0
  6 11  1  0  0  0  0
 12 13  1  0  0  0  0
 12 17  1  0  0  0  0
 12 18  1  1  0  0  0
 13 14  1  0  0  0  0
 14 15  1  0  0  0  0
 14 19  1  1  0  0  0
 15 16  1  0  0  0  0
 15 21  1  6  0  0  0
 16 17  1  0  0  0  0
 16 20  1  1  0  0  0
 17 22  1  6  0  0  0
 23 21  1  6  0  0  0
 23 24  1  0  0  0  0
 23 32  1  0  0  0  0
 24 25  1  0  0  0  0
 24 29  1  6  0  0  0
 25 26  1  0  0  0  0
 26 27  1  0  0  0  0
 26 31  1  6  0  0  0
 27 28  1  1  0  0  0
 27 32  1  0  0  0  0
 28 30  1  0  0  0  0
M  CHG  5   8   1  18   1  19   1  29   1  30   1
M  END
>  <CHROM.1>
-153.42018290,-169.75361733,162.66340675,179.83930434,-58.83065386,-172.68774252
-45.37035289,-57.12881733,-144.95272355,67.58914520,152.40197045,159.94475143
-156.05502819,60.49114269,70.01904098,-68.21610823,-10.68775721,-3.81550775
-7.34934998,1.12042354,-0.13211504,-0.51876343

>  <Name>
2tob cryst

>  <RI>
0

>  <Rbt.Current_Directory>
/home/itssahil/PROJECTS/Mol_Feturizer/New_Systems/rnas/2tob

>  <Rbt.Executable>
rbdock ($Id: //depot/dev/client3/rdock/2013.1/src/exe/rbdock.cxx#4 $)

>  <Rbt.Library>
libRbt.so (2013.1, Build901 2013/11/27)

>  <Rbt.Parameter_File>
/export/apps/rDock/src/rDock_2013.1_src/data/scripts/dock_solv.prm

>  <Rbt.Receptor>
prm/pocket_docking_5.prm

>  <SCORE>
-54.4622

>  <SCORE.INTER>
-34.4455

>  <SCORE.INTER.CONST>
1

>  <SCORE.INTER.POLAR>
-5.0878

>  <SCORE.INTER.ROT>
6

>  <SCORE.INTER.SOLV>
29.7697

>  <SCORE.INTER.VDW>
-23.5276

>  <SCORE.INTER.norm>
-1.07642

>  <SCORE.INTRA>
-20.0167

>  <SCORE.INTRA.DIHEDRAL>
-1.79202

>  <SCORE.INTRA.DIHEDRAL.0>
18.4221

>  <SCORE.INTRA.POLAR>
0.622283

>  <SCORE.INTRA.POLAR.0>
-1.57101

>  <SCORE.INTRA.REPUL>
-0.730195

>  <SCORE.INTRA.REPUL.0>
0.730195

>  <SCORE.INTRA.SOLV>
-5.82664

>  <SCORE.INTRA.SOLV.lig_0>
-127.221

>  <SCORE.INTRA.VDW>
-14.6722

>  <SCORE.INTRA.VDW.0>
10.8385

>  <SCORE.INTRA.norm>
-0.625523

>  <SCORE.RESTR>
0

>  <SCORE.RESTR.CAVITY>
0

>  <SCORE.RESTR.norm>
0

>  <SCORE.SYSTEM>
0

>  <SCORE.SYSTEM.CONST>
0

>  <SCORE.SYSTEM.DIHEDRAL>
0

>  <SCORE.SYSTEM.SOLV>
0

>  <SCORE.SYSTEM.norm>
0

>  <SCORE.heavy>
32

>  <SCORE.norm>
-1.70195

>  <RMSD>
2.571

$$$$
2tob cryst
 OpenBabel11021811463D
libRbt.so/2013.1/901 2013/11/27
 32 34  0  0  0  0  0  0  0  0999 V2000
   -7.6168    0.2611   -7.5804 C   0  0  2  0  0  0  0  0  0  0  0  0
   -7.2528    1.6484   -8.0999 C   0  0  1  0  0  0  0  0  0  0  0  0
   -6.7408    1.5217   -9.5350 C   0  0  2  0  0  0  0  0  0  0  0  0
   -5.5763    0.5256   -9.6139 C   0  0  1  0  0  0  0  0  0  0  0  0
   -5.9762   -0.8007   -8.9582 C   0  0  1  0  0  0  0  0  0  0  0  0
   -4.8469   -1.8122   -8.8512 C   0  0  0  0  0  0  0  0  0  0  0  0
   -8.3974    2.4966   -8.0681 O   0  0  0  0  0  0  0  0  0  0  0  0
   -6.3102    2.7766  -10.2292 N   0  3  0  0  0  0  0  0  0  0  0  0
   -5.2444    0.3096  -10.9797 O   0  0  0  0  0  0  0  0  0  0  0  0
   -6.4656   -0.5606   -7.6236 O   0  0  0  0  0  0  0  0  0  0  0  0
   -4.7155   -2.5549  -10.0590 O   0  0  0  0  0  0  0  0  0  0  0  0
  -10.9234    0.0805   -9.0784 C   0  0  2  0  0  0  0  0  0  0  0  0
  -12.4127   -0.1086   -8.7600 C   0  0  0  0  0  0  0  0  0  0  0  0
  -12.6901   -1.4399   -8.0672 C   0  0  1  0  0  0  0  0  0  0  0  0
  -11.8486   -1.5076   -6.8002 C   0  0  2  0  0  0  0  0  0  0  0  0
  -10.3640   -1.4987   -7.1730 C   0  0  1  0  0  0  0  0  0  0  0  0
   -9.9940   -0.1848   -7.8836 C   0  0  1  0  0  0  0  0  0  0  0  0
  -10.6658    1.4657   -9.5981 N   0  3  0  0  0  0  0  0  0  0  0  0
  -14.1502   -1.5947   -7.7635 N   0  3  0  0  0  0  0  0  0  0  0  0
   -9.5818   -1.6598   -5.9965 O   0  0  0  0  0  0  0  0  0  0  0  0
  -12.1605   -2.6960   -6.0506 O   0  0  0  0  0  0  0  0  0  0  0  0
   -8.6417   -0.2632   -8.3807 O   0  0  0  0  0  0  0  0  0  0  0  0
  -12.4670   -3.7995   -6.8575 C   0  0  2  0  0  0  0  0  0  0  0  0
  -12.4715   -5.0781   -6.0131 C   0  0  1  0  0  0  0  0  0  0  0  0
  -11.0473   -5.5080   -5.6606 C   0  0  0  0  0  0  0  0  0  0  0  0
  -10.2294   -5.6027   -6.9385 C   0  0  1  0  0  0  0  0  0  0  0  0
  -10.2410   -4.2556   -7.6397 C   0  0  1  0  0  0  0  0  0  0  0  0
   -9.4333   -4.2847   -8.9246 C   0  0  0  0  0  0  0  0  0  0  0  0
  -13.2426   -4.8397   -4.7512 N   0  3  0  0  0  0  0  0  0  0  0  0
   -7.9770   -4.1846   -8.5612 N   0  3  0  0  0  0  0  0  0  0  0  0
   -8.8935   -5.9846   -6.6428 O   0  0  0  0  0  0  0  0  0  0  0  0
  -11.5943   -3.9072   -7.9772 O   0  0  0  0  0  0  0  0  0  0  0  0
  1  2  1  0  0  0  0
  1 22  1  6  0  0  0
  1 10  1  0  0  0  0
  2  3  1  0  0  0  0
  2  7  1  6  0  0  0
  3  4  1  0  0  0  0
  3  8  1  1  0  0  0
  4  5  1  0  0  0  0
  4  9  1  6  0  0  0
  5  6  1  1  0  0  0
  5 10  1  0  0  0  0
  6 11  1  0  0  0  0
 12 13  1  0  0  0  0
 12 17  1  0  0  0  0
 12 18  1  1  0  0  0
 13 14  1  0  0  0  0
 14 15  1  0  0  0  0
 14 19  1  1  0  0  0
 15 16  1  0  0  0  0
 15 21  1  6  0  0  0
 16 17  1  0  0  0  0
 16 20  1  1  0  0  0
 17 22  1  6  0  0  0
 23 21  1  1  0  0  0
 23 24  1  0  0  0  0
 23 32  1  0  0  0  0
 24 25  1  0  0  0  0
 24 29  1  1  0  0  0
 25 26  1  0  0  0  0
 26 27  1  0  0  0  0
 26 31  1  1  0  0  0
 27 28  1  6  0  0  0
 27 32  1  0  0  0  0
 28 30  1  0  0  0  0
M  CHG  5   8   1  18   1  19   1  29   1  30   1
M  END
>  <CHROM.1>
-99.74893107,-142.07922869,166.38857635,-171.61717955,-84.44920693,107.53190823
-145.94938348,-82.79398815,34.92035806,-175.95594671,143.64246722,167.20010456
75.98406709,-38.57053623,-78.62395810,69.56847466,-9.34499211,-1.64419583
-7.98658936,0.73408805,0.26263645,-0.27180035

>  <Name>
2tob cryst

>  <RI>
0

>  <Rbt.Current_Directory>
/home/itssahil/PROJECTS/Mol_Feturizer/New_Systems/rnas/2tob

>  <Rbt.Executable>
rbdock ($Id: //depot/dev/client3/rdock/2013.1/src/exe/rbdock.cxx#4 $)

>  <Rbt.Library>
libRbt.so (2013.1, Build901 2013/11/27)

>  <Rbt.Parameter_File>
/export/apps/rDock/src/rDock_2013.1_src/data/scripts/dock_solv.prm

>  <Rbt.Receptor>
prm/blind_docking_100.prm

>  <SCORE>
-19.6773

>  <SCORE.INTER>
-21.8317

>  <SCORE.INTER.CONST>
1

>  <SCORE.INTER.POLAR>
-7.77221

>  <SCORE.INTER.ROT>
6

>  <SCORE.INTER.SOLV>
42.1571

>  <SCORE.INTER.VDW>
-10.2995

>  <SCORE.INTER.norm>
-0.682241

>  <SCORE.INTRA>
-4.28624

>  <SCORE.INTRA.DIHEDRAL>
16.8558

>  <SCORE.INTRA.DIHEDRAL.0>
18.4221

>  <SCORE.INTRA.POLAR>
0.301652

>  <SCORE.INTRA.POLAR.0>
-1.57101

>  <SCORE.INTRA.REPUL>
-0.730195

>  <SCORE.INTRA.REPUL.0>
0.730195

>  <SCORE.INTRA.SOLV>
-0.201615

>  <SCORE.INTRA.SOLV.lig_0>
-127.221

>  <SCORE.INTRA.VDW>
-9.98797

>  <SCORE.INTRA.VDW.0>
10.8385

>  <SCORE.INTRA.norm>
-0.133945

>  <SCORE.RESTR>
6.44064

>  <SCORE.RESTR.CAVITY>
6.44064

>  <SCORE.RESTR.norm>
0.20127

>  <SCORE.SYSTEM>
0

>  <SCORE.SYSTEM.CONST>
0

>  <SCORE.SYSTEM.DIHEDRAL>
0

>  <SCORE.SYSTEM.SOLV>
0

>  <SCORE.SYSTEM.norm>
0

>  <SCORE.heavy>
32

>  <SCORE.norm>
-0.614916

>  <RMSD>
2.596

$$$$
2tob cryst
 OpenBabel11021811463D
libRbt.so/2013.1/901 2013/11/27
 32 34  0  0  0  0  0  0  0  0999 V2000
   -8.4931    0.2144   -6.4871 C   0  0  2  0  0  0  0  0  0  0  0  0
   -8.5339    1.4895   -7.3234 C   0  0  1  0  0  0  0  0  0  0  0  0
   -8.6987    1.1117   -8.7957 C   0  0  2  0  0  0  0  0  0  0  0  0
   -7.5973    0.1386   -9.2367 C   0  0  1  0  0  0  0  0  0  0  0  0
   -7.5342   -1.0523   -8.2741 C   0  0  1  0  0  0  0  0  0  0  0  0
   -6.3805   -2.0072   -8.5335 C   0  0  0  0  0  0  0  0  0  0  0  0
   -9.6239    2.3090   -6.9097 O   0  0  0  0  0  0  0  0  0  0  0  0
   -8.7443    2.2259   -9.7949 N   0  3  0  0  0  0  0  0  0  0  0  0
   -7.8832   -0.3176  -10.5529 O   0  0  0  0  0  0  0  0  0  0  0  0
   -7.4048   -0.5809   -6.9179 O   0  0  0  0  0  0  0  0  0  0  0  0
   -6.7282   -3.3361   -8.1581 O   0  0  0  0  0  0  0  0  0  0  0  0
  -10.7590   -1.3144   -4.6484 C   0  0  2  0  0  0  0  0  0  0  0  0
  -11.3119   -2.5348   -3.9002 C   0  0  0  0  0  0  0  0  0  0  0  0
  -12.0025   -3.5219   -4.8372 C   0  0  1  0  0  0  0  0  0  0  0  0
  -11.0076   -3.9443   -5.9095 C   0  0  2  0  0  0  0  0  0  0  0  0
  -10.6179   -2.7267   -6.7514 C   0  0  1  0  0  0  0  0  0  0  0  0
   -9.9130   -1.6718   -5.8807 C   0  0  1  0  0  0  0  0  0  0  0  0
   -9.9402   -0.4561   -3.7274 N   0  3  0  0  0  0  0  0  0  0  0  0
  -12.5271   -4.7054   -4.0806 N   0  3  0  0  0  0  0  0  0  0  0  0
   -9.7652   -3.1403   -7.8115 O   0  0  0  0  0  0  0  0  0  0  0  0
  -11.5763   -4.9633   -6.7518 O   0  0  0  0  0  0  0  0  0  0  0  0
   -9.7091   -0.4653   -6.6454 O   0  0  0  0  0  0  0  0  0  0  0  0
  -11.4752   -6.2524   -6.2129 C   0  0  2  0  0  0  0  0  0  0  0  0
  -10.4346   -7.0636   -6.9921 C   0  0  1  0  0  0  0  0  0  0  0  0
  -10.9780   -7.4858   -8.3574 C   0  0  0  0  0  0  0  0  0  0  0  0
  -12.3084   -8.1948   -8.1617 C   0  0  1  0  0  0  0  0  0  0  0  0
  -13.2718   -7.2613   -7.4496 C   0  0  1  0  0  0  0  0  0  0  0  0
  -14.6251   -7.9127   -7.2295 C   0  0  0  0  0  0  0  0  0  0  0  0
   -9.2006   -6.2369   -7.1854 N   0  3  0  0  0  0  0  0  0  0  0  0
  -15.6018   -6.8365   -6.8411 N   0  3  0  0  0  0  0  0  0  0  0  0
  -12.8490   -8.5858   -9.4158 O   0  0  0  0  0  0  0  0  0  0  0  0
  -12.7340   -6.9155   -6.1620 O   0  0  0  0  0  0  0  0  0  0  0  0
  1  2  1  0  0  0  0
  1 22  1  6  0  0  0
  1 10  1  0  0  0  0
  2  3  1  0  0  0  0
  2  7  1  1  0  0  0
  3  4  1  0  0  0  0
  3  8  1  6  0  0  0
  4  5  1  0  0  0  0
  4  9  1  6  0  0  0
  5  6  1  6  0  0  0
  5 10  1  0  0  0  0
  6 11  1  0  0  0  0
 12 13  1  0  0  0  0
 12 17  1  0  0  0  0
 12 18  1  1  0  0  0
 13 14  1  0  0  0  0
 14 15  1  0  0  0  0
 14 19  1  1  0  0  0
 15 16  1  0  0  0  0
 15 21  1  6  0  0  0
 16 17  1  0  0  0  0
 16 20  1  6  0  0  0
 17 22  1  6  0  0  0
 23 21  1  6  0  0  0
 23 24  1  0  0  0  0
 23 32  1  0  0  0  0
 24 25  1  0  0  0  0
 24 29  1  6  0  0  0
 25 26  1  0  0  0  0
 26 27  1  0  0  0  0
 26 31  1  6  0  0  0
 27 28  1  1  0  0  0
 27 32  1  0  0  0  0
 28 30  1  0  0  0  0
M  CHG  5   8   1  18   1  19   1  29   1  30   1
M  END
>  <CHROM.1>
-176.78583428,175.91092762,-50.24963246,-50.11361524,-149.54583187,37.78222092
31.97787206,-178.74693256,-82.79037418,85.83601305,98.88679373,-108.14173353
-160.78580783,178.68772568,-166.25174370,-56.77024527,-10.32838724,-3.17720069
-7.08306711,0.72351561,0.82741590,0.59327002

>  <Name>
2tob cryst

>  <RI>
3.35201e+07

>  <Rbt.Current_Directory>
/home/itssahil/PROJECTS/Mol_Feturizer/New_Systems/rnas/2tob

>  <Rbt.Executable>
rbdock ($Id: //depot/dev/client3/rdock/2013.1/src/exe/rbdock.cxx#4 $)

>  <Rbt.Library>
libRbt.so (2013.1, Build901 2013/11/27)

>  <Rbt.Parameter_File>
/export/apps/rDock/src/rDock_2013.1_src/data/scripts/dock_solv.prm

>  <Rbt.Receptor>
prm/pocket_docking_4.prm

>  <SCORE>
-51.0157

>  <SCORE.INTER>
-33.7499

>  <SCORE.INTER.CONST>
1

>  <SCORE.INTER.POLAR>
-4.89766

>  <SCORE.INTER.ROT>
6

>  <SCORE.INTER.SOLV>
29.3243

>  <SCORE.INTER.VDW>
-23.5491

>  <SCORE.INTER.norm>
-1.05468

>  <SCORE.INTRA>
-17.9523

>  <SCORE.INTRA.DIHEDRAL>
7.27698

>  <SCORE.INTRA.DIHEDRAL.0>
18.4221

>  <SCORE.INTRA.POLAR>
-0.744993

>  <SCORE.INTRA.POLAR.0>
-1.57101

>  <SCORE.INTRA.REPUL>
-0.730195

>  <SCORE.INTRA.REPUL.0>
0.730195

>  <SCORE.INTRA.SOLV>
-3.70089

>  <SCORE.INTRA.SOLV.lig_0>
-127.221

>  <SCORE.INTRA.VDW>
-13.5564

>  <SCORE.INTRA.VDW.0>
10.8385

>  <SCORE.INTRA.norm>
-0.56101

>  <SCORE.RESTR>
0.686506

>  <SCORE.RESTR.CAVITY>
0.686506

>  <SCORE.RESTR.norm>
0.0214533

>  <SCORE.SYSTEM>
0

>  <SCORE.SYSTEM.CONST>
0

>  <SCORE.SYSTEM.DIHEDRAL>
0

>  <SCORE.SYSTEM.SOLV>
0

>  <SCORE.SYSTEM.norm>
0

>  <SCORE.heavy>
32

>  <SCORE.norm>
-1.59424

>  <RMSD>
2.632

$$$$
2tob cryst
 OpenBabel11021811463D
libRbt.so/2013.1/901 2013/11/27
 32 34  0  0  0  0  0  0  0  0999 V2000
   -8.0323   -1.6566   -7.3203 C   0  0  2  0  0  0  0  0  0  0  0  0
   -8.3718   -0.3755   -6.5650 C   0  0  1  0  0  0  0  0  0  0  0  0
   -8.2647    0.8094   -7.5253 C   0  0  2  0  0  0  0  0  0  0  0  0
   -6.8819    0.8514   -8.1892 C   0  0  1  0  0  0  0  0  0  0  0  0
   -6.5596   -0.5101   -8.8148 C   0  0  1  0  0  0  0  0  0  0  0  0
   -5.1512   -0.6247   -9.3746 C   0  0  0  0  0  0  0  0  0  0  0  0
   -9.6945   -0.4547   -6.0407 O   0  0  0  0  0  0  0  0  0  0  0  0
   -8.5435    2.1735   -6.9748 N   0  3  0  0  0  0  0  0  0  0  0  0
   -6.8817    1.8579   -9.1937 O   0  0  0  0  0  0  0  0  0  0  0  0
   -6.7168   -1.5520   -7.8310 O   0  0  0  0  0  0  0  0  0  0  0  0
   -4.7924   -1.9890   -9.5689 O   0  0  0  0  0  0  0  0  0  0  0  0
  -11.2607   -1.7183   -9.0764 C   0  0  2  0  0  0  0  0  0  0  0  0
  -12.6671   -2.3280   -9.0029 C   0  0  0  0  0  0  0  0  0  0  0  0
  -12.6319   -3.8515   -8.9200 C   0  0  1  0  0  0  0  0  0  0  0  0
  -11.8014   -4.2484   -7.7073 C   0  0  2  0  0  0  0  0  0  0  0  0
  -10.3577   -3.7780   -7.9020 C   0  0  1  0  0  0  0  0  0  0  0  0
  -10.2987   -2.2434   -7.9990 C   0  0  1  0  0  0  0  0  0  0  0  0
  -11.3280   -0.2210   -8.9817 N   0  3  0  0  0  0  0  0  0  0  0  0
  -14.0178   -4.4186   -8.8436 N   0  3  0  0  0  0  0  0  0  0  0  0
   -9.5630   -4.2339   -6.8145 O   0  0  0  0  0  0  0  0  0  0  0  0
  -11.8329   -5.6750   -7.5196 O   0  0  0  0  0  0  0  0  0  0  0  0
   -8.9634   -1.8281   -8.3544 O   0  0  0  0  0  0  0  0  0  0  0  0
  -11.4271   -6.0780   -6.2407 C   0  0  2  0  0  0  0  0  0  0  0  0
  -11.8452   -7.5315   -5.9944 C   0  0  1  0  0  0  0  0  0  0  0  0
  -13.3496   -7.6345   -5.7422 C   0  0  0  0  0  0  0  0  0  0  0  0
  -13.7303   -6.6743   -4.6268 C   0  0  1  0  0  0  0  0  0  0  0  0
  -13.3335   -5.2635   -5.0253 C   0  0  1  0  0  0  0  0  0  0  0  0
  -13.6942   -4.2542   -3.9505 C   0  0  0  0  0  0  0  0  0  0  0  0
  -11.4859   -8.3628   -7.1875 N   0  3  0  0  0  0  0  0  0  0  0  0
  -13.4000   -2.8794   -4.4855 N   0  3  0  0  0  0  0  0  0  0  0  0
  -15.1278   -6.7338   -4.3793 O   0  0  0  0  0  0  0  0  0  0  0  0
  -11.9105   -5.2080   -5.2228 O   0  0  0  0  0  0  0  0  0  0  0  0
  1  2  1  0  0  0  0
  1 22  1  6  0  0  0
  1 10  1  0  0  0  0
  2  3  1  0  0  0  0
  2  7  1  6  0  0  0
  3  4  1  0  0  0  0
  3  8  1  1  0  0  0
  4  5  1  0  0  0  0
  4  9  1  6  0  0  0
  5  6  1  1  0  0  0
  5 10  1  0  0  0  0
  6 11  1  0  0  0  0
 12 13  1  0  0  0  0
 12 17  1  0  0  0  0
 12 18  1  1  0  0  0
 13 14  1  0  0  0  0
 14 15  1  0  0  0  0
 14 19  1  1  0  0  0
 15 16  1  0  0  0  0
 15 21  1  6  0  0  0
 16 17  1  0  0  0  0
 16 20  1  1  0  0  0
 17 22  1  6  0  0  0
 23 21  1  6  0  0  0
 23 24  1  0  0  0  0
 23 32  1  0  0  0  0
 24 25  1  0  0  0  0
 24 29  1  6  0  0  0
 25 26  1  0  0  0  0
 26 27  1  0  0  0  0
 26 31  1  6  0  0  0
 27 28  1  1  0  0  0
 27 32  1  0  0  0  0
 28 30  1  0  0  0  0
M  CHG  5   8   1  18   1  19   1  29   1  30   1
M  END
>  <CHROM.1>
-73.62251506,-174.76005358,69.95887815,72.14846309,162.73581797,-75.11123394
-58.79568321,-173.16345417,-162.77569367,84.22166634,152.64622182,164.60269473
-141.94832797,68.29096717,-174.18014454,70.44028620,-10.43288019,-2.99467317
-7.22749361,-0.75734993,-0.41370606,-3.13081728

>  <Name>
2tob cryst

>  <RI>
3.35201e+07

>  <Rbt.Current_Directory>
/home/itssahil/PROJECTS/Mol_Feturizer/New_Systems/rnas/2tob

>  <Rbt.Executable>
rbdock ($Id: //depot/dev/client3/rdock/2013.1/src/exe/rbdock.cxx#4 $)

>  <Rbt.Library>
libRbt.so (2013.1, Build901 2013/11/27)

>  <Rbt.Parameter_File>
/export/apps/rDock/src/rDock_2013.1_src/data/scripts/dock_solv.prm

>  <Rbt.Receptor>
prm/pocket_docking_4.prm

>  <SCORE>
-61.8543

>  <SCORE.INTER>
-44.7675

>  <SCORE.INTER.CONST>
1

>  <SCORE.INTER.POLAR>
-6.14281

>  <SCORE.INTER.ROT>
6

>  <SCORE.INTER.SOLV>
26.691

>  <SCORE.INTER.VDW>
-25.8659

>  <SCORE.INTER.norm>
-1.39898

>  <SCORE.INTRA>
-17.0868

>  <SCORE.INTRA.DIHEDRAL>
-2.74397

>  <SCORE.INTRA.DIHEDRAL.0>
18.4221

>  <SCORE.INTRA.POLAR>
1.29657

>  <SCORE.INTRA.POLAR.0>
-1.57101

>  <SCORE.INTRA.REPUL>
-0.730195

>  <SCORE.INTRA.REPUL.0>
0.730195

>  <SCORE.INTRA.SOLV>
-5.81692

>  <SCORE.INTRA.SOLV.lig_0>
-127.221

>  <SCORE.INTRA.VDW>
-13.5637

>  <SCORE.INTRA.VDW.0>
10.8385

>  <SCORE.INTRA.norm>
-0.533962

>  <SCORE.RESTR>
0

>  <SCORE.RESTR.CAVITY>
0

>  <SCORE.RESTR.norm>
0

>  <SCORE.SYSTEM>
0

>  <SCORE.SYSTEM.CONST>
0

>  <SCORE.SYSTEM.DIHEDRAL>
0

>  <SCORE.SYSTEM.SOLV>
0

>  <SCORE.SYSTEM.norm>
0

>  <SCORE.heavy>
32

>  <SCORE.norm>
-1.93295

>  <RMSD>
2.694

$$$$
2tob cryst
 OpenBabel11021811463D
libRbt.so/2013.1/901 2013/11/27
 32 34  0  0  0  0  0  0  0  0999 V2000
   -8.1888    0.7012   -6.5044 C   0  0  2  0  0  0  0  0  0  0  0  0
   -8.3482    1.8916   -7.4449 C   0  0  1  0  0  0  0  0  0  0  0  0
   -8.6069    1.3742   -8.8601 C   0  0  2  0  0  0  0  0  0  0  0  0
   -7.5004    0.4057   -9.2986 C   0  0  1  0  0  0  0  0  0  0  0  0
   -7.3129   -0.6884   -8.2419 C   0  0  1  0  0  0  0  0  0  0  0  0
   -6.1415   -1.6202   -8.5059 C   0  0  0  0  0  0  0  0  0  0  0  0
   -9.4387    2.7052   -7.0208 O   0  0  0  0  0  0  0  0  0  0  0  0
   -8.7763    2.3893   -9.9477 N   0  3  0  0  0  0  0  0  0  0  0  0
   -7.8646   -0.1797  -10.5423 O   0  0  0  0  0  0  0  0  0  0  0  0
   -7.1024   -0.0899   -6.9474 O   0  0  0  0  0  0  0  0  0  0  0  0
   -6.4576   -2.9539   -8.1196 O   0  0  0  0  0  0  0  0  0  0  0  0
   -9.9046   -1.0078   -4.3624 C   0  0  2  0  0  0  0  0  0  0  0  0
  -10.2687   -2.2731   -3.5741 C   0  0  0  0  0  0  0  0  0  0  0  0
  -11.1896   -3.1996   -4.3633 C   0  0  1  0  0  0  0  0  0  0  0  0
  -10.5058   -3.5532   -5.6768 C   0  0  2  0  0  0  0  0  0  0  0  0
  -10.3236   -2.2849   -6.5143 C   0  0  1  0  0  0  0  0  0  0  0  0
   -9.4045   -1.2865   -5.7886 C   0  0  1  0  0  0  0  0  0  0  0  0
   -8.8658   -0.2088   -3.6292 N   0  3  0  0  0  0  0  0  0  0  0  0
  -11.5236   -4.4285   -3.5718 N   0  3  0  0  0  0  0  0  0  0  0  0
   -9.7741   -2.6306   -7.7794 O   0  0  0  0  0  0  0  0  0  0  0  0
  -11.2855   -4.5174   -6.4075 O   0  0  0  0  0  0  0  0  0  0  0  0
   -9.3824   -0.0343   -6.5050 O   0  0  0  0  0  0  0  0  0  0  0  0
  -10.9515   -5.8450   -6.1098 C   0  0  2  0  0  0  0  0  0  0  0  0
  -10.2594   -6.4916   -7.3143 C   0  0  1  0  0  0  0  0  0  0  0  0
  -11.2658   -6.8074   -8.4211 C   0  0  0  0  0  0  0  0  0  0  0  0
  -12.4029   -7.6287   -7.8351 C   0  0  1  0  0  0  0  0  0  0  0  0
  -13.0524   -6.8480   -6.7058 C   0  0  1  0  0  0  0  0  0  0  0  0
  -14.2031   -7.6163   -6.0816 C   0  0  0  0  0  0  0  0  0  0  0  0
   -9.2139   -5.5610   -7.8476 N   0  3  0  0  0  0  0  0  0  0  0  0
  -14.9829   -6.6646   -5.2161 N   0  3  0  0  0  0  0  0  0  0  0  0
  -13.3656   -7.9249   -8.8368 O   0  0  0  0  0  0  0  0  0  0  0  0
  -12.0783   -6.6003   -5.6779 O   0  0  0  0  0  0  0  0  0  0  0  0
  1  2  1  0  0  0  0
  1 22  1  6  0  0  0
  1 10  1  0  0  0  0
  2  3  1  0  0  0  0
  2  7  1  1  0  0  0
  3  4  1  0  0  0  0
  3  8  1  6  0  0  0
  4  5  1  0  0  0  0
  4  9  1  6  0  0  0
  5  6  1  6  0  0  0
  5 10  1  0  0  0  0
  6 11  1  0  0  0  0
 12 13  1  0  0  0  0
 12 17  1  0  0  0  0
 12 18  1  1  0  0  0
 13 14  1  0  0  0  0
 14 15  1  0  0  0  0
 14 19  1  1  0  0  0
 15 16  1  0  0  0  0
 15 21  1  6  0  0  0
 16 17  1  0  0  0  0
 16 20  1  6  0  0  0
 17 22  1  6  0  0  0
 23 21  1  6  0  0  0
 23 24  1  0  0  0  0
 23 32  1  0  0  0  0
 24 25  1  0  0  0  0
 24 29  1  6  0  0  0
 25 26  1  0  0  0  0
 26 27  1  0  0  0  0
 26 31  1  6  0  0  0
 27 28  1  1  0  0  0
 27 32  1  0  0  0  0
 28 30  1  0  0  0  0
M  CHG  5   8   1  18   1  19   1  29   1  30   1
M  END
>  <CHROM.1>
173.59074332,-179.94738225,-173.43472008,-52.68265480,-143.19936096,-75.62923058
57.61808720,-51.96110305,-90.29780819,-179.21570867,92.53358791,-110.47191970
-36.58029564,62.84430597,-166.83055119,-65.10369940,-10.00356124,-2.78589622
-6.88320615,0.45825442,0.96391365,0.84655073

>  <Name>
2tob cryst

>  <RI>
2.10184e+07

>  <Rbt.Current_Directory>
/home/itssahil/PROJECTS/Mol_Feturizer/New_Systems/rnas/2tob

>  <Rbt.Executable>
rbdock ($Id: //depot/dev/client3/rdock/2013.1/src/exe/rbdock.cxx#4 $)

>  <Rbt.Library>
libRbt.so (2013.1, Build901 2013/11/27)

>  <Rbt.Parameter_File>
/export/apps/rDock/src/rDock_2013.1_src/data/scripts/dock_solv.prm

>  <Rbt.Receptor>
prm/pocket_docking_7.prm

>  <SCORE>
-57.3957

>  <SCORE.INTER>
-36.8613

>  <SCORE.INTER.CONST>
1

>  <SCORE.INTER.POLAR>
-5.29565

>  <SCORE.INTER.ROT>
6

>  <SCORE.INTER.SOLV>
32.5456

>  <SCORE.INTER.VDW>
-25.3705

>  <SCORE.INTER.norm>
-1.15191

>  <SCORE.INTRA>
-20.5344

>  <SCORE.INTRA.DIHEDRAL>
3.47018

>  <SCORE.INTRA.DIHEDRAL.0>
18.4221

>  <SCORE.INTRA.POLAR>
-0.634393

>  <SCORE.INTRA.POLAR.0>
-1.57101

>  <SCORE.INTRA.REPUL>
-0.725143

>  <SCORE.INTRA.REPUL.0>
0.730195

>  <SCORE.INTRA.SOLV>
-3.21387

>  <SCORE.INTRA.SOLV.lig_0>
-127.221

>  <SCORE.INTRA.VDW>
-14.8799

>  <SCORE.INTRA.VDW.0>
10.8385

>  <SCORE.INTRA.norm>
-0.641701

>  <SCORE.RESTR>
0

>  <SCORE.RESTR.CAVITY>
0

>  <SCORE.RESTR.norm>
0

>  <SCORE.SYSTEM>
0

>  <SCORE.SYSTEM.CONST>
0

>  <SCORE.SYSTEM.DIHEDRAL>
0

>  <SCORE.SYSTEM.SOLV>
0

>  <SCORE.SYSTEM.norm>
0

>  <SCORE.heavy>
32

>  <SCORE.norm>
-1.79362

>  <RMSD>
2.712

$$$$
2tob cryst
 OpenBabel11021811463D
libRbt.so/2013.1/901 2013/11/27
 32 34  0  0  0  0  0  0  0  0999 V2000
   -7.2770    0.9215   -8.3342 C   0  0  2  0  0  0  0  0  0  0  0  0
   -6.5510    2.0897   -8.9939 C   0  0  1  0  0  0  0  0  0  0  0  0
   -5.8896    1.5987  -10.2820 C   0  0  2  0  0  0  0  0  0  0  0  0
   -4.9719    0.4011  -10.0029 C   0  0  1  0  0  0  0  0  0  0  0  0
   -5.7376   -0.6758   -9.2264 C   0  0  1  0  0  0  0  0  0  0  0  0
   -4.8824   -1.8465   -8.7701 C   0  0  0  0  0  0  0  0  0  0  0  0
   -7.4755    3.1323   -9.2922 O   0  0  0  0  0  0  0  0  0  0  0  0
   -5.1047    2.5937  -11.0794 N   0  3  0  0  0  0  0  0  0  0  0  0
   -4.5135   -0.1284  -11.2406 O   0  0  0  0  0  0  0  0  0  0  0  0
   -6.3386   -0.0989   -8.0499 O   0  0  0  0  0  0  0  0  0  0  0  0
   -5.6878   -2.9917   -8.5103 O   0  0  0  0  0  0  0  0  0  0  0  0
  -10.6393    0.0662   -9.4484 C   0  0  2  0  0  0  0  0  0  0  0  0
  -11.8278   -0.8626   -9.1658 C   0  0  0  0  0  0  0  0  0  0  0  0
  -11.4418   -2.3366   -9.2537 C   0  0  1  0  0  0  0  0  0  0  0  0
  -10.3033   -2.5950   -8.2765 C   0  0  2  0  0  0  0  0  0  0  0  0
   -9.0749   -1.7855   -8.6993 C   0  0  1  0  0  0  0  0  0  0  0  0
   -9.3766   -0.2776   -8.6425 C   0  0  1  0  0  0  0  0  0  0  0  0
  -11.0118    1.4968   -9.1839 N   0  3  0  0  0  0  0  0  0  0  0  0
  -12.6196   -3.2193   -8.9678 N   0  3  0  0  0  0  0  0  0  0  0  0
   -7.9844   -2.1023   -7.8435 O   0  0  0  0  0  0  0  0  0  0  0  0
   -9.9796   -3.9969   -8.2389 O   0  0  0  0  0  0  0  0  0  0  0  0
   -8.2737    0.4622   -9.2066 O   0  0  0  0  0  0  0  0  0  0  0  0
   -9.5637   -4.4392   -6.9763 C   0  0  2  0  0  0  0  0  0  0  0  0
  -10.4370   -5.6130   -6.5209 C   0  0  1  0  0  0  0  0  0  0  0  0
  -11.8230   -5.1315   -6.0910 C   0  0  0  0  0  0  0  0  0  0  0  0
  -11.6639   -4.0293   -5.0563 C   0  0  1  0  0  0  0  0  0  0  0  0
  -10.8479   -2.8966   -5.6547 C   0  0  1  0  0  0  0  0  0  0  0  0
  -10.6587   -1.7589   -4.6679 C   0  0  0  0  0  0  0  0  0  0  0  0
  -10.5807   -6.5930   -7.6446 N   0  3  0  0  0  0  0  0  0  0  0  0
   -9.9184   -0.6529   -5.3691 N   0  3  0  0  0  0  0  0  0  0  0  0
  -12.9364   -3.5476   -4.6480 O   0  0  0  0  0  0  0  0  0  0  0  0
   -9.5461   -3.3883   -6.0161 O   0  0  0  0  0  0  0  0  0  0  0  0
  1  2  1  0  0  0  0
  1 22  1  6  0  0  0
  1 10  1  0  0  0  0
  2  3  1  0  0  0  0
  2  7  1  6  0  0  0
  3  4  1  0  0  0  0
  3  8  1  1  0  0  0
  4  5  1  0  0  0  0
  4  9  1  6  0  0  0
  5  6  1  1  0  0  0
  5 10  1  0  0  0  0
  6 11  1  0  0  0  0
 12 13  1  0  0  0  0
 12 17  1  0  0  0  0
 12 18  1  1  0  0  0
 13 14  1  0  0  0  0
 14 15  1  0  0  0  0
 14 19  1  1  0  0  0
 15 16  1  0  0  0  0
 15 21  1  6  0  0  0
 16 17  1  0  0  0  0
 16 20  1  1  0  0  0
 17 22  1  6  0  0  0
 23 21  1  6  0  0  0
 23 24  1  0  0  0  0
 23 32  1  0  0  0  0
 24 25  1  0  0  0  0
 24 29  1  6  0  0  0
 25 26  1  0  0  0  0
 26 27  1  0  0  0  0
 26 31  1  6  0  0  0
 27 28  1  1  0  0  0
 27 32  1  0  0  0  0
 28 30  1  0  0  0  0
M  CHG  5   8   1  18   1  19   1  29   1  30   1
M  END
>  <CHROM.1>
-157.89805563,-68.43704931,-167.66735395,-63.99221221,-158.72680825,-146.11505504
64.14897576,-179.67562530,-146.26834618,-28.80709684,145.50203047,124.63584725
-151.23889150,-177.36221911,-176.53434841,-167.21241002,-8.89540763,-1.49354921
-8.11505962,0.81444978,0.30054582,-0.31558804

>  <Name>
2tob cryst

>  <RI>
0

>  <Rbt.Current_Directory>
/home/itssahil/PROJECTS/Mol_Feturizer/New_Systems/rnas/2tob

>  <Rbt.Executable>
rbdock ($Id: //depot/dev/client3/rdock/2013.1/src/exe/rbdock.cxx#4 $)

>  <Rbt.Library>
libRbt.so (2013.1, Build901 2013/11/27)

>  <Rbt.Parameter_File>
/export/apps/rDock/src/rDock_2013.1_src/data/scripts/dock_solv.prm

>  <Rbt.Receptor>
prm/blind_docking_100.prm

>  <SCORE>
-34.432

>  <SCORE.INTER>
-31.5433

>  <SCORE.INTER.CONST>
1

>  <SCORE.INTER.POLAR>
-4.6866

>  <SCORE.INTER.ROT>
6

>  <SCORE.INTER.SOLV>
36.526

>  <SCORE.INTER.VDW>
-25.1822

>  <SCORE.INTER.norm>
-0.985727

>  <SCORE.INTRA>
-8.84342

>  <SCORE.INTRA.DIHEDRAL>
12.2043

>  <SCORE.INTRA.DIHEDRAL.0>
18.4221

>  <SCORE.INTRA.POLAR>
0.369223

>  <SCORE.INTRA.POLAR.0>
-1.57101

>  <SCORE.INTRA.REPUL>
-0.72081

>  <SCORE.INTRA.REPUL.0>
0.730195

>  <SCORE.INTRA.SOLV>
-0.346469

>  <SCORE.INTRA.SOLV.lig_0>
-127.221

>  <SCORE.INTRA.VDW>
-12.4237

>  <SCORE.INTRA.VDW.0>
10.8385

>  <SCORE.INTRA.norm>
-0.276357

>  <SCORE.RESTR>
5.95471

>  <SCORE.RESTR.CAVITY>
5.95471

>  <SCORE.RESTR.norm>
0.186085

>  <SCORE.SYSTEM>
0

>  <SCORE.SYSTEM.CONST>
0

>  <SCORE.SYSTEM.DIHEDRAL>
0

>  <SCORE.SYSTEM.SOLV>
0

>  <SCORE.SYSTEM.norm>
0

>  <SCORE.heavy>
32

>  <SCORE.norm>
-1.076

>  <RMSD>
2.728

$$$$
2tob cryst
 OpenBabel11021811463D
libRbt.so/2013.1/901 2013/11/27
 32 34  0  0  0  0  0  0  0  0999 V2000
   -7.8093   -1.1398   -7.5537 C   0  0  2  0  0  0  0  0  0  0  0  0
   -8.6428    0.0712   -7.1462 C   0  0  1  0  0  0  0  0  0  0  0  0
   -8.9994    0.8718   -8.3990 C   0  0  2  0  0  0  0  0  0  0  0  0
   -7.7363    1.2483   -9.1848 C   0  0  1  0  0  0  0  0  0  0  0  0
   -6.8888   -0.0020   -9.4445 C   0  0  1  0  0  0  0  0  0  0  0  0
   -5.5417    0.2773  -10.0906 C   0  0  0  0  0  0  0  0  0  0  0  0
   -9.8337   -0.3553   -6.4899 O   0  0  0  0  0  0  0  0  0  0  0  0
   -9.8067    2.1194   -8.2162 N   0  3  0  0  0  0  0  0  0  0  0  0
   -8.1193    1.8387  -10.4205 O   0  0  0  0  0  0  0  0  0  0  0  0
   -6.6354   -0.6899   -8.2032 O   0  0  0  0  0  0  0  0  0  0  0  0
   -5.2228    1.6633  -10.0188 O   0  0  0  0  0  0  0  0  0  0  0  0
  -10.8622   -2.5154   -8.9239 C   0  0  2  0  0  0  0  0  0  0  0  0
  -12.0770   -3.3985   -8.6082 C   0  0  0  0  0  0  0  0  0  0  0  0
  -11.6739   -4.8224   -8.2352 C   0  0  1  0  0  0  0  0  0  0  0  0
  -10.7231   -4.7580   -7.0478 C   0  0  2  0  0  0  0  0  0  0  0  0
   -9.4438   -4.0244   -7.4582 C   0  0  1  0  0  0  0  0  0  0  0  0
   -9.7588   -2.5716   -7.8556 C   0  0  1  0  0  0  0  0  0  0  0  0
  -11.2829   -1.0865   -9.1154 N   0  3  0  0  0  0  0  0  0  0  0  0
  -12.8789   -5.6597   -7.9268 N   0  3  0  0  0  0  0  0  0  0  0  0
   -8.5188   -4.0504   -6.3786 O   0  0  0  0  0  0  0  0  0  0  0  0
  -10.4036   -6.0830   -6.5852 O   0  0  0  0  0  0  0  0  0  0  0  0
   -8.5779   -1.9485   -8.4027 O   0  0  0  0  0  0  0  0  0  0  0  0
  -10.3234   -6.1820   -5.1901 C   0  0  2  0  0  0  0  0  0  0  0  0
  -10.0166   -7.6280   -4.7865 C   0  0  1  0  0  0  0  0  0  0  0  0
  -11.2481   -8.5181   -4.9555 C   0  0  0  0  0  0  0  0  0  0  0  0
  -12.4157   -7.8925   -4.2096 C   0  0  1  0  0  0  0  0  0  0  0  0
  -12.6655   -6.4966   -4.7536 C   0  0  1  0  0  0  0  0  0  0  0  0
  -13.8277   -5.8197   -4.0499 C   0  0  0  0  0  0  0  0  0  0  0  0
   -8.9033   -8.1577   -5.6371 N   0  3  0  0  0  0  0  0  0  0  0  0
  -13.8650   -4.3819   -4.4908 N   0  3  0  0  0  0  0  0  0  0  0  0
  -13.5824   -8.6886   -4.3615 O   0  0  0  0  0  0  0  0  0  0  0  0
  -11.4940   -5.6894   -4.5468 O   0  0  0  0  0  0  0  0  0  0  0  0
  1  2  1  0  0  0  0
  1 22  1  6  0  0  0
  1 10  1  0  0  0  0
  2  3  1  0  0  0  0
  2  7  1  6  0  0  0
  3  4  1  0  0  0  0
  3  8  1  1  0  0  0
  4  5  1  0  0  0  0
  4  9  1  6  0  0  0
  5  6  1  1  0  0  0
  5 10  1  0  0  0  0
  6 11  1  0  0  0  0
 12 13  1  0  0  0  0
 12 17  1  0  0  0  0
 12 18  1  1  0  0  0
 13 14  1  0  0  0  0
 14 15  1  0  0  0  0
 14 19  1  1  0  0  0
 15 16  1  0  0  0  0
 15 21  1  6  0  0  0
 16 17  1  0  0  0  0
 16 20  1  1  0  0  0
 17 22  1  6  0  0  0
 23 21  1  6  0  0  0
 23 24  1  0  0  0  0
 23 32  1  0  0  0  0
 24 25  1  0  0  0  0
 24 29  1  6  0  0  0
 25 26  1  0  0  0  0
 26 27  1  0  0  0  0
 26 31  1  6  0  0  0
 27 28  1  1  0  0  0
 27 32  1  0  0  0  0
 28 30  1  0  0  0  0
M  CHG  5   8   1  18   1  19   1  29   1  30   1
M  END
>  <CHROM.1>
-64.87010790,-176.78309510,-57.82701106,-37.13637475,14.18945603,62.14345575
-29.57921911,52.83796566,-141.23768615,169.06641076,140.55269138,178.54075139
-46.43782123,61.97154085,171.16336428,78.54596771,-10.00122776,-3.22895909
-7.15219506,-1.09790930,-0.17286591,2.74880357

>  <Name>
2tob cryst

>  <RI>
0

>  <Rbt.Current_Directory>
/home/itssahil/PROJECTS/Mol_Feturizer/New_Systems/rnas/2tob

>  <Rbt.Executable>
rbdock ($Id: //depot/dev/client3/rdock/2013.1/src/exe/rbdock.cxx#4 $)

>  <Rbt.Library>
libRbt.so (2013.1, Build901 2013/11/27)

>  <Rbt.Parameter_File>
/export/apps/rDock/src/rDock_2013.1_src/data/scripts/dock_solv.prm

>  <Rbt.Receptor>
prm/pocket_docking_3.prm

>  <SCORE>
-48.7181

>  <SCORE.INTER>
-36.2046

>  <SCORE.INTER.CONST>
1

>  <SCORE.INTER.POLAR>
-5.21381

>  <SCORE.INTER.ROT>
6

>  <SCORE.INTER.SOLV>
26.965

>  <SCORE.INTER.VDW>
-23.3453

>  <SCORE.INTER.norm>
-1.13139

>  <SCORE.INTRA>
-12.5198

>  <SCORE.INTRA.DIHEDRAL>
3.34916

>  <SCORE.INTRA.DIHEDRAL.0>
18.4221

>  <SCORE.INTRA.POLAR>
1.01122

>  <SCORE.INTRA.POLAR.0>
-1.57101

>  <SCORE.INTRA.REPUL>
-0.730195

>  <SCORE.INTRA.REPUL.0>
0.730195

>  <SCORE.INTRA.SOLV>
0.866733

>  <SCORE.INTRA.SOLV.lig_0>
-127.221

>  <SCORE.INTRA.VDW>
-14.415

>  <SCORE.INTRA.VDW.0>
10.8385

>  <SCORE.INTRA.norm>
-0.391245

>  <SCORE.RESTR>
0.00637819

>  <SCORE.RESTR.CAVITY>
0.00637819

>  <SCORE.RESTR.norm>
0.000199319

>  <SCORE.SYSTEM>
0

>  <SCORE.SYSTEM.CONST>
0

>  <SCORE.SYSTEM.DIHEDRAL>
0

>  <SCORE.SYSTEM.SOLV>
0

>  <SCORE.SYSTEM.norm>
0

>  <SCORE.heavy>
32

>  <SCORE.norm>
-1.52244

>  <RMSD>
2.744

$$$$
2tob cryst
 OpenBabel11021811463D
libRbt.so/2013.1/901 2013/11/27
 32 34  0  0  0  0  0  0  0  0999 V2000
   -8.0755   -1.6753   -7.4262 C   0  0  2  0  0  0  0  0  0  0  0  0
   -8.5340   -0.4494   -6.6426 C   0  0  1  0  0  0  0  0  0  0  0  0
   -8.6031    0.7479   -7.5909 C   0  0  2  0  0  0  0  0  0  0  0  0
   -7.2609    0.9579   -8.3044 C   0  0  1  0  0  0  0  0  0  0  0  0
   -6.8052   -0.3508   -8.9589 C   0  0  1  0  0  0  0  0  0  0  0  0
   -5.4153   -0.2942   -9.5714 C   0  0  0  0  0  0  0  0  0  0  0  0
   -9.8175   -0.6882   -6.0712 O   0  0  0  0  0  0  0  0  0  0  0  0
   -9.0189    2.0651   -7.0130 N   0  3  0  0  0  0  0  0  0  0  0  0
   -7.4169    1.9659   -9.2953 O   0  0  0  0  0  0  0  0  0  0  0  0
   -6.8016   -1.4123   -7.9834 O   0  0  0  0  0  0  0  0  0  0  0  0
   -5.0017   -1.5843  -10.0100 O   0  0  0  0  0  0  0  0  0  0  0  0
  -11.3360   -1.7950   -9.0737 C   0  0  2  0  0  0  0  0  0  0  0  0
  -12.7535   -2.3672   -8.9386 C   0  0  0  0  0  0  0  0  0  0  0  0
  -12.7527   -3.8890   -8.8216 C   0  0  1  0  0  0  0  0  0  0  0  0
  -11.8908   -4.2794   -7.6288 C   0  0  2  0  0  0  0  0  0  0  0  0
  -10.4437   -3.8500   -7.8831 C   0  0  1  0  0  0  0  0  0  0  0  0
  -10.3506   -2.3199   -8.0177 C   0  0  1  0  0  0  0  0  0  0  0  0
  -11.3635   -0.2947   -9.0116 N   0  3  0  0  0  0  0  0  0  0  0  0
  -14.1486   -4.4191   -8.6852 N   0  3  0  0  0  0  0  0  0  0  0  0
   -9.6234   -4.3013   -6.8129 O   0  0  0  0  0  0  0  0  0  0  0  0
  -11.9507   -5.7002   -7.4071 O   0  0  0  0  0  0  0  0  0  0  0  0
   -9.0186   -1.9464   -8.4276 O   0  0  0  0  0  0  0  0  0  0  0  0
  -11.4450   -6.0916   -6.1606 C   0  0  2  0  0  0  0  0  0  0  0  0
  -11.7876   -7.5616   -5.8967 C   0  0  1  0  0  0  0  0  0  0  0  0
  -13.2667   -7.7260   -5.5460 C   0  0  0  0  0  0  0  0  0  0  0  0
  -13.6103   -6.7863   -4.4016 C   0  0  1  0  0  0  0  0  0  0  0  0
  -13.2974   -5.3591   -4.8162 C   0  0  1  0  0  0  0  0  0  0  0  0
  -13.6258   -4.3693   -3.7132 C   0  0  0  0  0  0  0  0  0  0  0  0
  -11.4756   -8.3731   -7.1164 N   0  3  0  0  0  0  0  0  0  0  0  0
  -13.3847   -2.9830   -4.2450 N   0  3  0  0  0  0  0  0  0  0  0  0
  -14.9848   -6.9029   -4.0624 O   0  0  0  0  0  0  0  0  0  0  0  0
  -11.8941   -5.2457   -5.1072 O   0  0  0  0  0  0  0  0  0  0  0  0
  1  2  1  0  0  0  0
  1 22  1  6  0  0  0
  1 10  1  0  0  0  0
  2  3  1  0  0  0  0
  2  7  1  6  0  0  0
  3  4  1  0  0  0  0
  3  8  1  1  0  0  0
  4  5  1  0  0  0  0
  4  9  1  6  0  0  0
  5  6  1  1  0  0  0
  5 10  1  0  0  0  0
  6 11  1  0  0  0  0
 12 13  1  0  0  0  0
 12 17  1  0  0  0  0
 12 18  1  1  0  0  0
 13 14  1  0  0  0  0
 14 15  1  0  0  0  0
 14 19  1  1  0  0  0
 15 16  1  0  0  0  0
 15 21  1  6  0  0  0
 16 17  1  0  0  0  0
 16 20  1  1  0  0  0
 17 22  1  6  0  0  0
 23 21  1  6  0  0  0
 23 24  1  0  0  0  0
 23 32  1  0  0  0  0
 24 25  1  0  0  0  0
 24 29  1  6  0  0  0
 25 26  1  0  0  0  0
 26 27  1  0  0  0  0
 26 31  1  6  0  0  0
 27 28  1  1  0  0  0
 27 32  1  0  0  0  0
 28 30  1  0  0  0  0
M  CHG  5   8   1  18   1  19   1  29   1  30   1
M  END
>  <CHROM.1>
-64.13150352,-153.71049205,173.67865007,-177.90484638,172.86215840,170.24857785
-176.25251606,-171.59770418,-165.96874605,84.93847499,147.85063987,169.22315827
-18.90382016,-57.90354323,-175.78625757,-169.85063671,-10.53426924,-3.01296605
-7.21321023,-0.76840626,-0.49418958,-3.12448310

>  <Name>
2tob cryst

>  <RI>
0

>  <Rbt.Current_Directory>
/home/itssahil/PROJECTS/Mol_Feturizer/New_Systems/rnas/2tob

>  <Rbt.Executable>
rbdock ($Id: //depot/dev/client3/rdock/2013.1/src/exe/rbdock.cxx#4 $)

>  <Rbt.Library>
libRbt.so (2013.1, Build901 2013/11/27)

>  <Rbt.Parameter_File>
/export/apps/rDock/src/rDock_2013.1_src/data/scripts/dock_solv.prm

>  <Rbt.Receptor>
prm/pocket_docking_6.prm

>  <SCORE>
-59.6535

>  <SCORE.INTER>
-44.3734

>  <SCORE.INTER.CONST>
1

>  <SCORE.INTER.POLAR>
-6.432

>  <SCORE.INTER.ROT>
6

>  <SCORE.INTER.SOLV>
24.7469

>  <SCORE.INTER.VDW>
-23.9913

>  <SCORE.INTER.norm>
-1.38667

>  <SCORE.INTRA>
-15.2801

>  <SCORE.INTRA.DIHEDRAL>
-3.00321

>  <SCORE.INTRA.DIHEDRAL.0>
18.4221

>  <SCORE.INTRA.POLAR>
1.22991

>  <SCORE.INTRA.POLAR.0>
-1.57101

>  <SCORE.INTRA.REPUL>
-0.730195

>  <SCORE.INTRA.REPUL.0>
0.730195

>  <SCORE.INTRA.SOLV>
-5.01192

>  <SCORE.INTRA.SOLV.lig_0>
-127.221

>  <SCORE.INTRA.VDW>
-11.8033

>  <SCORE.INTRA.VDW.0>
10.8385

>  <SCORE.INTRA.norm>
-0.477503

>  <SCORE.RESTR>
0

>  <SCORE.RESTR.CAVITY>
0

>  <SCORE.RESTR.norm>
0

>  <SCORE.SYSTEM>
0

>  <SCORE.SYSTEM.CONST>
0

>  <SCORE.SYSTEM.DIHEDRAL>
0

>  <SCORE.SYSTEM.SOLV>
0

>  <SCORE.SYSTEM.norm>
0

>  <SCORE.heavy>
32

>  <SCORE.norm>
-1.86417

>  <RMSD>
2.773

$$$$
2tob cryst
 OpenBabel11021811463D
libRbt.so/2013.1/901 2013/11/27
 32 34  0  0  0  0  0  0  0  0999 V2000
   -9.2849   -2.0287   -6.2172 C   0  0  2  0  0  0  0  0  0  0  0  0
   -8.8972   -0.6598   -5.6669 C   0  0  1  0  0  0  0  0  0  0  0  0
   -8.3311    0.1898   -6.8050 C   0  0  2  0  0  0  0  0  0  0  0  0
   -7.1673   -0.5309   -7.4983 C   0  0  1  0  0  0  0  0  0  0  0  0
   -7.5958   -1.9444   -7.9075 C   0  0  1  0  0  0  0  0  0  0  0  0
   -6.4743   -2.7997   -8.4739 C   0  0  0  0  0  0  0  0  0  0  0  0
  -10.0398   -0.0183   -5.1068 O   0  0  0  0  0  0  0  0  0  0  0  0
   -7.8706    1.5749   -6.4713 N   0  3  0  0  0  0  0  0  0  0  0  0
   -6.7840    0.2110   -8.6494 O   0  0  0  0  0  0  0  0  0  0  0  0
   -8.1352   -2.6432   -6.7678 O   0  0  0  0  0  0  0  0  0  0  0  0
   -5.2318   -2.1062   -8.4210 O   0  0  0  0  0  0  0  0  0  0  0  0
  -12.4762   -2.2464   -8.1036 C   0  0  2  0  0  0  0  0  0  0  0  0
  -13.5392   -3.2743   -8.5140 C   0  0  0  0  0  0  0  0  0  0  0  0
  -12.9224   -4.5307   -9.1227 C   0  0  1  0  0  0  0  0  0  0  0  0
  -11.9489   -5.1257   -8.1147 C   0  0  2  0  0  0  0  0  0  0  0  0
  -10.8039   -4.1399   -7.8686 C   0  0  1  0  0  0  0  0  0  0  0  0
  -11.3385   -2.8344   -7.2540 C   0  0  1  0  0  0  0  0  0  0  0  0
  -13.1046   -1.1064   -7.3548 N   0  3  0  0  0  0  0  0  0  0  0  0
  -13.9827   -5.5182   -9.5084 N   0  3  0  0  0  0  0  0  0  0  0  0
   -9.8466   -4.7364   -7.0027 O   0  0  0  0  0  0  0  0  0  0  0  0
  -11.4258   -6.3768   -8.5969 O   0  0  0  0  0  0  0  0  0  0  0  0
  -10.2799   -1.8562   -7.1897 O   0  0  0  0  0  0  0  0  0  0  0  0
  -10.9916   -7.2305   -7.5744 C   0  0  2  0  0  0  0  0  0  0  0  0
  -11.3310   -8.6824   -7.9276 C   0  0  1  0  0  0  0  0  0  0  0  0
  -12.8263   -8.9529   -7.7595 C   0  0  0  0  0  0  0  0  0  0  0  0
  -13.2504   -8.5314   -6.3618 C   0  0  1  0  0  0  0  0  0  0  0  0
  -12.9309   -7.0596   -6.1657 C   0  0  1  0  0  0  0  0  0  0  0  0
  -13.3380   -6.5760   -4.7856 C   0  0  0  0  0  0  0  0  0  0  0  0
  -10.9355   -8.9561   -9.3462 N   0  3  0  0  0  0  0  0  0  0  0  0
  -12.5111   -7.3166   -3.7704 N   0  3  0  0  0  0  0  0  0  0  0  0
  -14.6413   -8.7547   -6.1792 O   0  0  0  0  0  0  0  0  0  0  0  0
  -11.5141   -6.8584   -6.3036 O   0  0  0  0  0  0  0  0  0  0  0  0
  1  2  1  0  0  0  0
  1 22  1  6  0  0  0
  1 10  1  0  0  0  0
  2  3  1  0  0  0  0
  2  7  1  6  0  0  0
  3  4  1  0  0  0  0
  3  8  1  1  0  0  0
  4  5  1  0  0  0  0
  4  9  1  6  0  0  0
  5  6  1  1  0  0  0
  5 10  1  0  0  0  0
  6 11  1  0  0  0  0
 12 13  1  0  0  0  0
 12 17  1  0  0  0  0
 12 18  1  1  0  0  0
 13 14  1  0  0  0  0
 14 15  1  0  0  0  0
 14 19  1  1  0  0  0
 15 16  1  0  0  0  0
 15 21  1  6  0  0  0
 16 17  1  0  0  0  0
 16 20  1  1  0  0  0
 17 22  1  6  0  0  0
 23 21  1  6  0  0  0
 23 24  1  0  0  0  0
 23 32  1  0  0  0  0
 24 25  1  0  0  0  0
 24 29  1  6  0  0  0
 25 26  1  0  0  0  0
 26 27  1  0  0  0  0
 26 31  1  6  0  0  0
 27 28  1  1  0  0  0
 27 32  1  0  0  0  0
 28 30  1  0  0  0  0
M  CHG  5   8   1  18   1  19   1  29   1  30   1
M  END
>  <CHROM.1>
-142.15668581,62.37891121,27.34606998,-55.42098806,3.57905192,-58.93212666
62.04238548,-64.35062534,-155.21736204,167.26555166,164.90860788,142.56264843
63.60836850,62.63852064,63.89635539,53.00821899,-10.66431182,-4.08876199
-7.26663488,0.93437138,0.29541226,0.19131784

>  <Name>
2tob cryst

>  <RI>
0

>  <Rbt.Current_Directory>
/home/itssahil/PROJECTS/Mol_Feturizer/New_Systems/rnas/2tob

>  <Rbt.Executable>
rbdock ($Id: //depot/dev/client3/rdock/2013.1/src/exe/rbdock.cxx#4 $)

>  <Rbt.Library>
libRbt.so (2013.1, Build901 2013/11/27)

>  <Rbt.Parameter_File>
/export/apps/rDock/src/rDock_2013.1_src/data/scripts/dock_solv.prm

>  <Rbt.Receptor>
prm/pocket_docking_3.prm

>  <SCORE>
-37.0222

>  <SCORE.INTER>
-21.8901

>  <SCORE.INTER.CONST>
1

>  <SCORE.INTER.POLAR>
-2.34786

>  <SCORE.INTER.ROT>
6

>  <SCORE.INTER.SOLV>
31.2181

>  <SCORE.INTER.VDW>
-24.7732

>  <SCORE.INTER.norm>
-0.684066

>  <SCORE.INTRA>
-16.1048

>  <SCORE.INTRA.DIHEDRAL>
3.78807

>  <SCORE.INTRA.DIHEDRAL.0>
18.4221

>  <SCORE.INTRA.POLAR>
0.168784

>  <SCORE.INTRA.POLAR.0>
-1.57101

>  <SCORE.INTRA.REPUL>
-0.730195

>  <SCORE.INTRA.REPUL.0>
0.730195

>  <SCORE.INTRA.SOLV>
-6.61242

>  <SCORE.INTRA.SOLV.lig_0>
-127.221

>  <SCORE.INTRA.VDW>
-11.6156

>  <SCORE.INTRA.VDW.0>
10.8385

>  <SCORE.INTRA.norm>
-0.503276

>  <SCORE.RESTR>
0.972816

>  <SCORE.RESTR.CAVITY>
0.972816

>  <SCORE.RESTR.norm>
0.0304005

>  <SCORE.SYSTEM>
0

>  <SCORE.SYSTEM.CONST>
0

>  <SCORE.SYSTEM.DIHEDRAL>
0

>  <SCORE.SYSTEM.SOLV>
0

>  <SCORE.SYSTEM.norm>
0

>  <SCORE.heavy>
32

>  <SCORE.norm>
-1.15694

>  <RMSD>
2.783

$$$$
2tob cryst
 OpenBabel11021811463D
libRbt.so/2013.1/901 2013/11/27
 32 34  0  0  0  0  0  0  0  0999 V2000
   -6.1511    0.3852   -8.4845 C   0  0  2  0  0  0  0  0  0  0  0  0
   -5.5880    1.6726   -9.0782 C   0  0  1  0  0  0  0  0  0  0  0  0
   -5.1785    1.4122  -10.5281 C   0  0  2  0  0  0  0  0  0  0  0  0
   -4.2019    0.2319  -10.6165 C   0  0  1  0  0  0  0  0  0  0  0  0
   -4.7832   -0.9846   -9.8879 C   0  0  1  0  0  0  0  0  0  0  0  0
   -3.8343   -2.1678   -9.7886 C   0  0  0  0  0  0  0  0  0  0  0  0
   -6.5720    2.7022   -9.0312 O   0  0  0  0  0  0  0  0  0  0  0  0
   -4.5808    2.5519  -11.2934 N   0  3  0  0  0  0  0  0  0  0  0  0
   -3.9810   -0.0837  -11.9854 O   0  0  0  0  0  0  0  0  0  0  0  0
   -5.1567   -0.6198   -8.5441 O   0  0  0  0  0  0  0  0  0  0  0  0
   -2.5640   -1.8469  -10.3463 O   0  0  0  0  0  0  0  0  0  0  0  0
   -9.3954    1.1356   -9.5538 C   0  0  2  0  0  0  0  0  0  0  0  0
  -10.8867    1.2148   -9.2005 C   0  0  0  0  0  0  0  0  0  0  0  0
  -11.5071   -0.1657   -9.0037 C   0  0  1  0  0  0  0  0  0  0  0  0
  -10.7272   -0.8933   -7.9173 C   0  0  2  0  0  0  0  0  0  0  0  0
   -9.2863   -1.1135   -8.3848 C   0  0  1  0  0  0  0  0  0  0  0  0
   -8.5807    0.2350   -8.6120 C   0  0  1  0  0  0  0  0  0  0  0  0
   -8.7822    2.5064   -9.5686 N   0  3  0  0  0  0  0  0  0  0  0  0
  -12.9612   -0.0574   -8.6544 N   0  3  0  0  0  0  0  0  0  0  0  0
   -8.5866   -1.8778   -7.4110 O   0  0  0  0  0  0  0  0  0  0  0  0
  -11.3447   -2.1576   -7.6142 O   0  0  0  0  0  0  0  0  0  0  0  0
   -7.2887    0.0140   -9.2151 O   0  0  0  0  0  0  0  0  0  0  0  0
  -10.9103   -3.2023   -8.4403 C   0  0  2  0  0  0  0  0  0  0  0  0
  -12.1174   -3.9737   -8.9842 C   0  0  1  0  0  0  0  0  0  0  0  0
  -12.7401   -4.8539   -7.9002 C   0  0  0  0  0  0  0  0  0  0  0  0
  -11.6566   -5.7306   -7.2932 C   0  0  1  0  0  0  0  0  0  0  0  0
  -10.5603   -4.8472   -6.7237 C   0  0  1  0  0  0  0  0  0  0  0  0
   -9.4479   -5.6674   -6.0960 C   0  0  0  0  0  0  0  0  0  0  0  0
  -13.1443   -3.0047   -9.4845 N   0  3  0  0  0  0  0  0  0  0  0  0
   -9.1472   -6.8220   -7.0122 N   0  3  0  0  0  0  0  0  0  0  0  0
  -12.2009   -6.5502   -6.2685 O   0  0  0  0  0  0  0  0  0  0  0  0
   -9.9857   -4.0613   -7.7816 O   0  0  0  0  0  0  0  0  0  0  0  0
  1  2  1  0  0  0  0
  1 22  1  6  0  0  0
  1 10  1  0  0  0  0
  2  3  1  0  0  0  0
  2  7  1  6  0  0  0
  3  4  1  0  0  0  0
  3  8  1  1  0  0  0
  4  5  1  0  0  0  0
  4  9  1  6  0  0  0
  5  6  1  1  0  0  0
  5 10  1  0  0  0  0
  6 11  1  0  0  0  0
 12 13  1  0  0  0  0
 12 17  1  0  0  0  0
 12 18  1  1  0  0  0
 13 14  1  0  0  0  0
 14 15  1  0  0  0  0
 14 19  1  1  0  0  0
 15 16  1  0  0  0  0
 15 21  1  6  0  0  0
 16 17  1  0  0  0  0
 16 20  1  1  0  0  0
 17 22  1  6  0  0  0
 23 21  1  1  0  0  0
 23 24  1  0  0  0  0
 23 32  1  0  0  0  0
 24 25  1  0  0  0  0
 24 29  1  1  0  0  0
 25 26  1  0  0  0  0
 26 27  1  0  0  0  0
 26 31  1  1  0  0  0
 27 28  1  6  0  0  0
 27 32  1  0  0  0  0
 28 30  1  0  0  0  0
M  CHG  5   8   1  18   1  19   1  29   1  30   1
M  END
>  <CHROM.1>
-104.82115685,52.06657744,-173.64965574,-45.80329530,3.14180229,-179.41766992
71.26153800,49.84809325,87.00538579,175.06806897,122.36604589,-131.35400440
157.22630116,-59.04306020,43.12549274,169.10442010,-8.53674519,-1.45474545
-8.78440465,-0.70251200,-0.16542736,2.86147849

>  <Name>
2tob cryst

>  <RI>
2.04895e+07

>  <Rbt.Current_Directory>
/home/itssahil/PROJECTS/Mol_Feturizer/New_Systems/rnas/2tob

>  <Rbt.Executable>
rbdock ($Id: //depot/dev/client3/rdock/2013.1/src/exe/rbdock.cxx#4 $)

>  <Rbt.Library>
libRbt.so (2013.1, Build901 2013/11/27)

>  <Rbt.Parameter_File>
/export/apps/rDock/src/rDock_2013.1_src/data/scripts/dock_solv.prm

>  <Rbt.Receptor>
prm/blind_docking_20.prm

>  <SCORE>
-14.4818

>  <SCORE.INTER>
-22.5534

>  <SCORE.INTER.CONST>
1

>  <SCORE.INTER.POLAR>
-5.44351

>  <SCORE.INTER.ROT>
6

>  <SCORE.INTER.SOLV>
41.1697

>  <SCORE.INTER.VDW>
-18.2138

>  <SCORE.INTER.norm>
-0.704794

>  <SCORE.INTRA>
3.06384

>  <SCORE.INTRA.DIHEDRAL>
14.1752

>  <SCORE.INTRA.DIHEDRAL.0>
18.4221

>  <SCORE.INTRA.POLAR>
1.17083

>  <SCORE.INTRA.POLAR.0>
-1.57101

>  <SCORE.INTRA.REPUL>
-0.730195

>  <SCORE.INTRA.REPUL.0>
0.730195

>  <SCORE.INTRA.SOLV>
3.87172

>  <SCORE.INTRA.SOLV.lig_0>
-127.221

>  <SCORE.INTRA.VDW>
-6.28948

>  <SCORE.INTRA.VDW.0>
10.8385

>  <SCORE.INTRA.norm>
0.0957451

>  <SCORE.RESTR>
5.00776

>  <SCORE.RESTR.CAVITY>
5.00776

>  <SCORE.RESTR.norm>
0.156493

>  <SCORE.SYSTEM>
0

>  <SCORE.SYSTEM.CONST>
0

>  <SCORE.SYSTEM.DIHEDRAL>
0

>  <SCORE.SYSTEM.SOLV>
0

>  <SCORE.SYSTEM.norm>
0

>  <SCORE.heavy>
32

>  <SCORE.norm>
-0.452556

>  <RMSD>
2.796

$$$$
2tob cryst
 OpenBabel11021811463D
libRbt.so/2013.1/901 2013/11/27
 32 34  0  0  0  0  0  0  0  0999 V2000
   -6.0859    1.2471   -8.8251 C   0  0  2  0  0  0  0  0  0  0  0  0
   -4.9070    1.3659   -9.7860 C   0  0  1  0  0  0  0  0  0  0  0  0
   -4.7557    0.0502  -10.5501 C   0  0  2  0  0  0  0  0  0  0  0  0
   -4.6247   -1.1324   -9.5812 C   0  0  1  0  0  0  0  0  0  0  0  0
   -5.7747   -1.1097   -8.5683 C   0  0  1  0  0  0  0  0  0  0  0  0
   -5.6632   -2.1547   -7.4702 C   0  0  0  0  0  0  0  0  0  0  0  0
   -5.1308    2.4341  -10.7023 O   0  0  0  0  0  0  0  0  0  0  0  0
   -3.6369   -0.0502  -11.5400 N   0  3  0  0  0  0  0  0  0  0  0  0
   -4.6579   -2.3446  -10.3241 O   0  0  0  0  0  0  0  0  0  0  0  0
   -5.8398    0.1804   -7.9283 O   0  0  0  0  0  0  0  0  0  0  0  0
   -6.0056   -3.4461   -7.9629 O   0  0  0  0  0  0  0  0  0  0  0  0
   -9.5026    1.8236   -9.2534 C   0  0  2  0  0  0  0  0  0  0  0  0
  -10.9355    1.5040   -8.8063 C   0  0  0  0  0  0  0  0  0  0  0  0
  -11.3572    0.0881   -9.1893 C   0  0  1  0  0  0  0  0  0  0  0  0
  -10.3642   -0.8914   -8.5788 C   0  0  2  0  0  0  0  0  0  0  0  0
   -8.9788   -0.6580   -9.1865 C   0  0  1  0  0  0  0  0  0  0  0  0
   -8.4732    0.7560   -8.8502 C   0  0  1  0  0  0  0  0  0  0  0  0
   -9.0637    3.1533   -8.7106 N   0  3  0  0  0  0  0  0  0  0  0  0
  -12.7574   -0.1978   -8.7355 N   0  3  0  0  0  0  0  0  0  0  0  0
   -8.0748   -1.6360   -8.6880 O   0  0  0  0  0  0  0  0  0  0  0  0
  -10.7833   -2.2477   -8.8159 O   0  0  0  0  0  0  0  0  0  0  0  0
   -7.2516    1.0214   -9.5706 O   0  0  0  0  0  0  0  0  0  0  0  0
  -11.4954   -2.8061   -7.7464 C   0  0  2  0  0  0  0  0  0  0  0  0
  -10.5756   -3.7164   -6.9258 C   0  0  1  0  0  0  0  0  0  0  0  0
  -10.3046   -5.0292   -7.6612 C   0  0  0  0  0  0  0  0  0  0  0  0
  -11.6317   -5.6619   -8.0476 C   0  0  1  0  0  0  0  0  0  0  0  0
  -12.4120   -4.6930   -8.9188 C   0  0  1  0  0  0  0  0  0  0  0  0
  -13.7494   -5.2720   -9.3434 C   0  0  0  0  0  0  0  0  0  0  0  0
   -9.2768   -3.0147   -6.6719 N   0  3  0  0  0  0  0  0  0  0  0  0
  -13.4837   -6.4181  -10.2808 N   0  3  0  0  0  0  0  0  0  0  0  0
  -11.4136   -6.8778   -8.7490 O   0  0  0  0  0  0  0  0  0  0  0  0
  -12.6683   -3.4881   -8.1776 O   0  0  0  0  0  0  0  0  0  0  0  0
  1  2  1  0  0  0  0
  1 22  1  6  0  0  0
  1 10  1  0  0  0  0
  2  3  1  0  0  0  0
  2  7  1  6  0  0  0
  3  4  1  0  0  0  0
  3  8  1  1  0  0  0
  4  5  1  0  0  0  0
  4  9  1  6  0  0  0
  5  6  1  1  0  0  0
  5 10  1  0  0  0  0
  6 11  1  0  0  0  0
 12 13  1  0  0  0  0
 12 17  1  0  0  0  0
 12 18  1  1  0  0  0
 13 14  1  0  0  0  0
 14 15  1  0  0  0  0
 14 19  1  1  0  0  0
 15 16  1  0  0  0  0
 15 21  1  6  0  0  0
 16 17  1  0  0  0  0
 16 20  1  1  0  0  0
 17 22  1  6  0  0  0
 23 21  1  6  0  0  0
 23 24  1  0  0  0  0
 23 32  1  0  0  0  0
 24 25  1  0  0  0  0
 24 29  1  6  0  0  0
 25 26  1  0  0  0  0
 26 27  1  0  0  0  0
 26 31  1  6  0  0  0
 27 28  1  1  0  0  0
 27 32  1  0  0  0  0
 28 30  1  0  0  0  0
M  CHG  5   8   1  18   1  19   1  29   1  30   1
M  END
>  <CHROM.1>
174.45710783,84.19633627,37.74527094,78.75822819,-75.83356883,48.50576586
41.36162145,74.15187136,-96.12050231,115.12418471,121.58350705,-100.78277543
-168.04159920,-42.64906114,-67.80774555,56.47635593,-8.77523930,-1.56272873
-8.90416031,0.66775527,0.10766584,-0.06575395

>  <Name>
2tob cryst

>  <RI>
0

>  <Rbt.Current_Directory>
/home/itssahil/PROJECTS/Mol_Feturizer/New_Systems/rnas/2tob

>  <Rbt.Executable>
rbdock ($Id: //depot/dev/client3/rdock/2013.1/src/exe/rbdock.cxx#4 $)

>  <Rbt.Library>
libRbt.so (2013.1, Build901 2013/11/27)

>  <Rbt.Parameter_File>
/export/apps/rDock/src/rDock_2013.1_src/data/scripts/dock_solv.prm

>  <Rbt.Receptor>
prm/blind_docking_100.prm

>  <SCORE>
-27.5135

>  <SCORE.INTER>
-25.6053

>  <SCORE.INTER.CONST>
1

>  <SCORE.INTER.POLAR>
-6.72678

>  <SCORE.INTER.ROT>
6

>  <SCORE.INTER.SOLV>
41.8766

>  <SCORE.INTER.VDW>
-16.2064

>  <SCORE.INTER.norm>
-0.800165

>  <SCORE.INTRA>
-7.56

>  <SCORE.INTRA.DIHEDRAL>
16.2014

>  <SCORE.INTRA.DIHEDRAL.0>
18.4221

>  <SCORE.INTRA.POLAR>
-1.16508

>  <SCORE.INTRA.POLAR.0>
-1.57101

>  <SCORE.INTRA.REPUL>
-0.730195

>  <SCORE.INTRA.REPUL.0>
0.730195

>  <SCORE.INTRA.SOLV>
0.600154

>  <SCORE.INTRA.SOLV.lig_0>
-127.221

>  <SCORE.INTRA.VDW>
-8.34855

>  <SCORE.INTRA.VDW.0>
10.8385

>  <SCORE.INTRA.norm>
-0.23625

>  <SCORE.RESTR>
5.65174

>  <SCORE.RESTR.CAVITY>
5.65174

>  <SCORE.RESTR.norm>
0.176617

>  <SCORE.SYSTEM>
0

>  <SCORE.SYSTEM.CONST>
0

>  <SCORE.SYSTEM.DIHEDRAL>
0

>  <SCORE.SYSTEM.SOLV>
0

>  <SCORE.SYSTEM.norm>
0

>  <SCORE.heavy>
32

>  <SCORE.norm>
-0.859798

>  <RMSD>
2.806

$$$$
2tob cryst
 OpenBabel11021811463D
libRbt.so/2013.1/901 2013/11/27
 32 34  0  0  0  0  0  0  0  0999 V2000
   -7.7076    0.5864   -8.0012 C   0  0  2  0  0  0  0  0  0  0  0  0
   -7.1302    1.9014   -8.5154 C   0  0  1  0  0  0  0  0  0  0  0  0
   -6.4724    1.6567   -9.8738 C   0  0  2  0  0  0  0  0  0  0  0  0
   -5.4276    0.5368   -9.7811 C   0  0  1  0  0  0  0  0  0  0  0  0
   -6.0492   -0.7077   -9.1379 C   0  0  1  0  0  0  0  0  0  0  0  0
   -5.0623   -1.8309   -8.8646 C   0  0  0  0  0  0  0  0  0  0  0  0
   -8.1668    2.8703   -8.6478 O   0  0  0  0  0  0  0  0  0  0  0  0
   -5.8241    2.8252  -10.5491 N   0  3  0  0  0  0  0  0  0  0  0  0
   -4.9657    0.2260  -11.0896 O   0  0  0  0  0  0  0  0  0  0  0  0
   -6.6600   -0.3572   -7.8801 O   0  0  0  0  0  0  0  0  0  0  0  0
   -5.7392   -3.0051   -8.4275 O   0  0  0  0  0  0  0  0  0  0  0  0
  -11.0520   -0.2346   -9.1628 C   0  0  2  0  0  0  0  0  0  0  0  0
  -12.2422   -1.1748   -8.9296 C   0  0  0  0  0  0  0  0  0  0  0  0
  -11.8596   -2.6427   -9.0980 C   0  0  1  0  0  0  0  0  0  0  0  0
  -10.7206   -2.9563   -8.1377 C   0  0  2  0  0  0  0  0  0  0  0  0
   -9.4908   -2.1276   -8.5174 C   0  0  1  0  0  0  0  0  0  0  0  0
   -9.7892   -0.6244   -8.3783 C   0  0  1  0  0  0  0  0  0  0  0  0
  -11.4210    1.1803   -8.8204 N   0  3  0  0  0  0  0  0  0  0  0  0
  -13.0390   -3.5371   -8.8590 N   0  3  0  0  0  0  0  0  0  0  0  0
   -8.4001   -2.4928   -7.6814 O   0  0  0  0  0  0  0  0  0  0  0  0
  -10.3999   -4.3588   -8.1767 O   0  0  0  0  0  0  0  0  0  0  0  0
   -8.6853    0.1426   -8.9027 O   0  0  0  0  0  0  0  0  0  0  0  0
  -10.1540   -4.9097   -6.9123 C   0  0  2  0  0  0  0  0  0  0  0  0
  -11.4438   -5.5134   -6.3465 C   0  0  1  0  0  0  0  0  0  0  0  0
  -12.4027   -4.4187   -5.8780 C   0  0  0  0  0  0  0  0  0  0  0  0
  -11.6681   -3.4960   -4.9188 C   0  0  1  0  0  0  0  0  0  0  0  0
  -10.4584   -2.9054   -5.6220 C   0  0  1  0  0  0  0  0  0  0  0  0
   -9.6840   -1.9672   -4.7141 C   0  0  0  0  0  0  0  0  0  0  0  0
  -12.1133   -6.3385   -7.4023 N   0  3  0  0  0  0  0  0  0  0  0  0
  -10.1353   -0.5617   -5.0036 N   0  3  0  0  0  0  0  0  0  0  0  0
  -12.5288   -2.4557   -4.4774 O   0  0  0  0  0  0  0  0  0  0  0  0
   -9.5733   -3.9670   -6.0175 O   0  0  0  0  0  0  0  0  0  0  0  0
  1  2  1  0  0  0  0
  1 22  1  6  0  0  0
  1 10  1  0  0  0  0
  2  3  1  0  0  0  0
  2  7  1  6  0  0  0
  3  4  1  0  0  0  0
  3  8  1  1  0  0  0
  4  5  1  0  0  0  0
  4  9  1  6  0  0  0
  5  6  1  1  0  0  0
  5 10  1  0  0  0  0
  6 11  1  0  0  0  0
 12 13  1  0  0  0  0
 12 17  1  0  0  0  0
 12 18  1  1  0  0  0
 13 14  1  0  0  0  0
 14 15  1  0  0  0  0
 14 19  1  1  0  0  0
 15 16  1  0  0  0  0
 15 21  1  6  0  0  0
 16 17  1  0  0  0  0
 16 20  1  1  0  0  0
 17 22  1  6  0  0  0
 23 21  1  6  0  0  0
 23 24  1  0  0  0  0
 23 32  1  0  0  0  0
 24 25  1  0  0  0  0
 24 29  1  6  0  0  0
 25 26  1  0  0  0  0
 26 27  1  0  0  0  0
 26 31  1  6  0  0  0
 27 28  1  1  0  0  0
 27 32  1  0  0  0  0
 28 30  1  0  0  0  0
M  CHG  5   8   1  18   1  19   1  29   1  30   1
M  END
>  <CHROM.1>
-149.38521300,62.47773015,171.28434408,-175.45397349,-172.64846234,-42.65458558
50.88663729,-51.29327886,-138.35973652,-67.90132441,143.59835292,93.38388718
94.68687092,-58.83563578,-96.44121971,0.12747590,-9.26120883,-1.56089064
-7.90218439,0.78899105,0.28392757,-0.26478430

>  <Name>
2tob cryst

>  <RI>
2.04895e+07

>  <Rbt.Current_Directory>
/home/itssahil/PROJECTS/Mol_Feturizer/New_Systems/rnas/2tob

>  <Rbt.Executable>
rbdock ($Id: //depot/dev/client3/rdock/2013.1/src/exe/rbdock.cxx#4 $)

>  <Rbt.Library>
libRbt.so (2013.1, Build901 2013/11/27)

>  <Rbt.Parameter_File>
/export/apps/rDock/src/rDock_2013.1_src/data/scripts/dock_solv.prm

>  <Rbt.Receptor>
prm/blind_docking_20.prm

>  <SCORE>
-44.2257

>  <SCORE.INTER>
-44.2585

>  <SCORE.INTER.CONST>
1

>  <SCORE.INTER.POLAR>
-5.49671

>  <SCORE.INTER.ROT>
6

>  <SCORE.INTER.SOLV>
35.4847

>  <SCORE.INTER.VDW>
-30.6115

>  <SCORE.INTER.norm>
-1.38308

>  <SCORE.INTRA>
-2.93742

>  <SCORE.INTRA.DIHEDRAL>
12.0249

>  <SCORE.INTRA.DIHEDRAL.0>
18.4221

>  <SCORE.INTRA.POLAR>
0.420177

>  <SCORE.INTRA.POLAR.0>
-1.57101

>  <SCORE.INTRA.REPUL>
-0.730195

>  <SCORE.INTRA.REPUL.0>
0.730195

>  <SCORE.INTRA.SOLV>
2.66754

>  <SCORE.INTRA.SOLV.lig_0>
-127.221

>  <SCORE.INTRA.VDW>
-8.06126

>  <SCORE.INTRA.VDW.0>
10.8385

>  <SCORE.INTRA.norm>
-0.0917942

>  <SCORE.RESTR>
2.97025

>  <SCORE.RESTR.CAVITY>
2.97025

>  <SCORE.RESTR.norm>
0.0928202

>  <SCORE.SYSTEM>
0

>  <SCORE.SYSTEM.CONST>
0

>  <SCORE.SYSTEM.DIHEDRAL>
0

>  <SCORE.SYSTEM.SOLV>
0

>  <SCORE.SYSTEM.norm>
0

>  <SCORE.heavy>
32

>  <SCORE.norm>
-1.38205

>  <RMSD>
2.815

$$$$
2tob cryst
 OpenBabel11021811463D
libRbt.so/2013.1/901 2013/11/27
 32 34  0  0  0  0  0  0  0  0999 V2000
   -8.8473    0.1369   -6.6983 C   0  0  2  0  0  0  0  0  0  0  0  0
   -8.6714    1.4818   -7.3963 C   0  0  1  0  0  0  0  0  0  0  0  0
   -8.5918    1.2505   -8.9055 C   0  0  2  0  0  0  0  0  0  0  0  0
   -7.4827    0.2465   -9.2467 C   0  0  1  0  0  0  0  0  0  0  0  0
   -7.6547   -1.0277   -8.4126 C   0  0  1  0  0  0  0  0  0  0  0  0
   -6.5256   -2.0336   -8.5650 C   0  0  0  0  0  0  0  0  0  0  0  0
   -9.7725    2.3349   -7.0953 O   0  0  0  0  0  0  0  0  0  0  0  0
   -8.4001    2.4505   -9.7802 N   0  3  0  0  0  0  0  0  0  0  0  0
   -7.5541   -0.0683  -10.6317 O   0  0  0  0  0  0  0  0  0  0  0  0
   -7.7435   -0.6905   -7.0138 O   0  0  0  0  0  0  0  0  0  0  0  0
   -5.2584   -1.3948   -8.4474 O   0  0  0  0  0  0  0  0  0  0  0  0
  -11.1288   -1.4544   -5.2288 C   0  0  2  0  0  0  0  0  0  0  0  0
  -11.8524   -2.6818   -4.6587 C   0  0  0  0  0  0  0  0  0  0  0  0
  -12.7583   -3.3484   -5.6903 C   0  0  1  0  0  0  0  0  0  0  0  0
  -11.9140   -3.7261   -6.8996 C   0  0  2  0  0  0  0  0  0  0  0  0
  -11.3563   -2.4568   -7.5485 C   0  0  1  0  0  0  0  0  0  0  0  0
  -10.4276   -1.7146   -6.5714 C   0  0  1  0  0  0  0  0  0  0  0  0
  -10.1211   -0.9311   -4.2460 N   0  3  0  0  0  0  0  0  0  0  0  0
  -13.4470   -4.5462   -5.1079 N   0  3  0  0  0  0  0  0  0  0  0  0
  -10.6494   -2.8044   -8.7323 O   0  0  0  0  0  0  0  0  0  0  0  0
  -12.7010   -4.4616   -7.8542 O   0  0  0  0  0  0  0  0  0  0  0  0
  -10.0501   -0.4392   -7.1306 O   0  0  0  0  0  0  0  0  0  0  0  0
  -11.9647   -5.4191   -8.5638 C   0  0  2  0  0  0  0  0  0  0  0  0
  -12.4997   -5.5332   -9.9951 C   0  0  1  0  0  0  0  0  0  0  0  0
  -13.8336   -6.2797  -10.0245 C   0  0  0  0  0  0  0  0  0  0  0  0
  -13.6708   -7.6102   -9.3075 C   0  0  1  0  0  0  0  0  0  0  0  0
  -13.2125   -7.3564   -7.8819 C   0  0  1  0  0  0  0  0  0  0  0  0
  -13.0368   -8.6514   -7.1098 C   0  0  0  0  0  0  0  0  0  0  0  0
  -12.6879   -4.1620  -10.5679 N   0  3  0  0  0  0  0  0  0  0  0  0
  -12.0850   -9.5263   -7.8789 N   0  3  0  0  0  0  0  0  0  0  0  0
  -14.9000   -8.3224   -9.3026 O   0  0  0  0  0  0  0  0  0  0  0  0
  -11.9438   -6.6804   -7.9040 O   0  0  0  0  0  0  0  0  0  0  0  0
  1  2  1  0  0  0  0
  1 22  1  6  0  0  0
  1 10  1  0  0  0  0
  2  3  1  0  0  0  0
  2  7  1  6  0  0  0
  3  4  1  0  0  0  0
  3  8  1  6  0  0  0
  4  5  1  0  0  0  0
  4  9  1  6  0  0  0
  5  6  1  1  0  0  0
  5 10  1  0  0  0  0
  6 11  1  0  0  0  0
 12 13  1  0  0  0  0
 12 17  1  0  0  0  0
 12 18  1  1  0  0  0
 13 14  1  0  0  0  0
 14 15  1  0  0  0  0
 14 19  1  1  0  0  0
 15 16  1  0  0  0  0
 15 21  1  6  0  0  0
 16 17  1  0  0  0  0
 16 20  1  6  0  0  0
 17 22  1  6  0  0  0
 23 21  1  1  0  0  0
 23 24  1  0  0  0  0
 23 32  1  0  0  0  0
 24 25  1  0  0  0  0
 24 29  1  1  0  0  0
 25 26  1  0  0  0  0
 26 27  1  0  0  0  0
 26 31  1  1  0  0  0
 27 28  1  1  0  0  0
 27 32  1  0  0  0  0
 28 30  1  0  0  0  0
M  CHG  5   8   1  18   1  19   1  29   1  30   1
M  END
>  <CHROM.1>
-178.85962746,-41.52672384,-75.50830171,-51.90822193,47.55300150,172.80966485
16.05640190,167.91074217,-147.40927433,179.35744063,83.72866316,-145.74661578
-80.06658371,174.36712335,55.49496171,-37.14727473,-10.69394662,-2.97831897
-7.84543372,0.59499099,0.83791584,0.85722518

>  <Name>
2tob cryst

>  <RI>
3.35201e+07

>  <Rbt.Current_Directory>
/home/itssahil/PROJECTS/Mol_Feturizer/New_Systems/rnas/2tob

>  <Rbt.Executable>
rbdock ($Id: //depot/dev/client3/rdock/2013.1/src/exe/rbdock.cxx#4 $)

>  <Rbt.Library>
libRbt.so (2013.1, Build901 2013/11/27)

>  <Rbt.Parameter_File>
/export/apps/rDock/src/rDock_2013.1_src/data/scripts/dock_solv.prm

>  <Rbt.Receptor>
prm/pocket_docking_4.prm

>  <SCORE>
-52.0665

>  <SCORE.INTER>
-36.6288

>  <SCORE.INTER.CONST>
1

>  <SCORE.INTER.POLAR>
-5.81226

>  <SCORE.INTER.ROT>
6

>  <SCORE.INTER.SOLV>
33.0035

>  <SCORE.INTER.VDW>
-23.6462

>  <SCORE.INTER.norm>
-1.14465

>  <SCORE.INTRA>
-15.6109

>  <SCORE.INTRA.DIHEDRAL>
1.36062

>  <SCORE.INTRA.DIHEDRAL.0>
18.4221

>  <SCORE.INTRA.POLAR>
0.328363

>  <SCORE.INTRA.POLAR.0>
-1.57101

>  <SCORE.INTRA.REPUL>
-0.730195

>  <SCORE.INTRA.REPUL.0>
0.730195

>  <SCORE.INTRA.SOLV>
-4.34142

>  <SCORE.INTRA.SOLV.lig_0>
-127.221

>  <SCORE.INTRA.VDW>
-11.5859

>  <SCORE.INTRA.VDW.0>
10.8385

>  <SCORE.INTRA.norm>
-0.48784

>  <SCORE.RESTR>
0.173186

>  <SCORE.RESTR.CAVITY>
0.173186

>  <SCORE.RESTR.norm>
0.00541206

>  <SCORE.SYSTEM>
0

>  <SCORE.SYSTEM.CONST>
0

>  <SCORE.SYSTEM.DIHEDRAL>
0

>  <SCORE.SYSTEM.SOLV>
0

>  <SCORE.SYSTEM.norm>
0

>  <SCORE.heavy>
32

>  <SCORE.norm>
-1.62708

>  <RMSD>
2.856

$$$$
2tob cryst
 OpenBabel11021811463D
libRbt.so/2013.1/901 2013/11/27
 32 34  0  0  0  0  0  0  0  0999 V2000
   -8.6894   -0.5198   -7.0322 C   0  0  2  0  0  0  0  0  0  0  0  0
   -8.2773    0.9366   -7.2224 C   0  0  1  0  0  0  0  0  0  0  0  0
   -7.5708    1.0798   -8.5708 C   0  0  2  0  0  0  0  0  0  0  0  0
   -6.3923    0.1029   -8.6767 C   0  0  1  0  0  0  0  0  0  0  0  0
   -6.8595   -1.3192   -8.3473 C   0  0  1  0  0  0  0  0  0  0  0  0
   -5.7412   -2.3463   -8.2804 C   0  0  0  0  0  0  0  0  0  0  0  0
   -9.4275    1.7771   -7.1876 O   0  0  0  0  0  0  0  0  0  0  0  0
   -7.0668    2.4387   -8.9468 N   0  3  0  0  0  0  0  0  0  0  0  0
   -5.8723    0.1474   -9.9995 O   0  0  0  0  0  0  0  0  0  0  0  0
   -7.5314   -1.3322   -7.0720 O   0  0  0  0  0  0  0  0  0  0  0  0
   -6.2611   -3.6686   -8.3757 O   0  0  0  0  0  0  0  0  0  0  0  0
  -11.8151   -0.3705   -8.8235 C   0  0  2  0  0  0  0  0  0  0  0  0
  -13.3110   -0.7052   -8.7512 C   0  0  0  0  0  0  0  0  0  0  0  0
  -13.5605   -2.2032   -8.5998 C   0  0  1  0  0  0  0  0  0  0  0  0
  -12.8321   -2.6889   -7.3541 C   0  0  2  0  0  0  0  0  0  0  0  0
  -11.3241   -2.5036   -7.5405 C   0  0  1  0  0  0  0  0  0  0  0  0
  -10.9799   -1.0128   -7.7047 C   0  0  1  0  0  0  0  0  0  0  0  0
  -11.6042    1.1161   -8.7970 N   0  3  0  0  0  0  0  0  0  0  0  0
  -15.0284   -2.4997   -8.5261 N   0  3  0  0  0  0  0  0  0  0  0  0
  -10.6404   -3.0464   -6.4181 O   0  0  0  0  0  0  0  0  0  0  0  0
  -13.1303   -4.0745   -7.1037 O   0  0  0  0  0  0  0  0  0  0  0  0
   -9.5866   -0.8692   -8.0513 O   0  0  0  0  0  0  0  0  0  0  0  0
  -12.8231   -4.4838   -5.7996 C   0  0  2  0  0  0  0  0  0  0  0  0
  -13.0641   -5.9902   -5.6552 C   0  0  1  0  0  0  0  0  0  0  0  0
  -14.5592   -6.3031   -5.5902 C   0  0  0  0  0  0  0  0  0  0  0  0
  -15.1935   -5.4584   -4.4970 C   0  0  1  0  0  0  0  0  0  0  0  0
  -14.9502   -3.9894   -4.7965 C   0  0  1  0  0  0  0  0  0  0  0  0
  -15.5670   -3.0914   -3.7394 C   0  0  0  0  0  0  0  0  0  0  0  0
  -12.4595   -6.7062   -6.8237 N   0  3  0  0  0  0  0  0  0  0  0  0
  -17.0231   -2.9131   -4.0724 N   0  3  0  0  0  0  0  0  0  0  0  0
  -16.5889   -5.7139   -4.4223 O   0  0  0  0  0  0  0  0  0  0  0  0
  -13.5350   -3.7370   -4.8187 O   0  0  0  0  0  0  0  0  0  0  0  0
  1  2  1  0  0  0  0
  1 22  1  6  0  0  0
  1 10  1  0  0  0  0
  2  3  1  0  0  0  0
  2  7  1  6  0  0  0
  3  4  1  0  0  0  0
  3  8  1  1  0  0  0
  4  5  1  0  0  0  0
  4  9  1  6  0  0  0
  5  6  1  1  0  0  0
  5 10  1  0  0  0  0
  6 11  1  0  0  0  0
 12 13  1  0  0  0  0
 12 17  1  0  0  0  0
 12 18  1  1  0  0  0
 13 14  1  0  0  0  0
 14 15  1  0  0  0  0
 14 19  1  1  0  0  0
 15 16  1  0  0  0  0
 15 21  1  6  0  0  0
 16 17  1  0  0  0  0
 16 20  1  1  0  0  0
 17 22  1  6  0  0  0
 23 21  1  6  0  0  0
 23 24  1  0  0  0  0
 23 32  1  0  0  0  0
 24 25  1  0  0  0  0
 24 29  1  6  0  0  0
 25 26  1  0  0  0  0
 26 27  1  0  0  0  0
 26 31  1  6  0  0  0
 27 28  1  1  0  0  0
 27 32  1  0  0  0  0
 28 30  1  0  0  0  0
M  CHG  5   8   1  18   1  19   1  29   1  30   1
M  END
>  <CHROM.1>
-106.37295053,176.29380626,-173.37498237,-60.04126290,-162.44423595,71.20368033
175.60832973,90.91151298,-162.67846724,176.12939964,138.38902939,-175.43932591
71.85088350,153.79835092,-82.77461750,173.08182638,-11.22937103,-2.17359615
-7.12413745,-0.59242777,-0.23178196,2.86419859

>  <Name>
2tob cryst

>  <RI>
0

>  <Rbt.Current_Directory>
/home/itssahil/PROJECTS/Mol_Feturizer/New_Systems/rnas/2tob

>  <Rbt.Executable>
rbdock ($Id: //depot/dev/client3/rdock/2013.1/src/exe/rbdock.cxx#4 $)

>  <Rbt.Library>
libRbt.so (2013.1, Build901 2013/11/27)

>  <Rbt.Parameter_File>
/export/apps/rDock/src/rDock_2013.1_src/data/scripts/dock_solv.prm

>  <Rbt.Receptor>
prm/pocket_docking_6.prm

>  <SCORE>
-49.3149

>  <SCORE.INTER>
-32.0454

>  <SCORE.INTER.CONST>
1

>  <SCORE.INTER.POLAR>
-3.79433

>  <SCORE.INTER.ROT>
6

>  <SCORE.INTER.SOLV>
30.9894

>  <SCORE.INTER.VDW>
-26.6456

>  <SCORE.INTER.norm>
-1.00142

>  <SCORE.INTRA>
-17.272

>  <SCORE.INTRA.DIHEDRAL>
4.09493

>  <SCORE.INTRA.DIHEDRAL.0>
18.4221

>  <SCORE.INTRA.POLAR>
0.57748

>  <SCORE.INTRA.POLAR.0>
-1.57101

>  <SCORE.INTRA.REPUL>
-0.730195

>  <SCORE.INTRA.REPUL.0>
0.730195

>  <SCORE.INTRA.SOLV>
-5.69684

>  <SCORE.INTRA.SOLV.lig_0>
-127.221

>  <SCORE.INTRA.VDW>
-14.7835

>  <SCORE.INTRA.VDW.0>
10.8385

>  <SCORE.INTRA.norm>
-0.539749

>  <SCORE.RESTR>
0.00243957

>  <SCORE.RESTR.CAVITY>
0.00243957

>  <SCORE.RESTR.norm>
7.62364e-05

>  <SCORE.SYSTEM>
0

>  <SCORE.SYSTEM.CONST>
0

>  <SCORE.SYSTEM.DIHEDRAL>
0

>  <SCORE.SYSTEM.SOLV>
0

>  <SCORE.SYSTEM.norm>
0

>  <SCORE.heavy>
32

>  <SCORE.norm>
-1.54109

>  <RMSD>
2.875

$$$$
2tob cryst
 OpenBabel11021811463D
libRbt.so/2013.1/901 2013/11/27
 32 34  0  0  0  0  0  0  0  0999 V2000
   -7.9898   -1.5418   -7.2423 C   0  0  2  0  0  0  0  0  0  0  0  0
   -8.2818   -0.2385   -6.5053 C   0  0  1  0  0  0  0  0  0  0  0  0
   -8.1738    0.9241   -7.4924 C   0  0  2  0  0  0  0  0  0  0  0  0
   -6.8080    0.9220   -8.1919 C   0  0  1  0  0  0  0  0  0  0  0  0
   -6.5316   -0.4586   -8.7972 C   0  0  1  0  0  0  0  0  0  0  0  0
   -5.1410   -0.6157   -9.3900 C   0  0  0  0  0  0  0  0  0  0  0  0
   -9.5919   -0.2777   -5.9461 O   0  0  0  0  0  0  0  0  0  0  0  0
   -8.4086    2.3050   -6.9633 N   0  3  0  0  0  0  0  0  0  0  0  0
   -6.8120    1.9079   -9.2167 O   0  0  0  0  0  0  0  0  0  0  0  0
   -6.6859   -1.4768   -7.7883 O   0  0  0  0  0  0  0  0  0  0  0  0
   -4.9510   -1.9338   -9.8945 O   0  0  0  0  0  0  0  0  0  0  0  0
  -11.2309   -1.4055   -8.9676 C   0  0  2  0  0  0  0  0  0  0  0  0
  -12.6980   -1.8327   -8.8248 C   0  0  0  0  0  0  0  0  0  0  0  0
  -12.8412   -3.3331   -8.5844 C   0  0  1  0  0  0  0  0  0  0  0  0
  -12.0429   -3.6996   -7.3409 C   0  0  2  0  0  0  0  0  0  0  0  0
  -10.5574   -3.4268   -7.5900 C   0  0  1  0  0  0  0  0  0  0  0  0
  -10.3195   -1.9282   -7.8460 C   0  0  1  0  0  0  0  0  0  0  0  0
  -11.1197    0.0909   -9.0284 N   0  3  0  0  0  0  0  0  0  0  0  0
  -14.2829   -3.7203   -8.4433 N   0  3  0  0  0  0  0  0  0  0  0  0
   -9.8037   -3.8602   -6.4648 O   0  0  0  0  0  0  0  0  0  0  0  0
  -12.2392   -5.0856   -7.0061 O   0  0  0  0  0  0  0  0  0  0  0  0
   -8.9508   -1.7134   -8.2486 O   0  0  0  0  0  0  0  0  0  0  0  0
  -11.9824   -5.3755   -5.6598 C   0  0  2  0  0  0  0  0  0  0  0  0
  -12.3253   -6.8399   -5.3668 C   0  0  1  0  0  0  0  0  0  0  0  0
  -13.8388   -7.0476   -5.3058 C   0  0  0  0  0  0  0  0  0  0  0  0
  -14.4343   -6.0543   -4.3210 C   0  0  1  0  0  0  0  0  0  0  0  0
  -14.0888   -4.6434   -4.7643 C   0  0  1  0  0  0  0  0  0  0  0  0
  -14.6627   -3.6022   -3.8205 C   0  0  0  0  0  0  0  0  0  0  0  0
  -11.7496   -7.7114   -6.4405 N   0  3  0  0  0  0  0  0  0  0  0  0
  -14.0849   -2.2650   -4.1959 N   0  3  0  0  0  0  0  0  0  0  0  0
  -15.8447   -6.2104   -4.2539 O   0  0  0  0  0  0  0  0  0  0  0  0
  -12.6599   -4.4862   -4.7784 O   0  0  0  0  0  0  0  0  0  0  0  0
  1  2  1  0  0  0  0
  1 22  1  6  0  0  0
  1 10  1  0  0  0  0
  2  3  1  0  0  0  0
  2  7  1  6  0  0  0
  3  4  1  0  0  0  0
  3  8  1  1  0  0  0
  4  5  1  0  0  0  0
  4  9  1  6  0  0  0
  5  6  1  1  0  0  0
  5 10  1  0  0  0  0
  6 11  1  0  0  0  0
 12 13  1  0  0  0  0
 12 17  1  0  0  0  0
 12 18  1  1  0  0  0
 13 14  1  0  0  0  0
 14 15  1  0  0  0  0
 14 19  1  1  0  0  0
 15 16  1  0  0  0  0
 15 21  1  6  0  0  0
 16 17  1  0  0  0  0
 16 20  1  1  0  0  0
 17 22  1  6  0  0  0
 23 21  1  6  0  0  0
 23 24  1  0  0  0  0
 23 32  1  0  0  0  0
 24 25  1  0  0  0  0
 24 29  1  6  0  0  0
 25 26  1  0  0  0  0
 26 27  1  0  0  0  0
 26 31  1  6  0  0  0
 27 28  1  1  0  0  0
 27 32  1  0  0  0  0
 28 30  1  0  0  0  0
M  CHG  5   8   1  18   1  19   1  29   1  30   1
M  END
>  <CHROM.1>
-66.10856485,66.50064716,177.26051368,-179.64924263,178.29382663,171.44732965
-48.82076907,70.50059277,-157.08561487,74.40190506,152.31605792,175.38147988
-169.86796221,-60.30855325,170.58584055,-153.01159435,-10.65347824,-2.62258421
-7.02693259,-0.65731946,-0.40582309,3.10171022

>  <Name>
2tob cryst

>  <RI>
3.75586e+07

>  <Rbt.Current_Directory>
/home/itssahil/PROJECTS/Mol_Feturizer/New_Systems/rnas/2tob

>  <Rbt.Executable>
rbdock ($Id: //depot/dev/client3/rdock/2013.1/src/exe/rbdock.cxx#4 $)

>  <Rbt.Library>
libRbt.so (2013.1, Build901 2013/11/27)

>  <Rbt.Parameter_File>
/export/apps/rDock/src/rDock_2013.1_src/data/scripts/dock_solv.prm

>  <Rbt.Receptor>
prm/pocket_docking_8.prm

>  <SCORE>
-58.4927

>  <SCORE.INTER>
-37.7886

>  <SCORE.INTER.CONST>
1

>  <SCORE.INTER.POLAR>
-4.86091

>  <SCORE.INTER.ROT>
6

>  <SCORE.INTER.SOLV>
26.4752

>  <SCORE.INTER.VDW>
-25.4145

>  <SCORE.INTER.norm>
-1.18089

>  <SCORE.INTRA>
-20.7041

>  <SCORE.INTRA.DIHEDRAL>
-8.25084

>  <SCORE.INTRA.DIHEDRAL.0>
18.4221

>  <SCORE.INTRA.POLAR>
1.18799

>  <SCORE.INTRA.POLAR.0>
-1.57101

>  <SCORE.INTRA.REPUL>
-0.730195

>  <SCORE.INTRA.REPUL.0>
0.730195

>  <SCORE.INTRA.SOLV>
-6.209

>  <SCORE.INTRA.SOLV.lig_0>
-127.221

>  <SCORE.INTRA.VDW>
-13.8624

>  <SCORE.INTRA.VDW.0>
10.8385

>  <SCORE.INTRA.norm>
-0.647003

>  <SCORE.RESTR>
0

>  <SCORE.RESTR.CAVITY>
0

>  <SCORE.RESTR.norm>
0

>  <SCORE.SYSTEM>
0

>  <SCORE.SYSTEM.CONST>
0

>  <SCORE.SYSTEM.DIHEDRAL>
0

>  <SCORE.SYSTEM.SOLV>
0

>  <SCORE.SYSTEM.norm>
0

>  <SCORE.heavy>
32

>  <SCORE.norm>
-1.8279

>  <RMSD>
2.899

$$$$
2tob cryst
 OpenBabel11021811463D
libRbt.so/2013.1/901 2013/11/27
 32 34  0  0  0  0  0  0  0  0999 V2000
   -9.7283    0.1410   -8.3370 C   0  0  2  0  0  0  0  0  0  0  0  0
   -8.3295    0.4400   -8.8673 C   0  0  1  0  0  0  0  0  0  0  0  0
   -7.3894   -0.6918   -8.4518 C   0  0  2  0  0  0  0  0  0  0  0  0
   -7.4241   -0.9009   -6.9321 C   0  0  1  0  0  0  0  0  0  0  0  0
   -8.8725   -1.0664   -6.4590 C   0  0  1  0  0  0  0  0  0  0  0  0
   -9.0345   -1.1351   -4.9493 C   0  0  0  0  0  0  0  0  0  0  0  0
   -8.3594    0.5467  -10.2880 O   0  0  0  0  0  0  0  0  0  0  0  0
   -5.9530   -0.5833   -8.8606 N   0  3  0  0  0  0  0  0  0  0  0  0
   -6.6731   -2.0643   -6.6082 O   0  0  0  0  0  0  0  0  0  0  0  0
   -9.6710    0.0389   -6.9268 O   0  0  0  0  0  0  0  0  0  0  0  0
  -10.0075   -2.1100   -4.5879 O   0  0  0  0  0  0  0  0  0  0  0  0
  -12.5685   -1.3666   -9.0095 C   0  0  2  0  0  0  0  0  0  0  0  0
  -13.7716   -2.2445   -8.6396 C   0  0  0  0  0  0  0  0  0  0  0  0
  -13.4453   -3.7334   -8.7180 C   0  0  1  0  0  0  0  0  0  0  0  0
  -12.2621   -4.0156   -7.8023 C   0  0  2  0  0  0  0  0  0  0  0  0
  -11.0317   -3.2610   -8.3119 C   0  0  1  0  0  0  0  0  0  0  0  0
  -11.2746   -1.7420   -8.2701 C   0  0  1  0  0  0  0  0  0  0  0  0
  -12.8728    0.0818   -8.7546 N   0  3  0  0  0  0  0  0  0  0  0  0
  -14.6358   -4.5656   -8.3463 N   0  3  0  0  0  0  0  0  0  0  0  0
   -9.9056   -3.6021   -7.5134 O   0  0  0  0  0  0  0  0  0  0  0  0
  -11.9880   -5.4276   -7.7534 O   0  0  0  0  0  0  0  0  0  0  0  0
  -10.1801   -1.0552   -8.9121 O   0  0  0  0  0  0  0  0  0  0  0  0
  -11.0623   -5.7817   -6.7632 C   0  0  2  0  0  0  0  0  0  0  0  0
  -11.0118   -7.3062   -6.6173 C   0  0  1  0  0  0  0  0  0  0  0  0
  -12.2526   -7.8297   -5.8935 C   0  0  0  0  0  0  0  0  0  0  0  0
  -12.4127   -7.0787   -4.5816 C   0  0  1  0  0  0  0  0  0  0  0  0
  -12.5280   -5.5917   -4.8683 C   0  0  1  0  0  0  0  0  0  0  0  0
  -12.6963   -4.7856   -3.5931 C   0  0  0  0  0  0  0  0  0  0  0  0
  -10.9293   -7.9346   -7.9745 N   0  3  0  0  0  0  0  0  0  0  0  0
  -12.7249   -3.3281   -3.9643 N   0  3  0  0  0  0  0  0  0  0  0  0
  -13.5689   -7.5310   -3.8913 O   0  0  0  0  0  0  0  0  0  0  0  0
  -11.3297   -5.1393   -5.5212 O   0  0  0  0  0  0  0  0  0  0  0  0
  1  2  1  0  0  0  0
  1 22  1  6  0  0  0
  1 10  1  0  0  0  0
  2  3  1  0  0  0  0
  2  7  1  6  0  0  0
  3  4  1  0  0  0  0
  3  8  1  1  0  0  0
  4  5  1  0  0  0  0
  4  9  1  6  0  0  0
  5  6  1  1  0  0  0
  5 10  1  0  0  0  0
  6 11  1  0  0  0  0
 12 13  1  0  0  0  0
 12 17  1  0  0  0  0
 12 18  1  1  0  0  0
 13 14  1  0  0  0  0
 14 15  1  0  0  0  0
 14 19  1  1  0  0  0
 15 16  1  0  0  0  0
 15 21  1  6  0  0  0
 16 17  1  0  0  0  0
 16 20  1  1  0  0  0
 17 22  1  6  0  0  0
 23 21  1  6  0  0  0
 23 24  1  0  0  0  0
 23 32  1  0  0  0  0
 24 25  1  0  0  0  0
 24 29  1  6  0  0  0
 25 26  1  0  0  0  0
 26 27  1  0  0  0  0
 26 31  1  6  0  0  0
 27 28  1  1  0  0  0
 27 32  1  0  0  0  0
 28 30  1  0  0  0  0
M  CHG  5   8   1  18   1  19   1  29   1  30   1
M  END
>  <CHROM.1>
161.44656806,-56.46249305,-49.37494001,77.19624656,-139.90328143,64.89034144
-20.12296688,-51.32716836,-169.91330456,-40.51774122,97.92636082,170.24598412
51.60008195,-56.77660909,176.90132220,-176.42960927,-10.79811655,-3.14337121
-7.08789539,0.95442647,-0.38310165,-0.65971549

>  <Name>
2tob cryst

>  <RI>
0

>  <Rbt.Current_Directory>
/home/itssahil/PROJECTS/Mol_Feturizer/New_Systems/rnas/2tob

>  <Rbt.Executable>
rbdock ($Id: //depot/dev/client3/rdock/2013.1/src/exe/rbdock.cxx#4 $)

>  <Rbt.Library>
libRbt.so (2013.1, Build901 2013/11/27)

>  <Rbt.Parameter_File>
/export/apps/rDock/src/rDock_2013.1_src/data/scripts/dock_solv.prm

>  <Rbt.Receptor>
prm/pocket_docking_6.prm

>  <SCORE>
-50.5619

>  <SCORE.INTER>
-30.3244

>  <SCORE.INTER.CONST>
1

>  <SCORE.INTER.POLAR>
-4.16681

>  <SCORE.INTER.ROT>
6

>  <SCORE.INTER.SOLV>
27.6119

>  <SCORE.INTER.VDW>
-23.1309

>  <SCORE.INTER.norm>
-0.947638

>  <SCORE.INTRA>
-20.2375

>  <SCORE.INTRA.DIHEDRAL>
-0.0751729

>  <SCORE.INTRA.DIHEDRAL.0>
18.4221

>  <SCORE.INTRA.POLAR>
-0.242474

>  <SCORE.INTRA.POLAR.0>
-1.57101

>  <SCORE.INTRA.REPUL>
-0.730195

>  <SCORE.INTRA.REPUL.0>
0.730195

>  <SCORE.INTRA.SOLV>
-5.2046

>  <SCORE.INTRA.SOLV.lig_0>
-127.221

>  <SCORE.INTRA.VDW>
-13.1222

>  <SCORE.INTRA.VDW.0>
10.8385

>  <SCORE.INTRA.norm>
-0.632421

>  <SCORE.RESTR>
0

>  <SCORE.RESTR.CAVITY>
0

>  <SCORE.RESTR.norm>
0

>  <SCORE.SYSTEM>
0

>  <SCORE.SYSTEM.CONST>
0

>  <SCORE.SYSTEM.DIHEDRAL>
0

>  <SCORE.SYSTEM.SOLV>
0

>  <SCORE.SYSTEM.norm>
0

>  <SCORE.heavy>
32

>  <SCORE.norm>
-1.58006

>  <RMSD>
2.904

$$$$
2tob cryst
 OpenBabel11021811463D
libRbt.so/2013.1/901 2013/11/27
 32 34  0  0  0  0  0  0  0  0999 V2000
   -7.4459    0.3200   -7.8744 C   0  0  2  0  0  0  0  0  0  0  0  0
   -6.4955    1.4242   -8.3267 C   0  0  1  0  0  0  0  0  0  0  0  0
   -5.7820    0.9728   -9.6014 C   0  0  2  0  0  0  0  0  0  0  0  0
   -5.0795   -0.3744   -9.3867 C   0  0  1  0  0  0  0  0  0  0  0  0
   -6.0679   -1.3947   -8.8115 C   0  0  1  0  0  0  0  0  0  0  0  0
   -5.4414   -2.7241   -8.4238 C   0  0  0  0  0  0  0  0  0  0  0  0
   -7.2250    2.6220   -8.5793 O   0  0  0  0  0  0  0  0  0  0  0  0
   -4.7842    1.9118  -10.2052 N   0  3  0  0  0  0  0  0  0  0  0  0
   -4.5765   -0.8374  -10.6336 O   0  0  0  0  0  0  0  0  0  0  0  0
   -6.6981   -0.8567   -7.6319 O   0  0  0  0  0  0  0  0  0  0  0  0
   -6.4265   -3.7506   -8.3644 O   0  0  0  0  0  0  0  0  0  0  0  0
  -10.7102    0.8100   -8.8738 C   0  0  2  0  0  0  0  0  0  0  0  0
  -12.1844    0.3927   -8.7861 C   0  0  0  0  0  0  0  0  0  0  0  0
  -12.4525   -0.9314   -9.4960 C   0  0  1  0  0  0  0  0  0  0  0  0
  -11.5476   -1.9948   -8.8890 C   0  0  2  0  0  0  0  0  0  0  0  0
  -10.0846   -1.6325   -9.1565 C   0  0  1  0  0  0  0  0  0  0  0  0
   -9.7253   -0.3003   -8.4751 C   0  0  1  0  0  0  0  0  0  0  0  0
  -10.4517    2.0197   -8.0222 N   0  3  0  0  0  0  0  0  0  0  0  0
  -13.8976   -1.3165   -9.3893 N   0  3  0  0  0  0  0  0  0  0  0  0
   -9.2455   -2.6744   -8.6746 O   0  0  0  0  0  0  0  0  0  0  0  0
  -11.8442   -3.2878   -9.4472 O   0  0  0  0  0  0  0  0  0  0  0  0
   -8.4027    0.1125   -8.8779 O   0  0  0  0  0  0  0  0  0  0  0  0
  -12.0005   -4.2896   -8.4804 C   0  0  2  0  0  0  0  0  0  0  0  0
  -13.2606   -5.1093   -8.7775 C   0  0  1  0  0  0  0  0  0  0  0  0
  -14.5230   -4.3234   -8.4221 C   0  0  0  0  0  0  0  0  0  0  0  0
  -14.4143   -3.8378   -6.9857 C   0  0  1  0  0  0  0  0  0  0  0  0
  -13.1708   -2.9777   -6.8421 C   0  0  1  0  0  0  0  0  0  0  0  0
  -13.0096   -2.4561   -5.4257 C   0  0  0  0  0  0  0  0  0  0  0  0
  -13.2928   -5.4649  -10.2322 N   0  3  0  0  0  0  0  0  0  0  0  0
  -11.6359   -1.8550   -5.3047 N   0  3  0  0  0  0  0  0  0  0  0  0
  -15.5669   -3.0878   -6.6293 O   0  0  0  0  0  0  0  0  0  0  0  0
  -12.0097   -3.7648   -7.1571 O   0  0  0  0  0  0  0  0  0  0  0  0
  1  2  1  0  0  0  0
  1 22  1  6  0  0  0
  1 10  1  0  0  0  0
  2  3  1  0  0  0  0
  2  7  1  6  0  0  0
  3  4  1  0  0  0  0
  3  8  1  1  0  0  0
  4  5  1  0  0  0  0
  4  9  1  6  0  0  0
  5  6  1  1  0  0  0
  5 10  1  0  0  0  0
  6 11  1  0  0  0  0
 12 13  1  0  0  0  0
 12 17  1  0  0  0  0
 12 18  1  1  0  0  0
 13 14  1  0  0  0  0
 14 15  1  0  0  0  0
 14 19  1  1  0  0  0
 15 16  1  0  0  0  0
 15 21  1  6  0  0  0
 16 17  1  0  0  0  0
 16 20  1  1  0  0  0
 17 22  1  6  0  0  0
 23 21  1  6  0  0  0
 23 24  1  0  0  0  0
 23 32  1  0  0  0  0
 24 25  1  0  0  0  0
 24 29  1  6  0  0  0
 25 26  1  0  0  0  0
 26 27  1  0  0  0  0
 26 31  1  6  0  0  0
 27 28  1  1  0  0  0
 27 32  1  0  0  0  0
 28 30  1  0  0  0  0
M  CHG  5   8   1  18   1  19   1  29   1  30   1
M  END
>  <CHROM.1>
-148.14792039,-47.59224894,89.19004144,-179.24583100,-159.02963978,78.85924657
118.11317522,-178.84399576,-131.45778367,80.88726055,116.25012478,133.13441731
160.61788523,-36.99427601,168.94907218,-37.37196752,-9.96514497,-1.51468662
-8.45406733,0.42496235,0.20033757,0.08804015

>  <Name>
2tob cryst

>  <RI>
0

>  <Rbt.Current_Directory>
/home/itssahil/PROJECTS/Mol_Feturizer/New_Systems/rnas/2tob

>  <Rbt.Executable>
rbdock ($Id: //depot/dev/client3/rdock/2013.1/src/exe/rbdock.cxx#4 $)

>  <Rbt.Library>
libRbt.so (2013.1, Build901 2013/11/27)

>  <Rbt.Parameter_File>
/export/apps/rDock/src/rDock_2013.1_src/data/scripts/dock_solv.prm

>  <Rbt.Receptor>
prm/blind_docking_80.prm

>  <SCORE>
-24.3154

>  <SCORE.INTER>
-26.6811

>  <SCORE.INTER.CONST>
1

>  <SCORE.INTER.POLAR>
-5.65332

>  <SCORE.INTER.ROT>
6

>  <SCORE.INTER.SOLV>
39.6794

>  <SCORE.INTER.VDW>
-19.7695

>  <SCORE.INTER.norm>
-0.833784

>  <SCORE.INTRA>
-2.16261

>  <SCORE.INTRA.DIHEDRAL>
21.2755

>  <SCORE.INTRA.DIHEDRAL.0>
18.4221

>  <SCORE.INTRA.POLAR>
1.28619

>  <SCORE.INTRA.POLAR.0>
-1.57101

>  <SCORE.INTRA.REPUL>
-0.718801

>  <SCORE.INTRA.REPUL.0>
0.730195

>  <SCORE.INTRA.SOLV>
-0.243536

>  <SCORE.INTRA.SOLV.lig_0>
-127.221

>  <SCORE.INTRA.VDW>
-13.4576

>  <SCORE.INTRA.VDW.0>
10.8385

>  <SCORE.INTRA.norm>
-0.0675816

>  <SCORE.RESTR>
4.52825

>  <SCORE.RESTR.CAVITY>
4.52825

>  <SCORE.RESTR.norm>
0.141508

>  <SCORE.SYSTEM>
0

>  <SCORE.SYSTEM.CONST>
0

>  <SCORE.SYSTEM.DIHEDRAL>
0

>  <SCORE.SYSTEM.SOLV>
0

>  <SCORE.SYSTEM.norm>
0

>  <SCORE.heavy>
32

>  <SCORE.norm>
-0.759857

>  <RMSD>
2.975

$$$$
2tob cryst
 OpenBabel11021811463D
libRbt.so/2013.1/901 2013/11/27
 32 34  0  0  0  0  0  0  0  0999 V2000
   -7.2315    0.8948   -8.8389 C   0  0  2  0  0  0  0  0  0  0  0  0
   -6.0440    1.1994   -9.7467 C   0  0  1  0  0  0  0  0  0  0  0  0
   -5.5142   -0.1123  -10.3269 C   0  0  2  0  0  0  0  0  0  0  0  0
   -5.1764   -1.1073   -9.2088 C   0  0  1  0  0  0  0  0  0  0  0  0
   -6.3748   -1.2628   -8.2662 C   0  0  1  0  0  0  0  0  0  0  0  0
   -6.0999   -2.1161   -7.0388 C   0  0  0  0  0  0  0  0  0  0  0  0
   -6.4478    2.0669  -10.8027 O   0  0  0  0  0  0  0  0  0  0  0  0
   -4.3287   -0.0367  -11.2383 N   0  3  0  0  0  0  0  0  0  0  0  0
   -4.8519   -2.3637   -9.7905 O   0  0  0  0  0  0  0  0  0  0  0  0
   -6.8051    0.0322   -7.8013 O   0  0  0  0  0  0  0  0  0  0  0  0
   -7.2806   -2.2780   -6.2593 O   0  0  0  0  0  0  0  0  0  0  0  0
  -10.4727    1.0667   -9.1076 C   0  0  2  0  0  0  0  0  0  0  0  0
  -11.9084    0.6927   -8.7150 C   0  0  0  0  0  0  0  0  0  0  0  0
  -12.3640   -0.6099   -9.3669 C   0  0  1  0  0  0  0  0  0  0  0  0
  -11.3875   -1.7108   -8.9764 C   0  0  2  0  0  0  0  0  0  0  0  0
  -10.0025   -1.3882   -9.5430 C   0  0  1  0  0  0  0  0  0  0  0  0
   -9.4635   -0.0799   -8.9382 C   0  0  1  0  0  0  0  0  0  0  0  0
  -10.0004    2.2526   -8.3165 N   0  3  0  0  0  0  0  0  0  0  0  0
  -13.7662   -0.9530   -8.9615 N   0  3  0  0  0  0  0  0  0  0  0  0
   -9.1158   -2.4635   -9.2607 O   0  0  0  0  0  0  0  0  0  0  0  0
  -11.8380   -2.9841   -9.4736 O   0  0  0  0  0  0  0  0  0  0  0  0
   -8.2425    0.2999   -9.6067 O   0  0  0  0  0  0  0  0  0  0  0  0
  -11.6276   -4.0390   -8.5760 C   0  0  2  0  0  0  0  0  0  0  0  0
  -12.7710   -5.0531   -8.6854 C   0  0  1  0  0  0  0  0  0  0  0  0
  -14.0446   -4.5169   -8.0312 C   0  0  0  0  0  0  0  0  0  0  0  0
  -13.7246   -4.0827   -6.6100 C   0  0  1  0  0  0  0  0  0  0  0  0
  -12.6351   -3.0251   -6.6442 C   0  0  1  0  0  0  0  0  0  0  0  0
  -12.2744   -2.5455   -5.2500 C   0  0  0  0  0  0  0  0  0  0  0  0
  -13.0422   -5.3451  -10.1293 N   0  3  0  0  0  0  0  0  0  0  0  0
  -11.5080   -3.6433   -4.5640 N   0  3  0  0  0  0  0  0  0  0  0  0
  -14.8862   -3.5627   -5.9789 O   0  0  0  0  0  0  0  0  0  0  0  0
  -11.4509   -3.5820   -7.2394 O   0  0  0  0  0  0  0  0  0  0  0  0
  1  2  1  0  0  0  0
  1 22  1  6  0  0  0
  1 10  1  0  0  0  0
  2  3  1  0  0  0  0
  2  7  1  6  0  0  0
  3  4  1  0  0  0  0
  3  8  1  1  0  0  0
  4  5  1  0  0  0  0
  4  9  1  6  0  0  0
  5  6  1  1  0  0  0
  5 10  1  0  0  0  0
  6 11  1  0  0  0  0
 12 13  1  0  0  0  0
 12 17  1  0  0  0  0
 12 18  1  1  0  0  0
 13 14  1  0  0  0  0
 14 15  1  0  0  0  0
 14 19  1  1  0  0  0
 15 16  1  0  0  0  0
 15 21  1  6  0  0  0
 16 17  1  0  0  0  0
 16 20  1  1  0  0  0
 17 22  1  6  0  0  0
 23 21  1  6  0  0  0
 23 24  1  0  0  0  0
 23 32  1  0  0  0  0
 24 25  1  0  0  0  0
 24 29  1  6  0  0  0
 25 26  1  0  0  0  0
 26 27  1  0  0  0  0
 26 31  1  6  0  0  0
 27 28  1  1  0  0  0
 27 32  1  0  0  0  0
 28 30  1  0  0  0  0
M  CHG  5   8   1  18   1  19   1  29   1  30   1
M  END
>  <CHROM.1>
179.63979771,176.40106862,163.99197596,165.86016211,-176.47032665,-69.63178452
-118.14737482,-175.37329164,-140.77842276,-56.85532455,94.98395238,145.19655428
45.21526149,-61.24997961,72.38501297,58.42094435,-9.75443739,-1.58116240
-8.47182005,0.52215376,0.05035087,-0.44502718

>  <Name>
2tob cryst

>  <RI>
3.35201e+07

>  <Rbt.Current_Directory>
/home/itssahil/PROJECTS/Mol_Feturizer/New_Systems/rnas/2tob

>  <Rbt.Executable>
rbdock ($Id: //depot/dev/client3/rdock/2013.1/src/exe/rbdock.cxx#4 $)

>  <Rbt.Library>
libRbt.so (2013.1, Build901 2013/11/27)

>  <Rbt.Parameter_File>
/export/apps/rDock/src/rDock_2013.1_src/data/scripts/dock_solv.prm

>  <Rbt.Receptor>
prm/pocket_docking_4.prm

>  <SCORE>
-22.7405

>  <SCORE.INTER>
-9.18088

>  <SCORE.INTER.CONST>
1

>  <SCORE.INTER.POLAR>
-6.57991

>  <SCORE.INTER.ROT>
6

>  <SCORE.INTER.SOLV>
37.5722

>  <SCORE.INTER.VDW>
-4.31163

>  <SCORE.INTER.norm>
-0.286903

>  <SCORE.INTRA>
-13.8287

>  <SCORE.INTRA.DIHEDRAL>
2.71594

>  <SCORE.INTRA.DIHEDRAL.0>
18.4221

>  <SCORE.INTRA.POLAR>
1.4654

>  <SCORE.INTRA.POLAR.0>
-1.57101

>  <SCORE.INTRA.REPUL>
-0.730195

>  <SCORE.INTRA.REPUL.0>
0.730195

>  <SCORE.INTRA.SOLV>
-4.46347

>  <SCORE.INTRA.SOLV.lig_0>
-127.221

>  <SCORE.INTRA.VDW>
-14.2863

>  <SCORE.INTRA.VDW.0>
10.8385

>  <SCORE.INTRA.norm>
-0.432146

>  <SCORE.RESTR>
0.26905

>  <SCORE.RESTR.CAVITY>
0.26905

>  <SCORE.RESTR.norm>
0.00840781

>  <SCORE.SYSTEM>
0

>  <SCORE.SYSTEM.CONST>
0

>  <SCORE.SYSTEM.DIHEDRAL>
0

>  <SCORE.SYSTEM.SOLV>
0

>  <SCORE.SYSTEM.norm>
0

>  <SCORE.heavy>
32

>  <SCORE.norm>
-0.710641

>  <RMSD>
3.040

$$$$
2tob cryst
 OpenBabel11021811463D
libRbt.so/2013.1/901 2013/11/27
 32 34  0  0  0  0  0  0  0  0999 V2000
   -8.5557    0.4494   -6.5993 C   0  0  2  0  0  0  0  0  0  0  0  0
   -8.5744    1.6971   -7.4767 C   0  0  1  0  0  0  0  0  0  0  0  0
   -8.7584    1.2752   -8.9347 C   0  0  2  0  0  0  0  0  0  0  0  0
   -7.6821    0.2637   -9.3508 C   0  0  1  0  0  0  0  0  0  0  0  0
   -7.6384   -0.8962   -8.3501 C   0  0  1  0  0  0  0  0  0  0  0  0
   -6.5082   -1.8847   -8.5857 C   0  0  0  0  0  0  0  0  0  0  0  0
   -9.6428    2.5540   -7.0828 O   0  0  0  0  0  0  0  0  0  0  0  0
   -8.7866    2.3569   -9.9696 N   0  3  0  0  0  0  0  0  0  0  0  0
   -7.9879   -0.2286  -10.6494 O   0  0  0  0  0  0  0  0  0  0  0  0
   -7.4886   -0.3838   -7.0109 O   0  0  0  0  0  0  0  0  0  0  0  0
   -5.7995   -2.1417   -7.3777 O   0  0  0  0  0  0  0  0  0  0  0  0
  -10.0421   -1.3888   -4.6411 C   0  0  2  0  0  0  0  0  0  0  0  0
  -10.4790   -2.6785   -3.9333 C   0  0  0  0  0  0  0  0  0  0  0  0
  -11.7055   -3.3086   -4.5874 C   0  0  1  0  0  0  0  0  0  0  0  0
  -11.3876   -3.5716   -6.0529 C   0  0  2  0  0  0  0  0  0  0  0  0
  -11.1346   -2.2412   -6.7665 C   0  0  1  0  0  0  0  0  0  0  0  0
   -9.9087   -1.5312   -6.1655 C   0  0  1  0  0  0  0  0  0  0  0  0
   -8.7390   -0.8943   -4.0819 N   0  3  0  0  0  0  0  0  0  0  0  0
  -12.1056   -4.5683   -3.8795 N   0  3  0  0  0  0  0  0  0  0  0  0
  -10.9340   -2.4812   -8.1536 O   0  0  0  0  0  0  0  0  0  0  0  0
  -12.4741   -4.2710   -6.6869 O   0  0  0  0  0  0  0  0  0  0  0  0
   -9.7876   -0.2076   -6.7270 O   0  0  0  0  0  0  0  0  0  0  0  0
  -12.0672   -5.0833   -7.7533 C   0  0  2  0  0  0  0  0  0  0  0  0
  -13.2808   -5.7971   -8.3581 C   0  0  1  0  0  0  0  0  0  0  0  0
  -13.7615   -6.9283   -7.4488 C   0  0  0  0  0  0  0  0  0  0  0  0
  -12.5880   -7.8421   -7.1349 C   0  0  1  0  0  0  0  0  0  0  0  0
  -11.4875   -7.0320   -6.4721 C   0  0  1  0  0  0  0  0  0  0  0  0
  -10.2860   -7.8935   -6.1279 C   0  0  0  0  0  0  0  0  0  0  0  0
  -14.3928   -4.8125   -8.5523 N   0  3  0  0  0  0  0  0  0  0  0  0
   -9.5948   -7.2759   -4.9431 N   0  3  0  0  0  0  0  0  0  0  0  0
  -12.9989   -8.8965   -6.2761 O   0  0  0  0  0  0  0  0  0  0  0  0
  -11.0479   -6.0015   -7.3730 O   0  0  0  0  0  0  0  0  0  0  0  0
  1  2  1  0  0  0  0
  1 22  1  6  0  0  0
  1 10  1  0  0  0  0
  2  3  1  0  0  0  0
  2  7  1  1  0  0  0
  3  4  1  0  0  0  0
  3  8  1  6  0  0  0
  4  5  1  0  0  0  0
  4  9  1  6  0  0  0
  5  6  1  6  0  0  0
  5 10  1  0  0  0  0
  6 11  1  0  0  0  0
 12 13  1  0  0  0  0
 12 17  1  0  0  0  0
 12 18  1  1  0  0  0
 13 14  1  0  0  0  0
 14 15  1  0  0  0  0
 14 19  1  1  0  0  0
 15 16  1  0  0  0  0
 15 21  1  6  0  0  0
 16 17  1  0  0  0  0
 16 20  1  6  0  0  0
 17 22  1  6  0  0  0
 23 21  1  1  0  0  0
 23 24  1  0  0  0  0
 23 32  1  0  0  0  0
 24 25  1  0  0  0  0
 24 29  1  1  0  0  0
 25 26  1  0  0  0  0
 26 27  1  0  0  0  0
 26 31  1  1  0  0  0
 27 28  1  6  0  0  0
 27 32  1  0  0  0  0
 28 30  1  0  0  0  0
M  CHG  5   8   1  18   1  19   1  29   1  30   1
M  END
>  <CHROM.1>
169.55272198,-57.20316098,-52.09687953,-52.29669527,130.95017974,-172.96003243
-32.59083711,-147.90426259,-151.36201545,72.00537813,76.10700365,179.46206085
88.05488485,172.30927759,-152.15607824,29.21724031,-10.22747644,-2.86009033
-6.98844594,-0.59862380,0.96044006,2.05601537

>  <Name>
2tob cryst

>  <RI>
2.10184e+07

>  <Rbt.Current_Directory>
/home/itssahil/PROJECTS/Mol_Feturizer/New_Systems/rnas/2tob

>  <Rbt.Executable>
rbdock ($Id: //depot/dev/client3/rdock/2013.1/src/exe/rbdock.cxx#4 $)

>  <Rbt.Library>
libRbt.so (2013.1, Build901 2013/11/27)

>  <Rbt.Parameter_File>
/export/apps/rDock/src/rDock_2013.1_src/data/scripts/dock_solv.prm

>  <Rbt.Receptor>
prm/pocket_docking_7.prm

>  <SCORE>
-51.4135

>  <SCORE.INTER>
-37.7288

>  <SCORE.INTER.CONST>
1

>  <SCORE.INTER.POLAR>
-6.25485

>  <SCORE.INTER.ROT>
6

>  <SCORE.INTER.SOLV>
28.7739

>  <SCORE.INTER.VDW>
-21.4943

>  <SCORE.INTER.norm>
-1.17902

>  <SCORE.INTRA>
-13.707

>  <SCORE.INTRA.DIHEDRAL>
2.74371

>  <SCORE.INTRA.DIHEDRAL.0>
18.4221

>  <SCORE.INTRA.POLAR>
1.27972

>  <SCORE.INTRA.POLAR.0>
-1.57101

>  <SCORE.INTRA.REPUL>
-0.702535

>  <SCORE.INTRA.REPUL.0>
0.730195

>  <SCORE.INTRA.SOLV>
-5.6492

>  <SCORE.INTRA.SOLV.lig_0>
-127.221

>  <SCORE.INTRA.VDW>
-13.0926

>  <SCORE.INTRA.VDW.0>
10.8385

>  <SCORE.INTRA.norm>
-0.428345

>  <SCORE.RESTR>
0.0223209

>  <SCORE.RESTR.CAVITY>
0.0223209

>  <SCORE.RESTR.norm>
0.000697529

>  <SCORE.SYSTEM>
0

>  <SCORE.SYSTEM.CONST>
0

>  <SCORE.SYSTEM.DIHEDRAL>
0

>  <SCORE.SYSTEM.SOLV>
0

>  <SCORE.SYSTEM.norm>
0

>  <SCORE.heavy>
32

>  <SCORE.norm>
-1.60667

>  <RMSD>
3.069

$$$$
2tob cryst
 OpenBabel11021811463D
libRbt.so/2013.1/901 2013/11/27
 32 34  0  0  0  0  0  0  0  0999 V2000
   -8.0838    0.6025   -6.5696 C   0  0  2  0  0  0  0  0  0  0  0  0
   -7.7136    1.8443   -7.3745 C   0  0  1  0  0  0  0  0  0  0  0  0
   -7.6485    1.4735   -8.8563 C   0  0  2  0  0  0  0  0  0  0  0  0
   -6.6860    0.3004   -9.0843 C   0  0  1  0  0  0  0  0  0  0  0  0
   -7.0442   -0.8603   -8.1497 C   0  0  1  0  0  0  0  0  0  0  0  0
   -6.0644   -2.0216   -8.1890 C   0  0  0  0  0  0  0  0  0  0  0  0
   -8.6887    2.8639   -7.1737 O   0  0  0  0  0  0  0  0  0  0  0  0
   -7.2807    2.5547   -9.8245 N   0  3  0  0  0  0  0  0  0  0  0  0
   -6.7835   -0.1211  -10.4389 O   0  0  0  0  0  0  0  0  0  0  0  0
   -7.1022   -0.3934   -6.7870 O   0  0  0  0  0  0  0  0  0  0  0  0
   -5.0741   -1.8156   -9.1913 O   0  0  0  0  0  0  0  0  0  0  0  0
  -10.0059   -1.0127   -4.9807 C   0  0  2  0  0  0  0  0  0  0  0  0
  -10.7727   -2.1938   -4.3705 C   0  0  0  0  0  0  0  0  0  0  0  0
  -12.0648   -2.4945   -5.1251 C   0  0  1  0  0  0  0  0  0  0  0  0
  -11.7191   -2.7635   -6.5832 C   0  0  2  0  0  0  0  0  0  0  0  0
  -11.1212   -1.4999   -7.2069 C   0  0  1  0  0  0  0  0  0  0  0  0
   -9.8079   -1.1193   -6.5010 C   0  0  1  0  0  0  0  0  0  0  0  0
   -8.6642   -0.8577   -4.3241 N   0  3  0  0  0  0  0  0  0  0  0  0
  -12.7890   -3.6550   -4.5111 N   0  3  0  0  0  0  0  0  0  0  0  0
  -10.8894   -1.7225   -8.5921 O   0  0  0  0  0  0  0  0  0  0  0  0
  -12.8925   -3.1648   -7.3138 O   0  0  0  0  0  0  0  0  0  0  0  0
   -9.3498    0.1621   -6.9807 O   0  0  0  0  0  0  0  0  0  0  0  0
  -12.6025   -3.8133   -8.5213 C   0  0  2  0  0  0  0  0  0  0  0  0
  -13.6766   -4.8644   -8.8201 C   0  0  1  0  0  0  0  0  0  0  0  0
  -13.5121   -6.0886   -7.9190 C   0  0  0  0  0  0  0  0  0  0  0  0
  -12.0849   -6.5991   -8.0351 C   0  0  1  0  0  0  0  0  0  0  0  0
  -11.1245   -5.4908   -7.6401 C   0  0  1  0  0  0  0  0  0  0  0  0
   -9.6782   -5.9428   -7.7303 C   0  0  0  0  0  0  0  0  0  0  0  0
  -15.0329   -4.2679   -8.6007 N   0  3  0  0  0  0  0  0  0  0  0  0
   -8.8260   -4.7286   -7.9805 N   0  3  0  0  0  0  0  0  0  0  0  0
  -11.8945   -7.7287   -7.1951 O   0  0  0  0  0  0  0  0  0  0  0  0
  -11.2944   -4.3750   -8.5306 O   0  0  0  0  0  0  0  0  0  0  0  0
  1  2  1  0  0  0  0
  1 22  1  6  0  0  0
  1 10  1  0  0  0  0
  2  3  1  0  0  0  0
  2  7  1  6  0  0  0
  3  4  1  0  0  0  0
  3  8  1  6  0  0  0
  4  5  1  0  0  0  0
  4  9  1  6  0  0  0
  5  6  1  1  0  0  0
  5 10  1  0  0  0  0
  6 11  1  0  0  0  0
 12 13  1  0  0  0  0
 12 17  1  0  0  0  0
 12 18  1  1  0  0  0
 13 14  1  0  0  0  0
 14 15  1  0  0  0  0
 14 19  1  1  0  0  0
 15 16  1  0  0  0  0
 15 21  1  6  0  0  0
 16 17  1  0  0  0  0
 16 20  1  6  0  0  0
 17 22  1  6  0  0  0
 23 21  1  1  0  0  0
 23 24  1  0  0  0  0
 23 32  1  0  0  0  0
 24 25  1  0  0  0  0
 24 29  1  1  0  0  0
 25 26  1  0  0  0  0
 26 27  1  0  0  0  0
 26 31  1  1  0  0  0
 27 28  1  6  0  0  0
 27 32  1  0  0  0  0
 28 30  1  0  0  0  0
M  CHG  5   8   1  18   1  19   1  29   1  30   1
M  END
>  <CHROM.1>
170.45641820,49.85600354,-171.75258410,-48.80590834,-5.10081479,161.61749472
111.22602858,70.60446651,-161.49517021,179.22121823,66.15604108,147.34360624
-159.07632700,63.77719988,153.33107044,62.28317333,-9.91439618,-2.16975344
-7.49196740,0.64827113,0.57002328,0.49918520

>  <Name>
2tob cryst

>  <RI>
2.04895e+07

>  <Rbt.Current_Directory>
/home/itssahil/PROJECTS/Mol_Feturizer/New_Systems/rnas/2tob

>  <Rbt.Executable>
rbdock ($Id: //depot/dev/client3/rdock/2013.1/src/exe/rbdock.cxx#4 $)

>  <Rbt.Library>
libRbt.so (2013.1, Build901 2013/11/27)

>  <Rbt.Parameter_File>
/export/apps/rDock/src/rDock_2013.1_src/data/scripts/dock_solv.prm

>  <Rbt.Receptor>
prm/blind_docking_20.prm

>  <SCORE>
-44.3773

>  <SCORE.INTER>
-38.222

>  <SCORE.INTER.CONST>
1

>  <SCORE.INTER.POLAR>
-5.61739

>  <SCORE.INTER.ROT>
6

>  <SCORE.INTER.SOLV>
35.3204

>  <SCORE.INTER.VDW>
-26.1302

>  <SCORE.INTER.norm>
-1.19444

>  <SCORE.INTRA>
-12.8566

>  <SCORE.INTRA.DIHEDRAL>
2.78772

>  <SCORE.INTRA.DIHEDRAL.0>
18.4221

>  <SCORE.INTRA.POLAR>
0.449266

>  <SCORE.INTRA.POLAR.0>
-1.57101

>  <SCORE.INTRA.REPUL>
-0.730195

>  <SCORE.INTRA.REPUL.0>
0.730195

>  <SCORE.INTRA.SOLV>
-3.25512

>  <SCORE.INTRA.SOLV.lig_0>
-127.221

>  <SCORE.INTRA.VDW>
-10.4995

>  <SCORE.INTRA.VDW.0>
10.8385

>  <SCORE.INTRA.norm>
-0.40177

>  <SCORE.RESTR>
6.70136

>  <SCORE.RESTR.CAVITY>
6.70136

>  <SCORE.RESTR.norm>
0.209418

>  <SCORE.SYSTEM>
0

>  <SCORE.SYSTEM.CONST>
0

>  <SCORE.SYSTEM.DIHEDRAL>
0

>  <SCORE.SYSTEM.SOLV>
0

>  <SCORE.SYSTEM.norm>
0

>  <SCORE.heavy>
32

>  <SCORE.norm>
-1.38679

>  <RMSD>
3.127

$$$$
2tob cryst
 OpenBabel11021811463D
libRbt.so/2013.1/901 2013/11/27
 32 34  0  0  0  0  0  0  0  0999 V2000
   -7.4657    1.0434   -8.2661 C   0  0  2  0  0  0  0  0  0  0  0  0
   -6.7225    2.1630   -8.9880 C   0  0  1  0  0  0  0  0  0  0  0  0
   -6.0811    1.5960  -10.2547 C   0  0  2  0  0  0  0  0  0  0  0  0
   -5.1845    0.3957   -9.9230 C   0  0  1  0  0  0  0  0  0  0  0  0
   -5.9647   -0.6262   -9.0887 C   0  0  1  0  0  0  0  0  0  0  0  0
   -5.1287   -1.7896   -8.5810 C   0  0  0  0  0  0  0  0  0  0  0  0
   -7.6291    3.2076   -9.3311 O   0  0  0  0  0  0  0  0  0  0  0  0
   -5.2834    2.5346  -11.1059 N   0  3  0  0  0  0  0  0  0  0  0  0
   -4.7463   -0.2032  -11.1361 O   0  0  0  0  0  0  0  0  0  0  0  0
   -6.5451    0.0200   -7.9381 O   0  0  0  0  0  0  0  0  0  0  0  0
   -4.7345   -2.6372   -9.6551 O   0  0  0  0  0  0  0  0  0  0  0  0
  -10.8078   -0.0334   -9.2806 C   0  0  2  0  0  0  0  0  0  0  0  0
  -11.9007   -1.0693   -8.9847 C   0  0  0  0  0  0  0  0  0  0  0  0
  -11.3924   -2.5013   -9.1275 C   0  0  1  0  0  0  0  0  0  0  0  0
  -10.2012   -2.6841   -8.1971 C   0  0  2  0  0  0  0  0  0  0  0  0
   -9.0633   -1.7599   -8.6379 C   0  0  1  0  0  0  0  0  0  0  0  0
   -9.4919   -0.2861   -8.5280 C   0  0  1  0  0  0  0  0  0  0  0  0
  -11.2927    1.3520   -8.9630 N   0  3  0  0  0  0  0  0  0  0  0  0
  -12.4784   -3.4904   -8.8273 N   0  3  0  0  0  0  0  0  0  0  0  0
   -7.9194   -2.0021   -7.8288 O   0  0  0  0  0  0  0  0  0  0  0  0
   -9.7565   -4.0529   -8.2104 O   0  0  0  0  0  0  0  0  0  0  0  0
   -8.4781    0.5612   -9.1077 O   0  0  0  0  0  0  0  0  0  0  0  0
   -9.3410   -4.5162   -6.9553 C   0  0  2  0  0  0  0  0  0  0  0  0
  -10.5297   -5.1248   -6.2040 C   0  0  1  0  0  0  0  0  0  0  0  0
  -11.4687   -4.0346   -5.6872 C   0  0  0  0  0  0  0  0  0  0  0  0
  -10.6625   -3.0311   -4.8786 C   0  0  1  0  0  0  0  0  0  0  0  0
   -9.5689   -2.4465   -5.7555 C   0  0  1  0  0  0  0  0  0  0  0  0
   -8.7299   -1.4294   -5.0034 C   0  0  0  0  0  0  0  0  0  0  0  0
  -11.2867   -6.0348   -7.1219 N   0  3  0  0  0  0  0  0  0  0  0  0
   -9.4994   -0.1378   -4.9525 N   0  3  0  0  0  0  0  0  0  0  0  0
  -11.5052   -1.9936   -4.3972 O   0  0  0  0  0  0  0  0  0  0  0  0
   -8.6959   -3.5016   -6.1930 O   0  0  0  0  0  0  0  0  0  0  0  0
  1  2  1  0  0  0  0
  1 22  1  6  0  0  0
  1 10  1  0  0  0  0
  2  3  1  0  0  0  0
  2  7  1  6  0  0  0
  3  4  1  0  0  0  0
  3  8  1  1  0  0  0
  4  5  1  0  0  0  0
  4  9  1  6  0  0  0
  5  6  1  1  0  0  0
  5 10  1  0  0  0  0
  6 11  1  0  0  0  0
 12 13  1  0  0  0  0
 12 17  1  0  0  0  0
 12 18  1  1  0  0  0
 13 14  1  0  0  0  0
 14 15  1  0  0  0  0
 14 19  1  1  0  0  0
 15 16  1  0  0  0  0
 15 21  1  6  0  0  0
 16 17  1  0  0  0  0
 16 20  1  1  0  0  0
 17 22  1  6  0  0  0
 23 21  1  6  0  0  0
 23 24  1  0  0  0  0
 23 32  1  0  0  0  0
 24 25  1  0  0  0  0
 24 29  1  6  0  0  0
 25 26  1  0  0  0  0
 26 27  1  0  0  0  0
 26 31  1  6  0  0  0
 27 28  1  1  0  0  0
 27 32  1  0  0  0  0
 28 30  1  0  0  0  0
M  CHG  5   8   1  18   1  19   1  29   1  30   1
M  END
>  <CHROM.1>
-166.38271466,40.16522438,81.16018974,65.06845370,-69.27106750,57.24145382
-69.11473340,-78.63308956,-142.29988090,-115.81439713,147.80742364,89.87043725
-157.28897283,64.07228529,-78.78963521,-178.16209004,-8.72702917,-1.30654033
-8.04720037,0.80754534,0.34366801,-0.31012021

>  <Name>
2tob cryst

>  <RI>
0

>  <Rbt.Current_Directory>
/home/itssahil/PROJECTS/Mol_Feturizer/New_Systems/rnas/2tob

>  <Rbt.Executable>
rbdock ($Id: //depot/dev/client3/rdock/2013.1/src/exe/rbdock.cxx#4 $)

>  <Rbt.Library>
libRbt.so (2013.1, Build901 2013/11/27)

>  <Rbt.Parameter_File>
/export/apps/rDock/src/rDock_2013.1_src/data/scripts/dock_solv.prm

>  <Rbt.Receptor>
prm/blind_docking_80.prm

>  <SCORE>
-27.1215

>  <SCORE.INTER>
-29.3212

>  <SCORE.INTER.CONST>
1

>  <SCORE.INTER.POLAR>
-3.3424

>  <SCORE.INTER.ROT>
6

>  <SCORE.INTER.SOLV>
37.3611

>  <SCORE.INTER.VDW>
-28.4599

>  <SCORE.INTER.norm>
-0.916289

>  <SCORE.INTRA>
-3.90576

>  <SCORE.INTRA.DIHEDRAL>
8.8672

>  <SCORE.INTRA.DIHEDRAL.0>
18.4221

>  <SCORE.INTRA.POLAR>
-0.0820215

>  <SCORE.INTRA.POLAR.0>
-1.57101

>  <SCORE.INTRA.REPUL>
-0.730195

>  <SCORE.INTRA.REPUL.0>
0.730195

>  <SCORE.INTRA.SOLV>
2.35589

>  <SCORE.INTRA.SOLV.lig_0>
-127.221

>  <SCORE.INTRA.VDW>
-5.58745

>  <SCORE.INTRA.VDW.0>
10.8385

>  <SCORE.INTRA.norm>
-0.122055

>  <SCORE.RESTR>
6.10549

>  <SCORE.RESTR.CAVITY>
6.10549

>  <SCORE.RESTR.norm>
0.190797

>  <SCORE.SYSTEM>
0

>  <SCORE.SYSTEM.CONST>
0

>  <SCORE.SYSTEM.DIHEDRAL>
0

>  <SCORE.SYSTEM.SOLV>
0

>  <SCORE.SYSTEM.norm>
0

>  <SCORE.heavy>
32

>  <SCORE.norm>
-0.847547

>  <RMSD>
3.142

$$$$
2tob cryst
 OpenBabel11021811463D
libRbt.so/2013.1/901 2013/11/27
 32 34  0  0  0  0  0  0  0  0999 V2000
   -5.7446    1.0916   -8.9297 C   0  0  2  0  0  0  0  0  0  0  0  0
   -4.8988    2.1736   -9.5937 C   0  0  1  0  0  0  0  0  0  0  0  0
   -4.5078    1.7063  -10.9960 C   0  0  2  0  0  0  0  0  0  0  0  0
   -3.8055    0.3431  -10.9417 C   0  0  1  0  0  0  0  0  0  0  0  0
   -4.6582   -0.6543  -10.1498 C   0  0  1  0  0  0  0  0  0  0  0  0
   -3.9896   -1.9980   -9.9097 C   0  0  0  0  0  0  0  0  0  0  0  0
   -5.6395    3.3881   -9.6779 O   0  0  0  0  0  0  0  0  0  0  0  0
   -3.6545    2.6221  -11.8176 N   0  3  0  0  0  0  0  0  0  0  0  0
   -3.6132   -0.1311  -12.2685 O   0  0  0  0  0  0  0  0  0  0  0  0
   -4.9881   -0.1022   -8.8596 O   0  0  0  0  0  0  0  0  0  0  0  0
   -4.8896   -2.9074   -9.2847 O   0  0  0  0  0  0  0  0  0  0  0  0
   -9.1939    1.6558   -9.8802 C   0  0  2  0  0  0  0  0  0  0  0  0
  -10.6487    1.4951   -9.4187 C   0  0  0  0  0  0  0  0  0  0  0  0
  -11.0145    0.0359   -9.1612 C   0  0  1  0  0  0  0  0  0  0  0  0
  -10.0490   -0.5270   -8.1273 C   0  0  2  0  0  0  0  0  0  0  0  0
   -8.6284   -0.5163   -8.6973 C   0  0  1  0  0  0  0  0  0  0  0  0
   -8.1756    0.9247   -8.9911 C   0  0  1  0  0  0  0  0  0  0  0  0
   -8.8207    3.1085   -9.9556 N   0  3  0  0  0  0  0  0  0  0  0  0
  -12.4378   -0.0900   -8.7067 N   0  3  0  0  0  0  0  0  0  0  0  0
   -7.7437   -1.1312   -7.7693 O   0  0  0  0  0  0  0  0  0  0  0  0
  -10.4238   -1.8686   -7.7652 O   0  0  0  0  0  0  0  0  0  0  0  0
   -6.9110    0.9067   -9.6854 O   0  0  0  0  0  0  0  0  0  0  0  0
  -11.1762   -1.9379   -6.5855 C   0  0  2  0  0  0  0  0  0  0  0  0
  -10.5747   -2.9865   -5.6439 C   0  0  1  0  0  0  0  0  0  0  0  0
  -10.8816   -4.4026   -6.1318 C   0  0  0  0  0  0  0  0  0  0  0  0
  -12.3806   -4.5373   -6.3455 C   0  0  1  0  0  0  0  0  0  0  0  0
  -12.8370   -3.4962   -7.3528 C   0  0  1  0  0  0  0  0  0  0  0  0
  -14.3297   -3.5841   -7.6136 C   0  0  0  0  0  0  0  0  0  0  0  0
   -9.0903   -2.7993   -5.5720 N   0  3  0  0  0  0  0  0  0  0  0  0
  -14.7128   -2.4414   -8.5139 N   0  3  0  0  0  0  0  0  0  0  0  0
  -12.6974   -5.8396   -6.8162 O   0  0  0  0  0  0  0  0  0  0  0  0
  -12.5553   -2.1831   -6.8396 O   0  0  0  0  0  0  0  0  0  0  0  0
  1  2  1  0  0  0  0
  1 22  1  6  0  0  0
  1 10  1  0  0  0  0
  2  3  1  0  0  0  0
  2  7  1  6  0  0  0
  3  4  1  0  0  0  0
  3  8  1  1  0  0  0
  4  5  1  0  0  0  0
  4  9  1  6  0  0  0
  5  6  1  1  0  0  0
  5 10  1  0  0  0  0
  6 11  1  0  0  0  0
 12 13  1  0  0  0  0
 12 17  1  0  0  0  0
 12 18  1  1  0  0  0
 13 14  1  0  0  0  0
 14 15  1  0  0  0  0
 14 19  1  1  0  0  0
 15 16  1  0  0  0  0
 15 21  1  6  0  0  0
 16 17  1  0  0  0  0
 16 20  1  1  0  0  0
 17 22  1  6  0  0  0
 23 21  1  6  0  0  0
 23 24  1  0  0  0  0
 23 32  1  0  0  0  0
 24 25  1  0  0  0  0
 24 29  1  6  0  0  0
 25 26  1  0  0  0  0
 26 27  1  0  0  0  0
 26 31  1  6  0  0  0
 27 28  1  1  0  0  0
 27 32  1  0  0  0  0
 28 30  1  0  0  0  0
M  CHG  5   8   1  18   1  19   1  29   1  30   1
M  END
>  <CHROM.1>
-129.87937380,-6.02063274,61.75696143,-169.90557083,-174.37305103,-116.24443206
-165.55274915,-179.54085486,-97.36997110,-76.05201481,141.29517469,-130.02575218
-153.21263155,64.27944495,174.66824065,64.99993653,-8.60355978,-0.76884220
-8.69979715,-0.58770357,-0.18348523,2.73927769

>  <Name>
2tob cryst

>  <RI>
2.04895e+07

>  <Rbt.Current_Directory>
/home/itssahil/PROJECTS/Mol_Feturizer/New_Systems/rnas/2tob

>  <Rbt.Executable>
rbdock ($Id: //depot/dev/client3/rdock/2013.1/src/exe/rbdock.cxx#4 $)

>  <Rbt.Library>
libRbt.so (2013.1, Build901 2013/11/27)

>  <Rbt.Parameter_File>
/export/apps/rDock/src/rDock_2013.1_src/data/scripts/dock_solv.prm

>  <Rbt.Receptor>
prm/blind_docking_20.prm

>  <SCORE>
-2.5061

>  <SCORE.INTER>
-0.557521

>  <SCORE.INTER.CONST>
1

>  <SCORE.INTER.POLAR>
-5.55808

>  <SCORE.INTER.ROT>
6

>  <SCORE.INTER.SOLV>
36.4703

>  <SCORE.INTER.VDW>
-1.60153

>  <SCORE.INTER.norm>
-0.0174225

>  <SCORE.INTRA>
-5.83914

>  <SCORE.INTRA.DIHEDRAL>
23.4134

>  <SCORE.INTRA.DIHEDRAL.0>
18.4221

>  <SCORE.INTRA.POLAR>
-0.0202452

>  <SCORE.INTRA.POLAR.0>
-1.57101

>  <SCORE.INTRA.REPUL>
-0.730195

>  <SCORE.INTRA.REPUL.0>
0.730195

>  <SCORE.INTRA.SOLV>
0.813498

>  <SCORE.INTRA.SOLV.lig_0>
-127.221

>  <SCORE.INTRA.VDW>
-14.2328

>  <SCORE.INTRA.VDW.0>
10.8385

>  <SCORE.INTRA.norm>
-0.182473

>  <SCORE.RESTR>
3.89056

>  <SCORE.RESTR.CAVITY>
3.89056

>  <SCORE.RESTR.norm>
0.12158

>  <SCORE.SYSTEM>
0

>  <SCORE.SYSTEM.CONST>
0

>  <SCORE.SYSTEM.DIHEDRAL>
0

>  <SCORE.SYSTEM.SOLV>
0

>  <SCORE.SYSTEM.norm>
0

>  <SCORE.heavy>
32

>  <SCORE.norm>
-0.0783156

>  <RMSD>
3.150

$$$$
2tob cryst
 OpenBabel11021811463D
libRbt.so/2013.1/901 2013/11/27
 32 34  0  0  0  0  0  0  0  0999 V2000
   -5.8582    1.1152   -9.1129 C   0  0  2  0  0  0  0  0  0  0  0  0
   -5.0808    2.1138   -9.9647 C   0  0  1  0  0  0  0  0  0  0  0  0
   -4.6799    1.4395  -11.2771 C   0  0  2  0  0  0  0  0  0  0  0  0
   -3.9027    0.1436  -11.0105 C   0  0  1  0  0  0  0  0  0  0  0  0
   -4.6903   -0.7506  -10.0466 C   0  0  1  0  0  0  0  0  0  0  0  0
   -3.9459   -1.9981   -9.5995 C   0  0  0  0  0  0  0  0  0  0  0  0
   -5.8883    3.2563  -10.2352 O   0  0  0  0  0  0  0  0  0  0  0  0
   -3.8875    2.2486  -12.2566 N   0  3  0  0  0  0  0  0  0  0  0  0
   -3.6989   -0.5352  -12.2434 O   0  0  0  0  0  0  0  0  0  0  0  0
   -5.0361   -0.0085   -8.8601 O   0  0  0  0  0  0  0  0  0  0  0  0
   -2.6209   -2.0119  -10.1211 O   0  0  0  0  0  0  0  0  0  0  0  0
   -9.2459    1.6341   -9.5403 C   0  0  2  0  0  0  0  0  0  0  0  0
  -10.6788    1.3994   -9.0435 C   0  0  0  0  0  0  0  0  0  0  0  0
  -11.1413   -0.0367   -9.2734 C   0  0  1  0  0  0  0  0  0  0  0  0
  -10.1630   -0.9743   -8.5791 C   0  0  2  0  0  0  0  0  0  0  0  0
   -8.7822   -0.8405   -9.2262 C   0  0  1  0  0  0  0  0  0  0  0  0
   -8.2367    0.5868   -9.0436 C   0  0  1  0  0  0  0  0  0  0  0  0
   -8.7657    3.0004   -9.1428 N   0  3  0  0  0  0  0  0  0  0  0  0
  -12.5406   -0.2381   -8.7739 N   0  3  0  0  0  0  0  0  0  0  0  0
   -7.8947   -1.7856   -8.6422 O   0  0  0  0  0  0  0  0  0  0  0  0
  -10.6191   -2.3364   -8.6701 O   0  0  0  0  0  0  0  0  0  0  0  0
   -7.0207    0.7452   -9.8039 O   0  0  0  0  0  0  0  0  0  0  0  0
  -11.0624   -2.8585   -7.4480 C   0  0  2  0  0  0  0  0  0  0  0  0
  -10.6510   -4.3298   -7.3293 C   0  0  1  0  0  0  0  0  0  0  0  0
  -11.5179   -5.2160   -8.2240 C   0  0  0  0  0  0  0  0  0  0  0  0
  -12.9820   -4.9468   -7.9159 C   0  0  1  0  0  0  0  0  0  0  0  0
  -13.2781   -3.4749   -8.1449 C   0  0  1  0  0  0  0  0  0  0  0  0
  -14.7314   -3.1435   -7.8583 C   0  0  0  0  0  0  0  0  0  0  0  0
   -9.2148   -4.4797   -7.7276 N   0  3  0  0  0  0  0  0  0  0  0  0
  -14.8950   -1.6509   -7.9490 N   0  3  0  0  0  0  0  0  0  0  0  0
  -13.8159   -5.7443   -8.7445 O   0  0  0  0  0  0  0  0  0  0  0  0
  -12.4631   -2.6836   -7.2637 O   0  0  0  0  0  0  0  0  0  0  0  0
  1  2  1  0  0  0  0
  1 22  1  6  0  0  0
  1 10  1  0  0  0  0
  2  3  1  0  0  0  0
  2  7  1  6  0  0  0
  3  4  1  0  0  0  0
  3  8  1  6  0  0  0
  4  5  1  0  0  0  0
  4  9  1  6  0  0  0
  5  6  1  1  0  0  0
  5 10  1  0  0  0  0
  6 11  1  0  0  0  0
 12 13  1  0  0  0  0
 12 17  1  0  0  0  0
 12 18  1  1  0  0  0
 13 14  1  0  0  0  0
 14 15  1  0  0  0  0
 14 19  1  1  0  0  0
 15 16  1  0  0  0  0
 15 21  1  6  0  0  0
 16 17  1  0  0  0  0
 16 20  1  1  0  0  0
 17 22  1  6  0  0  0
 23 21  1  6  0  0  0
 23 24  1  0  0  0  0
 23 32  1  0  0  0  0
 24 25  1  0  0  0  0
 24 29  1  6  0  0  0
 25 26  1  0  0  0  0
 26 27  1  0  0  0  0
 26 31  1  6  0  0  0
 27 28  1  1  0  0  0
 27 32  1  0  0  0  0
 28 30  1  0  0  0  0
M  CHG  5   8   1  18   1  19   1  29   1  30   1
M  END
>  <CHROM.1>
-140.47612157,177.61291016,-157.36064706,-35.01627882,3.83750470,-57.02602739
-60.98422650,-52.07536825,-109.34205835,78.17210067,116.84188382,-142.37390200
-68.75018231,172.97797102,173.31385717,68.09246220,-8.70102989,-0.99985429
-9.18285729,0.48318726,0.22479154,-0.15202265

>  <Name>
2tob cryst

>  <RI>
2.04895e+07

>  <Rbt.Current_Directory>
/home/itssahil/PROJECTS/Mol_Feturizer/New_Systems/rnas/2tob

>  <Rbt.Executable>
rbdock ($Id: //depot/dev/client3/rdock/2013.1/src/exe/rbdock.cxx#4 $)

>  <Rbt.Library>
libRbt.so (2013.1, Build901 2013/11/27)

>  <Rbt.Parameter_File>
/export/apps/rDock/src/rDock_2013.1_src/data/scripts/dock_solv.prm

>  <Rbt.Receptor>
prm/blind_docking_20.prm

>  <SCORE>
-42.7023

>  <SCORE.INTER>
-37.5946

>  <SCORE.INTER.CONST>
1

>  <SCORE.INTER.POLAR>
-7.40611

>  <SCORE.INTER.ROT>
6

>  <SCORE.INTER.SOLV>
40.4578

>  <SCORE.INTER.VDW>
-21.462

>  <SCORE.INTER.norm>
-1.17483

>  <SCORE.INTRA>
-8.27832

>  <SCORE.INTRA.DIHEDRAL>
17.2349

>  <SCORE.INTRA.DIHEDRAL.0>
18.4221

>  <SCORE.INTRA.POLAR>
-0.319721

>  <SCORE.INTRA.POLAR.0>
-1.57101

>  <SCORE.INTRA.REPUL>
-0.730195

>  <SCORE.INTRA.REPUL.0>
0.730195

>  <SCORE.INTRA.SOLV>
4.95103

>  <SCORE.INTRA.SOLV.lig_0>
-127.221

>  <SCORE.INTRA.VDW>
-14.6333

>  <SCORE.INTRA.VDW.0>
10.8385

>  <SCORE.INTRA.norm>
-0.258697

>  <SCORE.RESTR>
3.17062

>  <SCORE.RESTR.CAVITY>
3.17062

>  <SCORE.RESTR.norm>
0.0990818

>  <SCORE.SYSTEM>
0

>  <SCORE.SYSTEM.CONST>
0

>  <SCORE.SYSTEM.DIHEDRAL>
0

>  <SCORE.SYSTEM.SOLV>
0

>  <SCORE.SYSTEM.norm>
0

>  <SCORE.heavy>
32

>  <SCORE.norm>
-1.33445

>  <RMSD>
3.161

$$$$
2tob cryst
 OpenBabel11021811463D
libRbt.so/2013.1/901 2013/11/27
 32 34  0  0  0  0  0  0  0  0999 V2000
   -7.9743   -1.0659   -5.9299 C   0  0  2  0  0  0  0  0  0  0  0  0
   -7.9772    0.3739   -6.4340 C   0  0  1  0  0  0  0  0  0  0  0  0
   -8.2107    0.3696   -7.9450 C   0  0  2  0  0  0  0  0  0  0  0  0
   -7.1765   -0.5141   -8.6552 C   0  0  1  0  0  0  0  0  0  0  0  0
   -7.1429   -1.9035   -8.0093 C   0  0  1  0  0  0  0  0  0  0  0  0
   -6.0496   -2.8155   -8.5415 C   0  0  0  0  0  0  0  0  0  0  0  0
   -9.0087    1.1146   -5.7876 O   0  0  0  0  0  0  0  0  0  0  0  0
   -8.2321    1.6927   -8.6455 N   0  3  0  0  0  0  0  0  0  0  0  0
   -7.5298   -0.6269  -10.0281 O   0  0  0  0  0  0  0  0  0  0  0  0
   -6.9437   -1.7790   -6.5870 O   0  0  0  0  0  0  0  0  0  0  0  0
   -5.0353   -2.0614   -9.1975 O   0  0  0  0  0  0  0  0  0  0  0  0
  -10.9222   -1.8022   -4.4839 C   0  0  2  0  0  0  0  0  0  0  0  0
  -11.8008   -2.7197   -3.6229 C   0  0  0  0  0  0  0  0  0  0  0  0
  -12.2684   -3.9548   -4.3880 C   0  0  1  0  0  0  0  0  0  0  0  0
  -11.0416   -4.6973   -4.8994 C   0  0  2  0  0  0  0  0  0  0  0  0
  -10.2891   -3.8124   -5.8964 C   0  0  1  0  0  0  0  0  0  0  0  0
   -9.7805   -2.5343   -5.2067 C   0  0  1  0  0  0  0  0  0  0  0  0
  -10.3416   -0.6943   -3.6528 N   0  3  0  0  0  0  0  0  0  0  0  0
  -13.1189   -4.8346   -3.5215 N   0  3  0  0  0  0  0  0  0  0  0  0
   -9.1996   -4.5428   -6.4456 O   0  0  0  0  0  0  0  0  0  0  0  0
  -11.4263   -5.9323   -5.5304 O   0  0  0  0  0  0  0  0  0  0  0  0
   -9.2285   -1.6354   -6.1912 O   0  0  0  0  0  0  0  0  0  0  0  0
  -10.4424   -6.9267   -5.4552 C   0  0  2  0  0  0  0  0  0  0  0  0
  -10.2317   -7.5577   -6.8356 C   0  0  1  0  0  0  0  0  0  0  0  0
  -11.3919   -8.4851   -7.1980 C   0  0  0  0  0  0  0  0  0  0  0  0
  -11.5922   -9.4881   -6.0734 C   0  0  1  0  0  0  0  0  0  0  0  0
  -11.8674   -8.7404   -4.7805 C   0  0  1  0  0  0  0  0  0  0  0  0
  -12.0826   -9.6912   -3.6170 C   0  0  0  0  0  0  0  0  0  0  0  0
  -10.1223   -6.4766   -7.8666 N   0  3  0  0  0  0  0  0  0  0  0  0
  -12.4091   -8.8704   -2.3994 N   0  3  0  0  0  0  0  0  0  0  0  0
  -12.6765  -10.3557   -6.3726 O   0  0  0  0  0  0  0  0  0  0  0  0
  -10.7402   -7.9055   -4.4652 O   0  0  0  0  0  0  0  0  0  0  0  0
  1  2  1  0  0  0  0
  1 22  1  6  0  0  0
  1 10  1  0  0  0  0
  2  3  1  0  0  0  0
  2  7  1  1  0  0  0
  3  4  1  0  0  0  0
  3  8  1  6  0  0  0
  4  5  1  0  0  0  0
  4  9  1  6  0  0  0
  5  6  1  6  0  0  0
  5 10  1  0  0  0  0
  6 11  1  0  0  0  0
 12 13  1  0  0  0  0
 12 17  1  0  0  0  0
 12 18  1  1  0  0  0
 13 14  1  0  0  0  0
 14 15  1  0  0  0  0
 14 19  1  1  0  0  0
 15 16  1  0  0  0  0
 15 21  1  6  0  0  0
 16 17  1  0  0  0  0
 16 20  1  1  0  0  0
 17 22  1  6  0  0  0
 23 21  1  6  0  0  0
 23 24  1  0  0  0  0
 23 32  1  0  0  0  0
 24 25  1  0  0  0  0
 24 29  1  6  0  0  0
 25 26  1  0  0  0  0
 26 27  1  0  0  0  0
 26 31  1  6  0  0  0
 27 28  1  1  0  0  0
 27 32  1  0  0  0  0
 28 30  1  0  0  0  0
M  CHG  5   8   1  18   1  19   1  29   1  30   1
M  END
>  <CHROM.1>
-142.36103024,-75.36236246,54.45664488,-55.14924947,18.94721616,130.08273748
171.56934742,60.44917206,-151.43063836,-56.74883781,106.52135108,-131.89842725
10.67582463,177.03546410,-177.44697083,59.99384163,-9.81623494,-4.01058883
-6.09185539,0.82159442,0.85834244,0.28170807

>  <Name>
2tob cryst

>  <RI>
3.35201e+07

>  <Rbt.Current_Directory>
/home/itssahil/PROJECTS/Mol_Feturizer/New_Systems/rnas/2tob

>  <Rbt.Executable>
rbdock ($Id: //depot/dev/client3/rdock/2013.1/src/exe/rbdock.cxx#4 $)

>  <Rbt.Library>
libRbt.so (2013.1, Build901 2013/11/27)

>  <Rbt.Parameter_File>
/export/apps/rDock/src/rDock_2013.1_src/data/scripts/dock_solv.prm

>  <Rbt.Receptor>
prm/pocket_docking_4.prm

>  <SCORE>
-40.2719

>  <SCORE.INTER>
-31.2291

>  <SCORE.INTER.CONST>
1

>  <SCORE.INTER.POLAR>
-4.62378

>  <SCORE.INTER.ROT>
6

>  <SCORE.INTER.SOLV>
23.1225

>  <SCORE.INTER.VDW>
-20.7143

>  <SCORE.INTER.norm>
-0.975909

>  <SCORE.INTRA>
-9.83982

>  <SCORE.INTRA.DIHEDRAL>
18.5016

>  <SCORE.INTRA.DIHEDRAL.0>
18.4221

>  <SCORE.INTRA.POLAR>
-0.115443

>  <SCORE.INTRA.POLAR.0>
-1.57101

>  <SCORE.INTRA.REPUL>
-0.730195

>  <SCORE.INTRA.REPUL.0>
0.730195

>  <SCORE.INTRA.SOLV>
-3.52136

>  <SCORE.INTRA.SOLV.lig_0>
-127.221

>  <SCORE.INTRA.VDW>
-13.2864

>  <SCORE.INTRA.VDW.0>
10.8385

>  <SCORE.INTRA.norm>
-0.307494

>  <SCORE.RESTR>
0.797017

>  <SCORE.RESTR.CAVITY>
0.797017

>  <SCORE.RESTR.norm>
0.0249068

>  <SCORE.SYSTEM>
0

>  <SCORE.SYSTEM.CONST>
0

>  <SCORE.SYSTEM.DIHEDRAL>
0

>  <SCORE.SYSTEM.SOLV>
0

>  <SCORE.SYSTEM.norm>
0

>  <SCORE.heavy>
32

>  <SCORE.norm>
-1.2585

>  <RMSD>
3.168

$$$$
2tob cryst
 OpenBabel11021811463D
libRbt.so/2013.1/901 2013/11/27
 32 34  0  0  0  0  0  0  0  0999 V2000
   -5.3359    1.5162   -9.3952 C   0  0  2  0  0  0  0  0  0  0  0  0
   -4.4016    2.3543  -10.2622 C   0  0  1  0  0  0  0  0  0  0  0  0
   -4.1208    1.5993  -11.5618 C   0  0  2  0  0  0  0  0  0  0  0  0
   -3.5733    0.1957  -11.2709 C   0  0  1  0  0  0  0  0  0  0  0  0
   -4.4999   -0.5360  -10.2937 C   0  0  1  0  0  0  0  0  0  0  0  0
   -3.9764   -1.8831   -9.8233 C   0  0  0  0  0  0  0  0  0  0  0  0
   -5.0050    3.6118  -10.5544 O   0  0  0  0  0  0  0  0  0  0  0  0
   -3.2038    2.2458  -12.5532 N   0  3  0  0  0  0  0  0  0  0  0  0
   -3.4876   -0.5292  -12.4914 O   0  0  0  0  0  0  0  0  0  0  0  0
   -4.7150    0.2745   -9.1210 O   0  0  0  0  0  0  0  0  0  0  0  0
   -5.0125   -2.6433   -9.2098 O   0  0  0  0  0  0  0  0  0  0  0  0
   -8.8799    1.9092   -9.9161 C   0  0  2  0  0  0  0  0  0  0  0  0
  -10.2690    1.5244   -9.3893 C   0  0  0  0  0  0  0  0  0  0  0  0
  -10.5111    0.0186   -9.4469 C   0  0  1  0  0  0  0  0  0  0  0  0
   -9.4144   -0.6759   -8.6513 C   0  0  2  0  0  0  0  0  0  0  0  0
   -8.0599   -0.4154   -9.3152 C   0  0  1  0  0  0  0  0  0  0  0  0
   -7.7338    1.0885   -9.3039 C   0  0  1  0  0  0  0  0  0  0  0  0
   -8.6123    3.3686   -9.6839 N   0  3  0  0  0  0  0  0  0  0  0  0
  -11.8718   -0.3283   -8.9214 N   0  3  0  0  0  0  0  0  0  0  0  0
   -7.0504   -1.1436   -8.6278 O   0  0  0  0  0  0  0  0  0  0  0  0
   -9.6629   -2.0917   -8.5796 O   0  0  0  0  0  0  0  0  0  0  0  0
   -6.5445    1.3356  -10.0825 O   0  0  0  0  0  0  0  0  0  0  0  0
  -10.4034   -2.4713   -7.4525 C   0  0  2  0  0  0  0  0  0  0  0  0
   -9.5467   -3.3534   -6.5383 C   0  0  1  0  0  0  0  0  0  0  0  0
   -9.3854   -4.7566   -7.1235 C   0  0  0  0  0  0  0  0  0  0  0  0
  -10.7614   -5.3237   -7.4332 C   0  0  1  0  0  0  0  0  0  0  0  0
  -11.4751   -4.3999   -8.4047 C   0  0  1  0  0  0  0  0  0  0  0  0
  -12.8577   -4.9173   -8.7584 C   0  0  0  0  0  0  0  0  0  0  0  0
   -8.1952   -2.7305   -6.3678 N   0  3  0  0  0  0  0  0  0  0  0  0
  -13.8188   -4.4322   -7.7077 N   0  3  0  0  0  0  0  0  0  0  0  0
  -10.6450   -6.6231   -7.9954 O   0  0  0  0  0  0  0  0  0  0  0  0
  -11.6299   -3.1041   -7.8017 O   0  0  0  0  0  0  0  0  0  0  0  0
  1  2  1  0  0  0  0
  1 22  1  6  0  0  0
  1 10  1  0  0  0  0
  2  3  1  0  0  0  0
  2  7  1  6  0  0  0
  3  4  1  0  0  0  0
  3  8  1  6  0  0  0
  4  5  1  0  0  0  0
  4  9  1  6  0  0  0
  5  6  1  1  0  0  0
  5 10  1  0  0  0  0
  6 11  1  0  0  0  0
 12 13  1  0  0  0  0
 12 17  1  0  0  0  0
 12 18  1  1  0  0  0
 13 14  1  0  0  0  0
 14 15  1  0  0  0  0
 14 19  1  1  0  0  0
 15 16  1  0  0  0  0
 15 21  1  6  0  0  0
 16 17  1  0  0  0  0
 16 20  1  1  0  0  0
 17 22  1  6  0  0  0
 23 21  1  6  0  0  0
 23 24  1  0  0  0  0
 23 32  1  0  0  0  0
 24 25  1  0  0  0  0
 24 29  1  6  0  0  0
 25 26  1  0  0  0  0
 26 27  1  0  0  0  0
 26 31  1  6  0  0  0
 27 28  1  1  0  0  0
 27 32  1  0  0  0  0
 28 30  1  0  0  0  0
M  CHG  5   8   1  18   1  19   1  29   1  30   1
M  END
>  <CHROM.1>
-154.52947669,-63.81503860,73.08981749,71.32352390,-165.08288535,-138.05605609
-51.11403076,62.30423104,-91.59556211,100.50318560,138.03058713,-114.95714597
83.20168192,71.76026815,85.79511673,48.87331017,-7.94837142,-0.98394806,-9.19527937
0.71013869,0.23619577,-0.24492652

>  <Name>
2tob cryst

>  <RI>
0

>  <Rbt.Current_Directory>
/home/itssahil/PROJECTS/Mol_Feturizer/New_Systems/rnas/2tob

>  <Rbt.Executable>
rbdock ($Id: //depot/dev/client3/rdock/2013.1/src/exe/rbdock.cxx#4 $)

>  <Rbt.Library>
libRbt.so (2013.1, Build901 2013/11/27)

>  <Rbt.Parameter_File>
/export/apps/rDock/src/rDock_2013.1_src/data/scripts/dock_solv.prm

>  <Rbt.Receptor>
prm/blind_docking_100.prm

>  <SCORE>
-44.7988

>  <SCORE.INTER>
-35.658

>  <SCORE.INTER.CONST>
1

>  <SCORE.INTER.POLAR>
-6.81663

>  <SCORE.INTER.ROT>
6

>  <SCORE.INTER.SOLV>
36.8225

>  <SCORE.INTER.VDW>
-20.924

>  <SCORE.INTER.norm>
-1.11431

>  <SCORE.INTRA>
-13.6734

>  <SCORE.INTRA.DIHEDRAL>
18.4911

>  <SCORE.INTRA.DIHEDRAL.0>
18.4221

>  <SCORE.INTRA.POLAR>
-0.68724

>  <SCORE.INTRA.POLAR.0>
-1.57101

>  <SCORE.INTRA.REPUL>
-0.721675

>  <SCORE.INTRA.REPUL.0>
0.730195

>  <SCORE.INTRA.SOLV>
-1.64761

>  <SCORE.INTRA.SOLV.lig_0>
-127.221

>  <SCORE.INTRA.VDW>
-16.1502

>  <SCORE.INTRA.VDW.0>
10.8385

>  <SCORE.INTRA.norm>
-0.427294

>  <SCORE.RESTR>
4.53256

>  <SCORE.RESTR.CAVITY>
4.53256

>  <SCORE.RESTR.norm>
0.141642

>  <SCORE.SYSTEM>
0

>  <SCORE.SYSTEM.CONST>
0

>  <SCORE.SYSTEM.DIHEDRAL>
0

>  <SCORE.SYSTEM.SOLV>
0

>  <SCORE.SYSTEM.norm>
0

>  <SCORE.heavy>
32

>  <SCORE.norm>
-1.39996

>  <RMSD>
3.169

$$$$
2tob cryst
 OpenBabel11021811463D
libRbt.so/2013.1/901 2013/11/27
 32 34  0  0  0  0  0  0  0  0999 V2000
   -5.4012    1.5431   -9.4242 C   0  0  2  0  0  0  0  0  0  0  0  0
   -4.4920    2.3838  -10.3151 C   0  0  1  0  0  0  0  0  0  0  0  0
   -4.1956    1.6046  -11.5968 C   0  0  2  0  0  0  0  0  0  0  0  0
   -3.6104    0.2234  -11.2736 C   0  0  1  0  0  0  0  0  0  0  0  0
   -4.5143   -0.5079  -10.2751 C   0  0  1  0  0  0  0  0  0  0  0  0
   -3.9540   -1.8288   -9.7737 C   0  0  0  0  0  0  0  0  0  0  0  0
   -5.1292    3.6174  -10.6358 O   0  0  0  0  0  0  0  0  0  0  0  0
   -3.2990    2.2504  -12.6073 N   0  3  0  0  0  0  0  0  0  0  0  0
   -3.5094   -0.5288  -12.4762 O   0  0  0  0  0  0  0  0  0  0  0  0
   -4.7469    0.3253   -9.1219 O   0  0  0  0  0  0  0  0  0  0  0  0
   -4.9884   -2.6471   -9.2369 O   0  0  0  0  0  0  0  0  0  0  0  0
   -8.9322    1.9173   -9.9040 C   0  0  2  0  0  0  0  0  0  0  0  0
  -10.3205    1.5458   -9.3657 C   0  0  0  0  0  0  0  0  0  0  0  0
  -10.5836    0.0441   -9.4357 C   0  0  1  0  0  0  0  0  0  0  0  0
   -9.4878   -0.6732   -8.6594 C   0  0  2  0  0  0  0  0  0  0  0  0
   -8.1374   -0.4242   -9.3358 C   0  0  1  0  0  0  0  0  0  0  0  0
   -7.7907    1.0749   -9.3130 C   0  0  1  0  0  0  0  0  0  0  0  0
   -8.6422    3.3705   -9.6602 N   0  3  0  0  0  0  0  0  0  0  0  0
  -11.9431   -0.2897   -8.8987 N   0  3  0  0  0  0  0  0  0  0  0  0
   -7.1303   -1.1730   -8.6670 O   0  0  0  0  0  0  0  0  0  0  0  0
   -9.7548   -2.0862   -8.5993 O   0  0  0  0  0  0  0  0  0  0  0  0
   -6.6068    1.3139  -10.1022 O   0  0  0  0  0  0  0  0  0  0  0  0
  -10.3667   -2.4874   -7.4046 C   0  0  2  0  0  0  0  0  0  0  0  0
   -9.4007   -3.3529   -6.5886 C   0  0  1  0  0  0  0  0  0  0  0  0
   -9.2683   -4.7496   -7.1962 C   0  0  0  0  0  0  0  0  0  0  0  0
  -10.6555   -5.3475   -7.3667 C   0  0  1  0  0  0  0  0  0  0  0  0
  -11.4862   -4.4369   -8.2541 C   0  0  1  0  0  0  0  0  0  0  0  0
  -12.8855   -4.9850   -8.4673 C   0  0  0  0  0  0  0  0  0  0  0  0
   -8.0535   -2.6992   -6.5538 N   0  3  0  0  0  0  0  0  0  0  0  0
  -13.8252   -3.8190   -8.6108 N   0  3  0  0  0  0  0  0  0  0  0  0
  -10.5678   -6.6416   -7.9461 O   0  0  0  0  0  0  0  0  0  0  0  0
  -11.6078   -3.1474   -7.6301 O   0  0  0  0  0  0  0  0  0  0  0  0
  1  2  1  0  0  0  0
  1 22  1  6  0  0  0
  1 10  1  0  0  0  0
  2  3  1  0  0  0  0
  2  7  1  6  0  0  0
  3  4  1  0  0  0  0
  3  8  1  6  0  0  0
  4  5  1  0  0  0  0
  4  9  1  6  0  0  0
  5  6  1  1  0  0  0
  5 10  1  0  0  0  0
  6 11  1  0  0  0  0
 12 13  1  0  0  0  0
 12 17  1  0  0  0  0
 12 18  1  1  0  0  0
 13 14  1  0  0  0  0
 14 15  1  0  0  0  0
 14 19  1  1  0  0  0
 15 16  1  0  0  0  0
 15 21  1  6  0  0  0
 16 17  1  0  0  0  0
 16 20  1  1  0  0  0
 17 22  1  6  0  0  0
 23 21  1  6  0  0  0
 23 24  1  0  0  0  0
 23 32  1  0  0  0  0
 24 25  1  0  0  0  0
 24 29  1  6  0  0  0
 25 26  1  0  0  0  0
 26 27  1  0  0  0  0
 26 31  1  6  0  0  0
 27 28  1  1  0  0  0
 27 32  1  0  0  0  0
 28 30  1  0  0  0  0
M  CHG  5   8   1  18   1  19   1  29   1  30   1
M  END
>  <CHROM.1>
-153.61342722,-176.85794000,85.71620162,74.76426750,-160.28678616,-78.03391407
-55.32927980,-174.20929750,-97.75809104,94.42047521,134.64925282,-112.08447475
-43.15153276,179.87366110,147.80490934,88.52872821,-7.96901018,-0.95468341
-9.22539917,0.71144948,0.21970475,-0.25905968

>  <Name>
2tob cryst

>  <RI>
0

>  <Rbt.Current_Directory>
/home/itssahil/PROJECTS/Mol_Feturizer/New_Systems/rnas/2tob

>  <Rbt.Executable>
rbdock ($Id: //depot/dev/client3/rdock/2013.1/src/exe/rbdock.cxx#4 $)

>  <Rbt.Library>
libRbt.so (2013.1, Build901 2013/11/27)

>  <Rbt.Parameter_File>
/export/apps/rDock/src/rDock_2013.1_src/data/scripts/dock_solv.prm

>  <Rbt.Receptor>
prm/blind_docking_100.prm

>  <SCORE>
-42.5068

>  <SCORE.INTER>
-35.7477

>  <SCORE.INTER.CONST>
1

>  <SCORE.INTER.POLAR>
-6.42615

>  <SCORE.INTER.ROT>
6

>  <SCORE.INTER.SOLV>
39.3709

>  <SCORE.INTER.VDW>
-23.1349

>  <SCORE.INTER.norm>
-1.11711

>  <SCORE.INTRA>
-10.6446

>  <SCORE.INTRA.DIHEDRAL>
17.6809

>  <SCORE.INTRA.DIHEDRAL.0>
18.4221

>  <SCORE.INTRA.POLAR>
-0.213807

>  <SCORE.INTRA.POLAR.0>
-1.57101

>  <SCORE.INTRA.REPUL>
-0.666201

>  <SCORE.INTRA.REPUL.0>
0.730195

>  <SCORE.INTRA.SOLV>
-0.573769

>  <SCORE.INTRA.SOLV.lig_0>
-127.221

>  <SCORE.INTRA.VDW>
-15.1402

>  <SCORE.INTRA.VDW.0>
10.8385

>  <SCORE.INTRA.norm>
-0.332642

>  <SCORE.RESTR>
3.88544

>  <SCORE.RESTR.CAVITY>
3.88544

>  <SCORE.RESTR.norm>
0.12142

>  <SCORE.SYSTEM>
0

>  <SCORE.SYSTEM.CONST>
0

>  <SCORE.SYSTEM.DIHEDRAL>
0

>  <SCORE.SYSTEM.SOLV>
0

>  <SCORE.SYSTEM.norm>
0

>  <SCORE.heavy>
32

>  <SCORE.norm>
-1.32834

>  <RMSD>
3.171

$$$$
2tob cryst
 OpenBabel11021811463D
libRbt.so/2013.1/901 2013/11/27
 32 34  0  0  0  0  0  0  0  0999 V2000
   -7.6607   -1.5712   -6.9815 C   0  0  2  0  0  0  0  0  0  0  0  0
   -8.3238   -0.2741   -6.5291 C   0  0  1  0  0  0  0  0  0  0  0  0
   -8.5673    0.6110   -7.7519 C   0  0  2  0  0  0  0  0  0  0  0  0
   -7.2639    0.8411   -8.5282 C   0  0  1  0  0  0  0  0  0  0  0  0
   -6.5924   -0.5022   -8.8344 C   0  0  1  0  0  0  0  0  0  0  0  0
   -5.2190   -0.3845   -9.4748 C   0  0  0  0  0  0  0  0  0  0  0  0
   -9.5622   -0.5589   -5.8842 O   0  0  0  0  0  0  0  0  0  0  0  0
   -9.1993    1.9488   -7.5227 N   0  3  0  0  0  0  0  0  0  0  0  0
   -7.5620    1.5209   -9.7411 O   0  0  0  0  0  0  0  0  0  0  0  0
   -6.4359   -1.2612   -7.6189 O   0  0  0  0  0  0  0  0  0  0  0  0
   -4.7842   -1.6442   -9.9765 O   0  0  0  0  0  0  0  0  0  0  0  0
  -10.7571   -2.9622   -8.4287 C   0  0  2  0  0  0  0  0  0  0  0  0
  -11.9593   -3.8458   -8.0695 C   0  0  0  0  0  0  0  0  0  0  0  0
  -11.5334   -5.1911   -7.4880 C   0  0  1  0  0  0  0  0  0  0  0  0
  -10.6619   -4.9331   -6.2665 C   0  0  2  0  0  0  0  0  0  0  0  0
   -9.3844   -4.2073   -6.6959 C   0  0  1  0  0  0  0  0  0  0  0  0
   -9.7218   -2.8330   -7.3003 C   0  0  1  0  0  0  0  0  0  0  0  0
  -11.2121   -1.5892   -8.8323 N   0  3  0  0  0  0  0  0  0  0  0  0
  -12.7270   -6.0298   -7.1415 N   0  3  0  0  0  0  0  0  0  0  0  0
   -8.5288   -4.0540   -5.5705 O   0  0  0  0  0  0  0  0  0  0  0  0
  -10.3284   -6.1720   -5.6144 O   0  0  0  0  0  0  0  0  0  0  0  0
   -8.5302   -2.2386   -7.8558 O   0  0  0  0  0  0  0  0  0  0  0  0
  -10.1414   -6.0415   -4.2321 C   0  0  2  0  0  0  0  0  0  0  0  0
   -9.8219   -7.4083   -3.6175 C   0  0  1  0  0  0  0  0  0  0  0  0
  -11.0737   -8.2831   -3.5439 C   0  0  0  0  0  0  0  0  0  0  0  0
  -12.1721   -7.5142   -2.8276 C   0  0  1  0  0  0  0  0  0  0  0  0
  -12.4463   -6.2214   -3.5761 C   0  0  1  0  0  0  0  0  0  0  0  0
  -13.5420   -5.4089   -2.9103 C   0  0  0  0  0  0  0  0  0  0  0  0
   -8.7845   -8.0987   -4.4486 N   0  3  0  0  0  0  0  0  0  0  0  0
  -12.8997   -4.5097   -1.8896 N   0  3  0  0  0  0  0  0  0  0  0  0
  -13.3567   -8.2950   -2.7576 O   0  0  0  0  0  0  0  0  0  0  0  0
  -11.2524   -5.4206   -3.5943 O   0  0  0  0  0  0  0  0  0  0  0  0
  1  2  1  0  0  0  0
  1 22  1  6  0  0  0
  1 10  1  0  0  0  0
  2  3  1  0  0  0  0
  2  7  1  6  0  0  0
  3  4  1  0  0  0  0
  3  8  1  1  0  0  0
  4  5  1  0  0  0  0
  4  9  1  6  0  0  0
  5  6  1  1  0  0  0
  5 10  1  0  0  0  0
  6 11  1  0  0  0  0
 12 13  1  0  0  0  0
 12 17  1  0  0  0  0
 12 18  1  1  0  0  0
 13 14  1  0  0  0  0
 14 15  1  0  0  0  0
 14 19  1  1  0  0  0
 15 16  1  0  0  0  0
 15 21  1  6  0  0  0
 16 17  1  0  0  0  0
 16 20  1  1  0  0  0
 17 22  1  6  0  0  0
 23 21  1  6  0  0  0
 23 24  1  0  0  0  0
 23 32  1  0  0  0  0
 24 25  1  0  0  0  0
 24 29  1  6  0  0  0
 25 26  1  0  0  0  0
 26 27  1  0  0  0  0
 26 31  1  6  0  0  0
 27 28  1  1  0  0  0
 27 32  1  0  0  0  0
 28 30  1  0  0  0  0
M  CHG  5   8   1  18   1  19   1  29   1  30   1
M  END
>  <CHROM.1>
-70.98634152,-160.27156558,62.25381602,73.25273681,-167.99713330,168.65598109
-21.06665369,-14.51568100,-150.02452579,164.04503043,156.57709024,178.74750571
-57.55661208,178.41036625,88.89514090,39.75306844,-9.75075401,-3.49036961
-6.29777935,-1.03237054,-0.39418414,2.74140666

>  <Name>
2tob cryst

>  <RI>
0

>  <Rbt.Current_Directory>
/home/itssahil/PROJECTS/Mol_Feturizer/New_Systems/rnas/2tob

>  <Rbt.Executable>
rbdock ($Id: //depot/dev/client3/rdock/2013.1/src/exe/rbdock.cxx#4 $)

>  <Rbt.Library>
libRbt.so (2013.1, Build901 2013/11/27)

>  <Rbt.Parameter_File>
/export/apps/rDock/src/rDock_2013.1_src/data/scripts/dock_solv.prm

>  <Rbt.Receptor>
prm/pocket_docking_5.prm

>  <SCORE>
-53.9184

>  <SCORE.INTER>
-40.3987

>  <SCORE.INTER.CONST>
1

>  <SCORE.INTER.POLAR>
-5.88504

>  <SCORE.INTER.ROT>
6

>  <SCORE.INTER.SOLV>
22.2806

>  <SCORE.INTER.VDW>
-22.3425

>  <SCORE.INTER.norm>
-1.26246

>  <SCORE.INTRA>
-13.5301

>  <SCORE.INTRA.DIHEDRAL>
2.35534

>  <SCORE.INTRA.DIHEDRAL.0>
18.4221

>  <SCORE.INTRA.POLAR>
1.29271

>  <SCORE.INTRA.POLAR.0>
-1.57101

>  <SCORE.INTRA.REPUL>
-0.730195

>  <SCORE.INTRA.REPUL.0>
0.730195

>  <SCORE.INTRA.SOLV>
-5.29427

>  <SCORE.INTRA.SOLV.lig_0>
-127.221

>  <SCORE.INTRA.VDW>
-12.8048

>  <SCORE.INTRA.VDW.0>
10.8385

>  <SCORE.INTRA.norm>
-0.422815

>  <SCORE.RESTR>
0.0104236

>  <SCORE.RESTR.CAVITY>
0.0104236

>  <SCORE.RESTR.norm>
0.000325737

>  <SCORE.SYSTEM>
0

>  <SCORE.SYSTEM.CONST>
0

>  <SCORE.SYSTEM.DIHEDRAL>
0

>  <SCORE.SYSTEM.SOLV>
0

>  <SCORE.SYSTEM.norm>
0

>  <SCORE.heavy>
32

>  <SCORE.norm>
-1.68495

>  <RMSD>
3.192

$$$$
2tob cryst
 OpenBabel11021811463D
libRbt.so/2013.1/901 2013/11/27
 32 34  0  0  0  0  0  0  0  0999 V2000
   -5.4627    1.5515   -9.4132 C   0  0  2  0  0  0  0  0  0  0  0  0
   -4.5870    2.4325  -10.2987 C   0  0  1  0  0  0  0  0  0  0  0  0
   -4.2820    1.6835  -11.5963 C   0  0  2  0  0  0  0  0  0  0  0  0
   -3.6546    0.3144  -11.3024 C   0  0  1  0  0  0  0  0  0  0  0  0
   -4.5270   -0.4590  -10.3076 C   0  0  1  0  0  0  0  0  0  0  0  0
   -3.9244   -1.7716   -9.8343 C   0  0  0  0  0  0  0  0  0  0  0  0
   -5.2621    3.6527  -10.5920 O   0  0  0  0  0  0  0  0  0  0  0  0
   -3.4146    2.3713  -12.6045 N   0  3  0  0  0  0  0  0  0  0  0  0
   -3.5449   -0.4145  -12.5185 O   0  0  0  0  0  0  0  0  0  0  0  0
   -4.7712    0.3479   -9.1381 O   0  0  0  0  0  0  0  0  0  0  0  0
   -4.9207   -2.6059   -9.2521 O   0  0  0  0  0  0  0  0  0  0  0  0
   -8.9953    1.9014   -9.8988 C   0  0  2  0  0  0  0  0  0  0  0  0
  -10.3818    1.5411   -9.3486 C   0  0  0  0  0  0  0  0  0  0  0  0
  -10.6406    0.0373   -9.3762 C   0  0  1  0  0  0  0  0  0  0  0  0
   -9.5418   -0.6548   -8.5816 C   0  0  2  0  0  0  0  0  0  0  0  0
   -8.1929   -0.4209   -9.2663 C   0  0  1  0  0  0  0  0  0  0  0  0
   -7.8506    1.0792   -9.2859 C   0  0  1  0  0  0  0  0  0  0  0  0
   -8.7093    3.3617   -9.6961 N   0  3  0  0  0  0  0  0  0  0  0  0
  -11.9985   -0.2854   -8.8283 N   0  3  0  0  0  0  0  0  0  0  0  0
   -7.1829   -1.1478   -8.5782 O   0  0  0  0  0  0  0  0  0  0  0  0
   -9.8046   -2.0664   -8.4816 O   0  0  0  0  0  0  0  0  0  0  0  0
   -6.6683    1.2995  -10.0830 O   0  0  0  0  0  0  0  0  0  0  0  0
   -9.4649   -2.6097   -7.2357 C   0  0  2  0  0  0  0  0  0  0  0  0
   -8.9078   -4.0254   -7.4183 C   0  0  1  0  0  0  0  0  0  0  0  0
  -10.0251   -5.0170   -7.7439 C   0  0  0  0  0  0  0  0  0  0  0  0
  -11.1115   -4.9015   -6.6870 C   0  0  1  0  0  0  0  0  0  0  0  0
  -11.6315   -3.4748   -6.6592 C   0  0  1  0  0  0  0  0  0  0  0  0
  -12.7269   -3.2966   -5.6235 C   0  0  0  0  0  0  0  0  0  0  0  0
   -7.9053   -4.0272   -8.5312 N   0  3  0  0  0  0  0  0  0  0  0  0
  -13.4471   -2.0107   -5.9245 N   0  3  0  0  0  0  0  0  0  0  0  0
  -12.1745   -5.8001   -6.9709 O   0  0  0  0  0  0  0  0  0  0  0  0
  -10.5555   -2.5834   -6.3210 O   0  0  0  0  0  0  0  0  0  0  0  0
  1  2  1  0  0  0  0
  1 22  1  6  0  0  0
  1 10  1  0  0  0  0
  2  3  1  0  0  0  0
  2  7  1  6  0  0  0
  3  4  1  0  0  0  0
  3  8  1  6  0  0  0
  4  5  1  0  0  0  0
  4  9  1  6  0  0  0
  5  6  1  1  0  0  0
  5 10  1  0  0  0  0
  6 11  1  0  0  0  0
 12 13  1  0  0  0  0
 12 17  1  0  0  0  0
 12 18  1  1  0  0  0
 13 14  1  0  0  0  0
 14 15  1  0  0  0  0
 14 19  1  1  0  0  0
 15 16  1  0  0  0  0
 15 21  1  6  0  0  0
 16 17  1  0  0  0  0
 16 20  1  1  0  0  0
 17 22  1  6  0  0  0
 23 21  1  6  0  0  0
 23 24  1  0  0  0  0
 23 32  1  0  0  0  0
 24 25  1  0  0  0  0
 24 29  1  6  0  0  0
 25 26  1  0  0  0  0
 26 27  1  0  0  0  0
 26 31  1  6  0  0  0
 27 28  1  1  0  0  0
 27 32  1  0  0  0  0
 28 30  1  0  0  0  0
M  CHG  5   8   1  18   1  19   1  29   1  30   1
M  END
>  <CHROM.1>
-150.60613188,-58.32172236,-167.08009242,143.83289092,-162.63173675,-139.87232805
-61.16784102,-57.68081786,-141.88352650,177.99919611,134.62649992,-143.78981467
162.06003270,94.78405402,-163.90308956,-60.67046578,-8.00208892,-0.81123945
-8.99467394,0.66073169,0.35709450,-0.27575830

>  <Name>
2tob cryst

>  <RI>
2.04895e+07

>  <Rbt.Current_Directory>
/home/itssahil/PROJECTS/Mol_Feturizer/New_Systems/rnas/2tob

>  <Rbt.Executable>
rbdock ($Id: //depot/dev/client3/rdock/2013.1/src/exe/rbdock.cxx#4 $)

>  <Rbt.Library>
libRbt.so (2013.1, Build901 2013/11/27)

>  <Rbt.Parameter_File>
/export/apps/rDock/src/rDock_2013.1_src/data/scripts/dock_solv.prm

>  <Rbt.Receptor>
prm/blind_docking_20.prm

>  <SCORE>
-47.7982

>  <SCORE.INTER>
-40.0614

>  <SCORE.INTER.CONST>
1

>  <SCORE.INTER.POLAR>
-7.84035

>  <SCORE.INTER.ROT>
6

>  <SCORE.INTER.SOLV>
44.7166

>  <SCORE.INTER.VDW>
-23.0787

>  <SCORE.INTER.norm>
-1.25192

>  <SCORE.INTRA>
-11.7539

>  <SCORE.INTRA.DIHEDRAL>
18.9344

>  <SCORE.INTRA.DIHEDRAL.0>
18.4221

>  <SCORE.INTRA.POLAR>
-0.132487

>  <SCORE.INTRA.POLAR.0>
-1.57101

>  <SCORE.INTRA.REPUL>
-0.706155

>  <SCORE.INTRA.REPUL.0>
0.730195

>  <SCORE.INTRA.SOLV>
-1.53921

>  <SCORE.INTRA.SOLV.lig_0>
-127.221

>  <SCORE.INTRA.VDW>
-16.4702

>  <SCORE.INTRA.VDW.0>
10.8385

>  <SCORE.INTRA.norm>
-0.367309

>  <SCORE.RESTR>
4.01709

>  <SCORE.RESTR.CAVITY>
4.01709

>  <SCORE.RESTR.norm>
0.125534

>  <SCORE.SYSTEM>
0

>  <SCORE.SYSTEM.CONST>
0

>  <SCORE.SYSTEM.DIHEDRAL>
0

>  <SCORE.SYSTEM.SOLV>
0

>  <SCORE.SYSTEM.norm>
0

>  <SCORE.heavy>
32

>  <SCORE.norm>
-1.49369

>  <RMSD>
3.205

$$$$
2tob cryst
 OpenBabel11021811463D
libRbt.so/2013.1/901 2013/11/27
 32 34  0  0  0  0  0  0  0  0999 V2000
   -9.4088   -1.8188   -8.9772 C   0  0  2  0  0  0  0  0  0  0  0  0
   -8.0718   -2.5531   -8.9892 C   0  0  1  0  0  0  0  0  0  0  0  0
   -7.0488   -1.7331   -8.2027 C   0  0  2  0  0  0  0  0  0  0  0  0
   -6.9546   -0.3038   -8.7530 C   0  0  1  0  0  0  0  0  0  0  0  0
   -8.3520    0.3210   -8.8300 C   0  0  1  0  0  0  0  0  0  0  0  0
   -8.3921    1.6857   -9.4978 C   0  0  0  0  0  0  0  0  0  0  0  0
   -8.2176   -3.8409   -8.3968 O   0  0  0  0  0  0  0  0  0  0  0  0
   -5.6556   -2.2733   -8.1067 N   0  3  0  0  0  0  0  0  0  0  0  0
   -6.1256    0.4687   -7.8937 O   0  0  0  0  0  0  0  0  0  0  0  0
   -9.2368   -0.5448   -9.5687 O   0  0  0  0  0  0  0  0  0  0  0  0
   -8.5027    2.7219   -8.5272 O   0  0  0  0  0  0  0  0  0  0  0  0
  -12.0748   -1.5288   -8.5521 C   0  0  2  0  0  0  0  0  0  0  0  0
  -13.5181   -2.0502   -8.5367 C   0  0  0  0  0  0  0  0  0  0  0  0
  -13.5838   -3.5604   -8.3269 C   0  0  1  0  0  0  0  0  0  0  0  0
  -12.8683   -3.8972   -7.0259 C   0  0  2  0  0  0  0  0  0  0  0  0
  -11.3880   -3.5270   -7.1475 C   0  0  1  0  0  0  0  0  0  0  0  0
  -11.2268   -2.0122   -7.3650 C   0  0  1  0  0  0  0  0  0  0  0  0
  -12.0554   -0.0276   -8.5857 N   0  3  0  0  0  0  0  0  0  0  0  0
  -15.0042   -4.0403   -8.3106 N   0  3  0  0  0  0  0  0  0  0  0  0
  -10.7029   -3.9311   -5.9688 O   0  0  0  0  0  0  0  0  0  0  0  0
  -13.0019   -5.2983   -6.7250 O   0  0  0  0  0  0  0  0  0  0  0  0
   -9.8462   -1.7045   -7.6501 O   0  0  0  0  0  0  0  0  0  0  0  0
  -12.6104   -5.6282   -5.4210 C   0  0  2  0  0  0  0  0  0  0  0  0
  -11.5999   -6.7795   -5.4551 C   0  0  1  0  0  0  0  0  0  0  0  0
  -12.2901   -8.1063   -5.7725 C   0  0  0  0  0  0  0  0  0  0  0  0
  -13.4405   -8.3095   -4.7998 C   0  0  1  0  0  0  0  0  0  0  0  0
  -14.4065   -7.1435   -4.9181 C   0  0  1  0  0  0  0  0  0  0  0  0
  -15.5842   -7.2921   -3.9721 C   0  0  0  0  0  0  0  0  0  0  0  0
  -10.5613   -6.5008   -6.4978 N   0  3  0  0  0  0  0  0  0  0  0  0
  -16.7279   -6.4845   -4.5225 N   0  3  0  0  0  0  0  0  0  0  0  0
  -14.1144   -9.5284   -5.0795 O   0  0  0  0  0  0  0  0  0  0  0  0
  -13.7226   -5.9241   -4.5830 O   0  0  0  0  0  0  0  0  0  0  0  0
  1  2  1  0  0  0  0
  1 22  1  1  0  0  0
  1 10  1  0  0  0  0
  2  3  1  0  0  0  0
  2  7  1  1  0  0  0
  3  4  1  0  0  0  0
  3  8  1  6  0  0  0
  4  5  1  0  0  0  0
  4  9  1  1  0  0  0
  5  6  1  6  0  0  0
  5 10  1  0  0  0  0
  6 11  1  0  0  0  0
 12 13  1  0  0  0  0
 12 17  1  0  0  0  0
 12 18  1  1  0  0  0
 13 14  1  0  0  0  0
 14 15  1  0  0  0  0
 14 19  1  1  0  0  0
 15 16  1  0  0  0  0
 15 21  1  6  0  0  0
 16 17  1  0  0  0  0
 16 20  1  1  0  0  0
 17 22  1  6  0  0  0
 23 21  1  6  0  0  0
 23 24  1  0  0  0  0
 23 32  1  0  0  0  0
 24 25  1  0  0  0  0
 24 29  1  6  0  0  0
 25 26  1  0  0  0  0
 26 27  1  0  0  0  0
 26 31  1  6  0  0  0
 27 28  1  1  0  0  0
 27 32  1  0  0  0  0
 28 30  1  0  0  0  0
M  CHG  5   8   1  18   1  19   1  29   1  30   1
M  END
>  <CHROM.1>
-134.58886155,67.00334474,-56.50745118,173.81680457,-102.65075003,62.19709999
-174.71806559,58.64095858,-167.66704173,-67.01780634,-36.27336215,-127.91966472
171.96320413,-51.80404232,-156.42164518,60.02528681,-11.12316032,-3.45979290
-7.21393319,-0.89748477,-0.05586940,2.73073520

>  <Name>
2tob cryst

>  <RI>
0

>  <Rbt.Current_Directory>
/home/itssahil/PROJECTS/Mol_Feturizer/New_Systems/rnas/2tob

>  <Rbt.Executable>
rbdock ($Id: //depot/dev/client3/rdock/2013.1/src/exe/rbdock.cxx#4 $)

>  <Rbt.Library>
libRbt.so (2013.1, Build901 2013/11/27)

>  <Rbt.Parameter_File>
/export/apps/rDock/src/rDock_2013.1_src/data/scripts/dock_solv.prm

>  <Rbt.Receptor>
prm/pocket_docking_3.prm

>  <SCORE>
-43.5892

>  <SCORE.INTER>
-29.2125

>  <SCORE.INTER.CONST>
1

>  <SCORE.INTER.POLAR>
-5.27275

>  <SCORE.INTER.ROT>
6

>  <SCORE.INTER.SOLV>
28.88

>  <SCORE.INTER.VDW>
-19.1258

>  <SCORE.INTER.norm>
-0.912889

>  <SCORE.INTRA>
-15.3158

>  <SCORE.INTRA.DIHEDRAL>
5.17907

>  <SCORE.INTRA.DIHEDRAL.0>
18.4221

>  <SCORE.INTRA.POLAR>
0.341694

>  <SCORE.INTRA.POLAR.0>
-1.57101

>  <SCORE.INTRA.REPUL>
-0.730195

>  <SCORE.INTRA.REPUL.0>
0.730195

>  <SCORE.INTRA.SOLV>
-5.82703

>  <SCORE.INTRA.SOLV.lig_0>
-127.221

>  <SCORE.INTRA.VDW>
-12.5026

>  <SCORE.INTRA.VDW.0>
10.8385

>  <SCORE.INTRA.norm>
-0.478618

>  <SCORE.RESTR>
0.939088

>  <SCORE.RESTR.CAVITY>
0.939088

>  <SCORE.RESTR.norm>
0.0293465

>  <SCORE.SYSTEM>
0

>  <SCORE.SYSTEM.CONST>
0

>  <SCORE.SYSTEM.DIHEDRAL>
0

>  <SCORE.SYSTEM.SOLV>
0

>  <SCORE.SYSTEM.norm>
0

>  <SCORE.heavy>
32

>  <SCORE.norm>
-1.36216

>  <RMSD>
3.209

$$$$
2tob cryst
 OpenBabel11021811463D
libRbt.so/2013.1/901 2013/11/27
 32 34  0  0  0  0  0  0  0  0999 V2000
   -5.7021    1.3754   -9.3009 C   0  0  2  0  0  0  0  0  0  0  0  0
   -4.8862    2.3282  -10.1689 C   0  0  1  0  0  0  0  0  0  0  0  0
   -4.5096    1.6157  -11.4682 C   0  0  2  0  0  0  0  0  0  0  0  0
   -3.7827    0.2961  -11.1769 C   0  0  1  0  0  0  0  0  0  0  0  0
   -4.6049   -0.5500  -10.1986 C   0  0  1  0  0  0  0  0  0  0  0  0
   -3.9091   -1.8166   -9.7278 C   0  0  0  0  0  0  0  0  0  0  0  0
   -5.6493    3.4956  -10.4614 O   0  0  0  0  0  0  0  0  0  0  0  0
   -3.6857    2.3762  -12.4605 N   0  3  0  0  0  0  0  0  0  0  0  0
   -3.6033   -0.4120  -12.3970 O   0  0  0  0  0  0  0  0  0  0  0  0
   -4.9237    0.2260   -9.0263 O   0  0  0  0  0  0  0  0  0  0  0  0
   -4.8559   -2.7686   -9.2533 O   0  0  0  0  0  0  0  0  0  0  0  0
   -9.1530    1.7958   -9.7512 C   0  0  2  0  0  0  0  0  0  0  0  0
  -10.5666    1.4947   -9.2353 C   0  0  0  0  0  0  0  0  0  0  0  0
  -10.9382    0.0232   -9.3958 C   0  0  1  0  0  0  0  0  0  0  0  0
   -9.9003   -0.8177   -8.6652 C   0  0  2  0  0  0  0  0  0  0  0  0
   -8.5329   -0.6274   -9.3262 C   0  0  1  0  0  0  0  0  0  0  0  0
   -8.0781    0.8383   -9.2130 C   0  0  1  0  0  0  0  0  0  0  0  0
   -8.7589    3.2066   -9.4202 N   0  3  0  0  0  0  0  0  0  0  0  0
  -12.3203   -0.2425   -8.8789 N   0  3  0  0  0  0  0  0  0  0  0  0
   -7.5855   -1.4866   -8.7047 O   0  0  0  0  0  0  0  0  0  0  0  0
  -10.2697   -2.2085   -8.6904 O   0  0  0  0  0  0  0  0  0  0  0  0
   -6.8770    1.0376   -9.9873 O   0  0  0  0  0  0  0  0  0  0  0  0
  -10.5538   -2.7328   -7.4227 C   0  0  2  0  0  0  0  0  0  0  0  0
  -10.3105   -4.2457   -7.4173 C   0  0  1  0  0  0  0  0  0  0  0  0
  -11.4215   -4.9829   -8.1656 C   0  0  0  0  0  0  0  0  0  0  0  0
  -12.7656   -4.5613   -7.5943 C   0  0  1  0  0  0  0  0  0  0  0  0
  -12.9154   -3.0559   -7.7287 C   0  0  1  0  0  0  0  0  0  0  0  0
  -14.2453   -2.5728   -7.1790 C   0  0  0  0  0  0  0  0  0  0  0  0
   -8.9948   -4.5415   -8.0691 N   0  3  0  0  0  0  0  0  0  0  0  0
  -15.1191   -2.1918   -8.3427 N   0  3  0  0  0  0  0  0  0  0  0  0
  -13.8219   -5.2174   -8.2812 O   0  0  0  0  0  0  0  0  0  0  0  0
  -11.8692   -2.4062   -6.9870 O   0  0  0  0  0  0  0  0  0  0  0  0
  1  2  1  0  0  0  0
  1 22  1  6  0  0  0
  1 10  1  0  0  0  0
  2  3  1  0  0  0  0
  2  7  1  6  0  0  0
  3  4  1  0  0  0  0
  3  8  1  6  0  0  0
  4  5  1  0  0  0  0
  4  9  1  6  0  0  0
  5  6  1  1  0  0  0
  5 10  1  0  0  0  0
  6 11  1  0  0  0  0
 12 13  1  0  0  0  0
 12 17  1  0  0  0  0
 12 18  1  1  0  0  0
 13 14  1  0  0  0  0
 14 15  1  0  0  0  0
 14 19  1  1  0  0  0
 15 16  1  0  0  0  0
 15 21  1  6  0  0  0
 16 17  1  0  0  0  0
 16 20  1  1  0  0  0
 17 22  1  6  0  0  0
 23 21  1  6  0  0  0
 23 24  1  0  0  0  0
 23 32  1  0  0  0  0
 24 25  1  0  0  0  0
 24 29  1  6  0  0  0
 25 26  1  0  0  0  0
 26 27  1  0  0  0  0
 26 31  1  6  0  0  0
 27 28  1  1  0  0  0
 27 32  1  0  0  0  0
 28 30  1  0  0  0  0
M  CHG  5   8   1  18   1  19   1  29   1  30   1
M  END
>  <CHROM.1>
-145.15019221,-172.93041139,-39.04014246,176.53826578,-158.41548628,-122.56308030
61.20775960,175.19392198,-115.01436269,-57.92717875,123.43103614,-154.37695230
-38.42508114,61.06092196,-107.27604199,175.20798700,-8.59039054,-0.85642249
-9.20869290,0.53240473,0.22926094,-0.21072342

>  <Name>
2tob cryst

>  <RI>
0

>  <Rbt.Current_Directory>
/home/itssahil/PROJECTS/Mol_Feturizer/New_Systems/rnas/2tob

>  <Rbt.Executable>
rbdock ($Id: //depot/dev/client3/rdock/2013.1/src/exe/rbdock.cxx#4 $)

>  <Rbt.Library>
libRbt.so (2013.1, Build901 2013/11/27)

>  <Rbt.Parameter_File>
/export/apps/rDock/src/rDock_2013.1_src/data/scripts/dock_solv.prm

>  <Rbt.Receptor>
prm/blind_docking_80.prm

>  <SCORE>
-37.7205

>  <SCORE.INTER>
-34.959

>  <SCORE.INTER.CONST>
1

>  <SCORE.INTER.POLAR>
-7.90008

>  <SCORE.INTER.ROT>
6

>  <SCORE.INTER.SOLV>
43.9525

>  <SCORE.INTER.VDW>
-19.2232

>  <SCORE.INTER.norm>
-1.09247

>  <SCORE.INTRA>
-7.98511

>  <SCORE.INTRA.DIHEDRAL>
19.0639

>  <SCORE.INTRA.DIHEDRAL.0>
18.4221

>  <SCORE.INTRA.POLAR>
0.719824

>  <SCORE.INTRA.POLAR.0>
-1.57101

>  <SCORE.INTRA.REPUL>
-0.727437

>  <SCORE.INTRA.REPUL.0>
0.730195

>  <SCORE.INTRA.SOLV>
-0.456077

>  <SCORE.INTRA.SOLV.lig_0>
-127.221

>  <SCORE.INTRA.VDW>
-16.0992

>  <SCORE.INTRA.VDW.0>
10.8385

>  <SCORE.INTRA.norm>
-0.249535

>  <SCORE.RESTR>
5.22356

>  <SCORE.RESTR.CAVITY>
5.22356

>  <SCORE.RESTR.norm>
0.163236

>  <SCORE.SYSTEM>
0

>  <SCORE.SYSTEM.CONST>
0

>  <SCORE.SYSTEM.DIHEDRAL>
0

>  <SCORE.SYSTEM.SOLV>
0

>  <SCORE.SYSTEM.norm>
0

>  <SCORE.heavy>
32

>  <SCORE.norm>
-1.17877

>  <RMSD>
3.225

$$$$
2tob cryst
 OpenBabel11021811463D
libRbt.so/2013.1/901 2013/11/27
 32 34  0  0  0  0  0  0  0  0999 V2000
   -5.3725    1.5003   -9.3415 C   0  0  2  0  0  0  0  0  0  0  0  0
   -4.4204    2.3244  -10.2025 C   0  0  1  0  0  0  0  0  0  0  0  0
   -4.1419    1.5649  -11.4999 C   0  0  2  0  0  0  0  0  0  0  0  0
   -3.6167    0.1536  -11.2049 C   0  0  1  0  0  0  0  0  0  0  0  0
   -4.5604   -0.5641  -10.2336 C   0  0  1  0  0  0  0  0  0  0  0  0
   -4.0596   -1.9185   -9.7593 C   0  0  0  0  0  0  0  0  0  0  0  0
   -5.0035    3.5904  -10.4991 O   0  0  0  0  0  0  0  0  0  0  0  0
   -3.2089    2.1977  -12.4853 N   0  3  0  0  0  0  0  0  0  0  0  0
   -3.5333   -0.5729  -12.4245 O   0  0  0  0  0  0  0  0  0  0  0  0
   -4.7715    0.2498   -9.0627 O   0  0  0  0  0  0  0  0  0  0  0  0
   -2.6958   -2.1099  -10.1215 O   0  0  0  0  0  0  0  0  0  0  0  0
   -8.9161    1.9049   -9.8745 C   0  0  2  0  0  0  0  0  0  0  0  0
  -10.3072    1.5108   -9.3603 C   0  0  0  0  0  0  0  0  0  0  0  0
  -10.5467    0.0056   -9.4398 C   0  0  1  0  0  0  0  0  0  0  0  0
   -9.4531   -0.6982   -8.6482 C   0  0  2  0  0  0  0  0  0  0  0  0
   -8.0957   -0.4266   -9.3015 C   0  0  1  0  0  0  0  0  0  0  0  0
   -7.7719    1.0774   -9.2678 C   0  0  1  0  0  0  0  0  0  0  0  0
   -8.6518    3.3613   -9.6209 N   0  3  0  0  0  0  0  0  0  0  0  0
  -11.9096   -0.3505   -8.9262 N   0  3  0  0  0  0  0  0  0  0  0  0
   -7.0886   -1.1628   -8.6190 O   0  0  0  0  0  0  0  0  0  0  0  0
   -9.6999   -2.1153   -8.5974 O   0  0  0  0  0  0  0  0  0  0  0  0
   -6.5790    1.3370  -10.0368 O   0  0  0  0  0  0  0  0  0  0  0  0
  -10.4016   -2.5181   -7.4537 C   0  0  2  0  0  0  0  0  0  0  0  0
   -9.5122   -3.4129   -6.5840 C   0  0  1  0  0  0  0  0  0  0  0  0
   -9.3651   -4.8047   -7.1995 C   0  0  0  0  0  0  0  0  0  0  0  0
  -10.7484   -5.3719   -7.4743 C   0  0  1  0  0  0  0  0  0  0  0  0
  -11.4970   -4.4338   -8.4051 C   0  0  1  0  0  0  0  0  0  0  0  0
  -12.8885   -4.9505   -8.7227 C   0  0  0  0  0  0  0  0  0  0  0  0
   -8.1581   -2.7875   -6.4466 N   0  3  0  0  0  0  0  0  0  0  0  0
  -13.8653   -3.8307   -8.4887 N   0  3  0  0  0  0  0  0  0  0  0  0
  -10.6459   -6.6605   -8.0634 O   0  0  0  0  0  0  0  0  0  0  0  0
  -11.6366   -3.1497   -7.7739 O   0  0  0  0  0  0  0  0  0  0  0  0
  1  2  1  0  0  0  0
  1 22  1  6  0  0  0
  1 10  1  0  0  0  0
  2  3  1  0  0  0  0
  2  7  1  6  0  0  0
  3  4  1  0  0  0  0
  3  8  1  6  0  0  0
  4  5  1  0  0  0  0
  4  9  1  6  0  0  0
  5  6  1  1  0  0  0
  5 10  1  0  0  0  0
  6 11  1  0  0  0  0
 12 13  1  0  0  0  0
 12 17  1  0  0  0  0
 12 18  1  1  0  0  0
 13 14  1  0  0  0  0
 14 15  1  0  0  0  0
 14 19  1  1  0  0  0
 15 16  1  0  0  0  0
 15 21  1  6  0  0  0
 16 17  1  0  0  0  0
 16 20  1  1  0  0  0
 17 22  1  6  0  0  0
 23 21  1  6  0  0  0
 23 24  1  0  0  0  0
 23 32  1  0  0  0  0
 24 25  1  0  0  0  0
 24 29  1  6  0  0  0
 25 26  1  0  0  0  0
 26 27  1  0  0  0  0
 26 31  1  6  0  0  0
 27 28  1  1  0  0  0
 27 32  1  0  0  0  0
 28 30  1  0  0  0  0
M  CHG  5   8   1  18   1  19   1  29   1  30   1
M  END
>  <CHROM.1>
-155.89979321,71.51252346,-45.06583475,-47.18059028,11.39397057,-169.43423227
-53.67325266,-54.12336984,-93.88345471,85.52332449,138.47799822,-114.66571136
81.75113149,-55.83223059,130.18548878,-13.45461488,-7.89064674,-0.96829445
-9.24070810,0.66392041,0.22318040,-0.22883632

>  <Name>
2tob cryst

>  <RI>
0

>  <Rbt.Current_Directory>
/home/itssahil/PROJECTS/Mol_Feturizer/New_Systems/rnas/2tob

>  <Rbt.Executable>
rbdock ($Id: //depot/dev/client3/rdock/2013.1/src/exe/rbdock.cxx#4 $)

>  <Rbt.Library>
libRbt.so (2013.1, Build901 2013/11/27)

>  <Rbt.Parameter_File>
/export/apps/rDock/src/rDock_2013.1_src/data/scripts/dock_solv.prm

>  <Rbt.Receptor>
prm/blind_docking_100.prm

>  <SCORE>
-37.7851

>  <SCORE.INTER>
-33.0885

>  <SCORE.INTER.CONST>
1

>  <SCORE.INTER.POLAR>
-6.39077

>  <SCORE.INTER.ROT>
6

>  <SCORE.INTER.SOLV>
38.1155

>  <SCORE.INTER.VDW>
-21.0616

>  <SCORE.INTER.norm>
-1.03401

>  <SCORE.INTRA>
-8.99834

>  <SCORE.INTRA.DIHEDRAL>
20.5708

>  <SCORE.INTRA.DIHEDRAL.0>
18.4221

>  <SCORE.INTRA.POLAR>
-0.313806

>  <SCORE.INTRA.POLAR.0>
-1.57101

>  <SCORE.INTRA.REPUL>
-0.659343

>  <SCORE.INTRA.REPUL.0>
0.730195

>  <SCORE.INTRA.SOLV>
-1.95408

>  <SCORE.INTRA.SOLV.lig_0>
-127.221

>  <SCORE.INTRA.VDW>
-13.9431

>  <SCORE.INTRA.VDW.0>
10.8385

>  <SCORE.INTRA.norm>
-0.281198

>  <SCORE.RESTR>
4.30173

>  <SCORE.RESTR.CAVITY>
4.30173

>  <SCORE.RESTR.norm>
0.134429

>  <SCORE.SYSTEM>
0

>  <SCORE.SYSTEM.CONST>
0

>  <SCORE.SYSTEM.DIHEDRAL>
0

>  <SCORE.SYSTEM.SOLV>
0

>  <SCORE.SYSTEM.norm>
0

>  <SCORE.heavy>
32

>  <SCORE.norm>
-1.18078

>  <RMSD>
3.236

$$$$
2tob cryst
 OpenBabel11021811463D
libRbt.so/2013.1/901 2013/11/27
 32 34  0  0  0  0  0  0  0  0999 V2000
   -7.3628    0.4830   -8.0932 C   0  0  2  0  0  0  0  0  0  0  0  0
   -5.9740    0.4513   -8.7235 C   0  0  1  0  0  0  0  0  0  0  0  0
   -5.6304   -0.9917   -9.0940 C   0  0  2  0  0  0  0  0  0  0  0  0
   -5.7583   -1.9142   -7.8745 C   0  0  1  0  0  0  0  0  0  0  0  0
   -7.1326   -1.7315   -7.2213 C   0  0  1  0  0  0  0  0  0  0  0  0
   -7.3128   -2.4922   -5.9178 C   0  0  0  0  0  0  0  0  0  0  0  0
   -5.9496    1.2690   -9.8904 O   0  0  0  0  0  0  0  0  0  0  0  0
   -4.2923   -1.2466   -9.7154 N   0  3  0  0  0  0  0  0  0  0  0  0
   -5.5982   -3.2629   -8.2963 O   0  0  0  0  0  0  0  0  0  0  0  0
   -7.3606   -0.3363   -6.9394 O   0  0  0  0  0  0  0  0  0  0  0  0
   -8.4418   -2.0057   -5.1990 O   0  0  0  0  0  0  0  0  0  0  0  0
  -10.5982    0.7323   -8.9960 C   0  0  2  0  0  0  0  0  0  0  0  0
  -12.0695    0.3282   -8.8315 C   0  0  0  0  0  0  0  0  0  0  0  0
  -12.3654   -1.0366   -9.4473 C   0  0  1  0  0  0  0  0  0  0  0  0
  -11.4426   -2.0640   -8.8064 C   0  0  2  0  0  0  0  0  0  0  0  0
   -9.9889   -1.7260   -9.1464 C   0  0  1  0  0  0  0  0  0  0  0  0
   -9.6028   -0.3555   -8.5627 C   0  0  1  0  0  0  0  0  0  0  0  0
  -10.3073    1.9916   -8.2313 N   0  3  0  0  0  0  0  0  0  0  0  0
  -13.8069   -1.4074   -9.2668 N   0  3  0  0  0  0  0  0  0  0  0  0
   -9.1362   -2.7397   -8.6293 O   0  0  0  0  0  0  0  0  0  0  0  0
  -11.7617   -3.3881   -9.2718 O   0  0  0  0  0  0  0  0  0  0  0  0
   -8.2940    0.0251   -9.0359 O   0  0  0  0  0  0  0  0  0  0  0  0
  -11.7245   -4.3580   -8.2616 C   0  0  2  0  0  0  0  0  0  0  0  0
  -12.7176   -5.4808   -8.5795 C   0  0  1  0  0  0  0  0  0  0  0  0
  -14.1567   -5.0263   -8.3342 C   0  0  0  0  0  0  0  0  0  0  0  0
  -14.2659   -4.4728   -6.9226 C   0  0  1  0  0  0  0  0  0  0  0  0
  -13.2890   -3.3212   -6.7608 C   0  0  1  0  0  0  0  0  0  0  0  0
  -13.3552   -2.7205   -5.3684 C   0  0  0  0  0  0  0  0  0  0  0  0
  -12.5659   -5.8899  -10.0124 N   0  3  0  0  0  0  0  0  0  0  0  0
  -12.3520   -1.6018   -5.2960 N   0  3  0  0  0  0  0  0  0  0  0  0
  -15.5900   -4.0253   -6.6686 O   0  0  0  0  0  0  0  0  0  0  0  0
  -11.9501   -3.8008   -6.9711 O   0  0  0  0  0  0  0  0  0  0  0  0
  1  2  1  0  0  0  0
  1 22  1  6  0  0  0
  1 10  1  0  0  0  0
  2  3  1  0  0  0  0
  2  7  1  6  0  0  0
  3  4  1  0  0  0  0
  3  8  1  1  0  0  0
  4  5  1  0  0  0  0
  4  9  1  6  0  0  0
  5  6  1  1  0  0  0
  5 10  1  0  0  0  0
  6 11  1  0  0  0  0
 12 13  1  0  0  0  0
 12 17  1  0  0  0  0
 12 18  1  1  0  0  0
 13 14  1  0  0  0  0
 14 15  1  0  0  0  0
 14 19  1  1  0  0  0
 15 16  1  0  0  0  0
 15 21  1  6  0  0  0
 16 17  1  0  0  0  0
 16 20  1  1  0  0  0
 17 22  1  6  0  0  0
 23 21  1  6  0  0  0
 23 24  1  0  0  0  0
 23 32  1  0  0  0  0
 24 25  1  0  0  0  0
 24 29  1  6  0  0  0
 25 26  1  0  0  0  0
 26 27  1  0  0  0  0
 26 31  1  6  0  0  0
 27 28  1  1  0  0  0
 27 32  1  0  0  0  0
 28 30  1  0  0  0  0
M  CHG  5   8   1  18   1  19   1  29   1  30   1
M  END
>  <CHROM.1>
164.32493038,-170.57927858,1.80745348,-172.35220458,164.40314917,-52.60932345
125.44541641,-67.95179238,-138.89774629,75.29195475,106.89544846,150.30770657
77.31239872,-59.30436152,179.52640356,-55.37533061,-10.05088005,-1.93760598
-8.07253561,0.42082740,0.05556769,-0.12357826

>  <Name>
2tob cryst

>  <RI>
2.04895e+07

>  <Rbt.Current_Directory>
/home/itssahil/PROJECTS/Mol_Feturizer/New_Systems/rnas/2tob

>  <Rbt.Executable>
rbdock ($Id: //depot/dev/client3/rdock/2013.1/src/exe/rbdock.cxx#4 $)

>  <Rbt.Library>
libRbt.so (2013.1, Build901 2013/11/27)

>  <Rbt.Parameter_File>
/export/apps/rDock/src/rDock_2013.1_src/data/scripts/dock_solv.prm

>  <Rbt.Receptor>
prm/blind_docking_20.prm

>  <SCORE>
-29.9745

>  <SCORE.INTER>
-25.4185

>  <SCORE.INTER.CONST>
1

>  <SCORE.INTER.POLAR>
-6.5113

>  <SCORE.INTER.ROT>
6

>  <SCORE.INTER.SOLV>
42.6182

>  <SCORE.INTER.VDW>
-17.0474

>  <SCORE.INTER.norm>
-0.794327

>  <SCORE.INTRA>
-8.86244

>  <SCORE.INTRA.DIHEDRAL>
9.05004

>  <SCORE.INTRA.DIHEDRAL.0>
18.4221

>  <SCORE.INTRA.POLAR>
1.32829

>  <SCORE.INTRA.POLAR.0>
-1.57101

>  <SCORE.INTRA.REPUL>
-0.699703

>  <SCORE.INTRA.REPUL.0>
0.730195

>  <SCORE.INTRA.SOLV>
-2.51532

>  <SCORE.INTRA.SOLV.lig_0>
-127.221

>  <SCORE.INTRA.VDW>
-13.1475

>  <SCORE.INTRA.VDW.0>
10.8385

>  <SCORE.INTRA.norm>
-0.276951

>  <SCORE.RESTR>
4.30636

>  <SCORE.RESTR.CAVITY>
4.30636

>  <SCORE.RESTR.norm>
0.134574

>  <SCORE.SYSTEM>
0

>  <SCORE.SYSTEM.CONST>
0

>  <SCORE.SYSTEM.DIHEDRAL>
0

>  <SCORE.SYSTEM.SOLV>
0

>  <SCORE.SYSTEM.norm>
0

>  <SCORE.heavy>
32

>  <SCORE.norm>
-0.936704

>  <RMSD>
3.246

$$$$
2tob cryst
 OpenBabel11021811463D
libRbt.so/2013.1/901 2013/11/27
 32 34  0  0  0  0  0  0  0  0999 V2000
   -5.9536    1.2274   -8.9750 C   0  0  2  0  0  0  0  0  0  0  0  0
   -4.7981    1.4252   -9.9510 C   0  0  1  0  0  0  0  0  0  0  0  0
   -4.6201    0.1488  -10.7738 C   0  0  2  0  0  0  0  0  0  0  0  0
   -4.4329   -1.0691   -9.8594 C   0  0  1  0  0  0  0  0  0  0  0  0
   -5.5631   -1.1269   -8.8259 C   0  0  1  0  0  0  0  0  0  0  0  0
   -5.3973   -2.2135   -7.7762 C   0  0  0  0  0  0  0  0  0  0  0  0
   -5.0733    2.5236  -10.8162 O   0  0  0  0  0  0  0  0  0  0  0  0
   -3.5181    0.1270  -11.7872 N   0  3  0  0  0  0  0  0  0  0  0  0
   -4.4422   -2.2489  -10.6533 O   0  0  0  0  0  0  0  0  0  0  0  0
   -5.6566    0.1321   -8.1298 O   0  0  0  0  0  0  0  0  0  0  0  0
   -5.8858   -3.4616   -8.2571 O   0  0  0  0  0  0  0  0  0  0  0  0
   -9.3695    1.8335   -9.4323 C   0  0  2  0  0  0  0  0  0  0  0  0
  -10.8049    1.5501   -8.9694 C   0  0  0  0  0  0  0  0  0  0  0  0
  -11.2395    0.1203   -9.2793 C   0  0  1  0  0  0  0  0  0  0  0  0
  -10.2550   -0.8356   -8.6198 C   0  0  2  0  0  0  0  0  0  0  0  0
   -8.8679   -0.6461   -9.2387 C   0  0  1  0  0  0  0  0  0  0  0  0
   -8.3495    0.7787   -8.9752 C   0  0  1  0  0  0  0  0  0  0  0  0
   -8.9183    3.1852   -8.9583 N   0  3  0  0  0  0  0  0  0  0  0  0
  -12.6419   -0.1294   -8.8114 N   0  3  0  0  0  0  0  0  0  0  0  0
   -7.9724   -1.6053   -8.6910 O   0  0  0  0  0  0  0  0  0  0  0  0
  -10.6864   -2.1985   -8.7872 O   0  0  0  0  0  0  0  0  0  0  0  0
   -7.1259    0.9960   -9.7084 O   0  0  0  0  0  0  0  0  0  0  0  0
  -11.2709   -2.7434   -7.6365 C   0  0  2  0  0  0  0  0  0  0  0  0
  -11.0078   -4.2519   -7.5820 C   0  0  1  0  0  0  0  0  0  0  0  0
  -11.8796   -4.9980   -8.5923 C   0  0  0  0  0  0  0  0  0  0  0  0
  -13.3323   -4.6060   -8.3756 C   0  0  1  0  0  0  0  0  0  0  0  0
  -13.4723   -3.1017   -8.5314 C   0  0  1  0  0  0  0  0  0  0  0  0
  -14.9068   -2.6477   -8.3313 C   0  0  0  0  0  0  0  0  0  0  0  0
   -9.5647   -4.5177   -7.8829 N   0  3  0  0  0  0  0  0  0  0  0  0
  -15.0167   -2.0443   -6.9577 N   0  3  0  0  0  0  0  0  0  0  0  0
  -14.1684   -5.2708   -9.3121 O   0  0  0  0  0  0  0  0  0  0  0  0
  -12.6597   -2.4442   -7.5443 O   0  0  0  0  0  0  0  0  0  0  0  0
  1  2  1  0  0  0  0
  1 22  1  6  0  0  0
  1 10  1  0  0  0  0
  2  3  1  0  0  0  0
  2  7  1  6  0  0  0
  3  4  1  0  0  0  0
  3  8  1  6  0  0  0
  4  5  1  0  0  0  0
  4  9  1  6  0  0  0
  5  6  1  1  0  0  0
  5 10  1  0  0  0  0
  6 11  1  0  0  0  0
 12 13  1  0  0  0  0
 12 17  1  0  0  0  0
 12 18  1  1  0  0  0
 13 14  1  0  0  0  0
 14 15  1  0  0  0  0
 14 19  1  1  0  0  0
 15 16  1  0  0  0  0
 15 21  1  6  0  0  0
 16 17  1  0  0  0  0
 16 20  1  1  0  0  0
 17 22  1  6  0  0  0
 23 21  1  6  0  0  0
 23 24  1  0  0  0  0
 23 32  1  0  0  0  0
 24 25  1  0  0  0  0
 24 29  1  6  0  0  0
 25 26  1  0  0  0  0
 26 27  1  0  0  0  0
 26 31  1  6  0  0  0
 27 28  1  1  0  0  0
 27 32  1  0  0  0  0
 28 30  1  0  0  0  0
M  CHG  5   8   1  18   1  19   1  29   1  30   1
M  END
>  <CHROM.1>
179.88676561,177.98799147,152.02636665,153.21421974,-84.03805386,-53.28223953
-70.23964156,60.49605039,-102.83102522,-54.64981288,122.59962213,-149.22561790
52.81498196,-76.18517908,102.81391910,-82.69247023,-9.01274222,-1.20137748
-8.94626810,0.41854096,0.15999011,-0.12453118

>  <Name>
2tob cryst

>  <RI>
0

>  <Rbt.Current_Directory>
/home/itssahil/PROJECTS/Mol_Feturizer/New_Systems/rnas/2tob

>  <Rbt.Executable>
rbdock ($Id: //depot/dev/client3/rdock/2013.1/src/exe/rbdock.cxx#4 $)

>  <Rbt.Library>
libRbt.so (2013.1, Build901 2013/11/27)

>  <Rbt.Parameter_File>
/export/apps/rDock/src/rDock_2013.1_src/data/scripts/dock_solv.prm

>  <Rbt.Receptor>
prm/blind_docking_100.prm

>  <SCORE>
-16.0968

>  <SCORE.INTER>
-14.4594

>  <SCORE.INTER.CONST>
1

>  <SCORE.INTER.POLAR>
-7.30925

>  <SCORE.INTER.ROT>
6

>  <SCORE.INTER.SOLV>
44.8311

>  <SCORE.INTER.VDW>
-7.81916

>  <SCORE.INTER.norm>
-0.451858

>  <SCORE.INTRA>
-4.92035

>  <SCORE.INTRA.DIHEDRAL>
12.2073

>  <SCORE.INTRA.DIHEDRAL.0>
18.4221

>  <SCORE.INTRA.POLAR>
0.642869

>  <SCORE.INTRA.POLAR.0>
-1.57101

>  <SCORE.INTRA.REPUL>
-0.730195

>  <SCORE.INTRA.REPUL.0>
0.730195

>  <SCORE.INTRA.SOLV>
1.35935

>  <SCORE.INTRA.SOLV.lig_0>
-127.221

>  <SCORE.INTRA.VDW>
-10.2385

>  <SCORE.INTRA.VDW.0>
10.8385

>  <SCORE.INTRA.norm>
-0.153761

>  <SCORE.RESTR>
3.283

>  <SCORE.RESTR.CAVITY>
3.283

>  <SCORE.RESTR.norm>
0.102594

>  <SCORE.SYSTEM>
0

>  <SCORE.SYSTEM.CONST>
0

>  <SCORE.SYSTEM.DIHEDRAL>
0

>  <SCORE.SYSTEM.SOLV>
0

>  <SCORE.SYSTEM.norm>
0

>  <SCORE.heavy>
32

>  <SCORE.norm>
-0.503025

>  <RMSD>
3.248

$$$$
2tob cryst
 OpenBabel11021811463D
libRbt.so/2013.1/901 2013/11/27
 32 34  0  0  0  0  0  0  0  0999 V2000
   -5.5153    1.4854   -9.3614 C   0  0  2  0  0  0  0  0  0  0  0  0
   -4.6154    2.3622  -10.2265 C   0  0  1  0  0  0  0  0  0  0  0  0
   -4.2838    1.6116  -11.5165 C   0  0  2  0  0  0  0  0  0  0  0  0
   -3.6695    0.2397  -11.2079 C   0  0  1  0  0  0  0  0  0  0  0  0
   -4.5682   -0.5294  -10.2334 C   0  0  1  0  0  0  0  0  0  0  0  0
   -3.9826   -1.8446   -9.7460 C   0  0  0  0  0  0  0  0  0  0  0  0
   -5.2781    3.5854  -10.5356 O   0  0  0  0  0  0  0  0  0  0  0  0
   -3.3902    2.2952  -12.5045 N   0  3  0  0  0  0  0  0  0  0  0  0
   -3.5350   -0.4900  -12.4211 O   0  0  0  0  0  0  0  0  0  0  0  0
   -4.8358    0.2789   -9.0701 O   0  0  0  0  0  0  0  0  0  0  0  0
   -4.9906   -2.6619   -9.1598 O   0  0  0  0  0  0  0  0  0  0  0  0
   -9.0287    1.8590   -9.8797 C   0  0  2  0  0  0  0  0  0  0  0  0
  -10.4270    1.4905   -9.3655 C   0  0  0  0  0  0  0  0  0  0  0  0
  -10.7021   -0.0074   -9.4650 C   0  0  1  0  0  0  0  0  0  0  0  0
   -9.6225   -0.7476   -8.6875 C   0  0  2  0  0  0  0  0  0  0  0  0
   -8.2614   -0.4989   -9.3422 C   0  0  1  0  0  0  0  0  0  0  0  0
   -7.9022    0.9965   -9.2889 C   0  0  1  0  0  0  0  0  0  0  0  0
   -8.7294    3.3051   -9.6070 N   0  3  0  0  0  0  0  0  0  0  0  0
  -12.0712   -0.3384   -8.9511 N   0  3  0  0  0  0  0  0  0  0  0  0
   -7.2695   -1.2680   -8.6739 O   0  0  0  0  0  0  0  0  0  0  0  0
   -9.9024   -2.1590   -8.6553 O   0  0  0  0  0  0  0  0  0  0  0  0
   -6.7062    1.2386  -10.0589 O   0  0  0  0  0  0  0  0  0  0  0  0
  -10.0940   -2.6599   -7.3611 C   0  0  2  0  0  0  0  0  0  0  0  0
   -9.9045   -4.1804   -7.3567 C   0  0  1  0  0  0  0  0  0  0  0  0
  -11.1013   -4.8845   -7.9967 C   0  0  0  0  0  0  0  0  0  0  0  0
  -12.3753   -4.4088   -7.3174 C   0  0  1  0  0  0  0  0  0  0  0  0
  -12.4831   -2.9004   -7.4582 C   0  0  1  0  0  0  0  0  0  0  0  0
  -13.7425   -2.3639   -6.8024 C   0  0  0  0  0  0  0  0  0  0  0  0
   -8.6614   -4.5303   -8.1155 N   0  3  0  0  0  0  0  0  0  0  0  0
  -13.5063   -2.3078   -5.3178 N   0  3  0  0  0  0  0  0  0  0  0  0
  -13.5096   -5.0331   -7.9020 O   0  0  0  0  0  0  0  0  0  0  0  0
  -11.3544   -2.2815   -6.8180 O   0  0  0  0  0  0  0  0  0  0  0  0
  1  2  1  0  0  0  0
  1 22  1  6  0  0  0
  1 10  1  0  0  0  0
  2  3  1  0  0  0  0
  2  7  1  6  0  0  0
  3  4  1  0  0  0  0
  3  8  1  6  0  0  0
  4  5  1  0  0  0  0
  4  9  1  6  0  0  0
  5  6  1  1  0  0  0
  5 10  1  0  0  0  0
  6 11  1  0  0  0  0
 12 13  1  0  0  0  0
 12 17  1  0  0  0  0
 12 18  1  1  0  0  0
 13 14  1  0  0  0  0
 14 15  1  0  0  0  0
 14 19  1  1  0  0  0
 15 16  1  0  0  0  0
 15 21  1  6  0  0  0
 16 17  1  0  0  0  0
 16 20  1  1  0  0  0
 17 22  1  6  0  0  0
 23 21  1  6  0  0  0
 23 24  1  0  0  0  0
 23 32  1  0  0  0  0
 24 25  1  0  0  0  0
 24 29  1  6  0  0  0
 25 26  1  0  0  0  0
 26 27  1  0  0  0  0
 26 31  1  6  0  0  0
 27 28  1  1  0  0  0
 27 32  1  0  0  0  0
 28 30  1  0  0  0  0
M  CHG  5   8   1  18   1  19   1  29   1  30   1
M  END
>  <CHROM.1>
-151.86185202,-55.87038296,75.02044372,-48.85515554,-163.93471463,-138.45149116
179.31861658,172.22692933,-118.44384590,-173.10150202,132.76048861,-160.60478390
44.62035102,57.40939977,78.24759719,69.70526934,-8.30371287,-0.79648994,-9.07991382
0.56410364,0.31797026,-0.21662257

>  <Name>
2tob cryst

>  <RI>
0

>  <Rbt.Current_Directory>
/home/itssahil/PROJECTS/Mol_Feturizer/New_Systems/rnas/2tob

>  <Rbt.Executable>
rbdock ($Id: //depot/dev/client3/rdock/2013.1/src/exe/rbdock.cxx#4 $)

>  <Rbt.Library>
libRbt.so (2013.1, Build901 2013/11/27)

>  <Rbt.Parameter_File>
/export/apps/rDock/src/rDock_2013.1_src/data/scripts/dock_solv.prm

>  <Rbt.Receptor>
prm/blind_docking_100.prm

>  <SCORE>
-48.1558

>  <SCORE.INTER>
-41.96

>  <SCORE.INTER.CONST>
1

>  <SCORE.INTER.POLAR>
-7.79145

>  <SCORE.INTER.ROT>
6

>  <SCORE.INTER.SOLV>
41.7853

>  <SCORE.INTER.VDW>
-23.5303

>  <SCORE.INTER.norm>
-1.31125

>  <SCORE.INTRA>
-9.97909

>  <SCORE.INTRA.DIHEDRAL>
10.3545

>  <SCORE.INTRA.DIHEDRAL.0>
18.4221

>  <SCORE.INTRA.POLAR>
1.07887

>  <SCORE.INTRA.POLAR.0>
-1.57101

>  <SCORE.INTRA.REPUL>
-0.710852

>  <SCORE.INTRA.REPUL.0>
0.730195

>  <SCORE.INTRA.SOLV>
-1.92891

>  <SCORE.INTRA.SOLV.lig_0>
-127.221

>  <SCORE.INTRA.VDW>
-14.3058

>  <SCORE.INTRA.VDW.0>
10.8385

>  <SCORE.INTRA.norm>
-0.311847

>  <SCORE.RESTR>
3.78328

>  <SCORE.RESTR.CAVITY>
3.78328

>  <SCORE.RESTR.norm>
0.118227

>  <SCORE.SYSTEM>
0

>  <SCORE.SYSTEM.CONST>
0

>  <SCORE.SYSTEM.DIHEDRAL>
0

>  <SCORE.SYSTEM.SOLV>
0

>  <SCORE.SYSTEM.norm>
0

>  <SCORE.heavy>
32

>  <SCORE.norm>
-1.50487

>  <RMSD>
3.285

$$$$
2tob cryst
 OpenBabel11021811463D
libRbt.so/2013.1/901 2013/11/27
 32 34  0  0  0  0  0  0  0  0999 V2000
   -5.3720    1.5604   -9.3754 C   0  0  2  0  0  0  0  0  0  0  0  0
   -4.4234    2.3725  -10.2516 C   0  0  1  0  0  0  0  0  0  0  0  0
   -4.1393    1.5890  -11.5334 C   0  0  2  0  0  0  0  0  0  0  0  0
   -3.6068    0.1867  -11.2100 C   0  0  1  0  0  0  0  0  0  0  0  0
   -4.5477   -0.5167  -10.2257 C   0  0  1  0  0  0  0  0  0  0  0  0
   -4.0401   -1.8587   -9.7241 C   0  0  0  0  0  0  0  0  0  0  0  0
   -5.0131    3.6292  -10.5738 O   0  0  0  0  0  0  0  0  0  0  0  0
   -3.2087    2.2072  -12.5302 N   0  3  0  0  0  0  0  0  0  0  0  0
   -3.5181   -0.5633  -12.4149 O   0  0  0  0  0  0  0  0  0  0  0  0
   -4.7646    0.3191   -9.0713 O   0  0  0  0  0  0  0  0  0  0  0  0
   -5.1082   -2.6405   -9.1989 O   0  0  0  0  0  0  0  0  0  0  0  0
   -8.9169    1.9437   -9.9530 C   0  0  2  0  0  0  0  0  0  0  0  0
  -10.3103    1.5726   -9.4277 C   0  0  0  0  0  0  0  0  0  0  0  0
  -10.5440    0.0644   -9.4274 C   0  0  1  0  0  0  0  0  0  0  0  0
   -9.4535   -0.5914   -8.5916 C   0  0  2  0  0  0  0  0  0  0  0  0
   -8.0925   -0.3503   -9.2494 C   0  0  1  0  0  0  0  0  0  0  0  0
   -7.7742    1.1546   -9.2948 C   0  0  1  0  0  0  0  0  0  0  0  0
   -8.6595    3.4127   -9.7767 N   0  3  0  0  0  0  0  0  0  0  0  0
  -11.9093   -0.2686   -8.9046 N   0  3  0  0  0  0  0  0  0  0  0  0
   -7.0877   -1.0447   -8.5214 O   0  0  0  0  0  0  0  0  0  0  0  0
   -9.6957   -2.0046   -8.4660 O   0  0  0  0  0  0  0  0  0  0  0  0
   -6.5768    1.3768  -10.0686 O   0  0  0  0  0  0  0  0  0  0  0  0
   -9.3209   -2.5258   -7.2208 C   0  0  2  0  0  0  0  0  0  0  0  0
   -8.8303   -3.9681   -7.3852 C   0  0  1  0  0  0  0  0  0  0  0  0
  -10.0005   -4.9213   -7.6298 C   0  0  0  0  0  0  0  0  0  0  0  0
  -11.0312   -4.7305   -6.5289 C   0  0  1  0  0  0  0  0  0  0  0  0
  -11.4915   -3.2832   -6.5211 C   0  0  1  0  0  0  0  0  0  0  0  0
  -12.5297   -3.0302   -5.4429 C   0  0  0  0  0  0  0  0  0  0  0  0
   -7.8813   -4.0434   -8.5416 N   0  3  0  0  0  0  0  0  0  0  0  0
  -13.1997   -1.7167   -5.7412 N   0  3  0  0  0  0  0  0  0  0  0  0
  -12.1415   -5.5918   -6.7372 O   0  0  0  0  0  0  0  0  0  0  0  0
  -10.3660   -2.4281   -6.2591 O   0  0  0  0  0  0  0  0  0  0  0  0
  1  2  1  0  0  0  0
  1 22  1  6  0  0  0
  1 10  1  0  0  0  0
  2  3  1  0  0  0  0
  2  7  1  6  0  0  0
  3  4  1  0  0  0  0
  3  8  1  6  0  0  0
  4  5  1  0  0  0  0
  4  9  1  6  0  0  0
  5  6  1  1  0  0  0
  5 10  1  0  0  0  0
  6 11  1  0  0  0  0
 12 13  1  0  0  0  0
 12 17  1  0  0  0  0
 12 18  1  1  0  0  0
 13 14  1  0  0  0  0
 14 15  1  0  0  0  0
 14 19  1  1  0  0  0
 15 16  1  0  0  0  0
 15 21  1  6  0  0  0
 16 17  1  0  0  0  0
 16 20  1  1  0  0  0
 17 22  1  6  0  0  0
 23 21  1  6  0  0  0
 23 24  1  0  0  0  0
 23 32  1  0  0  0  0
 24 25  1  0  0  0  0
 24 29  1  6  0  0  0
 25 26  1  0  0  0  0
 26 27  1  0  0  0  0
 26 31  1  6  0  0  0
 27 28  1  1  0  0  0
 27 32  1  0  0  0  0
 28 30  1  0  0  0  0
M  CHG  5   8   1  18   1  19   1  29   1  30   1
M  END
>  <CHROM.1>
-154.59563552,-179.11250172,-45.90747888,-47.63282469,-160.49427148,-66.86993636
62.35832063,-176.63979679,-144.60543754,-150.83787448,139.49020178,-147.24847992
-78.52847497,-54.36464638,-164.54865065,70.20309549,-7.92035486,-0.76315461
-8.94783617,0.65126874,0.36559132,-0.28481474

>  <Name>
2tob cryst

>  <RI>
0

>  <Rbt.Current_Directory>
/home/itssahil/PROJECTS/Mol_Feturizer/New_Systems/rnas/2tob

>  <Rbt.Executable>
rbdock ($Id: //depot/dev/client3/rdock/2013.1/src/exe/rbdock.cxx#4 $)

>  <Rbt.Library>
libRbt.so (2013.1, Build901 2013/11/27)

>  <Rbt.Parameter_File>
/export/apps/rDock/src/rDock_2013.1_src/data/scripts/dock_solv.prm

>  <Rbt.Receptor>
prm/blind_docking_100.prm

>  <SCORE>
-51.0956

>  <SCORE.INTER>
-37.6405

>  <SCORE.INTER.CONST>
1

>  <SCORE.INTER.POLAR>
-7.63323

>  <SCORE.INTER.ROT>
6

>  <SCORE.INTER.SOLV>
46.1875

>  <SCORE.INTER.VDW>
-22.6454

>  <SCORE.INTER.norm>
-1.17627

>  <SCORE.INTRA>
-17.812

>  <SCORE.INTRA.DIHEDRAL>
6.81038

>  <SCORE.INTRA.DIHEDRAL.0>
18.4221

>  <SCORE.INTRA.POLAR>
-0.653578

>  <SCORE.INTRA.POLAR.0>
-1.57101

>  <SCORE.INTRA.REPUL>
-0.696376

>  <SCORE.INTRA.REPUL.0>
0.730195

>  <SCORE.INTRA.SOLV>
-1.51981

>  <SCORE.INTRA.SOLV.lig_0>
-127.221

>  <SCORE.INTRA.VDW>
-14.7532

>  <SCORE.INTRA.VDW.0>
10.8385

>  <SCORE.INTRA.norm>
-0.556625

>  <SCORE.RESTR>
4.35695

>  <SCORE.RESTR.CAVITY>
4.35695

>  <SCORE.RESTR.norm>
0.136155

>  <SCORE.SYSTEM>
0

>  <SCORE.SYSTEM.CONST>
0

>  <SCORE.SYSTEM.DIHEDRAL>
0

>  <SCORE.SYSTEM.SOLV>
0

>  <SCORE.SYSTEM.norm>
0

>  <SCORE.heavy>
32

>  <SCORE.norm>
-1.59674

>  <RMSD>
3.312

$$$$
2tob cryst
 OpenBabel11021811463D
libRbt.so/2013.1/901 2013/11/27
 32 34  0  0  0  0  0  0  0  0999 V2000
   -6.1967    1.2002   -9.0389 C   0  0  2  0  0  0  0  0  0  0  0  0
   -5.4236    2.1851   -9.9104 C   0  0  1  0  0  0  0  0  0  0  0  0
   -5.0014    1.4805  -11.1999 C   0  0  2  0  0  0  0  0  0  0  0  0
   -4.2107    0.2024  -10.8906 C   0  0  1  0  0  0  0  0  0  0  0  0
   -4.9963   -0.6752   -9.9101 C   0  0  1  0  0  0  0  0  0  0  0  0
   -4.2407   -1.9003   -9.4220 C   0  0  0  0  0  0  0  0  0  0  0  0
   -6.2427    3.3094  -10.2196 O   0  0  0  0  0  0  0  0  0  0  0  0
   -4.2097    2.2726  -12.1937 N   0  3  0  0  0  0  0  0  0  0  0  0
   -3.9863   -0.5071  -12.1025 O   0  0  0  0  0  0  0  0  0  0  0  0
   -5.3630    0.0945   -8.7476 O   0  0  0  0  0  0  0  0  0  0  0  0
   -2.9779   -2.0089  -10.0711 O   0  0  0  0  0  0  0  0  0  0  0  0
   -9.7239    0.3943   -9.6831 C   0  0  2  0  0  0  0  0  0  0  0  0
  -10.8727   -0.4947   -9.1879 C   0  0  0  0  0  0  0  0  0  0  0  0
  -10.4924   -1.9727   -9.1709 C   0  0  1  0  0  0  0  0  0  0  0  0
   -9.2567   -2.1417   -8.2978 C   0  0  2  0  0  0  0  0  0  0  0  0
   -8.0825   -1.3853   -8.9242 C   0  0  1  0  0  0  0  0  0  0  0  0
   -8.3824    0.1228   -8.9841 C   0  0  1  0  0  0  0  0  0  0  0  0
  -10.0721    1.8462   -9.5224 N   0  3  0  0  0  0  0  0  0  0  0  0
  -11.6303   -2.8156   -8.6781 N   0  3  0  0  0  0  0  0  0  0  0  0
   -6.9071   -1.6240   -8.1604 O   0  0  0  0  0  0  0  0  0  0  0  0
   -8.9254   -3.5352   -8.1571 O   0  0  0  0  0  0  0  0  0  0  0  0
   -7.3476    0.7967   -9.7303 O   0  0  0  0  0  0  0  0  0  0  0  0
   -8.5518   -3.8905   -6.8545 C   0  0  2  0  0  0  0  0  0  0  0  0
   -9.3078   -5.1506   -6.4202 C   0  0  1  0  0  0  0  0  0  0  0  0
  -10.7692   -4.8320   -6.1034 C   0  0  0  0  0  0  0  0  0  0  0  0
  -10.8195   -3.6923   -5.0986 C   0  0  1  0  0  0  0  0  0  0  0  0
  -10.1049   -2.4839   -5.6780 C   0  0  1  0  0  0  0  0  0  0  0  0
  -10.1262   -1.3065   -4.7201 C   0  0  0  0  0  0  0  0  0  0  0  0
   -9.2505   -6.1694   -7.5168 N   0  3  0  0  0  0  0  0  0  0  0  0
   -8.9704   -1.4592   -3.7694 N   0  3  0  0  0  0  0  0  0  0  0  0
  -12.1670   -3.3601   -4.7955 O   0  0  0  0  0  0  0  0  0  0  0  0
   -8.7306   -2.8211   -5.9320 O   0  0  0  0  0  0  0  0  0  0  0  0
  1  2  1  0  0  0  0
  1 22  1  6  0  0  0
  1 10  1  0  0  0  0
  2  3  1  0  0  0  0
  2  7  1  6  0  0  0
  3  4  1  0  0  0  0
  3  8  1  6  0  0  0
  4  5  1  0  0  0  0
  4  9  1  6  0  0  0
  5  6  1  1  0  0  0
  5 10  1  0  0  0  0
  6 11  1  0  0  0  0
 12 13  1  0  0  0  0
 12 17  1  0  0  0  0
 12 18  1  1  0  0  0
 13 14  1  0  0  0  0
 14 15  1  0  0  0  0
 14 19  1  1  0  0  0
 15 16  1  0  0  0  0
 15 21  1  6  0  0  0
 16 17  1  0  0  0  0
 16 20  1  1  0  0  0
 17 22  1  6  0  0  0
 23 21  1  6  0  0  0
 23 24  1  0  0  0  0
 23 32  1  0  0  0  0
 24 25  1  0  0  0  0
 24 29  1  6  0  0  0
 25 26  1  0  0  0  0
 26 27  1  0  0  0  0
 26 31  1  6  0  0  0
 27 28  1  1  0  0  0
 27 32  1  0  0  0  0
 28 30  1  0  0  0  0
M  CHG  5   8   1  18   1  19   1  29   1  30   1
M  END
>  <CHROM.1>
-165.53014138,-175.92027352,-149.75381181,54.64619797,-4.09001316,-168.63825875
-179.36144890,-68.04271501,-137.99043736,-47.85949563,152.51106893,131.79148952
-176.69559658,66.90995072,85.14753640,172.44894074,-7.89270241,-1.25291492
-8.41813076,0.78097723,0.41442454,-0.42265507

>  <Name>
2tob cryst

>  <RI>
2.04895e+07

>  <Rbt.Current_Directory>
/home/itssahil/PROJECTS/Mol_Feturizer/New_Systems/rnas/2tob

>  <Rbt.Executable>
rbdock ($Id: //depot/dev/client3/rdock/2013.1/src/exe/rbdock.cxx#4 $)

>  <Rbt.Library>
libRbt.so (2013.1, Build901 2013/11/27)

>  <Rbt.Parameter_File>
/export/apps/rDock/src/rDock_2013.1_src/data/scripts/dock_solv.prm

>  <Rbt.Receptor>
prm/blind_docking_20.prm

>  <SCORE>
-19.1566

>  <SCORE.INTER>
-15.1254

>  <SCORE.INTER.CONST>
1

>  <SCORE.INTER.POLAR>
-3.82179

>  <SCORE.INTER.ROT>
6

>  <SCORE.INTER.SOLV>
38.1913

>  <SCORE.INTER.VDW>
-17.6747

>  <SCORE.INTER.norm>
-0.472669

>  <SCORE.INTRA>
-6.70836

>  <SCORE.INTRA.DIHEDRAL>
9.05534

>  <SCORE.INTRA.DIHEDRAL.0>
18.4221

>  <SCORE.INTRA.POLAR>
1.42864

>  <SCORE.INTRA.POLAR.0>
-1.57101

>  <SCORE.INTRA.REPUL>
-0.720755

>  <SCORE.INTRA.REPUL.0>
0.730195

>  <SCORE.INTRA.SOLV>
-3.06022

>  <SCORE.INTRA.SOLV.lig_0>
-127.221

>  <SCORE.INTRA.VDW>
-10.9595

>  <SCORE.INTRA.VDW.0>
10.8385

>  <SCORE.INTRA.norm>
-0.209636

>  <SCORE.RESTR>
2.67713

>  <SCORE.RESTR.CAVITY>
2.67713

>  <SCORE.RESTR.norm>
0.0836604

>  <SCORE.SYSTEM>
0

>  <SCORE.SYSTEM.CONST>
0

>  <SCORE.SYSTEM.DIHEDRAL>
0

>  <SCORE.SYSTEM.SOLV>
0

>  <SCORE.SYSTEM.norm>
0

>  <SCORE.heavy>
32

>  <SCORE.norm>
-0.598645

>  <RMSD>
3.341

$$$$
2tob cryst
 OpenBabel11021811463D
libRbt.so/2013.1/901 2013/11/27
 32 34  0  0  0  0  0  0  0  0999 V2000
   -5.3558    1.6336   -9.4353 C   0  0  2  0  0  0  0  0  0  0  0  0
   -4.4078    2.4263  -10.3297 C   0  0  1  0  0  0  0  0  0  0  0  0
   -4.1453    1.6263  -11.6060 C   0  0  2  0  0  0  0  0  0  0  0  0
   -3.6243    0.2219  -11.2732 C   0  0  1  0  0  0  0  0  0  0  0  0
   -4.5622   -0.4611  -10.2718 C   0  0  1  0  0  0  0  0  0  0  0  0
   -4.0636   -1.8030   -9.7612 C   0  0  0  0  0  0  0  0  0  0  0  0
   -4.9875    3.6857  -10.6592 O   0  0  0  0  0  0  0  0  0  0  0  0
   -3.2187    2.2241  -12.6188 N   0  3  0  0  0  0  0  0  0  0  0  0
   -3.5560   -0.5417  -12.4709 O   0  0  0  0  0  0  0  0  0  0  0  0
   -4.7583    0.3891   -9.1242 O   0  0  0  0  0  0  0  0  0  0  0  0
   -5.1196   -2.5367   -9.1494 O   0  0  0  0  0  0  0  0  0  0  0  0
   -8.9128    1.9940   -9.9410 C   0  0  2  0  0  0  0  0  0  0  0  0
  -10.2933    1.5917   -9.4047 C   0  0  0  0  0  0  0  0  0  0  0  0
  -10.5121    0.0819   -9.4494 C   0  0  1  0  0  0  0  0  0  0  0  0
   -9.4010   -0.5892   -8.6536 C   0  0  2  0  0  0  0  0  0  0  0  0
   -8.0539   -0.3128   -9.3260 C   0  0  1  0  0  0  0  0  0  0  0  0
   -7.7513    1.1960   -9.3279 C   0  0  1  0  0  0  0  0  0  0  0  0
   -8.6670    3.4591   -9.7215 N   0  3  0  0  0  0  0  0  0  0  0  0
  -11.8648   -0.2820   -8.9149 N   0  3  0  0  0  0  0  0  0  0  0  0
   -7.0300   -1.0198   -8.6378 O   0  0  0  0  0  0  0  0  0  0  0  0
   -9.6271   -2.0081   -8.5699 O   0  0  0  0  0  0  0  0  0  0  0  0
   -6.5696    1.4555  -10.1140 O   0  0  0  0  0  0  0  0  0  0  0  0
   -9.8804   -2.4561   -7.2669 C   0  0  2  0  0  0  0  0  0  0  0  0
   -9.4904   -3.9323   -7.1377 C   0  0  1  0  0  0  0  0  0  0  0  0
  -10.5108   -4.8326   -7.8347 C   0  0  0  0  0  0  0  0  0  0  0  0
  -11.8995   -4.5022   -7.3118 C   0  0  1  0  0  0  0  0  0  0  0  0
  -12.1934   -3.0343   -7.5681 C   0  0  1  0  0  0  0  0  0  0  0  0
  -13.5734   -2.6432   -7.0714 C   0  0  0  0  0  0  0  0  0  0  0  0
   -8.1410   -4.1472   -7.7513 N   0  3  0  0  0  0  0  0  0  0  0  0
  -13.5101   -2.5154   -5.5739 N   0  3  0  0  0  0  0  0  0  0  0  0
  -12.8745   -5.3117   -7.9536 O   0  0  0  0  0  0  0  0  0  0  0  0
  -11.2287   -2.2278   -6.8711 O   0  0  0  0  0  0  0  0  0  0  0  0
  1  2  1  0  0  0  0
  1 22  1  6  0  0  0
  1 10  1  0  0  0  0
  2  3  1  0  0  0  0
  2  7  1  6  0  0  0
  3  4  1  0  0  0  0
  3  8  1  6  0  0  0
  4  5  1  0  0  0  0
  4  9  1  6  0  0  0
  5  6  1  1  0  0  0
  5 10  1  0  0  0  0
  6 11  1  0  0  0  0
 12 13  1  0  0  0  0
 12 17  1  0  0  0  0
 12 18  1  1  0  0  0
 13 14  1  0  0  0  0
 14 15  1  0  0  0  0
 14 19  1  1  0  0  0
 15 16  1  0  0  0  0
 15 21  1  6  0  0  0
 16 17  1  0  0  0  0
 16 20  1  1  0  0  0
 17 22  1  6  0  0  0
 23 21  1  6  0  0  0
 23 24  1  0  0  0  0
 23 32  1  0  0  0  0
 24 25  1  0  0  0  0
 24 29  1  6  0  0  0
 25 26  1  0  0  0  0
 26 27  1  0  0  0  0
 26 31  1  6  0  0  0
 27 28  1  1  0  0  0
 27 32  1  0  0  0  0
 28 30  1  0  0  0  0
M  CHG  5   8   1  18   1  19   1  29   1  30   1
M  END
>  <CHROM.1>
-157.25043589,-63.04800040,-160.60178201,75.95605629,-163.75670044,-139.66358258
-179.52975674,59.58512901,-114.45830545,95.73602276,139.28659726,-154.59874963
81.61054777,64.26724945,76.35445073,64.95904426,-8.10764484,-0.73099186,-9.10217039
0.59986909,0.31390382,-0.24392166

>  <Name>
2tob cryst

>  <RI>
0

>  <Rbt.Current_Directory>
/home/itssahil/PROJECTS/Mol_Feturizer/New_Systems/rnas/2tob

>  <Rbt.Executable>
rbdock ($Id: //depot/dev/client3/rdock/2013.1/src/exe/rbdock.cxx#4 $)

>  <Rbt.Library>
libRbt.so (2013.1, Build901 2013/11/27)

>  <Rbt.Parameter_File>
/export/apps/rDock/src/rDock_2013.1_src/data/scripts/dock_solv.prm

>  <Rbt.Receptor>
prm/blind_docking_100.prm

>  <SCORE>
-37.8494

>  <SCORE.INTER>
-32.7864

>  <SCORE.INTER.CONST>
1

>  <SCORE.INTER.POLAR>
-6.85262

>  <SCORE.INTER.ROT>
6

>  <SCORE.INTER.SOLV>
41.0232

>  <SCORE.INTER.VDW>
-20.2899

>  <SCORE.INTER.norm>
-1.02457

>  <SCORE.INTRA>
-8.61366

>  <SCORE.INTRA.DIHEDRAL>
14.4673

>  <SCORE.INTRA.DIHEDRAL.0>
18.4221

>  <SCORE.INTRA.POLAR>
1.02146

>  <SCORE.INTRA.POLAR.0>
-1.57101

>  <SCORE.INTRA.REPUL>
-0.730195

>  <SCORE.INTRA.REPUL.0>
0.730195

>  <SCORE.INTRA.SOLV>
-0.402938

>  <SCORE.INTRA.SOLV.lig_0>
-127.221

>  <SCORE.INTRA.VDW>
-15.4678

>  <SCORE.INTRA.VDW.0>
10.8385

>  <SCORE.INTRA.norm>
-0.269177

>  <SCORE.RESTR>
3.55059

>  <SCORE.RESTR.CAVITY>
3.55059

>  <SCORE.RESTR.norm>
0.110956

>  <SCORE.SYSTEM>
0

>  <SCORE.SYSTEM.CONST>
0

>  <SCORE.SYSTEM.DIHEDRAL>
0

>  <SCORE.SYSTEM.SOLV>
0

>  <SCORE.SYSTEM.norm>
0

>  <SCORE.heavy>
32

>  <SCORE.norm>
-1.18279

>  <RMSD>
3.357

$$$$
2tob cryst
 OpenBabel11021811463D
libRbt.so/2013.1/901 2013/11/27
 32 34  0  0  0  0  0  0  0  0999 V2000
   -5.3082    1.5895   -9.3738 C   0  0  2  0  0  0  0  0  0  0  0  0
   -4.3344    2.3687  -10.2522 C   0  0  1  0  0  0  0  0  0  0  0  0
   -4.0923    1.5833  -11.5415 C   0  0  2  0  0  0  0  0  0  0  0  0
   -3.6146    0.1584  -11.2318 C   0  0  1  0  0  0  0  0  0  0  0  0
   -4.5754   -0.5133  -10.2446 C   0  0  1  0  0  0  0  0  0  0  0  0
   -4.1187   -1.8782   -9.7562 C   0  0  0  0  0  0  0  0  0  0  0  0
   -4.8751    3.6504  -10.5612 O   0  0  0  0  0  0  0  0  0  0  0  0
   -3.1453    2.1703  -12.5417 N   0  3  0  0  0  0  0  0  0  0  0  0
   -3.5658   -0.5862  -12.4424 O   0  0  0  0  0  0  0  0  0  0  0  0
   -4.7492    0.3225   -9.0829 O   0  0  0  0  0  0  0  0  0  0  0  0
   -5.1735   -2.5528   -9.0778 O   0  0  0  0  0  0  0  0  0  0  0  0
   -8.8692    2.0023   -9.9140 C   0  0  2  0  0  0  0  0  0  0  0  0
  -10.2550    1.6075   -9.3862 C   0  0  0  0  0  0  0  0  0  0  0  0
  -10.4749    0.0975   -9.4153 C   0  0  1  0  0  0  0  0  0  0  0  0
   -9.3722   -0.5652   -8.6012 C   0  0  2  0  0  0  0  0  0  0  0  0
   -8.0185   -0.2979   -9.2639 C   0  0  1  0  0  0  0  0  0  0  0  0
   -7.7143    1.2104   -9.2806 C   0  0  1  0  0  0  0  0  0  0  0  0
   -8.6239    3.4697   -9.7093 N   0  3  0  0  0  0  0  0  0  0  0  0
  -11.8331   -0.2589   -8.8894 N   0  3  0  0  0  0  0  0  0  0  0  0
   -7.0019   -0.9978   -8.5577 O   0  0  0  0  0  0  0  0  0  0  0  0
   -9.6005   -1.9828   -8.5030 O   0  0  0  0  0  0  0  0  0  0  0  0
   -6.5249    1.4596  -10.0584 O   0  0  0  0  0  0  0  0  0  0  0  0
   -9.2626   -2.5164   -7.2525 C   0  0  2  0  0  0  0  0  0  0  0  0
   -8.7833   -3.9628   -7.4147 C   0  0  1  0  0  0  0  0  0  0  0  0
   -9.9568   -4.9017   -7.6953 C   0  0  0  0  0  0  0  0  0  0  0  0
  -11.0129   -4.7074   -6.6192 C   0  0  1  0  0  0  0  0  0  0  0  0
  -11.4580   -3.2553   -6.6127 C   0  0  1  0  0  0  0  0  0  0  0  0
  -12.5202   -2.9986   -5.5592 C   0  0  0  0  0  0  0  0  0  0  0  0
   -7.8063   -4.0403   -8.5475 N   0  3  0  0  0  0  0  0  0  0  0  0
  -12.9925   -1.5784   -5.7111 N   0  3  0  0  0  0  0  0  0  0  0  0
  -12.1266   -5.5554   -6.8613 O   0  0  0  0  0  0  0  0  0  0  0  0
  -10.3305   -2.4141   -6.3166 O   0  0  0  0  0  0  0  0  0  0  0  0
  1  2  1  0  0  0  0
  1 22  1  6  0  0  0
  1 10  1  0  0  0  0
  2  3  1  0  0  0  0
  2  7  1  6  0  0  0
  3  4  1  0  0  0  0
  3  8  1  6  0  0  0
  4  5  1  0  0  0  0
  4  9  1  6  0  0  0
  5  6  1  1  0  0  0
  5 10  1  0  0  0  0
  6 11  1  0  0  0  0
 12 13  1  0  0  0  0
 12 17  1  0  0  0  0
 12 18  1  1  0  0  0
 13 14  1  0  0  0  0
 14 15  1  0  0  0  0
 14 19  1  1  0  0  0
 15 16  1  0  0  0  0
 15 21  1  6  0  0  0
 16 17  1  0  0  0  0
 16 20  1  1  0  0  0
 17 22  1  6  0  0  0
 23 21  1  6  0  0  0
 23 24  1  0  0  0  0
 23 32  1  0  0  0  0
 24 25  1  0  0  0  0
 24 29  1  6  0  0  0
 25 26  1  0  0  0  0
 26 27  1  0  0  0  0
 26 31  1  6  0  0  0
 27 28  1  1  0  0  0
 27 32  1  0  0  0  0
 28 30  1  0  0  0  0
M  CHG  5   8   1  18   1  19   1  29   1  30   1
M  END
>  <CHROM.1>
-157.78717821,71.06037169,-43.82294587,-49.40445296,-167.77067457,-127.12491399
-173.65637725,-176.57470682,-142.13911440,-55.90682135,141.87338751,-148.73946384
43.32843492,-53.85364949,-174.70928983,83.75793830,-7.87508947,-0.73862975
-8.95606422,0.64595985,0.37441530,-0.26393049

>  <Name>
2tob cryst

>  <RI>
0

>  <Rbt.Current_Directory>
/home/itssahil/PROJECTS/Mol_Feturizer/New_Systems/rnas/2tob

>  <Rbt.Executable>
rbdock ($Id: //depot/dev/client3/rdock/2013.1/src/exe/rbdock.cxx#4 $)

>  <Rbt.Library>
libRbt.so (2013.1, Build901 2013/11/27)

>  <Rbt.Parameter_File>
/export/apps/rDock/src/rDock_2013.1_src/data/scripts/dock_solv.prm

>  <Rbt.Receptor>
prm/blind_docking_80.prm

>  <SCORE>
-50.692

>  <SCORE.INTER>
-41.225

>  <SCORE.INTER.CONST>
1

>  <SCORE.INTER.POLAR>
-8.7066

>  <SCORE.INTER.ROT>
6

>  <SCORE.INTER.SOLV>
47.2231

>  <SCORE.INTER.VDW>
-21.8023

>  <SCORE.INTER.norm>
-1.28828

>  <SCORE.INTRA>
-15.6101

>  <SCORE.INTRA.DIHEDRAL>
9.39739

>  <SCORE.INTRA.DIHEDRAL.0>
18.4221

>  <SCORE.INTRA.POLAR>
-0.0622467

>  <SCORE.INTRA.POLAR.0>
-1.57101

>  <SCORE.INTRA.REPUL>
-0.664962

>  <SCORE.INTRA.REPUL.0>
0.730195

>  <SCORE.INTRA.SOLV>
-0.957828

>  <SCORE.INTRA.SOLV.lig_0>
-127.221

>  <SCORE.INTRA.VDW>
-16.2935

>  <SCORE.INTRA.VDW.0>
10.8385

>  <SCORE.INTRA.norm>
-0.487816

>  <SCORE.RESTR>
6.14304

>  <SCORE.RESTR.CAVITY>
6.14304

>  <SCORE.RESTR.norm>
0.19197

>  <SCORE.SYSTEM>
0

>  <SCORE.SYSTEM.CONST>
0

>  <SCORE.SYSTEM.DIHEDRAL>
0

>  <SCORE.SYSTEM.SOLV>
0

>  <SCORE.SYSTEM.norm>
0

>  <SCORE.heavy>
32

>  <SCORE.norm>
-1.58413

>  <RMSD>
3.364

$$$$
2tob cryst
 OpenBabel11021811463D
libRbt.so/2013.1/901 2013/11/27
 32 34  0  0  0  0  0  0  0  0999 V2000
   -7.6432   -0.9393   -7.2749 C   0  0  2  0  0  0  0  0  0  0  0  0
   -8.4654    0.2904   -6.9027 C   0  0  1  0  0  0  0  0  0  0  0  0
   -8.8510    1.0347   -8.1814 C   0  0  2  0  0  0  0  0  0  0  0  0
   -7.6067    1.3728   -9.0132 C   0  0  1  0  0  0  0  0  0  0  0  0
   -6.7670    0.1103   -9.2365 C   0  0  1  0  0  0  0  0  0  0  0  0
   -5.4355    0.3574   -9.9265 C   0  0  0  0  0  0  0  0  0  0  0  0
   -9.6406   -0.1036   -6.1995 O   0  0  0  0  0  0  0  0  0  0  0  0
   -9.6526    2.2909   -8.0357 N   0  3  0  0  0  0  0  0  0  0  0  0
   -8.0187    1.9078  -10.2647 O   0  0  0  0  0  0  0  0  0  0  0  0
   -6.4846   -0.5216   -7.9719 O   0  0  0  0  0  0  0  0  0  0  0  0
   -5.6186    0.5597  -11.3241 O   0  0  0  0  0  0  0  0  0  0  0  0
  -10.6448   -2.5850   -8.5933 C   0  0  2  0  0  0  0  0  0  0  0  0
  -11.8336   -3.4602   -8.1741 C   0  0  0  0  0  0  0  0  0  0  0  0
  -11.3879   -4.7520   -7.4946 C   0  0  1  0  0  0  0  0  0  0  0  0
  -10.5260   -4.3909   -6.2926 C   0  0  2  0  0  0  0  0  0  0  0  0
   -9.2589   -3.6769   -6.7700 C   0  0  1  0  0  0  0  0  0  0  0  0
   -9.6165   -2.3562   -7.4742 C   0  0  1  0  0  0  0  0  0  0  0  0
  -11.1209   -1.2529   -9.0975 N   0  3  0  0  0  0  0  0  0  0  0  0
  -12.5688   -5.5833   -7.0914 N   0  3  0  0  0  0  0  0  0  0  0  0
   -8.4107   -3.4274   -5.6563 O   0  0  0  0  0  0  0  0  0  0  0  0
  -10.1746   -5.5731   -5.5507 O   0  0  0  0  0  0  0  0  0  0  0  0
   -8.4327   -1.7839   -8.0681 O   0  0  0  0  0  0  0  0  0  0  0  0
   -9.7240   -5.3027   -4.2521 C   0  0  2  0  0  0  0  0  0  0  0  0
   -9.6743   -6.5991   -3.4366 C   0  0  1  0  0  0  0  0  0  0  0  0
  -11.0799   -7.0546   -3.0438 C   0  0  0  0  0  0  0  0  0  0  0  0
  -11.7964   -5.9056   -2.3530 C   0  0  1  0  0  0  0  0  0  0  0  0
  -11.8457   -4.7118   -3.2906 C   0  0  1  0  0  0  0  0  0  0  0  0
  -12.5569   -3.5297   -2.6574 C   0  0  0  0  0  0  0  0  0  0  0  0
   -9.0149   -7.6728   -4.2465 N   0  3  0  0  0  0  0  0  0  0  0  0
  -12.5953   -2.4148   -3.6666 N   0  3  0  0  0  0  0  0  0  0  0  0
  -13.1142   -6.2922   -1.9898 O   0  0  0  0  0  0  0  0  0  0  0  0
  -10.5049   -4.3015   -3.6083 O   0  0  0  0  0  0  0  0  0  0  0  0
  1  2  1  0  0  0  0
  1 22  1  6  0  0  0
  1 10  1  0  0  0  0
  2  3  1  0  0  0  0
  2  7  1  6  0  0  0
  3  4  1  0  0  0  0
  3  8  1  1  0  0  0
  4  5  1  0  0  0  0
  4  9  1  6  0  0  0
  5  6  1  1  0  0  0
  5 10  1  0  0  0  0
  6 11  1  0  0  0  0
 12 13  1  0  0  0  0
 12 17  1  0  0  0  0
 12 18  1  1  0  0  0
 13 14  1  0  0  0  0
 14 15  1  0  0  0  0
 14 19  1  1  0  0  0
 15 16  1  0  0  0  0
 15 21  1  6  0  0  0
 16 17  1  0  0  0  0
 16 20  1  1  0  0  0
 17 22  1  6  0  0  0
 23 21  1  6  0  0  0
 23 24  1  0  0  0  0
 23 32  1  0  0  0  0
 24 25  1  0  0  0  0
 24 29  1  6  0  0  0
 25 26  1  0  0  0  0
 26 27  1  0  0  0  0
 26 31  1  6  0  0  0
 27 28  1  1  0  0  0
 27 32  1  0  0  0  0
 28 30  1  0  0  0  0
M  CHG  5   8   1  18   1  19   1  29   1  30   1
M  END
>  <CHROM.1>
-63.55597510,-160.16551044,-57.69775668,-33.68523562,-77.02648106,-172.12782415
-144.22841363,-173.68267316,-162.66995837,150.92568266,150.83482602,167.34911950
-65.00134609,61.74027548,-178.29261201,-167.55233627,-9.70054310,-2.66726288
-6.49166023,-1.07577545,-0.52738471,2.68694349

>  <Name>
2tob cryst

>  <RI>
3.75586e+07

>  <Rbt.Current_Directory>
/home/itssahil/PROJECTS/Mol_Feturizer/New_Systems/rnas/2tob

>  <Rbt.Executable>
rbdock ($Id: //depot/dev/client3/rdock/2013.1/src/exe/rbdock.cxx#4 $)

>  <Rbt.Library>
libRbt.so (2013.1, Build901 2013/11/27)

>  <Rbt.Parameter_File>
/export/apps/rDock/src/rDock_2013.1_src/data/scripts/dock_solv.prm

>  <Rbt.Receptor>
prm/pocket_docking_8.prm

>  <SCORE>
-61.1749

>  <SCORE.INTER>
-46.8149

>  <SCORE.INTER.CONST>
1

>  <SCORE.INTER.POLAR>
-7.15321

>  <SCORE.INTER.ROT>
6

>  <SCORE.INTER.SOLV>
24.2812

>  <SCORE.INTER.VDW>
-23.0596

>  <SCORE.INTER.norm>
-1.46297

>  <SCORE.INTRA>
-14.36

>  <SCORE.INTRA.DIHEDRAL>
-0.366109

>  <SCORE.INTRA.DIHEDRAL.0>
18.4221

>  <SCORE.INTRA.POLAR>
1.50943

>  <SCORE.INTRA.POLAR.0>
-1.57101

>  <SCORE.INTRA.REPUL>
-0.730195

>  <SCORE.INTRA.REPUL.0>
0.730195

>  <SCORE.INTRA.SOLV>
-4.95185

>  <SCORE.INTRA.SOLV.lig_0>
-127.221

>  <SCORE.INTRA.VDW>
-13.1821

>  <SCORE.INTRA.VDW.0>
10.8385

>  <SCORE.INTRA.norm>
-0.44875

>  <SCORE.RESTR>
0

>  <SCORE.RESTR.CAVITY>
0

>  <SCORE.RESTR.norm>
0

>  <SCORE.SYSTEM>
0

>  <SCORE.SYSTEM.CONST>
0

>  <SCORE.SYSTEM.DIHEDRAL>
0

>  <SCORE.SYSTEM.SOLV>
0

>  <SCORE.SYSTEM.norm>
0

>  <SCORE.heavy>
32

>  <SCORE.norm>
-1.91172

>  <RMSD>
3.386

$$$$
2tob cryst
 OpenBabel11021811463D
libRbt.so/2013.1/901 2013/11/27
 32 34  0  0  0  0  0  0  0  0999 V2000
   -9.5301   -2.0038   -8.8028 C   0  0  2  0  0  0  0  0  0  0  0  0
   -8.2119   -2.7713   -8.8172 C   0  0  1  0  0  0  0  0  0  0  0  0
   -7.1610   -1.9662   -8.0522 C   0  0  2  0  0  0  0  0  0  0  0  0
   -7.0369   -0.5476   -8.6237 C   0  0  1  0  0  0  0  0  0  0  0  0
   -8.4190    0.1108   -8.6962 C   0  0  1  0  0  0  0  0  0  0  0  0
   -8.4319    1.4666   -9.3830 C   0  0  0  0  0  0  0  0  0  0  0  0
   -8.3838   -4.0467   -8.2050 O   0  0  0  0  0  0  0  0  0  0  0  0
   -5.7809   -2.5397   -7.9620 N   0  3  0  0  0  0  0  0  0  0  0  0
   -6.1805    0.2160   -7.7836 O   0  0  0  0  0  0  0  0  0  0  0  0
   -9.3324   -0.7429   -9.4140 O   0  0  0  0  0  0  0  0  0  0  0  0
   -9.6832    2.1191   -9.1930 O   0  0  0  0  0  0  0  0  0  0  0  0
  -12.2264   -2.3757   -8.0806 C   0  0  2  0  0  0  0  0  0  0  0  0
  -13.4166   -3.3330   -7.9316 C   0  0  0  0  0  0  0  0  0  0  0  0
  -12.9759   -4.7911   -7.8369 C   0  0  1  0  0  0  0  0  0  0  0  0
  -12.0154   -4.9284   -6.6636 C   0  0  2  0  0  0  0  0  0  0  0  0
  -10.7581   -4.0983   -6.9344 C   0  0  1  0  0  0  0  0  0  0  0  0
  -11.1115   -2.6049   -7.0479 C   0  0  1  0  0  0  0  0  0  0  0  0
  -12.6829   -0.9475   -7.9960 N   0  3  0  0  0  0  0  0  0  0  0  0
  -14.1575   -5.7018   -7.6864 N   0  3  0  0  0  0  0  0  0  0  0  0
   -9.8221   -4.3046   -5.8839 O   0  0  0  0  0  0  0  0  0  0  0  0
  -11.6599   -6.3084   -6.4619 O   0  0  0  0  0  0  0  0  0  0  0  0
   -9.9513   -1.8600   -7.4732 O   0  0  0  0  0  0  0  0  0  0  0  0
  -11.4309   -6.6343   -5.1187 C   0  0  2  0  0  0  0  0  0  0  0  0
  -10.6068   -7.9229   -5.0277 C   0  0  1  0  0  0  0  0  0  0  0  0
  -11.4614   -9.1457   -5.3622 C   0  0  0  0  0  0  0  0  0  0  0  0
  -12.7051   -9.1330   -4.4882 C   0  0  1  0  0  0  0  0  0  0  0  0
  -13.4706   -7.8433   -4.7276 C   0  0  1  0  0  0  0  0  0  0  0  0
  -14.7308   -7.7737   -3.8843 C   0  0  0  0  0  0  0  0  0  0  0  0
   -9.4561   -7.8475   -5.9836 N   0  3  0  0  0  0  0  0  0  0  0  0
  -15.4793   -6.5265   -4.2681 N   0  3  0  0  0  0  0  0  0  0  0  0
  -13.5305  -10.2499   -4.7873 O   0  0  0  0  0  0  0  0  0  0  0  0
  -12.6400   -6.7249   -4.3726 O   0  0  0  0  0  0  0  0  0  0  0  0
  1  2  1  0  0  0  0
  1 22  1  1  0  0  0
  1 10  1  0  0  0  0
  2  3  1  0  0  0  0
  2  7  1  1  0  0  0
  3  4  1  0  0  0  0
  3  8  1  6  0  0  0
  4  5  1  0  0  0  0
  4  9  1  1  0  0  0
  5  6  1  6  0  0  0
  5 10  1  0  0  0  0
  6 11  1  0  0  0  0
 12 13  1  0  0  0  0
 12 17  1  0  0  0  0
 12 18  1  1  0  0  0
 13 14  1  0  0  0  0
 14 15  1  0  0  0  0
 14 19  1  1  0  0  0
 15 16  1  0  0  0  0
 15 21  1  6  0  0  0
 16 17  1  0  0  0  0
 16 20  1  1  0  0  0
 17 22  1  6  0  0  0
 23 21  1  6  0  0  0
 23 24  1  0  0  0  0
 23 32  1  0  0  0  0
 24 25  1  0  0  0  0
 24 29  1  6  0  0  0
 25 26  1  0  0  0  0
 26 27  1  0  0  0  0
 26 31  1  6  0  0  0
 27 28  1  1  0  0  0
 27 32  1  0  0  0  0
 28 30  1  0  0  0  0
M  CHG  5   8   1  18   1  19   1  29   1  30   1
M  END
>  <CHROM.1>
-110.12401580,175.39573900,174.46103156,178.41264468,-169.17430969,-169.99151149
22.61170967,-174.30836769,-147.34764539,168.85001581,-49.29007102,-160.28056811
-35.66767756,176.16568270,-175.34994474,72.35644104,-10.75467820,-4.10092864
-6.96692369,1.04841123,0.06540899,-0.40923385

>  <Name>
2tob cryst

>  <RI>
0

>  <Rbt.Current_Directory>
/home/itssahil/PROJECTS/Mol_Feturizer/New_Systems/rnas/2tob

>  <Rbt.Executable>
rbdock ($Id: //depot/dev/client3/rdock/2013.1/src/exe/rbdock.cxx#4 $)

>  <Rbt.Library>
libRbt.so (2013.1, Build901 2013/11/27)

>  <Rbt.Parameter_File>
/export/apps/rDock/src/rDock_2013.1_src/data/scripts/dock_solv.prm

>  <Rbt.Receptor>
prm/pocket_docking_3.prm

>  <SCORE>
-45.9251

>  <SCORE.INTER>
-29.6551

>  <SCORE.INTER.CONST>
1

>  <SCORE.INTER.POLAR>
-5.36406

>  <SCORE.INTER.ROT>
6

>  <SCORE.INTER.SOLV>
29.7036

>  <SCORE.INTER.VDW>
-19.391

>  <SCORE.INTER.norm>
-0.92672

>  <SCORE.INTRA>
-16.292

>  <SCORE.INTRA.DIHEDRAL>
0.855588

>  <SCORE.INTRA.DIHEDRAL.0>
18.4221

>  <SCORE.INTRA.POLAR>
0.93346

>  <SCORE.INTRA.POLAR.0>
-1.57101

>  <SCORE.INTRA.REPUL>
-0.730195

>  <SCORE.INTRA.REPUL.0>
0.730195

>  <SCORE.INTRA.SOLV>
-4.68504

>  <SCORE.INTRA.SOLV.lig_0>
-127.221

>  <SCORE.INTRA.VDW>
-13.9001

>  <SCORE.INTRA.VDW.0>
10.8385

>  <SCORE.INTRA.norm>
-0.509126

>  <SCORE.RESTR>
0.0219578

>  <SCORE.RESTR.CAVITY>
0.0219578

>  <SCORE.RESTR.norm>
0.000686181

>  <SCORE.SYSTEM>
0

>  <SCORE.SYSTEM.CONST>
0

>  <SCORE.SYSTEM.DIHEDRAL>
0

>  <SCORE.SYSTEM.SOLV>
0

>  <SCORE.SYSTEM.norm>
0

>  <SCORE.heavy>
32

>  <SCORE.norm>
-1.43516

>  <RMSD>
3.397

$$$$
2tob cryst
 OpenBabel11021811463D
libRbt.so/2013.1/901 2013/11/27
 32 34  0  0  0  0  0  0  0  0999 V2000
   -9.2303   -2.2505   -8.9316 C   0  0  2  0  0  0  0  0  0  0  0  0
   -7.8035   -2.7900   -8.9472 C   0  0  1  0  0  0  0  0  0  0  0  0
   -6.9194   -1.8782   -8.0960 C   0  0  2  0  0  0  0  0  0  0  0  0
   -7.0170   -0.4227   -8.5722 C   0  0  1  0  0  0  0  0  0  0  0  0
   -8.4866    0.0047   -8.6524 C   0  0  1  0  0  0  0  0  0  0  0  0
   -8.7061    1.3838   -9.2524 C   0  0  0  0  0  0  0  0  0  0  0  0
   -7.7777   -4.1149   -8.4232 O   0  0  0  0  0  0  0  0  0  0  0  0
   -5.4662   -2.2236   -7.9928 N   0  3  0  0  0  0  0  0  0  0  0  0
   -6.3196    0.4113   -7.6555 O   0  0  0  0  0  0  0  0  0  0  0  0
   -9.2284   -0.9356   -9.4547 O   0  0  0  0  0  0  0  0  0  0  0  0
  -10.0932    1.6329   -9.4565 O   0  0  0  0  0  0  0  0  0  0  0  0
  -11.9450   -2.0479   -8.4679 C   0  0  2  0  0  0  0  0  0  0  0  0
  -13.3601   -2.6365   -8.5464 C   0  0  0  0  0  0  0  0  0  0  0  0
  -13.3479   -4.1613   -8.6107 C   0  0  1  0  0  0  0  0  0  0  0  0
  -12.6048   -4.6885   -7.3909 C   0  0  2  0  0  0  0  0  0  0  0  0
  -11.1461   -4.2274   -7.4440 C   0  0  1  0  0  0  0  0  0  0  0  0
  -11.0632   -2.6919   -7.3865 C   0  0  1  0  0  0  0  0  0  0  0  0
  -12.0014   -0.5658   -8.2319 N   0  3  0  0  0  0  0  0  0  0  0  0
  -14.7423   -4.7082   -8.6808 N   0  3  0  0  0  0  0  0  0  0  0  0
  -10.4310   -4.8005   -6.3567 O   0  0  0  0  0  0  0  0  0  0  0  0
  -12.6652   -6.1258   -7.3460 O   0  0  0  0  0  0  0  0  0  0  0  0
   -9.7024   -2.2682   -7.6116 O   0  0  0  0  0  0  0  0  0  0  0  0
  -12.1840   -6.6666   -6.1466 C   0  0  2  0  0  0  0  0  0  0  0  0
  -11.7268   -8.1116   -6.3721 C   0  0  1  0  0  0  0  0  0  0  0  0
  -12.9251   -9.0497   -6.5199 C   0  0  0  0  0  0  0  0  0  0  0  0
  -13.8488   -8.8626   -5.3272 C   0  0  1  0  0  0  0  0  0  0  0  0
  -14.2901   -7.4109   -5.2602 C   0  0  1  0  0  0  0  0  0  0  0  0
  -15.2225   -7.1611   -4.0887 C   0  0  0  0  0  0  0  0  0  0  0  0
  -10.8883   -8.1817   -7.6113 N   0  3  0  0  0  0  0  0  0  0  0  0
  -15.5418   -5.6915   -4.0532 N   0  3  0  0  0  0  0  0  0  0  0  0
  -14.9831   -9.7098   -5.4432 O   0  0  0  0  0  0  0  0  0  0  0  0
  -13.1357   -6.5706   -5.0922 O   0  0  0  0  0  0  0  0  0  0  0  0
  1  2  1  0  0  0  0
  1 22  1  1  0  0  0
  1 10  1  0  0  0  0
  2  3  1  0  0  0  0
  2  7  1  1  0  0  0
  3  4  1  0  0  0  0
  3  8  1  6  0  0  0
  4  5  1  0  0  0  0
  4  9  1  1  0  0  0
  5  6  1  6  0  0  0
  5 10  1  0  0  0  0
  6 11  1  0  0  0  0
 12 13  1  0  0  0  0
 12 17  1  0  0  0  0
 12 18  1  1  0  0  0
 13 14  1  0  0  0  0
 14 15  1  0  0  0  0
 14 19  1  1  0  0  0
 15 16  1  0  0  0  0
 15 21  1  6  0  0  0
 16 17  1  0  0  0  0
 16 20  1  1  0  0  0
 17 22  1  6  0  0  0
 23 21  1  6  0  0  0
 23 24  1  0  0  0  0
 23 32  1  0  0  0  0
 24 25  1  0  0  0  0
 24 29  1  6  0  0  0
 25 26  1  0  0  0  0
 26 27  1  0  0  0  0
 26 31  1  6  0  0  0
 27 28  1  1  0  0  0
 27 32  1  0  0  0  0
 28 30  1  0  0  0  0
M  CHG  5   8   1  18   1  19   1  29   1  30   1
M  END
>  <CHROM.1>
-138.80730447,154.99544306,-165.75279518,-74.44649593,172.23396965,-168.43654211
88.62659833,-54.38487699,-170.63357372,-62.37391051,-42.58863440,-156.18380232
178.83632630,-178.94671640,176.73451969,73.54706748,-11.08147912,-3.96737217
-7.41131663,-0.91691724,-0.09903407,2.82839699

>  <Name>
2tob cryst

>  <RI>
2.9538e+07

>  <Rbt.Current_Directory>
/home/itssahil/PROJECTS/Mol_Feturizer/New_Systems/rnas/2tob

>  <Rbt.Executable>
rbdock ($Id: //depot/dev/client3/rdock/2013.1/src/exe/rbdock.cxx#4 $)

>  <Rbt.Library>
libRbt.so (2013.1, Build901 2013/11/27)

>  <Rbt.Parameter_File>
/export/apps/rDock/src/rDock_2013.1_src/data/scripts/dock_solv.prm

>  <Rbt.Receptor>
prm/pocket_docking_2.prm

>  <SCORE>
-41.9344

>  <SCORE.INTER>
-26.3515

>  <SCORE.INTER.CONST>
1

>  <SCORE.INTER.POLAR>
-5.75472

>  <SCORE.INTER.ROT>
6

>  <SCORE.INTER.SOLV>
31.7681

>  <SCORE.INTER.VDW>
-16.5746

>  <SCORE.INTER.norm>
-0.823485

>  <SCORE.INTRA>
-18.5348

>  <SCORE.INTRA.DIHEDRAL>
-1.2154

>  <SCORE.INTRA.DIHEDRAL.0>
18.4221

>  <SCORE.INTRA.POLAR>
0.305346

>  <SCORE.INTRA.POLAR.0>
-1.57101

>  <SCORE.INTRA.REPUL>
-0.730195

>  <SCORE.INTRA.REPUL.0>
0.730195

>  <SCORE.INTRA.SOLV>
-6.26277

>  <SCORE.INTRA.SOLV.lig_0>
-127.221

>  <SCORE.INTRA.VDW>
-12.1829

>  <SCORE.INTRA.VDW.0>
10.8385

>  <SCORE.INTRA.norm>
-0.579213

>  <SCORE.RESTR>
2.95189

>  <SCORE.RESTR.CAVITY>
2.95189

>  <SCORE.RESTR.norm>
0.0922465

>  <SCORE.SYSTEM>
0

>  <SCORE.SYSTEM.CONST>
0

>  <SCORE.SYSTEM.DIHEDRAL>
0

>  <SCORE.SYSTEM.SOLV>
0

>  <SCORE.SYSTEM.norm>
0

>  <SCORE.heavy>
32

>  <SCORE.norm>
-1.31045

>  <RMSD>
3.399

$$$$
2tob cryst
 OpenBabel11021811463D
libRbt.so/2013.1/901 2013/11/27
 32 34  0  0  0  0  0  0  0  0999 V2000
   -7.2376    1.1688   -8.4284 C   0  0  2  0  0  0  0  0  0  0  0  0
   -6.4726    2.2222   -9.2235 C   0  0  1  0  0  0  0  0  0  0  0  0
   -5.9145    1.5771  -10.4924 C   0  0  2  0  0  0  0  0  0  0  0  0
   -5.0638    0.3465  -10.1510 C   0  0  1  0  0  0  0  0  0  0  0  0
   -5.8561   -0.6033   -9.2460 C   0  0  1  0  0  0  0  0  0  0  0  0
   -5.0565   -1.7875   -8.7279 C   0  0  0  0  0  0  0  0  0  0  0  0
   -7.3413    3.2975   -9.5698 O   0  0  0  0  0  0  0  0  0  0  0  0
   -5.1095    2.4423  -11.4118 N   0  3  0  0  0  0  0  0  0  0  0  0
   -4.7077   -0.3182  -11.3567 O   0  0  0  0  0  0  0  0  0  0  0  0
   -6.3544    0.1134   -8.0987 O   0  0  0  0  0  0  0  0  0  0  0  0
   -4.3757   -2.4441   -9.7923 O   0  0  0  0  0  0  0  0  0  0  0  0
  -10.6304    0.0760   -9.3349 C   0  0  2  0  0  0  0  0  0  0  0  0
  -11.7128   -0.9447   -8.9583 C   0  0  0  0  0  0  0  0  0  0  0  0
  -11.1892   -2.3780   -8.9868 C   0  0  1  0  0  0  0  0  0  0  0  0
   -9.9976   -2.4739   -8.0441 C   0  0  2  0  0  0  0  0  0  0  0  0
   -8.8688   -1.5756   -8.5562 C   0  0  1  0  0  0  0  0  0  0  0  0
   -9.3130   -0.1023   -8.5638 C   0  0  1  0  0  0  0  0  0  0  0  0
  -11.1303    1.4770   -9.1284 N   0  3  0  0  0  0  0  0  0  0  0  0
  -12.2653   -3.3517   -8.6097 N   0  3  0  0  0  0  0  0  0  0  0  0
   -7.7236   -1.7406   -7.7296 O   0  0  0  0  0  0  0  0  0  0  0  0
   -9.5385   -3.8346   -7.9485 O   0  0  0  0  0  0  0  0  0  0  0  0
   -8.3074    0.7071   -9.2082 O   0  0  0  0  0  0  0  0  0  0  0  0
   -9.2018   -4.2188   -6.6440 C   0  0  2  0  0  0  0  0  0  0  0  0
  -10.4402   -4.7631   -5.9243 C   0  0  1  0  0  0  0  0  0  0  0  0
  -11.3904   -3.6306   -5.5344 C   0  0  0  0  0  0  0  0  0  0  0  0
  -10.6162   -2.5852   -4.7478 C   0  0  1  0  0  0  0  0  0  0  0  0
   -9.4660   -2.0722   -5.5967 C   0  0  1  0  0  0  0  0  0  0  0  0
   -8.6556   -1.0173   -4.8654 C   0  0  0  0  0  0  0  0  0  0  0  0
  -11.1577   -5.7230   -6.8230 N   0  3  0  0  0  0  0  0  0  0  0  0
   -8.4287    0.1321   -5.8089 N   0  3  0  0  0  0  0  0  0  0  0  0
  -11.4689   -1.5088   -4.3844 O   0  0  0  0  0  0  0  0  0  0  0  0
   -8.5856   -3.1637   -5.9136 O   0  0  0  0  0  0  0  0  0  0  0  0
  1  2  1  0  0  0  0
  1 22  1  6  0  0  0
  1 10  1  0  0  0  0
  2  3  1  0  0  0  0
  2  7  1  6  0  0  0
  3  4  1  0  0  0  0
  3  8  1  1  0  0  0
  4  5  1  0  0  0  0
  4  9  1  6  0  0  0
  5  6  1  1  0  0  0
  5 10  1  0  0  0  0
  6 11  1  0  0  0  0
 12 13  1  0  0  0  0
 12 17  1  0  0  0  0
 12 18  1  1  0  0  0
 13 14  1  0  0  0  0
 14 15  1  0  0  0  0
 14 19  1  1  0  0  0
 15 16  1  0  0  0  0
 15 21  1  6  0  0  0
 16 17  1  0  0  0  0
 16 20  1  1  0  0  0
 17 22  1  6  0  0  0
 23 21  1  6  0  0  0
 23 24  1  0  0  0  0
 23 32  1  0  0  0  0
 24 25  1  0  0  0  0
 24 29  1  6  0  0  0
 25 26  1  0  0  0  0
 26 27  1  0  0  0  0
 26 31  1  6  0  0  0
 27 28  1  1  0  0  0
 27 32  1  0  0  0  0
 28 30  1  0  0  0  0
M  CHG  5   8   1  18   1  19   1  29   1  30   1
M  END
>  <CHROM.1>
-168.32753271,-64.02592879,-158.33976588,59.18419588,-49.80854200,155.02330561
64.55696768,-173.58769745,-138.39873956,62.71869259,153.24787266,88.25567989
-130.87407612,-68.09702686,-133.52677591,59.29708831,-8.53165470,-1.12987313
-8.08196522,0.80135577,0.33562047,-0.39619021

>  <Name>
2tob cryst

>  <RI>
0

>  <Rbt.Current_Directory>
/home/itssahil/PROJECTS/Mol_Feturizer/New_Systems/rnas/2tob

>  <Rbt.Executable>
rbdock ($Id: //depot/dev/client3/rdock/2013.1/src/exe/rbdock.cxx#4 $)

>  <Rbt.Library>
libRbt.so (2013.1, Build901 2013/11/27)

>  <Rbt.Parameter_File>
/export/apps/rDock/src/rDock_2013.1_src/data/scripts/dock_solv.prm

>  <Rbt.Receptor>
prm/blind_docking_40.prm

>  <SCORE>
-30.1451

>  <SCORE.INTER>
-32.1865

>  <SCORE.INTER.CONST>
1

>  <SCORE.INTER.POLAR>
-4.22402

>  <SCORE.INTER.ROT>
6

>  <SCORE.INTER.SOLV>
36.7015

>  <SCORE.INTER.VDW>
-27.2114

>  <SCORE.INTER.norm>
-1.00583

>  <SCORE.INTRA>
-4.21424

>  <SCORE.INTRA.DIHEDRAL>
6.88073

>  <SCORE.INTRA.DIHEDRAL.0>
18.4221

>  <SCORE.INTRA.POLAR>
-0.627145

>  <SCORE.INTRA.POLAR.0>
-1.57101

>  <SCORE.INTRA.REPUL>
-0.71174

>  <SCORE.INTRA.REPUL.0>
0.730195

>  <SCORE.INTRA.SOLV>
7.4605

>  <SCORE.INTRA.SOLV.lig_0>
-127.221

>  <SCORE.INTRA.VDW>
-5.69386

>  <SCORE.INTRA.VDW.0>
10.8385

>  <SCORE.INTRA.norm>
-0.131695

>  <SCORE.RESTR>
6.25562

>  <SCORE.RESTR.CAVITY>
6.25562

>  <SCORE.RESTR.norm>
0.195488

>  <SCORE.SYSTEM>
0

>  <SCORE.SYSTEM.CONST>
0

>  <SCORE.SYSTEM.DIHEDRAL>
0

>  <SCORE.SYSTEM.SOLV>
0

>  <SCORE.SYSTEM.norm>
0

>  <SCORE.heavy>
32

>  <SCORE.norm>
-0.942035

>  <RMSD>
3.405

$$$$
2tob cryst
 OpenBabel11021811463D
libRbt.so/2013.1/901 2013/11/27
 32 34  0  0  0  0  0  0  0  0999 V2000
   -9.3443   -2.0273   -8.8851 C   0  0  2  0  0  0  0  0  0  0  0  0
   -7.9345   -2.5881   -9.0426 C   0  0  1  0  0  0  0  0  0  0  0  0
   -6.9437   -1.6331   -8.3763 C   0  0  2  0  0  0  0  0  0  0  0  0
   -7.0919   -0.2128   -8.9378 C   0  0  1  0  0  0  0  0  0  0  0  0
   -8.5570    0.2303   -8.8617 C   0  0  1  0  0  0  0  0  0  0  0  0
   -8.8423    1.5678   -9.5250 C   0  0  0  0  0  0  0  0  0  0  0  0
   -7.8506   -3.8739   -8.4339 O   0  0  0  0  0  0  0  0  0  0  0  0
   -5.4913   -1.9926   -8.4333 N   0  3  0  0  0  0  0  0  0  0  0  0
   -6.2785    0.6720   -8.1776 O   0  0  0  0  0  0  0  0  0  0  0  0
   -9.4006   -0.7519   -9.4956 O   0  0  0  0  0  0  0  0  0  0  0  0
   -9.0846    2.5761   -8.5490 O   0  0  0  0  0  0  0  0  0  0  0  0
  -11.9591   -2.0146   -8.1898 C   0  0  2  0  0  0  0  0  0  0  0  0
  -13.3343   -2.6735   -8.0169 C   0  0  0  0  0  0  0  0  0  0  0  0
  -13.2274   -4.1765   -7.7740 C   0  0  1  0  0  0  0  0  0  0  0  0
  -12.3551   -4.4049   -6.5473 C   0  0  2  0  0  0  0  0  0  0  0  0
  -10.9388   -3.8957   -6.8268 C   0  0  1  0  0  0  0  0  0  0  0  0
  -10.9524   -2.3791   -7.0873 C   0  0  1  0  0  0  0  0  0  0  0  0
  -12.0933   -0.5201   -8.2525 N   0  3  0  0  0  0  0  0  0  0  0  0
  -14.5840   -4.7919   -7.6032 N   0  3  0  0  0  0  0  0  0  0  0  0
  -10.1020   -4.1976   -5.7175 O   0  0  0  0  0  0  0  0  0  0  0  0
  -12.3172   -5.8033   -6.2088 O   0  0  0  0  0  0  0  0  0  0  0  0
   -9.6450   -1.9465   -7.5181 O   0  0  0  0  0  0  0  0  0  0  0  0
  -13.3295   -6.1894   -5.3207 C   0  0  2  0  0  0  0  0  0  0  0  0
  -12.7129   -6.6592   -3.9989 C   0  0  1  0  0  0  0  0  0  0  0  0
  -12.0759   -8.0407   -4.1509 C   0  0  0  0  0  0  0  0  0  0  0  0
  -13.1020   -8.9956   -4.7393 C   0  0  1  0  0  0  0  0  0  0  0  0
  -13.5758   -8.4568   -6.0778 C   0  0  1  0  0  0  0  0  0  0  0  0
  -14.6015   -9.3729   -6.7204 C   0  0  0  0  0  0  0  0  0  0  0  0
  -11.6689   -5.6791   -3.5595 N   0  3  0  0  0  0  0  0  0  0  0  0
  -13.9051  -10.6463   -7.1158 N   0  3  0  0  0  0  0  0  0  0  0  0
  -12.5347  -10.2869   -4.9092 O   0  0  0  0  0  0  0  0  0  0  0  0
  -14.1923   -7.1729   -5.8819 O   0  0  0  0  0  0  0  0  0  0  0  0
  1  2  1  0  0  0  0
  1 22  1  1  0  0  0
  1 10  1  0  0  0  0
  2  3  1  0  0  0  0
  2  7  1  1  0  0  0
  3  4  1  0  0  0  0
  3  8  1  6  0  0  0
  4  5  1  0  0  0  0
  4  9  1  1  0  0  0
  5  6  1  6  0  0  0
  5 10  1  0  0  0  0
  6 11  1  0  0  0  0
 12 13  1  0  0  0  0
 12 17  1  0  0  0  0
 12 18  1  1  0  0  0
 13 14  1  0  0  0  0
 14 15  1  0  0  0  0
 14 19  1  1  0  0  0
 15 16  1  0  0  0  0
 15 21  1  6  0  0  0
 16 17  1  0  0  0  0
 16 20  1  1  0  0  0
 17 22  1  6  0  0  0
 23 21  1  6  0  0  0
 23 24  1  0  0  0  0
 23 32  1  0  0  0  0
 24 25  1  0  0  0  0
 24 29  1  6  0  0  0
 25 26  1  0  0  0  0
 26 27  1  0  0  0  0
 26 31  1  6  0  0  0
 27 28  1  1  0  0  0
 27 32  1  0  0  0  0
 28 30  1  0  0  0  0
M  CHG  5   8   1  18   1  19   1  29   1  30   1
M  END
>  <CHROM.1>
-136.58788274,63.40205852,-126.99698846,74.21741162,-107.40445869,-165.83916093
-158.58083070,-172.76091987,-89.91220768,-168.63899718,-34.88452892,-115.83035240
67.74141010,66.12798906,-68.24259666,-71.59131175,-10.90729562,-3.94647623
-7.15072542,-1.02975137,0.01362107,2.76779595

>  <Name>
2tob cryst

>  <RI>
0

>  <Rbt.Current_Directory>
/home/itssahil/PROJECTS/Mol_Feturizer/New_Systems/rnas/2tob

>  <Rbt.Executable>
rbdock ($Id: //depot/dev/client3/rdock/2013.1/src/exe/rbdock.cxx#4 $)

>  <Rbt.Library>
libRbt.so (2013.1, Build901 2013/11/27)

>  <Rbt.Parameter_File>
/export/apps/rDock/src/rDock_2013.1_src/data/scripts/dock_solv.prm

>  <Rbt.Receptor>
prm/pocket_docking_3.prm

>  <SCORE>
-36.2462

>  <SCORE.INTER>
-18.8145

>  <SCORE.INTER.CONST>
1

>  <SCORE.INTER.POLAR>
-3.44448

>  <SCORE.INTER.ROT>
6

>  <SCORE.INTER.SOLV>
23.5003

>  <SCORE.INTER.VDW>
-16.4948

>  <SCORE.INTER.norm>
-0.587952

>  <SCORE.INTRA>
-17.4319

>  <SCORE.INTRA.DIHEDRAL>
13.5965

>  <SCORE.INTRA.DIHEDRAL.0>
18.4221

>  <SCORE.INTRA.POLAR>
-2.10998

>  <SCORE.INTRA.POLAR.0>
-1.57101

>  <SCORE.INTRA.REPUL>
-0.730195

>  <SCORE.INTRA.REPUL.0>
0.730195

>  <SCORE.INTRA.SOLV>
-1.2093

>  <SCORE.INTRA.SOLV.lig_0>
-127.221

>  <SCORE.INTRA.VDW>
-12.8006

>  <SCORE.INTRA.VDW.0>
10.8385

>  <SCORE.INTRA.norm>
-0.544748

>  <SCORE.RESTR>
0.000218048

>  <SCORE.RESTR.CAVITY>
0.000218048

>  <SCORE.RESTR.norm>
6.81399e-06

>  <SCORE.SYSTEM>
0

>  <SCORE.SYSTEM.CONST>
0

>  <SCORE.SYSTEM.DIHEDRAL>
0

>  <SCORE.SYSTEM.SOLV>
0

>  <SCORE.SYSTEM.norm>
0

>  <SCORE.heavy>
32

>  <SCORE.norm>
-1.13269

>  <RMSD>
3.440

$$$$
2tob cryst
 OpenBabel11021811463D
libRbt.so/2013.1/901 2013/11/27
 32 34  0  0  0  0  0  0  0  0999 V2000
   -7.5846    0.5604   -7.9523 C   0  0  2  0  0  0  0  0  0  0  0  0
   -6.2851   -0.2186   -8.1297 C   0  0  1  0  0  0  0  0  0  0  0  0
   -6.5676   -1.7073   -7.9256 C   0  0  2  0  0  0  0  0  0  0  0  0
   -7.2364   -1.9552   -6.5670 C   0  0  1  0  0  0  0  0  0  0  0  0
   -8.4595   -1.0449   -6.4112 C   0  0  1  0  0  0  0  0  0  0  0  0
   -9.1140   -1.1040   -5.0408 C   0  0  0  0  0  0  0  0  0  0  0  0
   -5.7609   -0.0008   -9.4369 O   0  0  0  0  0  0  0  0  0  0  0  0
   -5.4123   -2.6527   -8.0401 N   0  3  0  0  0  0  0  0  0  0  0  0
   -7.6344   -3.3182   -6.4895 O   0  0  0  0  0  0  0  0  0  0  0  0
   -8.0842    0.3265   -6.6491 O   0  0  0  0  0  0  0  0  0  0  0  0
  -10.5332   -1.0779   -5.1553 O   0  0  0  0  0  0  0  0  0  0  0  0
  -10.8254    0.7594   -8.8307 C   0  0  2  0  0  0  0  0  0  0  0  0
  -12.2816    0.2936   -8.6981 C   0  0  0  0  0  0  0  0  0  0  0  0
  -12.5328   -1.0275   -9.4199 C   0  0  1  0  0  0  0  0  0  0  0  0
  -11.5738   -2.0703   -8.8626 C   0  0  2  0  0  0  0  0  0  0  0  0
  -10.1334   -1.6571   -9.1753 C   0  0  1  0  0  0  0  0  0  0  0  0
   -9.7923   -0.3247   -8.4851 C   0  0  1  0  0  0  0  0  0  0  0  0
  -10.5751    1.9635   -7.9688 N   0  3  0  0  0  0  0  0  0  0  0  0
  -13.9604   -1.4604   -9.2689 N   0  3  0  0  0  0  0  0  0  0  0  0
   -9.2451   -2.6788   -8.7403 O   0  0  0  0  0  0  0  0  0  0  0  0
  -11.8491   -3.3635   -9.4312 O   0  0  0  0  0  0  0  0  0  0  0  0
   -8.4987    0.1366   -8.9272 O   0  0  0  0  0  0  0  0  0  0  0  0
  -12.7871   -4.1050   -8.7013 C   0  0  2  0  0  0  0  0  0  0  0  0
  -12.0673   -5.1102   -7.7959 C   0  0  1  0  0  0  0  0  0  0  0  0
  -11.5115   -6.2803   -8.6080 C   0  0  0  0  0  0  0  0  0  0  0  0
  -12.6322   -6.8782   -9.4432 C   0  0  1  0  0  0  0  0  0  0  0  0
  -13.2085   -5.8034  -10.3484 C   0  0  1  0  0  0  0  0  0  0  0  0
  -14.3322   -6.3425  -11.2148 C   0  0  0  0  0  0  0  0  0  0  0  0
  -10.9422   -4.4237   -7.0843 N   0  3  0  0  0  0  0  0  0  0  0  0
  -13.7277   -7.2565  -12.2454 N   0  3  0  0  0  0  0  0  0  0  0  0
  -12.1433   -7.9596  -10.2240 O   0  0  0  0  0  0  0  0  0  0  0  0
  -13.7441   -4.7403   -9.5423 O   0  0  0  0  0  0  0  0  0  0  0  0
  1  2  1  0  0  0  0
  1 22  1  6  0  0  0
  1 10  1  0  0  0  0
  2  3  1  0  0  0  0
  2  7  1  6  0  0  0
  3  4  1  0  0  0  0
  3  8  1  1  0  0  0
  4  5  1  0  0  0  0
  4  9  1  6  0  0  0
  5  6  1  1  0  0  0
  5 10  1  0  0  0  0
  6 11  1  0  0  0  0
 12 13  1  0  0  0  0
 12 17  1  0  0  0  0
 12 18  1  1  0  0  0
 13 14  1  0  0  0  0
 14 15  1  0  0  0  0
 14 19  1  1  0  0  0
 15 16  1  0  0  0  0
 15 21  1  6  0  0  0
 16 17  1  0  0  0  0
 16 20  1  1  0  0  0
 17 22  1  6  0  0  0
 23 21  1  6  0  0  0
 23 24  1  0  0  0  0
 23 32  1  0  0  0  0
 24 25  1  0  0  0  0
 24 29  1  6  0  0  0
 25 26  1  0  0  0  0
 26 27  1  0  0  0  0
 26 31  1  6  0  0  0
 27 28  1  1  0  0  0
 27 32  1  0  0  0  0
 28 30  1  0  0  0  0
M  CHG  5   8   1  18   1  19   1  29   1  30   1
M  END
>  <CHROM.1>
125.51570009,-48.41534922,172.70218504,-67.09590040,-139.90443480,-45.70816030
107.23956137,60.18498628,-89.47587485,166.58014704,106.37972219,-98.71050152
-169.58469545,-47.79629446,-70.94178438,-177.66101455,-10.33037601,-2.53832020
-8.47202842,0.82068929,-0.28174930,0.17462525

>  <Name>
2tob cryst

>  <RI>
2.04895e+07

>  <Rbt.Current_Directory>
/home/itssahil/PROJECTS/Mol_Feturizer/New_Systems/rnas/2tob

>  <Rbt.Executable>
rbdock ($Id: //depot/dev/client3/rdock/2013.1/src/exe/rbdock.cxx#4 $)

>  <Rbt.Library>
libRbt.so (2013.1, Build901 2013/11/27)

>  <Rbt.Parameter_File>
/export/apps/rDock/src/rDock_2013.1_src/data/scripts/dock_solv.prm

>  <Rbt.Receptor>
prm/blind_docking_20.prm

>  <SCORE>
-24.4937

>  <SCORE.INTER>
-17.3957

>  <SCORE.INTER.CONST>
1

>  <SCORE.INTER.POLAR>
-3.30891

>  <SCORE.INTER.ROT>
6

>  <SCORE.INTER.SOLV>
40.2534

>  <SCORE.INTER.VDW>
-21.5852

>  <SCORE.INTER.norm>
-0.543615

>  <SCORE.INTRA>
-9.51408

>  <SCORE.INTRA.DIHEDRAL>
15.0481

>  <SCORE.INTRA.DIHEDRAL.0>
18.4221

>  <SCORE.INTRA.POLAR>
-1.2839

>  <SCORE.INTRA.POLAR.0>
-1.57101

>  <SCORE.INTRA.REPUL>
-0.730195

>  <SCORE.INTRA.REPUL.0>
0.730195

>  <SCORE.INTRA.SOLV>
2.5396

>  <SCORE.INTRA.SOLV.lig_0>
-127.221

>  <SCORE.INTRA.VDW>
-10.2917

>  <SCORE.INTRA.VDW.0>
10.8385

>  <SCORE.INTRA.norm>
-0.297315

>  <SCORE.RESTR>
2.41608

>  <SCORE.RESTR.CAVITY>
2.41608

>  <SCORE.RESTR.norm>
0.0755026

>  <SCORE.SYSTEM>
0

>  <SCORE.SYSTEM.CONST>
0

>  <SCORE.SYSTEM.DIHEDRAL>
0

>  <SCORE.SYSTEM.SOLV>
0

>  <SCORE.SYSTEM.norm>
0

>  <SCORE.heavy>
32

>  <SCORE.norm>
-0.765428

>  <RMSD>
3.453

$$$$
2tob cryst
 OpenBabel11021811463D
libRbt.so/2013.1/901 2013/11/27
 32 34  0  0  0  0  0  0  0  0999 V2000
   -6.6590    0.7139   -8.4910 C   0  0  2  0  0  0  0  0  0  0  0  0
   -5.9908    1.9269   -9.1308 C   0  0  1  0  0  0  0  0  0  0  0  0
   -5.4420    1.5258  -10.5003 C   0  0  2  0  0  0  0  0  0  0  0  0
   -4.5048    0.3167  -10.3806 C   0  0  1  0  0  0  0  0  0  0  0  0
   -5.2024   -0.8131   -9.6153 C   0  0  1  0  0  0  0  0  0  0  0  0
   -4.3124   -2.0074   -9.3124 C   0  0  0  0  0  0  0  0  0  0  0  0
   -6.9366    2.9825   -9.2792 O   0  0  0  0  0  0  0  0  0  0  0  0
   -4.7270    2.5753  -11.2935 N   0  3  0  0  0  0  0  0  0  0  0  0
   -4.1539   -0.1271  -11.6853 O   0  0  0  0  0  0  0  0  0  0  0  0
   -5.7006   -0.3185   -8.3561 O   0  0  0  0  0  0  0  0  0  0  0  0
   -5.0644   -3.0635   -8.7233 O   0  0  0  0  0  0  0  0  0  0  0  0
   -9.9346    1.2638   -9.1481 C   0  0  2  0  0  0  0  0  0  0  0  0
  -11.4164    1.0415   -8.8167 C   0  0  0  0  0  0  0  0  0  0  0  0
  -11.9043   -0.3377   -9.2518 C   0  0  1  0  0  0  0  0  0  0  0  0
  -11.0317   -1.3902   -8.5819 C   0  0  2  0  0  0  0  0  0  0  0  0
   -9.5906   -1.2489   -9.0783 C   0  0  1  0  0  0  0  0  0  0  0  0
   -9.0159    0.1228   -8.6833 C   0  0  1  0  0  0  0  0  0  0  0  0
   -9.4479    2.5542   -8.5536 N   0  3  0  0  0  0  0  0  0  0  0  0
  -13.3518   -0.5289   -8.9108 N   0  3  0  0  0  0  0  0  0  0  0  0
   -8.7978   -2.2926   -8.5268 O   0  0  0  0  0  0  0  0  0  0  0  0
  -11.5242   -2.7115   -8.8705 O   0  0  0  0  0  0  0  0  0  0  0  0
   -7.7268    0.3087   -9.3042 O   0  0  0  0  0  0  0  0  0  0  0  0
  -11.3008   -3.6281   -7.8349 C   0  0  2  0  0  0  0  0  0  0  0  0
  -12.6395   -4.1460   -7.2987 C   0  0  1  0  0  0  0  0  0  0  0  0
  -13.3370   -3.0849   -6.4471 C   0  0  0  0  0  0  0  0  0  0  0  0
  -12.3750   -2.6027   -5.3733 C   0  0  1  0  0  0  0  0  0  0  0  0
  -11.1267   -2.0455   -6.0349 C   0  0  1  0  0  0  0  0  0  0  0  0
  -10.1263   -1.5408   -5.0108 C   0  0  0  0  0  0  0  0  0  0  0  0
  -13.5258   -4.5193   -8.4470 N   0  3  0  0  0  0  0  0  0  0  0  0
   -8.8577   -1.1838   -5.7362 N   0  3  0  0  0  0  0  0  0  0  0  0
  -12.9887   -1.6017   -4.5737 O   0  0  0  0  0  0  0  0  0  0  0  0
  -10.4901   -3.0836   -6.7990 O   0  0  0  0  0  0  0  0  0  0  0  0
  1  2  1  0  0  0  0
  1 22  1  6  0  0  0
  1 10  1  0  0  0  0
  2  3  1  0  0  0  0
  2  7  1  6  0  0  0
  3  4  1  0  0  0  0
  3  8  1  1  0  0  0
  4  5  1  0  0  0  0
  4  9  1  6  0  0  0
  5  6  1  1  0  0  0
  5 10  1  0  0  0  0
  6 11  1  0  0  0  0
 12 13  1  0  0  0  0
 12 17  1  0  0  0  0
 12 18  1  1  0  0  0
 13 14  1  0  0  0  0
 14 15  1  0  0  0  0
 14 19  1  1  0  0  0
 15 16  1  0  0  0  0
 15 21  1  6  0  0  0
 16 17  1  0  0  0  0
 16 20  1  1  0  0  0
 17 22  1  6  0  0  0
 23 21  1  6  0  0  0
 23 24  1  0  0  0  0
 23 32  1  0  0  0  0
 24 25  1  0  0  0  0
 24 29  1  6  0  0  0
 25 26  1  0  0  0  0
 26 27  1  0  0  0  0
 26 31  1  6  0  0  0
 27 28  1  1  0  0  0
 27 32  1  0  0  0  0
 28 30  1  0  0  0  0
M  CHG  5   8   1  18   1  19   1  29   1  30   1
M  END
>  <CHROM.1>
-128.78245064,-102.12610062,-164.24051818,72.73727654,-174.11821449,-71.21300631
33.42875022,40.81830375,-148.10972251,74.75160675,108.86257136,117.89161694
-35.86140554,58.68938035,172.45305312,-144.24311333,-9.02034560,-0.83233824
-8.38717732,0.50491075,0.26392926,-0.30811466

>  <Name>
2tob cryst

>  <RI>
0

>  <Rbt.Current_Directory>
/home/itssahil/PROJECTS/Mol_Feturizer/New_Systems/rnas/2tob

>  <Rbt.Executable>
rbdock ($Id: //depot/dev/client3/rdock/2013.1/src/exe/rbdock.cxx#4 $)

>  <Rbt.Library>
libRbt.so (2013.1, Build901 2013/11/27)

>  <Rbt.Parameter_File>
/export/apps/rDock/src/rDock_2013.1_src/data/scripts/dock_solv.prm

>  <Rbt.Receptor>
prm/blind_docking_100.prm

>  <SCORE>
-17.7826

>  <SCORE.INTER>
-14.1228

>  <SCORE.INTER.CONST>
1

>  <SCORE.INTER.POLAR>
-3.29577

>  <SCORE.INTER.ROT>
6

>  <SCORE.INTER.SOLV>
35.7646

>  <SCORE.INTER.VDW>
-17.9509

>  <SCORE.INTER.norm>
-0.441339

>  <SCORE.INTRA>
-5.90825

>  <SCORE.INTRA.DIHEDRAL>
21.073

>  <SCORE.INTRA.DIHEDRAL.0>
18.4221

>  <SCORE.INTRA.POLAR>
-0.803924

>  <SCORE.INTRA.POLAR.0>
-1.57101

>  <SCORE.INTRA.REPUL>
-0.715851

>  <SCORE.INTRA.REPUL.0>
0.730195

>  <SCORE.INTRA.SOLV>
2.32464

>  <SCORE.INTRA.SOLV.lig_0>
-127.221

>  <SCORE.INTRA.VDW>
-11.2945

>  <SCORE.INTRA.VDW.0>
10.8385

>  <SCORE.INTRA.norm>
-0.184633

>  <SCORE.RESTR>
2.2485

>  <SCORE.RESTR.CAVITY>
2.2485

>  <SCORE.RESTR.norm>
0.0702657

>  <SCORE.SYSTEM>
0

>  <SCORE.SYSTEM.CONST>
0

>  <SCORE.SYSTEM.DIHEDRAL>
0

>  <SCORE.SYSTEM.SOLV>
0

>  <SCORE.SYSTEM.norm>
0

>  <SCORE.heavy>
32

>  <SCORE.norm>
-0.555706

>  <RMSD>
3.457

$$$$
2tob cryst
 OpenBabel11021811463D
libRbt.so/2013.1/901 2013/11/27
 32 34  0  0  0  0  0  0  0  0999 V2000
   -5.3199    0.5629   -9.4665 C   0  0  2  0  0  0  0  0  0  0  0  0
   -5.1280    2.0714   -9.3448 C   0  0  1  0  0  0  0  0  0  0  0  0
   -5.0368    2.6743  -10.7469 C   0  0  2  0  0  0  0  0  0  0  0  0
   -3.9321    1.9918  -11.5643 C   0  0  1  0  0  0  0  0  0  0  0  0
   -4.1207    0.4712  -11.5331 C   0  0  1  0  0  0  0  0  0  0  0  0
   -2.9976   -0.3131  -12.1915 C   0  0  0  0  0  0  0  0  0  0  0  0
   -6.2255    2.6471   -8.6414 O   0  0  0  0  0  0  0  0  0  0  0  0
   -4.8287    4.1533  -10.8517 N   0  3  0  0  0  0  0  0  0  0  0  0
   -3.9936    2.4598  -12.9058 O   0  0  0  0  0  0  0  0  0  0  0  0
   -4.2194    0.0167  -10.1686 O   0  0  0  0  0  0  0  0  0  0  0  0
   -1.7924   -0.1991  -11.4417 O   0  0  0  0  0  0  0  0  0  0  0  0
   -8.7515    1.2327  -10.0657 C   0  0  2  0  0  0  0  0  0  0  0  0
  -10.1859    1.0947   -9.5381 C   0  0  0  0  0  0  0  0  0  0  0  0
  -10.6439   -0.3602   -9.4853 C   0  0  1  0  0  0  0  0  0  0  0  0
   -9.6663   -1.1413   -8.6181 C   0  0  2  0  0  0  0  0  0  0  0  0
   -8.2831   -1.1318   -9.2737 C   0  0  1  0  0  0  0  0  0  0  0  0
   -7.7419    0.3055   -9.3708 C   0  0  1  0  0  0  0  0  0  0  0  0
   -8.2763    2.6518   -9.9404 N   0  3  0  0  0  0  0  0  0  0  0  0
  -12.0448   -0.4649   -8.9613 N   0  3  0  0  0  0  0  0  0  0  0  0
   -7.3957   -1.9421   -8.5134 O   0  0  0  0  0  0  0  0  0  0  0  0
  -10.1186   -2.4965   -8.4436 O   0  0  0  0  0  0  0  0  0  0  0  0
   -6.5230    0.3167  -10.1429 O   0  0  0  0  0  0  0  0  0  0  0  0
  -10.3265   -2.8464   -7.1030 C   0  0  2  0  0  0  0  0  0  0  0  0
  -10.2831   -4.3703   -6.9488 C   0  0  1  0  0  0  0  0  0  0  0  0
  -11.5565   -5.0139   -7.4981 C   0  0  0  0  0  0  0  0  0  0  0  0
  -12.7628   -4.3518   -6.8522 C   0  0  1  0  0  0  0  0  0  0  0  0
  -12.7293   -2.8613   -7.1421 C   0  0  1  0  0  0  0  0  0  0  0  0
  -13.9158   -2.1428   -6.5258 C   0  0  0  0  0  0  0  0  0  0  0  0
   -9.0974   -4.9126   -7.6860 N   0  3  0  0  0  0  0  0  0  0  0  0
  -13.6425   -1.9683   -5.0568 N   0  3  0  0  0  0  0  0  0  0  0  0
  -13.9650   -4.9172   -7.3552 O   0  0  0  0  0  0  0  0  0  0  0  0
  -11.5318   -2.2954   -6.5830 O   0  0  0  0  0  0  0  0  0  0  0  0
  1  2  1  0  0  0  0
  1 22  1  6  0  0  0
  1 10  1  0  0  0  0
  2  3  1  0  0  0  0
  2  7  1  6  0  0  0
  3  4  1  0  0  0  0
  3  8  1  1  0  0  0
  4  5  1  0  0  0  0
  4  9  1  6  0  0  0
  5  6  1  1  0  0  0
  5 10  1  0  0  0  0
  6 11  1  0  0  0  0
 12 13  1  0  0  0  0
 12 17  1  0  0  0  0
 12 18  1  1  0  0  0
 13 14  1  0  0  0  0
 14 15  1  0  0  0  0
 14 19  1  1  0  0  0
 15 16  1  0  0  0  0
 15 21  1  6  0  0  0
 16 17  1  0  0  0  0
 16 20  1  1  0  0  0
 17 22  1  6  0  0  0
 23 21  1  6  0  0  0
 23 24  1  0  0  0  0
 23 32  1  0  0  0  0
 24 25  1  0  0  0  0
 24 29  1  6  0  0  0
 25 26  1  0  0  0  0
 26 27  1  0  0  0  0
 26 31  1  6  0  0  0
 27 28  1  1  0  0  0
 27 32  1  0  0  0  0
 28 30  1  0  0  0  0
M  CHG  5   8   1  18   1  19   1  29   1  30   1
M  END
>  <CHROM.1>
-84.60953889,50.70853030,-178.40911200,-97.61789834,67.94737660,-178.90451938
-153.88699593,-65.09259469,-120.68579349,-176.45384391,129.22548104,-158.79611974
-176.27462808,65.03059817,78.04876559,43.48696961,-8.32876299,-0.64533802
-9.05938807,-0.57368226,-0.36818655,2.96013649

>  <Name>
2tob cryst

>  <RI>
0

>  <Rbt.Current_Directory>
/home/itssahil/PROJECTS/Mol_Feturizer/New_Systems/rnas/2tob

>  <Rbt.Executable>
rbdock ($Id: //depot/dev/client3/rdock/2013.1/src/exe/rbdock.cxx#4 $)

>  <Rbt.Library>
libRbt.so (2013.1, Build901 2013/11/27)

>  <Rbt.Parameter_File>
/export/apps/rDock/src/rDock_2013.1_src/data/scripts/dock_solv.prm

>  <Rbt.Receptor>
prm/blind_docking_100.prm

>  <SCORE>
-31.5002

>  <SCORE.INTER>
-27.447

>  <SCORE.INTER.CONST>
1

>  <SCORE.INTER.POLAR>
-6.76705

>  <SCORE.INTER.ROT>
6

>  <SCORE.INTER.SOLV>
36.8381

>  <SCORE.INTER.VDW>
-15.6205

>  <SCORE.INTER.norm>
-0.857718

>  <SCORE.INTRA>
-10.2636

>  <SCORE.INTRA.DIHEDRAL>
9.39179

>  <SCORE.INTRA.DIHEDRAL.0>
18.4221

>  <SCORE.INTRA.POLAR>
0.769137

>  <SCORE.INTRA.POLAR.0>
-1.57101

>  <SCORE.INTRA.REPUL>
-0.730195

>  <SCORE.INTRA.REPUL.0>
0.730195

>  <SCORE.INTRA.SOLV>
1.23853

>  <SCORE.INTRA.SOLV.lig_0>
-127.221

>  <SCORE.INTRA.VDW>
-14.5428

>  <SCORE.INTRA.VDW.0>
10.8385

>  <SCORE.INTRA.norm>
-0.320737

>  <SCORE.RESTR>
6.21036

>  <SCORE.RESTR.CAVITY>
6.21036

>  <SCORE.RESTR.norm>
0.194074

>  <SCORE.SYSTEM>
0

>  <SCORE.SYSTEM.CONST>
0

>  <SCORE.SYSTEM.DIHEDRAL>
0

>  <SCORE.SYSTEM.SOLV>
0

>  <SCORE.SYSTEM.norm>
0

>  <SCORE.heavy>
32

>  <SCORE.norm>
-0.984381

>  <RMSD>
3.472

$$$$
2tob cryst
 OpenBabel11021811463D
libRbt.so/2013.1/901 2013/11/27
 32 34  0  0  0  0  0  0  0  0999 V2000
   -5.4382    1.2882   -9.3722 C   0  0  2  0  0  0  0  0  0  0  0  0
   -4.5824    2.2151  -10.2298 C   0  0  1  0  0  0  0  0  0  0  0  0
   -4.2274    1.4978  -11.5326 C   0  0  2  0  0  0  0  0  0  0  0  0
   -3.5528    0.1494  -11.2476 C   0  0  1  0  0  0  0  0  0  0  0  0
   -4.4113   -0.6715  -10.2790 C   0  0  1  0  0  0  0  0  0  0  0  0
   -3.7667   -1.9671   -9.8142 C   0  0  0  0  0  0  0  0  0  0  0  0
   -5.2989    3.4129  -10.5172 O   0  0  0  0  0  0  0  0  0  0  0  0
   -3.3705    2.2332  -12.5158 N   0  3  0  0  0  0  0  0  0  0  0  0
   -3.3951   -0.5565  -12.4720 O   0  0  0  0  0  0  0  0  0  0  0  0
   -4.7056    0.1079   -9.1025 O   0  0  0  0  0  0  0  0  0  0  0  0
   -2.5176   -2.1740  -10.4660 O   0  0  0  0  0  0  0  0  0  0  0  0
   -8.9339    1.6755   -9.9642 C   0  0  2  0  0  0  0  0  0  0  0  0
  -10.3456    1.3708   -9.4451 C   0  0  0  0  0  0  0  0  0  0  0  0
  -10.6489   -0.1249   -9.4422 C   0  0  1  0  0  0  0  0  0  0  0  0
   -9.5942   -0.8282   -8.5989 C   0  0  2  0  0  0  0  0  0  0  0  0
   -8.2202   -0.6522   -9.2503 C   0  0  1  0  0  0  0  0  0  0  0  0
   -7.8322    0.8361   -9.2980 C   0  0  1  0  0  0  0  0  0  0  0  0
   -8.6095    3.1315   -9.7904 N   0  3  0  0  0  0  0  0  0  0  0  0
  -12.0308   -0.3928   -8.9255 N   0  3  0  0  0  0  0  0  0  0  0  0
   -7.2523   -1.3904   -8.5152 O   0  0  0  0  0  0  0  0  0  0  0  0
   -9.9023   -2.2283   -8.4709 O   0  0  0  0  0  0  0  0  0  0  0  0
   -6.6220    1.0004  -10.0661 O   0  0  0  0  0  0  0  0  0  0  0  0
   -9.8566   -2.6904   -7.1491 C   0  0  2  0  0  0  0  0  0  0  0  0
   -9.9400   -4.2203   -7.1281 C   0  0  1  0  0  0  0  0  0  0  0  0
  -11.3606   -4.6967   -7.4321 C   0  0  0  0  0  0  0  0  0  0  0  0
  -12.3273   -4.0024   -6.4863 C   0  0  1  0  0  0  0  0  0  0  0  0
  -12.2014   -2.4987   -6.6588 C   0  0  1  0  0  0  0  0  0  0  0  0
  -13.1493   -1.7473   -5.7418 C   0  0  0  0  0  0  0  0  0  0  0  0
   -9.0002   -4.7850   -8.1487 N   0  3  0  0  0  0  0  0  0  0  0  0
  -12.7014   -1.9730   -4.3236 N   0  3  0  0  0  0  0  0  0  0  0  0
  -13.6608   -4.4118   -6.7548 O   0  0  0  0  0  0  0  0  0  0  0  0
  -10.8605   -2.0939   -6.3348 O   0  0  0  0  0  0  0  0  0  0  0  0
  1  2  1  0  0  0  0
  1 22  1  6  0  0  0
  1 10  1  0  0  0  0
  2  3  1  0  0  0  0
  2  7  1  6  0  0  0
  3  4  1  0  0  0  0
  3  8  1  6  0  0  0
  4  5  1  0  0  0  0
  4  9  1  6  0  0  0
  5  6  1  1  0  0  0
  5 10  1  0  0  0  0
  6 11  1  0  0  0  0
 12 13  1  0  0  0  0
 12 17  1  0  0  0  0
 12 18  1  1  0  0  0
 13 14  1  0  0  0  0
 14 15  1  0  0  0  0
 14 19  1  1  0  0  0
 15 16  1  0  0  0  0
 15 21  1  6  0  0  0
 16 17  1  0  0  0  0
 16 20  1  1  0  0  0
 17 22  1  6  0  0  0
 23 21  1  6  0  0  0
 23 24  1  0  0  0  0
 23 32  1  0  0  0  0
 24 25  1  0  0  0  0
 24 29  1  6  0  0  0
 25 26  1  0  0  0  0
 26 27  1  0  0  0  0
 26 31  1  6  0  0  0
 27 28  1  1  0  0  0
 27 32  1  0  0  0  0
 28 30  1  0  0  0  0
M  CHG  5   8   1  18   1  19   1  29   1  30   1
M  END
>  <CHROM.1>
-145.41397995,-39.69566767,72.94520854,68.70574906,-3.87030983,51.01850097
-140.51012800,173.62573085,-130.50343274,-55.05428614,132.07832567,-169.66105352
76.27604868,-72.97192242,66.99019102,-170.43109778,-8.11403510,-0.78228721
-8.93148273,0.51950670,0.37567493,-0.27597154

>  <Name>
2tob cryst

>  <RI>
0

>  <Rbt.Current_Directory>
/home/itssahil/PROJECTS/Mol_Feturizer/New_Systems/rnas/2tob

>  <Rbt.Executable>
rbdock ($Id: //depot/dev/client3/rdock/2013.1/src/exe/rbdock.cxx#4 $)

>  <Rbt.Library>
libRbt.so (2013.1, Build901 2013/11/27)

>  <Rbt.Parameter_File>
/export/apps/rDock/src/rDock_2013.1_src/data/scripts/dock_solv.prm

>  <Rbt.Receptor>
prm/blind_docking_100.prm

>  <SCORE>
-29.6778

>  <SCORE.INTER>
-27.4938

>  <SCORE.INTER.CONST>
1

>  <SCORE.INTER.POLAR>
-6.6057

>  <SCORE.INTER.ROT>
6

>  <SCORE.INTER.SOLV>
40.258

>  <SCORE.INTER.VDW>
-17.3296

>  <SCORE.INTER.norm>
-0.859182

>  <SCORE.INTRA>
-7.48719

>  <SCORE.INTRA.DIHEDRAL>
12.7309

>  <SCORE.INTRA.DIHEDRAL.0>
18.4221

>  <SCORE.INTRA.POLAR>
1.40154

>  <SCORE.INTRA.POLAR.0>
-1.57101

>  <SCORE.INTRA.REPUL>
-0.730195

>  <SCORE.INTRA.REPUL.0>
0.730195

>  <SCORE.INTRA.SOLV>
-2.6601

>  <SCORE.INTRA.SOLV.lig_0>
-127.221

>  <SCORE.INTRA.VDW>
-13.6368

>  <SCORE.INTRA.VDW.0>
10.8385

>  <SCORE.INTRA.norm>
-0.233975

>  <SCORE.RESTR>
5.30327

>  <SCORE.RESTR.CAVITY>
5.30327

>  <SCORE.RESTR.norm>
0.165727

>  <SCORE.SYSTEM>
0

>  <SCORE.SYSTEM.CONST>
0

>  <SCORE.SYSTEM.DIHEDRAL>
0

>  <SCORE.SYSTEM.SOLV>
0

>  <SCORE.SYSTEM.norm>
0

>  <SCORE.heavy>
32

>  <SCORE.norm>
-0.92743

>  <RMSD>
3.477

$$$$
2tob cryst
 OpenBabel11021811463D
libRbt.so/2013.1/901 2013/11/27
 32 34  0  0  0  0  0  0  0  0999 V2000
   -9.6158   -1.9291   -8.8213 C   0  0  2  0  0  0  0  0  0  0  0  0
   -8.2641   -2.6354   -8.8534 C   0  0  1  0  0  0  0  0  0  0  0  0
   -7.2457   -1.7921   -8.0857 C   0  0  2  0  0  0  0  0  0  0  0  0
   -7.1905   -0.3627   -8.6409 C   0  0  1  0  0  0  0  0  0  0  0  0
   -8.6016    0.2326   -8.6965 C   0  0  1  0  0  0  0  0  0  0  0  0
   -8.6812    1.5944   -9.3669 C   0  0  0  0  0  0  0  0  0  0  0  0
   -8.3733   -3.9243   -8.2555 O   0  0  0  0  0  0  0  0  0  0  0  0
   -5.8403   -2.3029   -8.0112 N   0  3  0  0  0  0  0  0  0  0  0  0
   -6.3639    0.4293   -7.7972 O   0  0  0  0  0  0  0  0  0  0  0  0
   -9.4801   -0.6535   -9.4186 O   0  0  0  0  0  0  0  0  0  0  0  0
   -8.0282    1.5753  -10.6322 O   0  0  0  0  0  0  0  0  0  0  0  0
  -12.2218   -1.4992   -8.4469 C   0  0  2  0  0  0  0  0  0  0  0  0
  -13.7105   -1.8711   -8.4190 C   0  0  0  0  0  0  0  0  0  0  0  0
  -13.9310   -3.3445   -8.0881 C   0  0  1  0  0  0  0  0  0  0  0  0
  -13.2695   -3.6413   -6.7493 C   0  0  2  0  0  0  0  0  0  0  0  0
  -11.7580   -3.4319   -6.8699 C   0  0  1  0  0  0  0  0  0  0  0  0
  -11.4418   -1.9641   -7.2070 C   0  0  1  0  0  0  0  0  0  0  0  0
  -12.0505   -0.0154   -8.6025 N   0  3  0  0  0  0  0  0  0  0  0  0
  -15.3928   -3.6774   -8.0621 N   0  3  0  0  0  0  0  0  0  0  0  0
  -11.1319   -3.8027   -5.6482 O   0  0  0  0  0  0  0  0  0  0  0  0
  -13.5477   -4.9922   -6.3379 O   0  0  0  0  0  0  0  0  0  0  0  0
  -10.0338   -1.8203   -7.4874 O   0  0  0  0  0  0  0  0  0  0  0  0
  -13.0844   -5.9568   -7.2421 C   0  0  2  0  0  0  0  0  0  0  0  0
  -13.6712   -7.3275   -6.8890 C   0  0  1  0  0  0  0  0  0  0  0  0
  -12.9951   -7.9107   -5.6479 C   0  0  0  0  0  0  0  0  0  0  0  0
  -11.4896   -7.9078   -5.8583 C   0  0  1  0  0  0  0  0  0  0  0  0
  -11.0250   -6.4862   -6.1225 C   0  0  1  0  0  0  0  0  0  0  0  0
   -9.5237   -6.4168   -6.3357 C   0  0  0  0  0  0  0  0  0  0  0  0
  -15.1406   -7.1900   -6.6329 N   0  3  0  0  0  0  0  0  0  0  0  0
   -9.1893   -7.2279   -7.5577 N   0  3  0  0  0  0  0  0  0  0  0  0
  -10.8298   -8.4292   -4.7134 O   0  0  0  0  0  0  0  0  0  0  0  0
  -11.6629   -5.9911   -7.3120 O   0  0  0  0  0  0  0  0  0  0  0  0
  1  2  1  0  0  0  0
  1 22  1  1  0  0  0
  1 10  1  0  0  0  0
  2  3  1  0  0  0  0
  2  7  1  1  0  0  0
  3  4  1  0  0  0  0
  3  8  1  6  0  0  0
  4  5  1  0  0  0  0
  4  9  1  1  0  0  0
  5  6  1  6  0  0  0
  5 10  1  0  0  0  0
  6 11  1  0  0  0  0
 12 13  1  0  0  0  0
 12 17  1  0  0  0  0
 12 18  1  1  0  0  0
 13 14  1  0  0  0  0
 14 15  1  0  0  0  0
 14 19  1  1  0  0  0
 15 16  1  0  0  0  0
 15 21  1  6  0  0  0
 16 17  1  0  0  0  0
 16 20  1  1  0  0  0
 17 22  1  6  0  0  0
 23 21  1  1  0  0  0
 23 24  1  0  0  0  0
 23 32  1  0  0  0  0
 24 25  1  0  0  0  0
 24 29  1  1  0  0  0
 25 26  1  0  0  0  0
 26 27  1  0  0  0  0
 26 31  1  1  0  0  0
 27 28  1  6  0  0  0
 27 32  1  0  0  0  0
 28 30  1  0  0  0  0
M  CHG  5   8   1  18   1  19   1  29   1  30   1
M  END
>  <CHROM.1>
-143.48387818,66.71476967,-60.33755179,80.27867273,50.47631028,-61.60070632
-170.30038545,72.31456301,60.04977824,-178.14388503,-28.73250149,-168.08395185
73.67284011,177.57755603,62.36744831,-71.21629914,-10.73787897,-3.45952158
-7.59149033,0.97695833,-0.00827468,-0.36907833

>  <Name>
2tob cryst

>  <RI>
3.35201e+07

>  <Rbt.Current_Directory>
/home/itssahil/PROJECTS/Mol_Feturizer/New_Systems/rnas/2tob

>  <Rbt.Executable>
rbdock ($Id: //depot/dev/client3/rdock/2013.1/src/exe/rbdock.cxx#4 $)

>  <Rbt.Library>
libRbt.so (2013.1, Build901 2013/11/27)

>  <Rbt.Parameter_File>
/export/apps/rDock/src/rDock_2013.1_src/data/scripts/dock_solv.prm

>  <Rbt.Receptor>
prm/pocket_docking_4.prm

>  <SCORE>
-51.5572

>  <SCORE.INTER>
-37.1574

>  <SCORE.INTER.CONST>
1

>  <SCORE.INTER.POLAR>
-6.39549

>  <SCORE.INTER.ROT>
6

>  <SCORE.INTER.SOLV>
36.1205

>  <SCORE.INTER.VDW>
-23.0935

>  <SCORE.INTER.norm>
-1.16117

>  <SCORE.INTRA>
-14.3998

>  <SCORE.INTRA.DIHEDRAL>
-5.10076

>  <SCORE.INTRA.DIHEDRAL.0>
18.4221

>  <SCORE.INTRA.POLAR>
0.864595

>  <SCORE.INTRA.POLAR.0>
-1.57101

>  <SCORE.INTRA.REPUL>
-0.730195

>  <SCORE.INTRA.REPUL.0>
0.730195

>  <SCORE.INTRA.SOLV>
-0.486688

>  <SCORE.INTRA.SOLV.lig_0>
-127.221

>  <SCORE.INTRA.VDW>
-10.8947

>  <SCORE.INTRA.VDW.0>
10.8385

>  <SCORE.INTRA.norm>
-0.449994

>  <SCORE.RESTR>
0

>  <SCORE.RESTR.CAVITY>
0

>  <SCORE.RESTR.norm>
0

>  <SCORE.SYSTEM>
0

>  <SCORE.SYSTEM.CONST>
0

>  <SCORE.SYSTEM.DIHEDRAL>
0

>  <SCORE.SYSTEM.SOLV>
0

>  <SCORE.SYSTEM.norm>
0

>  <SCORE.heavy>
32

>  <SCORE.norm>
-1.61116

>  <RMSD>
3.486

$$$$
2tob cryst
 OpenBabel11021811463D
libRbt.so/2013.1/901 2013/11/27
 32 34  0  0  0  0  0  0  0  0999 V2000
   -8.1061   -2.2139   -7.5879 C   0  0  2  0  0  0  0  0  0  0  0  0
   -6.9505   -1.5899   -8.3640 C   0  0  1  0  0  0  0  0  0  0  0  0
   -7.1796   -0.0817   -8.4671 C   0  0  2  0  0  0  0  0  0  0  0  0
   -8.5514    0.2217   -9.0840 C   0  0  1  0  0  0  0  0  0  0  0  0
   -9.6456   -0.5413   -8.3293 C   0  0  1  0  0  0  0  0  0  0  0  0
  -11.0293   -0.4273   -8.9478 C   0  0  0  0  0  0  0  0  0  0  0  0
   -5.7188   -1.8472   -7.6951 O   0  0  0  0  0  0  0  0  0  0  0  0
   -6.1606    0.7235   -9.2122 N   0  3  0  0  0  0  0  0  0  0  0  0
   -8.7945    1.6206   -9.0052 O   0  0  0  0  0  0  0  0  0  0  0  0
   -9.3154   -1.9434   -8.2712 O   0  0  0  0  0  0  0  0  0  0  0  0
  -11.4987    0.9161   -8.8953 O   0  0  0  0  0  0  0  0  0  0  0  0
  -10.1360   -1.2175   -5.0477 C   0  0  2  0  0  0  0  0  0  0  0  0
  -11.3344   -1.7903   -4.2791 C   0  0  0  0  0  0  0  0  0  0  0  0
  -11.8607   -3.0779   -4.9071 C   0  0  1  0  0  0  0  0  0  0  0  0
  -10.7203   -4.0847   -4.9682 C   0  0  2  0  0  0  0  0  0  0  0  0
   -9.6207   -3.5541   -5.8916 C   0  0  1  0  0  0  0  0  0  0  0  0
   -9.0312   -2.2471   -5.3330 C   0  0  1  0  0  0  0  0  0  0  0  0
   -9.5396   -0.0552   -4.3071 N   0  3  0  0  0  0  0  0  0  0  0  0
  -13.0261   -3.6171   -4.1330 N   0  3  0  0  0  0  0  0  0  0  0  0
   -8.6018   -4.5371   -6.0241 O   0  0  0  0  0  0  0  0  0  0  0  0
  -11.1951   -5.3558   -5.4483 O   0  0  0  0  0  0  0  0  0  0  0  0
   -8.1239   -1.6707   -6.2955 O   0  0  0  0  0  0  0  0  0  0  0  0
  -10.3218   -6.4165   -5.1744 C   0  0  2  0  0  0  0  0  0  0  0  0
  -10.0381   -7.2035   -6.4581 C   0  0  1  0  0  0  0  0  0  0  0  0
  -11.2399   -8.0624   -6.8523 C   0  0  0  0  0  0  0  0  0  0  0  0
  -11.6431   -8.9221   -5.6652 C   0  0  1  0  0  0  0  0  0  0  0  0
  -11.9712   -8.0229   -4.4859 C   0  0  1  0  0  0  0  0  0  0  0  0
  -12.3880   -8.8257   -3.2669 C   0  0  0  0  0  0  0  0  0  0  0  0
   -9.7267   -6.2491   -7.5697 N   0  3  0  0  0  0  0  0  0  0  0  0
  -13.7522   -9.4010   -3.5328 N   0  3  0  0  0  0  0  0  0  0  0  0
  -12.7704   -9.7214   -5.9944 O   0  0  0  0  0  0  0  0  0  0  0  0
  -10.8062   -7.2580   -4.1332 O   0  0  0  0  0  0  0  0  0  0  0  0
  1  2  1  0  0  0  0
  1 22  1  1  0  0  0
  1 10  1  0  0  0  0
  2  3  1  0  0  0  0
  2  7  1  1  0  0  0
  3  4  1  0  0  0  0
  3  8  1  6  0  0  0
  4  5  1  0  0  0  0
  4  9  1  1  0  0  0
  5  6  1  6  0  0  0
  5 10  1  0  0  0  0
  6 11  1  0  0  0  0
 12 13  1  0  0  0  0
 12 17  1  0  0  0  0
 12 18  1  1  0  0  0
 13 14  1  0  0  0  0
 14 15  1  0  0  0  0
 14 19  1  1  0  0  0
 15 16  1  0  0  0  0
 15 21  1  6  0  0  0
 16 17  1  0  0  0  0
 16 20  1  1  0  0  0
 17 22  1  6  0  0  0
 23 21  1  6  0  0  0
 23 24  1  0  0  0  0
 23 32  1  0  0  0  0
 24 25  1  0  0  0  0
 24 29  1  6  0  0  0
 25 26  1  0  0  0  0
 26 27  1  0  0  0  0
 26 31  1  6  0  0  0
 27 28  1  1  0  0  0
 27 32  1  0  0  0  0
 28 30  1  0  0  0  0
M  CHG  5   8   1  18   1  19   1  29   1  30   1
M  END
>  <CHROM.1>
-172.13721644,48.44418825,71.04086978,-52.97459017,-64.77413931,59.60388759
-150.92256811,-171.94095009,-162.68169242,-61.05344512,-110.57632453,-128.45929193
-74.83648525,63.76703579,-71.37559091,53.73055514,-10.02574085,-3.62302646
-6.37267646,-1.04734125,-0.67607062,3.09691693

>  <Name>
2tob cryst

>  <RI>
0

>  <Rbt.Current_Directory>
/home/itssahil/PROJECTS/Mol_Feturizer/New_Systems/rnas/2tob

>  <Rbt.Executable>
rbdock ($Id: //depot/dev/client3/rdock/2013.1/src/exe/rbdock.cxx#4 $)

>  <Rbt.Library>
libRbt.so (2013.1, Build901 2013/11/27)

>  <Rbt.Parameter_File>
/export/apps/rDock/src/rDock_2013.1_src/data/scripts/dock_solv.prm

>  <Rbt.Receptor>
prm/pocket_docking_6.prm

>  <SCORE>
-44.7273

>  <SCORE.INTER>
-25.8844

>  <SCORE.INTER.CONST>
1

>  <SCORE.INTER.POLAR>
-2.92594

>  <SCORE.INTER.ROT>
6

>  <SCORE.INTER.SOLV>
26.5766

>  <SCORE.INTER.VDW>
-23.962

>  <SCORE.INTER.norm>
-0.808889

>  <SCORE.INTRA>
-18.8429

>  <SCORE.INTRA.DIHEDRAL>
1.14475

>  <SCORE.INTRA.DIHEDRAL.0>
18.4221

>  <SCORE.INTRA.POLAR>
-0.706485

>  <SCORE.INTRA.POLAR.0>
-1.57101

>  <SCORE.INTRA.REPUL>
-0.730195

>  <SCORE.INTRA.REPUL.0>
0.730195

>  <SCORE.INTRA.SOLV>
-5.03523

>  <SCORE.INTRA.SOLV.lig_0>
-127.221

>  <SCORE.INTRA.VDW>
-10.8446

>  <SCORE.INTRA.VDW.0>
10.8385

>  <SCORE.INTRA.norm>
-0.588839

>  <SCORE.RESTR>
0

>  <SCORE.RESTR.CAVITY>
0

>  <SCORE.RESTR.norm>
0

>  <SCORE.SYSTEM>
0

>  <SCORE.SYSTEM.CONST>
0

>  <SCORE.SYSTEM.DIHEDRAL>
0

>  <SCORE.SYSTEM.SOLV>
0

>  <SCORE.SYSTEM.norm>
0

>  <SCORE.heavy>
32

>  <SCORE.norm>
-1.39773

>  <RMSD>
3.492

$$$$
2tob cryst
 OpenBabel11021811463D
libRbt.so/2013.1/901 2013/11/27
 32 34  0  0  0  0  0  0  0  0999 V2000
   -5.3937    1.6133   -9.4316 C   0  0  2  0  0  0  0  0  0  0  0  0
   -4.4510    2.4146  -10.3240 C   0  0  1  0  0  0  0  0  0  0  0  0
   -4.1725    1.6138  -11.5963 C   0  0  2  0  0  0  0  0  0  0  0  0
   -3.6361    0.2170  -11.2563 C   0  0  1  0  0  0  0  0  0  0  0  0
   -4.5705   -0.4742  -10.2574 C   0  0  1  0  0  0  0  0  0  0  0  0
   -4.0582   -1.8083   -9.7399 C   0  0  0  0  0  0  0  0  0  0  0  0
   -5.0443    3.6658  -10.6604 O   0  0  0  0  0  0  0  0  0  0  0  0
   -3.2482    2.2196  -12.6065 N   0  3  0  0  0  0  0  0  0  0  0  0
   -3.5525   -0.5496  -12.4512 O   0  0  0  0  0  0  0  0  0  0  0  0
   -4.7827    0.3772   -9.1135 O   0  0  0  0  0  0  0  0  0  0  0  0
   -5.1102   -2.5568   -9.1392 O   0  0  0  0  0  0  0  0  0  0  0  0
   -8.9495    1.9457   -9.9710 C   0  0  2  0  0  0  0  0  0  0  0  0
  -10.3316    1.5454   -9.4373 C   0  0  0  0  0  0  0  0  0  0  0  0
  -10.5410    0.0337   -9.4541 C   0  0  1  0  0  0  0  0  0  0  0  0
   -9.4321   -0.6148   -8.6369 C   0  0  2  0  0  0  0  0  0  0  0  0
   -8.0815   -0.3433   -9.3044 C   0  0  1  0  0  0  0  0  0  0  0  0
   -7.7879    1.1669   -9.3336 C   0  0  1  0  0  0  0  0  0  0  0  0
   -8.7141    3.4163   -9.7784 N   0  3  0  0  0  0  0  0  0  0  0  0
  -11.8956   -0.3279   -8.9227 N   0  3  0  0  0  0  0  0  0  0  0  0
   -7.0587   -1.0304   -8.5947 O   0  0  0  0  0  0  0  0  0  0  0  0
   -9.6503   -2.0332   -8.5270 O   0  0  0  0  0  0  0  0  0  0  0  0
   -6.6018    1.4183  -10.1157 O   0  0  0  0  0  0  0  0  0  0  0  0
   -9.5757   -2.5082   -7.2112 C   0  0  2  0  0  0  0  0  0  0  0  0
   -9.5991   -4.0404   -7.2076 C   0  0  1  0  0  0  0  0  0  0  0  0
  -11.0026   -4.5684   -7.5059 C   0  0  0  0  0  0  0  0  0  0  0  0
  -11.9877   -3.9233   -6.5445 C   0  0  1  0  0  0  0  0  0  0  0  0
  -11.9220   -2.4140   -6.7003 C   0  0  1  0  0  0  0  0  0  0  0  0
  -12.8908   -1.7107   -5.7671 C   0  0  0  0  0  0  0  0  0  0  0  0
   -8.6466   -4.5562   -8.2420 N   0  3  0  0  0  0  0  0  0  0  0  0
  -12.4729   -2.0073   -4.3528 N   0  3  0  0  0  0  0  0  0  0  0  0
  -13.3064   -4.3814   -6.8073 O   0  0  0  0  0  0  0  0  0  0  0  0
  -10.5952   -1.9608   -6.3820 O   0  0  0  0  0  0  0  0  0  0  0  0
  1  2  1  0  0  0  0
  1 22  1  6  0  0  0
  1 10  1  0  0  0  0
  2  3  1  0  0  0  0
  2  7  1  6  0  0  0
  3  4  1  0  0  0  0
  3  8  1  6  0  0  0
  4  5  1  0  0  0  0
  4  9  1  6  0  0  0
  5  6  1  1  0  0  0
  5 10  1  0  0  0  0
  6 11  1  0  0  0  0
 12 13  1  0  0  0  0
 12 17  1  0  0  0  0
 12 18  1  1  0  0  0
 13 14  1  0  0  0  0
 14 15  1  0  0  0  0
 14 19  1  1  0  0  0
 15 16  1  0  0  0  0
 15 21  1  6  0  0  0
 16 17  1  0  0  0  0
 16 20  1  1  0  0  0
 17 22  1  6  0  0  0
 23 21  1  6  0  0  0
 23 24  1  0  0  0  0
 23 32  1  0  0  0  0
 24 25  1  0  0  0  0
 24 29  1  6  0  0  0
 25 26  1  0  0  0  0
 26 27  1  0  0  0  0
 26 31  1  6  0  0  0
 27 28  1  1  0  0  0
 27 32  1  0  0  0  0
 28 30  1  0  0  0  0
M  CHG  5   8   1  18   1  19   1  29   1  30   1
M  END
>  <CHROM.1>
-156.33325216,176.25794548,73.49569942,-50.84360247,-163.35123685,-141.99576838
-64.25477489,58.18284016,-129.62062986,74.02183469,139.46204368,-171.16931326
75.98421507,67.00800678,63.46132001,52.78133888,-8.08597294,-0.63738362,-8.92166006
0.58631517,0.38975982,-0.27439997

>  <Name>
2tob cryst

>  <RI>
0

>  <Rbt.Current_Directory>
/home/itssahil/PROJECTS/Mol_Feturizer/New_Systems/rnas/2tob

>  <Rbt.Executable>
rbdock ($Id: //depot/dev/client3/rdock/2013.1/src/exe/rbdock.cxx#4 $)

>  <Rbt.Library>
libRbt.so (2013.1, Build901 2013/11/27)

>  <Rbt.Parameter_File>
/export/apps/rDock/src/rDock_2013.1_src/data/scripts/dock_solv.prm

>  <Rbt.Receptor>
prm/blind_docking_100.prm

>  <SCORE>
-48.6648

>  <SCORE.INTER>
-38.6547

>  <SCORE.INTER.CONST>
1

>  <SCORE.INTER.POLAR>
-7.78075

>  <SCORE.INTER.ROT>
6

>  <SCORE.INTER.SOLV>
43.1547

>  <SCORE.INTER.VDW>
-21.8189

>  <SCORE.INTER.norm>
-1.20796

>  <SCORE.INTRA>
-14.1722

>  <SCORE.INTRA.DIHEDRAL>
5.72309

>  <SCORE.INTRA.DIHEDRAL.0>
18.4221

>  <SCORE.INTRA.POLAR>
1.31464

>  <SCORE.INTRA.POLAR.0>
-1.57101

>  <SCORE.INTRA.REPUL>
-0.730195

>  <SCORE.INTRA.REPUL.0>
0.730195

>  <SCORE.INTRA.SOLV>
-2.67751

>  <SCORE.INTRA.SOLV.lig_0>
-127.221

>  <SCORE.INTRA.VDW>
-16.5138

>  <SCORE.INTRA.VDW.0>
10.8385

>  <SCORE.INTRA.norm>
-0.442881

>  <SCORE.RESTR>
4.16214

>  <SCORE.RESTR.CAVITY>
4.16214

>  <SCORE.RESTR.norm>
0.130067

>  <SCORE.SYSTEM>
0

>  <SCORE.SYSTEM.CONST>
0

>  <SCORE.SYSTEM.DIHEDRAL>
0

>  <SCORE.SYSTEM.SOLV>
0

>  <SCORE.SYSTEM.norm>
0

>  <SCORE.heavy>
32

>  <SCORE.norm>
-1.52077

>  <RMSD>
3.496

$$$$
2tob cryst
 OpenBabel11021811463D
libRbt.so/2013.1/901 2013/11/27
 32 34  0  0  0  0  0  0  0  0999 V2000
   -9.7445   -0.4795   -7.9776 C   0  0  2  0  0  0  0  0  0  0  0  0
   -8.2309   -0.5796   -8.1388 C   0  0  1  0  0  0  0  0  0  0  0  0
   -7.7511   -1.8891   -7.5122 C   0  0  2  0  0  0  0  0  0  0  0  0
   -8.2084   -1.9956   -6.0514 C   0  0  1  0  0  0  0  0  0  0  0  0
   -9.7194   -1.7573   -5.9568 C   0  0  1  0  0  0  0  0  0  0  0  0
  -10.2564   -1.6963   -4.5362 C   0  0  0  0  0  0  0  0  0  0  0  0
   -7.8849   -0.5496   -9.5209 O   0  0  0  0  0  0  0  0  0  0  0  0
   -6.2820   -2.1757   -7.5481 N   0  3  0  0  0  0  0  0  0  0  0  0
   -7.8913   -3.2923   -5.5611 O   0  0  0  0  0  0  0  0  0  0  0  0
  -10.0613   -0.5126   -6.5988 O   0  0  0  0  0  0  0  0  0  0  0  0
   -9.6739   -0.6119   -3.8203 O   0  0  0  0  0  0  0  0  0  0  0  0
  -12.7295   -1.6627   -8.9576 C   0  0  2  0  0  0  0  0  0  0  0  0
  -14.0313   -2.4244   -8.6741 C   0  0  0  0  0  0  0  0  0  0  0  0
  -13.8295   -3.9371   -8.6885 C   0  0  1  0  0  0  0  0  0  0  0  0
  -12.7577   -4.2894   -7.6662 C   0  0  2  0  0  0  0  0  0  0  0  0
  -11.4276   -3.6573   -8.0836 C   0  0  1  0  0  0  0  0  0  0  0  0
  -11.5408   -2.1227   -8.0990 C   0  0  1  0  0  0  0  0  0  0  0  0
  -12.9280   -0.1867   -8.7645 N   0  3  0  0  0  0  0  0  0  0  0  0
  -15.1150   -4.6543   -8.4032 N   0  3  0  0  0  0  0  0  0  0  0  0
  -10.4076   -4.0670   -7.1816 O   0  0  0  0  0  0  0  0  0  0  0  0
  -12.6120   -5.7174   -7.5603 O   0  0  0  0  0  0  0  0  0  0  0  0
  -10.3402   -1.5506   -8.6585 O   0  0  0  0  0  0  0  0  0  0  0  0
  -12.1524   -6.1392   -6.3059 C   0  0  2  0  0  0  0  0  0  0  0  0
  -11.8260   -7.6358   -6.3459 C   0  0  1  0  0  0  0  0  0  0  0  0
  -13.1033   -8.4759   -6.3569 C   0  0  0  0  0  0  0  0  0  0  0  0
  -13.9806   -8.0560   -5.1887 C   0  0  1  0  0  0  0  0  0  0  0  0
  -14.2942   -6.5746   -5.3069 C   0  0  1  0  0  0  0  0  0  0  0  0
  -15.1753   -6.0948   -4.1678 C   0  0  0  0  0  0  0  0  0  0  0  0
  -11.0245   -7.9387   -7.5746 N   0  3  0  0  0  0  0  0  0  0  0  0
  -16.5434   -6.6918   -4.3544 N   0  3  0  0  0  0  0  0  0  0  0  0
  -15.1858   -8.8080   -5.1806 O   0  0  0  0  0  0  0  0  0  0  0  0
  -13.0685   -5.8245   -5.2626 O   0  0  0  0  0  0  0  0  0  0  0  0
  1  2  1  0  0  0  0
  1 22  1  6  0  0  0
  1 10  1  0  0  0  0
  2  3  1  0  0  0  0
  2  7  1  6  0  0  0
  3  4  1  0  0  0  0
  3  8  1  1  0  0  0
  4  5  1  0  0  0  0
  4  9  1  6  0  0  0
  5  6  1  1  0  0  0
  5 10  1  0  0  0  0
  6 11  1  0  0  0  0
 12 13  1  0  0  0  0
 12 17  1  0  0  0  0
 12 18  1  1  0  0  0
 13 14  1  0  0  0  0
 14 15  1  0  0  0  0
 14 19  1  1  0  0  0
 15 16  1  0  0  0  0
 15 21  1  6  0  0  0
 16 17  1  0  0  0  0
 16 20  1  1  0  0  0
 17 22  1  6  0  0  0
 23 21  1  6  0  0  0
 23 24  1  0  0  0  0
 23 32  1  0  0  0  0
 24 25  1  0  0  0  0
 24 29  1  6  0  0  0
 25 26  1  0  0  0  0
 26 27  1  0  0  0  0
 26 31  1  6  0  0  0
 27 28  1  1  0  0  0
 27 32  1  0  0  0  0
 28 30  1  0  0  0  0
M  CHG  5   8   1  18   1  19   1  29   1  30   1
M  END
>  <CHROM.1>
145.59882028,59.41203684,-51.62671627,66.48434253,61.93592096,86.05276205
-133.92926805,-56.13699483,-152.53763555,63.89525145,105.66684228,-171.51661020
60.15263969,62.34423825,-69.86777000,169.20398569,-11.54610729,-3.81949551
-6.86612295,0.81573037,-0.26196986,-0.50371879

>  <Name>
2tob cryst

>  <RI>
0

>  <Rbt.Current_Directory>
/home/itssahil/PROJECTS/Mol_Feturizer/New_Systems/rnas/2tob

>  <Rbt.Executable>
rbdock ($Id: //depot/dev/client3/rdock/2013.1/src/exe/rbdock.cxx#4 $)

>  <Rbt.Library>
libRbt.so (2013.1, Build901 2013/11/27)

>  <Rbt.Parameter_File>
/export/apps/rDock/src/rDock_2013.1_src/data/scripts/dock_solv.prm

>  <Rbt.Receptor>
prm/pocket_docking_6.prm

>  <SCORE>
-53.427

>  <SCORE.INTER>
-38.462

>  <SCORE.INTER.CONST>
1

>  <SCORE.INTER.POLAR>
-6.78043

>  <SCORE.INTER.ROT>
6

>  <SCORE.INTER.SOLV>
27.4408

>  <SCORE.INTER.VDW>
-19.7868

>  <SCORE.INTER.norm>
-1.20194

>  <SCORE.INTRA>
-14.965

>  <SCORE.INTRA.DIHEDRAL>
2.97844

>  <SCORE.INTRA.DIHEDRAL.0>
18.4221

>  <SCORE.INTRA.POLAR>
0.714797

>  <SCORE.INTRA.POLAR.0>
-1.57101

>  <SCORE.INTRA.REPUL>
-0.730195

>  <SCORE.INTRA.REPUL.0>
0.730195

>  <SCORE.INTRA.SOLV>
-4.78162

>  <SCORE.INTRA.SOLV.lig_0>
-127.221

>  <SCORE.INTRA.VDW>
-12.8427

>  <SCORE.INTRA.VDW.0>
10.8385

>  <SCORE.INTRA.norm>
-0.467656

>  <SCORE.RESTR>
0

>  <SCORE.RESTR.CAVITY>
0

>  <SCORE.RESTR.norm>
0

>  <SCORE.SYSTEM>
0

>  <SCORE.SYSTEM.CONST>
0

>  <SCORE.SYSTEM.DIHEDRAL>
0

>  <SCORE.SYSTEM.SOLV>
0

>  <SCORE.SYSTEM.norm>
0

>  <SCORE.heavy>
32

>  <SCORE.norm>
-1.66959

>  <RMSD>
3.505

$$$$
2tob cryst
 OpenBabel11021811463D
libRbt.so/2013.1/901 2013/11/27
 32 34  0  0  0  0  0  0  0  0999 V2000
   -7.2770    0.5188   -8.0917 C   0  0  2  0  0  0  0  0  0  0  0  0
   -5.8929    0.4451   -8.7286 C   0  0  1  0  0  0  0  0  0  0  0  0
   -5.5988   -1.0062   -9.1091 C   0  0  2  0  0  0  0  0  0  0  0  0
   -5.7516   -1.9312   -7.8943 C   0  0  1  0  0  0  0  0  0  0  0  0
   -7.1162   -1.7072   -7.2336 C   0  0  1  0  0  0  0  0  0  0  0  0
   -7.3155   -2.4691   -5.9337 C   0  0  0  0  0  0  0  0  0  0  0  0
   -5.8467    1.2684   -9.8909 O   0  0  0  0  0  0  0  0  0  0  0  0
   -4.2726   -1.3014   -9.7382 N   0  3  0  0  0  0  0  0  0  0  0  0
   -5.6380   -3.2819   -8.3246 O   0  0  0  0  0  0  0  0  0  0  0  0
   -7.2967   -0.3069   -6.9426 O   0  0  0  0  0  0  0  0  0  0  0  0
   -8.6704   -2.8837   -5.7918 O   0  0  0  0  0  0  0  0  0  0  0  0
  -10.4962    0.9088   -8.9707 C   0  0  2  0  0  0  0  0  0  0  0  0
  -11.9837    0.5703   -8.8036 C   0  0  0  0  0  0  0  0  0  0  0  0
  -12.3448   -0.7709   -9.4360 C   0  0  1  0  0  0  0  0  0  0  0  0
  -11.4671   -1.8482   -8.8138 C   0  0  2  0  0  0  0  0  0  0  0  0
  -10.0010   -1.5725   -9.1572 C   0  0  1  0  0  0  0  0  0  0  0  0
   -9.5497   -0.2292   -8.5574 C   0  0  1  0  0  0  0  0  0  0  0  0
  -10.1441    2.1430   -8.1909 N   0  3  0  0  0  0  0  0  0  0  0  0
  -13.8010   -1.0778   -9.2526 N   0  3  0  0  0  0  0  0  0  0  0  0
   -9.1932   -2.6311   -8.6583 O   0  0  0  0  0  0  0  0  0  0  0  0
  -11.8488   -3.1498   -9.2951 O   0  0  0  0  0  0  0  0  0  0  0  0
   -8.2271    0.0974   -9.0327 O   0  0  0  0  0  0  0  0  0  0  0  0
  -11.9317   -4.1157   -8.2838 C   0  0  2  0  0  0  0  0  0  0  0  0
  -13.2524   -4.8835   -8.4026 C   0  0  1  0  0  0  0  0  0  0  0  0
  -14.4282   -4.0297   -7.9272 C   0  0  0  0  0  0  0  0  0  0  0  0
  -14.1281   -3.5096   -6.5307 C   0  0  1  0  0  0  0  0  0  0  0  0
  -12.8403   -2.7050   -6.5635 C   0  0  1  0  0  0  0  0  0  0  0  0
  -12.4889   -2.1520   -5.1943 C   0  0  0  0  0  0  0  0  0  0  0  0
  -13.4734   -5.2778   -9.8307 N   0  3  0  0  0  0  0  0  0  0  0  0
  -11.1444   -1.4845   -5.2931 N   0  3  0  0  0  0  0  0  0  0  0  0
  -15.1965   -2.6968   -6.0660 O   0  0  0  0  0  0  0  0  0  0  0  0
  -11.7602   -3.5541   -6.9869 O   0  0  0  0  0  0  0  0  0  0  0  0
  1  2  1  0  0  0  0
  1 22  1  6  0  0  0
  1 10  1  0  0  0  0
  2  3  1  0  0  0  0
  2  7  1  6  0  0  0
  3  4  1  0  0  0  0
  3  8  1  1  0  0  0
  4  5  1  0  0  0  0
  4  9  1  6  0  0  0
  5  6  1  1  0  0  0
  5 10  1  0  0  0  0
  6 11  1  0  0  0  0
 12 13  1  0  0  0  0
 12 17  1  0  0  0  0
 12 18  1  1  0  0  0
 13 14  1  0  0  0  0
 14 15  1  0  0  0  0
 14 19  1  1  0  0  0
 15 16  1  0  0  0  0
 15 21  1  6  0  0  0
 16 17  1  0  0  0  0
 16 20  1  1  0  0  0
 17 22  1  6  0  0  0
 23 21  1  6  0  0  0
 23 24  1  0  0  0  0
 23 32  1  0  0  0  0
 24 25  1  0  0  0  0
 24 29  1  6  0  0  0
 25 26  1  0  0  0  0
 26 27  1  0  0  0  0
 26 31  1  6  0  0  0
 27 28  1  1  0  0  0
 27 32  1  0  0  0  0
 28 30  1  0  0  0  0
M  CHG  5   8   1  18   1  19   1  29   1  30   1
M  END
>  <CHROM.1>
164.96011566,66.40176546,-121.61026927,-173.50629064,-145.40256330,38.88108972
9.22427282,54.29179088,-135.16556010,164.45236764,105.94989235,131.55243559
40.01214487,-175.18448823,174.78708066,-173.94817993,-9.99325774,-1.70912039
-8.02766640,0.35420596,0.01813710,-0.29477004

>  <Name>
2tob cryst

>  <RI>
0

>  <Rbt.Current_Directory>
/home/itssahil/PROJECTS/Mol_Feturizer/New_Systems/rnas/2tob

>  <Rbt.Executable>
rbdock ($Id: //depot/dev/client3/rdock/2013.1/src/exe/rbdock.cxx#4 $)

>  <Rbt.Library>
libRbt.so (2013.1, Build901 2013/11/27)

>  <Rbt.Parameter_File>
/export/apps/rDock/src/rDock_2013.1_src/data/scripts/dock_solv.prm

>  <Rbt.Receptor>
prm/blind_docking_100.prm

>  <SCORE>
-28.9683

>  <SCORE.INTER>
-24.5553

>  <SCORE.INTER.CONST>
1

>  <SCORE.INTER.POLAR>
-6.40039

>  <SCORE.INTER.ROT>
6

>  <SCORE.INTER.SOLV>
41.4631

>  <SCORE.INTER.VDW>
-16.4566

>  <SCORE.INTER.norm>
-0.767352

>  <SCORE.INTRA>
-8.54404

>  <SCORE.INTRA.DIHEDRAL>
16.4873

>  <SCORE.INTRA.DIHEDRAL.0>
18.4221

>  <SCORE.INTRA.POLAR>
-0.527132

>  <SCORE.INTRA.POLAR.0>
-1.57101

>  <SCORE.INTRA.REPUL>
-0.692403

>  <SCORE.INTRA.REPUL.0>
0.730195

>  <SCORE.INTRA.SOLV>
1.92854

>  <SCORE.INTRA.SOLV.lig_0>
-127.221

>  <SCORE.INTRA.VDW>
-12.4977

>  <SCORE.INTRA.VDW.0>
10.8385

>  <SCORE.INTRA.norm>
-0.267001

>  <SCORE.RESTR>
4.13104

>  <SCORE.RESTR.CAVITY>
4.13104

>  <SCORE.RESTR.norm>
0.129095

>  <SCORE.SYSTEM>
0

>  <SCORE.SYSTEM.CONST>
0

>  <SCORE.SYSTEM.DIHEDRAL>
0

>  <SCORE.SYSTEM.SOLV>
0

>  <SCORE.SYSTEM.norm>
0

>  <SCORE.heavy>
32

>  <SCORE.norm>
-0.905259

>  <RMSD>
3.509

$$$$
2tob cryst
 OpenBabel11021811463D
libRbt.so/2013.1/901 2013/11/27
 32 34  0  0  0  0  0  0  0  0999 V2000
   -6.2424    1.2204   -8.7535 C   0  0  2  0  0  0  0  0  0  0  0  0
   -5.0516    1.3810   -9.6933 C   0  0  1  0  0  0  0  0  0  0  0  0
   -4.8650    0.0851  -10.4830 C   0  0  2  0  0  0  0  0  0  0  0  0
   -4.7271   -1.1157   -9.5377 C   0  0  1  0  0  0  0  0  0  0  0  0
   -5.8925   -1.1354   -8.5425 C   0  0  1  0  0  0  0  0  0  0  0  0
   -5.7785   -2.2018   -7.4654 C   0  0  0  0  0  0  0  0  0  0  0  0
   -5.2809    2.4647  -10.5899 O   0  0  0  0  0  0  0  0  0  0  0  0
   -3.7297    0.0262  -11.4574 N   0  3  0  0  0  0  0  0  0  0  0  0
   -4.7271   -2.3118  -10.3068 O   0  0  0  0  0  0  0  0  0  0  0  0
   -5.9906    0.1391   -7.8761 O   0  0  0  0  0  0  0  0  0  0  0  0
   -6.1621   -3.4764   -7.9716 O   0  0  0  0  0  0  0  0  0  0  0  0
   -9.6099    1.8041   -9.0399 C   0  0  2  0  0  0  0  0  0  0  0  0
  -11.0464    1.4644   -8.6202 C   0  0  0  0  0  0  0  0  0  0  0  0
  -11.5219    0.1396   -9.2103 C   0  0  1  0  0  0  0  0  0  0  0  0
  -10.5546   -0.9541   -8.7789 C   0  0  2  0  0  0  0  0  0  0  0  0
   -9.1707   -0.6729   -9.3697 C   0  0  1  0  0  0  0  0  0  0  0  0
   -8.6122    0.6546   -8.8276 C   0  0  1  0  0  0  0  0  0  0  0  0
   -9.1178    3.0183   -8.3057 N   0  3  0  0  0  0  0  0  0  0  0  0
  -12.9245   -0.1689   -8.7794 N   0  3  0  0  0  0  0  0  0  0  0  0
   -8.2939   -1.7448   -9.0469 O   0  0  0  0  0  0  0  0  0  0  0  0
  -11.0234   -2.2429   -9.2157 O   0  0  0  0  0  0  0  0  0  0  0  0
   -7.3925    0.9903   -9.5216 O   0  0  0  0  0  0  0  0  0  0  0  0
  -10.9878   -3.2187   -8.2112 C   0  0  2  0  0  0  0  0  0  0  0  0
  -12.1496   -4.2005   -8.3962 C   0  0  1  0  0  0  0  0  0  0  0  0
  -13.4763   -3.5659   -7.9781 C   0  0  0  0  0  0  0  0  0  0  0  0
  -13.3378   -3.0159   -6.5677 C   0  0  1  0  0  0  0  0  0  0  0  0
  -12.2075   -2.0020   -6.5357 C   0  0  1  0  0  0  0  0  0  0  0  0
  -12.0230   -1.4106   -5.1500 C   0  0  0  0  0  0  0  0  0  0  0  0
  -12.2301   -4.6127   -9.8340 N   0  3  0  0  0  0  0  0  0  0  0  0
  -11.2131   -2.3808   -4.3340 N   0  3  0  0  0  0  0  0  0  0  0  0
  -14.5513   -2.4032   -6.1551 O   0  0  0  0  0  0  0  0  0  0  0  0
  -10.9783   -2.6489   -6.9066 O   0  0  0  0  0  0  0  0  0  0  0  0
  1  2  1  0  0  0  0
  1 22  1  6  0  0  0
  1 10  1  0  0  0  0
  2  3  1  0  0  0  0
  2  7  1  6  0  0  0
  3  4  1  0  0  0  0
  3  8  1  1  0  0  0
  4  5  1  0  0  0  0
  4  9  1  6  0  0  0
  5  6  1  1  0  0  0
  5 10  1  0  0  0  0
  6 11  1  0  0  0  0
 12 13  1  0  0  0  0
 12 17  1  0  0  0  0
 12 18  1  1  0  0  0
 13 14  1  0  0  0  0
 14 15  1  0  0  0  0
 14 19  1  1  0  0  0
 15 16  1  0  0  0  0
 15 21  1  6  0  0  0
 16 17  1  0  0  0  0
 16 20  1  1  0  0  0
 17 22  1  6  0  0  0
 23 21  1  6  0  0  0
 23 24  1  0  0  0  0
 23 32  1  0  0  0  0
 24 25  1  0  0  0  0
 24 29  1  6  0  0  0
 25 26  1  0  0  0  0
 26 27  1  0  0  0  0
 26 31  1  6  0  0  0
 27 28  1  1  0  0  0
 27 32  1  0  0  0  0
 28 30  1  0  0  0  0
M  CHG  5   8   1  18   1  19   1  29   1  30   1
M  END
>  <CHROM.1>
172.93560288,72.52436674,155.88466668,81.73132324,-79.08713216,-48.47917740
38.53849848,76.86980885,-132.47921434,-47.93393629,113.93830563,146.80717346
-157.88135329,-176.73719475,81.34998601,169.40036873,-9.07224123,-1.01693376
-8.48445254,0.37615467,0.28679947,-0.13510537

>  <Name>
2tob cryst

>  <RI>
0

>  <Rbt.Current_Directory>
/home/itssahil/PROJECTS/Mol_Feturizer/New_Systems/rnas/2tob

>  <Rbt.Executable>
rbdock ($Id: //depot/dev/client3/rdock/2013.1/src/exe/rbdock.cxx#4 $)

>  <Rbt.Library>
libRbt.so (2013.1, Build901 2013/11/27)

>  <Rbt.Parameter_File>
/export/apps/rDock/src/rDock_2013.1_src/data/scripts/dock_solv.prm

>  <Rbt.Receptor>
prm/blind_docking_80.prm

>  <SCORE>
-20.4907

>  <SCORE.INTER>
-15.4686

>  <SCORE.INTER.CONST>
1

>  <SCORE.INTER.POLAR>
-5.42386

>  <SCORE.INTER.ROT>
6

>  <SCORE.INTER.SOLV>
44.6805

>  <SCORE.INTER.VDW>
-14.7264

>  <SCORE.INTER.norm>
-0.483395

>  <SCORE.INTRA>
-8.84136

>  <SCORE.INTRA.DIHEDRAL>
10.73

>  <SCORE.INTRA.DIHEDRAL.0>
18.4221

>  <SCORE.INTRA.POLAR>
0.592134

>  <SCORE.INTRA.POLAR.0>
-1.57101

>  <SCORE.INTRA.REPUL>
-0.730195

>  <SCORE.INTRA.REPUL.0>
0.730195

>  <SCORE.INTRA.SOLV>
-2.68561

>  <SCORE.INTRA.SOLV.lig_0>
-127.221

>  <SCORE.INTRA.VDW>
-11.2258

>  <SCORE.INTRA.VDW.0>
10.8385

>  <SCORE.INTRA.norm>
-0.276292

>  <SCORE.RESTR>
3.81925

>  <SCORE.RESTR.CAVITY>
3.81925

>  <SCORE.RESTR.norm>
0.119351

>  <SCORE.SYSTEM>
0

>  <SCORE.SYSTEM.CONST>
0

>  <SCORE.SYSTEM.DIHEDRAL>
0

>  <SCORE.SYSTEM.SOLV>
0

>  <SCORE.SYSTEM.norm>
0

>  <SCORE.heavy>
32

>  <SCORE.norm>
-0.640336

>  <RMSD>
3.513

$$$$
2tob cryst
 OpenBabel11021811463D
libRbt.so/2013.1/901 2013/11/27
 32 34  0  0  0  0  0  0  0  0999 V2000
   -7.3698    0.4333   -7.9985 C   0  0  2  0  0  0  0  0  0  0  0  0
   -5.9650    0.3544   -8.5878 C   0  0  1  0  0  0  0  0  0  0  0  0
   -5.6825   -1.0893   -9.0044 C   0  0  2  0  0  0  0  0  0  0  0  0
   -5.8951   -2.0496   -7.8266 C   0  0  1  0  0  0  0  0  0  0  0  0
   -7.2787   -1.8215   -7.2080 C   0  0  1  0  0  0  0  0  0  0  0  0
   -7.5381   -2.6206   -5.9414 C   0  0  0  0  0  0  0  0  0  0  0  0
   -5.8625    1.2132   -9.7203 O   0  0  0  0  0  0  0  0  0  0  0  0
   -4.3396   -1.3888   -9.5952 N   0  3  0  0  0  0  0  0  0  0  0  0
   -5.7895   -3.3877   -8.2962 O   0  0  0  0  0  0  0  0  0  0  0  0
   -7.4453   -0.4280   -6.8782 O   0  0  0  0  0  0  0  0  0  0  0  0
   -8.9266   -2.8997   -5.7937 O   0  0  0  0  0  0  0  0  0  0  0  0
  -10.5918    0.7831   -8.9921 C   0  0  2  0  0  0  0  0  0  0  0  0
  -12.0700    0.3856   -8.8821 C   0  0  0  0  0  0  0  0  0  0  0  0
  -12.3571   -0.9584   -9.5458 C   0  0  1  0  0  0  0  0  0  0  0  0
  -11.4604   -2.0110   -8.9085 C   0  0  2  0  0  0  0  0  0  0  0  0
   -9.9951   -1.6744   -9.1963 C   0  0  1  0  0  0  0  0  0  0  0  0
   -9.6169   -0.3244   -8.5620 C   0  0  1  0  0  0  0  0  0  0  0  0
  -10.3148    2.0175   -8.1829 N   0  3  0  0  0  0  0  0  0  0  0  0
  -13.8057   -1.3234   -9.4179 N   0  3  0  0  0  0  0  0  0  0  0  0
   -9.1647   -2.7091   -8.6845 O   0  0  0  0  0  0  0  0  0  0  0  0
  -11.7748   -3.3186   -9.4214 O   0  0  0  0  0  0  0  0  0  0  0  0
   -8.2923    0.0597   -8.9859 O   0  0  0  0  0  0  0  0  0  0  0  0
  -12.0062   -4.2696   -8.4191 C   0  0  2  0  0  0  0  0  0  0  0  0
  -13.3190   -5.0099   -8.6955 C   0  0  1  0  0  0  0  0  0  0  0  0
  -14.5252   -4.1248   -8.3802 C   0  0  0  0  0  0  0  0  0  0  0  0
  -14.3907   -3.5937   -6.9622 C   0  0  1  0  0  0  0  0  0  0  0  0
  -13.0907   -2.8177   -6.8408 C   0  0  1  0  0  0  0  0  0  0  0  0
  -12.9012   -2.2552   -5.4437 C   0  0  0  0  0  0  0  0  0  0  0  0
  -13.3680   -5.4174  -10.1360 N   0  3  0  0  0  0  0  0  0  0  0  0
  -11.5787   -1.5393   -5.4058 N   0  3  0  0  0  0  0  0  0  0  0  0
  -15.4899   -2.7520   -6.6436 O   0  0  0  0  0  0  0  0  0  0  0  0
  -11.9860   -3.6954   -7.1165 O   0  0  0  0  0  0  0  0  0  0  0  0
  1  2  1  0  0  0  0
  1 22  1  6  0  0  0
  1 10  1  0  0  0  0
  2  3  1  0  0  0  0
  2  7  1  6  0  0  0
  3  4  1  0  0  0  0
  3  8  1  1  0  0  0
  4  5  1  0  0  0  0
  4  9  1  6  0  0  0
  5  6  1  1  0  0  0
  5 10  1  0  0  0  0
  6 11  1  0  0  0  0
 12 13  1  0  0  0  0
 12 17  1  0  0  0  0
 12 18  1  1  0  0  0
 13 14  1  0  0  0  0
 14 15  1  0  0  0  0
 14 19  1  1  0  0  0
 15 16  1  0  0  0  0
 15 21  1  6  0  0  0
 16 17  1  0  0  0  0
 16 20  1  1  0  0  0
 17 22  1  6  0  0  0
 23 21  1  6  0  0  0
 23 24  1  0  0  0  0
 23 32  1  0  0  0  0
 24 25  1  0  0  0  0
 24 29  1  6  0  0  0
 25 26  1  0  0  0  0
 26 27  1  0  0  0  0
 26 31  1  6  0  0  0
 27 28  1  1  0  0  0
 27 32  1  0  0  0  0
 28 30  1  0  0  0  0
M  CHG  5   8   1  18   1  19   1  29   1  30   1
M  END
>  <CHROM.1>
161.80472884,63.88552511,-5.02472546,102.14588745,-151.22122993,51.56588097
125.98484658,178.27833943,-128.25645834,73.67398343,109.32524023,130.03362880
-82.07093305,168.88955048,178.46792872,-53.51417499,-10.11323295,-1.82276213
-8.11388121,0.34139970,0.01492399,-0.16768800

>  <Name>
2tob cryst

>  <RI>
0

>  <Rbt.Current_Directory>
/home/itssahil/PROJECTS/Mol_Feturizer/New_Systems/rnas/2tob

>  <Rbt.Executable>
rbdock ($Id: //depot/dev/client3/rdock/2013.1/src/exe/rbdock.cxx#4 $)

>  <Rbt.Library>
libRbt.so (2013.1, Build901 2013/11/27)

>  <Rbt.Parameter_File>
/export/apps/rDock/src/rDock_2013.1_src/data/scripts/dock_solv.prm

>  <Rbt.Receptor>
prm/blind_docking_80.prm

>  <SCORE>
-31.35

>  <SCORE.INTER>
-31.8114

>  <SCORE.INTER.CONST>
1

>  <SCORE.INTER.POLAR>
-7.86357

>  <SCORE.INTER.ROT>
6

>  <SCORE.INTER.SOLV>
42.494

>  <SCORE.INTER.VDW>
-16.7604

>  <SCORE.INTER.norm>
-0.994107

>  <SCORE.INTRA>
-4.0053

>  <SCORE.INTRA.DIHEDRAL>
21.5095

>  <SCORE.INTRA.DIHEDRAL.0>
18.4221

>  <SCORE.INTRA.POLAR>
-0.280449

>  <SCORE.INTRA.POLAR.0>
-1.57101

>  <SCORE.INTRA.REPUL>
-0.691898

>  <SCORE.INTRA.REPUL.0>
0.730195

>  <SCORE.INTRA.SOLV>
3.23586

>  <SCORE.INTRA.SOLV.lig_0>
-127.221

>  <SCORE.INTRA.VDW>
-11.965

>  <SCORE.INTRA.VDW.0>
10.8385

>  <SCORE.INTRA.norm>
-0.125165

>  <SCORE.RESTR>
4.46672

>  <SCORE.RESTR.CAVITY>
4.46672

>  <SCORE.RESTR.norm>
0.139585

>  <SCORE.SYSTEM>
0

>  <SCORE.SYSTEM.CONST>
0

>  <SCORE.SYSTEM.DIHEDRAL>
0

>  <SCORE.SYSTEM.SOLV>
0

>  <SCORE.SYSTEM.norm>
0

>  <SCORE.heavy>
32

>  <SCORE.norm>
-0.979688

>  <RMSD>
3.513

$$$$
2tob cryst
 OpenBabel11021811463D
libRbt.so/2013.1/901 2013/11/27
 32 34  0  0  0  0  0  0  0  0999 V2000
   -5.5349    1.3633   -9.4269 C   0  0  2  0  0  0  0  0  0  0  0  0
   -4.7018    2.2886  -10.3082 C   0  0  1  0  0  0  0  0  0  0  0  0
   -4.3293    1.5474  -11.5925 C   0  0  2  0  0  0  0  0  0  0  0  0
   -3.6223    0.2233  -11.2738 C   0  0  1  0  0  0  0  0  0  0  0  0
   -4.4607   -0.5932  -10.2843 C   0  0  1  0  0  0  0  0  0  0  0  0
   -3.7848   -1.8606   -9.7871 C   0  0  0  0  0  0  0  0  0  0  0  0
   -5.4472    3.4610  -10.6255 O   0  0  0  0  0  0  0  0  0  0  0  0
   -3.4905    2.2781  -12.5946 N   0  3  0  0  0  0  0  0  0  0  0  0
   -3.4474   -0.5094  -12.4800 O   0  0  0  0  0  0  0  0  0  0  0  0
   -4.7739    0.2084   -9.1277 O   0  0  0  0  0  0  0  0  0  0  0  0
   -4.7077   -2.6837   -9.0810 O   0  0  0  0  0  0  0  0  0  0  0  0
   -8.9497    1.8958   -9.8897 C   0  0  2  0  0  0  0  0  0  0  0  0
  -10.3787    1.6636   -9.3806 C   0  0  0  0  0  0  0  0  0  0  0  0
  -10.8192    0.2111   -9.5403 C   0  0  1  0  0  0  0  0  0  0  0  0
   -9.8263   -0.6768   -8.8027 C   0  0  2  0  0  0  0  0  0  0  0  0
   -8.4480   -0.5533   -9.4570 C   0  0  1  0  0  0  0  0  0  0  0  0
   -7.9244    0.8893   -9.3442 C   0  0  1  0  0  0  0  0  0  0  0  0
   -8.4904    3.2869   -9.5593 N   0  3  0  0  0  0  0  0  0  0  0  0
  -12.2150    0.0127   -9.0300 N   0  3  0  0  0  0  0  0  0  0  0  0
   -7.5459   -1.4554   -8.8290 O   0  0  0  0  0  0  0  0  0  0  0  0
  -10.2615   -2.0485   -8.8272 O   0  0  0  0  0  0  0  0  0  0  0  0
   -6.7113    1.0294  -10.1126 O   0  0  0  0  0  0  0  0  0  0  0  0
  -10.9442   -2.4374   -7.6674 C   0  0  2  0  0  0  0  0  0  0  0  0
  -10.8037   -3.9493   -7.4615 C   0  0  1  0  0  0  0  0  0  0  0  0
  -11.6797   -4.7214   -8.4485 C   0  0  0  0  0  0  0  0  0  0  0  0
  -13.1061   -4.2046   -8.3517 C   0  0  1  0  0  0  0  0  0  0  0  0
  -13.1192   -2.7157   -8.6509 C   0  0  1  0  0  0  0  0  0  0  0  0
  -14.5218   -2.1403   -8.5753 C   0  0  0  0  0  0  0  0  0  0  0  0
   -9.3728   -4.3480   -7.6538 N   0  3  0  0  0  0  0  0  0  0  0  0
  -14.8416   -1.8822   -7.1282 N   0  3  0  0  0  0  0  0  0  0  0  0
  -13.9437   -4.8917   -9.2706 O   0  0  0  0  0  0  0  0  0  0  0  0
  -12.3080   -2.0293   -7.6824 O   0  0  0  0  0  0  0  0  0  0  0  0
  1  2  1  0  0  0  0
  1 22  1  6  0  0  0
  1 10  1  0  0  0  0
  2  3  1  0  0  0  0
  2  7  1  6  0  0  0
  3  4  1  0  0  0  0
  3  8  1  6  0  0  0
  4  5  1  0  0  0  0
  4  9  1  6  0  0  0
  5  6  1  1  0  0  0
  5 10  1  0  0  0  0
  6 11  1  0  0  0  0
 12 13  1  0  0  0  0
 12 17  1  0  0  0  0
 12 18  1  1  0  0  0
 13 14  1  0  0  0  0
 14 15  1  0  0  0  0
 14 19  1  1  0  0  0
 15 16  1  0  0  0  0
 15 21  1  6  0  0  0
 16 17  1  0  0  0  0
 16 20  1  1  0  0  0
 17 22  1  6  0  0  0
 23 21  1  6  0  0  0
 23 24  1  0  0  0  0
 23 32  1  0  0  0  0
 24 25  1  0  0  0  0
 24 29  1  6  0  0  0
 25 26  1  0  0  0  0
 26 27  1  0  0  0  0
 26 31  1  6  0  0  0
 27 28  1  1  0  0  0
 27 32  1  0  0  0  0
 28 30  1  0  0  0  0
M  CHG  5   8   1  18   1  19   1  29   1  30   1
M  END
>  <CHROM.1>
-143.84221162,177.41548384,-39.47547674,-49.03119021,-169.05265650,-15.15142350
-173.66227066,38.62381397,-97.07544440,-54.68048622,121.00856590,-153.92911090
50.43401410,66.59953210,81.28904184,-75.59377830,-8.57173086,-0.72964021
-9.38650014,0.47527654,0.21670207,-0.18578876

>  <Name>
2tob cryst

>  <RI>
0

>  <Rbt.Current_Directory>
/home/itssahil/PROJECTS/Mol_Feturizer/New_Systems/rnas/2tob

>  <Rbt.Executable>
rbdock ($Id: //depot/dev/client3/rdock/2013.1/src/exe/rbdock.cxx#4 $)

>  <Rbt.Library>
libRbt.so (2013.1, Build901 2013/11/27)

>  <Rbt.Parameter_File>
/export/apps/rDock/src/rDock_2013.1_src/data/scripts/dock_solv.prm

>  <Rbt.Receptor>
prm/blind_docking_60.prm

>  <SCORE>
-26.424

>  <SCORE.INTER>
-27.0429

>  <SCORE.INTER.CONST>
1

>  <SCORE.INTER.POLAR>
-5.6731

>  <SCORE.INTER.ROT>
6

>  <SCORE.INTER.SOLV>
41.487

>  <SCORE.INTER.VDW>
-20.5472

>  <SCORE.INTER.norm>
-0.845089

>  <SCORE.INTRA>
-10.2557

>  <SCORE.INTRA.DIHEDRAL>
13.2357

>  <SCORE.INTRA.DIHEDRAL.0>
18.4221

>  <SCORE.INTRA.POLAR>
-0.576407

>  <SCORE.INTRA.POLAR.0>
-1.57101

>  <SCORE.INTRA.REPUL>
-0.729622

>  <SCORE.INTRA.REPUL.0>
0.730195

>  <SCORE.INTRA.SOLV>
0.383479

>  <SCORE.INTRA.SOLV.lig_0>
-127.221

>  <SCORE.INTRA.VDW>
-11.4575

>  <SCORE.INTRA.VDW.0>
10.8385

>  <SCORE.INTRA.norm>
-0.320492

>  <SCORE.RESTR>
10.8746

>  <SCORE.RESTR.CAVITY>
10.8746

>  <SCORE.RESTR.norm>
0.339832

>  <SCORE.SYSTEM>
0

>  <SCORE.SYSTEM.CONST>
0

>  <SCORE.SYSTEM.DIHEDRAL>
0

>  <SCORE.SYSTEM.SOLV>
0

>  <SCORE.SYSTEM.norm>
0

>  <SCORE.heavy>
32

>  <SCORE.norm>
-0.82575

>  <RMSD>
3.539

$$$$
2tob cryst
 OpenBabel11021811463D
libRbt.so/2013.1/901 2013/11/27
 32 34  0  0  0  0  0  0  0  0999 V2000
   -7.2629    0.3511   -8.0909 C   0  0  2  0  0  0  0  0  0  0  0  0
   -5.8664    0.2028   -8.6864 C   0  0  1  0  0  0  0  0  0  0  0  0
   -5.6101   -1.2741   -8.9875 C   0  0  2  0  0  0  0  0  0  0  0  0
   -5.8230   -2.1324   -7.7335 C   0  0  1  0  0  0  0  0  0  0  0  0
   -7.1958   -1.8334   -7.1210 C   0  0  1  0  0  0  0  0  0  0  0  0
   -7.4521   -2.5232   -5.7911 C   0  0  0  0  0  0  0  0  0  0  0  0
   -5.7646    0.9654   -9.8859 O   0  0  0  0  0  0  0  0  0  0  0  0
   -4.2788   -1.6413   -9.5660 N   0  3  0  0  0  0  0  0  0  0  0  0
   -5.7425   -3.5056   -8.0940 O   0  0  0  0  0  0  0  0  0  0  0  0
   -7.3381   -0.4154   -6.9037 O   0  0  0  0  0  0  0  0  0  0  0  0
   -8.6982   -3.2122   -5.8094 O   0  0  0  0  0  0  0  0  0  0  0  0
  -10.4621    0.7515   -9.0794 C   0  0  2  0  0  0  0  0  0  0  0  0
  -11.9573    0.4397   -8.9308 C   0  0  0  0  0  0  0  0  0  0  0  0
  -12.3191   -0.9328   -9.4917 C   0  0  1  0  0  0  0  0  0  0  0  0
  -11.4706   -1.9806   -8.7845 C   0  0  2  0  0  0  0  0  0  0  0  0
   -9.9931   -1.7418   -9.1059 C   0  0  1  0  0  0  0  0  0  0  0  0
   -9.5403   -0.3702   -8.5753 C   0  0  1  0  0  0  0  0  0  0  0  0
  -10.1143    2.0260   -8.3653 N   0  3  0  0  0  0  0  0  0  0  0  0
  -13.7831   -1.2124   -9.3279 N   0  3  0  0  0  0  0  0  0  0  0  0
   -9.2112   -2.7775   -8.5247 O   0  0  0  0  0  0  0  0  0  0  0  0
  -11.8562   -3.3043   -9.1976 O   0  0  0  0  0  0  0  0  0  0  0  0
   -8.2024   -0.0868   -9.0350 O   0  0  0  0  0  0  0  0  0  0  0  0
  -11.9483   -4.2145   -8.1366 C   0  0  2  0  0  0  0  0  0  0  0  0
  -13.2737   -4.9790   -8.2185 C   0  0  1  0  0  0  0  0  0  0  0  0
  -14.4452   -4.0936   -7.7928 C   0  0  0  0  0  0  0  0  0  0  0  0
  -14.1454   -3.5019   -6.4250 C   0  0  1  0  0  0  0  0  0  0  0  0
  -12.8523   -2.7085   -6.4966 C   0  0  1  0  0  0  0  0  0  0  0  0
  -12.5010   -2.0858   -5.1576 C   0  0  0  0  0  0  0  0  0  0  0  0
  -13.4933   -5.4473   -9.6243 N   0  3  0  0  0  0  0  0  0  0  0  0
  -11.0759   -1.6087   -5.2259 N   0  3  0  0  0  0  0  0  0  0  0  0
  -15.2097   -2.6587   -6.0075 O   0  0  0  0  0  0  0  0  0  0  0  0
  -11.7767   -3.5859   -6.8709 O   0  0  0  0  0  0  0  0  0  0  0  0
  1  2  1  0  0  0  0
  1 22  1  6  0  0  0
  1 10  1  0  0  0  0
  2  3  1  0  0  0  0
  2  7  1  6  0  0  0
  3  4  1  0  0  0  0
  3  8  1  1  0  0  0
  4  5  1  0  0  0  0
  4  9  1  6  0  0  0
  5  6  1  1  0  0  0
  5 10  1  0  0  0  0
  6 11  1  0  0  0  0
 12 13  1  0  0  0  0
 12 17  1  0  0  0  0
 12 18  1  1  0  0  0
 13 14  1  0  0  0  0
 14 15  1  0  0  0  0
 14 19  1  1  0  0  0
 15 16  1  0  0  0  0
 15 21  1  6  0  0  0
 16 17  1  0  0  0  0
 16 20  1  1  0  0  0
 17 22  1  6  0  0  0
 23 21  1  6  0  0  0
 23 24  1  0  0  0  0
 23 32  1  0  0  0  0
 24 25  1  0  0  0  0
 24 29  1  6  0  0  0
 25 26  1  0  0  0  0
 26 27  1  0  0  0  0
 26 31  1  6  0  0  0
 27 28  1  1  0  0  0
 27 32  1  0  0  0  0
 28 30  1  0  0  0  0
M  CHG  5   8   1  18   1  19   1  29   1  30   1
M  END
>  <CHROM.1>
163.91313791,74.99262100,5.02257383,-49.08324762,-129.14929265,39.02816135
15.08931328,-69.63033943,-136.46266814,165.58650036,107.33863858,131.40289137
172.31757954,-177.30795832,166.73044437,80.11421036,-10.00148648,-1.85099874
-7.97189080,0.33918399,0.00152653,-0.36362317

>  <Name>
2tob cryst

>  <RI>
0

>  <Rbt.Current_Directory>
/home/itssahil/PROJECTS/Mol_Feturizer/New_Systems/rnas/2tob

>  <Rbt.Executable>
rbdock ($Id: //depot/dev/client3/rdock/2013.1/src/exe/rbdock.cxx#4 $)

>  <Rbt.Library>
libRbt.so (2013.1, Build901 2013/11/27)

>  <Rbt.Parameter_File>
/export/apps/rDock/src/rDock_2013.1_src/data/scripts/dock_solv.prm

>  <Rbt.Receptor>
prm/blind_docking_100.prm

>  <SCORE>
-29.4827

>  <SCORE.INTER>
-29.1117

>  <SCORE.INTER.CONST>
1

>  <SCORE.INTER.POLAR>
-6.42911

>  <SCORE.INTER.ROT>
6

>  <SCORE.INTER.SOLV>
40.0293

>  <SCORE.INTER.VDW>
-18.9205

>  <SCORE.INTER.norm>
-0.90974

>  <SCORE.INTRA>
-5.04974

>  <SCORE.INTRA.DIHEDRAL>
19.6524

>  <SCORE.INTRA.DIHEDRAL.0>
18.4221

>  <SCORE.INTRA.POLAR>
-0.320189

>  <SCORE.INTRA.POLAR.0>
-1.57101

>  <SCORE.INTRA.REPUL>
-0.5506

>  <SCORE.INTRA.REPUL.0>
0.730195

>  <SCORE.INTRA.SOLV>
2.20948

>  <SCORE.INTRA.SOLV.lig_0>
-127.221

>  <SCORE.INTRA.VDW>
-12.139

>  <SCORE.INTRA.VDW.0>
10.8385

>  <SCORE.INTRA.norm>
-0.157804

>  <SCORE.RESTR>
4.67874

>  <SCORE.RESTR.CAVITY>
4.67874

>  <SCORE.RESTR.norm>
0.146211

>  <SCORE.SYSTEM>
0

>  <SCORE.SYSTEM.CONST>
0

>  <SCORE.SYSTEM.DIHEDRAL>
0

>  <SCORE.SYSTEM.SOLV>
0

>  <SCORE.SYSTEM.norm>
0

>  <SCORE.heavy>
32

>  <SCORE.norm>
-0.921334

>  <RMSD>
3.547

$$$$
2tob cryst
 OpenBabel11021811463D
libRbt.so/2013.1/901 2013/11/27
 32 34  0  0  0  0  0  0  0  0999 V2000
   -7.2451   -0.6238   -9.9005 C   0  0  2  0  0  0  0  0  0  0  0  0
   -6.0434   -1.5367  -10.1226 C   0  0  1  0  0  0  0  0  0  0  0  0
   -5.0973   -1.4104   -8.9282 C   0  0  2  0  0  0  0  0  0  0  0  0
   -4.7044    0.0545   -8.6949 C   0  0  1  0  0  0  0  0  0  0  0  0
   -5.9617    0.9269   -8.6100 C   0  0  1  0  0  0  0  0  0  0  0  0
   -5.6844    2.4188   -8.5248 C   0  0  0  0  0  0  0  0  0  0  0  0
   -6.4758   -2.8880  -10.2559 O   0  0  0  0  0  0  0  0  0  0  0  0
   -3.8366   -2.2177   -8.9558 N   0  3  0  0  0  0  0  0  0  0  0  0
   -3.9676    0.1480   -7.4822 O   0  0  0  0  0  0  0  0  0  0  0  0
   -6.7893    0.7095   -9.7702 O   0  0  0  0  0  0  0  0  0  0  0  0
   -6.7900    3.1688   -9.0177 O   0  0  0  0  0  0  0  0  0  0  0  0
   -9.8478   -0.2611   -9.9615 C   0  0  2  0  0  0  0  0  0  0  0  0
  -11.3176   -0.4927  -10.3371 C   0  0  0  0  0  0  0  0  0  0  0  0
  -11.6388   -1.9728  -10.5250 C   0  0  1  0  0  0  0  0  0  0  0  0
  -11.2812   -2.7096   -9.2416 C   0  0  2  0  0  0  0  0  0  0  0  0
   -9.7735   -2.6070   -8.9980 C   0  0  1  0  0  0  0  0  0  0  0  0
   -9.3577   -1.1389   -8.7990 C   0  0  1  0  0  0  0  0  0  0  0  0
   -9.6113    1.1812   -9.6165 N   0  3  0  0  0  0  0  0  0  0  0  0
  -13.0810   -2.1691  -10.8852 N   0  3  0  0  0  0  0  0  0  0  0  0
   -9.4278   -3.3765   -7.8532 O   0  0  0  0  0  0  0  0  0  0  0  0
  -11.6727   -4.0919   -9.3280 O   0  0  0  0  0  0  0  0  0  0  0  0
   -7.9191   -1.0424   -8.7445 O   0  0  0  0  0  0  0  0  0  0  0  0
  -11.7780   -4.7204   -8.0803 C   0  0  2  0  0  0  0  0  0  0  0  0
  -12.5390   -6.0425   -8.2247 C   0  0  1  0  0  0  0  0  0  0  0  0
  -14.0346   -5.7960   -8.4243 C   0  0  0  0  0  0  0  0  0  0  0  0
  -14.5409   -4.8993   -7.3060 C   0  0  1  0  0  0  0  0  0  0  0  0
  -13.7608   -3.5962   -7.3188 C   0  0  1  0  0  0  0  0  0  0  0  0
  -14.2259   -2.6527   -6.2245 C   0  0  0  0  0  0  0  0  0  0  0  0
  -12.0020   -6.8014   -9.3992 N   0  3  0  0  0  0  0  0  0  0  0  0
  -14.0984   -3.3687   -4.9076 N   0  3  0  0  0  0  0  0  0  0  0  0
  -15.9270   -4.6368   -7.4724 O   0  0  0  0  0  0  0  0  0  0  0  0
  -12.3676   -3.8743   -7.0989 O   0  0  0  0  0  0  0  0  0  0  0  0
  1  2  1  0  0  0  0
  1 22  1  1  0  0  0
  1 10  1  0  0  0  0
  2  3  1  0  0  0  0
  2  7  1  1  0  0  0
  3  4  1  0  0  0  0
  3  8  1  6  0  0  0
  4  5  1  0  0  0  0
  4  9  1  1  0  0  0
  5  6  1  6  0  0  0
  5 10  1  0  0  0  0
  6 11  1  0  0  0  0
 12 13  1  0  0  0  0
 12 17  1  0  0  0  0
 12 18  1  1  0  0  0
 13 14  1  0  0  0  0
 14 15  1  0  0  0  0
 14 19  1  1  0  0  0
 15 16  1  0  0  0  0
 15 21  1  6  0  0  0
 16 17  1  0  0  0  0
 16 20  1  1  0  0  0
 17 22  1  6  0  0  0
 23 21  1  6  0  0  0
 23 24  1  0  0  0  0
 23 32  1  0  0  0  0
 24 25  1  0  0  0  0
 24 29  1  6  0  0  0
 25 26  1  0  0  0  0
 26 27  1  0  0  0  0
 26 31  1  6  0  0  0
 27 28  1  1  0  0  0
 27 32  1  0  0  0  0
 28 30  1  0  0  0  0
M  CHG  5   8   1  18   1  19   1  29   1  30   1
M  END
>  <CHROM.1>
-134.81986197,67.93604581,-152.06558773,163.29439609,154.86492293,162.30300849
-15.00612900,61.43646758,-160.65744655,91.24263386,-20.92602417,165.18715437
144.09548970,65.86047076,56.58163697,-84.15998753,-9.76413059,-2.07250979
-8.70644161,-0.53352266,-0.12739702,3.10351891

>  <Name>
2tob cryst

>  <RI>
0

>  <Rbt.Current_Directory>
/home/itssahil/PROJECTS/Mol_Feturizer/New_Systems/rnas/2tob

>  <Rbt.Executable>
rbdock ($Id: //depot/dev/client3/rdock/2013.1/src/exe/rbdock.cxx#4 $)

>  <Rbt.Library>
libRbt.so (2013.1, Build901 2013/11/27)

>  <Rbt.Parameter_File>
/export/apps/rDock/src/rDock_2013.1_src/data/scripts/dock_solv.prm

>  <Rbt.Receptor>
prm/blind_docking_80.prm

>  <SCORE>
915.329

>  <SCORE.INTER>
908.538

>  <SCORE.INTER.CONST>
1

>  <SCORE.INTER.POLAR>
-0.689305

>  <SCORE.INTER.ROT>
6

>  <SCORE.INTER.SOLV>
48.2936

>  <SCORE.INTER.VDW>
584.292

>  <SCORE.INTER.norm>
28.3918

>  <SCORE.INTRA>
-7.06737

>  <SCORE.INTRA.DIHEDRAL>
13.079

>  <SCORE.INTRA.DIHEDRAL.0>
18.4221

>  <SCORE.INTRA.POLAR>
0.880195

>  <SCORE.INTRA.POLAR.0>
-1.57101

>  <SCORE.INTRA.REPUL>
-0.730195

>  <SCORE.INTRA.REPUL.0>
0.730195

>  <SCORE.INTRA.SOLV>
-5.31936

>  <SCORE.INTRA.SOLV.lig_0>
-127.221

>  <SCORE.INTRA.VDW>
-10.2889

>  <SCORE.INTRA.VDW.0>
10.8385

>  <SCORE.INTRA.norm>
-0.220855

>  <SCORE.RESTR>
13.8587

>  <SCORE.RESTR.CAVITY>
13.8587

>  <SCORE.RESTR.norm>
0.433083

>  <SCORE.SYSTEM>
0

>  <SCORE.SYSTEM.CONST>
0

>  <SCORE.SYSTEM.DIHEDRAL>
0

>  <SCORE.SYSTEM.SOLV>
0

>  <SCORE.SYSTEM.norm>
0

>  <SCORE.heavy>
32

>  <SCORE.norm>
28.604

>  <RMSD>
3.550

$$$$
2tob cryst
 OpenBabel11021811463D
libRbt.so/2013.1/901 2013/11/27
 32 34  0  0  0  0  0  0  0  0999 V2000
   -9.4554   -2.0201   -8.8712 C   0  0  2  0  0  0  0  0  0  0  0  0
   -8.0881   -2.6960   -8.8911 C   0  0  1  0  0  0  0  0  0  0  0  0
   -7.1004   -1.8403   -8.0973 C   0  0  2  0  0  0  0  0  0  0  0  0
   -7.0684   -0.4032   -8.6340 C   0  0  1  0  0  0  0  0  0  0  0  0
   -8.4914    0.1616   -8.7042 C   0  0  1  0  0  0  0  0  0  0  0  0
   -8.5909    1.5297   -9.3589 C   0  0  0  0  0  0  0  0  0  0  0  0
   -8.1778   -3.9945   -8.3108 O   0  0  0  0  0  0  0  0  0  0  0  0
   -5.6852   -2.3210   -8.0074 N   0  3  0  0  0  0  0  0  0  0  0  0
   -6.2725    0.3961   -7.7679 O   0  0  0  0  0  0  0  0  0  0  0  0
   -9.3389   -0.7343   -9.4506 O   0  0  0  0  0  0  0  0  0  0  0  0
   -9.3158    2.4353   -8.5331 O   0  0  0  0  0  0  0  0  0  0  0  0
  -12.1264   -1.8967   -8.4563 C   0  0  2  0  0  0  0  0  0  0  0  0
  -13.5393   -2.4952   -8.4385 C   0  0  0  0  0  0  0  0  0  0  0  0
  -13.5242   -4.0035   -8.2055 C   0  0  1  0  0  0  0  0  0  0  0  0
  -12.7978   -4.2809   -6.8965 C   0  0  2  0  0  0  0  0  0  0  0  0
  -11.3392   -3.8328   -7.0180 C   0  0  1  0  0  0  0  0  0  0  0  0
  -11.2592   -2.3150   -7.2584 C   0  0  1  0  0  0  0  0  0  0  0  0
  -12.1882   -0.3973   -8.5132 N   0  3  0  0  0  0  0  0  0  0  0  0
  -14.9166   -4.5593   -8.1873 N   0  3  0  0  0  0  0  0  0  0  0  0
  -10.6389   -4.1811   -5.8304 O   0  0  0  0  0  0  0  0  0  0  0  0
  -12.8568   -5.6824   -6.5743 O   0  0  0  0  0  0  0  0  0  0  0  0
   -9.8960   -1.9374   -7.5428 O   0  0  0  0  0  0  0  0  0  0  0  0
  -14.0182   -6.0464   -5.8806 C   0  0  2  0  0  0  0  0  0  0  0  0
  -13.6769   -6.3600   -4.4201 C   0  0  1  0  0  0  0  0  0  0  0  0
  -12.9695   -7.7100   -4.2994 C   0  0  0  0  0  0  0  0  0  0  0  0
  -13.8107   -8.7717   -4.9893 C   0  0  1  0  0  0  0  0  0  0  0  0
  -14.0117   -8.3827   -6.4436 C   0  0  1  0  0  0  0  0  0  0  0  0
  -14.8426   -9.4106   -7.1899 C   0  0  0  0  0  0  0  0  0  0  0  0
  -12.7877   -5.2854   -3.8739 N   0  3  0  0  0  0  0  0  0  0  0  0
  -16.1171   -9.6262   -6.4205 N   0  3  0  0  0  0  0  0  0  0  0  0
  -13.1711  -10.0377   -4.9094 O   0  0  0  0  0  0  0  0  0  0  0  0
  -14.7046   -7.1247   -6.5075 O   0  0  0  0  0  0  0  0  0  0  0  0
  1  2  1  0  0  0  0
  1 22  1  1  0  0  0
  1 10  1  0  0  0  0
  2  3  1  0  0  0  0
  2  7  1  1  0  0  0
  3  4  1  0  0  0  0
  3  8  1  6  0  0  0
  4  5  1  0  0  0  0
  4  9  1  1  0  0  0
  5  6  1  6  0  0  0
  5 10  1  0  0  0  0
  6 11  1  0  0  0  0
 12 13  1  0  0  0  0
 12 17  1  0  0  0  0
 12 18  1  1  0  0  0
 13 14  1  0  0  0  0
 14 15  1  0  0  0  0
 14 19  1  1  0  0  0
 15 16  1  0  0  0  0
 15 21  1  6  0  0  0
 16 17  1  0  0  0  0
 16 20  1  1  0  0  0
 17 22  1  6  0  0  0
 23 21  1  6  0  0  0
 23 24  1  0  0  0  0
 23 32  1  0  0  0  0
 24 25  1  0  0  0  0
 24 29  1  6  0  0  0
 25 26  1  0  0  0  0
 26 27  1  0  0  0  0
 26 31  1  6  0  0  0
 27 28  1  6  0  0  0
 27 32  1  0  0  0  0
 28 30  1  0  0  0  0
M  CHG  5   8   1  18   1  19   1  29   1  30   1
M  END
>  <CHROM.1>
-134.19786376,-68.30702916,58.91844525,179.87560379,-128.82648357,-170.71032053
-39.17565918,-175.60519854,-85.87696255,-164.13422660,-34.89435375,-108.10115692
66.99528868,-64.84780884,53.24073846,55.12170101,-11.31915007,-3.85887259
-7.25126042,-0.92856070,0.10003456,2.72700260

>  <Name>
2tob cryst

>  <RI>
0

>  <Rbt.Current_Directory>
/home/itssahil/PROJECTS/Mol_Feturizer/New_Systems/rnas/2tob

>  <Rbt.Executable>
rbdock ($Id: //depot/dev/client3/rdock/2013.1/src/exe/rbdock.cxx#4 $)

>  <Rbt.Library>
libRbt.so (2013.1, Build901 2013/11/27)

>  <Rbt.Parameter_File>
/export/apps/rDock/src/rDock_2013.1_src/data/scripts/dock_solv.prm

>  <Rbt.Receptor>
prm/pocket_docking_3.prm

>  <SCORE>
-40.661

>  <SCORE.INTER>
-23.2224

>  <SCORE.INTER.CONST>
1

>  <SCORE.INTER.POLAR>
-4.29485

>  <SCORE.INTER.ROT>
6

>  <SCORE.INTER.SOLV>
26.2298

>  <SCORE.INTER.VDW>
-17.5087

>  <SCORE.INTER.norm>
-0.725701

>  <SCORE.INTRA>
-17.4557

>  <SCORE.INTRA.DIHEDRAL>
8.29621

>  <SCORE.INTRA.DIHEDRAL.0>
18.4221

>  <SCORE.INTRA.POLAR>
-1.27562

>  <SCORE.INTRA.POLAR.0>
-1.57101

>  <SCORE.INTRA.REPUL>
-0.728556

>  <SCORE.INTRA.REPUL.0>
0.730195

>  <SCORE.INTRA.SOLV>
-1.92602

>  <SCORE.INTRA.SOLV.lig_0>
-127.221

>  <SCORE.INTRA.VDW>
-12.6609

>  <SCORE.INTRA.VDW.0>
10.8385

>  <SCORE.INTRA.norm>
-0.545491

>  <SCORE.RESTR>
0.0171453

>  <SCORE.RESTR.CAVITY>
0.0171453

>  <SCORE.RESTR.norm>
0.000535791

>  <SCORE.SYSTEM>
0

>  <SCORE.SYSTEM.CONST>
0

>  <SCORE.SYSTEM.DIHEDRAL>
0

>  <SCORE.SYSTEM.SOLV>
0

>  <SCORE.SYSTEM.norm>
0

>  <SCORE.heavy>
32

>  <SCORE.norm>
-1.27066

>  <RMSD>
3.579

$$$$
2tob cryst
 OpenBabel11021811463D
libRbt.so/2013.1/901 2013/11/27
 32 34  0  0  0  0  0  0  0  0999 V2000
   -8.3110   -2.8376   -8.0433 C   0  0  2  0  0  0  0  0  0  0  0  0
   -6.9816   -2.4712   -8.6956 C   0  0  1  0  0  0  0  0  0  0  0  0
   -6.7496   -0.9682   -8.5380 C   0  0  2  0  0  0  0  0  0  0  0  0
   -7.9345   -0.1706   -9.0988 C   0  0  1  0  0  0  0  0  0  0  0  0
   -9.2451   -0.6826   -8.4912 C   0  0  1  0  0  0  0  0  0  0  0  0
  -10.4970   -0.0592   -9.0862 C   0  0  0  0  0  0  0  0  0  0  0  0
   -5.9197   -3.1919   -8.0762 O   0  0  0  0  0  0  0  0  0  0  0  0
   -5.4988   -0.3955   -9.1291 N   0  3  0  0  0  0  0  0  0  0  0  0
   -7.7581    1.2042   -8.7809 O   0  0  0  0  0  0  0  0  0  0  0  0
   -9.3469   -2.1089   -8.6744 O   0  0  0  0  0  0  0  0  0  0  0  0
  -10.6123    1.3082   -8.7057 O   0  0  0  0  0  0  0  0  0  0  0  0
  -10.3516   -1.6880   -5.8793 C   0  0  2  0  0  0  0  0  0  0  0  0
  -11.7336   -2.0116   -5.2958 C   0  0  0  0  0  0  0  0  0  0  0  0
  -12.3210   -3.2932   -5.8804 C   0  0  1  0  0  0  0  0  0  0  0  0
  -11.3417   -4.4309   -5.6264 C   0  0  2  0  0  0  0  0  0  0  0  0
  -10.0354   -4.1560   -6.3754 C   0  0  1  0  0  0  0  0  0  0  0  0
   -9.3716   -2.8714   -5.8489 C   0  0  1  0  0  0  0  0  0  0  0  0
   -9.7330   -0.5243   -5.1591 N   0  3  0  0  0  0  0  0  0  0  0  0
  -13.6670   -3.5871   -5.2887 N   0  3  0  0  0  0  0  0  0  0  0  0
   -9.1589   -5.2643   -6.2164 O   0  0  0  0  0  0  0  0  0  0  0  0
  -11.9021   -5.6843   -6.0584 O   0  0  0  0  0  0  0  0  0  0  0  0
   -8.2393   -2.5328   -6.6766 O   0  0  0  0  0  0  0  0  0  0  0  0
  -12.6668   -6.3221   -5.0729 C   0  0  2  0  0  0  0  0  0  0  0  0
  -11.9310   -7.5669   -4.5659 C   0  0  1  0  0  0  0  0  0  0  0  0
  -11.9913   -8.6969   -5.5941 C   0  0  0  0  0  0  0  0  0  0  0  0
  -13.4423   -8.9382   -5.9781 C   0  0  1  0  0  0  0  0  0  0  0  0
  -14.0317   -7.6541   -6.5351 C   0  0  1  0  0  0  0  0  0  0  0  0
  -15.4826   -7.8333   -6.9434 C   0  0  0  0  0  0  0  0  0  0  0  0
  -10.4990   -7.2231   -4.2926 N   0  3  0  0  0  0  0  0  0  0  0  0
  -15.5223   -8.0698   -8.4285 N   0  3  0  0  0  0  0  0  0  0  0  0
  -13.5312   -9.9733   -6.9469 O   0  0  0  0  0  0  0  0  0  0  0  0
  -13.9804   -6.6311   -5.5263 O   0  0  0  0  0  0  0  0  0  0  0  0
  1  2  1  0  0  0  0
  1 22  1  1  0  0  0
  1 10  1  0  0  0  0
  2  3  1  0  0  0  0
  2  7  1  1  0  0  0
  3  4  1  0  0  0  0
  3  8  1  6  0  0  0
  4  5  1  0  0  0  0
  4  9  1  1  0  0  0
  5  6  1  6  0  0  0
  5 10  1  0  0  0  0
  6 11  1  0  0  0  0
 12 13  1  0  0  0  0
 12 17  1  0  0  0  0
 12 18  1  1  0  0  0
 13 14  1  0  0  0  0
 14 15  1  0  0  0  0
 14 19  1  1  0  0  0
 15 16  1  0  0  0  0
 15 21  1  6  0  0  0
 16 17  1  0  0  0  0
 16 20  1  1  0  0  0
 17 22  1  6  0  0  0
 23 21  1  6  0  0  0
 23 24  1  0  0  0  0
 23 32  1  0  0  0  0
 24 25  1  0  0  0  0
 24 29  1  6  0  0  0
 25 26  1  0  0  0  0
 26 27  1  0  0  0  0
 26 31  1  6  0  0  0
 27 28  1  1  0  0  0
 27 32  1  0  0  0  0
 28 30  1  0  0  0  0
M  CHG  5   8   1  18   1  19   1  29   1  30   1
M  END
>  <CHROM.1>
-176.61425812,-168.09726046,72.24334941,65.98997153,-69.91966046,-68.45814344
170.10877700,65.47134425,-87.80532283,172.81047178,-88.03569672,-109.34625478
-176.11090331,176.25431359,-98.13131870,-178.30571711,-10.59852691,-3.89802158
-6.87765055,-0.92452767,-0.13236454,2.94797287

>  <Name>
2tob cryst

>  <RI>
0

>  <Rbt.Current_Directory>
/home/itssahil/PROJECTS/Mol_Feturizer/New_Systems/rnas/2tob

>  <Rbt.Executable>
rbdock ($Id: //depot/dev/client3/rdock/2013.1/src/exe/rbdock.cxx#4 $)

>  <Rbt.Library>
libRbt.so (2013.1, Build901 2013/11/27)

>  <Rbt.Parameter_File>
/export/apps/rDock/src/rDock_2013.1_src/data/scripts/dock_solv.prm

>  <Rbt.Receptor>
prm/pocket_docking_5.prm

>  <SCORE>
-36.1064

>  <SCORE.INTER>
-16.0089

>  <SCORE.INTER.CONST>
1

>  <SCORE.INTER.POLAR>
-1.69644

>  <SCORE.INTER.ROT>
6

>  <SCORE.INTER.SOLV>
21.3883

>  <SCORE.INTER.VDW>
-19.7472

>  <SCORE.INTER.norm>
-0.500277

>  <SCORE.INTRA>
-20.0975

>  <SCORE.INTRA.DIHEDRAL>
1.05935

>  <SCORE.INTRA.DIHEDRAL.0>
18.4221

>  <SCORE.INTRA.POLAR>
-0.66229

>  <SCORE.INTRA.POLAR.0>
-1.57101

>  <SCORE.INTRA.REPUL>
-0.711628

>  <SCORE.INTRA.REPUL.0>
0.730195

>  <SCORE.INTRA.SOLV>
-2.81905

>  <SCORE.INTRA.SOLV.lig_0>
-127.221

>  <SCORE.INTRA.VDW>
-13.4078

>  <SCORE.INTRA.VDW.0>
10.8385

>  <SCORE.INTRA.norm>
-0.628048

>  <SCORE.RESTR>
0

>  <SCORE.RESTR.CAVITY>
0

>  <SCORE.RESTR.norm>
0

>  <SCORE.SYSTEM>
0

>  <SCORE.SYSTEM.CONST>
0

>  <SCORE.SYSTEM.DIHEDRAL>
0

>  <SCORE.SYSTEM.SOLV>
0

>  <SCORE.SYSTEM.norm>
0

>  <SCORE.heavy>
32

>  <SCORE.norm>
-1.12833

>  <RMSD>
3.605

$$$$
2tob cryst
 OpenBabel11021811463D
libRbt.so/2013.1/901 2013/11/27
 32 34  0  0  0  0  0  0  0  0999 V2000
   -8.1911   -0.4743   -7.9268 C   0  0  2  0  0  0  0  0  0  0  0  0
   -8.5193    1.0152   -7.9009 C   0  0  1  0  0  0  0  0  0  0  0  0
   -8.1299    1.6321   -9.2445 C   0  0  2  0  0  0  0  0  0  0  0  0
   -6.6580    1.3465   -9.5708 C   0  0  1  0  0  0  0  0  0  0  0  0
   -6.3768   -0.1553   -9.4512 C   0  0  1  0  0  0  0  0  0  0  0  0
   -4.9135   -0.5335   -9.6120 C   0  0  0  0  0  0  0  0  0  0  0  0
   -9.9126    1.2033   -7.6683 O   0  0  0  0  0  0  0  0  0  0  0  0
   -8.3555    3.1016   -9.4224 N   0  3  0  0  0  0  0  0  0  0  0  0
   -6.3843    1.7862  -10.8952 O   0  0  0  0  0  0  0  0  0  0  0  0
   -6.8045   -0.6335   -8.1602 O   0  0  0  0  0  0  0  0  0  0  0  0
   -4.7511   -1.9481   -9.5980 O   0  0  0  0  0  0  0  0  0  0  0  0
   -8.4358   -3.1048   -7.7299 C   0  0  2  0  0  0  0  0  0  0  0  0
   -8.9489   -4.4386   -7.1705 C   0  0  0  0  0  0  0  0  0  0  0  0
  -10.3771   -4.3319   -6.6432 C   0  0  1  0  0  0  0  0  0  0  0  0
  -11.2705   -3.8337   -7.7710 C   0  0  2  0  0  0  0  0  0  0  0  0
  -10.8381   -2.4230   -8.1785 C   0  0  1  0  0  0  0  0  0  0  0  0
   -9.3989   -2.4360   -8.7233 C   0  0  1  0  0  0  0  0  0  0  0  0
   -7.1012   -3.2884   -8.3935 N   0  3  0  0  0  0  0  0  0  0  0  0
  -10.8535   -5.6494   -6.1089 N   0  3  0  0  0  0  0  0  0  0  0  0
  -11.7331   -1.9219   -9.1633 O   0  0  0  0  0  0  0  0  0  0  0  0
  -12.6487   -3.8253   -7.3562 O   0  0  0  0  0  0  0  0  0  0  0  0
   -8.9467   -1.0829   -8.9389 O   0  0  0  0  0  0  0  0  0  0  0  0
  -13.5476   -3.6328   -8.4133 C   0  0  2  0  0  0  0  0  0  0  0  0
  -14.9774   -3.5348   -7.8710 C   0  0  1  0  0  0  0  0  0  0  0  0
  -15.4981   -4.9078   -7.4451 C   0  0  0  0  0  0  0  0  0  0  0  0
  -15.3307   -5.8800   -8.6017 C   0  0  1  0  0  0  0  0  0  0  0  0
  -13.8645   -5.9434   -8.9926 C   0  0  1  0  0  0  0  0  0  0  0  0
  -13.6314   -6.9057  -10.1431 C   0  0  0  0  0  0  0  0  0  0  0  0
  -15.0018   -2.6097   -6.6932 N   0  3  0  0  0  0  0  0  0  0  0  0
  -12.1531   -7.1670  -10.2390 N   0  3  0  0  0  0  0  0  0  0  0  0
  -15.7907   -7.1720   -8.2315 O   0  0  0  0  0  0  0  0  0  0  0  0
  -13.4279   -4.6396   -9.4126 O   0  0  0  0  0  0  0  0  0  0  0  0
  1  2  1  0  0  0  0
  1 22  1  6  0  0  0
  1 10  1  0  0  0  0
  2  3  1  0  0  0  0
  2  7  1  6  0  0  0
  3  4  1  0  0  0  0
  3  8  1  1  0  0  0
  4  5  1  0  0  0  0
  4  9  1  6  0  0  0
  5  6  1  1  0  0  0
  5 10  1  0  0  0  0
  6 11  1  0  0  0  0
 12 13  1  0  0  0  0
 12 17  1  0  0  0  0
 12 18  1  6  0  0  0
 13 14  1  0  0  0  0
 14 15  1  0  0  0  0
 14 19  1  6  0  0  0
 15 16  1  0  0  0  0
 15 21  1  1  0  0  0
 16 17  1  0  0  0  0
 16 20  1  6  0  0  0
 17 22  1  1  0  0  0
 23 21  1  1  0  0  0
 23 24  1  0  0  0  0
 23 32  1  0  0  0  0
 24 25  1  0  0  0  0
 24 29  1  1  0  0  0
 25 26  1  0  0  0  0
 26 27  1  0  0  0  0
 26 31  1  1  0  0  0
 27 28  1  6  0  0  0
 27 32  1  0  0  0  0
 28 30  1  0  0  0  0
M  CHG  5   8   1  18   1  19   1  29   1  30   1
M  END
>  <CHROM.1>
-146.22193392,-54.44132383,12.70134376,58.36862076,-175.20993505,-135.38274409
76.38670724,-51.47696107,-168.15225363,-168.03548398,-25.33073361,-175.86646145
-47.88060970,175.41298858,-166.19509482,-173.30421451,-10.38316620,-2.56847720
-8.50444861,0.68193879,0.12249122,-0.00180510

>  <Name>
2tob cryst

>  <RI>
0

>  <Rbt.Current_Directory>
/home/itssahil/PROJECTS/Mol_Feturizer/New_Systems/rnas/2tob

>  <Rbt.Executable>
rbdock ($Id: //depot/dev/client3/rdock/2013.1/src/exe/rbdock.cxx#4 $)

>  <Rbt.Library>
libRbt.so (2013.1, Build901 2013/11/27)

>  <Rbt.Parameter_File>
/export/apps/rDock/src/rDock_2013.1_src/data/scripts/dock_solv.prm

>  <Rbt.Receptor>
prm/pocket_docking_6.prm

>  <SCORE>
-58.857

>  <SCORE.INTER>
-47.7447

>  <SCORE.INTER.CONST>
1

>  <SCORE.INTER.POLAR>
-6.70886

>  <SCORE.INTER.ROT>
6

>  <SCORE.INTER.SOLV>
33.1109

>  <SCORE.INTER.VDW>
-28.1039

>  <SCORE.INTER.norm>
-1.49202

>  <SCORE.INTRA>
-11.1123

>  <SCORE.INTRA.DIHEDRAL>
3.48451

>  <SCORE.INTRA.DIHEDRAL.0>
18.4221

>  <SCORE.INTRA.POLAR>
0.374723

>  <SCORE.INTRA.POLAR.0>
-1.57101

>  <SCORE.INTRA.REPUL>
-0.667828

>  <SCORE.INTRA.REPUL.0>
0.730195

>  <SCORE.INTRA.SOLV>
-5.16117

>  <SCORE.INTRA.SOLV.lig_0>
-127.221

>  <SCORE.INTRA.VDW>
-8.20885

>  <SCORE.INTRA.VDW.0>
10.8385

>  <SCORE.INTRA.norm>
-0.347258

>  <SCORE.RESTR>
0

>  <SCORE.RESTR.CAVITY>
0

>  <SCORE.RESTR.norm>
0

>  <SCORE.SYSTEM>
0

>  <SCORE.SYSTEM.CONST>
0

>  <SCORE.SYSTEM.DIHEDRAL>
0

>  <SCORE.SYSTEM.SOLV>
0

>  <SCORE.SYSTEM.norm>
0

>  <SCORE.heavy>
32

>  <SCORE.norm>
-1.83928

>  <RMSD>
3.637

$$$$
2tob cryst
 OpenBabel11021811463D
libRbt.so/2013.1/901 2013/11/27
 32 34  0  0  0  0  0  0  0  0999 V2000
   -6.3270    1.3966   -8.6713 C   0  0  2  0  0  0  0  0  0  0  0  0
   -5.1451    1.6845   -9.5917 C   0  0  1  0  0  0  0  0  0  0  0  0
   -4.8973    0.4631  -10.4773 C   0  0  2  0  0  0  0  0  0  0  0  0
   -4.7029   -0.7987   -9.6261 C   0  0  1  0  0  0  0  0  0  0  0  0
   -5.8660   -0.9494   -8.6395 C   0  0  1  0  0  0  0  0  0  0  0  0
   -5.7018   -2.0884   -7.6466 C   0  0  0  0  0  0  0  0  0  0  0  0
   -5.4254    2.8215  -10.4037 O   0  0  0  0  0  0  0  0  0  0  0  0
   -3.7605    0.5324  -11.4493 N   0  3  0  0  0  0  0  0  0  0  0  0
   -4.6463   -1.9312  -10.4843 O   0  0  0  0  0  0  0  0  0  0  0  0
   -6.0243    0.2645   -7.8781 O   0  0  0  0  0  0  0  0  0  0  0  0
   -5.7861   -3.3492   -8.3032 O   0  0  0  0  0  0  0  0  0  0  0  0
   -9.7302    1.8814   -9.0393 C   0  0  2  0  0  0  0  0  0  0  0  0
  -11.1583    1.4763   -8.6500 C   0  0  0  0  0  0  0  0  0  0  0  0
  -11.5544    0.1239   -9.2360 C   0  0  1  0  0  0  0  0  0  0  0  0
  -10.5459   -0.9168   -8.7693 C   0  0  2  0  0  0  0  0  0  0  0  0
   -9.1634   -0.5745   -9.3303 C   0  0  1  0  0  0  0  0  0  0  0  0
   -8.6833    0.7842   -8.7903 C   0  0  1  0  0  0  0  0  0  0  0  0
   -9.3156    3.1256   -8.3075 N   0  3  0  0  0  0  0  0  0  0  0  0
  -12.9504   -0.2483   -8.8351 N   0  3  0  0  0  0  0  0  0  0  0  0
   -8.2437   -1.5989   -8.9745 O   0  0  0  0  0  0  0  0  0  0  0  0
  -10.9409   -2.2313   -9.2024 O   0  0  0  0  0  0  0  0  0  0  0  0
   -7.4649    1.1718   -9.4589 O   0  0  0  0  0  0  0  0  0  0  0  0
  -10.7797   -3.2145   -8.2175 C   0  0  2  0  0  0  0  0  0  0  0  0
  -12.1362   -3.8419   -7.8797 C   0  0  1  0  0  0  0  0  0  0  0  0
  -12.9876   -2.8894   -7.0398 C   0  0  0  0  0  0  0  0  0  0  0  0
  -12.1828   -2.4449   -5.8292 C   0  0  1  0  0  0  0  0  0  0  0  0
  -10.9043   -1.7729   -6.2988 C   0  0  1  0  0  0  0  0  0  0  0  0
  -10.0572   -1.3000   -5.1313 C   0  0  0  0  0  0  0  0  0  0  0  0
  -12.8643   -4.1683   -9.1474 N   0  3  0  0  0  0  0  0  0  0  0  0
  -10.4864   -2.0609   -3.9067 N   0  3  0  0  0  0  0  0  0  0  0  0
  -12.9415   -1.5436   -5.0354 O   0  0  0  0  0  0  0  0  0  0  0  0
  -10.1245   -2.7127   -7.0574 O   0  0  0  0  0  0  0  0  0  0  0  0
  1  2  1  0  0  0  0
  1 22  1  6  0  0  0
  1 10  1  0  0  0  0
  2  3  1  0  0  0  0
  2  7  1  6  0  0  0
  3  4  1  0  0  0  0
  3  8  1  1  0  0  0
  4  5  1  0  0  0  0
  4  9  1  6  0  0  0
  5  6  1  1  0  0  0
  5 10  1  0  0  0  0
  6 11  1  0  0  0  0
 12 13  1  0  0  0  0
 12 17  1  0  0  0  0
 12 18  1  1  0  0  0
 13 14  1  0  0  0  0
 14 15  1  0  0  0  0
 14 19  1  1  0  0  0
 15 16  1  0  0  0  0
 15 21  1  6  0  0  0
 16 17  1  0  0  0  0
 16 20  1  1  0  0  0
 17 22  1  6  0  0  0
 23 21  1  6  0  0  0
 23 24  1  0  0  0  0
 23 32  1  0  0  0  0
 24 25  1  0  0  0  0
 24 29  1  6  0  0  0
 25 26  1  0  0  0  0
 26 27  1  0  0  0  0
 26 31  1  6  0  0  0
 27 28  1  1  0  0  0
 27 32  1  0  0  0  0
 28 30  1  0  0  0  0
M  CHG  5   8   1  18   1  19   1  29   1  30   1
M  END
>  <CHROM.1>
175.62303796,-40.70712804,-143.63227337,70.02819100,-68.53680862,158.24149079
-99.72383570,-172.43951523,-137.35281564,-38.93931830,117.26592406,118.76602642
-28.12525172,58.82478150,20.03598305,175.47393748,-8.84802459,-0.79308339
-8.35292183,0.44552615,0.28085188,-0.30066851

>  <Name>
2tob cryst

>  <RI>
0

>  <Rbt.Current_Directory>
/home/itssahil/PROJECTS/Mol_Feturizer/New_Systems/rnas/2tob

>  <Rbt.Executable>
rbdock ($Id: //depot/dev/client3/rdock/2013.1/src/exe/rbdock.cxx#4 $)

>  <Rbt.Library>
libRbt.so (2013.1, Build901 2013/11/27)

>  <Rbt.Parameter_File>
/export/apps/rDock/src/rDock_2013.1_src/data/scripts/dock_solv.prm

>  <Rbt.Receptor>
prm/blind_docking_80.prm

>  <SCORE>
-12.0905

>  <SCORE.INTER>
-15.366

>  <SCORE.INTER.CONST>
1

>  <SCORE.INTER.POLAR>
-4.66188

>  <SCORE.INTER.ROT>
6

>  <SCORE.INTER.SOLV>
41.744

>  <SCORE.INTER.VDW>
-16.2191

>  <SCORE.INTER.norm>
-0.480187

>  <SCORE.INTRA>
-0.257381

>  <SCORE.INTRA.DIHEDRAL>
19.4107

>  <SCORE.INTRA.DIHEDRAL.0>
18.4221

>  <SCORE.INTRA.POLAR>
0.271253

>  <SCORE.INTRA.POLAR.0>
-1.57101

>  <SCORE.INTRA.REPUL>
-0.730195

>  <SCORE.INTRA.REPUL.0>
0.730195

>  <SCORE.INTRA.SOLV>
-0.532362

>  <SCORE.INTRA.SOLV.lig_0>
-127.221

>  <SCORE.INTRA.VDW>
-6.96782

>  <SCORE.INTRA.VDW.0>
10.8385

>  <SCORE.INTRA.norm>
-0.00804314

>  <SCORE.RESTR>
3.53291

>  <SCORE.RESTR.CAVITY>
3.53291

>  <SCORE.RESTR.norm>
0.110403

>  <SCORE.SYSTEM>
0

>  <SCORE.SYSTEM.CONST>
0

>  <SCORE.SYSTEM.DIHEDRAL>
0

>  <SCORE.SYSTEM.SOLV>
0

>  <SCORE.SYSTEM.norm>
0

>  <SCORE.heavy>
32

>  <SCORE.norm>
-0.377827

>  <RMSD>
3.640

$$$$
2tob cryst
 OpenBabel11021811463D
libRbt.so/2013.1/901 2013/11/27
 32 34  0  0  0  0  0  0  0  0999 V2000
   -8.7346   -0.4358   -7.8499 C   0  0  2  0  0  0  0  0  0  0  0  0
   -8.8602    1.0672   -8.0780 C   0  0  1  0  0  0  0  0  0  0  0  0
   -8.1799    1.4267   -9.3993 C   0  0  2  0  0  0  0  0  0  0  0  0
   -6.7263    0.9354   -9.4168 C   0  0  1  0  0  0  0  0  0  0  0  0
   -6.6718   -0.5525   -9.0535 C   0  0  1  0  0  0  0  0  0  0  0  0
   -5.2658   -1.1087   -8.8992 C   0  0  0  0  0  0  0  0  0  0  0  0
  -10.2348    1.4399   -8.1250 O   0  0  0  0  0  0  0  0  0  0  0  0
   -8.1750    2.8679   -9.8052 N   0  3  0  0  0  0  0  0  0  0  0  0
   -6.1861    1.1363  -10.7168 O   0  0  0  0  0  0  0  0  0  0  0  0
   -7.3625   -0.7795   -7.8086 O   0  0  0  0  0  0  0  0  0  0  0  0
   -5.2640   -2.5264   -9.0327 O   0  0  0  0  0  0  0  0  0  0  0  0
   -9.2230   -3.1999   -7.7127 C   0  0  2  0  0  0  0  0  0  0  0  0
   -9.9611   -4.3652   -7.0401 C   0  0  0  0  0  0  0  0  0  0  0  0
  -11.2170   -3.9053   -6.3049 C   0  0  1  0  0  0  0  0  0  0  0  0
  -12.1207   -3.1881   -7.2983 C   0  0  2  0  0  0  0  0  0  0  0  0
  -11.4168   -1.9292   -7.8110 C   0  0  1  0  0  0  0  0  0  0  0  0
  -10.1297   -2.3011   -8.5681 C   0  0  1  0  0  0  0  0  0  0  0  0
   -8.0971   -3.7094   -8.5659 N   0  3  0  0  0  0  0  0  0  0  0  0
  -11.9197   -5.0640   -5.6632 N   0  3  0  0  0  0  0  0  0  0  0  0
  -12.2993   -1.2099   -8.6631 O   0  0  0  0  0  0  0  0  0  0  0  0
  -13.3709   -2.8350   -6.6788 O   0  0  0  0  0  0  0  0  0  0  0  0
   -9.3916   -1.1045   -8.8924 O   0  0  0  0  0  0  0  0  0  0  0  0
  -14.4821   -3.0485   -7.5047 C   0  0  2  0  0  0  0  0  0  0  0  0
  -15.7614   -3.0754   -6.6616 C   0  0  1  0  0  0  0  0  0  0  0  0
  -15.8730   -4.3818   -5.8752 C   0  0  0  0  0  0  0  0  0  0  0  0
  -15.7302   -5.5507   -6.8366 C   0  0  1  0  0  0  0  0  0  0  0  0
  -14.3935   -5.4496   -7.5507 C   0  0  1  0  0  0  0  0  0  0  0  0
  -14.1890   -6.5963   -8.5240 C   0  0  0  0  0  0  0  0  0  0  0  0
  -15.7531   -1.9222   -5.7058 N   0  3  0  0  0  0  0  0  0  0  0  0
  -15.0228   -6.3239   -9.7460 N   0  3  0  0  0  0  0  0  0  0  0  0
  -15.8126   -6.7820   -6.1329 O   0  0  0  0  0  0  0  0  0  0  0  0
  -14.3459   -4.2226   -8.2983 O   0  0  0  0  0  0  0  0  0  0  0  0
  1  2  1  0  0  0  0
  1 22  1  6  0  0  0
  1 10  1  0  0  0  0
  2  3  1  0  0  0  0
  2  7  1  6  0  0  0
  3  4  1  0  0  0  0
  3  8  1  1  0  0  0
  4  5  1  0  0  0  0
  4  9  1  6  0  0  0
  5  6  1  1  0  0  0
  5 10  1  0  0  0  0
  6 11  1  0  0  0  0
 12 13  1  0  0  0  0
 12 17  1  0  0  0  0
 12 18  1  6  0  0  0
 13 14  1  0  0  0  0
 14 15  1  0  0  0  0
 14 19  1  6  0  0  0
 15 16  1  0  0  0  0
 15 21  1  1  0  0  0
 16 17  1  0  0  0  0
 16 20  1  6  0  0  0
 17 22  1  1  0  0  0
 23 21  1  1  0  0  0
 23 24  1  0  0  0  0
 23 32  1  0  0  0  0
 24 25  1  0  0  0  0
 24 29  1  1  0  0  0
 25 26  1  0  0  0  0
 26 27  1  0  0  0  0
 26 31  1  1  0  0  0
 27 28  1  6  0  0  0
 27 32  1  0  0  0  0
 28 30  1  0  0  0  0
M  CHG  5   8   1  18   1  19   1  29   1  30   1
M  END
>  <CHROM.1>
-141.89516227,65.29603660,48.34784323,-179.68084690,-159.53239628,-153.54749114
84.53713633,-168.32313262,-138.57372993,-175.38794770,-48.61472617,162.39518053
-149.46869028,70.38086673,76.36771017,44.96137038,-10.99902403,-2.39029515
-7.96212158,0.58040288,0.21120463,-0.08144172

>  <Name>
2tob cryst

>  <RI>
3.35201e+07

>  <Rbt.Current_Directory>
/home/itssahil/PROJECTS/Mol_Feturizer/New_Systems/rnas/2tob

>  <Rbt.Executable>
rbdock ($Id: //depot/dev/client3/rdock/2013.1/src/exe/rbdock.cxx#4 $)

>  <Rbt.Library>
libRbt.so (2013.1, Build901 2013/11/27)

>  <Rbt.Parameter_File>
/export/apps/rDock/src/rDock_2013.1_src/data/scripts/dock_solv.prm

>  <Rbt.Receptor>
prm/pocket_docking_4.prm

>  <SCORE>
-68.343

>  <SCORE.INTER>
-52.0894

>  <SCORE.INTER.CONST>
1

>  <SCORE.INTER.POLAR>
-8.87372

>  <SCORE.INTER.ROT>
6

>  <SCORE.INTER.SOLV>
32.6508

>  <SCORE.INTER.VDW>
-23.6308

>  <SCORE.INTER.norm>
-1.62779

>  <SCORE.INTRA>
-16.7208

>  <SCORE.INTRA.DIHEDRAL>
4.79136

>  <SCORE.INTRA.DIHEDRAL.0>
18.4221

>  <SCORE.INTRA.POLAR>
0.0777672

>  <SCORE.INTRA.POLAR.0>
-1.57101

>  <SCORE.INTRA.REPUL>
-0.730195

>  <SCORE.INTRA.REPUL.0>
0.730195

>  <SCORE.INTRA.SOLV>
-2.89117

>  <SCORE.INTRA.SOLV.lig_0>
-127.221

>  <SCORE.INTRA.VDW>
-14.2843

>  <SCORE.INTRA.VDW.0>
10.8385

>  <SCORE.INTRA.norm>
-0.522524

>  <SCORE.RESTR>
0.467172

>  <SCORE.RESTR.CAVITY>
0.467172

>  <SCORE.RESTR.norm>
0.0145991

>  <SCORE.SYSTEM>
0

>  <SCORE.SYSTEM.CONST>
0

>  <SCORE.SYSTEM.DIHEDRAL>
0

>  <SCORE.SYSTEM.SOLV>
0

>  <SCORE.SYSTEM.norm>
0

>  <SCORE.heavy>
32

>  <SCORE.norm>
-2.13572

>  <RMSD>
3.662

$$$$
2tob cryst
 OpenBabel11021811463D
libRbt.so/2013.1/901 2013/11/27
 32 34  0  0  0  0  0  0  0  0999 V2000
   -8.6795   -2.4714   -8.0169 C   0  0  2  0  0  0  0  0  0  0  0  0
   -7.3532   -2.3005   -8.7508 C   0  0  1  0  0  0  0  0  0  0  0  0
   -6.7813   -0.9201   -8.4264 C   0  0  2  0  0  0  0  0  0  0  0  0
   -7.7964    0.1828   -8.7545 C   0  0  1  0  0  0  0  0  0  0  0  0
   -9.1402   -0.1262   -8.0853 C   0  0  1  0  0  0  0  0  0  0  0  0
  -10.2619    0.8276   -8.4626 C   0  0  0  0  0  0  0  0  0  0  0  0
   -6.4362   -3.3119   -8.3423 O   0  0  0  0  0  0  0  0  0  0  0  0
   -5.4809   -0.5424   -9.0653 N   0  3  0  0  0  0  0  0  0  0  0  0
   -7.2955    1.4273   -8.2827 O   0  0  0  0  0  0  0  0  0  0  0  0
   -9.5703   -1.4560   -8.4386 O   0  0  0  0  0  0  0  0  0  0  0  0
  -10.4575    0.8474   -9.8729 O   0  0  0  0  0  0  0  0  0  0  0  0
  -10.4378   -1.8019   -5.4215 C   0  0  2  0  0  0  0  0  0  0  0  0
  -11.7218   -2.2860   -4.7345 C   0  0  0  0  0  0  0  0  0  0  0  0
  -12.3644   -3.4575   -5.4721 C   0  0  1  0  0  0  0  0  0  0  0  0
  -11.3425   -4.5816   -5.5727 C   0  0  2  0  0  0  0  0  0  0  0  0
  -10.1554   -4.1171   -6.4201 C   0  0  1  0  0  0  0  0  0  0  0  0
   -9.4451   -2.9287   -5.7484 C   0  0  1  0  0  0  0  0  0  0  0  0
   -9.7441   -0.7704   -4.5788 N   0  3  0  0  0  0  0  0  0  0  0  0
  -13.6121   -3.9125   -4.7761 N   0  3  0  0  0  0  0  0  0  0  0  0
   -9.2487   -5.1987   -6.5938 O   0  0  0  0  0  0  0  0  0  0  0  0
  -11.9378   -5.7530   -6.1600 O   0  0  0  0  0  0  0  0  0  0  0  0
   -8.4422   -2.3940   -6.6372 O   0  0  0  0  0  0  0  0  0  0  0  0
  -12.3608   -6.6967   -5.2149 C   0  0  2  0  0  0  0  0  0  0  0  0
  -11.7885   -8.0751   -5.5616 C   0  0  1  0  0  0  0  0  0  0  0  0
  -12.5169   -8.6865   -6.7588 C   0  0  0  0  0  0  0  0  0  0  0  0
  -14.0119   -8.6787   -6.4838 C   0  0  1  0  0  0  0  0  0  0  0  0
  -14.4661   -7.2514   -6.2323 C   0  0  1  0  0  0  0  0  0  0  0  0
  -15.9568   -7.1771   -5.9562 C   0  0  0  0  0  0  0  0  0  0  0  0
  -10.3316   -7.9436   -5.8839 N   0  3  0  0  0  0  0  0  0  0  0  0
  -16.2139   -7.8099   -4.6159 N   0  3  0  0  0  0  0  0  0  0  0  0
  -14.7200   -9.2261   -7.5870 O   0  0  0  0  0  0  0  0  0  0  0  0
  -13.7779   -6.7294   -5.0831 O   0  0  0  0  0  0  0  0  0  0  0  0
  1  2  1  0  0  0  0
  1 22  1  1  0  0  0
  1 10  1  0  0  0  0
  2  3  1  0  0  0  0
  2  7  1  1  0  0  0
  3  4  1  0  0  0  0
  3  8  1  6  0  0  0
  4  5  1  0  0  0  0
  4  9  1  1  0  0  0
  5  6  1  6  0  0  0
  5 10  1  0  0  0  0
  6 11  1  0  0  0  0
 12 13  1  0  0  0  0
 12 17  1  0  0  0  0
 12 18  1  1  0  0  0
 13 14  1  0  0  0  0
 14 15  1  0  0  0  0
 14 19  1  1  0  0  0
 15 16  1  0  0  0  0
 15 21  1  6  0  0  0
 16 17  1  0  0  0  0
 16 20  1  1  0  0  0
 17 22  1  6  0  0  0
 23 21  1  6  0  0  0
 23 24  1  0  0  0  0
 23 32  1  0  0  0  0
 24 25  1  0  0  0  0
 24 29  1  6  0  0  0
 25 26  1  0  0  0  0
 26 27  1  0  0  0  0
 26 31  1  6  0  0  0
 27 28  1  1  0  0  0
 27 32  1  0  0  0  0
 28 30  1  0  0  0  0
M  CHG  5   8   1  18   1  19   1  29   1  30   1
M  END
>  <CHROM.1>
-161.18673140,-57.42767271,-58.25927962,-64.10140424,57.18297169,170.35976169
71.57411627,64.41001199,-97.40500170,-75.09327301,-89.73412068,-128.29588111
-41.71725368,64.88071802,69.38455400,64.94984071,-10.72997819,-3.84651619
-6.75267777,-0.83694986,-0.38289500,3.14038499

>  <Name>
2tob cryst

>  <RI>
3.35201e+07

>  <Rbt.Current_Directory>
/home/itssahil/PROJECTS/Mol_Feturizer/New_Systems/rnas/2tob

>  <Rbt.Executable>
rbdock ($Id: //depot/dev/client3/rdock/2013.1/src/exe/rbdock.cxx#4 $)

>  <Rbt.Library>
libRbt.so (2013.1, Build901 2013/11/27)

>  <Rbt.Parameter_File>
/export/apps/rDock/src/rDock_2013.1_src/data/scripts/dock_solv.prm

>  <Rbt.Receptor>
prm/pocket_docking_4.prm

>  <SCORE>
-45.4507

>  <SCORE.INTER>
-26.5703

>  <SCORE.INTER.CONST>
1

>  <SCORE.INTER.POLAR>
-3.58341

>  <SCORE.INTER.ROT>
6

>  <SCORE.INTER.SOLV>
23.2792

>  <SCORE.INTER.VDW>
-21.1286

>  <SCORE.INTER.norm>
-0.830323

>  <SCORE.INTRA>
-18.894

>  <SCORE.INTRA.DIHEDRAL>
1.89946

>  <SCORE.INTRA.DIHEDRAL.0>
18.4221

>  <SCORE.INTRA.POLAR>
-0.0287287

>  <SCORE.INTRA.POLAR.0>
-1.57101

>  <SCORE.INTRA.REPUL>
-0.730195

>  <SCORE.INTRA.REPUL.0>
0.730195

>  <SCORE.INTRA.SOLV>
-3.04727

>  <SCORE.INTRA.SOLV.lig_0>
-127.221

>  <SCORE.INTRA.VDW>
-14.5715

>  <SCORE.INTRA.VDW.0>
10.8385

>  <SCORE.INTRA.norm>
-0.590438

>  <SCORE.RESTR>
0.0136509

>  <SCORE.RESTR.CAVITY>
0.0136509

>  <SCORE.RESTR.norm>
0.000426589

>  <SCORE.SYSTEM>
0

>  <SCORE.SYSTEM.CONST>
0

>  <SCORE.SYSTEM.DIHEDRAL>
0

>  <SCORE.SYSTEM.SOLV>
0

>  <SCORE.SYSTEM.norm>
0

>  <SCORE.heavy>
32

>  <SCORE.norm>
-1.42033

>  <RMSD>
3.664

$$$$
2tob cryst
 OpenBabel11021811463D
libRbt.so/2013.1/901 2013/11/27
 32 34  0  0  0  0  0  0  0  0999 V2000
   -8.9412   -2.7456   -8.5781 C   0  0  2  0  0  0  0  0  0  0  0  0
   -7.5012   -2.4741   -9.0020 C   0  0  1  0  0  0  0  0  0  0  0  0
   -7.0428   -1.1533   -8.3831 C   0  0  2  0  0  0  0  0  0  0  0  0
   -8.0030   -0.0146   -8.7521 C   0  0  1  0  0  0  0  0  0  0  0  0
   -9.4435   -0.4137   -8.4136 C   0  0  1  0  0  0  0  0  0  0  0  0
  -10.4942    0.5842   -8.8721 C   0  0  0  0  0  0  0  0  0  0  0  0
   -6.6556   -3.5334   -8.5619 O   0  0  0  0  0  0  0  0  0  0  0  0
   -5.6527   -0.6903   -8.6916 N   0  3  0  0  0  0  0  0  0  0  0  0
   -7.6396    1.1510   -8.0232 O   0  0  0  0  0  0  0  0  0  0  0  0
   -9.7586   -1.6805   -9.0252 O   0  0  0  0  0  0  0  0  0  0  0  0
  -11.8030    0.0391   -8.7393 O   0  0  0  0  0  0  0  0  0  0  0  0
  -11.2545   -2.6332   -6.4068 C   0  0  2  0  0  0  0  0  0  0  0  0
  -12.5828   -3.3284   -6.0792 C   0  0  0  0  0  0  0  0  0  0  0  0
  -12.8926   -4.4665   -7.0478 C   0  0  1  0  0  0  0  0  0  0  0  0
  -11.7361   -5.4561   -7.0133 C   0  0  2  0  0  0  0  0  0  0  0  0
  -10.4642   -4.7716   -7.5203 C   0  0  1  0  0  0  0  0  0  0  0  0
  -10.0769   -3.6018   -6.5985 C   0  0  1  0  0  0  0  0  0  0  0  0
  -10.8998   -1.6403   -5.3374 N   0  3  0  0  0  0  0  0  0  0  0  0
  -14.1915   -5.1303   -6.7005 N   0  3  0  0  0  0  0  0  0  0  0  0
   -9.4088   -5.7227   -7.5793 O   0  0  0  0  0  0  0  0  0  0  0  0
  -12.0326   -6.6068   -7.8254 O   0  0  0  0  0  0  0  0  0  0  0  0
   -8.9834   -2.8628   -7.1816 O   0  0  0  0  0  0  0  0  0  0  0  0
  -11.0675   -7.6180   -7.7328 C   0  0  2  0  0  0  0  0  0  0  0  0
  -11.2535   -8.6229   -8.8745 C   0  0  1  0  0  0  0  0  0  0  0  0
  -12.4690   -9.5166   -8.6264 C   0  0  0  0  0  0  0  0  0  0  0  0
  -12.3452  -10.1475   -7.2489 C   0  0  1  0  0  0  0  0  0  0  0  0
  -12.2456   -9.0498   -6.2040 C   0  0  1  0  0  0  0  0  0  0  0  0
  -12.1251   -9.6187   -4.8019 C   0  0  0  0  0  0  0  0  0  0  0  0
  -11.4382   -7.8839  -10.1642 N   0  3  0  0  0  0  0  0  0  0  0  0
  -11.7888   -8.4882   -3.8682 N   0  3  0  0  0  0  0  0  0  0  0  0
  -13.4700  -10.9724   -6.9805 O   0  0  0  0  0  0  0  0  0  0  0  0
  -11.0751   -8.2551   -6.4597 O   0  0  0  0  0  0  0  0  0  0  0  0
  1  2  1  0  0  0  0
  1 22  1  1  0  0  0
  1 10  1  0  0  0  0
  2  3  1  0  0  0  0
  2  7  1  1  0  0  0
  3  4  1  0  0  0  0
  3  8  1  6  0  0  0
  4  5  1  0  0  0  0
  4  9  1  1  0  0  0
  5  6  1  6  0  0  0
  5 10  1  0  0  0  0
  6 11  1  0  0  0  0
 12 13  1  0  0  0  0
 12 17  1  0  0  0  0
 12 18  1  1  0  0  0
 13 14  1  0  0  0  0
 14 15  1  0  0  0  0
 14 19  1  1  0  0  0
 15 16  1  0  0  0  0
 15 21  1  6  0  0  0
 16 17  1  0  0  0  0
 16 20  1  1  0  0  0
 17 22  1  6  0  0  0
 23 21  1  1  0  0  0
 23 24  1  0  0  0  0
 23 32  1  0  0  0  0
 24 25  1  0  0  0  0
 24 29  1  6  0  0  0
 25 26  1  0  0  0  0
 26 27  1  0  0  0  0
 26 31  1  1  0  0  0
 27 28  1  1  0  0  0
 27 32  1  0  0  0  0
 28 30  1  0  0  0  0
M  CHG  5   8   1  18   1  19   1  29   1  30   1
M  END
>  <CHROM.1>
-156.72082170,-69.34452919,-61.61884923,-177.48657920,169.59154849,-157.57144770
-78.45562344,-54.15105276,-173.99556695,-62.62791141,-86.61439992,-165.26735522
57.30833408,-59.88571209,170.12236495,76.99773983,-10.51711610,-4.58402159
-7.52889241,-1.09232071,-0.44817462,-3.09502797

>  <Name>
2tob cryst

>  <RI>
3.75586e+07

>  <Rbt.Current_Directory>
/home/itssahil/PROJECTS/Mol_Feturizer/New_Systems/rnas/2tob

>  <Rbt.Executable>
rbdock ($Id: //depot/dev/client3/rdock/2013.1/src/exe/rbdock.cxx#4 $)

>  <Rbt.Library>
libRbt.so (2013.1, Build901 2013/11/27)

>  <Rbt.Parameter_File>
/export/apps/rDock/src/rDock_2013.1_src/data/scripts/dock_solv.prm

>  <Rbt.Receptor>
prm/pocket_docking_8.prm

>  <SCORE>
-45.0746

>  <SCORE.INTER>
-26.4118

>  <SCORE.INTER.CONST>
1

>  <SCORE.INTER.POLAR>
-3.67552

>  <SCORE.INTER.ROT>
6

>  <SCORE.INTER.SOLV>
24.2631

>  <SCORE.INTER.VDW>
-21.0438

>  <SCORE.INTER.norm>
-0.825368

>  <SCORE.INTRA>
-18.6628

>  <SCORE.INTRA.DIHEDRAL>
-6.74952

>  <SCORE.INTRA.DIHEDRAL.0>
18.4221

>  <SCORE.INTRA.POLAR>
1.3364

>  <SCORE.INTRA.POLAR.0>
-1.57101

>  <SCORE.INTRA.REPUL>
-0.730195

>  <SCORE.INTRA.REPUL.0>
0.730195

>  <SCORE.INTRA.SOLV>
-9.38362

>  <SCORE.INTRA.SOLV.lig_0>
-127.221

>  <SCORE.INTRA.VDW>
-11.489

>  <SCORE.INTRA.VDW.0>
10.8385

>  <SCORE.INTRA.norm>
-0.583213

>  <SCORE.RESTR>
0

>  <SCORE.RESTR.CAVITY>
0

>  <SCORE.RESTR.norm>
0

>  <SCORE.SYSTEM>
0

>  <SCORE.SYSTEM.CONST>
0

>  <SCORE.SYSTEM.DIHEDRAL>
0

>  <SCORE.SYSTEM.SOLV>
0

>  <SCORE.SYSTEM.norm>
0

>  <SCORE.heavy>
32

>  <SCORE.norm>
-1.40858

>  <RMSD>
3.668

$$$$
2tob cryst
 OpenBabel11021811463D
libRbt.so/2013.1/901 2013/11/27
 32 34  0  0  0  0  0  0  0  0999 V2000
   -6.4223    1.3808   -8.6513 C   0  0  2  0  0  0  0  0  0  0  0  0
   -5.2347    1.7067   -9.5515 C   0  0  1  0  0  0  0  0  0  0  0  0
   -4.9488    0.5032  -10.4502 C   0  0  2  0  0  0  0  0  0  0  0  0
   -4.7387   -0.7658   -9.6136 C   0  0  1  0  0  0  0  0  0  0  0  0
   -5.9115   -0.9550   -8.6452 C   0  0  1  0  0  0  0  0  0  0  0  0
   -5.7361   -2.1040   -7.6658 C   0  0  0  0  0  0  0  0  0  0  0  0
   -5.5284    2.8487  -10.3517 O   0  0  0  0  0  0  0  0  0  0  0  0
   -3.8008    0.6103  -11.4054 N   0  3  0  0  0  0  0  0  0  0  0  0
   -4.6462   -1.8848  -10.4863 O   0  0  0  0  0  0  0  0  0  0  0  0
   -6.1061    0.2444   -7.8696 O   0  0  0  0  0  0  0  0  0  0  0  0
   -5.9113   -3.3575   -8.3184 O   0  0  0  0  0  0  0  0  0  0  0  0
   -9.8203    1.8362   -9.0691 C   0  0  2  0  0  0  0  0  0  0  0  0
  -11.2514    1.4205   -8.7027 C   0  0  0  0  0  0  0  0  0  0  0  0
  -11.6300    0.0678   -9.2994 C   0  0  1  0  0  0  0  0  0  0  0  0
  -10.6218   -0.9682   -8.8215 C   0  0  2  0  0  0  0  0  0  0  0  0
   -9.2334   -0.6149   -9.3605 C   0  0  1  0  0  0  0  0  0  0  0  0
   -8.7702    0.7448   -8.8085 C   0  0  1  0  0  0  0  0  0  0  0  0
   -9.4248    3.0803   -8.3268 N   0  3  0  0  0  0  0  0  0  0  0  0
  -13.0294   -0.3149   -8.9207 N   0  3  0  0  0  0  0  0  0  0  0  0
   -8.3124   -1.6347   -8.9947 O   0  0  0  0  0  0  0  0  0  0  0  0
  -11.0017   -2.2836   -9.2651 O   0  0  0  0  0  0  0  0  0  0  0  0
   -7.5445    1.1428   -9.4574 O   0  0  0  0  0  0  0  0  0  0  0  0
  -10.7365   -3.2873   -8.3245 C   0  0  2  0  0  0  0  0  0  0  0  0
  -12.0458   -3.9536   -7.8891 C   0  0  1  0  0  0  0  0  0  0  0  0
  -12.8411   -3.0420   -6.9542 C   0  0  0  0  0  0  0  0  0  0  0  0
  -11.9445   -2.6099   -5.8052 C   0  0  1  0  0  0  0  0  0  0  0  0
  -10.7250   -1.8976   -6.3640 C   0  0  1  0  0  0  0  0  0  0  0  0
   -9.7906   -1.4351   -5.2608 C   0  0  0  0  0  0  0  0  0  0  0  0
  -12.8733   -4.2644   -9.0983 N   0  3  0  0  0  0  0  0  0  0  0  0
   -8.4213   -1.2534   -5.8565 N   0  3  0  0  0  0  0  0  0  0  0  0
  -12.6504   -1.7463   -4.9255 O   0  0  0  0  0  0  0  0  0  0  0  0
   -9.9944   -2.8002   -7.2115 O   0  0  0  0  0  0  0  0  0  0  0  0
  1  2  1  0  0  0  0
  1 22  1  6  0  0  0
  1 10  1  0  0  0  0
  2  3  1  0  0  0  0
  2  7  1  6  0  0  0
  3  4  1  0  0  0  0
  3  8  1  1  0  0  0
  4  5  1  0  0  0  0
  4  9  1  6  0  0  0
  5  6  1  1  0  0  0
  5 10  1  0  0  0  0
  6 11  1  0  0  0  0
 12 13  1  0  0  0  0
 12 17  1  0  0  0  0
 12 18  1  1  0  0  0
 13 14  1  0  0  0  0
 14 15  1  0  0  0  0
 14 19  1  1  0  0  0
 15 16  1  0  0  0  0
 15 21  1  6  0  0  0
 16 17  1  0  0  0  0
 16 20  1  1  0  0  0
 17 22  1  6  0  0  0
 23 21  1  6  0  0  0
 23 24  1  0  0  0  0
 23 32  1  0  0  0  0
 24 25  1  0  0  0  0
 24 29  1  6  0  0  0
 25 26  1  0  0  0  0
 26 27  1  0  0  0  0
 26 31  1  1  0  0  0
 27 28  1  1  0  0  0
 27 32  1  0  0  0  0
 28 30  1  0  0  0  0
M  CHG  5   8   1  18   1  19   1  29   1  30   1
M  END
>  <CHROM.1>
176.78949292,-46.99693767,-22.08255769,67.08789376,-74.08299158,159.67616587
14.80281383,36.25329372,-142.77757683,65.24659292,116.84113024,117.62016525
-50.74712973,-61.13938665,157.93418390,119.17272008,-8.77810072,-0.80657467
-8.44395043,0.44754092,0.23738394,-0.26958534

>  <Name>
2tob cryst

>  <RI>
0

>  <Rbt.Current_Directory>
/home/itssahil/PROJECTS/Mol_Feturizer/New_Systems/rnas/2tob

>  <Rbt.Executable>
rbdock ($Id: //depot/dev/client3/rdock/2013.1/src/exe/rbdock.cxx#4 $)

>  <Rbt.Library>
libRbt.so (2013.1, Build901 2013/11/27)

>  <Rbt.Parameter_File>
/export/apps/rDock/src/rDock_2013.1_src/data/scripts/dock_solv.prm

>  <Rbt.Receptor>
prm/blind_docking_80.prm

>  <SCORE>
-15.7646

>  <SCORE.INTER>
-14.2667

>  <SCORE.INTER.CONST>
1

>  <SCORE.INTER.POLAR>
-4.10635

>  <SCORE.INTER.ROT>
6

>  <SCORE.INTER.SOLV>
43.4006

>  <SCORE.INTER.VDW>
-17.8901

>  <SCORE.INTER.norm>
-0.445833

>  <SCORE.INTRA>
-3.50355

>  <SCORE.INTRA.DIHEDRAL>
16.6792

>  <SCORE.INTRA.DIHEDRAL.0>
18.4221

>  <SCORE.INTRA.POLAR>
0.111244

>  <SCORE.INTRA.POLAR.0>
-1.57101

>  <SCORE.INTRA.REPUL>
-0.662407

>  <SCORE.INTRA.REPUL.0>
0.730195

>  <SCORE.INTRA.SOLV>
2.46534

>  <SCORE.INTRA.SOLV.lig_0>
-127.221

>  <SCORE.INTRA.VDW>
-10.142

>  <SCORE.INTRA.VDW.0>
10.8385

>  <SCORE.INTRA.norm>
-0.109486

>  <SCORE.RESTR>
2.00561

>  <SCORE.RESTR.CAVITY>
2.00561

>  <SCORE.RESTR.norm>
0.0626752

>  <SCORE.SYSTEM>
0

>  <SCORE.SYSTEM.CONST>
0

>  <SCORE.SYSTEM.DIHEDRAL>
0

>  <SCORE.SYSTEM.SOLV>
0

>  <SCORE.SYSTEM.norm>
0

>  <SCORE.heavy>
32

>  <SCORE.norm>
-0.492644

>  <RMSD>
3.673

$$$$
2tob cryst
 OpenBabel11021811463D
libRbt.so/2013.1/901 2013/11/27
 32 34  0  0  0  0  0  0  0  0999 V2000
   -6.1971    1.1757   -8.8355 C   0  0  2  0  0  0  0  0  0  0  0  0
   -5.0106    1.2777   -9.7889 C   0  0  1  0  0  0  0  0  0  0  0  0
   -4.8408   -0.0577  -10.5136 C   0  0  2  0  0  0  0  0  0  0  0  0
   -4.7082   -1.2110   -9.5102 C   0  0  1  0  0  0  0  0  0  0  0  0
   -5.8676   -1.1699   -8.5086 C   0  0  1  0  0  0  0  0  0  0  0  0
   -5.7569   -2.1821   -7.3802 C   0  0  0  0  0  0  0  0  0  0  0  0
   -5.2355    2.3173  -10.7373 O   0  0  0  0  0  0  0  0  0  0  0  0
   -3.7121   -0.1762  -11.4903 N   0  3  0  0  0  0  0  0  0  0  0  0
   -4.7240   -2.4441  -10.2185 O   0  0  0  0  0  0  0  0  0  0  0  0
   -5.9499    0.1373   -7.9064 O   0  0  0  0  0  0  0  0  0  0  0  0
   -6.8210   -3.1264   -7.4402 O   0  0  0  0  0  0  0  0  0  0  0  0
   -9.5764    1.7644   -9.1896 C   0  0  2  0  0  0  0  0  0  0  0  0
  -11.0136    1.4593   -8.7464 C   0  0  0  0  0  0  0  0  0  0  0  0
  -11.4816    0.0836   -9.2132 C   0  0  1  0  0  0  0  0  0  0  0  0
  -10.5123   -0.9616   -8.6783 C   0  0  2  0  0  0  0  0  0  0  0  0
   -9.1268   -0.7307   -9.2868 C   0  0  1  0  0  0  0  0  0  0  0  0
   -8.5756    0.6435   -8.8676 C   0  0  1  0  0  0  0  0  0  0  0  0
   -9.0921    3.0433   -8.5690 N   0  3  0  0  0  0  0  0  0  0  0  0
  -12.8850   -0.1893   -8.7615 N   0  3  0  0  0  0  0  0  0  0  0  0
   -8.2476   -1.7646   -8.8623 O   0  0  0  0  0  0  0  0  0  0  0  0
  -10.9745   -2.2871   -8.9959 O   0  0  0  0  0  0  0  0  0  0  0  0
   -7.3540    0.9184   -9.5845 O   0  0  0  0  0  0  0  0  0  0  0  0
  -10.5632   -3.2569   -8.0723 C   0  0  2  0  0  0  0  0  0  0  0  0
  -11.7746   -4.0561   -7.5806 C   0  0  1  0  0  0  0  0  0  0  0  0
  -12.6173   -3.2320   -6.6069 C   0  0  0  0  0  0  0  0  0  0  0  0
  -11.7192   -2.7077   -5.4980 C   0  0  1  0  0  0  0  0  0  0  0  0
  -10.6076   -1.8722   -6.1087 C   0  0  1  0  0  0  0  0  0  0  0  0
   -9.6773   -1.3138   -5.0472 C   0  0  0  0  0  0  0  0  0  0  0  0
  -12.6194   -4.4526   -8.7523 N   0  3  0  0  0  0  0  0  0  0  0  0
   -8.6786   -2.3822   -4.6951 N   0  3  0  0  0  0  0  0  0  0  0  0
  -12.4707   -1.9220   -4.5837 O   0  0  0  0  0  0  0  0  0  0  0  0
   -9.8261   -2.6941   -6.9922 O   0  0  0  0  0  0  0  0  0  0  0  0
  1  2  1  0  0  0  0
  1 22  1  6  0  0  0
  1 10  1  0  0  0  0
  2  3  1  0  0  0  0
  2  7  1  6  0  0  0
  3  4  1  0  0  0  0
  3  8  1  1  0  0  0
  4  5  1  0  0  0  0
  4  9  1  6  0  0  0
  5  6  1  1  0  0  0
  5 10  1  0  0  0  0
  6 11  1  0  0  0  0
 12 13  1  0  0  0  0
 12 17  1  0  0  0  0
 12 18  1  1  0  0  0
 13 14  1  0  0  0  0
 14 15  1  0  0  0  0
 14 19  1  1  0  0  0
 15 16  1  0  0  0  0
 15 21  1  6  0  0  0
 16 17  1  0  0  0  0
 16 20  1  1  0  0  0
 17 22  1  6  0  0  0
 23 21  1  6  0  0  0
 23 24  1  0  0  0  0
 23 32  1  0  0  0  0
 24 25  1  0  0  0  0
 24 29  1  6  0  0  0
 25 26  1  0  0  0  0
 26 27  1  0  0  0  0
 26 31  1  1  0  0  0
 27 28  1  1  0  0  0
 27 32  1  0  0  0  0
 28 30  1  0  0  0  0
M  CHG  5   8   1  18   1  19   1  29   1  30   1
M  END
>  <CHROM.1>
173.58296146,-45.21558951,40.22199139,79.49927753,-115.99751375,-53.30782960
-82.52179014,-48.00670415,-151.38577507,140.54500794,116.19790321,127.73661638
-150.39391744,-53.03919687,82.63288460,-156.99869400,-8.67978759,-0.99350005
-8.28892451,0.51189026,0.22780652,-0.46463615

>  <Name>
2tob cryst

>  <RI>
0

>  <Rbt.Current_Directory>
/home/itssahil/PROJECTS/Mol_Feturizer/New_Systems/rnas/2tob

>  <Rbt.Executable>
rbdock ($Id: //depot/dev/client3/rdock/2013.1/src/exe/rbdock.cxx#4 $)

>  <Rbt.Library>
libRbt.so (2013.1, Build901 2013/11/27)

>  <Rbt.Parameter_File>
/export/apps/rDock/src/rDock_2013.1_src/data/scripts/dock_solv.prm

>  <Rbt.Receptor>
prm/blind_docking_100.prm

>  <SCORE>
-25.4195

>  <SCORE.INTER>
-24.6792

>  <SCORE.INTER.CONST>
1

>  <SCORE.INTER.POLAR>
-5.93343

>  <SCORE.INTER.ROT>
6

>  <SCORE.INTER.SOLV>
42.4642

>  <SCORE.INTER.VDW>
-18.4294

>  <SCORE.INTER.norm>
-0.771225

>  <SCORE.INTRA>
-2.69943

>  <SCORE.INTRA.DIHEDRAL>
19.7437

>  <SCORE.INTRA.DIHEDRAL.0>
18.4221

>  <SCORE.INTRA.POLAR>
-0.00297512

>  <SCORE.INTRA.POLAR.0>
-1.57101

>  <SCORE.INTRA.REPUL>
-0.730195

>  <SCORE.INTRA.REPUL.0>
0.730195

>  <SCORE.INTRA.SOLV>
-1.475

>  <SCORE.INTRA.SOLV.lig_0>
-127.221

>  <SCORE.INTRA.VDW>
-8.17269

>  <SCORE.INTRA.VDW.0>
10.8385

>  <SCORE.INTRA.norm>
-0.0843572

>  <SCORE.RESTR>
1.95909

>  <SCORE.RESTR.CAVITY>
1.95909

>  <SCORE.RESTR.norm>
0.0612216

>  <SCORE.SYSTEM>
0

>  <SCORE.SYSTEM.CONST>
0

>  <SCORE.SYSTEM.DIHEDRAL>
0

>  <SCORE.SYSTEM.SOLV>
0

>  <SCORE.SYSTEM.norm>
0

>  <SCORE.heavy>
32

>  <SCORE.norm>
-0.794361

>  <RMSD>
3.681

$$$$
2tob cryst
 OpenBabel11021811463D
libRbt.so/2013.1/901 2013/11/27
 32 34  0  0  0  0  0  0  0  0999 V2000
   -7.9866   -0.3957   -8.0759 C   0  0  2  0  0  0  0  0  0  0  0  0
   -8.4196    1.0670   -8.0635 C   0  0  1  0  0  0  0  0  0  0  0  0
   -8.0722    1.6984   -9.4120 C   0  0  2  0  0  0  0  0  0  0  0  0
   -6.5831    1.5149   -9.7338 C   0  0  1  0  0  0  0  0  0  0  0  0
   -6.1965    0.0378   -9.6006 C   0  0  1  0  0  0  0  0  0  0  0  0
   -4.7098   -0.2371   -9.7562 C   0  0  0  0  0  0  0  0  0  0  0  0
   -9.8232    1.1579   -7.8344 O   0  0  0  0  0  0  0  0  0  0  0  0
   -8.4010    3.1465   -9.6030 N   0  3  0  0  0  0  0  0  0  0  0  0
   -6.3387    1.9614  -11.0616 O   0  0  0  0  0  0  0  0  0  0  0  0
   -6.5918   -0.4583   -8.3061 O   0  0  0  0  0  0  0  0  0  0  0  0
   -4.1183    0.6782  -10.6727 O   0  0  0  0  0  0  0  0  0  0  0  0
   -8.3598   -3.0172   -7.7099 C   0  0  2  0  0  0  0  0  0  0  0  0
   -8.9828   -4.2589   -7.0578 C   0  0  0  0  0  0  0  0  0  0  0  0
  -10.4054   -4.0014   -6.5687 C   0  0  1  0  0  0  0  0  0  0  0  0
  -11.2418   -3.5278   -7.7494 C   0  0  2  0  0  0  0  0  0  0  0  0
  -10.6954   -2.1914   -8.2579 C   0  0  1  0  0  0  0  0  0  0  0  0
   -9.2544   -2.3579   -8.7715 C   0  0  1  0  0  0  0  0  0  0  0  0
   -7.0347   -3.3548   -8.3307 N   0  3  0  0  0  0  0  0  0  0  0  0
  -10.9901   -5.2317   -5.9421 N   0  3  0  0  0  0  0  0  0  0  0  0
  -11.5353   -1.7034   -9.2963 O   0  0  0  0  0  0  0  0  0  0  0  0
  -12.6207   -3.3808   -7.3638 O   0  0  0  0  0  0  0  0  0  0  0  0
   -8.6953   -1.0650   -9.0837 O   0  0  0  0  0  0  0  0  0  0  0  0
  -13.5089   -3.4148   -8.4466 C   0  0  2  0  0  0  0  0  0  0  0  0
  -14.8864   -2.9069   -8.0077 C   0  0  1  0  0  0  0  0  0  0  0  0
  -15.6093   -3.9493   -7.1543 C   0  0  0  0  0  0  0  0  0  0  0  0
  -15.6378   -5.2699   -7.9067 C   0  0  1  0  0  0  0  0  0  0  0  0
  -14.2141   -5.7004   -8.2140 C   0  0  1  0  0  0  0  0  0  0  0  0
  -14.1761   -7.0205   -8.9624 C   0  0  0  0  0  0  0  0  0  0  0  0
  -14.7238   -1.6461   -7.2156 N   0  3  0  0  0  0  0  0  0  0  0  0
  -12.7669   -7.2449   -9.4386 N   0  3  0  0  0  0  0  0  0  0  0  0
  -16.2895   -6.2661   -7.1316 O   0  0  0  0  0  0  0  0  0  0  0  0
  -13.5851   -4.7064   -9.0406 O   0  0  0  0  0  0  0  0  0  0  0  0
  1  2  1  0  0  0  0
  1 22  1  6  0  0  0
  1 10  1  0  0  0  0
  2  3  1  0  0  0  0
  2  7  1  6  0  0  0
  3  4  1  0  0  0  0
  3  8  1  1  0  0  0
  4  5  1  0  0  0  0
  4  9  1  6  0  0  0
  5  6  1  1  0  0  0
  5 10  1  0  0  0  0
  6 11  1  0  0  0  0
 12 13  1  0  0  0  0
 12 17  1  0  0  0  0
 12 18  1  6  0  0  0
 13 14  1  0  0  0  0
 14 15  1  0  0  0  0
 14 19  1  6  0  0  0
 15 16  1  0  0  0  0
 15 21  1  1  0  0  0
 16 17  1  0  0  0  0
 16 20  1  6  0  0  0
 17 22  1  1  0  0  0
 23 21  1  1  0  0  0
 23 24  1  0  0  0  0
 23 32  1  0  0  0  0
 24 25  1  0  0  0  0
 24 29  1  1  0  0  0
 25 26  1  0  0  0  0
 26 27  1  0  0  0  0
 26 31  1  1  0  0  0
 27 28  1  6  0  0  0
 27 32  1  0  0  0  0
 28 30  1  0  0  0  0
M  CHG  5   8   1  18   1  19   1  29   1  30   1
M  END
>  <CHROM.1>
-135.55163847,69.41446006,141.73346550,174.95128275,-32.59135666,141.45087676
-51.72723454,-61.39898375,-158.73608350,-95.46077141,-29.68906525,-165.81129214
-67.99891365,80.34698180,169.98410160,-36.63246461,-10.37215244,-2.23439878
-8.44735047,-0.65874344,-0.11911264,3.01700085

>  <Name>
2tob cryst

>  <RI>
0

>  <Rbt.Current_Directory>
/home/itssahil/PROJECTS/Mol_Feturizer/New_Systems/rnas/2tob

>  <Rbt.Executable>
rbdock ($Id: //depot/dev/client3/rdock/2013.1/src/exe/rbdock.cxx#4 $)

>  <Rbt.Library>
libRbt.so (2013.1, Build901 2013/11/27)

>  <Rbt.Parameter_File>
/export/apps/rDock/src/rDock_2013.1_src/data/scripts/dock_solv.prm

>  <Rbt.Receptor>
prm/pocket_docking_5.prm

>  <SCORE>
-48.6056

>  <SCORE.INTER>
-37.0318

>  <SCORE.INTER.CONST>
1

>  <SCORE.INTER.POLAR>
-5.4319

>  <SCORE.INTER.ROT>
6

>  <SCORE.INTER.SOLV>
33.817

>  <SCORE.INTER.VDW>
-25.4538

>  <SCORE.INTER.norm>
-1.15724

>  <SCORE.INTRA>
-11.5739

>  <SCORE.INTRA.DIHEDRAL>
13.2669

>  <SCORE.INTRA.DIHEDRAL.0>
18.4221

>  <SCORE.INTRA.POLAR>
0.0887369

>  <SCORE.INTRA.POLAR.0>
-1.57101

>  <SCORE.INTRA.REPUL>
-0.730195

>  <SCORE.INTRA.REPUL.0>
0.730195

>  <SCORE.INTRA.SOLV>
-6.05617

>  <SCORE.INTRA.SOLV.lig_0>
-127.221

>  <SCORE.INTRA.VDW>
-11.8299

>  <SCORE.INTRA.VDW.0>
10.8385

>  <SCORE.INTRA.norm>
-0.361683

>  <SCORE.RESTR>
0

>  <SCORE.RESTR.CAVITY>
0

>  <SCORE.RESTR.norm>
0

>  <SCORE.SYSTEM>
0

>  <SCORE.SYSTEM.CONST>
0

>  <SCORE.SYSTEM.DIHEDRAL>
0

>  <SCORE.SYSTEM.SOLV>
0

>  <SCORE.SYSTEM.norm>
0

>  <SCORE.heavy>
32

>  <SCORE.norm>
-1.51893

>  <RMSD>
3.716

$$$$
2tob cryst
 OpenBabel11021811463D
libRbt.so/2013.1/901 2013/11/27
 32 34  0  0  0  0  0  0  0  0999 V2000
   -6.1414    1.3124   -8.8871 C   0  0  2  0  0  0  0  0  0  0  0  0
   -4.9542    1.3940   -9.8415 C   0  0  1  0  0  0  0  0  0  0  0  0
   -4.8102    0.0569  -10.5691 C   0  0  2  0  0  0  0  0  0  0  0  0
   -4.6983   -1.1006   -9.5680 C   0  0  1  0  0  0  0  0  0  0  0  0
   -5.8557   -1.0396   -8.5652 C   0  0  1  0  0  0  0  0  0  0  0  0
   -5.7629   -2.0559   -7.4388 C   0  0  0  0  0  0  0  0  0  0  0  0
   -5.1603    2.4394  -10.7877 O   0  0  0  0  0  0  0  0  0  0  0  0
   -3.6849   -0.0808  -11.5471 N   0  3  0  0  0  0  0  0  0  0  0  0
   -4.7380   -2.3318  -10.2786 O   0  0  0  0  0  0  0  0  0  0  0  0
   -5.9128    0.2677   -7.9603 O   0  0  0  0  0  0  0  0  0  0  0  0
   -6.1351   -3.3527   -7.8943 O   0  0  0  0  0  0  0  0  0  0  0  0
   -9.5488    1.8628   -9.2420 C   0  0  2  0  0  0  0  0  0  0  0  0
  -10.9773    1.5182   -8.7995 C   0  0  0  0  0  0  0  0  0  0  0  0
  -11.4068    0.1300   -9.2661 C   0  0  1  0  0  0  0  0  0  0  0  0
  -10.4094   -0.8878   -8.7303 C   0  0  2  0  0  0  0  0  0  0  0  0
   -9.0304   -0.6190   -9.3381 C   0  0  1  0  0  0  0  0  0  0  0  0
   -8.5176    0.7700   -8.9191 C   0  0  1  0  0  0  0  0  0  0  0  0
   -9.1003    3.1548   -8.6216 N   0  3  0  0  0  0  0  0  0  0  0  0
  -12.8025   -0.1814   -8.8151 N   0  3  0  0  0  0  0  0  0  0  0  0
   -8.1233   -1.6281   -8.9129 O   0  0  0  0  0  0  0  0  0  0  0  0
  -10.8346   -2.2257   -9.0477 O   0  0  0  0  0  0  0  0  0  0  0  0
   -7.3036    1.0783   -9.6354 O   0  0  0  0  0  0  0  0  0  0  0  0
  -10.5225   -3.1606   -8.0521 C   0  0  2  0  0  0  0  0  0  0  0  0
  -11.7675   -3.9804   -7.6973 C   0  0  1  0  0  0  0  0  0  0  0  0
  -12.7481   -3.1557   -6.8631 C   0  0  0  0  0  0  0  0  0  0  0  0
  -12.0132   -2.5797   -5.6636 C   0  0  1  0  0  0  0  0  0  0  0  0
  -10.8526   -1.7294   -6.1501 C   0  0  1  0  0  0  0  0  0  0  0  0
  -10.0803   -1.1195   -4.9944 C   0  0  0  0  0  0  0  0  0  0  0  0
  -12.4446   -4.4289   -8.9559 N   0  3  0  0  0  0  0  0  0  0  0  0
   -9.0254   -2.1038   -4.5687 N   0  3  0  0  0  0  0  0  0  0  0  0
  -12.8947   -1.7924   -4.8755 O   0  0  0  0  0  0  0  0  0  0  0  0
   -9.9443   -2.5512   -6.9028 O   0  0  0  0  0  0  0  0  0  0  0  0
  1  2  1  0  0  0  0
  1 22  1  6  0  0  0
  1 10  1  0  0  0  0
  2  3  1  0  0  0  0
  2  7  1  6  0  0  0
  3  4  1  0  0  0  0
  3  8  1  1  0  0  0
  4  5  1  0  0  0  0
  4  9  1  6  0  0  0
  5  6  1  1  0  0  0
  5 10  1  0  0  0  0
  6 11  1  0  0  0  0
 12 13  1  0  0  0  0
 12 17  1  0  0  0  0
 12 18  1  1  0  0  0
 13 14  1  0  0  0  0
 14 15  1  0  0  0  0
 14 19  1  1  0  0  0
 15 16  1  0  0  0  0
 15 21  1  6  0  0  0
 16 17  1  0  0  0  0
 16 20  1  1  0  0  0
 17 22  1  6  0  0  0
 23 21  1  6  0  0  0
 23 24  1  0  0  0  0
 23 32  1  0  0  0  0
 24 25  1  0  0  0  0
 24 29  1  6  0  0  0
 25 26  1  0  0  0  0
 26 27  1  0  0  0  0
 26 31  1  6  0  0  0
 27 28  1  1  0  0  0
 27 32  1  0  0  0  0
 28 30  1  0  0  0  0
M  CHG  5   8   1  18   1  19   1  29   1  30   1
M  END
>  <CHROM.1>
171.05244134,-171.33034476,40.70161401,78.65634441,-76.76377134,52.80867491
153.74394643,-41.52995378,-144.87315874,76.71548052,118.83113819,129.68097439
42.38207490,-52.55793171,87.69545849,67.32252474,-8.67148135,-0.89588740
-8.36698251,0.47254707,0.26883082,-0.38370824

>  <Name>
2tob cryst

>  <RI>
0

>  <Rbt.Current_Directory>
/home/itssahil/PROJECTS/Mol_Feturizer/New_Systems/rnas/2tob

>  <Rbt.Executable>
rbdock ($Id: //depot/dev/client3/rdock/2013.1/src/exe/rbdock.cxx#4 $)

>  <Rbt.Library>
libRbt.so (2013.1, Build901 2013/11/27)

>  <Rbt.Parameter_File>
/export/apps/rDock/src/rDock_2013.1_src/data/scripts/dock_solv.prm

>  <Rbt.Receptor>
prm/blind_docking_80.prm

>  <SCORE>
-28.1258

>  <SCORE.INTER>
-28.6458

>  <SCORE.INTER.CONST>
1

>  <SCORE.INTER.POLAR>
-6.82684

>  <SCORE.INTER.ROT>
6

>  <SCORE.INTER.SOLV>
43.7379

>  <SCORE.INTER.VDW>
-18.5203

>  <SCORE.INTER.norm>
-0.89518

>  <SCORE.INTRA>
-2.94471

>  <SCORE.INTRA.DIHEDRAL>
11.3876

>  <SCORE.INTRA.DIHEDRAL.0>
18.4221

>  <SCORE.INTRA.POLAR>
1.00219

>  <SCORE.INTRA.POLAR.0>
-1.57101

>  <SCORE.INTRA.REPUL>
-0.620543

>  <SCORE.INTRA.REPUL.0>
0.730195

>  <SCORE.INTRA.SOLV>
-2.65782

>  <SCORE.INTRA.SOLV.lig_0>
-127.221

>  <SCORE.INTRA.VDW>
-7.61433

>  <SCORE.INTRA.VDW.0>
10.8385

>  <SCORE.INTRA.norm>
-0.0920222

>  <SCORE.RESTR>
3.46468

>  <SCORE.RESTR.CAVITY>
3.46468

>  <SCORE.RESTR.norm>
0.108271

>  <SCORE.SYSTEM>
0

>  <SCORE.SYSTEM.CONST>
0

>  <SCORE.SYSTEM.DIHEDRAL>
0

>  <SCORE.SYSTEM.SOLV>
0

>  <SCORE.SYSTEM.norm>
0

>  <SCORE.heavy>
32

>  <SCORE.norm>
-0.878931

>  <RMSD>
3.720

$$$$
2tob cryst
 OpenBabel11021811463D
libRbt.so/2013.1/901 2013/11/27
 32 34  0  0  0  0  0  0  0  0999 V2000
   -4.7677    1.1371   -9.7783 C   0  0  2  0  0  0  0  0  0  0  0  0
   -4.3818    2.6111   -9.8528 C   0  0  1  0  0  0  0  0  0  0  0  0
   -4.2851    3.0247  -11.3215 C   0  0  2  0  0  0  0  0  0  0  0  0
   -3.3168    2.1105  -12.0840 C   0  0  1  0  0  0  0  0  0  0  0  0
   -3.6936    0.6424  -11.8564 C   0  0  1  0  0  0  0  0  0  0  0  0
   -2.7120   -0.3553  -12.4491 C   0  0  0  0  0  0  0  0  0  0  0  0
   -5.3620    3.4056   -9.1903 O   0  0  0  0  0  0  0  0  0  0  0  0
   -3.8980    4.4404  -11.6175 N   0  3  0  0  0  0  0  0  0  0  0  0
   -3.3853    2.4185  -13.4706 O   0  0  0  0  0  0  0  0  0  0  0  0
   -3.7808    0.3713  -10.4433 O   0  0  0  0  0  0  0  0  0  0  0  0
   -1.5064   -0.3911  -11.6921 O   0  0  0  0  0  0  0  0  0  0  0  0
   -8.2712    1.7803  -10.0485 C   0  0  2  0  0  0  0  0  0  0  0  0
   -9.6506    1.5391   -9.4207 C   0  0  0  0  0  0  0  0  0  0  0  0
  -10.0481    0.0659   -9.4497 C   0  0  1  0  0  0  0  0  0  0  0  0
   -8.9734   -0.7368   -8.7296 C   0  0  2  0  0  0  0  0  0  0  0  0
   -7.6508   -0.6158   -9.4908 C   0  0  1  0  0  0  0  0  0  0  0  0
   -7.1734    0.8469   -9.5140 C   0  0  1  0  0  0  0  0  0  0  0  0
   -7.8404    3.2047   -9.8470 N   0  3  0  0  0  0  0  0  0  0  0  0
  -11.3958   -0.1403   -8.8255 N   0  3  0  0  0  0  0  0  0  0  0  0
   -6.6738   -1.4433   -8.8722 O   0  0  0  0  0  0  0  0  0  0  0  0
   -9.3589   -2.1199   -8.6299 O   0  0  0  0  0  0  0  0  0  0  0  0
   -6.0243    0.9713  -10.3776 O   0  0  0  0  0  0  0  0  0  0  0  0
   -9.2261   -2.6437   -7.3374 C   0  0  2  0  0  0  0  0  0  0  0  0
   -8.4150   -3.9430   -7.3818 C   0  0  1  0  0  0  0  0  0  0  0  0
   -9.2484   -5.0910   -7.9520 C   0  0  0  0  0  0  0  0  0  0  0  0
  -10.5504   -5.1901   -7.1737 C   0  0  1  0  0  0  0  0  0  0  0  0
  -11.2925   -3.8686   -7.2714 C   0  0  1  0  0  0  0  0  0  0  0  0
  -12.6086   -3.9067   -6.5161 C   0  0  0  0  0  0  0  0  0  0  0  0
   -7.1997   -3.7434   -8.2343 N   0  3  0  0  0  0  0  0  0  0  0  0
  -13.2537   -2.5531   -6.6365 N   0  3  0  0  0  0  0  0  0  0  0  0
  -11.3567   -6.2390   -7.6912 O   0  0  0  0  0  0  0  0  0  0  0  0
  -10.4849   -2.8266   -6.6981 O   0  0  0  0  0  0  0  0  0  0  0  0
  1  2  1  0  0  0  0
  1 22  1  6  0  0  0
  1 10  1  0  0  0  0
  2  3  1  0  0  0  0
  2  7  1  1  0  0  0
  3  4  1  0  0  0  0
  3  8  1  1  0  0  0
  4  5  1  0  0  0  0
  4  9  1  6  0  0  0
  5  6  1  1  0  0  0
  5 10  1  0  0  0  0
  6 11  1  0  0  0  0
 12 13  1  0  0  0  0
 12 17  1  0  0  0  0
 12 18  1  1  0  0  0
 13 14  1  0  0  0  0
 14 15  1  0  0  0  0
 14 19  1  1  0  0  0
 15 16  1  0  0  0  0
 15 21  1  6  0  0  0
 16 17  1  0  0  0  0
 16 20  1  1  0  0  0
 17 22  1  6  0  0  0
 23 21  1  6  0  0  0
 23 24  1  0  0  0  0
 23 32  1  0  0  0  0
 24 25  1  0  0  0  0
 24 29  1  6  0  0  0
 25 26  1  0  0  0  0
 26 27  1  0  0  0  0
 26 31  1  6  0  0  0
 27 28  1  1  0  0  0
 27 32  1  0  0  0  0
 28 30  1  0  0  0  0
M  CHG  5   8   1  18   1  19   1  29   1  30   1
M  END
>  <CHROM.1>
-101.30925560,49.59308685,58.15541956,-73.93094230,72.79280905,-175.65292054
158.18485344,-55.50216766,-130.76138298,-164.15158813,132.94444229,-128.37978454
-136.84054885,-178.27202291,178.53269306,-40.27672478,-7.42031970,-0.51933643
-9.37962177,-0.69461615,-0.38316349,2.94807159

>  <Name>
2tob cryst

>  <RI>
0

>  <Rbt.Current_Directory>
/home/itssahil/PROJECTS/Mol_Feturizer/New_Systems/rnas/2tob

>  <Rbt.Executable>
rbdock ($Id: //depot/dev/client3/rdock/2013.1/src/exe/rbdock.cxx#4 $)

>  <Rbt.Library>
libRbt.so (2013.1, Build901 2013/11/27)

>  <Rbt.Parameter_File>
/export/apps/rDock/src/rDock_2013.1_src/data/scripts/dock_solv.prm

>  <Rbt.Receptor>
prm/blind_docking_100.prm

>  <SCORE>
-7.0086

>  <SCORE.INTER>
-2.65266

>  <SCORE.INTER.CONST>
1

>  <SCORE.INTER.POLAR>
-5.37216

>  <SCORE.INTER.ROT>
6

>  <SCORE.INTER.SOLV>
37.5819

>  <SCORE.INTER.VDW>
-3.98855

>  <SCORE.INTER.norm>
-0.0828957

>  <SCORE.INTRA>
-10.8314

>  <SCORE.INTRA.DIHEDRAL>
15.3384

>  <SCORE.INTRA.DIHEDRAL.0>
18.4221

>  <SCORE.INTRA.POLAR>
-0.501524

>  <SCORE.INTRA.POLAR.0>
-1.57101

>  <SCORE.INTRA.REPUL>
-0.730195

>  <SCORE.INTRA.REPUL.0>
0.730195

>  <SCORE.INTRA.SOLV>
0.45168

>  <SCORE.INTRA.SOLV.lig_0>
-127.221

>  <SCORE.INTRA.VDW>
-13.3703

>  <SCORE.INTRA.VDW.0>
10.8385

>  <SCORE.INTRA.norm>
-0.338482

>  <SCORE.RESTR>
6.47549

>  <SCORE.RESTR.CAVITY>
6.47549

>  <SCORE.RESTR.norm>
0.202359

>  <SCORE.SYSTEM>
0

>  <SCORE.SYSTEM.CONST>
0

>  <SCORE.SYSTEM.DIHEDRAL>
0

>  <SCORE.SYSTEM.SOLV>
0

>  <SCORE.SYSTEM.norm>
0

>  <SCORE.heavy>
32

>  <SCORE.norm>
-0.219019

>  <RMSD>
3.737

$$$$
2tob cryst
 OpenBabel11021811463D
libRbt.so/2013.1/901 2013/11/27
 32 34  0  0  0  0  0  0  0  0999 V2000
  -10.1050   -1.9354   -8.7088 C   0  0  2  0  0  0  0  0  0  0  0  0
   -8.6776   -2.4736   -8.7128 C   0  0  1  0  0  0  0  0  0  0  0  0
   -7.8067   -1.5756   -7.8338 C   0  0  2  0  0  0  0  0  0  0  0  0
   -7.8987   -0.1124   -8.2870 C   0  0  1  0  0  0  0  0  0  0  0  0
   -9.3674    0.3153   -8.3813 C   0  0  1  0  0  0  0  0  0  0  0  0
   -9.5794    1.7041   -8.9613 C   0  0  0  0  0  0  0  0  0  0  0  0
   -8.6581   -3.8071   -8.2107 O   0  0  0  0  0  0  0  0  0  0  0  0
   -6.3548   -1.9217   -7.7154 N   0  3  0  0  0  0  0  0  0  0  0  0
   -7.2154    0.7066   -7.3465 O   0  0  0  0  0  0  0  0  0  0  0  0
  -10.0966   -0.6120   -9.2098 O   0  0  0  0  0  0  0  0  0  0  0  0
   -8.6973    1.9369  -10.0546 O   0  0  0  0  0  0  0  0  0  0  0  0
  -12.7402   -1.6557   -8.4504 C   0  0  2  0  0  0  0  0  0  0  0  0
  -14.2112   -2.0840   -8.5395 C   0  0  0  0  0  0  0  0  0  0  0  0
  -14.3871   -3.5876   -8.3454 C   0  0  1  0  0  0  0  0  0  0  0  0
  -13.7875   -3.9726   -7.0000 C   0  0  2  0  0  0  0  0  0  0  0  0
  -12.2818   -3.6972   -7.0153 C   0  0  1  0  0  0  0  0  0  0  0  0
  -12.0099   -2.1952   -7.2104 C   0  0  1  0  0  0  0  0  0  0  0  0
  -12.6233   -0.1587   -8.4721 N   0  3  0  0  0  0  0  0  0  0  0  0
  -15.8328   -3.9759   -8.4316 N   0  3  0  0  0  0  0  0  0  0  0  0
  -11.7080   -4.1472   -5.7945 O   0  0  0  0  0  0  0  0  0  0  0  0
  -14.0304   -5.3631   -6.7190 O   0  0  0  0  0  0  0  0  0  0  0  0
  -10.5961   -1.9754   -7.3962 O   0  0  0  0  0  0  0  0  0  0  0  0
  -13.7176   -6.2109   -7.7895 C   0  0  2  0  0  0  0  0  0  0  0  0
  -14.4298   -7.5564   -7.6148 C   0  0  1  0  0  0  0  0  0  0  0  0
  -13.7603   -8.3943   -6.5252 C   0  0  0  0  0  0  0  0  0  0  0  0
  -12.2752   -8.5052   -6.8301 C   0  0  1  0  0  0  0  0  0  0  0  0
  -11.6746   -7.1121   -6.9013 C   0  0  1  0  0  0  0  0  0  0  0  0
  -10.1867   -7.1568   -7.1985 C   0  0  0  0  0  0  0  0  0  0  0  0
  -15.8618   -7.3184   -7.2455 N   0  3  0  0  0  0  0  0  0  0  0  0
   -9.5012   -7.8312   -6.0416 N   0  3  0  0  0  0  0  0  0  0  0  0
  -11.6200   -9.2655   -5.8248 O   0  0  0  0  0  0  0  0  0  0  0  0
  -12.3131   -6.3727   -7.9560 O   0  0  0  0  0  0  0  0  0  0  0  0
  1  2  1  0  0  0  0
  1 22  1  1  0  0  0
  1 10  1  0  0  0  0
  2  3  1  0  0  0  0
  2  7  1  1  0  0  0
  3  4  1  0  0  0  0
  3  8  1  6  0  0  0
  4  5  1  0  0  0  0
  4  9  1  1  0  0  0
  5  6  1  6  0  0  0
  5 10  1  0  0  0  0
  6 11  1  0  0  0  0
 12 13  1  0  0  0  0
 12 17  1  0  0  0  0
 12 18  1  1  0  0  0
 13 14  1  0  0  0  0
 14 15  1  0  0  0  0
 14 19  1  1  0  0  0
 15 16  1  0  0  0  0
 15 21  1  6  0  0  0
 16 17  1  0  0  0  0
 16 20  1  1  0  0  0
 17 22  1  6  0  0  0
 23 21  1  1  0  0  0
 23 24  1  0  0  0  0
 23 32  1  0  0  0  0
 24 25  1  0  0  0  0
 24 29  1  1  0  0  0
 25 26  1  0  0  0  0
 26 27  1  0  0  0  0
 26 31  1  1  0  0  0
 27 28  1  6  0  0  0
 27 32  1  0  0  0  0
 28 30  1  0  0  0  0
M  CHG  5   8   1  18   1  19   1  29   1  30   1
M  END
>  <CHROM.1>
-148.48074122,-56.89441298,-174.80275115,75.12292939,40.49007846,84.21819340
148.53934834,75.78940884,48.11959397,68.13714718,-27.84579217,-160.58060972
79.22888135,63.56029614,-64.42408468,-160.50890405,-11.34318184,-3.63623990
-7.69492805,-1.01701185,0.09674401,2.86688336

>  <Name>
2tob cryst

>  <RI>
3.35201e+07

>  <Rbt.Current_Directory>
/home/itssahil/PROJECTS/Mol_Feturizer/New_Systems/rnas/2tob

>  <Rbt.Executable>
rbdock ($Id: //depot/dev/client3/rdock/2013.1/src/exe/rbdock.cxx#4 $)

>  <Rbt.Library>
libRbt.so (2013.1, Build901 2013/11/27)

>  <Rbt.Parameter_File>
/export/apps/rDock/src/rDock_2013.1_src/data/scripts/dock_solv.prm

>  <Rbt.Receptor>
prm/pocket_docking_4.prm

>  <SCORE>
-43.7905

>  <SCORE.INTER>
-34.9441

>  <SCORE.INTER.CONST>
1

>  <SCORE.INTER.POLAR>
-5.57805

>  <SCORE.INTER.ROT>
6

>  <SCORE.INTER.SOLV>
29.8876

>  <SCORE.INTER.VDW>
-22.2651

>  <SCORE.INTER.norm>
-1.092

>  <SCORE.INTRA>
-8.8464

>  <SCORE.INTRA.DIHEDRAL>
1.60065

>  <SCORE.INTRA.DIHEDRAL.0>
18.4221

>  <SCORE.INTRA.POLAR>
1.23208

>  <SCORE.INTRA.POLAR.0>
-1.57101

>  <SCORE.INTRA.REPUL>
-0.730195

>  <SCORE.INTRA.REPUL.0>
0.730195

>  <SCORE.INTRA.SOLV>
-0.127554

>  <SCORE.INTRA.SOLV.lig_0>
-127.221

>  <SCORE.INTRA.VDW>
-10.121

>  <SCORE.INTRA.VDW.0>
10.8385

>  <SCORE.INTRA.norm>
-0.27645

>  <SCORE.RESTR>
0

>  <SCORE.RESTR.CAVITY>
0

>  <SCORE.RESTR.norm>
0

>  <SCORE.SYSTEM>
0

>  <SCORE.SYSTEM.CONST>
0

>  <SCORE.SYSTEM.DIHEDRAL>
0

>  <SCORE.SYSTEM.SOLV>
0

>  <SCORE.SYSTEM.norm>
0

>  <SCORE.heavy>
32

>  <SCORE.norm>
-1.36845

>  <RMSD>
3.743

$$$$
2tob cryst
 OpenBabel11021811463D
libRbt.so/2013.1/901 2013/11/27
 32 34  0  0  0  0  0  0  0  0999 V2000
   -6.1745    1.6887   -9.0632 C   0  0  2  0  0  0  0  0  0  0  0  0
   -5.2631    2.4395  -10.0290 C   0  0  1  0  0  0  0  0  0  0  0  0
   -4.9182    1.5204  -11.2011 C   0  0  2  0  0  0  0  0  0  0  0  0
   -4.3101    0.2030  -10.7020 C   0  0  1  0  0  0  0  0  0  0  0  0
   -5.2213   -0.4263   -9.6424 C   0  0  1  0  0  0  0  0  0  0  0  0
   -4.6437   -1.6632   -8.9741 C   0  0  0  0  0  0  0  0  0  0  0  0
   -5.9200    3.6095  -10.5091 O   0  0  0  0  0  0  0  0  0  0  0  0
   -4.0122    2.0632  -12.2625 N   0  3  0  0  0  0  0  0  0  0  0  0
   -4.1631   -0.6848  -11.8031 O   0  0  0  0  0  0  0  0  0  0  0  0
   -5.5005    0.5327   -8.6029 O   0  0  0  0  0  0  0  0  0  0  0  0
   -4.6080   -2.7598   -9.8818 O   0  0  0  0  0  0  0  0  0  0  0  0
   -9.6265    1.9347   -9.1669 C   0  0  2  0  0  0  0  0  0  0  0  0
  -10.9857    1.4632   -8.6327 C   0  0  0  0  0  0  0  0  0  0  0  0
  -11.3304    0.0513   -9.0984 C   0  0  1  0  0  0  0  0  0  0  0  0
  -10.2156   -0.8868   -8.6566 C   0  0  2  0  0  0  0  0  0  0  0  0
   -8.9112   -0.4924   -9.3538 C   0  0  1  0  0  0  0  0  0  0  0  0
   -8.4871    0.9282   -8.9414 C   0  0  1  0  0  0  0  0  0  0  0  0
   -9.2439    3.2499   -8.5512 N   0  3  0  0  0  0  0  0  0  0  0  0
  -12.6591   -0.3845   -8.5573 N   0  3  0  0  0  0  0  0  0  0  0  0
   -7.8948   -1.4276   -9.0157 O   0  0  0  0  0  0  0  0  0  0  0  0
  -10.5494   -2.2507   -8.9727 O   0  0  0  0  0  0  0  0  0  0  0  0
   -7.3578    1.3497   -9.7344 O   0  0  0  0  0  0  0  0  0  0  0  0
   -9.9831   -3.1815   -8.0920 C   0  0  2  0  0  0  0  0  0  0  0  0
  -11.0529   -4.1728   -7.6219 C   0  0  1  0  0  0  0  0  0  0  0  0
  -11.9957   -3.5231   -6.6087 C   0  0  0  0  0  0  0  0  0  0  0  0
  -11.1707   -2.9116   -5.4879 C   0  0  1  0  0  0  0  0  0  0  0  0
  -10.2069   -1.8950   -6.0746 C   0  0  1  0  0  0  0  0  0  0  0  0
   -9.3558   -1.2431   -5.0000 C   0  0  0  0  0  0  0  0  0  0  0  0
  -11.8454   -4.6476   -8.8009 N   0  3  0  0  0  0  0  0  0  0  0  0
   -8.6853   -0.0395   -5.6039 N   0  3  0  0  0  0  0  0  0  0  0  0
  -12.0185   -2.2837   -4.5365 O   0  0  0  0  0  0  0  0  0  0  0  0
   -9.3235   -2.5551   -6.9970 O   0  0  0  0  0  0  0  0  0  0  0  0
  1  2  1  0  0  0  0
  1 22  1  6  0  0  0
  1 10  1  0  0  0  0
  2  3  1  0  0  0  0
  2  7  1  6  0  0  0
  3  4  1  0  0  0  0
  3  8  1  6  0  0  0
  4  5  1  0  0  0  0
  4  9  1  6  0  0  0
  5  6  1  1  0  0  0
  5 10  1  0  0  0  0
  6 11  1  0  0  0  0
 12 13  1  0  0  0  0
 12 17  1  0  0  0  0
 12 18  1  1  0  0  0
 13 14  1  0  0  0  0
 14 15  1  0  0  0  0
 14 19  1  1  0  0  0
 15 16  1  0  0  0  0
 15 21  1  6  0  0  0
 16 17  1  0  0  0  0
 16 20  1  1  0  0  0
 17 22  1  6  0  0  0
 23 21  1  6  0  0  0
 23 24  1  0  0  0  0
 23 32  1  0  0  0  0
 24 25  1  0  0  0  0
 24 29  1  6  0  0  0
 25 26  1  0  0  0  0
 26 27  1  0  0  0  0
 26 31  1  1  0  0  0
 27 28  1  1  0  0  0
 27 32  1  0  0  0  0
 28 30  1  0  0  0  0
M  CHG  5   8   1  18   1  19   1  29   1  30   1
M  END
>  <CHROM.1>
-165.22374652,-47.89594916,-26.11255792,40.63872894,-70.36749009,61.00573834
17.52702260,-49.89406947,-150.56624953,-45.06574330,117.89642137,131.54503393
-79.50414614,-61.39583882,-166.49133843,-84.67935958,-8.34630758,-0.50331916
-8.65016491,0.54288892,0.44771736,-0.18159234

>  <Name>
2tob cryst

>  <RI>
2.04895e+07

>  <Rbt.Current_Directory>
/home/itssahil/PROJECTS/Mol_Feturizer/New_Systems/rnas/2tob

>  <Rbt.Executable>
rbdock ($Id: //depot/dev/client3/rdock/2013.1/src/exe/rbdock.cxx#4 $)

>  <Rbt.Library>
libRbt.so (2013.1, Build901 2013/11/27)

>  <Rbt.Parameter_File>
/export/apps/rDock/src/rDock_2013.1_src/data/scripts/dock_solv.prm

>  <Rbt.Receptor>
prm/blind_docking_20.prm

>  <SCORE>
-30.0712

>  <SCORE.INTER>
-21.8728

>  <SCORE.INTER.CONST>
1

>  <SCORE.INTER.POLAR>
-6.42188

>  <SCORE.INTER.ROT>
6

>  <SCORE.INTER.SOLV>
44.4255

>  <SCORE.INTER.VDW>
-15.5841

>  <SCORE.INTER.norm>
-0.683526

>  <SCORE.INTRA>
-9.61888

>  <SCORE.INTRA.DIHEDRAL>
11.6705

>  <SCORE.INTRA.DIHEDRAL.0>
18.4221

>  <SCORE.INTRA.POLAR>
0.474582

>  <SCORE.INTRA.POLAR.0>
-1.57101

>  <SCORE.INTRA.REPUL>
-0.645864

>  <SCORE.INTRA.REPUL.0>
0.730195

>  <SCORE.INTRA.SOLV>
-1.82141

>  <SCORE.INTRA.SOLV.lig_0>
-127.221

>  <SCORE.INTRA.VDW>
-12.9277

>  <SCORE.INTRA.VDW.0>
10.8385

>  <SCORE.INTRA.norm>
-0.30059

>  <SCORE.RESTR>
1.42056

>  <SCORE.RESTR.CAVITY>
1.42056

>  <SCORE.RESTR.norm>
0.0443924

>  <SCORE.SYSTEM>
0

>  <SCORE.SYSTEM.CONST>
0

>  <SCORE.SYSTEM.DIHEDRAL>
0

>  <SCORE.SYSTEM.SOLV>
0

>  <SCORE.SYSTEM.norm>
0

>  <SCORE.heavy>
32

>  <SCORE.norm>
-0.939724

>  <RMSD>
3.747

$$$$
2tob cryst
 OpenBabel11021811463D
libRbt.so/2013.1/901 2013/11/27
 32 34  0  0  0  0  0  0  0  0999 V2000
   -6.2399    1.1506   -8.8235 C   0  0  2  0  0  0  0  0  0  0  0  0
   -5.0534    1.2779   -9.7738 C   0  0  1  0  0  0  0  0  0  0  0  0
   -4.8605   -0.0501  -10.5066 C   0  0  2  0  0  0  0  0  0  0  0  0
   -4.7112   -1.2074   -9.5101 C   0  0  1  0  0  0  0  0  0  0  0  0
   -5.8730   -1.1913   -8.5107 C   0  0  1  0  0  0  0  0  0  0  0  0
   -5.7481   -2.2087   -7.3884 C   0  0  0  0  0  0  0  0  0  0  0  0
   -5.2932    2.3196  -10.7161 O   0  0  0  0  0  0  0  0  0  0  0  0
   -3.7281   -0.1440  -11.4816 N   0  3  0  0  0  0  0  0  0  0  0  0
   -4.7055   -2.4360  -10.2261 O   0  0  0  0  0  0  0  0  0  0  0  0
   -5.9776    0.1105   -7.9005 O   0  0  0  0  0  0  0  0  0  0  0  0
   -6.8562   -2.1203   -6.4985 O   0  0  0  0  0  0  0  0  0  0  0  0
   -9.5969    1.7428   -9.1302 C   0  0  2  0  0  0  0  0  0  0  0  0
  -11.0361    1.4416   -8.6907 C   0  0  0  0  0  0  0  0  0  0  0  0
  -11.5292    0.0952   -9.2134 C   0  0  1  0  0  0  0  0  0  0  0  0
  -10.5738   -0.9875   -8.7309 C   0  0  2  0  0  0  0  0  0  0  0  0
   -9.1885   -0.7527   -9.3383 C   0  0  1  0  0  0  0  0  0  0  0  0
   -8.6124    0.5931   -8.8638 C   0  0  1  0  0  0  0  0  0  0  0  0
   -9.0881    2.9856   -8.4581 N   0  3  0  0  0  0  0  0  0  0  0  0
  -12.9341   -0.1747   -8.7644 N   0  3  0  0  0  0  0  0  0  0  0  0
   -8.3236   -1.8179   -8.9650 O   0  0  0  0  0  0  0  0  0  0  0  0
  -11.0594   -2.2905   -9.1024 O   0  0  0  0  0  0  0  0  0  0  0  0
   -7.3909    0.8793   -9.5765 O   0  0  0  0  0  0  0  0  0  0  0  0
  -10.9017   -3.2519   -8.0957 C   0  0  2  0  0  0  0  0  0  0  0  0
  -12.1907   -4.0668   -7.9459 C   0  0  1  0  0  0  0  0  0  0  0  0
  -13.2764   -3.2519   -7.2424 C   0  0  0  0  0  0  0  0  0  0  0  0
  -12.7196   -2.7121   -5.9350 C   0  0  1  0  0  0  0  0  0  0  0  0
  -11.4948   -1.8627   -6.2267 C   0  0  1  0  0  0  0  0  0  0  0  0
  -10.8945   -1.2884   -4.9563 C   0  0  0  0  0  0  0  0  0  0  0  0
  -12.6808   -4.4783   -9.3001 N   0  3  0  0  0  0  0  0  0  0  0  0
   -9.7656   -0.3741   -5.3470 N   0  3  0  0  0  0  0  0  0  0  0  0
  -13.7009   -1.9345   -5.2638 O   0  0  0  0  0  0  0  0  0  0  0  0
  -10.4925   -2.6759   -6.8598 O   0  0  0  0  0  0  0  0  0  0  0  0
  1  2  1  0  0  0  0
  1 22  1  6  0  0  0
  1 10  1  0  0  0  0
  2  3  1  0  0  0  0
  2  7  1  6  0  0  0
  3  4  1  0  0  0  0
  3  8  1  1  0  0  0
  4  5  1  0  0  0  0
  4  9  1  6  0  0  0
  5  6  1  1  0  0  0
  5 10  1  0  0  0  0
  6 11  1  0  0  0  0
 12 13  1  0  0  0  0
 12 17  1  0  0  0  0
 12 18  1  1  0  0  0
 13 14  1  0  0  0  0
 14 15  1  0  0  0  0
 14 19  1  1  0  0  0
 15 16  1  0  0  0  0
 15 21  1  6  0  0  0
 16 17  1  0  0  0  0
 16 20  1  1  0  0  0
 17 22  1  6  0  0  0
 23 21  1  6  0  0  0
 23 24  1  0  0  0  0
 23 32  1  0  0  0  0
 24 25  1  0  0  0  0
 24 29  1  6  0  0  0
 25 26  1  0  0  0  0
 26 27  1  0  0  0  0
 26 31  1  6  0  0  0
 27 28  1  1  0  0  0
 27 32  1  0  0  0  0
 28 30  1  0  0  0  0
M  CHG  5   8   1  18   1  19   1  29   1  30   1
M  END
>  <CHROM.1>
174.18280858,68.77529402,160.57163552,75.78599170,179.39798235,-32.73336166
35.62844081,-48.64403356,-138.84878225,67.59603784,113.10597352,134.48920356
157.85632118,71.34491554,-175.30001299,-60.23549470,-8.93745929,-0.89314751
-8.35846929,0.38055011,0.29223716,-0.19889408

>  <Name>
2tob cryst

>  <RI>
0

>  <Rbt.Current_Directory>
/home/itssahil/PROJECTS/Mol_Feturizer/New_Systems/rnas/2tob

>  <Rbt.Executable>
rbdock ($Id: //depot/dev/client3/rdock/2013.1/src/exe/rbdock.cxx#4 $)

>  <Rbt.Library>
libRbt.so (2013.1, Build901 2013/11/27)

>  <Rbt.Parameter_File>
/export/apps/rDock/src/rDock_2013.1_src/data/scripts/dock_solv.prm

>  <Rbt.Receptor>
prm/blind_docking_100.prm

>  <SCORE>
-36.1249

>  <SCORE.INTER>
-31.6719

>  <SCORE.INTER.CONST>
1

>  <SCORE.INTER.POLAR>
-7.02273

>  <SCORE.INTER.ROT>
6

>  <SCORE.INTER.SOLV>
45.8247

>  <SCORE.INTER.VDW>
-20.5804

>  <SCORE.INTER.norm>
-0.989748

>  <SCORE.INTRA>
-6.10393

>  <SCORE.INTRA.DIHEDRAL>
9.63342

>  <SCORE.INTRA.DIHEDRAL.0>
18.4221

>  <SCORE.INTRA.POLAR>
1.42898

>  <SCORE.INTRA.POLAR.0>
-1.57101

>  <SCORE.INTRA.REPUL>
-0.565907

>  <SCORE.INTRA.REPUL.0>
0.730195

>  <SCORE.INTRA.SOLV>
-0.116106

>  <SCORE.INTRA.SOLV.lig_0>
-127.221

>  <SCORE.INTRA.VDW>
-12.8916

>  <SCORE.INTRA.VDW.0>
10.8385

>  <SCORE.INTRA.norm>
-0.190748

>  <SCORE.RESTR>
1.65101

>  <SCORE.RESTR.CAVITY>
1.65101

>  <SCORE.RESTR.norm>
0.051594

>  <SCORE.SYSTEM>
0

>  <SCORE.SYSTEM.CONST>
0

>  <SCORE.SYSTEM.DIHEDRAL>
0

>  <SCORE.SYSTEM.SOLV>
0

>  <SCORE.SYSTEM.norm>
0

>  <SCORE.heavy>
32

>  <SCORE.norm>
-1.1289

>  <RMSD>
3.756

$$$$
2tob cryst
 OpenBabel11021811463D
libRbt.so/2013.1/901 2013/11/27
 32 34  0  0  0  0  0  0  0  0999 V2000
   -8.5955   -1.6382   -8.4024 C   0  0  2  0  0  0  0  0  0  0  0  0
   -8.0365   -0.4236   -9.1367 C   0  0  1  0  0  0  0  0  0  0  0  0
   -8.9721    0.7649   -8.9131 C   0  0  2  0  0  0  0  0  0  0  0  0
  -10.4068    0.4171   -9.3316 C   0  0  1  0  0  0  0  0  0  0  0  0
  -10.8503   -0.8828   -8.6517 C   0  0  1  0  0  0  0  0  0  0  0  0
  -12.2051   -1.3983   -9.1088 C   0  0  0  0  0  0  0  0  0  0  0  0
   -6.7351   -0.1135   -8.6457 O   0  0  0  0  0  0  0  0  0  0  0  0
   -8.6117    2.0619   -9.5685 N   0  3  0  0  0  0  0  0  0  0  0  0
  -11.2701    1.4813   -8.9514 O   0  0  0  0  0  0  0  0  0  0  0  0
   -9.8864   -1.9240   -8.9068 O   0  0  0  0  0  0  0  0  0  0  0  0
  -13.2247   -0.4368   -8.8565 O   0  0  0  0  0  0  0  0  0  0  0  0
  -10.3590   -1.6152   -5.3603 C   0  0  2  0  0  0  0  0  0  0  0  0
  -11.2965   -2.5735   -4.6132 C   0  0  0  0  0  0  0  0  0  0  0  0
  -11.8247   -3.6848   -5.5162 C   0  0  1  0  0  0  0  0  0  0  0  0
  -10.6361   -4.4327   -6.1044 C   0  0  2  0  0  0  0  0  0  0  0  0
   -9.8250   -3.4843   -6.9908 C   0  0  1  0  0  0  0  0  0  0  0  0
   -9.2527   -2.3240   -6.1576 C   0  0  1  0  0  0  0  0  0  0  0  0
   -9.7259   -0.6440   -4.4058 N   0  3  0  0  0  0  0  0  0  0  0  0
  -12.7320   -4.6077   -4.7592 N   0  3  0  0  0  0  0  0  0  0  0  0
   -8.7725   -4.2080   -7.6157 O   0  0  0  0  0  0  0  0  0  0  0  0
  -11.0829   -5.5639   -6.8739 O   0  0  0  0  0  0  0  0  0  0  0  0
   -8.6412   -1.3516   -7.0308 O   0  0  0  0  0  0  0  0  0  0  0  0
  -10.1195   -6.5742   -6.9905 C   0  0  2  0  0  0  0  0  0  0  0  0
  -10.7009   -7.7631   -7.7629 C   0  0  1  0  0  0  0  0  0  0  0  0
  -11.6813   -8.5539   -6.8963 C   0  0  0  0  0  0  0  0  0  0  0  0
  -10.9966   -8.9276   -5.5915 C   0  0  1  0  0  0  0  0  0  0  0  0
  -10.5366   -7.6622   -4.8887 C   0  0  1  0  0  0  0  0  0  0  0  0
   -9.8478   -7.9704   -3.5717 C   0  0  0  0  0  0  0  0  0  0  0  0
  -11.4111   -7.2651   -8.9841 N   0  3  0  0  0  0  0  0  0  0  0  0
   -8.4762   -8.5067   -3.8782 N   0  3  0  0  0  0  0  0  0  0  0  0
  -11.8887   -9.6504   -4.7549 O   0  0  0  0  0  0  0  0  0  0  0  0
   -9.5965   -6.9685   -5.7265 O   0  0  0  0  0  0  0  0  0  0  0  0
  1  2  1  0  0  0  0
  1 22  1  1  0  0  0
  1 10  1  0  0  0  0
  2  3  1  0  0  0  0
  2  7  1  1  0  0  0
  3  4  1  0  0  0  0
  3  8  1  6  0  0  0
  4  5  1  0  0  0  0
  4  9  1  1  0  0  0
  5  6  1  6  0  0  0
  5 10  1  0  0  0  0
  6 11  1  0  0  0  0
 12 13  1  0  0  0  0
 12 17  1  0  0  0  0
 12 18  1  1  0  0  0
 13 14  1  0  0  0  0
 14 15  1  0  0  0  0
 14 19  1  1  0  0  0
 15 16  1  0  0  0  0
 15 21  1  6  0  0  0
 16 17  1  0  0  0  0
 16 20  1  1  0  0  0
 17 22  1  6  0  0  0
 23 21  1  1  0  0  0
 23 24  1  0  0  0  0
 23 32  1  0  0  0  0
 24 25  1  0  0  0  0
 24 29  1  6  0  0  0
 25 26  1  0  0  0  0
 26 27  1  0  0  0  0
 26 31  1  1  0  0  0
 27 28  1  1  0  0  0
 27 32  1  0  0  0  0
 28 30  1  0  0  0  0
M  CHG  5   8   1  18   1  19   1  29   1  30   1
M  END
>  <CHROM.1>
174.52808315,56.83574656,-39.57032477,-63.35513263,-59.38684541,61.15387936
-173.97102811,-69.74445540,-155.81998787,-58.09252468,-124.90485173,177.24178682
70.33773425,63.63193450,74.94559238,171.12015435,-10.25228072,-3.62144420
-6.96896861,-1.42838500,0.60444700,2.69735510

>  <Name>
2tob cryst

>  <RI>
0

>  <Rbt.Current_Directory>
/home/itssahil/PROJECTS/Mol_Feturizer/New_Systems/rnas/2tob

>  <Rbt.Executable>
rbdock ($Id: //depot/dev/client3/rdock/2013.1/src/exe/rbdock.cxx#4 $)

>  <Rbt.Library>
libRbt.so (2013.1, Build901 2013/11/27)

>  <Rbt.Parameter_File>
/export/apps/rDock/src/rDock_2013.1_src/data/scripts/dock_solv.prm

>  <Rbt.Receptor>
prm/pocket_docking_6.prm

>  <SCORE>
-59.8995

>  <SCORE.INTER>
-43.9924

>  <SCORE.INTER.CONST>
1

>  <SCORE.INTER.POLAR>
-6.04109

>  <SCORE.INTER.ROT>
6

>  <SCORE.INTER.SOLV>
24.0895

>  <SCORE.INTER.VDW>
-24.8212

>  <SCORE.INTER.norm>
-1.37476

>  <SCORE.INTRA>
-15.9071

>  <SCORE.INTRA.DIHEDRAL>
-5.77953

>  <SCORE.INTRA.DIHEDRAL.0>
18.4221

>  <SCORE.INTRA.POLAR>
1.16507

>  <SCORE.INTRA.POLAR.0>
-1.57101

>  <SCORE.INTRA.REPUL>
-0.730195

>  <SCORE.INTRA.REPUL.0>
0.730195

>  <SCORE.INTRA.SOLV>
-8.58678

>  <SCORE.INTRA.SOLV.lig_0>
-127.221

>  <SCORE.INTRA.VDW>
-9.03417

>  <SCORE.INTRA.VDW.0>
10.8385

>  <SCORE.INTRA.norm>
-0.497096

>  <SCORE.RESTR>
0

>  <SCORE.RESTR.CAVITY>
0

>  <SCORE.RESTR.norm>
0

>  <SCORE.SYSTEM>
0

>  <SCORE.SYSTEM.CONST>
0

>  <SCORE.SYSTEM.DIHEDRAL>
0

>  <SCORE.SYSTEM.SOLV>
0

>  <SCORE.SYSTEM.norm>
0

>  <SCORE.heavy>
32

>  <SCORE.norm>
-1.87186

>  <RMSD>
3.756

$$$$
2tob cryst
 OpenBabel11021811463D
libRbt.so/2013.1/901 2013/11/27
 32 34  0  0  0  0  0  0  0  0999 V2000
   -7.5606   -0.5934   -8.2352 C   0  0  2  0  0  0  0  0  0  0  0  0
   -8.3467    0.3607   -7.3415 C   0  0  1  0  0  0  0  0  0  0  0  0
   -8.9860    1.4425   -8.2125 C   0  0  2  0  0  0  0  0  0  0  0  0
   -7.9272    2.1532   -9.0660 C   0  0  1  0  0  0  0  0  0  0  0  0
   -7.0956    1.1212   -9.8356 C   0  0  1  0  0  0  0  0  0  0  0  0
   -5.9219    1.7083  -10.6023 C   0  0  0  0  0  0  0  0  0  0  0  0
   -9.3589   -0.3537   -6.6373 O   0  0  0  0  0  0  0  0  0  0  0  0
   -9.7939    2.4978   -7.5231 N   0  3  0  0  0  0  0  0  0  0  0  0
   -8.5796    3.0270   -9.9788 O   0  0  0  0  0  0  0  0  0  0  0  0
   -6.5645    0.1396   -8.9230 O   0  0  0  0  0  0  0  0  0  0  0  0
   -5.3600    0.7432  -11.4859 O   0  0  0  0  0  0  0  0  0  0  0  0
   -7.9588   -3.1345   -7.7762 C   0  0  2  0  0  0  0  0  0  0  0  0
   -8.4817   -4.4255   -7.1320 C   0  0  0  0  0  0  0  0  0  0  0  0
   -9.9177   -4.2819   -6.6355 C   0  0  1  0  0  0  0  0  0  0  0  0
  -10.7933   -3.8644   -7.8090 C   0  0  2  0  0  0  0  0  0  0  0  0
  -10.3532   -2.4860   -8.3083 C   0  0  1  0  0  0  0  0  0  0  0  0
   -8.9060   -2.5373   -8.8288 C   0  0  1  0  0  0  0  0  0  0  0  0
   -6.6144   -3.3644   -8.4048 N   0  3  0  0  0  0  0  0  0  0  0  0
  -10.4036   -5.5585   -6.0170 N   0  3  0  0  0  0  0  0  0  0  0  0
  -11.2327   -2.0556   -9.3395 O   0  0  0  0  0  0  0  0  0  0  0  0
  -12.1776   -3.8268   -7.4169 O   0  0  0  0  0  0  0  0  0  0  0  0
   -8.4491   -1.2028   -9.1323 O   0  0  0  0  0  0  0  0  0  0  0  0
  -13.0068   -4.6178   -8.2228 C   0  0  2  0  0  0  0  0  0  0  0  0
  -14.4180   -4.0220   -8.2625 C   0  0  1  0  0  0  0  0  0  0  0  0
  -15.1574   -4.2742   -6.9483 C   0  0  0  0  0  0  0  0  0  0  0  0
  -15.1124   -5.7608   -6.6338 C   0  0  1  0  0  0  0  0  0  0  0  0
  -13.6639   -6.2090   -6.5462 C   0  0  1  0  0  0  0  0  0  0  0  0
  -13.5526   -7.6890   -6.2275 C   0  0  0  0  0  0  0  0  0  0  0  0
  -14.3298   -2.5465   -8.5048 N   0  3  0  0  0  0  0  0  0  0  0  0
  -12.1674   -8.1423   -6.5997 N   0  3  0  0  0  0  0  0  0  0  0  0
  -15.7777   -6.0265   -5.4071 O   0  0  0  0  0  0  0  0  0  0  0  0
  -13.0184   -5.9802   -7.8102 O   0  0  0  0  0  0  0  0  0  0  0  0
  1  2  1  0  0  0  0
  1 22  1  6  0  0  0
  1 10  1  0  0  0  0
  2  3  1  0  0  0  0
  2  7  1  6  0  0  0
  3  4  1  0  0  0  0
  3  8  1  1  0  0  0
  4  5  1  0  0  0  0
  4  9  1  6  0  0  0
  5  6  1  1  0  0  0
  5 10  1  0  0  0  0
  6 11  1  0  0  0  0
 12 13  1  0  0  0  0
 12 17  1  0  0  0  0
 12 18  1  6  0  0  0
 13 14  1  0  0  0  0
 14 15  1  0  0  0  0
 14 19  1  6  0  0  0
 15 16  1  0  0  0  0
 15 21  1  1  0  0  0
 16 17  1  0  0  0  0
 16 20  1  6  0  0  0
 17 22  1  1  0  0  0
 23 21  1  1  0  0  0
 23 24  1  0  0  0  0
 23 32  1  0  0  0  0
 24 25  1  0  0  0  0
 24 29  1  1  0  0  0
 25 26  1  0  0  0  0
 26 27  1  0  0  0  0
 26 31  1  1  0  0  0
 27 28  1  6  0  0  0
 27 32  1  0  0  0  0
 28 30  1  0  0  0  0
M  CHG  5   8   1  18   1  19   1  29   1  30   1
M  END
>  <CHROM.1>
-99.77964748,-163.40054065,37.35839316,-67.04003696,-168.83769252,-169.37299283
65.95607850,60.01424651,-124.73117892,-59.52411885,-16.90541638,-150.85753314
3.85746761,179.17690090,161.62321106,77.75784837,-10.33975883,-2.48351349
-8.00180639,-0.84952828,-0.14008877,2.90701818

>  <Name>
2tob cryst

>  <RI>
0

>  <Rbt.Current_Directory>
/home/itssahil/PROJECTS/Mol_Feturizer/New_Systems/rnas/2tob

>  <Rbt.Executable>
rbdock ($Id: //depot/dev/client3/rdock/2013.1/src/exe/rbdock.cxx#4 $)

>  <Rbt.Library>
libRbt.so (2013.1, Build901 2013/11/27)

>  <Rbt.Parameter_File>
/export/apps/rDock/src/rDock_2013.1_src/data/scripts/dock_solv.prm

>  <Rbt.Receptor>
prm/pocket_docking_3.prm

>  <SCORE>
-46.5753

>  <SCORE.INTER>
-40.4292

>  <SCORE.INTER.CONST>
1

>  <SCORE.INTER.POLAR>
-7.18774

>  <SCORE.INTER.ROT>
6

>  <SCORE.INTER.SOLV>
35.3815

>  <SCORE.INTER.VDW>
-22.3875

>  <SCORE.INTER.norm>
-1.26341

>  <SCORE.INTRA>
-6.32387

>  <SCORE.INTRA.DIHEDRAL>
12.5771

>  <SCORE.INTRA.DIHEDRAL.0>
18.4221

>  <SCORE.INTRA.POLAR>
0.51546

>  <SCORE.INTRA.POLAR.0>
-1.57101

>  <SCORE.INTRA.REPUL>
-0.730195

>  <SCORE.INTRA.REPUL.0>
0.730195

>  <SCORE.INTRA.SOLV>
0.85341

>  <SCORE.INTRA.SOLV.lig_0>
-127.221

>  <SCORE.INTRA.VDW>
-11.1407

>  <SCORE.INTRA.VDW.0>
10.8385

>  <SCORE.INTRA.norm>
-0.197621

>  <SCORE.RESTR>
0.177735

>  <SCORE.RESTR.CAVITY>
0.177735

>  <SCORE.RESTR.norm>
0.00555422

>  <SCORE.SYSTEM>
0

>  <SCORE.SYSTEM.CONST>
0

>  <SCORE.SYSTEM.DIHEDRAL>
0

>  <SCORE.SYSTEM.SOLV>
0

>  <SCORE.SYSTEM.norm>
0

>  <SCORE.heavy>
32

>  <SCORE.norm>
-1.45548

>  <RMSD>
3.760

$$$$
2tob cryst
 OpenBabel11021811463D
libRbt.so/2013.1/901 2013/11/27
 32 34  0  0  0  0  0  0  0  0999 V2000
  -10.0061   -2.3061   -8.5706 C   0  0  2  0  0  0  0  0  0  0  0  0
   -8.5434   -2.7264   -8.6753 C   0  0  1  0  0  0  0  0  0  0  0  0
   -7.7187   -1.9025   -7.6861 C   0  0  2  0  0  0  0  0  0  0  0  0
   -7.9304   -0.4003   -7.9162 C   0  0  1  0  0  0  0  0  0  0  0  0
   -9.4287   -0.0776   -7.9243 C   0  0  1  0  0  0  0  0  0  0  0  0
   -9.7578    1.3607   -8.2891 C   0  0  0  0  0  0  0  0  0  0  0  0
   -8.4123   -4.1136   -8.3765 O   0  0  0  0  0  0  0  0  0  0  0  0
   -6.2426   -2.1495   -7.6417 N   0  3  0  0  0  0  0  0  0  0  0  0
   -7.2853    0.3223   -6.8750 O   0  0  0  0  0  0  0  0  0  0  0  0
  -10.1086   -0.9269   -8.8701 O   0  0  0  0  0  0  0  0  0  0  0  0
   -9.0909    2.2696   -7.4190 O   0  0  0  0  0  0  0  0  0  0  0  0
  -12.8523   -2.5615   -7.5551 C   0  0  2  0  0  0  0  0  0  0  0  0
  -14.1348   -3.3837   -7.7402 C   0  0  0  0  0  0  0  0  0  0  0  0
  -13.9099   -4.6149   -8.6136 C   0  0  1  0  0  0  0  0  0  0  0  0
  -12.8085   -5.4567   -7.9841 C   0  0  2  0  0  0  0  0  0  0  0  0
  -11.4988   -4.6643   -7.9830 C   0  0  1  0  0  0  0  0  0  0  0  0
  -11.6363   -3.3958   -7.1227 C   0  0  1  0  0  0  0  0  0  0  0  0
  -13.0691   -1.4618   -6.5556 N   0  3  0  0  0  0  0  0  0  0  0  0
  -15.1767   -5.4010   -8.7722 N   0  3  0  0  0  0  0  0  0  0  0  0
  -10.4511   -5.4865   -7.4846 O   0  0  0  0  0  0  0  0  0  0  0  0
  -12.6379   -6.6880   -8.7097 O   0  0  0  0  0  0  0  0  0  0  0  0
  -10.4586   -2.5757   -7.2712 O   0  0  0  0  0  0  0  0  0  0  0  0
  -11.7586   -7.5840   -8.0879 C   0  0  2  0  0  0  0  0  0  0  0  0
  -11.3842   -8.7073   -9.0606 C   0  0  1  0  0  0  0  0  0  0  0  0
  -12.5421   -9.6901   -9.2359 C   0  0  0  0  0  0  0  0  0  0  0  0
  -12.9938  -10.1706   -7.8662 C   0  0  1  0  0  0  0  0  0  0  0  0
  -13.4089   -8.9734   -7.0289 C   0  0  1  0  0  0  0  0  0  0  0  0
  -13.8772   -9.3905   -5.6465 C   0  0  0  0  0  0  0  0  0  0  0  0
  -11.0306   -8.1174  -10.3912 N   0  3  0  0  0  0  0  0  0  0  0  0
  -14.3004   -8.1518   -4.9052 N   0  3  0  0  0  0  0  0  0  0  0  0
  -14.0823  -11.0744   -7.9939 O   0  0  0  0  0  0  0  0  0  0  0  0
  -12.2833   -8.0938   -6.8666 O   0  0  0  0  0  0  0  0  0  0  0  0
  1  2  1  0  0  0  0
  1 22  1  1  0  0  0
  1 10  1  0  0  0  0
  2  3  1  0  0  0  0
  2  7  1  1  0  0  0
  3  4  1  0  0  0  0
  3  8  1  6  0  0  0
  4  5  1  0  0  0  0
  4  9  1  1  0  0  0
  5  6  1  6  0  0  0
  5 10  1  0  0  0  0
  6 11  1  0  0  0  0
 12 13  1  0  0  0  0
 12 17  1  0  0  0  0
 12 18  1  1  0  0  0
 13 14  1  0  0  0  0
 14 15  1  0  0  0  0
 14 19  1  1  0  0  0
 15 16  1  0  0  0  0
 15 21  1  6  0  0  0
 16 17  1  0  0  0  0
 16 20  1  1  0  0  0
 17 22  1  6  0  0  0
 23 21  1  6  0  0  0
 23 24  1  0  0  0  0
 23 32  1  0  0  0  0
 24 25  1  0  0  0  0
 24 29  1  6  0  0  0
 25 26  1  0  0  0  0
 26 27  1  0  0  0  0
 26 31  1  6  0  0  0
 27 28  1  1  0  0  0
 27 32  1  0  0  0  0
 28 30  1  0  0  0  0
M  CHG  5   8   1  18   1  19   1  29   1  30   1
M  END
>  <CHROM.1>
-125.25530225,-47.20143625,175.64875839,-66.77644049,-56.21943685,-64.54037752
-155.66526920,77.84647775,-172.42663356,-62.26433262,-72.40767586,-167.01637050
49.62310897,175.22849379,-178.52050451,55.51247527,-11.26255041,-4.55754231
-7.82142307,-1.07933098,-0.20007918,-3.03890381

>  <Name>
2tob cryst

>  <RI>
0

>  <Rbt.Current_Directory>
/home/itssahil/PROJECTS/Mol_Feturizer/New_Systems/rnas/2tob

>  <Rbt.Executable>
rbdock ($Id: //depot/dev/client3/rdock/2013.1/src/exe/rbdock.cxx#4 $)

>  <Rbt.Library>
libRbt.so (2013.1, Build901 2013/11/27)

>  <Rbt.Parameter_File>
/export/apps/rDock/src/rDock_2013.1_src/data/scripts/dock_solv.prm

>  <Rbt.Receptor>
prm/pocket_docking_6.prm

>  <SCORE>
-44.8797

>  <SCORE.INTER>
-25.7758

>  <SCORE.INTER.CONST>
1

>  <SCORE.INTER.POLAR>
-3.84241

>  <SCORE.INTER.ROT>
6

>  <SCORE.INTER.SOLV>
30.6957

>  <SCORE.INTER.VDW>
-22.2077

>  <SCORE.INTER.norm>
-0.805494

>  <SCORE.INTRA>
-19.1039

>  <SCORE.INTRA.DIHEDRAL>
-5.70621

>  <SCORE.INTRA.DIHEDRAL.0>
18.4221

>  <SCORE.INTRA.POLAR>
1.0213

>  <SCORE.INTRA.POLAR.0>
-1.57101

>  <SCORE.INTRA.REPUL>
-0.730195

>  <SCORE.INTRA.REPUL.0>
0.730195

>  <SCORE.INTRA.SOLV>
-8.89893

>  <SCORE.INTRA.SOLV.lig_0>
-127.221

>  <SCORE.INTRA.VDW>
-11.6228

>  <SCORE.INTRA.VDW.0>
10.8385

>  <SCORE.INTRA.norm>
-0.596997

>  <SCORE.RESTR>
0

>  <SCORE.RESTR.CAVITY>
0

>  <SCORE.RESTR.norm>
0

>  <SCORE.SYSTEM>
0

>  <SCORE.SYSTEM.CONST>
0

>  <SCORE.SYSTEM.DIHEDRAL>
0

>  <SCORE.SYSTEM.SOLV>
0

>  <SCORE.SYSTEM.norm>
0

>  <SCORE.heavy>
32

>  <SCORE.norm>
-1.40249

>  <RMSD>
3.775

$$$$
2tob cryst
 OpenBabel11021811463D
libRbt.so/2013.1/901 2013/11/27
 32 34  0  0  0  0  0  0  0  0999 V2000
   -7.7166   -0.2818   -7.5426 C   0  0  2  0  0  0  0  0  0  0  0  0
   -8.1386    1.1792   -7.6625 C   0  0  1  0  0  0  0  0  0  0  0  0
   -7.9931    1.6193   -9.1195 C   0  0  2  0  0  0  0  0  0  0  0  0
   -6.5688    1.3613   -9.6286 C   0  0  1  0  0  0  0  0  0  0  0  0
   -6.1710   -0.0937   -9.3573 C   0  0  1  0  0  0  0  0  0  0  0  0
   -4.7246   -0.4204   -9.6909 C   0  0  0  0  0  0  0  0  0  0  0  0
   -9.4924    1.3313   -7.2444 O   0  0  0  0  0  0  0  0  0  0  0  0
   -8.3423    3.0368   -9.4521 N   0  3  0  0  0  0  0  0  0  0  0  0
   -6.5226    1.6233  -11.0255 O   0  0  0  0  0  0  0  0  0  0  0  0
   -6.3715   -0.4059   -7.9642 O   0  0  0  0  0  0  0  0  0  0  0  0
   -4.5131   -1.8286   -9.7040 O   0  0  0  0  0  0  0  0  0  0  0  0
   -8.7588   -2.2706   -6.2601 C   0  0  2  0  0  0  0  0  0  0  0  0
   -9.6131   -3.1871   -5.3738 C   0  0  0  0  0  0  0  0  0  0  0  0
  -11.1001   -2.8558   -5.4654 C   0  0  1  0  0  0  0  0  0  0  0  0
  -11.5264   -2.9554   -6.9236 C   0  0  2  0  0  0  0  0  0  0  0  0
  -10.7820   -1.9001   -7.7455 C   0  0  1  0  0  0  0  0  0  0  0  0
   -9.2653   -2.1569   -7.7066 C   0  0  1  0  0  0  0  0  0  0  0  0
   -7.3307   -2.7348   -6.2788 N   0  3  0  0  0  0  0  0  0  0  0  0
  -11.9097   -3.7695   -4.5948 N   0  3  0  0  0  0  0  0  0  0  0  0
  -11.2525   -1.9298   -9.0871 O   0  0  0  0  0  0  0  0  0  0  0  0
  -12.9474   -2.7634   -7.0477 O   0  0  0  0  0  0  0  0  0  0  0  0
   -8.5688   -1.0618   -8.3370 O   0  0  0  0  0  0  0  0  0  0  0  0
  -13.3995   -2.7890   -8.3734 C   0  0  2  0  0  0  0  0  0  0  0  0
  -14.9006   -2.4844   -8.4187 C   0  0  1  0  0  0  0  0  0  0  0  0
  -15.7183   -3.6805   -7.9308 C   0  0  0  0  0  0  0  0  0  0  0  0
  -15.3044   -4.9148   -8.7157 C   0  0  1  0  0  0  0  0  0  0  0  0
  -13.8160   -5.1508   -8.5270 C   0  0  1  0  0  0  0  0  0  0  0  0
  -13.3416   -6.3775   -9.2848 C   0  0  0  0  0  0  0  0  0  0  0  0
  -15.1950   -1.2981   -7.5529 N   0  3  0  0  0  0  0  0  0  0  0  0
  -13.7764   -6.2362  -10.7179 N   0  3  0  0  0  0  0  0  0  0  0  0
  -16.0356   -6.0496   -8.2735 O   0  0  0  0  0  0  0  0  0  0  0  0
  -13.0880   -4.0156   -9.0254 O   0  0  0  0  0  0  0  0  0  0  0  0
  1  2  1  0  0  0  0
  1 22  1  6  0  0  0
  1 10  1  0  0  0  0
  2  3  1  0  0  0  0
  2  7  1  6  0  0  0
  3  4  1  0  0  0  0
  3  8  1  1  0  0  0
  4  5  1  0  0  0  0
  4  9  1  6  0  0  0
  5  6  1  1  0  0  0
  5 10  1  0  0  0  0
  6 11  1  0  0  0  0
 12 13  1  0  0  0  0
 12 17  1  0  0  0  0
 12 18  1  6  0  0  0
 13 14  1  0  0  0  0
 14 15  1  0  0  0  0
 14 19  1  1  0  0  0
 15 16  1  0  0  0  0
 15 21  1  1  0  0  0
 16 17  1  0  0  0  0
 16 20  1  6  0  0  0
 17 22  1  1  0  0  0
 23 21  1  1  0  0  0
 23 24  1  0  0  0  0
 23 32  1  0  0  0  0
 24 25  1  0  0  0  0
 24 29  1  1  0  0  0
 25 26  1  0  0  0  0
 26 27  1  0  0  0  0
 26 31  1  1  0  0  0
 27 28  1  6  0  0  0
 27 32  1  0  0  0  0
 28 30  1  0  0  0  0
M  CHG  5   8   1  18   1  19   1  29   1  30   1
M  END
>  <CHROM.1>
-124.80822593,-179.86865109,128.41932477,65.16583297,-166.81756531,-82.29591882
-42.31998545,-171.43888469,177.56088623,-159.68876089,-5.47714835,-176.22203716
67.06421830,177.84718327,53.09344280,141.01208364,-10.44073654,-1.97621722
-8.14816197,-0.54947078,0.15718419,2.75028229

>  <Name>
2tob cryst

>  <RI>
2.04895e+07

>  <Rbt.Current_Directory>
/home/itssahil/PROJECTS/Mol_Feturizer/New_Systems/rnas/2tob

>  <Rbt.Executable>
rbdock ($Id: //depot/dev/client3/rdock/2013.1/src/exe/rbdock.cxx#4 $)

>  <Rbt.Library>
libRbt.so (2013.1, Build901 2013/11/27)

>  <Rbt.Parameter_File>
/export/apps/rDock/src/rDock_2013.1_src/data/scripts/dock_solv.prm

>  <Rbt.Receptor>
prm/blind_docking_20.prm

>  <SCORE>
-41.3223

>  <SCORE.INTER>
-42.5908

>  <SCORE.INTER.CONST>
1

>  <SCORE.INTER.POLAR>
-6.22465

>  <SCORE.INTER.ROT>
6

>  <SCORE.INTER.SOLV>
38.8777

>  <SCORE.INTER.VDW>
-28.2042

>  <SCORE.INTER.norm>
-1.33096

>  <SCORE.INTRA>
-3.57196

>  <SCORE.INTRA.DIHEDRAL>
7.94297

>  <SCORE.INTRA.DIHEDRAL.0>
18.4221

>  <SCORE.INTRA.POLAR>
0.352035

>  <SCORE.INTRA.POLAR.0>
-1.57101

>  <SCORE.INTRA.REPUL>
-0.730195

>  <SCORE.INTRA.REPUL.0>
0.730195

>  <SCORE.INTRA.SOLV>
-5.80089

>  <SCORE.INTRA.SOLV.lig_0>
-127.221

>  <SCORE.INTRA.VDW>
-2.18895

>  <SCORE.INTRA.VDW.0>
10.8385

>  <SCORE.INTRA.norm>
-0.111624

>  <SCORE.RESTR>
4.84045

>  <SCORE.RESTR.CAVITY>
4.84045

>  <SCORE.RESTR.norm>
0.151264

>  <SCORE.SYSTEM>
0

>  <SCORE.SYSTEM.CONST>
0

>  <SCORE.SYSTEM.DIHEDRAL>
0

>  <SCORE.SYSTEM.SOLV>
0

>  <SCORE.SYSTEM.norm>
0

>  <SCORE.heavy>
32

>  <SCORE.norm>
-1.29132

>  <RMSD>
3.776

$$$$
2tob cryst
 OpenBabel11021811463D
libRbt.so/2013.1/901 2013/11/27
 32 34  0  0  0  0  0  0  0  0999 V2000
   -8.6151   -0.7492   -7.5533 C   0  0  2  0  0  0  0  0  0  0  0  0
   -8.8068    0.6656   -8.0905 C   0  0  1  0  0  0  0  0  0  0  0  0
   -8.2168    0.7455   -9.4987 C   0  0  2  0  0  0  0  0  0  0  0  0
   -6.7501    0.2944   -9.5030 C   0  0  1  0  0  0  0  0  0  0  0  0
   -6.6222   -1.0780   -8.8329 C   0  0  1  0  0  0  0  0  0  0  0  0
   -5.1907   -1.5562   -8.6527 C   0  0  0  0  0  0  0  0  0  0  0  0
  -10.1943    0.9886   -8.1286 O   0  0  0  0  0  0  0  0  0  0  0  0
   -8.2863    2.0643  -10.2041 N   0  3  0  0  0  0  0  0  0  0  0  0
   -6.2930    0.2211  -10.8476 O   0  0  0  0  0  0  0  0  0  0  0  0
   -7.2316   -1.0453   -7.5268 O   0  0  0  0  0  0  0  0  0  0  0  0
   -4.5088   -1.5964   -9.9021 O   0  0  0  0  0  0  0  0  0  0  0  0
   -9.3395   -2.9846   -6.3819 C   0  0  2  0  0  0  0  0  0  0  0  0
  -10.1336   -3.9415   -5.4825 C   0  0  0  0  0  0  0  0  0  0  0  0
  -11.6135   -3.5749   -5.4147 C   0  0  1  0  0  0  0  0  0  0  0  0
  -12.1728   -3.5670   -6.8307 C   0  0  2  0  0  0  0  0  0  0  0  0
  -11.4786   -2.4738   -7.6470 C   0  0  1  0  0  0  0  0  0  0  0  0
   -9.9718   -2.7632   -7.7650 C   0  0  1  0  0  0  0  0  0  0  0  0
   -7.9316   -3.4751   -6.5626 N   0  3  0  0  0  0  0  0  0  0  0  0
  -12.3646   -4.5288   -4.5348 N   0  3  0  0  0  0  0  0  0  0  0  0
  -12.0694   -2.4033   -8.9385 O   0  0  0  0  0  0  0  0  0  0  0  0
  -13.5936   -3.3385   -6.8104 O   0  0  0  0  0  0  0  0  0  0  0  0
   -9.3069   -1.6422   -8.3839 O   0  0  0  0  0  0  0  0  0  0  0  0
  -14.2794   -4.0010   -7.8368 C   0  0  2  0  0  0  0  0  0  0  0  0
  -15.7088   -3.4594   -7.9435 C   0  0  1  0  0  0  0  0  0  0  0  0
  -16.5768   -3.9708   -6.7934 C   0  0  0  0  0  0  0  0  0  0  0  0
  -16.4825   -5.4871   -6.7400 C   0  0  1  0  0  0  0  0  0  0  0  0
  -15.0299   -5.8909   -6.5562 C   0  0  1  0  0  0  0  0  0  0  0  0
  -14.8708   -7.3990   -6.4894 C   0  0  0  0  0  0  0  0  0  0  0  0
  -15.6785   -1.9622   -7.9121 N   0  3  0  0  0  0  0  0  0  0  0  0
  -13.8648   -7.7137   -5.4161 N   0  3  0  0  0  0  0  0  0  0  0  0
  -17.2662   -5.9933   -5.6687 O   0  0  0  0  0  0  0  0  0  0  0  0
  -14.2596   -5.4150   -7.6728 O   0  0  0  0  0  0  0  0  0  0  0  0
  1  2  1  0  0  0  0
  1 22  1  6  0  0  0
  1 10  1  0  0  0  0
  2  3  1  0  0  0  0
  2  7  1  6  0  0  0
  3  4  1  0  0  0  0
  3  8  1  1  0  0  0
  4  5  1  0  0  0  0
  4  9  1  6  0  0  0
  5  6  1  1  0  0  0
  5 10  1  0  0  0  0
  6 11  1  0  0  0  0
 12 13  1  0  0  0  0
 12 17  1  0  0  0  0
 12 18  1  6  0  0  0
 13 14  1  0  0  0  0
 14 15  1  0  0  0  0
 14 19  1  1  0  0  0
 15 16  1  0  0  0  0
 15 21  1  1  0  0  0
 16 17  1  0  0  0  0
 16 20  1  6  0  0  0
 17 22  1  1  0  0  0
 23 21  1  1  0  0  0
 23 24  1  0  0  0  0
 23 32  1  0  0  0  0
 24 25  1  0  0  0  0
 24 29  1  1  0  0  0
 25 26  1  0  0  0  0
 26 27  1  0  0  0  0
 26 31  1  1  0  0  0
 27 28  1  6  0  0  0
 27 32  1  0  0  0  0
 28 30  1  0  0  0  0
M  CHG  5   8   1  18   1  19   1  29   1  30   1
M  END
>  <CHROM.1>
-142.46288552,55.02188322,-98.79336006,-174.40463276,-56.89082342,-175.66311559
-43.41585611,-57.52002921,-146.84382254,-56.11451874,-20.23986220,-167.02186547
-48.76730080,-50.46284408,-139.03007624,-67.90528138,-11.06428684,-2.71367859
-7.58809427,-0.59605108,0.02819165,2.61172313

>  <Name>
2tob cryst

>  <RI>
3.35201e+07

>  <Rbt.Current_Directory>
/home/itssahil/PROJECTS/Mol_Feturizer/New_Systems/rnas/2tob

>  <Rbt.Executable>
rbdock ($Id: //depot/dev/client3/rdock/2013.1/src/exe/rbdock.cxx#4 $)

>  <Rbt.Library>
libRbt.so (2013.1, Build901 2013/11/27)

>  <Rbt.Parameter_File>
/export/apps/rDock/src/rDock_2013.1_src/data/scripts/dock_solv.prm

>  <Rbt.Receptor>
prm/pocket_docking_4.prm

>  <SCORE>
-44.5714

>  <SCORE.INTER>
-30.245

>  <SCORE.INTER.CONST>
1

>  <SCORE.INTER.POLAR>
-5.02819

>  <SCORE.INTER.ROT>
6

>  <SCORE.INTER.SOLV>
28.7838

>  <SCORE.INTER.VDW>
-20.5973

>  <SCORE.INTER.norm>
-0.945158

>  <SCORE.INTRA>
-14.7735

>  <SCORE.INTRA.DIHEDRAL>
5.71999

>  <SCORE.INTRA.DIHEDRAL.0>
18.4221

>  <SCORE.INTRA.POLAR>
-0.240972

>  <SCORE.INTRA.POLAR.0>
-1.57101

>  <SCORE.INTRA.REPUL>
-0.730195

>  <SCORE.INTRA.REPUL.0>
0.730195

>  <SCORE.INTRA.SOLV>
-3.14555

>  <SCORE.INTRA.SOLV.lig_0>
-127.221

>  <SCORE.INTRA.VDW>
-11.5904

>  <SCORE.INTRA.VDW.0>
10.8385

>  <SCORE.INTRA.norm>
-0.461671

>  <SCORE.RESTR>
0.447155

>  <SCORE.RESTR.CAVITY>
0.447155

>  <SCORE.RESTR.norm>
0.0139736

>  <SCORE.SYSTEM>
0

>  <SCORE.SYSTEM.CONST>
0

>  <SCORE.SYSTEM.DIHEDRAL>
0

>  <SCORE.SYSTEM.SOLV>
0

>  <SCORE.SYSTEM.norm>
0

>  <SCORE.heavy>
32

>  <SCORE.norm>
-1.39285

>  <RMSD>
3.779

$$$$
2tob cryst
 OpenBabel11021811463D
libRbt.so/2013.1/901 2013/11/27
 32 34  0  0  0  0  0  0  0  0999 V2000
   -6.2568    1.3752   -8.7677 C   0  0  2  0  0  0  0  0  0  0  0  0
   -5.0665    1.5253   -9.7098 C   0  0  1  0  0  0  0  0  0  0  0  0
   -4.8836    0.2226  -10.4890 C   0  0  2  0  0  0  0  0  0  0  0  0
   -4.7477   -0.9708   -9.5341 C   0  0  1  0  0  0  0  0  0  0  0  0
   -5.9122   -0.9797   -8.5377 C   0  0  1  0  0  0  0  0  0  0  0  0
   -5.7999   -2.0376   -7.4522 C   0  0  0  0  0  0  0  0  0  0  0  0
   -5.2940    2.6022  -10.6149 O   0  0  0  0  0  0  0  0  0  0  0  0
   -3.7493    0.1530  -11.4639 N   0  3  0  0  0  0  0  0  0  0  0  0
   -4.7512   -2.1732  -10.2935 O   0  0  0  0  0  0  0  0  0  0  0  0
   -6.0068    0.3005   -7.8817 O   0  0  0  0  0  0  0  0  0  0  0  0
   -5.9194   -3.3448   -8.0041 O   0  0  0  0  0  0  0  0  0  0  0  0
   -9.6532    1.8756   -9.0516 C   0  0  2  0  0  0  0  0  0  0  0  0
  -11.0767    1.4847   -8.6319 C   0  0  0  0  0  0  0  0  0  0  0  0
  -11.5044    0.1436   -9.2215 C   0  0  1  0  0  0  0  0  0  0  0  0
  -10.4985   -0.9146   -8.7896 C   0  0  2  0  0  0  0  0  0  0  0  0
   -9.1256   -0.5842   -9.3805 C   0  0  1  0  0  0  0  0  0  0  0  0
   -8.6150    0.7626   -8.8388 C   0  0  1  0  0  0  0  0  0  0  0  0
   -9.2051    3.1068   -8.3178 N   0  3  0  0  0  0  0  0  0  0  0  0
  -12.8950   -0.2149   -8.7905 N   0  3  0  0  0  0  0  0  0  0  0  0
   -8.2110   -1.6239   -9.0572 O   0  0  0  0  0  0  0  0  0  0  0  0
  -10.9208   -2.2195   -9.2260 O   0  0  0  0  0  0  0  0  0  0  0  0
   -7.4081    1.1415   -9.5329 O   0  0  0  0  0  0  0  0  0  0  0  0
  -10.7545   -3.2135   -8.2529 C   0  0  2  0  0  0  0  0  0  0  0  0
  -12.1030   -3.8727   -7.9445 C   0  0  1  0  0  0  0  0  0  0  0  0
  -12.9856   -2.9496   -7.1040 C   0  0  0  0  0  0  0  0  0  0  0  0
  -12.2078   -2.5068   -5.8753 C   0  0  1  0  0  0  0  0  0  0  0  0
  -10.9363   -1.8028   -6.3160 C   0  0  1  0  0  0  0  0  0  0  0  0
  -10.1162   -1.3302   -5.1293 C   0  0  0  0  0  0  0  0  0  0  0  0
  -12.8055   -4.1950   -9.2276 N   0  3  0  0  0  0  0  0  0  0  0  0
   -8.9464   -0.5442   -5.6554 N   0  3  0  0  0  0  0  0  0  0  0  0
  -12.9961   -1.6324   -5.0802 O   0  0  0  0  0  0  0  0  0  0  0  0
  -10.1267   -2.7158   -7.0761 O   0  0  0  0  0  0  0  0  0  0  0  0
  1  2  1  0  0  0  0
  1 22  1  6  0  0  0
  1 10  1  0  0  0  0
  2  3  1  0  0  0  0
  2  7  1  6  0  0  0
  3  4  1  0  0  0  0
  3  8  1  1  0  0  0
  4  5  1  0  0  0  0
  4  9  1  6  0  0  0
  5  6  1  1  0  0  0
  5 10  1  0  0  0  0
  6 11  1  0  0  0  0
 12 13  1  0  0  0  0
 12 17  1  0  0  0  0
 12 18  1  1  0  0  0
 13 14  1  0  0  0  0
 14 15  1  0  0  0  0
 14 19  1  1  0  0  0
 15 16  1  0  0  0  0
 15 21  1  6  0  0  0
 16 17  1  0  0  0  0
 16 20  1  1  0  0  0
 17 22  1  6  0  0  0
 23 21  1  6  0  0  0
 23 24  1  0  0  0  0
 23 32  1  0  0  0  0
 24 25  1  0  0  0  0
 24 29  1  6  0  0  0
 25 26  1  0  0  0  0
 26 27  1  0  0  0  0
 26 31  1  6  0  0  0
 27 28  1  1  0  0  0
 27 32  1  0  0  0  0
 28 30  1  0  0  0  0
M  CHG  5   8   1  18   1  19   1  29   1  30   1
M  END
>  <CHROM.1>
170.53085589,-39.81991775,34.39202365,170.49824789,-67.22283377,105.05532635
27.30277920,-48.53015595,-137.07491379,66.60291443,115.75499462,121.57792684
-158.17483446,66.49685684,-175.10264507,65.51380336,-8.77597465,-0.79468050
-8.42497947,0.39314060,0.27863312,-0.20959719

>  <Name>
2tob cryst

>  <RI>
0

>  <Rbt.Current_Directory>
/home/itssahil/PROJECTS/Mol_Feturizer/New_Systems/rnas/2tob

>  <Rbt.Executable>
rbdock ($Id: //depot/dev/client3/rdock/2013.1/src/exe/rbdock.cxx#4 $)

>  <Rbt.Library>
libRbt.so (2013.1, Build901 2013/11/27)

>  <Rbt.Parameter_File>
/export/apps/rDock/src/rDock_2013.1_src/data/scripts/dock_solv.prm

>  <Rbt.Receptor>
prm/blind_docking_80.prm

>  <SCORE>
-22.6837

>  <SCORE.INTER>
-22.9447

>  <SCORE.INTER.CONST>
1

>  <SCORE.INTER.POLAR>
-5.86804

>  <SCORE.INTER.ROT>
6

>  <SCORE.INTER.SOLV>
45.8658

>  <SCORE.INTER.VDW>
-18.6249

>  <SCORE.INTER.norm>
-0.717021

>  <SCORE.INTRA>
-1.28021

>  <SCORE.INTRA.DIHEDRAL>
16.0974

>  <SCORE.INTRA.DIHEDRAL.0>
18.4221

>  <SCORE.INTRA.POLAR>
1.18943

>  <SCORE.INTRA.POLAR.0>
-1.57101

>  <SCORE.INTRA.REPUL>
-0.730046

>  <SCORE.INTRA.REPUL.0>
0.730195

>  <SCORE.INTRA.SOLV>
1.38803

>  <SCORE.INTRA.SOLV.lig_0>
-127.221

>  <SCORE.INTRA.VDW>
-10.4167

>  <SCORE.INTRA.VDW.0>
10.8385

>  <SCORE.INTRA.norm>
-0.0400064

>  <SCORE.RESTR>
1.54117

>  <SCORE.RESTR.CAVITY>
1.54117

>  <SCORE.RESTR.norm>
0.0481614

>  <SCORE.SYSTEM>
0

>  <SCORE.SYSTEM.CONST>
0

>  <SCORE.SYSTEM.DIHEDRAL>
0

>  <SCORE.SYSTEM.SOLV>
0

>  <SCORE.SYSTEM.norm>
0

>  <SCORE.heavy>
32

>  <SCORE.norm>
-0.708866

>  <RMSD>
3.793

$$$$
2tob cryst
 OpenBabel11021811463D
libRbt.so/2013.1/901 2013/11/27
 32 34  0  0  0  0  0  0  0  0999 V2000
   -8.3218   -0.5291   -7.8657 C   0  0  2  0  0  0  0  0  0  0  0  0
   -8.6294    0.9639   -7.9229 C   0  0  1  0  0  0  0  0  0  0  0  0
   -8.1686    1.5137   -9.2731 C   0  0  2  0  0  0  0  0  0  0  0  0
   -6.6872    1.1955   -9.5158 C   0  0  1  0  0  0  0  0  0  0  0  0
   -6.4335   -0.3026   -9.3150 C   0  0  1  0  0  0  0  0  0  0  0  0
   -4.9699   -0.7056   -9.3889 C   0  0  0  0  0  0  0  0  0  0  0  0
  -10.0293    1.1794   -7.7655 O   0  0  0  0  0  0  0  0  0  0  0  0
   -8.3645    2.9761   -9.5279 N   0  3  0  0  0  0  0  0  0  0  0  0
   -6.3455    1.5705  -10.8443 O   0  0  0  0  0  0  0  0  0  0  0  0
   -6.9281   -0.7158   -8.0255 O   0  0  0  0  0  0  0  0  0  0  0  0
   -4.8389   -2.1173   -9.5215 O   0  0  0  0  0  0  0  0  0  0  0  0
   -8.8259   -3.1192   -7.4756 C   0  0  2  0  0  0  0  0  0  0  0  0
   -9.5186   -4.3274   -6.8311 C   0  0  0  0  0  0  0  0  0  0  0  0
  -10.9466   -4.0096   -6.3962 C   0  0  1  0  0  0  0  0  0  0  0  0
  -11.7222   -3.5205   -7.6115 C   0  0  2  0  0  0  0  0  0  0  0  0
  -11.1074   -2.2128   -8.1163 C   0  0  1  0  0  0  0  0  0  0  0  0
   -9.6567   -2.4408   -8.5763 C   0  0  1  0  0  0  0  0  0  0  0  0
   -7.4937   -3.5151   -8.0447 N   0  3  0  0  0  0  0  0  0  0  0  0
  -11.5998   -5.2083   -5.7760 N   0  3  0  0  0  0  0  0  0  0  0  0
  -11.8909   -1.7073   -9.1899 O   0  0  0  0  0  0  0  0  0  0  0  0
  -13.1071   -3.3162   -7.2771 O   0  0  0  0  0  0  0  0  0  0  0  0
   -9.0377   -1.1743   -8.8840 O   0  0  0  0  0  0  0  0  0  0  0  0
  -13.9795   -3.5504   -8.3479 C   0  0  2  0  0  0  0  0  0  0  0  0
  -15.1683   -2.5865   -8.2729 C   0  0  1  0  0  0  0  0  0  0  0  0
  -16.1375   -2.9958   -7.1635 C   0  0  0  0  0  0  0  0  0  0  0  0
  -16.5228   -4.4535   -7.3574 C   0  0  1  0  0  0  0  0  0  0  0  0
  -15.2678   -5.3087   -7.3362 C   0  0  1  0  0  0  0  0  0  0  0  0
  -15.5887   -6.7809   -7.5199 C   0  0  0  0  0  0  0  0  0  0  0  0
  -14.6696   -1.1994   -8.0067 N   0  3  0  0  0  0  0  0  0  0  0  0
  -15.6452   -7.4183   -6.1585 N   0  3  0  0  0  0  0  0  0  0  0  0
  -17.4115   -4.8703   -6.3305 O   0  0  0  0  0  0  0  0  0  0  0  0
  -14.4019   -4.9084   -8.4117 O   0  0  0  0  0  0  0  0  0  0  0  0
  1  2  1  0  0  0  0
  1 22  1  6  0  0  0
  1 10  1  0  0  0  0
  2  3  1  0  0  0  0
  2  7  1  6  0  0  0
  3  4  1  0  0  0  0
  3  8  1  1  0  0  0
  4  5  1  0  0  0  0
  4  9  1  6  0  0  0
  5  6  1  1  0  0  0
  5 10  1  0  0  0  0
  6 11  1  0  0  0  0
 12 13  1  0  0  0  0
 12 17  1  0  0  0  0
 12 18  1  6  0  0  0
 13 14  1  0  0  0  0
 14 15  1  0  0  0  0
 14 19  1  6  0  0  0
 15 16  1  0  0  0  0
 15 21  1  1  0  0  0
 16 17  1  0  0  0  0
 16 20  1  6  0  0  0
 17 22  1  1  0  0  0
 23 21  1  1  0  0  0
 23 24  1  0  0  0  0
 23 32  1  0  0  0  0
 24 25  1  0  0  0  0
 24 29  1  1  0  0  0
 25 26  1  0  0  0  0
 26 27  1  0  0  0  0
 26 31  1  1  0  0  0
 27 28  1  6  0  0  0
 27 32  1  0  0  0  0
 28 30  1  0  0  0  0
M  CHG  5   8   1  18   1  19   1  29   1  30   1
M  END
>  <CHROM.1>
-138.88588469,66.77439204,144.06131559,167.73266425,-165.78301116,-152.44908140
-86.82300929,54.11156816,-148.71476167,-178.97878643,-28.69392063,-145.59528754
-67.80436365,176.61520139,-96.87537179,-179.53246730,-10.91105927,-2.29549419
-8.06415292,-0.57286264,-0.06282918,2.85503384

>  <Name>
2tob cryst

>  <RI>
0

>  <Rbt.Current_Directory>
/home/itssahil/PROJECTS/Mol_Feturizer/New_Systems/rnas/2tob

>  <Rbt.Executable>
rbdock ($Id: //depot/dev/client3/rdock/2013.1/src/exe/rbdock.cxx#4 $)

>  <Rbt.Library>
libRbt.so (2013.1, Build901 2013/11/27)

>  <Rbt.Parameter_File>
/export/apps/rDock/src/rDock_2013.1_src/data/scripts/dock_solv.prm

>  <Rbt.Receptor>
prm/pocket_docking_5.prm

>  <SCORE>
-56.1437

>  <SCORE.INTER>
-46.5577

>  <SCORE.INTER.CONST>
1

>  <SCORE.INTER.POLAR>
-6.78246

>  <SCORE.INTER.ROT>
6

>  <SCORE.INTER.SOLV>
33.5055

>  <SCORE.INTER.VDW>
-27.1988

>  <SCORE.INTER.norm>
-1.45493

>  <SCORE.INTRA>
-9.58601

>  <SCORE.INTRA.DIHEDRAL>
11.7724

>  <SCORE.INTRA.DIHEDRAL.0>
18.4221

>  <SCORE.INTRA.POLAR>
0.88252

>  <SCORE.INTRA.POLAR.0>
-1.57101

>  <SCORE.INTRA.REPUL>
-0.730195

>  <SCORE.INTRA.REPUL.0>
0.730195

>  <SCORE.INTRA.SOLV>
-3.34226

>  <SCORE.INTRA.SOLV.lig_0>
-127.221

>  <SCORE.INTRA.VDW>
-13.1507

>  <SCORE.INTRA.VDW.0>
10.8385

>  <SCORE.INTRA.norm>
-0.299563

>  <SCORE.RESTR>
0

>  <SCORE.RESTR.CAVITY>
0

>  <SCORE.RESTR.norm>
0

>  <SCORE.SYSTEM>
0

>  <SCORE.SYSTEM.CONST>
0

>  <SCORE.SYSTEM.DIHEDRAL>
0

>  <SCORE.SYSTEM.SOLV>
0

>  <SCORE.SYSTEM.norm>
0

>  <SCORE.heavy>
32

>  <SCORE.norm>
-1.75449

>  <RMSD>
3.794

$$$$
2tob cryst
 OpenBabel11021811463D
libRbt.so/2013.1/901 2013/11/27
 32 34  0  0  0  0  0  0  0  0999 V2000
   -6.7463    0.6014   -8.4481 C   0  0  2  0  0  0  0  0  0  0  0  0
   -6.4333    2.0639   -8.7482 C   0  0  1  0  0  0  0  0  0  0  0  0
   -5.9595    2.1823  -10.1971 C   0  0  2  0  0  0  0  0  0  0  0  0
   -4.7724    1.2469  -10.4619 C   0  0  1  0  0  0  0  0  0  0  0  0
   -5.1188   -0.1781  -10.0167 C   0  0  1  0  0  0  0  0  0  0  0  0
   -3.9611   -1.1594  -10.0998 C   0  0  0  0  0  0  0  0  0  0  0  0
   -7.5982    2.8615   -8.5538 O   0  0  0  0  0  0  0  0  0  0  0  0
   -5.5816    3.5439  -10.6923 N   0  3  0  0  0  0  0  0  0  0  0  0
   -4.4742    1.2606  -11.8523 O   0  0  0  0  0  0  0  0  0  0  0  0
   -5.5759   -0.1679   -8.6495 O   0  0  0  0  0  0  0  0  0  0  0  0
   -4.3893   -2.4774   -9.7724 O   0  0  0  0  0  0  0  0  0  0  0  0
   -8.0155   -1.4585   -7.5447 C   0  0  2  0  0  0  0  0  0  0  0  0
   -8.9281   -2.4696   -6.8376 C   0  0  0  0  0  0  0  0  0  0  0  0
  -10.3719   -1.9822   -6.7518 C   0  0  1  0  0  0  0  0  0  0  0  0
  -10.8671   -1.6938   -8.1623 C   0  0  2  0  0  0  0  0  0  0  0  0
  -10.0456   -0.5529   -8.7678 C   0  0  1  0  0  0  0  0  0  0  0  0
   -8.5663   -0.9588   -8.8897 C   0  0  1  0  0  0  0  0  0  0  0  0
   -6.6496   -2.0427   -7.7642 N   0  3  0  0  0  0  0  0  0  0  0  0
  -11.2405   -2.9912   -6.0623 N   0  3  0  0  0  0  0  0  0  0  0  0
  -10.5721   -0.2200  -10.0461 O   0  0  0  0  0  0  0  0  0  0  0  0
  -12.2621   -1.3399   -8.1444 O   0  0  0  0  0  0  0  0  0  0  0  0
   -7.7798    0.1803   -9.2968 O   0  0  0  0  0  0  0  0  0  0  0  0
  -12.9792   -1.8449   -9.2368 C   0  0  2  0  0  0  0  0  0  0  0  0
  -14.4809   -1.6314   -9.0188 C   0  0  1  0  0  0  0  0  0  0  0  0
  -15.0293   -2.6106   -7.9806 C   0  0  0  0  0  0  0  0  0  0  0  0
  -14.6489   -4.0253   -8.3865 C   0  0  1  0  0  0  0  0  0  0  0  0
  -13.1371   -4.1247   -8.4935 C   0  0  1  0  0  0  0  0  0  0  0  0
  -12.6932   -5.5206   -8.8916 C   0  0  0  0  0  0  0  0  0  0  0  0
  -14.7226   -0.2289   -8.5518 N   0  3  0  0  0  0  0  0  0  0  0  0
  -11.2059   -5.6123   -8.6856 N   0  3  0  0  0  0  0  0  0  0  0  0
  -15.1304   -4.9597   -7.4310 O   0  0  0  0  0  0  0  0  0  0  0  0
  -12.6708   -3.2096   -9.4995 O   0  0  0  0  0  0  0  0  0  0  0  0
  1  2  1  0  0  0  0
  1 22  1  6  0  0  0
  1 10  1  0  0  0  0
  2  3  1  0  0  0  0
  2  7  1  6  0  0  0
  3  4  1  0  0  0  0
  3  8  1  1  0  0  0
  4  5  1  0  0  0  0
  4  9  1  6  0  0  0
  5  6  1  1  0  0  0
  5 10  1  0  0  0  0
  6 11  1  0  0  0  0
 12 13  1  0  0  0  0
 12 17  1  0  0  0  0
 12 18  1  6  0  0  0
 13 14  1  0  0  0  0
 14 15  1  0  0  0  0
 14 19  1  6  0  0  0
 15 16  1  0  0  0  0
 15 21  1  1  0  0  0
 16 17  1  0  0  0  0
 16 20  1  6  0  0  0
 17 22  1  1  0  0  0
 23 21  1  1  0  0  0
 23 24  1  0  0  0  0
 23 32  1  0  0  0  0
 24 25  1  0  0  0  0
 24 29  1  1  0  0  0
 25 26  1  0  0  0  0
 26 27  1  0  0  0  0
 26 31  1  1  0  0  0
 27 28  1  6  0  0  0
 27 32  1  0  0  0  0
 28 30  1  0  0  0  0
M  CHG  5   8   1  18   1  19   1  29   1  30   1
M  END
>  <CHROM.1>
-157.67495243,58.22782844,163.60940135,-170.27096034,-175.37631626,-94.28769694
100.94852094,-63.68644338,-142.45032645,75.06815744,-0.71992051,170.32720285
-149.55304009,58.52878808,-167.95035555,69.04273983,-9.43984956,-1.23380911
-8.81571447,0.49592603,0.08652146,-0.21319960

>  <Name>
2tob cryst

>  <RI>
0

>  <Rbt.Current_Directory>
/home/itssahil/PROJECTS/Mol_Feturizer/New_Systems/rnas/2tob

>  <Rbt.Executable>
rbdock ($Id: //depot/dev/client3/rdock/2013.1/src/exe/rbdock.cxx#4 $)

>  <Rbt.Library>
libRbt.so (2013.1, Build901 2013/11/27)

>  <Rbt.Parameter_File>
/export/apps/rDock/src/rDock_2013.1_src/data/scripts/dock_solv.prm

>  <Rbt.Receptor>
prm/blind_docking_40.prm

>  <SCORE>
-25.7099

>  <SCORE.INTER>
-30.2177

>  <SCORE.INTER.CONST>
1

>  <SCORE.INTER.POLAR>
-6.1879

>  <SCORE.INTER.ROT>
6

>  <SCORE.INTER.SOLV>
41.9805

>  <SCORE.INTER.VDW>
-21.1123

>  <SCORE.INTER.norm>
-0.944303

>  <SCORE.INTRA>
-5.02224

>  <SCORE.INTRA.DIHEDRAL>
8.51234

>  <SCORE.INTRA.DIHEDRAL.0>
18.4221

>  <SCORE.INTRA.POLAR>
0.679592

>  <SCORE.INTRA.POLAR.0>
-1.57101

>  <SCORE.INTRA.REPUL>
-0.719654

>  <SCORE.INTRA.REPUL.0>
0.730195

>  <SCORE.INTRA.SOLV>
0.203228

>  <SCORE.INTRA.SOLV.lig_0>
-127.221

>  <SCORE.INTRA.VDW>
-8.09236

>  <SCORE.INTRA.VDW.0>
10.8385

>  <SCORE.INTRA.norm>
-0.156945

>  <SCORE.RESTR>
9.53006

>  <SCORE.RESTR.CAVITY>
9.53006

>  <SCORE.RESTR.norm>
0.297814

>  <SCORE.SYSTEM>
0

>  <SCORE.SYSTEM.CONST>
0

>  <SCORE.SYSTEM.DIHEDRAL>
0

>  <SCORE.SYSTEM.SOLV>
0

>  <SCORE.SYSTEM.norm>
0

>  <SCORE.heavy>
32

>  <SCORE.norm>
-0.803433

>  <RMSD>
3.801

$$$$
2tob cryst
 OpenBabel11021811463D
libRbt.so/2013.1/901 2013/11/27
 32 34  0  0  0  0  0  0  0  0999 V2000
   -8.4558    0.0539   -6.4260 C   0  0  2  0  0  0  0  0  0  0  0  0
   -8.5076    1.3657   -7.2029 C   0  0  1  0  0  0  0  0  0  0  0  0
   -8.7698    1.0585   -8.6775 C   0  0  2  0  0  0  0  0  0  0  0  0
   -7.7258    0.0763   -9.2251 C   0  0  1  0  0  0  0  0  0  0  0  0
   -7.6418   -1.1576   -8.3199 C   0  0  1  0  0  0  0  0  0  0  0  0
   -6.5344   -2.1311   -8.6888 C   0  0  0  0  0  0  0  0  0  0  0  0
   -9.5465    2.1953   -6.6898 O   0  0  0  0  0  0  0  0  0  0  0  0
   -8.8408    2.2169   -9.6235 N   0  3  0  0  0  0  0  0  0  0  0  0
   -8.1021   -0.3128  -10.5401 O   0  0  0  0  0  0  0  0  0  0  0  0
   -7.4189   -0.7508   -6.9549 O   0  0  0  0  0  0  0  0  0  0  0  0
   -5.5042   -2.1230   -7.7058 O   0  0  0  0  0  0  0  0  0  0  0  0
   -9.1540   -2.6803   -5.4805 C   0  0  2  0  0  0  0  0  0  0  0  0
   -9.3793   -4.1975   -5.4294 C   0  0  0  0  0  0  0  0  0  0  0  0
  -10.8283   -4.5759   -5.7236 C   0  0  1  0  0  0  0  0  0  0  0  0
  -11.2048   -4.0143   -7.0878 C   0  0  2  0  0  0  0  0  0  0  0  0
  -11.1422   -2.4854   -7.0447 C   0  0  1  0  0  0  0  0  0  0  0  0
   -9.7081   -2.0123   -6.7488 C   0  0  1  0  0  0  0  0  0  0  0  0
   -7.6921   -2.3586   -5.3592 N   0  3  0  0  0  0  0  0  0  0  0  0
  -11.0174   -6.0624   -5.6725 N   0  3  0  0  0  0  0  0  0  0  0  0
  -11.5874   -1.9604   -8.2889 O   0  0  0  0  0  0  0  0  0  0  0  0
  -12.5271   -4.4422   -7.4617 O   0  0  0  0  0  0  0  0  0  0  0  0
   -9.6988   -0.5846   -6.5399 O   0  0  0  0  0  0  0  0  0  0  0  0
  -12.9578   -3.9156   -8.6864 C   0  0  2  0  0  0  0  0  0  0  0  0
  -14.4829   -3.7673   -8.6831 C   0  0  1  0  0  0  0  0  0  0  0  0
  -15.1669   -5.1271   -8.8260 C   0  0  0  0  0  0  0  0  0  0  0  0
  -14.6078   -5.8350  -10.0496 C   0  0  1  0  0  0  0  0  0  0  0  0
  -13.1047   -5.9875   -9.8949 C   0  0  1  0  0  0  0  0  0  0  0  0
  -12.4867   -6.6951  -11.0872 C   0  0  0  0  0  0  0  0  0  0  0  0
  -14.9189   -3.1268   -7.4012 N   0  3  0  0  0  0  0  0  0  0  0  0
  -12.9908   -8.1124  -11.0999 N   0  3  0  0  0  0  0  0  0  0  0  0
  -15.2122   -7.1117  -10.2009 O   0  0  0  0  0  0  0  0  0  0  0  0
  -12.5029   -4.6858   -9.7939 O   0  0  0  0  0  0  0  0  0  0  0  0
  1  2  1  0  0  0  0
  1 22  1  6  0  0  0
  1 10  1  0  0  0  0
  2  3  1  0  0  0  0
  2  7  1  1  0  0  0
  3  4  1  0  0  0  0
  3  8  1  6  0  0  0
  4  5  1  0  0  0  0
  4  9  1  6  0  0  0
  5  6  1  6  0  0  0
  5 10  1  0  0  0  0
  6 11  1  0  0  0  0
 12 13  1  0  0  0  0
 12 17  1  0  0  0  0
 12 18  1  6  0  0  0
 13 14  1  0  0  0  0
 14 15  1  0  0  0  0
 14 19  1  6  0  0  0
 15 16  1  0  0  0  0
 15 21  1  1  0  0  0
 16 17  1  0  0  0  0
 16 20  1  6  0  0  0
 17 22  1  1  0  0  0
 23 21  1  1  0  0  0
 23 24  1  0  0  0  0
 23 32  1  0  0  0  0
 24 25  1  0  0  0  0
 24 29  1  1  0  0  0
 25 26  1  0  0  0  0
 26 27  1  0  0  0  0
 26 31  1  1  0  0  0
 27 28  1  6  0  0  0
 27 32  1  0  0  0  0
 28 30  1  0  0  0  0
M  CHG  5   8   1  18   1  19   1  29   1  30   1
M  END
>  <CHROM.1>
138.50128493,174.26043273,175.36126633,-53.63840620,110.35027133,83.74847838
116.80836933,71.48645963,177.59444030,-60.13038233,66.66060702,-150.34420896
-165.60694809,63.10975115,-66.49849118,48.05023911,-10.60491213,-2.79182343
-8.03561725,-0.50891397,0.66560724,2.58991824

>  <Name>
2tob cryst

>  <RI>
0

>  <Rbt.Current_Directory>
/home/itssahil/PROJECTS/Mol_Feturizer/New_Systems/rnas/2tob

>  <Rbt.Executable>
rbdock ($Id: //depot/dev/client3/rdock/2013.1/src/exe/rbdock.cxx#4 $)

>  <Rbt.Library>
libRbt.so (2013.1, Build901 2013/11/27)

>  <Rbt.Parameter_File>
/export/apps/rDock/src/rDock_2013.1_src/data/scripts/dock_solv.prm

>  <Rbt.Receptor>
prm/blind_docking_80.prm

>  <SCORE>
-11.8169

>  <SCORE.INTER>
-19.1816

>  <SCORE.INTER.CONST>
1

>  <SCORE.INTER.POLAR>
-4.89057

>  <SCORE.INTER.ROT>
6

>  <SCORE.INTER.SOLV>
27.0478

>  <SCORE.INTER.VDW>
-13.1018

>  <SCORE.INTER.norm>
-0.599426

>  <SCORE.INTRA>
-2.41529

>  <SCORE.INTRA.DIHEDRAL>
3.74566

>  <SCORE.INTRA.DIHEDRAL.0>
18.4221

>  <SCORE.INTRA.POLAR>
0.324319

>  <SCORE.INTRA.POLAR.0>
-1.57101

>  <SCORE.INTRA.REPUL>
-0.730195

>  <SCORE.INTRA.REPUL.0>
0.730195

>  <SCORE.INTRA.SOLV>
-0.879469

>  <SCORE.INTRA.SOLV.lig_0>
-127.221

>  <SCORE.INTRA.VDW>
-1.30009

>  <SCORE.INTRA.VDW.0>
10.8385

>  <SCORE.INTRA.norm>
-0.0754779

>  <SCORE.RESTR>
9.78007

>  <SCORE.RESTR.CAVITY>
9.78007

>  <SCORE.RESTR.norm>
0.305627

>  <SCORE.SYSTEM>
0

>  <SCORE.SYSTEM.CONST>
0

>  <SCORE.SYSTEM.DIHEDRAL>
0

>  <SCORE.SYSTEM.SOLV>
0

>  <SCORE.SYSTEM.norm>
0

>  <SCORE.heavy>
32

>  <SCORE.norm>
-0.369277

>  <RMSD>
3.803

$$$$
2tob cryst
 OpenBabel11021811463D
libRbt.so/2013.1/901 2013/11/27
 32 34  0  0  0  0  0  0  0  0999 V2000
   -9.9260   -0.5078   -7.4923 C   0  0  2  0  0  0  0  0  0  0  0  0
   -8.4529   -0.6086   -7.8754 C   0  0  1  0  0  0  0  0  0  0  0  0
   -7.8745   -1.8959   -7.2870 C   0  0  2  0  0  0  0  0  0  0  0  0
   -8.1070   -1.9566   -5.7715 C   0  0  1  0  0  0  0  0  0  0  0  0
   -9.5886   -1.7197   -5.4589 C   0  0  1  0  0  0  0  0  0  0  0  0
   -9.9071   -1.6145   -3.9765 C   0  0  0  0  0  0  0  0  0  0  0  0
   -8.3180   -0.6223   -9.2940 O   0  0  0  0  0  0  0  0  0  0  0  0
   -6.4252   -2.1792   -7.5338 N   0  3  0  0  0  0  0  0  0  0  0  0
   -7.7100   -3.2358   -5.2938 O   0  0  0  0  0  0  0  0  0  0  0  0
  -10.0323   -0.4974   -6.0812 O   0  0  0  0  0  0  0  0  0  0  0  0
   -9.7597   -2.8776   -3.3355 O   0  0  0  0  0  0  0  0  0  0  0  0
  -12.8958   -1.2415   -8.7128 C   0  0  2  0  0  0  0  0  0  0  0  0
  -14.3646   -1.6620   -8.5683 C   0  0  0  0  0  0  0  0  0  0  0  0
  -14.5186   -3.1705   -8.3950 C   0  0  1  0  0  0  0  0  0  0  0  0
  -13.7062   -3.6008   -7.1813 C   0  0  2  0  0  0  0  0  0  0  0  0
  -12.2219   -3.3298   -7.4393 C   0  0  1  0  0  0  0  0  0  0  0  0
  -11.9735   -1.8232   -7.6298 C   0  0  1  0  0  0  0  0  0  0  0  0
  -12.7714    0.2551   -8.7066 N   0  3  0  0  0  0  0  0  0  0  0  0
  -15.9616   -3.5512   -8.2507 N   0  3  0  0  0  0  0  0  0  0  0  0
  -11.4564   -3.8210   -6.3463 O   0  0  0  0  0  0  0  0  0  0  0  0
  -13.9108   -4.9989   -6.9076 O   0  0  0  0  0  0  0  0  0  0  0  0
  -10.6087   -1.6021   -8.0421 O   0  0  0  0  0  0  0  0  0  0  0  0
  -13.4992   -5.8373   -7.9517 C   0  0  2  0  0  0  0  0  0  0  0  0
  -14.2824   -7.1535   -7.9037 C   0  0  1  0  0  0  0  0  0  0  0  0
  -13.7921   -8.0424   -6.7605 C   0  0  0  0  0  0  0  0  0  0  0  0
  -12.2860   -8.2123   -6.8781 C   0  0  1  0  0  0  0  0  0  0  0  0
  -11.6246   -6.8457   -6.8363 C   0  0  1  0  0  0  0  0  0  0  0  0
  -10.1141   -6.9497   -6.9441 C   0  0  0  0  0  0  0  0  0  0  0  0
  -15.7388   -6.8604   -7.7123 N   0  3  0  0  0  0  0  0  0  0  0  0
   -9.5782   -7.3534   -5.5977 N   0  3  0  0  0  0  0  0  0  0  0  0
  -11.7960   -9.0213   -5.8182 O   0  0  0  0  0  0  0  0  0  0  0  0
  -12.0927   -6.0573   -7.9436 O   0  0  0  0  0  0  0  0  0  0  0  0
  1  2  1  0  0  0  0
  1 22  1  1  0  0  0
  1 10  1  0  0  0  0
  2  3  1  0  0  0  0
  2  7  1  6  0  0  0
  3  4  1  0  0  0  0
  3  8  1  1  0  0  0
  4  5  1  0  0  0  0
  4  9  1  6  0  0  0
  5  6  1  1  0  0  0
  5 10  1  0  0  0  0
  6 11  1  0  0  0  0
 12 13  1  0  0  0  0
 12 17  1  0  0  0  0
 12 18  1  1  0  0  0
 13 14  1  0  0  0  0
 14 15  1  0  0  0  0
 14 19  1  1  0  0  0
 15 16  1  0  0  0  0
 15 21  1  6  0  0  0
 16 17  1  0  0  0  0
 16 20  1  1  0  0  0
 17 22  1  6  0  0  0
 23 21  1  1  0  0  0
 23 24  1  0  0  0  0
 23 32  1  0  0  0  0
 24 25  1  0  0  0  0
 24 29  1  1  0  0  0
 25 26  1  0  0  0  0
 26 27  1  0  0  0  0
 26 31  1  1  0  0  0
 27 28  1  6  0  0  0
 27 32  1  0  0  0  0
 28 30  1  0  0  0  0
M  CHG  5   8   1  18   1  19   1  29   1  30   1
M  END
>  <CHROM.1>
170.34133446,173.64337311,-51.65223157,-173.10588762,-69.94095267,-176.98734003
121.10498778,-165.49752983,61.68778568,42.93548909,98.81817753,-154.33237563
-50.80403240,66.49689341,-78.50348952,69.38352379,-11.38966835,-3.72425177
-7.03190047,0.80551486,-0.35579060,-0.26209674

>  <Name>
2tob cryst

>  <RI>
0

>  <Rbt.Current_Directory>
/home/itssahil/PROJECTS/Mol_Feturizer/New_Systems/rnas/2tob

>  <Rbt.Executable>
rbdock ($Id: //depot/dev/client3/rdock/2013.1/src/exe/rbdock.cxx#4 $)

>  <Rbt.Library>
libRbt.so (2013.1, Build901 2013/11/27)

>  <Rbt.Parameter_File>
/export/apps/rDock/src/rDock_2013.1_src/data/scripts/dock_solv.prm

>  <Rbt.Receptor>
prm/pocket_docking_5.prm

>  <SCORE>
-48.2822

>  <SCORE.INTER>
-31.4893

>  <SCORE.INTER.CONST>
1

>  <SCORE.INTER.POLAR>
-4.79038

>  <SCORE.INTER.ROT>
6

>  <SCORE.INTER.SOLV>
28.6175

>  <SCORE.INTER.VDW>
-22.1641

>  <SCORE.INTER.norm>
-0.984039

>  <SCORE.INTRA>
-16.7929

>  <SCORE.INTRA.DIHEDRAL>
-1.73279

>  <SCORE.INTRA.DIHEDRAL.0>
18.4221

>  <SCORE.INTRA.POLAR>
0.368082

>  <SCORE.INTRA.POLAR.0>
-1.57101

>  <SCORE.INTRA.REPUL>
-0.730195

>  <SCORE.INTRA.REPUL.0>
0.730195

>  <SCORE.INTRA.SOLV>
-2.07621

>  <SCORE.INTRA.SOLV.lig_0>
-127.221

>  <SCORE.INTRA.VDW>
-12.4889

>  <SCORE.INTRA.VDW.0>
10.8385

>  <SCORE.INTRA.norm>
-0.524778

>  <SCORE.RESTR>
0

>  <SCORE.RESTR.CAVITY>
0

>  <SCORE.RESTR.norm>
0

>  <SCORE.SYSTEM>
0

>  <SCORE.SYSTEM.CONST>
0

>  <SCORE.SYSTEM.DIHEDRAL>
0

>  <SCORE.SYSTEM.SOLV>
0

>  <SCORE.SYSTEM.norm>
0

>  <SCORE.heavy>
32

>  <SCORE.norm>
-1.50882

>  <RMSD>
3.807

$$$$
2tob cryst
 OpenBabel11021811463D
libRbt.so/2013.1/901 2013/11/27
 32 34  0  0  0  0  0  0  0  0999 V2000
   -8.3223   -0.4999   -7.4968 C   0  0  2  0  0  0  0  0  0  0  0  0
   -8.2587    0.9999   -7.7679 C   0  0  1  0  0  0  0  0  0  0  0  0
   -7.6441    1.2284   -9.1491 C   0  0  2  0  0  0  0  0  0  0  0  0
   -6.2777    0.5390   -9.2600 C   0  0  1  0  0  0  0  0  0  0  0  0
   -6.3986   -0.9326   -8.8493 C   0  0  1  0  0  0  0  0  0  0  0  0
   -5.0741   -1.6753   -8.7830 C   0  0  0  0  0  0  0  0  0  0  0  0
   -9.5686    1.5593   -7.7231 O   0  0  0  0  0  0  0  0  0  0  0  0
   -7.4744    2.6444   -9.6051 N   0  3  0  0  0  0  0  0  0  0  0  0
   -5.8214    0.6307  -10.6037 O   0  0  0  0  0  0  0  0  0  0  0  0
   -7.0114   -1.0304   -7.5481 O   0  0  0  0  0  0  0  0  0  0  0  0
   -4.4808   -1.7698  -10.0741 O   0  0  0  0  0  0  0  0  0  0  0  0
   -8.8419   -3.3149   -7.5703 C   0  0  2  0  0  0  0  0  0  0  0  0
   -9.4761   -4.5188   -6.8608 C   0  0  0  0  0  0  0  0  0  0  0  0
  -10.4949   -4.0960   -5.8061 C   0  0  1  0  0  0  0  0  0  0  0  0
  -11.5573   -3.2383   -6.4797 C   0  0  2  0  0  0  0  0  0  0  0  0
  -10.9132   -1.9580   -7.0173 C   0  0  1  0  0  0  0  0  0  0  0  0
   -9.8636   -2.2920   -8.0919 C   0  0  1  0  0  0  0  0  0  0  0  0
   -7.9798   -3.7687   -8.7131 N   0  3  0  0  0  0  0  0  0  0  0  0
  -11.1016   -5.2913   -5.1341 N   0  3  0  0  0  0  0  0  0  0  0  0
  -11.9219   -1.1148   -7.5592 O   0  0  0  0  0  0  0  0  0  0  0  0
  -12.6043   -2.9089   -5.5487 O   0  0  0  0  0  0  0  0  0  0  0  0
   -9.1464   -1.0959   -8.4618 O   0  0  0  0  0  0  0  0  0  0  0  0
  -13.8144   -2.5699   -6.1680 C   0  0  2  0  0  0  0  0  0  0  0  0
  -14.8944   -2.3319   -5.1074 C   0  0  1  0  0  0  0  0  0  0  0  0
  -15.3703   -3.6530   -4.5026 C   0  0  0  0  0  0  0  0  0  0  0  0
  -15.7888   -4.5879   -5.6258 C   0  0  1  0  0  0  0  0  0  0  0  0
  -14.6121   -4.8023   -6.5617 C   0  0  1  0  0  0  0  0  0  0  0  0
  -14.9671   -5.7353   -7.7053 C   0  0  0  0  0  0  0  0  0  0  0  0
  -14.3430   -1.4609   -4.0207 N   0  3  0  0  0  0  0  0  0  0  0  0
  -16.0353   -5.0729   -8.5317 N   0  3  0  0  0  0  0  0  0  0  0  0
  -16.2213   -5.8333   -5.0966 O   0  0  0  0  0  0  0  0  0  0  0  0
  -14.2190   -3.5405   -7.1276 O   0  0  0  0  0  0  0  0  0  0  0  0
  1  2  1  0  0  0  0
  1 22  1  6  0  0  0
  1 10  1  0  0  0  0
  2  3  1  0  0  0  0
  2  7  1  6  0  0  0
  3  4  1  0  0  0  0
  3  8  1  1  0  0  0
  4  5  1  0  0  0  0
  4  9  1  6  0  0  0
  5  6  1  1  0  0  0
  5 10  1  0  0  0  0
  6 11  1  0  0  0  0
 12 13  1  0  0  0  0
 12 17  1  0  0  0  0
 12 18  1  6  0  0  0
 13 14  1  0  0  0  0
 14 15  1  0  0  0  0
 14 19  1  6  0  0  0
 15 16  1  0  0  0  0
 15 21  1  1  0  0  0
 16 17  1  0  0  0  0
 16 20  1  6  0  0  0
 17 22  1  1  0  0  0
 23 21  1  1  0  0  0
 23 24  1  0  0  0  0
 23 32  1  0  0  0  0
 24 25  1  0  0  0  0
 24 29  1  1  0  0  0
 25 26  1  0  0  0  0
 26 27  1  0  0  0  0
 26 31  1  1  0  0  0
 27 28  1  6  0  0  0
 27 32  1  0  0  0  0
 28 30  1  0  0  0  0
M  CHG  5   8   1  18   1  19   1  29   1  30   1
M  END
>  <CHROM.1>
-150.89840273,170.21057187,77.42831168,64.50404252,-65.07471952,63.52206599
-152.66314839,-54.91344833,-157.72695625,99.29094317,-54.70194346,176.01998508
-45.36158403,-60.41493142,63.93834209,77.38814102,-10.63423729,-2.21356865
-7.35406713,0.45265268,0.35960262,-0.02727134

>  <Name>
2tob cryst

>  <RI>
0

>  <Rbt.Current_Directory>
/home/itssahil/PROJECTS/Mol_Feturizer/New_Systems/rnas/2tob

>  <Rbt.Executable>
rbdock ($Id: //depot/dev/client3/rdock/2013.1/src/exe/rbdock.cxx#4 $)

>  <Rbt.Library>
libRbt.so (2013.1, Build901 2013/11/27)

>  <Rbt.Parameter_File>
/export/apps/rDock/src/rDock_2013.1_src/data/scripts/dock_solv.prm

>  <Rbt.Receptor>
prm/pocket_docking_5.prm

>  <SCORE>
-60.9979

>  <SCORE.INTER>
-45.0617

>  <SCORE.INTER.CONST>
1

>  <SCORE.INTER.POLAR>
-6.95785

>  <SCORE.INTER.ROT>
6

>  <SCORE.INTER.SOLV>
33.1031

>  <SCORE.INTER.VDW>
-25.4827

>  <SCORE.INTER.norm>
-1.40818

>  <SCORE.INTRA>
-16.4794

>  <SCORE.INTRA.DIHEDRAL>
-2.88351

>  <SCORE.INTRA.DIHEDRAL.0>
18.4221

>  <SCORE.INTRA.POLAR>
1.07627

>  <SCORE.INTRA.POLAR.0>
-1.57101

>  <SCORE.INTRA.REPUL>
-0.730195

>  <SCORE.INTRA.REPUL.0>
0.730195

>  <SCORE.INTRA.SOLV>
-4.57497

>  <SCORE.INTRA.SOLV.lig_0>
-127.221

>  <SCORE.INTRA.VDW>
-12.7585

>  <SCORE.INTRA.VDW.0>
10.8385

>  <SCORE.INTRA.norm>
-0.51498

>  <SCORE.RESTR>
0.543215

>  <SCORE.RESTR.CAVITY>
0.543215

>  <SCORE.RESTR.norm>
0.0169755

>  <SCORE.SYSTEM>
0

>  <SCORE.SYSTEM.CONST>
0

>  <SCORE.SYSTEM.DIHEDRAL>
0

>  <SCORE.SYSTEM.SOLV>
0

>  <SCORE.SYSTEM.norm>
0

>  <SCORE.heavy>
32

>  <SCORE.norm>
-1.90618

>  <RMSD>
3.818

$$$$
2tob cryst
 OpenBabel11021811463D
libRbt.so/2013.1/901 2013/11/27
 32 34  0  0  0  0  0  0  0  0999 V2000
   -8.7038   -0.5427   -7.7367 C   0  0  2  0  0  0  0  0  0  0  0  0
   -8.8869    0.9355   -8.0663 C   0  0  1  0  0  0  0  0  0  0  0  0
   -8.2423    1.2247   -9.4222 C   0  0  2  0  0  0  0  0  0  0  0  0
   -6.7726    0.7838   -9.4337 C   0  0  1  0  0  0  0  0  0  0  0  0
   -6.6588   -0.6722   -8.9690 C   0  0  1  0  0  0  0  0  0  0  0  0
   -5.2314   -1.1673   -8.8037 C   0  0  0  0  0  0  0  0  0  0  0  0
  -10.2746    1.2562   -8.1124 O   0  0  0  0  0  0  0  0  0  0  0  0
   -8.2959    2.6332   -9.9273 N   0  3  0  0  0  0  0  0  0  0  0  0
   -6.2620    0.9116  -10.7548 O   0  0  0  0  0  0  0  0  0  0  0  0
   -7.3197   -0.8351   -7.6983 O   0  0  0  0  0  0  0  0  0  0  0  0
   -4.5943   -1.3092  -10.0693 O   0  0  0  0  0  0  0  0  0  0  0  0
   -8.9673   -3.2164   -7.3003 C   0  0  2  0  0  0  0  0  0  0  0  0
   -9.5704   -4.4208   -6.5649 C   0  0  0  0  0  0  0  0  0  0  0  0
  -10.9518   -4.1149   -5.9927 C   0  0  1  0  0  0  0  0  0  0  0  0
  -11.8552   -3.6630   -7.1318 C   0  0  2  0  0  0  0  0  0  0  0  0
  -11.3170   -2.3573   -7.7222 C   0  0  1  0  0  0  0  0  0  0  0  0
   -9.9171   -2.5737   -8.3234 C   0  0  1  0  0  0  0  0  0  0  0  0
   -7.6935   -3.6047   -7.9946 N   0  3  0  0  0  0  0  0  0  0  0  0
  -11.5182   -5.3096   -5.2857 N   0  3  0  0  0  0  0  0  0  0  0  0
  -12.2141   -1.8862   -8.7198 O   0  0  0  0  0  0  0  0  0  0  0  0
  -13.2021   -3.4720   -6.6617 O   0  0  0  0  0  0  0  0  0  0  0  0
   -9.3539   -1.3051   -8.7174 O   0  0  0  0  0  0  0  0  0  0  0  0
  -14.1444   -3.3764   -7.6939 C   0  0  2  0  0  0  0  0  0  0  0  0
  -15.5091   -2.9814   -7.1197 C   0  0  1  0  0  0  0  0  0  0  0  0
  -16.1611   -4.1591   -6.3947 C   0  0  0  0  0  0  0  0  0  0  0  0
  -16.1967   -5.3566   -7.3305 C   0  0  1  0  0  0  0  0  0  0  0  0
  -14.7809   -5.6926   -7.7656 C   0  0  1  0  0  0  0  0  0  0  0  0
  -14.7498   -6.8881   -8.7005 C   0  0  0  0  0  0  0  0  0  0  0  0
  -15.3361   -1.8446   -6.1599 N   0  3  0  0  0  0  0  0  0  0  0  0
  -15.1966   -6.4267  -10.0608 N   0  3  0  0  0  0  0  0  0  0  0  0
  -16.7827   -6.4749   -6.6796 O   0  0  0  0  0  0  0  0  0  0  0  0
  -14.2201   -4.5697   -8.4666 O   0  0  0  0  0  0  0  0  0  0  0  0
  1  2  1  0  0  0  0
  1 22  1  6  0  0  0
  1 10  1  0  0  0  0
  2  3  1  0  0  0  0
  2  7  1  6  0  0  0
  3  4  1  0  0  0  0
  3  8  1  1  0  0  0
  4  5  1  0  0  0  0
  4  9  1  6  0  0  0
  5  6  1  1  0  0  0
  5 10  1  0  0  0  0
  6 11  1  0  0  0  0
 12 13  1  0  0  0  0
 12 17  1  0  0  0  0
 12 18  1  6  0  0  0
 13 14  1  0  0  0  0
 14 15  1  0  0  0  0
 14 19  1  6  0  0  0
 15 16  1  0  0  0  0
 15 21  1  1  0  0  0
 16 17  1  0  0  0  0
 16 20  1  6  0  0  0
 17 22  1  1  0  0  0
 23 21  1  1  0  0  0
 23 24  1  0  0  0  0
 23 32  1  0  0  0  0
 24 25  1  0  0  0  0
 24 29  1  1  0  0  0
 25 26  1  0  0  0  0
 26 27  1  0  0  0  0
 26 31  1  1  0  0  0
 27 28  1  6  0  0  0
 27 32  1  0  0  0  0
 28 30  1  0  0  0  0
M  CHG  5   8   1  18   1  19   1  29   1  30   1
M  END
>  <CHROM.1>
-148.56193788,67.98175066,-54.81076670,72.39997834,-70.20805900,74.08979845
152.99036854,-163.38700303,-165.33262118,-178.34257367,-37.24975193,-172.14745978
25.66607211,179.32763169,76.91382626,-83.23441043,-10.95694237,-2.49774401
-8.02224164,0.57945579,0.10351885,-0.18148233

>  <Name>
2tob cryst

>  <RI>
3.75586e+07

>  <Rbt.Current_Directory>
/home/itssahil/PROJECTS/Mol_Feturizer/New_Systems/rnas/2tob

>  <Rbt.Executable>
rbdock ($Id: //depot/dev/client3/rdock/2013.1/src/exe/rbdock.cxx#4 $)

>  <Rbt.Library>
libRbt.so (2013.1, Build901 2013/11/27)

>  <Rbt.Parameter_File>
/export/apps/rDock/src/rDock_2013.1_src/data/scripts/dock_solv.prm

>  <Rbt.Receptor>
prm/pocket_docking_8.prm

>  <SCORE>
-56.0846

>  <SCORE.INTER>
-41.4406

>  <SCORE.INTER.CONST>
1

>  <SCORE.INTER.POLAR>
-6.64691

>  <SCORE.INTER.ROT>
6

>  <SCORE.INTER.SOLV>
31.8841

>  <SCORE.INTER.VDW>
-23.6988

>  <SCORE.INTER.norm>
-1.29502

>  <SCORE.INTRA>
-14.644

>  <SCORE.INTRA.DIHEDRAL>
-1.87204

>  <SCORE.INTRA.DIHEDRAL.0>
18.4221

>  <SCORE.INTRA.POLAR>
1.13605

>  <SCORE.INTRA.POLAR.0>
-1.57101

>  <SCORE.INTRA.REPUL>
-0.730195

>  <SCORE.INTRA.REPUL.0>
0.730195

>  <SCORE.INTRA.SOLV>
-4.78246

>  <SCORE.INTRA.SOLV.lig_0>
-127.221

>  <SCORE.INTRA.VDW>
-11.5283

>  <SCORE.INTRA.VDW.0>
10.8385

>  <SCORE.INTRA.norm>
-0.457624

>  <SCORE.RESTR>
0

>  <SCORE.RESTR.CAVITY>
0

>  <SCORE.RESTR.norm>
0

>  <SCORE.SYSTEM>
0

>  <SCORE.SYSTEM.CONST>
0

>  <SCORE.SYSTEM.DIHEDRAL>
0

>  <SCORE.SYSTEM.SOLV>
0

>  <SCORE.SYSTEM.norm>
0

>  <SCORE.heavy>
32

>  <SCORE.norm>
-1.75264

>  <RMSD>
3.818

$$$$
2tob cryst
 OpenBabel11021811463D
libRbt.so/2013.1/901 2013/11/27
 32 34  0  0  0  0  0  0  0  0999 V2000
   -8.2013   -0.4805   -7.6692 C   0  0  2  0  0  0  0  0  0  0  0  0
   -8.4997    1.0129   -7.7576 C   0  0  1  0  0  0  0  0  0  0  0  0
   -8.1462    1.5070   -9.1606 C   0  0  2  0  0  0  0  0  0  0  0  0
   -6.6925    1.1627   -9.5110 C   0  0  1  0  0  0  0  0  0  0  0  0
   -6.4362   -0.3298   -9.2751 C   0  0  1  0  0  0  0  0  0  0  0  0
   -4.9870   -0.7523   -9.4527 C   0  0  0  0  0  0  0  0  0  0  0  0
   -9.8801    1.2505   -7.4949 O   0  0  0  0  0  0  0  0  0  0  0  0
   -8.3497    2.9611   -9.4537 N   0  3  0  0  0  0  0  0  0  0  0  0
   -6.4574    1.4844  -10.8761 O   0  0  0  0  0  0  0  0  0  0  0  0
   -6.8272   -0.6892   -7.9349 O   0  0  0  0  0  0  0  0  0  0  0  0
   -4.9035   -2.1033   -9.8952 O   0  0  0  0  0  0  0  0  0  0  0  0
   -8.7328   -3.3120   -7.5604 C   0  0  2  0  0  0  0  0  0  0  0  0
   -9.3841   -4.4536   -6.7681 C   0  0  0  0  0  0  0  0  0  0  0  0
  -10.3912   -3.9424   -5.7416 C   0  0  1  0  0  0  0  0  0  0  0  0
  -11.4418   -3.1148   -6.4691 C   0  0  2  0  0  0  0  0  0  0  0  0
  -10.7787   -1.8854   -7.0951 C   0  0  1  0  0  0  0  0  0  0  0  0
   -9.7394   -2.3100   -8.1475 C   0  0  1  0  0  0  0  0  0  0  0  0
   -7.8833   -3.8576   -8.6721 N   0  3  0  0  0  0  0  0  0  0  0  0
  -11.0150   -5.0784   -4.9876 N   0  3  0  0  0  0  0  0  0  0  0  0
  -11.7754   -1.0642   -7.6903 O   0  0  0  0  0  0  0  0  0  0  0  0
  -12.4792   -2.7047   -5.5596 O   0  0  0  0  0  0  0  0  0  0  0  0
   -9.0038   -1.1544   -8.6007 O   0  0  0  0  0  0  0  0  0  0  0  0
  -13.6557   -2.2985   -6.2027 C   0  0  2  0  0  0  0  0  0  0  0  0
  -14.7697   -2.0923   -5.1710 C   0  0  1  0  0  0  0  0  0  0  0  0
  -15.3012   -3.4325   -4.6619 C   0  0  0  0  0  0  0  0  0  0  0  0
  -15.6990   -4.2902   -5.8522 C   0  0  1  0  0  0  0  0  0  0  0  0
  -14.4926   -4.4825   -6.7546 C   0  0  1  0  0  0  0  0  0  0  0  0
  -14.8261   -5.3388   -7.9628 C   0  0  0  0  0  0  0  0  0  0  0  0
  -14.2393   -1.2999   -4.0158 N   0  3  0  0  0  0  0  0  0  0  0  0
  -13.7311   -5.1576   -8.9782 N   0  3  0  0  0  0  0  0  0  0  0  0
  -16.1822   -5.5517   -5.4126 O   0  0  0  0  0  0  0  0  0  0  0  0
  -14.0468   -3.2015   -7.2314 O   0  0  0  0  0  0  0  0  0  0  0  0
  1  2  1  0  0  0  0
  1 22  1  6  0  0  0
  1 10  1  0  0  0  0
  2  3  1  0  0  0  0
  2  7  1  6  0  0  0
  3  4  1  0  0  0  0
  3  8  1  1  0  0  0
  4  5  1  0  0  0  0
  4  9  1  6  0  0  0
  5  6  1  1  0  0  0
  5 10  1  0  0  0  0
  6 11  1  0  0  0  0
 12 13  1  0  0  0  0
 12 17  1  0  0  0  0
 12 18  1  6  0  0  0
 13 14  1  0  0  0  0
 14 15  1  0  0  0  0
 14 19  1  6  0  0  0
 15 16  1  0  0  0  0
 15 21  1  1  0  0  0
 16 17  1  0  0  0  0
 16 20  1  6  0  0  0
 17 22  1  1  0  0  0
 23 21  1  1  0  0  0
 23 24  1  0  0  0  0
 23 32  1  0  0  0  0
 24 25  1  0  0  0  0
 24 29  1  1  0  0  0
 25 26  1  0  0  0  0
 26 27  1  0  0  0  0
 26 31  1  1  0  0  0
 27 28  1  6  0  0  0
 27 32  1  0  0  0  0
 28 30  1  0  0  0  0
M  CHG  5   8   1  18   1  19   1  29   1  30   1
M  END
>  <CHROM.1>
-131.31264357,71.43094764,139.38665049,74.57496134,-150.23506451,165.55450589
81.69321945,75.49567959,-161.96035920,164.08960997,-56.85611837,171.14447301
-33.87355994,67.05213725,164.07073080,25.74553082,-10.58099227,-2.02090801
-7.45844578,0.47796864,0.39663456,-0.03045557

>  <Name>
2tob cryst

>  <RI>
3.75586e+07

>  <Rbt.Current_Directory>
/home/itssahil/PROJECTS/Mol_Feturizer/New_Systems/rnas/2tob

>  <Rbt.Executable>
rbdock ($Id: //depot/dev/client3/rdock/2013.1/src/exe/rbdock.cxx#4 $)

>  <Rbt.Library>
libRbt.so (2013.1, Build901 2013/11/27)

>  <Rbt.Parameter_File>
/export/apps/rDock/src/rDock_2013.1_src/data/scripts/dock_solv.prm

>  <Rbt.Receptor>
prm/pocket_docking_8.prm

>  <SCORE>
-65.0452

>  <SCORE.INTER>
-49.6299

>  <SCORE.INTER.CONST>
1

>  <SCORE.INTER.POLAR>
-7.86005

>  <SCORE.INTER.ROT>
6

>  <SCORE.INTER.SOLV>
35.6768

>  <SCORE.INTER.VDW>
-26.3787

>  <SCORE.INTER.norm>
-1.55093

>  <SCORE.INTRA>
-15.4153

>  <SCORE.INTRA.DIHEDRAL>
5.6771

>  <SCORE.INTRA.DIHEDRAL.0>
18.4221

>  <SCORE.INTRA.POLAR>
0.344749

>  <SCORE.INTRA.POLAR.0>
-1.57101

>  <SCORE.INTRA.REPUL>
-0.730195

>  <SCORE.INTRA.REPUL.0>
0.730195

>  <SCORE.INTRA.SOLV>
-6.85484

>  <SCORE.INTRA.SOLV.lig_0>
-127.221

>  <SCORE.INTRA.VDW>
-12.3476

>  <SCORE.INTRA.VDW.0>
10.8385

>  <SCORE.INTRA.norm>
-0.481727

>  <SCORE.RESTR>
0

>  <SCORE.RESTR.CAVITY>
0

>  <SCORE.RESTR.norm>
0

>  <SCORE.SYSTEM>
0

>  <SCORE.SYSTEM.CONST>
0

>  <SCORE.SYSTEM.DIHEDRAL>
0

>  <SCORE.SYSTEM.SOLV>
0

>  <SCORE.SYSTEM.norm>
0

>  <SCORE.heavy>
32

>  <SCORE.norm>
-2.03266

>  <RMSD>
3.868

$$$$
2tob cryst
 OpenBabel11021811463D
libRbt.so/2013.1/901 2013/11/27
 32 34  0  0  0  0  0  0  0  0999 V2000
   -6.2336    1.3467   -8.8544 C   0  0  2  0  0  0  0  0  0  0  0  0
   -5.0493    1.4797   -9.8066 C   0  0  1  0  0  0  0  0  0  0  0  0
   -4.8517    0.1530  -10.5404 C   0  0  2  0  0  0  0  0  0  0  0  0
   -4.6956   -1.0042   -9.5448 C   0  0  1  0  0  0  0  0  0  0  0  0
   -5.8559   -0.9938   -8.5435 C   0  0  1  0  0  0  0  0  0  0  0  0
   -5.7247   -2.0111   -7.4219 C   0  0  0  0  0  0  0  0  0  0  0  0
   -5.2952    2.5209  -10.7480 O   0  0  0  0  0  0  0  0  0  0  0  0
   -3.7205    0.0645  -11.5173 N   0  3  0  0  0  0  0  0  0  0  0  0
   -4.6857   -2.2324  -10.2614 O   0  0  0  0  0  0  0  0  0  0  0  0
   -5.9653    0.3073   -7.9324 O   0  0  0  0  0  0  0  0  0  0  0  0
   -6.9892   -2.2672   -6.8194 O   0  0  0  0  0  0  0  0  0  0  0  0
   -9.6216    1.8446   -9.1493 C   0  0  2  0  0  0  0  0  0  0  0  0
  -11.0468    1.4849   -8.7083 C   0  0  0  0  0  0  0  0  0  0  0  0
  -11.4883    0.1232   -9.2378 C   0  0  1  0  0  0  0  0  0  0  0  0
  -10.4900   -0.9241   -8.7638 C   0  0  2  0  0  0  0  0  0  0  0  0
   -9.1165   -0.6317   -9.3729 C   0  0  1  0  0  0  0  0  0  0  0  0
   -8.5923    0.7328   -8.8919 C   0  0  1  0  0  0  0  0  0  0  0  0
   -9.1601    3.1025   -8.4711 N   0  3  0  0  0  0  0  0  0  0  0  0
  -12.8804   -0.2040   -8.7871 N   0  3  0  0  0  0  0  0  0  0  0  0
   -8.2097   -1.6644   -9.0079 O   0  0  0  0  0  0  0  0  0  0  0  0
  -10.9252   -2.2429   -9.1418 O   0  0  0  0  0  0  0  0  0  0  0  0
   -7.3847    1.0706   -9.6057 O   0  0  0  0  0  0  0  0  0  0  0  0
  -10.7117   -3.2065   -8.1475 C   0  0  2  0  0  0  0  0  0  0  0  0
  -12.0448   -3.8467   -7.7465 C   0  0  1  0  0  0  0  0  0  0  0  0
  -12.8766   -2.8916   -6.8900 C   0  0  0  0  0  0  0  0  0  0  0  0
  -12.0319   -2.4151   -5.7195 C   0  0  1  0  0  0  0  0  0  0  0  0
  -10.7824   -1.7338   -6.2499 C   0  0  1  0  0  0  0  0  0  0  0  0
   -9.8976   -1.2291   -5.1245 C   0  0  0  0  0  0  0  0  0  0  0  0
  -12.8168   -4.2050   -8.9791 N   0  3  0  0  0  0  0  0  0  0  0  0
   -9.2601    0.0569   -5.5748 N   0  3  0  0  0  0  0  0  0  0  0  0
  -12.7721   -1.5108   -4.9119 O   0  0  0  0  0  0  0  0  0  0  0  0
  -10.0192   -2.6758   -7.0226 O   0  0  0  0  0  0  0  0  0  0  0  0
  1  2  1  0  0  0  0
  1 22  1  6  0  0  0
  1 10  1  0  0  0  0
  2  3  1  0  0  0  0
  2  7  1  6  0  0  0
  3  4  1  0  0  0  0
  3  8  1  1  0  0  0
  4  5  1  0  0  0  0
  4  9  1  6  0  0  0
  5  6  1  1  0  0  0
  5 10  1  0  0  0  0
  6 11  1  0  0  0  0
 12 13  1  0  0  0  0
 12 17  1  0  0  0  0
 12 18  1  1  0  0  0
 13 14  1  0  0  0  0
 14 15  1  0  0  0  0
 14 19  1  1  0  0  0
 15 16  1  0  0  0  0
 15 21  1  6  0  0  0
 16 17  1  0  0  0  0
 16 20  1  1  0  0  0
 17 22  1  6  0  0  0
 23 21  1  6  0  0  0
 23 24  1  0  0  0  0
 23 32  1  0  0  0  0
 24 25  1  0  0  0  0
 24 29  1  6  0  0  0
 25 26  1  0  0  0  0
 26 27  1  0  0  0  0
 26 31  1  6  0  0  0
 27 28  1  1  0  0  0
 27 32  1  0  0  0  0
 28 30  1  0  0  0  0
M  CHG  5   8   1  18   1  19   1  29   1  30   1
M  END
>  <CHROM.1>
172.05625255,59.42091257,37.75891773,-176.96597491,-160.13844998,-59.60687073
-88.82929343,-171.40697422,-139.62594892,-39.30070351,114.82033432,120.79805944
-158.00383560,59.92645903,-144.83305791,-55.90661762,-8.77682186,-0.73306533
-8.35862217,0.42360868,0.28229222,-0.26925431

>  <Name>
2tob cryst

>  <RI>
0

>  <Rbt.Current_Directory>
/home/itssahil/PROJECTS/Mol_Feturizer/New_Systems/rnas/2tob

>  <Rbt.Executable>
rbdock ($Id: //depot/dev/client3/rdock/2013.1/src/exe/rbdock.cxx#4 $)

>  <Rbt.Library>
libRbt.so (2013.1, Build901 2013/11/27)

>  <Rbt.Parameter_File>
/export/apps/rDock/src/rDock_2013.1_src/data/scripts/dock_solv.prm

>  <Rbt.Receptor>
prm/blind_docking_40.prm

>  <SCORE>
-21.3957

>  <SCORE.INTER>
-22.3925

>  <SCORE.INTER.CONST>
1

>  <SCORE.INTER.POLAR>
-5.56529

>  <SCORE.INTER.ROT>
6

>  <SCORE.INTER.SOLV>
45.343

>  <SCORE.INTER.VDW>
-19.0917

>  <SCORE.INTER.norm>
-0.699766

>  <SCORE.INTRA>
-3.783

>  <SCORE.INTRA.DIHEDRAL>
12.2539

>  <SCORE.INTRA.DIHEDRAL.0>
18.4221

>  <SCORE.INTRA.POLAR>
0.300023

>  <SCORE.INTRA.POLAR.0>
-1.57101

>  <SCORE.INTRA.REPUL>
-0.205256

>  <SCORE.INTRA.REPUL.0>
0.730195

>  <SCORE.INTRA.SOLV>
2.37685

>  <SCORE.INTRA.SOLV.lig_0>
-127.221

>  <SCORE.INTRA.VDW>
-11.0922

>  <SCORE.INTRA.VDW.0>
10.8385

>  <SCORE.INTRA.norm>
-0.118219

>  <SCORE.RESTR>
4.77982

>  <SCORE.RESTR.CAVITY>
4.77982

>  <SCORE.RESTR.norm>
0.149369

>  <SCORE.SYSTEM>
0

>  <SCORE.SYSTEM.CONST>
0

>  <SCORE.SYSTEM.DIHEDRAL>
0

>  <SCORE.SYSTEM.SOLV>
0

>  <SCORE.SYSTEM.norm>
0

>  <SCORE.heavy>
32

>  <SCORE.norm>
-0.668615

>  <RMSD>
3.871

$$$$
2tob cryst
 OpenBabel11021811463D
libRbt.so/2013.1/901 2013/11/27
 32 34  0  0  0  0  0  0  0  0999 V2000
   -9.8537   -2.4154   -8.7104 C   0  0  2  0  0  0  0  0  0  0  0  0
   -8.3919   -2.8502   -8.7437 C   0  0  1  0  0  0  0  0  0  0  0  0
   -7.5844   -1.9463   -7.8117 C   0  0  2  0  0  0  0  0  0  0  0  0
   -7.7808   -0.4691   -8.1778 C   0  0  1  0  0  0  0  0  0  0  0  0
   -9.2762   -0.1414   -8.2492 C   0  0  1  0  0  0  0  0  0  0  0  0
   -9.5873    1.2607   -8.7465 C   0  0  0  0  0  0  0  0  0  0  0  0
   -8.2769   -4.2063   -8.3212 O   0  0  0  0  0  0  0  0  0  0  0  0
   -6.1114   -2.1953   -7.7114 N   0  3  0  0  0  0  0  0  0  0  0  0
   -7.1547    0.3393   -7.1895 O   0  0  0  0  0  0  0  0  0  0  0  0
   -9.9401   -1.0674   -9.1323 O   0  0  0  0  0  0  0  0  0  0  0  0
   -9.5002    2.2060   -7.6851 O   0  0  0  0  0  0  0  0  0  0  0  0
  -12.6368   -2.5215   -8.1258 C   0  0  2  0  0  0  0  0  0  0  0  0
  -13.9575   -3.2883   -8.2774 C   0  0  0  0  0  0  0  0  0  0  0  0
  -13.7356   -4.7515   -8.6503 C   0  0  1  0  0  0  0  0  0  0  0  0
  -12.8529   -5.3905   -7.5870 C   0  0  2  0  0  0  0  0  0  0  0  0
  -11.4792   -4.7151   -7.5914 C   0  0  1  0  0  0  0  0  0  0  0  0
  -11.6090   -3.2259   -7.2261 C   0  0  1  0  0  0  0  0  0  0  0  0
  -12.8859   -1.1400   -7.5922 N   0  3  0  0  0  0  0  0  0  0  0  0
  -15.0411   -5.4764   -8.7859 N   0  3  0  0  0  0  0  0  0  0  0  0
  -10.6258   -5.3768   -6.6663 O   0  0  0  0  0  0  0  0  0  0  0  0
  -12.7082   -6.8012   -7.8330 O   0  0  0  0  0  0  0  0  0  0  0  0
  -10.3375   -2.5675   -7.4033 O   0  0  0  0  0  0  0  0  0  0  0  0
  -12.4956   -7.5510   -6.6688 C   0  0  2  0  0  0  0  0  0  0  0  0
  -12.6334   -9.0454   -6.9783 C   0  0  1  0  0  0  0  0  0  0  0  0
  -14.0997   -9.4329   -7.1718 C   0  0  0  0  0  0  0  0  0  0  0  0
  -14.8973   -8.9657   -5.9650 C   0  0  1  0  0  0  0  0  0  0  0  0
  -14.7396   -7.4627   -5.8135 C   0  0  1  0  0  0  0  0  0  0  0  0
  -15.5205   -6.9334   -4.6244 C   0  0  0  0  0  0  0  0  0  0  0  0
  -11.8679   -9.3694   -8.2244 N   0  3  0  0  0  0  0  0  0  0  0  0
  -14.8839   -7.4723   -3.3725 N   0  3  0  0  0  0  0  0  0  0  0  0
  -16.2699   -9.2963   -6.1219 O   0  0  0  0  0  0  0  0  0  0  0  0
  -13.3521   -7.1491   -5.6051 O   0  0  0  0  0  0  0  0  0  0  0  0
  1  2  1  0  0  0  0
  1 22  1  1  0  0  0
  1 10  1  0  0  0  0
  2  3  1  0  0  0  0
  2  7  1  1  0  0  0
  3  4  1  0  0  0  0
  3  8  1  6  0  0  0
  4  5  1  0  0  0  0
  4  9  1  1  0  0  0
  5  6  1  6  0  0  0
  5 10  1  0  0  0  0
  6 11  1  0  0  0  0
 12 13  1  0  0  0  0
 12 17  1  0  0  0  0
 12 18  1  1  0  0  0
 13 14  1  0  0  0  0
 14 15  1  0  0  0  0
 14 19  1  1  0  0  0
 15 16  1  0  0  0  0
 15 21  1  6  0  0  0
 16 17  1  0  0  0  0
 16 20  1  1  0  0  0
 17 22  1  6  0  0  0
 23 21  1  6  0  0  0
 23 24  1  0  0  0  0
 23 32  1  0  0  0  0
 24 25  1  0  0  0  0
 24 29  1  6  0  0  0
 25 26  1  0  0  0  0
 26 27  1  0  0  0  0
 26 31  1  6  0  0  0
 27 28  1  1  0  0  0
 27 32  1  0  0  0  0
 28 30  1  0  0  0  0
M  CHG  5   8   1  18   1  19   1  29   1  30   1
M  END
>  <CHROM.1>
-132.65957263,65.38522375,179.16226963,-58.57309777,-83.31126971,-61.26570442
-64.43507738,-58.08425457,-151.27479998,72.49977151,-52.73005999,168.69795835
-37.67766234,-59.57730913,67.22555728,-65.60640978,-11.61151099,-4.35042557
-7.37974852,-0.92716941,-0.15333612,3.02521341

>  <Name>
2tob cryst

>  <RI>
2.10184e+07

>  <Rbt.Current_Directory>
/home/itssahil/PROJECTS/Mol_Feturizer/New_Systems/rnas/2tob

>  <Rbt.Executable>
rbdock ($Id: //depot/dev/client3/rdock/2013.1/src/exe/rbdock.cxx#4 $)

>  <Rbt.Library>
libRbt.so (2013.1, Build901 2013/11/27)

>  <Rbt.Parameter_File>
/export/apps/rDock/src/rDock_2013.1_src/data/scripts/dock_solv.prm

>  <Rbt.Receptor>
prm/pocket_docking_7.prm

>  <SCORE>
-46.9532

>  <SCORE.INTER>
-28.535

>  <SCORE.INTER.CONST>
1

>  <SCORE.INTER.POLAR>
-4.88695

>  <SCORE.INTER.ROT>
6

>  <SCORE.INTER.SOLV>
27.0762

>  <SCORE.INTER.VDW>
-19.3589

>  <SCORE.INTER.norm>
-0.891718

>  <SCORE.INTRA>
-18.4182

>  <SCORE.INTRA.DIHEDRAL>
-3.50213

>  <SCORE.INTRA.DIHEDRAL.0>
18.4221

>  <SCORE.INTRA.POLAR>
1.34106

>  <SCORE.INTRA.POLAR.0>
-1.57101

>  <SCORE.INTRA.REPUL>
-0.730195

>  <SCORE.INTRA.REPUL.0>
0.730195

>  <SCORE.INTRA.SOLV>
-6.23053

>  <SCORE.INTRA.SOLV.lig_0>
-127.221

>  <SCORE.INTRA.VDW>
-14.4605

>  <SCORE.INTRA.VDW.0>
10.8385

>  <SCORE.INTRA.norm>
-0.57557

>  <SCORE.RESTR>
0

>  <SCORE.RESTR.CAVITY>
0

>  <SCORE.RESTR.norm>
0

>  <SCORE.SYSTEM>
0

>  <SCORE.SYSTEM.CONST>
0

>  <SCORE.SYSTEM.DIHEDRAL>
0

>  <SCORE.SYSTEM.SOLV>
0

>  <SCORE.SYSTEM.norm>
0

>  <SCORE.heavy>
32

>  <SCORE.norm>
-1.46729

>  <RMSD>
3.889

$$$$
2tob cryst
 OpenBabel11021811463D
libRbt.so/2013.1/901 2013/11/27
 32 34  0  0  0  0  0  0  0  0999 V2000
   -6.1863    1.3691   -8.8327 C   0  0  2  0  0  0  0  0  0  0  0  0
   -4.9971    1.5152   -9.7769 C   0  0  1  0  0  0  0  0  0  0  0  0
   -4.8153    0.2094  -10.5511 C   0  0  2  0  0  0  0  0  0  0  0  0
   -4.6785   -0.9802   -9.5916 C   0  0  1  0  0  0  0  0  0  0  0  0
   -5.8418   -0.9849   -8.5938 C   0  0  1  0  0  0  0  0  0  0  0  0
   -5.7283   -2.0385   -7.5042 C   0  0  0  0  0  0  0  0  0  0  0  0
   -5.2256    2.5885  -10.6860 O   0  0  0  0  0  0  0  0  0  0  0  0
   -3.6822    0.1358  -11.5271 N   0  3  0  0  0  0  0  0  0  0  0  0
   -4.6831   -2.1856  -10.3462 O   0  0  0  0  0  0  0  0  0  0  0  0
   -5.9353    0.2979   -7.9428 O   0  0  0  0  0  0  0  0  0  0  0  0
   -6.1101   -3.3192   -7.9957 O   0  0  0  0  0  0  0  0  0  0  0  0
   -9.5701    1.9015   -9.1060 C   0  0  2  0  0  0  0  0  0  0  0  0
  -10.9980    1.5330   -8.6812 C   0  0  0  0  0  0  0  0  0  0  0  0
  -11.4488    0.1989   -9.2696 C   0  0  1  0  0  0  0  0  0  0  0  0
  -10.4582   -0.8751   -8.8417 C   0  0  2  0  0  0  0  0  0  0  0  0
   -9.0824   -0.5661   -9.4374 C   0  0  1  0  0  0  0  0  0  0  0  0
   -8.5488    0.7723   -8.8973 C   0  0  1  0  0  0  0  0  0  0  0  0
   -9.1001    3.1254   -8.3735 N   0  3  0  0  0  0  0  0  0  0  0  0
  -12.8434   -0.1379   -8.8338 N   0  3  0  0  0  0  0  0  0  0  0  0
   -8.1830   -1.6201   -9.1177 O   0  0  0  0  0  0  0  0  0  0  0  0
  -10.9025   -2.1731   -9.2769 O   0  0  0  0  0  0  0  0  0  0  0  0
   -7.3386    1.1325   -9.5956 O   0  0  0  0  0  0  0  0  0  0  0  0
  -10.7777   -3.1634   -8.2939 C   0  0  2  0  0  0  0  0  0  0  0  0
  -12.0615   -3.2362   -7.4606 C   0  0  1  0  0  0  0  0  0  0  0  0
  -12.1620   -2.0490   -6.5025 C   0  0  0  0  0  0  0  0  0  0  0  0
  -10.8850   -1.9672   -5.6820 C   0  0  1  0  0  0  0  0  0  0  0  0
   -9.6982   -1.8210   -6.6183 C   0  0  1  0  0  0  0  0  0  0  0  0
   -8.3892   -1.7281   -5.8553 C   0  0  0  0  0  0  0  0  0  0  0  0
  -13.2492   -3.2367   -8.3734 N   0  3  0  0  0  0  0  0  0  0  0  0
   -8.0626   -3.0968   -5.3232 N   0  3  0  0  0  0  0  0  0  0  0  0
  -10.9398   -0.8615   -4.7917 O   0  0  0  0  0  0  0  0  0  0  0  0
   -9.6269   -2.9710   -7.4782 O   0  0  0  0  0  0  0  0  0  0  0  0
  1  2  1  0  0  0  0
  1 22  1  6  0  0  0
  1 10  1  0  0  0  0
  2  3  1  0  0  0  0
  2  7  1  6  0  0  0
  3  4  1  0  0  0  0
  3  8  1  1  0  0  0
  4  5  1  0  0  0  0
  4  9  1  6  0  0  0
  5  6  1  1  0  0  0
  5 10  1  0  0  0  0
  6 11  1  0  0  0  0
 12 13  1  0  0  0  0
 12 17  1  0  0  0  0
 12 18  1  1  0  0  0
 13 14  1  0  0  0  0
 14 15  1  0  0  0  0
 14 19  1  1  0  0  0
 15 16  1  0  0  0  0
 15 21  1  6  0  0  0
 16 17  1  0  0  0  0
 16 20  1  1  0  0  0
 17 22  1  6  0  0  0
 23 21  1  6  0  0  0
 23 24  1  0  0  0  0
 23 32  1  0  0  0  0
 24 25  1  0  0  0  0
 24 29  1  6  0  0  0
 25 26  1  0  0  0  0
 26 27  1  0  0  0  0
 26 31  1  1  0  0  0
 27 28  1  1  0  0  0
 27 32  1  0  0  0  0
 28 30  1  0  0  0  0
M  CHG  5   8   1  18   1  19   1  29   1  30   1
M  END
>  <CHROM.1>
171.26693597,-41.70069035,-86.06624460,172.63605404,-78.81552396,-49.63692430
157.34311638,73.44913017,-135.64814252,66.90571592,114.74014245,90.10458621
98.76993910,178.07875070,73.53945208,145.38848411,-8.49023387,-0.77691528
-8.41550355,0.44906075,0.19473309,-0.48004515

>  <Name>
2tob cryst

>  <RI>
0

>  <Rbt.Current_Directory>
/home/itssahil/PROJECTS/Mol_Feturizer/New_Systems/rnas/2tob

>  <Rbt.Executable>
rbdock ($Id: //depot/dev/client3/rdock/2013.1/src/exe/rbdock.cxx#4 $)

>  <Rbt.Library>
libRbt.so (2013.1, Build901 2013/11/27)

>  <Rbt.Parameter_File>
/export/apps/rDock/src/rDock_2013.1_src/data/scripts/dock_solv.prm

>  <Rbt.Receptor>
prm/blind_docking_60.prm

>  <SCORE>
-15.6754

>  <SCORE.INTER>
-23.0217

>  <SCORE.INTER.CONST>
1

>  <SCORE.INTER.POLAR>
-6.53145

>  <SCORE.INTER.ROT>
6

>  <SCORE.INTER.SOLV>
45.0055

>  <SCORE.INTER.VDW>
-16.1781

>  <SCORE.INTER.norm>
-0.719427

>  <SCORE.INTRA>
-1.74256

>  <SCORE.INTRA.DIHEDRAL>
10.9184

>  <SCORE.INTRA.DIHEDRAL.0>
18.4221

>  <SCORE.INTRA.POLAR>
0.15124

>  <SCORE.INTRA.POLAR.0>
-1.57101

>  <SCORE.INTRA.REPUL>
-0.730195

>  <SCORE.INTRA.REPUL.0>
0.730195

>  <SCORE.INTRA.SOLV>
3.87966

>  <SCORE.INTRA.SOLV.lig_0>
-127.221

>  <SCORE.INTRA.VDW>
-6.00484

>  <SCORE.INTRA.VDW.0>
10.8385

>  <SCORE.INTRA.norm>
-0.0544551

>  <SCORE.RESTR>
9.08886

>  <SCORE.RESTR.CAVITY>
9.08886

>  <SCORE.RESTR.norm>
0.284027

>  <SCORE.SYSTEM>
0

>  <SCORE.SYSTEM.CONST>
0

>  <SCORE.SYSTEM.DIHEDRAL>
0

>  <SCORE.SYSTEM.SOLV>
0

>  <SCORE.SYSTEM.norm>
0

>  <SCORE.heavy>
32

>  <SCORE.norm>
-0.489856

>  <RMSD>
3.896

$$$$
2tob cryst
 OpenBabel11021811463D
libRbt.so/2013.1/901 2013/11/27
 32 34  0  0  0  0  0  0  0  0999 V2000
   -8.5401   -2.0886   -8.0752 C   0  0  2  0  0  0  0  0  0  0  0  0
   -7.2441   -2.0489   -8.8787 C   0  0  1  0  0  0  0  0  0  0  0  0
   -6.5328   -0.7230   -8.6070 C   0  0  2  0  0  0  0  0  0  0  0  0
   -7.4592    0.4644   -8.9013 C   0  0  1  0  0  0  0  0  0  0  0  0
   -8.7886    0.2880   -8.1593 C   0  0  1  0  0  0  0  0  0  0  0  0
   -9.8371    1.3360   -8.4947 C   0  0  0  0  0  0  0  0  0  0  0  0
   -6.4027   -3.1351   -8.5006 O   0  0  0  0  0  0  0  0  0  0  0  0
   -5.2388   -0.4738   -9.3178 N   0  3  0  0  0  0  0  0  0  0  0  0
   -6.8232    1.6633   -8.4766 O   0  0  0  0  0  0  0  0  0  0  0  0
   -9.3558   -1.0009   -8.4678 O   0  0  0  0  0  0  0  0  0  0  0  0
  -10.0512    1.4069   -9.9007 O   0  0  0  0  0  0  0  0  0  0  0  0
   -9.6953   -2.1998   -4.8095 C   0  0  2  0  0  0  0  0  0  0  0  0
  -10.6452   -3.0868   -3.9934 C   0  0  0  0  0  0  0  0  0  0  0  0
  -11.4634   -4.0231   -4.8784 C   0  0  1  0  0  0  0  0  0  0  0  0
  -10.5023   -4.8678   -5.7033 C   0  0  2  0  0  0  0  0  0  0  0  0
   -9.6980   -3.9598   -6.6370 C   0  0  1  0  0  0  0  0  0  0  0  0
   -8.8397   -2.9746   -5.8242 C   0  0  1  0  0  0  0  0  0  0  0  0
   -8.7879   -1.4210   -3.9009 N   0  3  0  0  0  0  0  0  0  0  0  0
  -12.3771   -4.8804   -4.0548 N   0  3  0  0  0  0  0  0  0  0  0  0
   -8.8716   -4.7585   -7.4744 O   0  0  0  0  0  0  0  0  0  0  0  0
  -11.2242   -5.8477   -6.4716 O   0  0  0  0  0  0  0  0  0  0  0  0
   -8.2249   -2.0167   -6.7109 O   0  0  0  0  0  0  0  0  0  0  0  0
  -10.4107   -6.8715   -6.9742 C   0  0  2  0  0  0  0  0  0  0  0  0
  -11.2700   -7.9112   -7.7014 C   0  0  1  0  0  0  0  0  0  0  0  0
  -12.0454   -8.7751   -6.7065 C   0  0  0  0  0  0  0  0  0  0  0  0
  -11.0713   -9.3611   -5.6973 C   0  0  1  0  0  0  0  0  0  0  0  0
  -10.3410   -8.2305   -4.9935 C   0  0  1  0  0  0  0  0  0  0  0  0
   -9.3544   -8.7538   -3.9654 C   0  0  0  0  0  0  0  0  0  0  0  0
  -12.2364   -7.2131   -8.6083 N   0  3  0  0  0  0  0  0  0  0  0  0
   -7.9897   -8.7733   -4.5980 N   0  3  0  0  0  0  0  0  0  0  0  0
  -11.7644  -10.1572   -4.7465 O   0  0  0  0  0  0  0  0  0  0  0  0
   -9.6044   -7.4651   -5.9622 O   0  0  0  0  0  0  0  0  0  0  0  0
  1  2  1  0  0  0  0
  1 22  1  1  0  0  0
  1 10  1  0  0  0  0
  2  3  1  0  0  0  0
  2  7  1  1  0  0  0
  3  4  1  0  0  0  0
  3  8  1  6  0  0  0
  4  5  1  0  0  0  0
  4  9  1  1  0  0  0
  5  6  1  6  0  0  0
  5 10  1  0  0  0  0
  6 11  1  0  0  0  0
 12 13  1  0  0  0  0
 12 17  1  0  0  0  0
 12 18  1  1  0  0  0
 13 14  1  0  0  0  0
 14 15  1  0  0  0  0
 14 19  1  1  0  0  0
 15 16  1  0  0  0  0
 15 21  1  6  0  0  0
 16 17  1  0  0  0  0
 16 20  1  1  0  0  0
 17 22  1  6  0  0  0
 23 21  1  1  0  0  0
 23 24  1  0  0  0  0
 23 32  1  0  0  0  0
 24 25  1  0  0  0  0
 24 29  1  6  0  0  0
 25 26  1  0  0  0  0
 26 27  1  0  0  0  0
 26 31  1  1  0  0  0
 27 28  1  1  0  0  0
 27 32  1  0  0  0  0
 28 30  1  0  0  0  0
M  CHG  5   8   1  18   1  19   1  29   1  30   1
M  END
>  <CHROM.1>
-131.36023321,-53.77978974,178.64749347,-66.00349963,54.03629558,164.70165201
66.79647496,66.30491964,-164.26625156,120.18916669,-118.31926204,176.50641594
-170.12256473,177.24413364,97.63174289,59.91618232,-9.43512429,-3.98455282
-6.76603248,-1.10419026,-0.76832416,3.13884353

>  <Name>
2tob cryst

>  <RI>
3.75586e+07

>  <Rbt.Current_Directory>
/home/itssahil/PROJECTS/Mol_Feturizer/New_Systems/rnas/2tob

>  <Rbt.Executable>
rbdock ($Id: //depot/dev/client3/rdock/2013.1/src/exe/rbdock.cxx#4 $)

>  <Rbt.Library>
libRbt.so (2013.1, Build901 2013/11/27)

>  <Rbt.Parameter_File>
/export/apps/rDock/src/rDock_2013.1_src/data/scripts/dock_solv.prm

>  <Rbt.Receptor>
prm/pocket_docking_8.prm

>  <SCORE>
-43.4278

>  <SCORE.INTER>
-34.5309

>  <SCORE.INTER.CONST>
1

>  <SCORE.INTER.POLAR>
-4.61191

>  <SCORE.INTER.ROT>
6

>  <SCORE.INTER.SOLV>
29.2779

>  <SCORE.INTER.VDW>
-25.0069

>  <SCORE.INTER.norm>
-1.07909

>  <SCORE.INTRA>
-8.8969

>  <SCORE.INTRA.DIHEDRAL>
9.69902

>  <SCORE.INTRA.DIHEDRAL.0>
18.4221

>  <SCORE.INTRA.POLAR>
1.48336

>  <SCORE.INTRA.POLAR.0>
-1.57101

>  <SCORE.INTRA.REPUL>
-0.730195

>  <SCORE.INTRA.REPUL.0>
0.730195

>  <SCORE.INTRA.SOLV>
-9.42809

>  <SCORE.INTRA.SOLV.lig_0>
-127.221

>  <SCORE.INTRA.VDW>
-10.4248

>  <SCORE.INTRA.VDW.0>
10.8385

>  <SCORE.INTRA.norm>
-0.278028

>  <SCORE.RESTR>
0

>  <SCORE.RESTR.CAVITY>
0

>  <SCORE.RESTR.norm>
0

>  <SCORE.SYSTEM>
0

>  <SCORE.SYSTEM.CONST>
0

>  <SCORE.SYSTEM.DIHEDRAL>
0

>  <SCORE.SYSTEM.SOLV>
0

>  <SCORE.SYSTEM.norm>
0

>  <SCORE.heavy>
32

>  <SCORE.norm>
-1.35712

>  <RMSD>
3.906

$$$$
2tob cryst
 OpenBabel11021811463D
libRbt.so/2013.1/901 2013/11/27
 32 34  0  0  0  0  0  0  0  0999 V2000
   -6.0950    1.3227   -8.8959 C   0  0  2  0  0  0  0  0  0  0  0  0
   -4.8919    1.3189   -9.8337 C   0  0  1  0  0  0  0  0  0  0  0  0
   -4.7864   -0.0535  -10.4994 C   0  0  2  0  0  0  0  0  0  0  0  0
   -4.7316   -1.1686   -9.4468 C   0  0  1  0  0  0  0  0  0  0  0  0
   -5.9004   -1.0215   -8.4664 C   0  0  1  0  0  0  0  0  0  0  0  0
   -5.8614   -1.9894   -7.2952 C   0  0  0  0  0  0  0  0  0  0  0  0
   -5.0458    2.3280  -10.8280 O   0  0  0  0  0  0  0  0  0  0  0  0
   -3.6529   -0.2749  -11.4522 N   0  3  0  0  0  0  0  0  0  0  0  0
   -4.8060   -2.4279  -10.1032 O   0  0  0  0  0  0  0  0  0  0  0  0
   -5.9183    0.3127   -7.9205 O   0  0  0  0  0  0  0  0  0  0  0  0
   -7.0273   -1.8563   -6.4886 O   0  0  0  0  0  0  0  0  0  0  0  0
   -9.4837    1.8957   -9.2018 C   0  0  2  0  0  0  0  0  0  0  0  0
  -10.9150    1.5509   -8.7687 C   0  0  0  0  0  0  0  0  0  0  0  0
  -11.3701    0.1969   -9.3064 C   0  0  1  0  0  0  0  0  0  0  0  0
  -10.3864   -0.8642   -8.8328 C   0  0  2  0  0  0  0  0  0  0  0  0
   -9.0068   -0.5853   -9.4345 C   0  0  1  0  0  0  0  0  0  0  0  0
   -8.4687    0.7707   -8.9449 C   0  0  1  0  0  0  0  0  0  0  0  0
   -9.0104    3.1450   -8.5158 N   0  3  0  0  0  0  0  0  0  0  0  0
  -12.7680   -0.1158   -8.8633 N   0  3  0  0  0  0  0  0  0  0  0  0
   -8.1139   -1.6303   -9.0702 O   0  0  0  0  0  0  0  0  0  0  0  0
  -10.8354   -2.1761   -9.2187 O   0  0  0  0  0  0  0  0  0  0  0  0
   -7.2541    1.0975   -9.6519 O   0  0  0  0  0  0  0  0  0  0  0  0
  -10.6592   -3.1419   -8.2193 C   0  0  2  0  0  0  0  0  0  0  0  0
  -11.9811   -3.8727   -7.9611 C   0  0  1  0  0  0  0  0  0  0  0  0
  -12.9541   -2.9881   -7.1813 C   0  0  0  0  0  0  0  0  0  0  0  0
  -12.2625   -2.4798   -5.9266 C   0  0  1  0  0  0  0  0  0  0  0  0
  -11.0137   -1.7109   -6.3214 C   0  0  1  0  0  0  0  0  0  0  0  0
  -10.2796   -1.1712   -5.1074 C   0  0  0  0  0  0  0  0  0  0  0  0
  -12.6019   -4.2573   -9.2689 N   0  3  0  0  0  0  0  0  0  0  0  0
   -9.3444   -0.0885   -5.5723 N   0  3  0  0  0  0  0  0  0  0  0  0
  -13.1366   -1.6391   -5.1869 O   0  0  0  0  0  0  0  0  0  0  0  0
  -10.1179   -2.5884   -7.0246 O   0  0  0  0  0  0  0  0  0  0  0  0
  1  2  1  0  0  0  0
  1 22  1  6  0  0  0
  1 10  1  0  0  0  0
  2  3  1  0  0  0  0
  2  7  1  6  0  0  0
  3  4  1  0  0  0  0
  3  8  1  1  0  0  0
  4  5  1  0  0  0  0
  4  9  1  6  0  0  0
  5  6  1  1  0  0  0
  5 10  1  0  0  0  0
  6 11  1  0  0  0  0
 12 13  1  0  0  0  0
 12 17  1  0  0  0  0
 12 18  1  1  0  0  0
 13 14  1  0  0  0  0
 14 15  1  0  0  0  0
 14 19  1  1  0  0  0
 15 16  1  0  0  0  0
 15 21  1  6  0  0  0
 16 17  1  0  0  0  0
 16 20  1  1  0  0  0
 17 22  1  6  0  0  0
 23 21  1  6  0  0  0
 23 24  1  0  0  0  0
 23 32  1  0  0  0  0
 24 25  1  0  0  0  0
 24 29  1  6  0  0  0
 25 26  1  0  0  0  0
 26 27  1  0  0  0  0
 26 31  1  6  0  0  0
 27 28  1  1  0  0  0
 27 32  1  0  0  0  0
 28 30  1  0  0  0  0
M  CHG  5   8   1  18   1  19   1  29   1  30   1
M  END
>  <CHROM.1>
166.70728833,-55.47624329,40.60080144,-172.10090010,-175.68763115,96.25737760
38.99744991,-170.12354734,-138.56920209,-18.02602832,116.43230943,127.33943957
167.16021781,54.90741985,-162.25099155,54.47136133,-8.76242788,-0.75748253
-8.40231040,0.39319763,0.28478573,-0.22596405

>  <Name>
2tob cryst

>  <RI>
0

>  <Rbt.Current_Directory>
/home/itssahil/PROJECTS/Mol_Feturizer/New_Systems/rnas/2tob

>  <Rbt.Executable>
rbdock ($Id: //depot/dev/client3/rdock/2013.1/src/exe/rbdock.cxx#4 $)

>  <Rbt.Library>
libRbt.so (2013.1, Build901 2013/11/27)

>  <Rbt.Parameter_File>
/export/apps/rDock/src/rDock_2013.1_src/data/scripts/dock_solv.prm

>  <Rbt.Receptor>
prm/blind_docking_60.prm

>  <SCORE>
-16.8462

>  <SCORE.INTER>
-23.2444

>  <SCORE.INTER.CONST>
1

>  <SCORE.INTER.POLAR>
-6.44145

>  <SCORE.INTER.ROT>
6

>  <SCORE.INTER.SOLV>
46.8205

>  <SCORE.INTER.VDW>
-17.2316

>  <SCORE.INTER.norm>
-0.726387

>  <SCORE.INTRA>
-4.77585

>  <SCORE.INTRA.DIHEDRAL>
16.7717

>  <SCORE.INTRA.DIHEDRAL.0>
18.4221

>  <SCORE.INTRA.POLAR>
-0.789177

>  <SCORE.INTRA.POLAR.0>
-1.57101

>  <SCORE.INTRA.REPUL>
-0.558815

>  <SCORE.INTRA.REPUL.0>
0.730195

>  <SCORE.INTRA.SOLV>
2.15364

>  <SCORE.INTRA.SOLV.lig_0>
-127.221

>  <SCORE.INTRA.VDW>
-8.76125

>  <SCORE.INTRA.VDW.0>
10.8385

>  <SCORE.INTRA.norm>
-0.149245

>  <SCORE.RESTR>
11.174

>  <SCORE.RESTR.CAVITY>
11.174

>  <SCORE.RESTR.norm>
0.349188

>  <SCORE.SYSTEM>
0

>  <SCORE.SYSTEM.CONST>
0

>  <SCORE.SYSTEM.DIHEDRAL>
0

>  <SCORE.SYSTEM.SOLV>
0

>  <SCORE.SYSTEM.norm>
0

>  <SCORE.heavy>
32

>  <SCORE.norm>
-0.526444

>  <RMSD>
3.909

$$$$
2tob cryst
 OpenBabel11021811463D
libRbt.so/2013.1/901 2013/11/27
 32 34  0  0  0  0  0  0  0  0999 V2000
   -7.4097   -0.4690   -8.2028 C   0  0  2  0  0  0  0  0  0  0  0  0
   -8.2060    0.4636   -7.2957 C   0  0  1  0  0  0  0  0  0  0  0  0
   -8.8094    1.5839   -8.1434 C   0  0  2  0  0  0  0  0  0  0  0  0
   -7.7205    2.3098   -8.9447 C   0  0  1  0  0  0  0  0  0  0  0  0
   -6.8828    1.2942   -9.7294 C   0  0  1  0  0  0  0  0  0  0  0  0
   -5.6828    1.8920  -10.4456 C   0  0  0  0  0  0  0  0  0  0  0  0
   -9.2446   -0.2613   -6.6425 O   0  0  0  0  0  0  0  0  0  0  0  0
   -9.6211    2.6252   -7.4373 N   0  3  0  0  0  0  0  0  0  0  0  0
   -8.3386    3.2238   -9.8418 O   0  0  0  0  0  0  0  0  0  0  0  0
   -6.3874    0.2742   -8.8394 O   0  0  0  0  0  0  0  0  0  0  0  0
   -4.8070    2.5296   -9.5214 O   0  0  0  0  0  0  0  0  0  0  0  0
   -8.1037   -2.9534   -7.6947 C   0  0  2  0  0  0  0  0  0  0  0  0
   -8.8190   -4.1299   -7.0169 C   0  0  0  0  0  0  0  0  0  0  0  0
  -10.2338   -3.7673   -6.5741 C   0  0  1  0  0  0  0  0  0  0  0  0
  -11.0104   -3.2853   -7.7917 C   0  0  2  0  0  0  0  0  0  0  0  0
  -10.3690   -2.0043   -8.3312 C   0  0  1  0  0  0  0  0  0  0  0  0
   -8.9295   -2.2783   -8.8012 C   0  0  1  0  0  0  0  0  0  0  0  0
   -6.7881   -3.3946   -8.2690 N   0  3  0  0  0  0  0  0  0  0  0  0
  -10.9095   -4.9358   -5.9213 N   0  3  0  0  0  0  0  0  0  0  0  0
  -11.1516   -1.5026   -9.4072 O   0  0  0  0  0  0  0  0  0  0  0  0
  -12.3861   -3.0393   -7.4473 O   0  0  0  0  0  0  0  0  0  0  0  0
   -8.2829   -1.0345   -9.1427 O   0  0  0  0  0  0  0  0  0  0  0  0
  -13.2856   -3.3859   -8.4638 C   0  0  2  0  0  0  0  0  0  0  0  0
  -14.7132   -3.0192   -8.0446 C   0  0  1  0  0  0  0  0  0  0  0  0
  -15.2459   -3.9973   -6.9972 C   0  0  0  0  0  0  0  0  0  0  0  0
  -15.0905   -5.4156   -7.5217 C   0  0  1  0  0  0  0  0  0  0  0  0
  -13.6259   -5.6778   -7.8262 C   0  0  1  0  0  0  0  0  0  0  0  0
  -13.4047   -7.0852   -8.3501 C   0  0  0  0  0  0  0  0  0  0  0  0
  -14.7260   -1.6327   -7.4781 N   0  3  0  0  0  0  0  0  0  0  0  0
  -11.9893   -7.1781   -8.8511 N   0  3  0  0  0  0  0  0  0  0  0  0
  -15.5619   -6.3514   -6.5624 O   0  0  0  0  0  0  0  0  0  0  0  0
  -13.1779   -4.7562   -8.8345 O   0  0  0  0  0  0  0  0  0  0  0  0
  1  2  1  0  0  0  0
  1 22  1  6  0  0  0
  1 10  1  0  0  0  0
  2  3  1  0  0  0  0
  2  7  1  6  0  0  0
  3  4  1  0  0  0  0
  3  8  1  1  0  0  0
  4  5  1  0  0  0  0
  4  9  1  6  0  0  0
  5  6  1  1  0  0  0
  5 10  1  0  0  0  0
  6 11  1  0  0  0  0
 12 13  1  0  0  0  0
 12 17  1  0  0  0  0
 12 18  1  6  0  0  0
 13 14  1  0  0  0  0
 14 15  1  0  0  0  0
 14 19  1  6  0  0  0
 15 16  1  0  0  0  0
 15 21  1  1  0  0  0
 16 17  1  0  0  0  0
 16 20  1  6  0  0  0
 17 22  1  1  0  0  0
 23 21  1  1  0  0  0
 23 24  1  0  0  0  0
 23 32  1  0  0  0  0
 24 25  1  0  0  0  0
 24 29  1  1  0  0  0
 25 26  1  0  0  0  0
 26 27  1  0  0  0  0
 26 31  1  1  0  0  0
 27 28  1  6  0  0  0
 27 32  1  0  0  0  0
 28 30  1  0  0  0  0
M  CHG  5   8   1  18   1  19   1  29   1  30   1
M  END
>  <CHROM.1>
-90.16671339,-158.89184435,40.84467888,64.24216188,58.92073154,115.78030657
48.58537011,-56.07611678,-143.42353168,-160.30614525,-21.07010376,-176.83411288
172.83368823,177.28769212,170.10775760,-149.75736537,-10.33317155,-2.02394063
-8.13471435,-0.78060427,-0.11400027,3.05147156

>  <Name>
2tob cryst

>  <RI>
0

>  <Rbt.Current_Directory>
/home/itssahil/PROJECTS/Mol_Feturizer/New_Systems/rnas/2tob

>  <Rbt.Executable>
rbdock ($Id: //depot/dev/client3/rdock/2013.1/src/exe/rbdock.cxx#4 $)

>  <Rbt.Library>
libRbt.so (2013.1, Build901 2013/11/27)

>  <Rbt.Parameter_File>
/export/apps/rDock/src/rDock_2013.1_src/data/scripts/dock_solv.prm

>  <Rbt.Receptor>
prm/pocket_docking_3.prm

>  <SCORE>
-43.7802

>  <SCORE.INTER>
-39.1108

>  <SCORE.INTER.CONST>
1

>  <SCORE.INTER.POLAR>
-5.50927

>  <SCORE.INTER.ROT>
6

>  <SCORE.INTER.SOLV>
37.0392

>  <SCORE.INTER.VDW>
-27.656

>  <SCORE.INTER.norm>
-1.22221

>  <SCORE.INTRA>
-4.85816

>  <SCORE.INTRA.DIHEDRAL>
9.93047

>  <SCORE.INTRA.DIHEDRAL.0>
18.4221

>  <SCORE.INTRA.POLAR>
1.27917

>  <SCORE.INTRA.POLAR.0>
-1.57101

>  <SCORE.INTRA.REPUL>
-0.730195

>  <SCORE.INTRA.REPUL.0>
0.730195

>  <SCORE.INTRA.SOLV>
-3.25778

>  <SCORE.INTRA.SOLV.lig_0>
-127.221

>  <SCORE.INTRA.VDW>
-8.89269

>  <SCORE.INTRA.VDW.0>
10.8385

>  <SCORE.INTRA.norm>
-0.151817

>  <SCORE.RESTR>
0.188723

>  <SCORE.RESTR.CAVITY>
0.188723

>  <SCORE.RESTR.norm>
0.00589761

>  <SCORE.SYSTEM>
0

>  <SCORE.SYSTEM.CONST>
0

>  <SCORE.SYSTEM.DIHEDRAL>
0

>  <SCORE.SYSTEM.SOLV>
0

>  <SCORE.SYSTEM.norm>
0

>  <SCORE.heavy>
32

>  <SCORE.norm>
-1.36813

>  <RMSD>
3.914

$$$$
2tob cryst
 OpenBabel11021811463D
libRbt.so/2013.1/901 2013/11/27
 32 34  0  0  0  0  0  0  0  0999 V2000
   -9.3359   -0.0699   -8.3046 C   0  0  2  0  0  0  0  0  0  0  0  0
   -7.8784   -0.4553   -8.5372 C   0  0  1  0  0  0  0  0  0  0  0  0
   -7.5543   -1.6952   -7.7033 C   0  0  2  0  0  0  0  0  0  0  0  0
   -7.8852   -1.4603   -6.2235 C   0  0  1  0  0  0  0  0  0  0  0  0
   -9.3246   -0.9531   -6.0827 C   0  0  1  0  0  0  0  0  0  0  0  0
   -9.7111   -0.5494   -4.6693 C   0  0  0  0  0  0  0  0  0  0  0  0
   -7.6617   -0.7314   -9.9184 O   0  0  0  0  0  0  0  0  0  0  0  0
   -6.1582   -2.2315   -7.7749 N   0  3  0  0  0  0  0  0  0  0  0  0
   -7.7317   -2.6840   -5.5156 O   0  0  0  0  0  0  0  0  0  0  0  0
   -9.5246    0.1975   -6.9278 O   0  0  0  0  0  0  0  0  0  0  0  0
  -10.9935   -1.0654   -4.3275 O   0  0  0  0  0  0  0  0  0  0  0  0
  -12.4379   -0.3903   -8.9506 C   0  0  2  0  0  0  0  0  0  0  0  0
  -13.9151   -0.6527   -8.6280 C   0  0  0  0  0  0  0  0  0  0  0  0
  -14.2567   -2.1400   -8.6571 C   0  0  1  0  0  0  0  0  0  0  0  0
  -13.3468   -2.8620   -7.6728 C   0  0  2  0  0  0  0  0  0  0  0  0
  -11.8923   -2.7286   -8.1309 C   0  0  1  0  0  0  0  0  0  0  0  0
  -11.4611   -1.2514   -8.1344 C   0  0  1  0  0  0  0  0  0  0  0  0
  -12.1009    1.0584   -8.7433 N   0  3  0  0  0  0  0  0  0  0  0  0
  -15.7030   -2.3665   -8.3329 N   0  3  0  0  0  0  0  0  0  0  0  0
  -11.0546   -3.4843   -7.2654 O   0  0  0  0  0  0  0  0  0  0  0  0
  -13.7076   -4.2522   -7.5793 O   0  0  0  0  0  0  0  0  0  0  0  0
  -10.1531   -1.1265   -8.7305 O   0  0  0  0  0  0  0  0  0  0  0  0
  -13.2246   -4.8767   -6.4219 C   0  0  2  0  0  0  0  0  0  0  0  0
  -13.5583   -6.3718   -6.4578 C   0  0  1  0  0  0  0  0  0  0  0  0
  -15.0427   -6.6096   -6.1796 C   0  0  0  0  0  0  0  0  0  0  0  0
  -15.4198   -5.9134   -4.8820 C   0  0  1  0  0  0  0  0  0  0  0  0
  -15.1122   -4.4310   -5.0029 C   0  0  1  0  0  0  0  0  0  0  0  0
  -15.4737   -3.6775   -3.7358 C   0  0  0  0  0  0  0  0  0  0  0  0
  -13.2125   -6.9277   -7.8050 N   0  3  0  0  0  0  0  0  0  0  0  0
  -16.9674   -3.5015   -3.7091 N   0  3  0  0  0  0  0  0  0  0  0  0
  -16.8000   -6.1015   -4.6034 O   0  0  0  0  0  0  0  0  0  0  0  0
  -13.7042   -4.2552   -5.2342 O   0  0  0  0  0  0  0  0  0  0  0  0
  1  2  1  0  0  0  0
  1 22  1  1  0  0  0
  1 10  1  0  0  0  0
  2  3  1  0  0  0  0
  2  7  1  6  0  0  0
  3  4  1  0  0  0  0
  3  8  1  1  0  0  0
  4  5  1  0  0  0  0
  4  9  1  1  0  0  0
  5  6  1  1  0  0  0
  5 10  1  0  0  0  0
  6 11  1  0  0  0  0
 12 13  1  0  0  0  0
 12 17  1  0  0  0  0
 12 18  1  1  0  0  0
 13 14  1  0  0  0  0
 14 15  1  0  0  0  0
 14 19  1  1  0  0  0
 15 16  1  0  0  0  0
 15 21  1  6  0  0  0
 16 17  1  0  0  0  0
 16 20  1  1  0  0  0
 17 22  1  6  0  0  0
 23 21  1  6  0  0  0
 23 24  1  0  0  0  0
 23 32  1  0  0  0  0
 24 25  1  0  0  0  0
 24 29  1  6  0  0  0
 25 26  1  0  0  0  0
 26 27  1  0  0  0  0
 26 31  1  6  0  0  0
 27 28  1  1  0  0  0
 27 32  1  0  0  0  0
 28 30  1  0  0  0  0
M  CHG  5   8   1  18   1  19   1  29   1  30   1
M  END
>  <CHROM.1>
154.79102931,69.75837955,-46.09933324,64.49272804,-134.92296308,65.63689858
-107.75776713,-129.60943385,-160.91950484,-173.01878064,87.62923067,-175.55394653
-35.88055355,71.31640422,-76.73849829,176.97484751,-11.94482815,-2.65299123
-6.89111873,0.58079078,-0.10833127,-0.65219501

>  <Name>
2tob cryst

>  <RI>
0

>  <Rbt.Current_Directory>
/home/itssahil/PROJECTS/Mol_Feturizer/New_Systems/rnas/2tob

>  <Rbt.Executable>
rbdock ($Id: //depot/dev/client3/rdock/2013.1/src/exe/rbdock.cxx#4 $)

>  <Rbt.Library>
libRbt.so (2013.1, Build901 2013/11/27)

>  <Rbt.Parameter_File>
/export/apps/rDock/src/rDock_2013.1_src/data/scripts/dock_solv.prm

>  <Rbt.Receptor>
prm/pocket_docking_6.prm

>  <SCORE>
-52.8789

>  <SCORE.INTER>
-37.6779

>  <SCORE.INTER.CONST>
1

>  <SCORE.INTER.POLAR>
-5.85958

>  <SCORE.INTER.ROT>
6

>  <SCORE.INTER.SOLV>
33.2985

>  <SCORE.INTER.VDW>
-24.2862

>  <SCORE.INTER.norm>
-1.17744

>  <SCORE.INTRA>
-15.4552

>  <SCORE.INTRA.DIHEDRAL>
4.6699

>  <SCORE.INTRA.DIHEDRAL.0>
18.4221

>  <SCORE.INTRA.POLAR>
0.224353

>  <SCORE.INTRA.POLAR.0>
-1.57101

>  <SCORE.INTRA.REPUL>
-0.730195

>  <SCORE.INTRA.REPUL.0>
0.730195

>  <SCORE.INTRA.SOLV>
-5.92202

>  <SCORE.INTRA.SOLV.lig_0>
-127.221

>  <SCORE.INTRA.VDW>
-11.941

>  <SCORE.INTRA.VDW.0>
10.8385

>  <SCORE.INTRA.norm>
-0.482975

>  <SCORE.RESTR>
0.25423

>  <SCORE.RESTR.CAVITY>
0.25423

>  <SCORE.RESTR.norm>
0.00794469

>  <SCORE.SYSTEM>
0

>  <SCORE.SYSTEM.CONST>
0

>  <SCORE.SYSTEM.DIHEDRAL>
0

>  <SCORE.SYSTEM.SOLV>
0

>  <SCORE.SYSTEM.norm>
0

>  <SCORE.heavy>
32

>  <SCORE.norm>
-1.65247

>  <RMSD>
3.924

$$$$
2tob cryst
 OpenBabel11021811463D
libRbt.so/2013.1/901 2013/11/27
 32 34  0  0  0  0  0  0  0  0999 V2000
   -7.7919   -1.0152   -7.6862 C   0  0  2  0  0  0  0  0  0  0  0  0
   -8.2800    0.2169   -6.9306 C   0  0  1  0  0  0  0  0  0  0  0  0
   -8.3902    1.3869   -7.9087 C   0  0  2  0  0  0  0  0  0  0  0  0
   -7.0598    1.6168   -8.6379 C   0  0  1  0  0  0  0  0  0  0  0  0
   -6.5712    0.3052   -9.2622 C   0  0  1  0  0  0  0  0  0  0  0  0
   -5.1879    0.3858   -9.8868 C   0  0  0  0  0  0  0  0  0  0  0  0
   -9.5519   -0.0437   -6.3432 O   0  0  0  0  0  0  0  0  0  0  0  0
   -8.8397    2.7061   -7.3614 N   0  3  0  0  0  0  0  0  0  0  0  0
   -7.2519    2.5940   -9.6529 O   0  0  0  0  0  0  0  0  0  0  0  0
   -6.5301   -0.7303   -8.2600 O   0  0  0  0  0  0  0  0  0  0  0  0
   -4.6846   -0.9151  -10.1735 O   0  0  0  0  0  0  0  0  0  0  0  0
   -8.5955   -3.5062   -7.6265 C   0  0  2  0  0  0  0  0  0  0  0  0
   -9.3376   -4.7723   -7.1777 C   0  0  0  0  0  0  0  0  0  0  0  0
  -10.7365   -4.4649   -6.6505 C   0  0  1  0  0  0  0  0  0  0  0  0
  -11.5115   -3.7355   -7.7393 C   0  0  2  0  0  0  0  0  0  0  0  0
  -10.8387   -2.3919   -8.0310 C   0  0  1  0  0  0  0  0  0  0  0  0
   -9.4129   -2.6077   -8.5680 C   0  0  1  0  0  0  0  0  0  0  0  0
   -7.2994   -3.8625   -8.2961 N   0  3  0  0  0  0  0  0  0  0  0  0
  -11.4391   -5.7193   -6.2253 N   0  3  0  0  0  0  0  0  0  0  0  0
  -11.6176   -1.6705   -8.9770 O   0  0  0  0  0  0  0  0  0  0  0  0
  -12.8757   -3.5245   -7.3319 O   0  0  0  0  0  0  0  0  0  0  0  0
   -8.7339   -1.3389   -8.6729 O   0  0  0  0  0  0  0  0  0  0  0  0
  -13.7496   -3.3022   -8.4041 C   0  0  2  0  0  0  0  0  0  0  0  0
  -15.1477   -2.9640   -7.8762 C   0  0  1  0  0  0  0  0  0  0  0  0
  -15.8467   -4.2115   -7.3353 C   0  0  0  0  0  0  0  0  0  0  0  0
  -15.8238   -5.2928   -8.4036 C   0  0  1  0  0  0  0  0  0  0  0  0
  -14.3834   -5.5889   -8.7835 C   0  0  1  0  0  0  0  0  0  0  0  0
  -14.2939   -6.6689   -9.8465 C   0  0  0  0  0  0  0  0  0  0  0  0
  -15.0353   -1.9469   -6.7824 N   0  3  0  0  0  0  0  0  0  0  0  0
  -12.8644   -6.7505  -10.3077 N   0  3  0  0  0  0  0  0  0  0  0  0
  -16.4521   -6.4735   -7.9250 O   0  0  0  0  0  0  0  0  0  0  0  0
  -13.7771   -4.3977   -9.3128 O   0  0  0  0  0  0  0  0  0  0  0  0
  1  2  1  0  0  0  0
  1 22  1  6  0  0  0
  1 10  1  0  0  0  0
  2  3  1  0  0  0  0
  2  7  1  6  0  0  0
  3  4  1  0  0  0  0
  3  8  1  1  0  0  0
  4  5  1  0  0  0  0
  4  9  1  6  0  0  0
  5  6  1  1  0  0  0
  5 10  1  0  0  0  0
  6 11  1  0  0  0  0
 12 13  1  0  0  0  0
 12 17  1  0  0  0  0
 12 18  1  6  0  0  0
 13 14  1  0  0  0  0
 14 15  1  0  0  0  0
 14 19  1  6  0  0  0
 15 16  1  0  0  0  0
 15 21  1  1  0  0  0
 16 17  1  0  0  0  0
 16 20  1  6  0  0  0
 17 22  1  1  0  0  0
 23 21  1  1  0  0  0
 23 24  1  0  0  0  0
 23 32  1  0  0  0  0
 24 25  1  0  0  0  0
 24 29  1  1  0  0  0
 25 26  1  0  0  0  0
 26 27  1  0  0  0  0
 26 31  1  1  0  0  0
 27 28  1  6  0  0  0
 27 32  1  0  0  0  0
 28 30  1  0  0  0  0
M  CHG  5   8   1  18   1  19   1  29   1  30   1
M  END
>  <CHROM.1>
-116.51879838,-74.16803820,40.25830766,179.72862550,167.05395323,-66.64915263
-108.62910165,70.61367269,-158.85594151,-57.07887945,-18.36410420,-174.94650453
36.47922680,-58.96261487,171.62027424,74.91903065,-10.60955361,-2.45198928
-8.20697880,-0.61077743,-0.17397039,-2.97683306

>  <Name>
2tob cryst

>  <RI>
0

>  <Rbt.Current_Directory>
/home/itssahil/PROJECTS/Mol_Feturizer/New_Systems/rnas/2tob

>  <Rbt.Executable>
rbdock ($Id: //depot/dev/client3/rdock/2013.1/src/exe/rbdock.cxx#4 $)

>  <Rbt.Library>
libRbt.so (2013.1, Build901 2013/11/27)

>  <Rbt.Parameter_File>
/export/apps/rDock/src/rDock_2013.1_src/data/scripts/dock_solv.prm

>  <Rbt.Receptor>
prm/pocket_docking_5.prm

>  <SCORE>
-41.8455

>  <SCORE.INTER>
-30.7936

>  <SCORE.INTER.CONST>
1

>  <SCORE.INTER.POLAR>
-3.20748

>  <SCORE.INTER.ROT>
6

>  <SCORE.INTER.SOLV>
36.6899

>  <SCORE.INTER.VDW>
-29.6674

>  <SCORE.INTER.norm>
-0.9623

>  <SCORE.INTRA>
-11.053

>  <SCORE.INTRA.DIHEDRAL>
4.77971

>  <SCORE.INTRA.DIHEDRAL.0>
18.4221

>  <SCORE.INTRA.POLAR>
1.28848

>  <SCORE.INTRA.POLAR.0>
-1.57101

>  <SCORE.INTRA.REPUL>
-0.730195

>  <SCORE.INTRA.REPUL.0>
0.730195

>  <SCORE.INTRA.SOLV>
-7.58512

>  <SCORE.INTRA.SOLV.lig_0>
-127.221

>  <SCORE.INTRA.VDW>
-10.3802

>  <SCORE.INTRA.VDW.0>
10.8385

>  <SCORE.INTRA.norm>
-0.345408

>  <SCORE.RESTR>
0.00119129

>  <SCORE.RESTR.CAVITY>
0.00119129

>  <SCORE.RESTR.norm>
3.72278e-05

>  <SCORE.SYSTEM>
0

>  <SCORE.SYSTEM.CONST>
0

>  <SCORE.SYSTEM.DIHEDRAL>
0

>  <SCORE.SYSTEM.SOLV>
0

>  <SCORE.SYSTEM.norm>
0

>  <SCORE.heavy>
32

>  <SCORE.norm>
-1.30767

>  <RMSD>
3.966

$$$$
2tob cryst
 OpenBabel11021811463D
libRbt.so/2013.1/901 2013/11/27
 32 34  0  0  0  0  0  0  0  0999 V2000
   -7.4682   -0.5060   -8.2543 C   0  0  2  0  0  0  0  0  0  0  0  0
   -8.2745    0.4157   -7.3448 C   0  0  1  0  0  0  0  0  0  0  0  0
   -8.9153    1.5138   -8.1941 C   0  0  2  0  0  0  0  0  0  0  0  0
   -7.8545    2.2580   -9.0160 C   0  0  1  0  0  0  0  0  0  0  0  0
   -7.0032    1.2555   -9.8029 C   0  0  1  0  0  0  0  0  0  0  0  0
   -5.8271    1.8750  -10.5400 C   0  0  0  0  0  0  0  0  0  0  0  0
   -9.2870   -0.3276   -6.6717 O   0  0  0  0  0  0  0  0  0  0  0  0
   -9.7422    2.5419   -7.4863 N   0  3  0  0  0  0  0  0  0  0  0  0
   -8.5056    3.1491   -9.9127 O   0  0  0  0  0  0  0  0  0  0  0  0
   -6.4722    0.2554   -8.9107 O   0  0  0  0  0  0  0  0  0  0  0  0
   -5.1654    0.9045  -11.3450 O   0  0  0  0  0  0  0  0  0  0  0  0
   -8.1259   -2.9847   -7.6897 C   0  0  2  0  0  0  0  0  0  0  0  0
   -8.8191   -4.1610   -6.9890 C   0  0  0  0  0  0  0  0  0  0  0  0
  -10.2420   -3.8177   -6.5567 C   0  0  1  0  0  0  0  0  0  0  0  0
  -11.0252   -3.3767   -7.7856 C   0  0  2  0  0  0  0  0  0  0  0  0
  -10.4081   -2.0947   -8.3504 C   0  0  1  0  0  0  0  0  0  0  0  0
   -8.9624   -2.3494   -8.8116 C   0  0  1  0  0  0  0  0  0  0  0  0
   -6.8003   -3.4113   -8.2519 N   0  3  0  0  0  0  0  0  0  0  0  0
  -10.8959   -4.9856   -5.8810 N   0  3  0  0  0  0  0  0  0  0  0  0
  -11.1979   -1.6312   -9.4382 O   0  0  0  0  0  0  0  0  0  0  0  0
  -12.4063   -3.1512   -7.4493 O   0  0  0  0  0  0  0  0  0  0  0  0
   -8.3399   -1.1003   -9.1777 O   0  0  0  0  0  0  0  0  0  0  0  0
  -13.2463   -3.0706   -8.5675 C   0  0  2  0  0  0  0  0  0  0  0  0
  -14.6866   -2.8004   -8.1198 C   0  0  1  0  0  0  0  0  0  0  0  0
  -15.3180   -4.0549   -7.5156 C   0  0  0  0  0  0  0  0  0  0  0  0
  -15.1718   -5.2043   -8.4997 C   0  0  1  0  0  0  0  0  0  0  0  0
  -13.6989   -5.4191   -8.8014 C   0  0  1  0  0  0  0  0  0  0  0  0
  -13.4868   -6.5619   -9.7777 C   0  0  0  0  0  0  0  0  0  0  0  0
  -14.6944   -1.7030   -7.1004 N   0  3  0  0  0  0  0  0  0  0  0  0
  -13.8210   -7.8466   -9.0700 N   0  3  0  0  0  0  0  0  0  0  0  0
  -15.7348   -6.3915   -7.9597 O   0  0  0  0  0  0  0  0  0  0  0  0
  -13.1563   -4.2267   -9.3935 O   0  0  0  0  0  0  0  0  0  0  0  0
  1  2  1  0  0  0  0
  1 22  1  6  0  0  0
  1 10  1  0  0  0  0
  2  3  1  0  0  0  0
  2  7  1  6  0  0  0
  3  4  1  0  0  0  0
  3  8  1  1  0  0  0
  4  5  1  0  0  0  0
  4  9  1  6  0  0  0
  5  6  1  1  0  0  0
  5 10  1  0  0  0  0
  6 11  1  0  0  0  0
 12 13  1  0  0  0  0
 12 17  1  0  0  0  0
 12 18  1  6  0  0  0
 13 14  1  0  0  0  0
 14 15  1  0  0  0  0
 14 19  1  6  0  0  0
 15 16  1  0  0  0  0
 15 21  1  1  0  0  0
 16 17  1  0  0  0  0
 16 20  1  6  0  0  0
 17 22  1  1  0  0  0
 23 21  1  1  0  0  0
 23 24  1  0  0  0  0
 23 32  1  0  0  0  0
 24 25  1  0  0  0  0
 24 29  1  1  0  0  0
 25 26  1  0  0  0  0
 26 27  1  0  0  0  0
 26 31  1  1  0  0  0
 27 28  1  6  0  0  0
 27 32  1  0  0  0  0
 28 30  1  0  0  0  0
M  CHG  5   8   1  18   1  19   1  29   1  30   1
M  END
>  <CHROM.1>
-89.58058346,-161.52003084,-82.68563612,-65.70355089,-174.46045701,-71.69197171
168.98916669,-57.79543713,-164.99689298,-164.89571621,-20.33149711,-178.78380104
158.62036070,-50.42076067,-69.97766871,179.55454815,-10.46618919,-2.09354764
-8.39460565,-0.74517027,-0.11274865,3.10231603

>  <Name>
2tob cryst

>  <RI>
0

>  <Rbt.Current_Directory>
/home/itssahil/PROJECTS/Mol_Feturizer/New_Systems/rnas/2tob

>  <Rbt.Executable>
rbdock ($Id: //depot/dev/client3/rdock/2013.1/src/exe/rbdock.cxx#4 $)

>  <Rbt.Library>
libRbt.so (2013.1, Build901 2013/11/27)

>  <Rbt.Parameter_File>
/export/apps/rDock/src/rDock_2013.1_src/data/scripts/dock_solv.prm

>  <Rbt.Receptor>
prm/pocket_docking_5.prm

>  <SCORE>
-60.1043

>  <SCORE.INTER>
-46.3965

>  <SCORE.INTER.CONST>
1

>  <SCORE.INTER.POLAR>
-6.57382

>  <SCORE.INTER.ROT>
6

>  <SCORE.INTER.SOLV>
35.8321

>  <SCORE.INTER.VDW>
-28.5623

>  <SCORE.INTER.norm>
-1.44989

>  <SCORE.INTRA>
-13.7078

>  <SCORE.INTRA.DIHEDRAL>
-1.52027

>  <SCORE.INTRA.DIHEDRAL.0>
18.4221

>  <SCORE.INTRA.POLAR>
1.02442

>  <SCORE.INTRA.POLAR.0>
-1.57101

>  <SCORE.INTRA.REPUL>
-0.730195

>  <SCORE.INTRA.REPUL.0>
0.730195

>  <SCORE.INTRA.SOLV>
-6.21102

>  <SCORE.INTRA.SOLV.lig_0>
-127.221

>  <SCORE.INTRA.VDW>
-9.67421

>  <SCORE.INTRA.VDW.0>
10.8385

>  <SCORE.INTRA.norm>
-0.428369

>  <SCORE.RESTR>
0

>  <SCORE.RESTR.CAVITY>
0

>  <SCORE.RESTR.norm>
0

>  <SCORE.SYSTEM>
0

>  <SCORE.SYSTEM.CONST>
0

>  <SCORE.SYSTEM.DIHEDRAL>
0

>  <SCORE.SYSTEM.SOLV>
0

>  <SCORE.SYSTEM.norm>
0

>  <SCORE.heavy>
32

>  <SCORE.norm>
-1.87826

>  <RMSD>
3.992

$$$$
2tob cryst
 OpenBabel11021811463D
libRbt.so/2013.1/901 2013/11/27
 32 34  0  0  0  0  0  0  0  0999 V2000
   -7.1751   -0.4165   -8.4255 C   0  0  2  0  0  0  0  0  0  0  0  0
   -7.8788    0.4329   -7.3717 C   0  0  1  0  0  0  0  0  0  0  0  0
   -8.6131    1.5789   -8.0681 C   0  0  2  0  0  0  0  0  0  0  0  0
   -7.6522    2.3883   -8.9490 C   0  0  1  0  0  0  0  0  0  0  0  0
   -6.8900    1.4506   -9.8917 C   0  0  1  0  0  0  0  0  0  0  0  0
   -5.8048    2.1311  -10.7098 C   0  0  0  0  0  0  0  0  0  0  0  0
   -8.8082   -0.3652   -6.6436 O   0  0  0  0  0  0  0  0  0  0  0  0
   -9.3600    2.5479   -7.2049 N   0  3  0  0  0  0  0  0  0  0  0  0
   -8.4015    3.3310   -9.7055 O   0  0  0  0  0  0  0  0  0  0  0  0
   -6.2603    0.3982   -9.1340 O   0  0  0  0  0  0  0  0  0  0  0  0
   -4.7345    2.5606   -9.8744 O   0  0  0  0  0  0  0  0  0  0  0  0
   -7.8406   -2.8783   -7.8620 C   0  0  2  0  0  0  0  0  0  0  0  0
   -8.4890   -4.0811   -7.1635 C   0  0  0  0  0  0  0  0  0  0  0  0
   -9.8939   -3.7661   -6.6575 C   0  0  1  0  0  0  0  0  0  0  0  0
  -10.7371   -3.3006   -7.8366 C   0  0  2  0  0  0  0  0  0  0  0  0
  -10.1597   -1.9966   -8.3929 C   0  0  1  0  0  0  0  0  0  0  0  0
   -8.7340   -2.2221   -8.9265 C   0  0  1  0  0  0  0  0  0  0  0  0
   -6.5379   -3.2741   -8.4958 N   0  3  0  0  0  0  0  0  0  0  0  0
  -10.5042   -4.9595   -5.9855 N   0  3  0  0  0  0  0  0  0  0  0  0
  -11.0032   -1.5126   -9.4303 O   0  0  0  0  0  0  0  0  0  0  0  0
  -12.1035   -3.1002   -7.4315 O   0  0  0  0  0  0  0  0  0  0  0  0
   -8.1417   -0.9563   -9.2856 O   0  0  0  0  0  0  0  0  0  0  0  0
  -12.9984   -3.0257   -8.5068 C   0  0  2  0  0  0  0  0  0  0  0  0
  -14.4399   -3.0300   -7.9872 C   0  0  1  0  0  0  0  0  0  0  0  0
  -14.8488   -4.4253   -7.5145 C   0  0  0  0  0  0  0  0  0  0  0  0
  -14.5806   -5.4228   -8.6298 C   0  0  1  0  0  0  0  0  0  0  0  0
  -13.1082   -5.3753   -8.9990 C   0  0  1  0  0  0  0  0  0  0  0  0
  -12.7756   -6.3571  -10.1078 C   0  0  0  0  0  0  0  0  0  0  0  0
  -14.5620   -2.0663   -6.8470 N   0  3  0  0  0  0  0  0  0  0  0  0
  -12.2808   -7.6274   -9.4717 N   0  3  0  0  0  0  0  0  0  0  0  0
  -14.9349   -6.7345   -8.2151 O   0  0  0  0  0  0  0  0  0  0  0  0
  -12.7774   -4.0558   -9.4642 O   0  0  0  0  0  0  0  0  0  0  0  0
  1  2  1  0  0  0  0
  1 22  1  6  0  0  0
  1 10  1  0  0  0  0
  2  3  1  0  0  0  0
  2  7  1  6  0  0  0
  3  4  1  0  0  0  0
  3  8  1  1  0  0  0
  4  5  1  0  0  0  0
  4  9  1  6  0  0  0
  5  6  1  1  0  0  0
  5 10  1  0  0  0  0
  6 11  1  0  0  0  0
 12 13  1  0  0  0  0
 12 17  1  0  0  0  0
 12 18  1  6  0  0  0
 13 14  1  0  0  0  0
 14 15  1  0  0  0  0
 14 19  1  6  0  0  0
 15 16  1  0  0  0  0
 15 21  1  1  0  0  0
 16 17  1  0  0  0  0
 16 20  1  6  0  0  0
 17 22  1  1  0  0  0
 23 21  1  1  0  0  0
 23 24  1  0  0  0  0
 23 32  1  0  0  0  0
 24 25  1  0  0  0  0
 24 29  1  1  0  0  0
 25 26  1  0  0  0  0
 26 27  1  0  0  0  0
 26 31  1  1  0  0  0
 27 28  1  6  0  0  0
 27 32  1  0  0  0  0
 28 30  1  0  0  0  0
M  CHG  5   8   1  18   1  19   1  29   1  30   1
M  END
>  <CHROM.1>
-88.44403533,70.01310843,168.80298598,-36.70024984,68.04582546,-176.42805128
-169.71849941,69.08526314,-163.77693035,-155.89930952,-16.58469007,171.32053915
-46.34880290,171.73637578,-94.88714502,174.10278037,-10.09044522,-1.99863725
-8.40695757,-0.79853748,-0.12655322,-3.13002917

>  <Name>
2tob cryst

>  <RI>
0

>  <Rbt.Current_Directory>
/home/itssahil/PROJECTS/Mol_Feturizer/New_Systems/rnas/2tob

>  <Rbt.Executable>
rbdock ($Id: //depot/dev/client3/rdock/2013.1/src/exe/rbdock.cxx#4 $)

>  <Rbt.Library>
libRbt.so (2013.1, Build901 2013/11/27)

>  <Rbt.Parameter_File>
/export/apps/rDock/src/rDock_2013.1_src/data/scripts/dock_solv.prm

>  <Rbt.Receptor>
prm/pocket_docking_5.prm

>  <SCORE>
-47.3384

>  <SCORE.INTER>
-36.8889

>  <SCORE.INTER.CONST>
1

>  <SCORE.INTER.POLAR>
-4.20452

>  <SCORE.INTER.ROT>
6

>  <SCORE.INTER.SOLV>
35.603

>  <SCORE.INTER.VDW>
-30.0452

>  <SCORE.INTER.norm>
-1.15278

>  <SCORE.INTRA>
-10.467

>  <SCORE.INTRA.DIHEDRAL>
3.16347

>  <SCORE.INTRA.DIHEDRAL.0>
18.4221

>  <SCORE.INTRA.POLAR>
1.43696

>  <SCORE.INTRA.POLAR.0>
-1.57101

>  <SCORE.INTRA.REPUL>
-0.730195

>  <SCORE.INTRA.REPUL.0>
0.730195

>  <SCORE.INTRA.SOLV>
-7.06835

>  <SCORE.INTRA.SOLV.lig_0>
-127.221

>  <SCORE.INTRA.VDW>
-9.74926

>  <SCORE.INTRA.VDW.0>
10.8385

>  <SCORE.INTRA.norm>
-0.327094

>  <SCORE.RESTR>
0.0174955

>  <SCORE.RESTR.CAVITY>
0.0174955

>  <SCORE.RESTR.norm>
0.000546735

>  <SCORE.SYSTEM>
0

>  <SCORE.SYSTEM.CONST>
0

>  <SCORE.SYSTEM.DIHEDRAL>
0

>  <SCORE.SYSTEM.SOLV>
0

>  <SCORE.SYSTEM.norm>
0

>  <SCORE.heavy>
32

>  <SCORE.norm>
-1.47933

>  <RMSD>
3.995

$$$$
2tob cryst
 OpenBabel11021811463D
libRbt.so/2013.1/901 2013/11/27
 32 34  0  0  0  0  0  0  0  0999 V2000
   -9.0055   -2.6783   -8.4677 C   0  0  2  0  0  0  0  0  0  0  0  0
   -7.8286   -1.9534   -9.1130 C   0  0  1  0  0  0  0  0  0  0  0  0
   -7.8186   -0.5010   -8.6352 C   0  0  2  0  0  0  0  0  0  0  0  0
   -9.1674    0.1753   -8.9144 C   0  0  1  0  0  0  0  0  0  0  0  0
  -10.3080   -0.6768   -8.3471 C   0  0  1  0  0  0  0  0  0  0  0  0
  -11.6992   -0.1726   -8.6942 C   0  0  0  0  0  0  0  0  0  0  0  0
   -6.6061   -2.5898   -8.7506 O   0  0  0  0  0  0  0  0  0  0  0  0
   -6.7444    0.3954   -9.1686 N   0  3  0  0  0  0  0  0  0  0  0  0
   -9.1747    1.4607   -8.3062 O   0  0  0  0  0  0  0  0  0  0  0  0
  -10.2049   -2.0271   -8.8415 O   0  0  0  0  0  0  0  0  0  0  0  0
  -12.6971   -1.0689   -8.2160 O   0  0  0  0  0  0  0  0  0  0  0  0
  -10.7446   -2.6756   -5.6060 C   0  0  2  0  0  0  0  0  0  0  0  0
  -11.8808   -3.4908   -4.9738 C   0  0  0  0  0  0  0  0  0  0  0  0
  -12.4545   -4.5252   -5.9382 C   0  0  1  0  0  0  0  0  0  0  0  0
  -11.3227   -5.4334   -6.3990 C   0  0  2  0  0  0  0  0  0  0  0  0
  -10.2969   -4.6115   -7.1836 C   0  0  1  0  0  0  0  0  0  0  0  0
   -9.6655   -3.5351   -6.2833 C   0  0  1  0  0  0  0  0  0  0  0  0
  -10.0925   -1.7939   -4.5800 N   0  3  0  0  0  0  0  0  0  0  0  0
  -13.5573   -5.3096   -5.2927 N   0  3  0  0  0  0  0  0  0  0  0  0
   -9.2917   -5.4773   -7.6955 O   0  0  0  0  0  0  0  0  0  0  0  0
  -11.8336   -6.4978   -7.2221 O   0  0  0  0  0  0  0  0  0  0  0  0
   -8.8344   -2.6620   -7.0763 O   0  0  0  0  0  0  0  0  0  0  0  0
  -10.8852   -7.4904   -7.5017 C   0  0  2  0  0  0  0  0  0  0  0  0
  -11.5875   -8.7564   -8.0036 C   0  0  1  0  0  0  0  0  0  0  0  0
  -12.2790   -9.4922   -6.8555 C   0  0  0  0  0  0  0  0  0  0  0  0
  -11.2699   -9.7328   -5.7443 C   0  0  1  0  0  0  0  0  0  0  0  0
  -10.7061   -8.3996   -5.2844 C   0  0  1  0  0  0  0  0  0  0  0  0
   -9.6930   -8.5739   -4.1676 C   0  0  0  0  0  0  0  0  0  0  0  0
  -12.6058   -8.3853   -9.0374 N   0  3  0  0  0  0  0  0  0  0  0  0
   -8.3538   -8.8527   -4.7935 N   0  3  0  0  0  0  0  0  0  0  0  0
  -11.8868  -10.4012   -4.6531 O   0  0  0  0  0  0  0  0  0  0  0  0
  -10.0417   -7.7591   -6.3867 O   0  0  0  0  0  0  0  0  0  0  0  0
  1  2  1  0  0  0  0
  1 22  1  1  0  0  0
  1 10  1  0  0  0  0
  2  3  1  0  0  0  0
  2  7  1  1  0  0  0
  3  4  1  0  0  0  0
  3  8  1  6  0  0  0
  4  5  1  0  0  0  0
  4  9  1  1  0  0  0
  5  6  1  6  0  0  0
  5 10  1  0  0  0  0
  6 11  1  0  0  0  0
 12 13  1  0  0  0  0
 12 17  1  0  0  0  0
 12 18  1  1  0  0  0
 13 14  1  0  0  0  0
 14 15  1  0  0  0  0
 14 19  1  1  0  0  0
 15 16  1  0  0  0  0
 15 21  1  6  0  0  0
 16 17  1  0  0  0  0
 16 20  1  1  0  0  0
 17 22  1  6  0  0  0
 23 21  1  1  0  0  0
 23 24  1  0  0  0  0
 23 32  1  0  0  0  0
 24 25  1  0  0  0  0
 24 29  1  6  0  0  0
 25 26  1  0  0  0  0
 26 27  1  0  0  0  0
 26 31  1  1  0  0  0
 27 28  1  1  0  0  0
 27 32  1  0  0  0  0
 28 30  1  0  0  0  0
M  CHG  5   8   1  18   1  19   1  29   1  30   1
M  END
>  <CHROM.1>
-166.66527516,65.99885697,63.65047586,174.93490789,175.72268239,177.13724189
-177.54668932,-44.81656925,-170.22292405,134.29399250,-104.74206683,163.14980329
-51.31695854,-179.66103801,85.28655352,79.58165871,-10.31696796,-4.47328363
-7.06834424,-1.31505759,-0.21151279,2.91280907

>  <Name>
2tob cryst

>  <RI>
3.75586e+07

>  <Rbt.Current_Directory>
/home/itssahil/PROJECTS/Mol_Feturizer/New_Systems/rnas/2tob

>  <Rbt.Executable>
rbdock ($Id: //depot/dev/client3/rdock/2013.1/src/exe/rbdock.cxx#4 $)

>  <Rbt.Library>
libRbt.so (2013.1, Build901 2013/11/27)

>  <Rbt.Parameter_File>
/export/apps/rDock/src/rDock_2013.1_src/data/scripts/dock_solv.prm

>  <Rbt.Receptor>
prm/pocket_docking_8.prm

>  <SCORE>
-39.9689

>  <SCORE.INTER>
-26.2775

>  <SCORE.INTER.CONST>
1

>  <SCORE.INTER.POLAR>
-3.40036

>  <SCORE.INTER.ROT>
6

>  <SCORE.INTER.SOLV>
19.1236

>  <SCORE.INTER.VDW>
-20.1584

>  <SCORE.INTER.norm>
-0.821173

>  <SCORE.INTRA>
-13.6914

>  <SCORE.INTRA.DIHEDRAL>
0.758171

>  <SCORE.INTRA.DIHEDRAL.0>
18.4221

>  <SCORE.INTRA.POLAR>
1.46274

>  <SCORE.INTRA.POLAR.0>
-1.57101

>  <SCORE.INTRA.REPUL>
-0.730195

>  <SCORE.INTRA.REPUL.0>
0.730195

>  <SCORE.INTRA.SOLV>
-9.23972

>  <SCORE.INTRA.SOLV.lig_0>
-127.221

>  <SCORE.INTRA.VDW>
-10.7729

>  <SCORE.INTRA.VDW.0>
10.8385

>  <SCORE.INTRA.norm>
-0.427855

>  <SCORE.RESTR>
0

>  <SCORE.RESTR.CAVITY>
0

>  <SCORE.RESTR.norm>
0

>  <SCORE.SYSTEM>
0

>  <SCORE.SYSTEM.CONST>
0

>  <SCORE.SYSTEM.DIHEDRAL>
0

>  <SCORE.SYSTEM.SOLV>
0

>  <SCORE.SYSTEM.norm>
0

>  <SCORE.heavy>
32

>  <SCORE.norm>
-1.24903

>  <RMSD>
3.996

$$$$
2tob cryst
 OpenBabel11021811463D
libRbt.so/2013.1/901 2013/11/27
 32 34  0  0  0  0  0  0  0  0999 V2000
   -5.6946    1.4739   -9.3727 C   0  0  2  0  0  0  0  0  0  0  0  0
   -4.8593    2.4021  -10.2489 C   0  0  1  0  0  0  0  0  0  0  0  0
   -4.4925    1.6687  -11.5394 C   0  0  2  0  0  0  0  0  0  0  0  0
   -3.7906    0.3393  -11.2318 C   0  0  1  0  0  0  0  0  0  0  0  0
   -4.6305   -0.4809  -10.2466 C   0  0  1  0  0  0  0  0  0  0  0  0
   -3.9591   -1.7548   -9.7602 C   0  0  0  0  0  0  0  0  0  0  0  0
   -5.6003    3.5799  -10.5561 O   0  0  0  0  0  0  0  0  0  0  0  0
   -3.6525    2.4032  -12.5377 N   0  3  0  0  0  0  0  0  0  0  0  0
   -3.6212   -0.3852  -12.4437 O   0  0  0  0  0  0  0  0  0  0  0  0
   -4.9380    0.3135   -9.0836 O   0  0  0  0  0  0  0  0  0  0  0  0
   -4.9208   -2.6692   -9.2437 O   0  0  0  0  0  0  0  0  0  0  0  0
   -9.1584    1.8484   -9.7370 C   0  0  2  0  0  0  0  0  0  0  0  0
  -10.5568    1.4890   -9.2170 C   0  0  0  0  0  0  0  0  0  0  0  0
  -10.9046    0.0233   -9.4625 C   0  0  1  0  0  0  0  0  0  0  0  0
   -9.8386   -0.8412   -8.8034 C   0  0  2  0  0  0  0  0  0  0  0  0
   -8.4871   -0.5841   -9.4745 C   0  0  1  0  0  0  0  0  0  0  0  0
   -8.0568    0.8802   -9.2779 C   0  0  1  0  0  0  0  0  0  0  0  0
   -8.7839    3.2433   -9.3255 N   0  3  0  0  0  0  0  0  0  0  0  0
  -12.2721   -0.3003   -8.9398 N   0  3  0  0  0  0  0  0  0  0  0  0
   -7.5132   -1.4619   -8.9239 O   0  0  0  0  0  0  0  0  0  0  0  0
  -10.1833   -2.2346   -8.9090 O   0  0  0  0  0  0  0  0  0  0  0  0
   -6.8738    1.1500  -10.0586 O   0  0  0  0  0  0  0  0  0  0  0  0
   -9.8046   -2.9887   -7.7907 C   0  0  2  0  0  0  0  0  0  0  0  0
  -10.9915   -3.8230   -7.2978 C   0  0  1  0  0  0  0  0  0  0  0  0
  -12.0179   -2.9465   -6.5796 C   0  0  0  0  0  0  0  0  0  0  0  0
  -11.3138   -2.1525   -5.4912 C   0  0  1  0  0  0  0  0  0  0  0  0
  -10.2141   -1.3129   -6.1176 C   0  0  1  0  0  0  0  0  0  0  0  0
   -9.4752   -0.4897   -5.0781 C   0  0  0  0  0  0  0  0  0  0  0  0
  -11.6465   -4.4964   -8.4645 N   0  3  0  0  0  0  0  0  0  0  0  0
   -8.6354   -1.4266   -4.2535 N   0  3  0  0  0  0  0  0  0  0  0  0
  -12.2393   -1.3135   -4.8147 O   0  0  0  0  0  0  0  0  0  0  0  0
   -9.2595   -2.1790   -6.7543 O   0  0  0  0  0  0  0  0  0  0  0  0
  1  2  1  0  0  0  0
  1 22  1  6  0  0  0
  1 10  1  0  0  0  0
  2  3  1  0  0  0  0
  2  7  1  6  0  0  0
  3  4  1  0  0  0  0
  3  8  1  6  0  0  0
  4  5  1  0  0  0  0
  4  9  1  6  0  0  0
  5  6  1  1  0  0  0
  5 10  1  0  0  0  0
  6 11  1  0  0  0  0
 12 13  1  0  0  0  0
 12 17  1  0  0  0  0
 12 18  1  1  0  0  0
 13 14  1  0  0  0  0
 14 15  1  0  0  0  0
 14 19  1  1  0  0  0
 15 16  1  0  0  0  0
 15 21  1  6  0  0  0
 16 17  1  0  0  0  0
 16 20  1  1  0  0  0
 17 22  1  6  0  0  0
 23 21  1  6  0  0  0
 23 24  1  0  0  0  0
 23 32  1  0  0  0  0
 24 25  1  0  0  0  0
 24 29  1  6  0  0  0
 25 26  1  0  0  0  0
 26 27  1  0  0  0  0
 26 31  1  6  0  0  0
 27 28  1  1  0  0  0
 27 32  1  0  0  0  0
 28 30  1  0  0  0  0
M  CHG  5   8   1  18   1  19   1  29   1  30   1
M  END
>  <CHROM.1>
-149.81908283,-52.99989390,-41.40949226,161.62277275,-160.02799394,-136.60967210
54.03438175,65.09718594,-144.67379166,-175.61631918,123.10623074,129.92153540
148.05237954,-178.91064932,71.49241211,63.16900239,-8.05719774,-0.41023811
-8.78359492,0.57485691,0.41173397,-0.36856692

>  <Name>
2tob cryst

>  <RI>
0

>  <Rbt.Current_Directory>
/home/itssahil/PROJECTS/Mol_Feturizer/New_Systems/rnas/2tob

>  <Rbt.Executable>
rbdock ($Id: //depot/dev/client3/rdock/2013.1/src/exe/rbdock.cxx#4 $)

>  <Rbt.Library>
libRbt.so (2013.1, Build901 2013/11/27)

>  <Rbt.Parameter_File>
/export/apps/rDock/src/rDock_2013.1_src/data/scripts/dock_solv.prm

>  <Rbt.Receptor>
prm/blind_docking_40.prm

>  <SCORE>
-39.2573

>  <SCORE.INTER>
-39.2064

>  <SCORE.INTER.CONST>
1

>  <SCORE.INTER.POLAR>
-7.72939

>  <SCORE.INTER.ROT>
6

>  <SCORE.INTER.SOLV>
41.0321

>  <SCORE.INTER.VDW>
-21.6503

>  <SCORE.INTER.norm>
-1.2252

>  <SCORE.INTRA>
-5.95673

>  <SCORE.INTRA.DIHEDRAL>
16.2439

>  <SCORE.INTRA.DIHEDRAL.0>
18.4221

>  <SCORE.INTRA.POLAR>
1.16644

>  <SCORE.INTRA.POLAR.0>
-1.57101

>  <SCORE.INTRA.REPUL>
-0.698911

>  <SCORE.INTRA.REPUL.0>
0.730195

>  <SCORE.INTRA.SOLV>
-3.73886

>  <SCORE.INTRA.SOLV.lig_0>
-127.221

>  <SCORE.INTRA.VDW>
-12.6806

>  <SCORE.INTRA.VDW.0>
10.8385

>  <SCORE.INTRA.norm>
-0.186148

>  <SCORE.RESTR>
5.90583

>  <SCORE.RESTR.CAVITY>
5.90583

>  <SCORE.RESTR.norm>
0.184557

>  <SCORE.SYSTEM>
0

>  <SCORE.SYSTEM.CONST>
0

>  <SCORE.SYSTEM.DIHEDRAL>
0

>  <SCORE.SYSTEM.SOLV>
0

>  <SCORE.SYSTEM.norm>
0

>  <SCORE.heavy>
32

>  <SCORE.norm>
-1.22679

>  <RMSD>
4.013

$$$$
2tob cryst
 OpenBabel11021811463D
libRbt.so/2013.1/901 2013/11/27
 32 34  0  0  0  0  0  0  0  0999 V2000
   -5.9365    1.4994   -9.1900 C   0  0  2  0  0  0  0  0  0  0  0  0
   -5.0413    2.3472  -10.0882 C   0  0  1  0  0  0  0  0  0  0  0  0
   -4.6683    1.5327  -11.3272 C   0  0  2  0  0  0  0  0  0  0  0  0
   -4.0282    0.1959  -10.9301 C   0  0  1  0  0  0  0  0  0  0  0  0
   -4.9268   -0.5382   -9.9288 C   0  0  1  0  0  0  0  0  0  0  0  0
   -4.3200   -1.8090   -9.3569 C   0  0  0  0  0  0  0  0  0  0  0  0
   -5.7263    3.5343  -10.4782 O   0  0  0  0  0  0  0  0  0  0  0  0
   -3.7726    2.1806  -12.3371 N   0  3  0  0  0  0  0  0  0  0  0  0
   -3.8541   -0.5980  -12.0969 O   0  0  0  0  0  0  0  0  0  0  0  0
   -5.2347    0.3281   -8.8185 O   0  0  0  0  0  0  0  0  0  0  0  0
   -5.2259   -2.4444   -8.4607 O   0  0  0  0  0  0  0  0  0  0  0  0
   -9.3612    1.8791   -9.3902 C   0  0  2  0  0  0  0  0  0  0  0  0
  -10.7550    1.4754   -8.8909 C   0  0  0  0  0  0  0  0  0  0  0  0
  -11.1534    0.0784   -9.3589 C   0  0  1  0  0  0  0  0  0  0  0  0
  -10.0964   -0.9084   -8.8824 C   0  0  2  0  0  0  0  0  0  0  0  0
   -8.7565   -0.5801   -9.5456 C   0  0  1  0  0  0  0  0  0  0  0  0
   -8.2771    0.8215   -9.1288 C   0  0  1  0  0  0  0  0  0  0  0  0
   -8.9337    3.1786   -8.7708 N   0  3  0  0  0  0  0  0  0  0  0  0
  -12.5153   -0.2911   -8.8522 N   0  3  0  0  0  0  0  0  0  0  0  0
   -7.7949   -1.5600   -9.1754 O   0  0  0  0  0  0  0  0  0  0  0  0
  -10.4856   -2.2570   -9.2007 O   0  0  0  0  0  0  0  0  0  0  0  0
   -7.1082    1.1845   -9.8928 O   0  0  0  0  0  0  0  0  0  0  0  0
  -10.3105   -3.1531   -8.1383 C   0  0  2  0  0  0  0  0  0  0  0  0
  -11.5891   -3.2207   -7.2965 C   0  0  1  0  0  0  0  0  0  0  0  0
  -11.7503   -1.9635   -6.4415 C   0  0  0  0  0  0  0  0  0  0  0  0
  -10.4792   -1.7478   -5.6360 C   0  0  1  0  0  0  0  0  0  0  0  0
   -9.3013   -1.6208   -6.5863 C   0  0  1  0  0  0  0  0  0  0  0  0
   -7.9990   -1.3972   -5.8393 C   0  0  0  0  0  0  0  0  0  0  0  0
  -12.7749   -3.3588   -8.2010 N   0  3  0  0  0  0  0  0  0  0  0  0
   -7.7341   -2.6117   -4.9920 N   0  3  0  0  0  0  0  0  0  0  0  0
  -10.5907   -0.5752   -4.8419 O   0  0  0  0  0  0  0  0  0  0  0  0
   -9.1712   -2.8341   -7.3465 O   0  0  0  0  0  0  0  0  0  0  0  0
  1  2  1  0  0  0  0
  1 22  1  6  0  0  0
  1 10  1  0  0  0  0
  2  3  1  0  0  0  0
  2  7  1  6  0  0  0
  3  4  1  0  0  0  0
  3  8  1  6  0  0  0
  4  5  1  0  0  0  0
  4  9  1  6  0  0  0
  5  6  1  1  0  0  0
  5 10  1  0  0  0  0
  6 11  1  0  0  0  0
 12 13  1  0  0  0  0
 12 17  1  0  0  0  0
 12 18  1  1  0  0  0
 13 14  1  0  0  0  0
 14 15  1  0  0  0  0
 14 19  1  1  0  0  0
 15 16  1  0  0  0  0
 15 21  1  6  0  0  0
 16 17  1  0  0  0  0
 16 20  1  1  0  0  0
 17 22  1  6  0  0  0
 23 21  1  6  0  0  0
 23 24  1  0  0  0  0
 23 32  1  0  0  0  0
 24 25  1  0  0  0  0
 24 29  1  6  0  0  0
 25 26  1  0  0  0  0
 26 27  1  0  0  0  0
 26 31  1  6  0  0  0
 27 28  1  1  0  0  0
 27 32  1  0  0  0  0
 28 30  1  0  0  0  0
M  CHG  5   8   1  18   1  19   1  29   1  30   1
M  END
>  <CHROM.1>
-158.18141438,173.57111633,-36.21828423,-28.59181816,-178.73928031,-166.06171000
-81.92131279,-45.89252158,-134.23118636,-77.36158296,116.55924184,90.66262050
-16.66420480,176.12456079,63.24747433,-111.36696241,-8.09654844,-0.41535964
-8.73020990,0.60922593,0.23405319,-0.54282071

>  <Name>
2tob cryst

>  <RI>
0

>  <Rbt.Current_Directory>
/home/itssahil/PROJECTS/Mol_Feturizer/New_Systems/rnas/2tob

>  <Rbt.Executable>
rbdock ($Id: //depot/dev/client3/rdock/2013.1/src/exe/rbdock.cxx#4 $)

>  <Rbt.Library>
libRbt.so (2013.1, Build901 2013/11/27)

>  <Rbt.Parameter_File>
/export/apps/rDock/src/rDock_2013.1_src/data/scripts/dock_solv.prm

>  <Rbt.Receptor>
prm/blind_docking_40.prm

>  <SCORE>
-20.2733

>  <SCORE.INTER>
-26.7802

>  <SCORE.INTER.CONST>
1

>  <SCORE.INTER.POLAR>
-6.44132

>  <SCORE.INTER.ROT>
6

>  <SCORE.INTER.SOLV>
42.4687

>  <SCORE.INTER.VDW>
-18.1386

>  <SCORE.INTER.norm>
-0.836881

>  <SCORE.INTRA>
4.32473

>  <SCORE.INTRA.DIHEDRAL>
16.467

>  <SCORE.INTRA.DIHEDRAL.0>
18.4221

>  <SCORE.INTRA.POLAR>
1.28934

>  <SCORE.INTRA.POLAR.0>
-1.57101

>  <SCORE.INTRA.REPUL>
-0.401645

>  <SCORE.INTRA.REPUL.0>
0.730195

>  <SCORE.INTRA.SOLV>
2.3775

>  <SCORE.INTRA.SOLV.lig_0>
-127.221

>  <SCORE.INTRA.VDW>
-7.47303

>  <SCORE.INTRA.VDW.0>
10.8385

>  <SCORE.INTRA.norm>
0.135148

>  <SCORE.RESTR>
2.18215

>  <SCORE.RESTR.CAVITY>
2.18215

>  <SCORE.RESTR.norm>
0.0681921

>  <SCORE.SYSTEM>
0

>  <SCORE.SYSTEM.CONST>
0

>  <SCORE.SYSTEM.DIHEDRAL>
0

>  <SCORE.SYSTEM.SOLV>
0

>  <SCORE.SYSTEM.norm>
0

>  <SCORE.heavy>
32

>  <SCORE.norm>
-0.633541

>  <RMSD>
4.036

$$$$
2tob cryst
 OpenBabel11021811463D
libRbt.so/2013.1/901 2013/11/27
 32 34  0  0  0  0  0  0  0  0999 V2000
   -7.2325   -0.5399   -8.4013 C   0  0  2  0  0  0  0  0  0  0  0  0
   -7.9634    0.3111   -7.3676 C   0  0  1  0  0  0  0  0  0  0  0  0
   -8.6778    1.4571   -8.0845 C   0  0  2  0  0  0  0  0  0  0  0  0
   -7.6930    2.2648   -8.9402 C   0  0  1  0  0  0  0  0  0  0  0  0
   -6.9068    1.3254   -9.8613 C   0  0  1  0  0  0  0  0  0  0  0  0
   -5.7994    2.0042  -10.6508 C   0  0  0  0  0  0  0  0  0  0  0  0
   -8.9126   -0.4853   -6.6637 O   0  0  0  0  0  0  0  0  0  0  0  0
   -9.4466    2.4276   -7.2425 N   0  3  0  0  0  0  0  0  0  0  0  0
   -8.4210    3.2073   -9.7174 O   0  0  0  0  0  0  0  0  0  0  0  0
   -6.2985    0.2733   -9.0859 O   0  0  0  0  0  0  0  0  0  0  0  0
   -4.7756    2.4788   -9.7824 O   0  0  0  0  0  0  0  0  0  0  0  0
   -8.0309   -2.9487   -7.7707 C   0  0  2  0  0  0  0  0  0  0  0  0
   -8.7671   -4.0858   -7.0497 C   0  0  0  0  0  0  0  0  0  0  0  0
  -10.1735   -3.6799   -6.6175 C   0  0  1  0  0  0  0  0  0  0  0  0
  -10.9437   -3.2267   -7.8501 C   0  0  2  0  0  0  0  0  0  0  0  0
  -10.2788   -1.9788   -8.4365 C   0  0  1  0  0  0  0  0  0  0  0  0
   -8.8462   -2.2976   -8.8991 C   0  0  1  0  0  0  0  0  0  0  0  0
   -6.7256   -3.4359   -8.3313 N   0  3  0  0  0  0  0  0  0  0  0  0
  -10.8702   -4.8107   -5.9217 N   0  3  0  0  0  0  0  0  0  0  0  0
  -11.0543   -1.5008   -9.5283 O   0  0  0  0  0  0  0  0  0  0  0  0
  -12.3134   -2.9416   -7.5121 O   0  0  0  0  0  0  0  0  0  0  0  0
   -8.1763   -1.0798   -9.2864 O   0  0  0  0  0  0  0  0  0  0  0  0
  -13.1624   -2.8874   -8.6251 C   0  0  2  0  0  0  0  0  0  0  0  0
  -14.6115   -2.6920   -8.1670 C   0  0  1  0  0  0  0  0  0  0  0  0
  -15.1789   -3.9827   -7.5755 C   0  0  0  0  0  0  0  0  0  0  0  0
  -14.9834   -5.1115   -8.5748 C   0  0  1  0  0  0  0  0  0  0  0  0
  -13.5036   -5.2518   -8.8864 C   0  0  1  0  0  0  0  0  0  0  0  0
  -13.2425   -6.3710   -9.8781 C   0  0  0  0  0  0  0  0  0  0  0  0
  -14.6661   -1.6089   -7.1337 N   0  3  0  0  0  0  0  0  0  0  0  0
  -12.8027   -7.5843   -9.1052 N   0  3  0  0  0  0  0  0  0  0  0  0
  -15.4860   -6.3309   -8.0471 O   0  0  0  0  0  0  0  0  0  0  0  0
  -13.0219   -4.0275   -9.4660 O   0  0  0  0  0  0  0  0  0  0  0  0
  1  2  1  0  0  0  0
  1 22  1  6  0  0  0
  1 10  1  0  0  0  0
  2  3  1  0  0  0  0
  2  7  1  6  0  0  0
  3  4  1  0  0  0  0
  3  8  1  1  0  0  0
  4  5  1  0  0  0  0
  4  9  1  6  0  0  0
  5  6  1  1  0  0  0
  5 10  1  0  0  0  0
  6 11  1  0  0  0  0
 12 13  1  0  0  0  0
 12 17  1  0  0  0  0
 12 18  1  6  0  0  0
 13 14  1  0  0  0  0
 14 15  1  0  0  0  0
 14 19  1  6  0  0  0
 15 16  1  0  0  0  0
 15 21  1  1  0  0  0
 16 17  1  0  0  0  0
 16 20  1  6  0  0  0
 17 22  1  1  0  0  0
 23 21  1  1  0  0  0
 23 24  1  0  0  0  0
 23 32  1  0  0  0  0
 24 25  1  0  0  0  0
 24 29  1  1  0  0  0
 25 26  1  0  0  0  0
 26 27  1  0  0  0  0
 26 31  1  1  0  0  0
 27 28  1  6  0  0  0
 27 32  1  0  0  0  0
 28 30  1  0  0  0  0
M  CHG  5   8   1  18   1  19   1  29   1  30   1
M  END
>  <CHROM.1>
-84.28622001,179.17142599,-174.60796682,60.95803109,65.82665834,76.94694012
-71.06253121,68.88718616,-163.04473702,79.41812141,-17.47273111,175.49557008
-78.60368788,174.86645179,-99.08717198,-64.64693073,-10.28106442,-1.96451958
-8.37690486,-0.75367602,-0.07000983,3.09886874

>  <Name>
2tob cryst

>  <RI>
0

>  <Rbt.Current_Directory>
/home/itssahil/PROJECTS/Mol_Feturizer/New_Systems/rnas/2tob

>  <Rbt.Executable>
rbdock ($Id: //depot/dev/client3/rdock/2013.1/src/exe/rbdock.cxx#4 $)

>  <Rbt.Library>
libRbt.so (2013.1, Build901 2013/11/27)

>  <Rbt.Parameter_File>
/export/apps/rDock/src/rDock_2013.1_src/data/scripts/dock_solv.prm

>  <Rbt.Receptor>
prm/pocket_docking_6.prm

>  <SCORE>
-43.9237

>  <SCORE.INTER>
-33.4561

>  <SCORE.INTER.CONST>
1

>  <SCORE.INTER.POLAR>
-3.85373

>  <SCORE.INTER.ROT>
6

>  <SCORE.INTER.SOLV>
36.1409

>  <SCORE.INTER.VDW>
-29.1053

>  <SCORE.INTER.norm>
-1.0455

>  <SCORE.INTRA>
-10.4763

>  <SCORE.INTRA.DIHEDRAL>
0.090085

>  <SCORE.INTRA.DIHEDRAL.0>
18.4221

>  <SCORE.INTRA.POLAR>
1.55061

>  <SCORE.INTRA.POLAR.0>
-1.57101

>  <SCORE.INTRA.REPUL>
-0.730195

>  <SCORE.INTRA.REPUL.0>
0.730195

>  <SCORE.INTRA.SOLV>
-6.23213

>  <SCORE.INTRA.SOLV.lig_0>
-127.221

>  <SCORE.INTRA.VDW>
-9.02638

>  <SCORE.INTRA.VDW.0>
10.8385

>  <SCORE.INTRA.norm>
-0.327384

>  <SCORE.RESTR>
0.0086412

>  <SCORE.RESTR.CAVITY>
0.0086412

>  <SCORE.RESTR.norm>
0.000270038

>  <SCORE.SYSTEM>
0

>  <SCORE.SYSTEM.CONST>
0

>  <SCORE.SYSTEM.DIHEDRAL>
0

>  <SCORE.SYSTEM.SOLV>
0

>  <SCORE.SYSTEM.norm>
0

>  <SCORE.heavy>
32

>  <SCORE.norm>
-1.37262

>  <RMSD>
4.042

$$$$
2tob cryst
 OpenBabel11021811463D
libRbt.so/2013.1/901 2013/11/27
 32 34  0  0  0  0  0  0  0  0999 V2000
   -6.7317   -0.2534   -7.8738 C   0  0  2  0  0  0  0  0  0  0  0  0
   -6.8666    1.2569   -8.0404 C   0  0  1  0  0  0  0  0  0  0  0  0
   -6.7440    1.6049   -9.5242 C   0  0  2  0  0  0  0  0  0  0  0  0
   -5.4389    1.0497  -10.1097 C   0  0  1  0  0  0  0  0  0  0  0  0
   -5.3155   -0.4443   -9.7909 C   0  0  1  0  0  0  0  0  0  0  0  0
   -3.9895   -1.0647  -10.1994 C   0  0  0  0  0  0  0  0  0  0  0  0
   -8.1302    1.6910   -7.5448 O   0  0  0  0  0  0  0  0  0  0  0  0
   -6.8318    3.0502   -9.9053 N   0  3  0  0  0  0  0  0  0  0  0  0
   -5.4440    1.2453  -11.5182 O   0  0  0  0  0  0  0  0  0  0  0  0
   -5.4714   -0.6584   -8.3738 O   0  0  0  0  0  0  0  0  0  0  0  0
   -3.5152   -0.4928  -11.4142 O   0  0  0  0  0  0  0  0  0  0  0  0
   -8.1749   -1.7850   -6.3743 C   0  0  2  0  0  0  0  0  0  0  0  0
   -9.1613   -2.4757   -5.4230 C   0  0  0  0  0  0  0  0  0  0  0  0
  -10.5930   -1.9850   -5.6204 C   0  0  1  0  0  0  0  0  0  0  0  0
  -10.9845   -2.2154   -7.0735 C   0  0  2  0  0  0  0  0  0  0  0  0
  -10.0920   -1.3669   -7.9828 C   0  0  1  0  0  0  0  0  0  0  0  0
   -8.6202   -1.7944   -7.8452 C   0  0  1  0  0  0  0  0  0  0  0  0
   -6.8147   -2.4133   -6.2729 N   0  3  0  0  0  0  0  0  0  0  0  0
  -11.5343   -2.6802   -4.6830 N   0  3  0  0  0  0  0  0  0  0  0  0
  -10.5223   -1.5086   -9.3306 O   0  0  0  0  0  0  0  0  0  0  0  0
  -12.3669   -1.8739   -7.2835 O   0  0  0  0  0  0  0  0  0  0  0  0
   -7.7759   -0.8769   -8.5714 O   0  0  0  0  0  0  0  0  0  0  0  0
  -12.8464   -2.2428   -8.5470 C   0  0  2  0  0  0  0  0  0  0  0  0
  -13.9743   -1.2973   -8.9735 C   0  0  1  0  0  0  0  0  0  0  0  0
  -15.2609   -1.5951   -8.2032 C   0  0  0  0  0  0  0  0  0  0  0  0
  -15.5919   -3.0718   -8.3468 C   0  0  1  0  0  0  0  0  0  0  0  0
  -14.4307   -3.8974   -7.8206 C   0  0  1  0  0  0  0  0  0  0  0  0
  -14.7045   -5.3862   -7.9321 C   0  0  0  0  0  0  0  0  0  0  0  0
  -13.5611    0.1194   -8.7169 N   0  3  0  0  0  0  0  0  0  0  0  0
  -14.3722   -5.8168   -9.3346 N   0  3  0  0  0  0  0  0  0  0  0  0
  -16.7757   -3.3850   -7.6267 O   0  0  0  0  0  0  0  0  0  0  0  0
  -13.2529   -3.6064   -8.5920 O   0  0  0  0  0  0  0  0  0  0  0  0
  1  2  1  0  0  0  0
  1 22  1  6  0  0  0
  1 10  1  0  0  0  0
  2  3  1  0  0  0  0
  2  7  1  6  0  0  0
  3  4  1  0  0  0  0
  3  8  1  1  0  0  0
  4  5  1  0  0  0  0
  4  9  1  6  0  0  0
  5  6  1  1  0  0  0
  5 10  1  0  0  0  0
  6 11  1  0  0  0  0
 12 13  1  0  0  0  0
 12 17  1  0  0  0  0
 12 18  1  6  0  0  0
 13 14  1  0  0  0  0
 14 15  1  0  0  0  0
 14 19  1  1  0  0  0
 15 16  1  0  0  0  0
 15 21  1  1  0  0  0
 16 17  1  0  0  0  0
 16 20  1  6  0  0  0
 17 22  1  6  0  0  0
 23 21  1  1  0  0  0
 23 24  1  0  0  0  0
 23 32  1  0  0  0  0
 24 25  1  0  0  0  0
 24 29  1  1  0  0  0
 25 26  1  0  0  0  0
 26 27  1  0  0  0  0
 26 31  1  1  0  0  0
 27 28  1  6  0  0  0
 27 32  1  0  0  0  0
 28 30  1  0  0  0  0
M  CHG  5   8   1  18   1  19   1  29   1  30   1
M  END
>  <CHROM.1>
-125.22972988,-57.31864163,-50.28114820,70.38931774,-35.99687263,179.83227220
93.16739210,-174.16169590,-171.26677339,-61.57806000,3.52679644,-151.55251664
-40.99775747,63.81563511,82.65679842,-166.99694987,-9.86469711,-1.36918207
-8.30595922,-0.38426680,0.18420943,2.29791604

>  <Name>
2tob cryst

>  <RI>
0

>  <Rbt.Current_Directory>
/home/itssahil/PROJECTS/Mol_Feturizer/New_Systems/rnas/2tob

>  <Rbt.Executable>
rbdock ($Id: //depot/dev/client3/rdock/2013.1/src/exe/rbdock.cxx#4 $)

>  <Rbt.Library>
libRbt.so (2013.1, Build901 2013/11/27)

>  <Rbt.Parameter_File>
/export/apps/rDock/src/rDock_2013.1_src/data/scripts/dock_solv.prm

>  <Rbt.Receptor>
prm/blind_docking_80.prm

>  <SCORE>
-21.5744

>  <SCORE.INTER>
-23.703

>  <SCORE.INTER.CONST>
1

>  <SCORE.INTER.POLAR>
-5.14542

>  <SCORE.INTER.ROT>
6

>  <SCORE.INTER.SOLV>
42.2238

>  <SCORE.INTER.VDW>
-20.3252

>  <SCORE.INTER.norm>
-0.740719

>  <SCORE.INTRA>
-4.17173

>  <SCORE.INTRA.DIHEDRAL>
7.27982

>  <SCORE.INTRA.DIHEDRAL.0>
18.4221

>  <SCORE.INTRA.POLAR>
1.0578

>  <SCORE.INTRA.POLAR.0>
-1.57101

>  <SCORE.INTRA.REPUL>
-0.730195

>  <SCORE.INTRA.REPUL.0>
0.730195

>  <SCORE.INTRA.SOLV>
-5.21959

>  <SCORE.INTRA.SOLV.lig_0>
-127.221

>  <SCORE.INTRA.VDW>
-5.14738

>  <SCORE.INTRA.VDW.0>
10.8385

>  <SCORE.INTRA.norm>
-0.130366

>  <SCORE.RESTR>
6.30035

>  <SCORE.RESTR.CAVITY>
6.30035

>  <SCORE.RESTR.norm>
0.196886

>  <SCORE.SYSTEM>
0

>  <SCORE.SYSTEM.CONST>
0

>  <SCORE.SYSTEM.DIHEDRAL>
0

>  <SCORE.SYSTEM.SOLV>
0

>  <SCORE.SYSTEM.norm>
0

>  <SCORE.heavy>
32

>  <SCORE.norm>
-0.674199

>  <RMSD>
4.048

$$$$
2tob cryst
 OpenBabel11021811463D
libRbt.so/2013.1/901 2013/11/27
 32 34  0  0  0  0  0  0  0  0999 V2000
   -7.1383   -0.3298   -8.1726 C   0  0  2  0  0  0  0  0  0  0  0  0
   -8.0266    0.7182   -7.5097 C   0  0  1  0  0  0  0  0  0  0  0  0
   -8.3838    1.7892   -8.5408 C   0  0  2  0  0  0  0  0  0  0  0  0
   -7.1178    2.3854   -9.1703 C   0  0  1  0  0  0  0  0  0  0  0  0
   -6.2175    1.2635   -9.6992 C   0  0  1  0  0  0  0  0  0  0  0  0
   -4.8671    1.7341  -10.2142 C   0  0  0  0  0  0  0  0  0  0  0  0
   -9.2155    0.1074   -7.0155 O   0  0  0  0  0  0  0  0  0  0  0  0
   -9.2421    2.9286   -8.0858 N   0  3  0  0  0  0  0  0  0  0  0  0
   -7.4939    3.2477  -10.2368 O   0  0  0  0  0  0  0  0  0  0  0  0
   -5.9673    0.3015   -8.6551 O   0  0  0  0  0  0  0  0  0  0  0  0
   -5.0196    2.8366  -11.1025 O   0  0  0  0  0  0  0  0  0  0  0  0
   -7.8007   -2.9268   -7.8675 C   0  0  2  0  0  0  0  0  0  0  0  0
   -8.5926   -4.0800   -7.2364 C   0  0  0  0  0  0  0  0  0  0  0  0
   -9.9710   -3.6371   -6.7537 C   0  0  1  0  0  0  0  0  0  0  0  0
  -10.7250   -3.0393   -7.9336 C   0  0  2  0  0  0  0  0  0  0  0  0
   -9.9973   -1.7836   -8.4203 C   0  0  1  0  0  0  0  0  0  0  0  0
   -8.5880   -2.1387   -8.9262 C   0  0  1  0  0  0  0  0  0  0  0  0
   -6.5287   -3.4341   -8.4837 N   0  3  0  0  0  0  0  0  0  0  0  0
  -10.7232   -4.7839   -6.1477 N   0  3  0  0  0  0  0  0  0  0  0  0
  -10.7539   -1.1729   -9.4578 O   0  0  0  0  0  0  0  0  0  0  0  0
  -12.0742   -2.7105   -7.5554 O   0  0  0  0  0  0  0  0  0  0  0  0
   -7.8554   -0.9302   -9.2172 O   0  0  0  0  0  0  0  0  0  0  0  0
  -12.9663   -2.6892   -8.6355 C   0  0  2  0  0  0  0  0  0  0  0  0
  -14.4089   -2.6534   -8.1201 C   0  0  1  0  0  0  0  0  0  0  0  0
  -14.8296   -4.0170   -7.5713 C   0  0  0  0  0  0  0  0  0  0  0  0
  -14.5669   -5.0772   -8.6286 C   0  0  1  0  0  0  0  0  0  0  0  0
  -13.0934   -5.0617   -8.9962 C   0  0  1  0  0  0  0  0  0  0  0  0
  -12.7661   -6.1064  -10.0476 C   0  0  0  0  0  0  0  0  0  0  0  0
  -14.5257   -1.6267   -7.0358 N   0  3  0  0  0  0  0  0  0  0  0  0
  -13.5811   -5.8025  -11.2750 N   0  3  0  0  0  0  0  0  0  0  0  0
  -14.9324   -6.3610   -8.1423 O   0  0  0  0  0  0  0  0  0  0  0  0
  -12.7512   -3.7728   -9.5334 O   0  0  0  0  0  0  0  0  0  0  0  0
  1  2  1  0  0  0  0
  1 22  1  6  0  0  0
  1 10  1  0  0  0  0
  2  3  1  0  0  0  0
  2  7  1  6  0  0  0
  3  4  1  0  0  0  0
  3  8  1  1  0  0  0
  4  5  1  0  0  0  0
  4  9  1  6  0  0  0
  5  6  1  1  0  0  0
  5 10  1  0  0  0  0
  6 11  1  0  0  0  0
 12 13  1  0  0  0  0
 12 17  1  0  0  0  0
 12 18  1  6  0  0  0
 13 14  1  0  0  0  0
 14 15  1  0  0  0  0
 14 19  1  6  0  0  0
 15 16  1  0  0  0  0
 15 21  1  1  0  0  0
 16 17  1  0  0  0  0
 16 20  1  6  0  0  0
 17 22  1  1  0  0  0
 23 21  1  1  0  0  0
 23 24  1  0  0  0  0
 23 32  1  0  0  0  0
 24 25  1  0  0  0  0
 24 29  1  1  0  0  0
 25 26  1  0  0  0  0
 26 27  1  0  0  0  0
 26 31  1  1  0  0  0
 27 28  1  6  0  0  0
 27 32  1  0  0  0  0
 28 30  1  0  0  0  0
M  CHG  5   8   1  18   1  19   1  29   1  30   1
M  END
>  <CHROM.1>
-92.89444788,72.56175299,-170.74865939,60.47340815,-48.77408180,-170.43017775
-175.76591394,-167.45110030,-155.09209275,-146.02541723,-33.62521530,167.07988705
155.71286968,-57.30621803,60.09336738,-74.55942260,-10.02926497,-1.75377407
-8.58850153,-0.73397041,-0.06470598,3.08196293

>  <Name>
2tob cryst

>  <RI>
2.04895e+07

>  <Rbt.Current_Directory>
/home/itssahil/PROJECTS/Mol_Feturizer/New_Systems/rnas/2tob

>  <Rbt.Executable>
rbdock ($Id: //depot/dev/client3/rdock/2013.1/src/exe/rbdock.cxx#4 $)

>  <Rbt.Library>
libRbt.so (2013.1, Build901 2013/11/27)

>  <Rbt.Parameter_File>
/export/apps/rDock/src/rDock_2013.1_src/data/scripts/dock_solv.prm

>  <Rbt.Receptor>
prm/blind_docking_20.prm

>  <SCORE>
-30.4307

>  <SCORE.INTER>
-22.1464

>  <SCORE.INTER.CONST>
1

>  <SCORE.INTER.POLAR>
-4.81628

>  <SCORE.INTER.ROT>
6

>  <SCORE.INTER.SOLV>
42.7203

>  <SCORE.INTER.VDW>
-20.5501

>  <SCORE.INTER.norm>
-0.692074

>  <SCORE.INTRA>
-10.8697

>  <SCORE.INTRA.DIHEDRAL>
0.693104

>  <SCORE.INTRA.DIHEDRAL.0>
18.4221

>  <SCORE.INTRA.POLAR>
1.45572

>  <SCORE.INTRA.POLAR.0>
-1.57101

>  <SCORE.INTRA.REPUL>
-0.730195

>  <SCORE.INTRA.REPUL.0>
0.730195

>  <SCORE.INTRA.SOLV>
-5.76242

>  <SCORE.INTRA.SOLV.lig_0>
-127.221

>  <SCORE.INTRA.VDW>
-9.63345

>  <SCORE.INTRA.VDW.0>
10.8385

>  <SCORE.INTRA.norm>
-0.339677

>  <SCORE.RESTR>
2.58536

>  <SCORE.RESTR.CAVITY>
2.58536

>  <SCORE.RESTR.norm>
0.0807924

>  <SCORE.SYSTEM>
0

>  <SCORE.SYSTEM.CONST>
0

>  <SCORE.SYSTEM.DIHEDRAL>
0

>  <SCORE.SYSTEM.SOLV>
0

>  <SCORE.SYSTEM.norm>
0

>  <SCORE.heavy>
32

>  <SCORE.norm>
-0.950958

>  <RMSD>
4.051

$$$$
2tob cryst
 OpenBabel11021811463D
libRbt.so/2013.1/901 2013/11/27
 32 34  0  0  0  0  0  0  0  0999 V2000
   -7.1751   -0.3958   -8.3744 C   0  0  2  0  0  0  0  0  0  0  0  0
   -7.9344    0.4348   -7.3445 C   0  0  1  0  0  0  0  0  0  0  0  0
   -8.6361    1.5900   -8.0592 C   0  0  2  0  0  0  0  0  0  0  0  0
   -7.6341    2.4158   -8.8769 C   0  0  1  0  0  0  0  0  0  0  0  0
   -6.8218    1.4953   -9.7943 C   0  0  1  0  0  0  0  0  0  0  0  0
   -5.6985    2.1915  -10.5450 C   0  0  0  0  0  0  0  0  0  0  0  0
   -8.8971   -0.3771   -6.6776 O   0  0  0  0  0  0  0  0  0  0  0  0
   -9.4291    2.5431   -7.2199 N   0  3  0  0  0  0  0  0  0  0  0  0
   -8.3470    3.3686   -9.6556 O   0  0  0  0  0  0  0  0  0  0  0  0
   -6.2281    0.4325   -9.0222 O   0  0  0  0  0  0  0  0  0  0  0  0
   -5.1701    1.3478  -11.5631 O   0  0  0  0  0  0  0  0  0  0  0  0
   -7.8172   -2.8888   -7.9221 C   0  0  2  0  0  0  0  0  0  0  0  0
   -8.4731   -4.1220   -7.2864 C   0  0  0  0  0  0  0  0  0  0  0  0
   -9.8986   -3.8410   -6.8192 C   0  0  1  0  0  0  0  0  0  0  0  0
  -10.7070   -3.3466   -8.0109 C   0  0  2  0  0  0  0  0  0  0  0  0
  -10.1282   -2.0179   -8.5036 C   0  0  1  0  0  0  0  0  0  0  0  0
   -8.6823   -2.2082   -8.9947 C   0  0  1  0  0  0  0  0  0  0  0  0
   -6.4885   -3.2475   -8.5231 N   0  3  0  0  0  0  0  0  0  0  0  0
  -10.5157   -5.0634   -6.2084 N   0  3  0  0  0  0  0  0  0  0  0  0
  -10.9421   -1.5097   -9.5531 O   0  0  0  0  0  0  0  0  0  0  0  0
  -12.0890   -3.1763   -7.6469 O   0  0  0  0  0  0  0  0  0  0  0  0
   -8.0948   -0.9242   -9.2912 O   0  0  0  0  0  0  0  0  0  0  0  0
  -12.9370   -2.9958   -8.7473 C   0  0  2  0  0  0  0  0  0  0  0  0
  -14.3982   -2.9986   -8.2860 C   0  0  1  0  0  0  0  0  0  0  0  0
  -14.8610   -4.4135   -7.9376 C   0  0  0  0  0  0  0  0  0  0  0  0
  -14.5727   -5.3313   -9.1146 C   0  0  1  0  0  0  0  0  0  0  0  0
  -13.0856   -5.2976   -9.4216 C   0  0  1  0  0  0  0  0  0  0  0  0
  -12.7327   -6.2020  -10.5884 C   0  0  0  0  0  0  0  0  0  0  0  0
  -14.5425   -2.1205   -7.0811 N   0  3  0  0  0  0  0  0  0  0  0  0
  -11.7079   -7.1957  -10.1136 N   0  3  0  0  0  0  0  0  0  0  0  0
  -14.9765   -6.6600   -8.8155 O   0  0  0  0  0  0  0  0  0  0  0  0
  -12.7029   -3.9567   -9.7713 O   0  0  0  0  0  0  0  0  0  0  0  0
  1  2  1  0  0  0  0
  1 22  1  6  0  0  0
  1 10  1  0  0  0  0
  2  3  1  0  0  0  0
  2  7  1  6  0  0  0
  3  4  1  0  0  0  0
  3  8  1  1  0  0  0
  4  5  1  0  0  0  0
  4  9  1  6  0  0  0
  5  6  1  1  0  0  0
  5 10  1  0  0  0  0
  6 11  1  0  0  0  0
 12 13  1  0  0  0  0
 12 17  1  0  0  0  0
 12 18  1  6  0  0  0
 13 14  1  0  0  0  0
 14 15  1  0  0  0  0
 14 19  1  6  0  0  0
 15 16  1  0  0  0  0
 15 21  1  1  0  0  0
 16 17  1  0  0  0  0
 16 20  1  6  0  0  0
 17 22  1  1  0  0  0
 23 21  1  1  0  0  0
 23 24  1  0  0  0  0
 23 32  1  0  0  0  0
 24 25  1  0  0  0  0
 24 29  1  1  0  0  0
 25 26  1  0  0  0  0
 26 27  1  0  0  0  0
 26 31  1  1  0  0  0
 27 28  1  6  0  0  0
 27 32  1  0  0  0  0
 28 30  1  0  0  0  0
M  CHG  5   8   1  18   1  19   1  29   1  30   1
M  END
>  <CHROM.1>
-89.53922715,66.06306230,47.38782609,-33.39371032,-168.33568537,-70.99485365
68.69762739,-168.17015175,-167.41897039,-171.50848114,-17.18971400,172.96541828
-66.63877699,63.43484263,-122.45687592,45.14851751,-10.07070909,-2.01462689
-8.61862295,-0.77511067,-0.17207116,-3.04899497

>  <Name>
2tob cryst

>  <RI>
2.04895e+07

>  <Rbt.Current_Directory>
/home/itssahil/PROJECTS/Mol_Feturizer/New_Systems/rnas/2tob

>  <Rbt.Executable>
rbdock ($Id: //depot/dev/client3/rdock/2013.1/src/exe/rbdock.cxx#4 $)

>  <Rbt.Library>
libRbt.so (2013.1, Build901 2013/11/27)

>  <Rbt.Parameter_File>
/export/apps/rDock/src/rDock_2013.1_src/data/scripts/dock_solv.prm

>  <Rbt.Receptor>
prm/blind_docking_20.prm

>  <SCORE>
-51.7058

>  <SCORE.INTER>
-43.8648

>  <SCORE.INTER.CONST>
1

>  <SCORE.INTER.POLAR>
-5.82434

>  <SCORE.INTER.ROT>
6

>  <SCORE.INTER.SOLV>
40.2414

>  <SCORE.INTER.VDW>
-30.8425

>  <SCORE.INTER.norm>
-1.37078

>  <SCORE.INTRA>
-10.9021

>  <SCORE.INTRA.DIHEDRAL>
3.52283

>  <SCORE.INTRA.DIHEDRAL.0>
18.4221

>  <SCORE.INTRA.POLAR>
1.53758

>  <SCORE.INTRA.POLAR.0>
-1.57101

>  <SCORE.INTRA.REPUL>
-0.730195

>  <SCORE.INTRA.REPUL.0>
0.730195

>  <SCORE.INTRA.SOLV>
-8.96572

>  <SCORE.INTRA.SOLV.lig_0>
-127.221

>  <SCORE.INTRA.VDW>
-9.75744

>  <SCORE.INTRA.VDW.0>
10.8385

>  <SCORE.INTRA.norm>
-0.34069

>  <SCORE.RESTR>
3.06111

>  <SCORE.RESTR.CAVITY>
3.06111

>  <SCORE.RESTR.norm>
0.0956596

>  <SCORE.SYSTEM>
0

>  <SCORE.SYSTEM.CONST>
0

>  <SCORE.SYSTEM.DIHEDRAL>
0

>  <SCORE.SYSTEM.SOLV>
0

>  <SCORE.SYSTEM.norm>
0

>  <SCORE.heavy>
32

>  <SCORE.norm>
-1.61581

>  <RMSD>
4.061

$$$$
2tob cryst
 OpenBabel11021811463D
libRbt.so/2013.1/901 2013/11/27
 32 34  0  0  0  0  0  0  0  0999 V2000
   -6.7743   -0.0670   -8.3931 C   0  0  2  0  0  0  0  0  0  0  0  0
   -6.6366    1.4415   -8.5733 C   0  0  1  0  0  0  0  0  0  0  0  0
   -6.1585    1.7292   -9.9968 C   0  0  2  0  0  0  0  0  0  0  0  0
   -4.8626    0.9665  -10.3025 C   0  0  1  0  0  0  0  0  0  0  0  0
   -5.0402   -0.5203   -9.9757 C   0  0  1  0  0  0  0  0  0  0  0  0
   -3.7707   -1.3461  -10.1044 C   0  0  0  0  0  0  0  0  0  0  0  0
   -7.8925    2.0760   -8.3477 O   0  0  0  0  0  0  0  0  0  0  0  0
   -5.9411    3.1608  -10.3775 N   0  3  0  0  0  0  0  0  0  0  0  0
   -4.5469    1.1250  -11.6800 O   0  0  0  0  0  0  0  0  0  0  0  0
   -5.5161   -0.6723   -8.6234 O   0  0  0  0  0  0  0  0  0  0  0  0
   -2.8589   -0.7358  -11.0121 O   0  0  0  0  0  0  0  0  0  0  0  0
   -7.7900   -2.3800   -7.7390 C   0  0  2  0  0  0  0  0  0  0  0  0
   -8.6359   -3.4464   -7.0303 C   0  0  0  0  0  0  0  0  0  0  0  0
  -10.0282   -2.9342   -6.6718 C   0  0  1  0  0  0  0  0  0  0  0  0
  -10.7087   -2.4574   -7.9476 C   0  0  2  0  0  0  0  0  0  0  0  0
   -9.9322   -1.2724   -8.5273 C   0  0  1  0  0  0  0  0  0  0  0  0
   -8.5062   -1.7003   -8.9166 C   0  0  1  0  0  0  0  0  0  0  0  0
   -6.4984   -2.9692   -8.2286 N   0  3  0  0  0  0  0  0  0  0  0  0
  -10.8331   -3.9976   -5.9867 N   0  3  0  0  0  0  0  0  0  0  0  0
  -10.6224   -0.7672   -9.6632 O   0  0  0  0  0  0  0  0  0  0  0  0
  -12.0687   -2.0703   -7.6792 O   0  0  0  0  0  0  0  0  0  0  0  0
   -7.7357   -0.5411   -9.2967 O   0  0  0  0  0  0  0  0  0  0  0  0
  -12.9270   -2.2566   -8.7707 C   0  0  2  0  0  0  0  0  0  0  0  0
  -13.9255   -1.0973   -8.8531 C   0  0  1  0  0  0  0  0  0  0  0  0
  -14.9946   -1.2155   -7.7665 C   0  0  0  0  0  0  0  0  0  0  0  0
  -15.6273   -2.5955   -7.8443 C   0  0  1  0  0  0  0  0  0  0  0  0
  -14.5480   -3.6501   -7.6727 C   0  0  1  0  0  0  0  0  0  0  0  0
  -15.1204   -5.0546   -7.7355 C   0  0  0  0  0  0  0  0  0  0  0  0
  -13.1967    0.2012   -8.6903 N   0  3  0  0  0  0  0  0  0  0  0  0
  -13.9711   -6.0239   -7.7830 N   0  3  0  0  0  0  0  0  0  0  0  0
  -16.6154   -2.7435   -6.8345 O   0  0  0  0  0  0  0  0  0  0  0  0
  -13.5833   -3.5193   -8.7307 O   0  0  0  0  0  0  0  0  0  0  0  0
  1  2  1  0  0  0  0
  1 22  1  6  0  0  0
  1 10  1  0  0  0  0
  2  3  1  0  0  0  0
  2  7  1  6  0  0  0
  3  4  1  0  0  0  0
  3  8  1  1  0  0  0
  4  5  1  0  0  0  0
  4  9  1  6  0  0  0
  5  6  1  1  0  0  0
  5 10  1  0  0  0  0
  6 11  1  0  0  0  0
 12 13  1  0  0  0  0
 12 17  1  0  0  0  0
 12 18  1  6  0  0  0
 13 14  1  0  0  0  0
 14 15  1  0  0  0  0
 14 19  1  6  0  0  0
 15 16  1  0  0  0  0
 15 21  1  1  0  0  0
 16 17  1  0  0  0  0
 16 20  1  6  0  0  0
 17 22  1  1  0  0  0
 23 21  1  1  0  0  0
 23 24  1  0  0  0  0
 23 32  1  0  0  0  0
 24 25  1  0  0  0  0
 24 29  1  1  0  0  0
 25 26  1  0  0  0  0
 26 27  1  0  0  0  0
 26 31  1  1  0  0  0
 27 28  1  6  0  0  0
 27 32  1  0  0  0  0
 28 30  1  0  0  0  0
M  CHG  5   8   1  18   1  19   1  29   1  30   1
M  END
>  <CHROM.1>
-149.85322768,58.73485486,-83.28934186,-96.86071494,-24.84428108,-172.25023566
-164.22875772,-171.34557186,-150.19518415,-177.63070392,-15.95626128,-141.35425718
-54.05437792,47.67489955,170.92543902,-42.06251670,-9.60115845,-1.40596962
-8.63338044,-0.41397823,-0.11366697,2.83003181

>  <Name>
2tob cryst

>  <RI>
3.35201e+07

>  <Rbt.Current_Directory>
/home/itssahil/PROJECTS/Mol_Feturizer/New_Systems/rnas/2tob

>  <Rbt.Executable>
rbdock ($Id: //depot/dev/client3/rdock/2013.1/src/exe/rbdock.cxx#4 $)

>  <Rbt.Library>
libRbt.so (2013.1, Build901 2013/11/27)

>  <Rbt.Parameter_File>
/export/apps/rDock/src/rDock_2013.1_src/data/scripts/dock_solv.prm

>  <Rbt.Receptor>
prm/pocket_docking_4.prm

>  <SCORE>
-47.193

>  <SCORE.INTER>
-39.5235

>  <SCORE.INTER.CONST>
1

>  <SCORE.INTER.POLAR>
-6.60262

>  <SCORE.INTER.ROT>
6

>  <SCORE.INTER.SOLV>
36.7322

>  <SCORE.INTER.VDW>
-24.1843

>  <SCORE.INTER.norm>
-1.23511

>  <SCORE.INTRA>
-7.8887

>  <SCORE.INTRA.DIHEDRAL>
12.3195

>  <SCORE.INTRA.DIHEDRAL.0>
18.4221

>  <SCORE.INTRA.POLAR>
-0.0104645

>  <SCORE.INTRA.POLAR.0>
-1.57101

>  <SCORE.INTRA.REPUL>
-0.730195

>  <SCORE.INTRA.REPUL.0>
0.730195

>  <SCORE.INTRA.SOLV>
-2.29249

>  <SCORE.INTRA.SOLV.lig_0>
-127.221

>  <SCORE.INTRA.VDW>
-9.21563

>  <SCORE.INTRA.VDW.0>
10.8385

>  <SCORE.INTRA.norm>
-0.246522

>  <SCORE.RESTR>
0.219214

>  <SCORE.RESTR.CAVITY>
0.219214

>  <SCORE.RESTR.norm>
0.00685042

>  <SCORE.SYSTEM>
0

>  <SCORE.SYSTEM.CONST>
0

>  <SCORE.SYSTEM.DIHEDRAL>
0

>  <SCORE.SYSTEM.SOLV>
0

>  <SCORE.SYSTEM.norm>
0

>  <SCORE.heavy>
32

>  <SCORE.norm>
-1.47478

>  <RMSD>
4.061

$$$$
2tob cryst
 OpenBabel11021811463D
libRbt.so/2013.1/901 2013/11/27
 32 34  0  0  0  0  0  0  0  0999 V2000
   -7.9947   -0.0158   -6.4831 C   0  0  2  0  0  0  0  0  0  0  0  0
   -8.0438    1.4060   -7.0335 C   0  0  1  0  0  0  0  0  0  0  0  0
   -7.9331    1.3519   -8.5575 C   0  0  2  0  0  0  0  0  0  0  0  0
   -6.6759    0.5841   -8.9870 C   0  0  1  0  0  0  0  0  0  0  0  0
   -6.6341   -0.7822   -8.2938 C   0  0  1  0  0  0  0  0  0  0  0  0
   -5.3561   -1.5685   -8.5356 C   0  0  0  0  0  0  0  0  0  0  0  0
   -9.2686    2.0313   -6.6597 O   0  0  0  0  0  0  0  0  0  0  0  0
   -7.9436    2.6528   -9.2986 N   0  3  0  0  0  0  0  0  0  0  0  0
   -6.7000    0.4103  -10.3982 O   0  0  0  0  0  0  0  0  0  0  0  0
   -6.7716   -0.6140   -6.8687 O   0  0  0  0  0  0  0  0  0  0  0  0
   -5.0266   -1.5867   -9.9209 O   0  0  0  0  0  0  0  0  0  0  0  0
   -9.2666   -2.5194   -5.3831 C   0  0  2  0  0  0  0  0  0  0  0  0
   -9.5711   -4.0022   -5.1308 C   0  0  0  0  0  0  0  0  0  0  0  0
  -10.6952   -4.5204   -6.0236 C   0  0  1  0  0  0  0  0  0  0  0  0
  -10.3045   -4.2833   -7.4759 C   0  0  2  0  0  0  0  0  0  0  0  0
  -10.1871   -2.7789   -7.7331 C   0  0  1  0  0  0  0  0  0  0  0  0
   -9.0713   -2.1688   -6.8666 C   0  0  1  0  0  0  0  0  0  0  0  0
   -8.0477   -2.0923   -4.6168 N   0  3  0  0  0  0  0  0  0  0  0  0
  -10.9668   -5.9712   -5.7596 N   0  3  0  0  0  0  0  0  0  0  0  0
   -9.9179   -2.5562   -9.1115 O   0  0  0  0  0  0  0  0  0  0  0  0
  -11.2822   -4.8590   -8.3614 O   0  0  0  0  0  0  0  0  0  0  0  0
   -9.0887   -0.7314   -6.9900 O   0  0  0  0  0  0  0  0  0  0  0  0
  -12.6040   -4.6135   -7.9676 C   0  0  2  0  0  0  0  0  0  0  0  0
  -13.5578   -4.9061   -9.1306 C   0  0  1  0  0  0  0  0  0  0  0  0
  -13.4833   -3.8074  -10.1913 C   0  0  0  0  0  0  0  0  0  0  0  0
  -13.7033   -2.4599   -9.5228 C   0  0  1  0  0  0  0  0  0  0  0  0
  -12.6513   -2.2589   -8.4460 C   0  0  1  0  0  0  0  0  0  0  0  0
  -12.8154   -0.9234   -7.7434 C   0  0  0  0  0  0  0  0  0  0  0  0
  -13.1968   -6.2196   -9.7533 N   0  3  0  0  0  0  0  0  0  0  0  0
  -12.0375    0.1071   -8.5153 N   0  3  0  0  0  0  0  0  0  0  0  0
  -13.6231   -1.4142  -10.4810 O   0  0  0  0  0  0  0  0  0  0  0  0
  -12.7785   -3.2956   -7.4581 O   0  0  0  0  0  0  0  0  0  0  0  0
  1  2  1  0  0  0  0
  1 22  1  6  0  0  0
  1 10  1  0  0  0  0
  2  3  1  0  0  0  0
  2  7  1  6  0  0  0
  3  4  1  0  0  0  0
  3  8  1  1  0  0  0
  4  5  1  0  0  0  0
  4  9  1  6  0  0  0
  5  6  1  1  0  0  0
  5 10  1  0  0  0  0
  6 11  1  0  0  0  0
 12 13  1  0  0  0  0
 12 17  1  0  0  0  0
 12 18  1  1  0  0  0
 13 14  1  0  0  0  0
 14 15  1  0  0  0  0
 14 19  1  6  0  0  0
 15 16  1  0  0  0  0
 15 21  1  6  0  0  0
 16 17  1  0  0  0  0
 16 20  1  6  0  0  0
 17 22  1  1  0  0  0
 23 21  1  6  0  0  0
 23 24  1  0  0  0  0
 23 32  1  0  0  0  0
 24 25  1  0  0  0  0
 24 29  1  6  0  0  0
 25 26  1  0  0  0  0
 26 27  1  0  0  0  0
 26 31  1  6  0  0  0
 27 28  1  1  0  0  0
 27 32  1  0  0  0  0
 28 30  1  0  0  0  0
M  CHG  5   8   1  18   1  19   1  29   1  30   1
M  END
>  <CHROM.1>
165.36263342,-179.96876010,-37.19214657,69.69703673,-48.06315394,59.82925970
-10.77287034,72.34917418,43.59501514,-48.08557358,70.70554528,164.37424192
-169.72928047,153.50777709,-88.09483582,-44.38878747,-9.89352726,-1.91924134
-7.96301115,-0.55732527,0.43409619,2.59723255

>  <Name>
2tob cryst

>  <RI>
2.04895e+07

>  <Rbt.Current_Directory>
/home/itssahil/PROJECTS/Mol_Feturizer/New_Systems/rnas/2tob

>  <Rbt.Executable>
rbdock ($Id: //depot/dev/client3/rdock/2013.1/src/exe/rbdock.cxx#4 $)

>  <Rbt.Library>
libRbt.so (2013.1, Build901 2013/11/27)

>  <Rbt.Parameter_File>
/export/apps/rDock/src/rDock_2013.1_src/data/scripts/dock_solv.prm

>  <Rbt.Receptor>
prm/blind_docking_20.prm

>  <SCORE>
-8.05167

>  <SCORE.INTER>
1.50934

>  <SCORE.INTER.CONST>
1

>  <SCORE.INTER.POLAR>
-3.88868

>  <SCORE.INTER.ROT>
6

>  <SCORE.INTER.SOLV>
35.514

>  <SCORE.INTER.VDW>
-5.4695

>  <SCORE.INTER.norm>
0.047167

>  <SCORE.INTRA>
-10.6265

>  <SCORE.INTRA.DIHEDRAL>
-1.8105

>  <SCORE.INTRA.DIHEDRAL.0>
18.4221

>  <SCORE.INTRA.POLAR>
0.415964

>  <SCORE.INTRA.POLAR.0>
-1.57101

>  <SCORE.INTRA.REPUL>
-0.730195

>  <SCORE.INTRA.REPUL.0>
0.730195

>  <SCORE.INTRA.SOLV>
-0.698278

>  <SCORE.INTRA.SOLV.lig_0>
-127.221

>  <SCORE.INTRA.VDW>
-7.13537

>  <SCORE.INTRA.VDW.0>
10.8385

>  <SCORE.INTRA.norm>
-0.332077

>  <SCORE.RESTR>
1.06545

>  <SCORE.RESTR.CAVITY>
1.06545

>  <SCORE.RESTR.norm>
0.0332952

>  <SCORE.SYSTEM>
0

>  <SCORE.SYSTEM.CONST>
0

>  <SCORE.SYSTEM.DIHEDRAL>
0

>  <SCORE.SYSTEM.SOLV>
0

>  <SCORE.SYSTEM.norm>
0

>  <SCORE.heavy>
32

>  <SCORE.norm>
-0.251615

>  <RMSD>
4.101

$$$$
2tob cryst
 OpenBabel11021811463D
libRbt.so/2013.1/901 2013/11/27
 32 34  0  0  0  0  0  0  0  0999 V2000
   -5.6373    1.2818   -9.3216 C   0  0  2  0  0  0  0  0  0  0  0  0
   -4.7947    2.2131  -10.1874 C   0  0  1  0  0  0  0  0  0  0  0  0
   -4.4285    1.4891  -11.4833 C   0  0  2  0  0  0  0  0  0  0  0  0
   -3.7345    0.1533  -11.1856 C   0  0  1  0  0  0  0  0  0  0  0  0
   -4.5814   -0.6710  -10.2098 C   0  0  1  0  0  0  0  0  0  0  0  0
   -3.9182   -1.9527   -9.7328 C   0  0  0  0  0  0  0  0  0  0  0  0
   -5.5284    3.3976  -10.4862 O   0  0  0  0  0  0  0  0  0  0  0  0
   -3.5818    2.2277  -12.4730 N   0  3  0  0  0  0  0  0  0  0  0  0
   -3.5658   -0.5615  -12.4033 O   0  0  0  0  0  0  0  0  0  0  0  0
   -4.8877    0.1149   -9.0407 O   0  0  0  0  0  0  0  0  0  0  0  0
   -2.5775   -2.0358  -10.2054 O   0  0  0  0  0  0  0  0  0  0  0  0
   -9.0815    1.7361   -9.7074 C   0  0  2  0  0  0  0  0  0  0  0  0
  -10.4931    1.4188   -9.1956 C   0  0  0  0  0  0  0  0  0  0  0  0
  -10.8822   -0.0364   -9.4409 C   0  0  1  0  0  0  0  0  0  0  0  0
   -9.8462   -0.9306   -8.7736 C   0  0  2  0  0  0  0  0  0  0  0  0
   -8.4835   -0.7146   -9.4365 C   0  0  1  0  0  0  0  0  0  0  0  0
   -8.0117    0.7368   -9.2397 C   0  0  1  0  0  0  0  0  0  0  0  0
   -8.6688    3.1202   -9.2959 N   0  3  0  0  0  0  0  0  0  0  0  0
  -12.2619   -0.3188   -8.9262 N   0  3  0  0  0  0  0  0  0  0  0  0
   -7.5393   -1.6195   -8.8783 O   0  0  0  0  0  0  0  0  0  0  0  0
  -10.2309   -2.3135   -8.8789 O   0  0  0  0  0  0  0  0  0  0  0  0
   -6.8164    0.9703  -10.0133 O   0  0  0  0  0  0  0  0  0  0  0  0
   -9.8381   -3.0867   -7.7787 C   0  0  2  0  0  0  0  0  0  0  0  0
  -11.0085   -3.9563   -7.3076 C   0  0  1  0  0  0  0  0  0  0  0  0
  -12.0528   -3.1182   -6.5698 C   0  0  0  0  0  0  0  0  0  0  0  0
  -11.3657   -2.3368   -5.4616 C   0  0  1  0  0  0  0  0  0  0  0  0
  -10.2825   -1.4605   -6.0661 C   0  0  1  0  0  0  0  0  0  0  0  0
   -9.5612   -0.6480   -5.0060 C   0  0  0  0  0  0  0  0  0  0  0  0
  -11.6489   -4.6142   -8.4911 N   0  3  0  0  0  0  0  0  0  0  0  0
   -8.5465    0.2217   -5.6967 N   0  3  0  0  0  0  0  0  0  0  0  0
  -12.3083   -1.5331   -4.7662 O   0  0  0  0  0  0  0  0  0  0  0  0
   -9.3102   -2.2916   -6.7224 O   0  0  0  0  0  0  0  0  0  0  0  0
  1  2  1  0  0  0  0
  1 22  1  6  0  0  0
  1 10  1  0  0  0  0
  2  3  1  0  0  0  0
  2  7  1  6  0  0  0
  3  4  1  0  0  0  0
  3  8  1  6  0  0  0
  4  5  1  0  0  0  0
  4  9  1  6  0  0  0
  5  6  1  1  0  0  0
  5 10  1  0  0  0  0
  6 11  1  0  0  0  0
 12 13  1  0  0  0  0
 12 17  1  0  0  0  0
 12 18  1  1  0  0  0
 13 14  1  0  0  0  0
 14 15  1  0  0  0  0
 14 19  1  1  0  0  0
 15 16  1  0  0  0  0
 15 21  1  6  0  0  0
 16 17  1  0  0  0  0
 16 20  1  1  0  0  0
 17 22  1  6  0  0  0
 23 21  1  6  0  0  0
 23 24  1  0  0  0  0
 23 32  1  0  0  0  0
 24 25  1  0  0  0  0
 24 29  1  6  0  0  0
 25 26  1  0  0  0  0
 26 27  1  0  0  0  0
 26 31  1  6  0  0  0
 27 28  1  1  0  0  0
 27 32  1  0  0  0  0
 28 30  1  0  0  0  0
M  CHG  5   8   1  18   1  19   1  29   1  30   1
M  END
>  <CHROM.1>
-148.12130250,-52.07250936,-39.96377863,63.37128724,5.90965267,-168.55597255
61.94744821,-51.99818593,-146.88946406,-37.55569629,122.10849523,133.29107529
-91.98518311,-52.75979940,-177.97862476,165.85493063,-7.95862851,-0.45980061
-8.84250031,0.46109612,0.43542786,-0.24992456

>  <Name>
2tob cryst

>  <RI>
0

>  <Rbt.Current_Directory>
/home/itssahil/PROJECTS/Mol_Feturizer/New_Systems/rnas/2tob

>  <Rbt.Executable>
rbdock ($Id: //depot/dev/client3/rdock/2013.1/src/exe/rbdock.cxx#4 $)

>  <Rbt.Library>
libRbt.so (2013.1, Build901 2013/11/27)

>  <Rbt.Parameter_File>
/export/apps/rDock/src/rDock_2013.1_src/data/scripts/dock_solv.prm

>  <Rbt.Receptor>
prm/blind_docking_80.prm

>  <SCORE>
-36.2533

>  <SCORE.INTER>
-35.357

>  <SCORE.INTER.CONST>
1

>  <SCORE.INTER.POLAR>
-6.0036

>  <SCORE.INTER.ROT>
6

>  <SCORE.INTER.SOLV>
41.3912

>  <SCORE.INTER.VDW>
-24.9564

>  <SCORE.INTER.norm>
-1.10491

>  <SCORE.INTRA>
-6.50758

>  <SCORE.INTRA.DIHEDRAL>
15.4122

>  <SCORE.INTRA.DIHEDRAL.0>
18.4221

>  <SCORE.INTRA.POLAR>
0.75288

>  <SCORE.INTRA.POLAR.0>
-1.57101

>  <SCORE.INTRA.REPUL>
-0.677269

>  <SCORE.INTRA.REPUL.0>
0.730195

>  <SCORE.INTRA.SOLV>
-1.05423

>  <SCORE.INTRA.SOLV.lig_0>
-127.221

>  <SCORE.INTRA.VDW>
-12.86

>  <SCORE.INTRA.VDW.0>
10.8385

>  <SCORE.INTRA.norm>
-0.203362

>  <SCORE.RESTR>
5.61128

>  <SCORE.RESTR.CAVITY>
5.61128

>  <SCORE.RESTR.norm>
0.175353

>  <SCORE.SYSTEM>
0

>  <SCORE.SYSTEM.CONST>
0

>  <SCORE.SYSTEM.DIHEDRAL>
0

>  <SCORE.SYSTEM.SOLV>
0

>  <SCORE.SYSTEM.norm>
0

>  <SCORE.heavy>
32

>  <SCORE.norm>
-1.13291

>  <RMSD>
4.107

$$$$
2tob cryst
 OpenBabel11021811463D
libRbt.so/2013.1/901 2013/11/27
 32 34  0  0  0  0  0  0  0  0999 V2000
   -7.0336   -0.0580   -7.9538 C   0  0  2  0  0  0  0  0  0  0  0  0
   -7.6268    1.3470   -7.9862 C   0  0  1  0  0  0  0  0  0  0  0  0
   -7.6842    1.8276   -9.4365 C   0  0  2  0  0  0  0  0  0  0  0  0
   -6.3008    1.7438  -10.0951 C   0  0  1  0  0  0  0  0  0  0  0  0
   -5.7165    0.3391   -9.9095 C   0  0  1  0  0  0  0  0  0  0  0  0
   -4.2853    0.1864  -10.3979 C   0  0  0  0  0  0  0  0  0  0  0  0
   -8.9381    1.3354   -7.4284 O   0  0  0  0  0  0  0  0  0  0  0  0
   -8.2228    3.2016   -9.6892 N   0  3  0  0  0  0  0  0  0  0  0  0
   -6.4303    2.0350  -11.4810 O   0  0  0  0  0  0  0  0  0  0  0  0
   -5.7344   -0.0195   -8.5133 O   0  0  0  0  0  0  0  0  0  0  0  0
   -3.8820   -1.1789  -10.3663 O   0  0  0  0  0  0  0  0  0  0  0  0
   -8.1681   -1.8816   -6.4921 C   0  0  2  0  0  0  0  0  0  0  0  0
   -9.1062   -2.6073   -5.5181 C   0  0  0  0  0  0  0  0  0  0  0  0
  -10.5502   -2.1296   -5.6440 C   0  0  1  0  0  0  0  0  0  0  0  0
  -10.9994   -2.3295   -7.0849 C   0  0  2  0  0  0  0  0  0  0  0  0
  -10.1551   -1.4484   -8.0090 C   0  0  1  0  0  0  0  0  0  0  0  0
   -8.6741   -1.8608   -7.9431 C   0  0  1  0  0  0  0  0  0  0  0  0
   -6.7978   -2.4955   -6.4625 N   0  3  0  0  0  0  0  0  0  0  0  0
  -11.4438   -2.8589   -4.6859 N   0  3  0  0  0  0  0  0  0  0  0  0
  -10.6396   -1.5626   -9.3410 O   0  0  0  0  0  0  0  0  0  0  0  0
  -12.3930   -2.0000   -7.2290 O   0  0  0  0  0  0  0  0  0  0  0  0
   -7.8712   -0.9158   -8.6807 O   0  0  0  0  0  0  0  0  0  0  0  0
  -12.9134   -2.3181   -8.4902 C   0  0  2  0  0  0  0  0  0  0  0  0
  -13.8358   -1.1937   -8.9727 C   0  0  1  0  0  0  0  0  0  0  0  0
  -15.1676   -1.2161   -8.2221 C   0  0  0  0  0  0  0  0  0  0  0  0
  -15.7688   -2.6086   -8.3246 C   0  0  1  0  0  0  0  0  0  0  0  0
  -14.7926   -3.6178   -7.7457 C   0  0  1  0  0  0  0  0  0  0  0  0
  -15.3405   -5.0318   -7.8143 C   0  0  0  0  0  0  0  0  0  0  0  0
  -13.1670    0.1286   -8.7535 N   0  3  0  0  0  0  0  0  0  0  0  0
  -16.5246   -5.1174   -6.8905 N   0  3  0  0  0  0  0  0  0  0  0  0
  -17.0017   -2.6673   -7.6213 O   0  0  0  0  0  0  0  0  0  0  0  0
  -13.5690   -3.5818   -8.4995 O   0  0  0  0  0  0  0  0  0  0  0  0
  1  2  1  0  0  0  0
  1 22  1  6  0  0  0
  1 10  1  0  0  0  0
  2  3  1  0  0  0  0
  2  7  1  6  0  0  0
  3  4  1  0  0  0  0
  3  8  1  1  0  0  0
  4  5  1  0  0  0  0
  4  9  1  6  0  0  0
  5  6  1  1  0  0  0
  5 10  1  0  0  0  0
  6 11  1  0  0  0  0
 12 13  1  0  0  0  0
 12 17  1  0  0  0  0
 12 18  1  6  0  0  0
 13 14  1  0  0  0  0
 14 15  1  0  0  0  0
 14 19  1  1  0  0  0
 15 16  1  0  0  0  0
 15 21  1  1  0  0  0
 16 17  1  0  0  0  0
 16 20  1  6  0  0  0
 17 22  1  6  0  0  0
 23 21  1  1  0  0  0
 23 24  1  0  0  0  0
 23 32  1  0  0  0  0
 24 25  1  0  0  0  0
 24 29  1  1  0  0  0
 25 26  1  0  0  0  0
 26 27  1  0  0  0  0
 26 31  1  1  0  0  0
 27 28  1  6  0  0  0
 27 32  1  0  0  0  0
 28 30  1  0  0  0  0
M  CHG  5   8   1  18   1  19   1  29   1  30   1
M  END
>  <CHROM.1>
-107.22482057,67.35533630,-111.66361894,178.53170496,-171.78321913,-50.38353681
110.57575404,-161.62144369,-172.54778852,-56.82327662,-11.99811699,-138.58337377
84.42320119,61.15775950,-66.77755512,-63.45538211,-10.21771373,-1.19968643
-8.18077972,-0.42500532,0.11081913,2.44578415

>  <Name>
2tob cryst

>  <RI>
0

>  <Rbt.Current_Directory>
/home/itssahil/PROJECTS/Mol_Feturizer/New_Systems/rnas/2tob

>  <Rbt.Executable>
rbdock ($Id: //depot/dev/client3/rdock/2013.1/src/exe/rbdock.cxx#4 $)

>  <Rbt.Library>
libRbt.so (2013.1, Build901 2013/11/27)

>  <Rbt.Parameter_File>
/export/apps/rDock/src/rDock_2013.1_src/data/scripts/dock_solv.prm

>  <Rbt.Receptor>
prm/blind_docking_80.prm

>  <SCORE>
-21.0565

>  <SCORE.INTER>
-21.5784

>  <SCORE.INTER.CONST>
1

>  <SCORE.INTER.POLAR>
-4.28536

>  <SCORE.INTER.ROT>
6

>  <SCORE.INTER.SOLV>
41.7236

>  <SCORE.INTER.VDW>
-21.609

>  <SCORE.INTER.norm>
-0.674326

>  <SCORE.INTRA>
-6.47261

>  <SCORE.INTRA.DIHEDRAL>
10.3748

>  <SCORE.INTRA.DIHEDRAL.0>
18.4221

>  <SCORE.INTRA.POLAR>
0.641689

>  <SCORE.INTRA.POLAR.0>
-1.57101

>  <SCORE.INTRA.REPUL>
-0.730195

>  <SCORE.INTRA.REPUL.0>
0.730195

>  <SCORE.INTRA.SOLV>
-5.17876

>  <SCORE.INTRA.SOLV.lig_0>
-127.221

>  <SCORE.INTRA.VDW>
-7.60141

>  <SCORE.INTRA.VDW.0>
10.8385

>  <SCORE.INTRA.norm>
-0.202269

>  <SCORE.RESTR>
6.99451

>  <SCORE.RESTR.CAVITY>
6.99451

>  <SCORE.RESTR.norm>
0.218579

>  <SCORE.SYSTEM>
0

>  <SCORE.SYSTEM.CONST>
0

>  <SCORE.SYSTEM.DIHEDRAL>
0

>  <SCORE.SYSTEM.SOLV>
0

>  <SCORE.SYSTEM.norm>
0

>  <SCORE.heavy>
32

>  <SCORE.norm>
-0.658016

>  <RMSD>
4.142

$$$$
2tob cryst
 OpenBabel11021811463D
libRbt.so/2013.1/901 2013/11/27
 32 34  0  0  0  0  0  0  0  0999 V2000
   -6.5812   -0.0076   -8.4891 C   0  0  2  0  0  0  0  0  0  0  0  0
   -6.4439    1.5031   -8.6507 C   0  0  1  0  0  0  0  0  0  0  0  0
   -5.9715    1.8087  -10.0723 C   0  0  2  0  0  0  0  0  0  0  0  0
   -4.6770    1.0497  -10.3930 C   0  0  1  0  0  0  0  0  0  0  0  0
   -4.8537   -0.4411  -10.0844 C   0  0  1  0  0  0  0  0  0  0  0  0
   -3.5849   -1.2654  -10.2288 C   0  0  0  0  0  0  0  0  0  0  0  0
   -7.6988    2.1348   -8.4119 O   0  0  0  0  0  0  0  0  0  0  0  0
   -5.7553    3.2451  -10.4357 N   0  3  0  0  0  0  0  0  0  0  0  0
   -4.3669    1.2257  -11.7696 O   0  0  0  0  0  0  0  0  0  0  0  0
   -5.3241   -0.6101   -8.7322 O   0  0  0  0  0  0  0  0  0  0  0  0
   -2.7593   -0.7473  -11.2669 O   0  0  0  0  0  0  0  0  0  0  0  0
   -7.6138   -2.3281   -7.8606 C   0  0  2  0  0  0  0  0  0  0  0  0
   -8.4711   -3.3818   -7.1466 C   0  0  0  0  0  0  0  0  0  0  0  0
   -9.8409   -2.8384   -6.7493 C   0  0  1  0  0  0  0  0  0  0  0  0
  -10.5375   -2.3264   -8.0025 C   0  0  2  0  0  0  0  0  0  0  0  0
   -9.7433   -1.1542   -8.5844 C   0  0  1  0  0  0  0  0  0  0  0  0
   -8.3385   -1.6138   -9.0123 C   0  0  1  0  0  0  0  0  0  0  0  0
   -6.3496   -2.9441   -8.3877 N   0  3  0  0  0  0  0  0  0  0  0  0
  -10.6578   -3.8898   -6.0598 N   0  3  0  0  0  0  0  0  0  0  0  0
  -10.4457   -0.6155   -9.6973 O   0  0  0  0  0  0  0  0  0  0  0  0
  -11.8803   -1.9077   -7.6976 O   0  0  0  0  0  0  0  0  0  0  0  0
   -7.5465   -0.4700   -9.3947 O   0  0  0  0  0  0  0  0  0  0  0  0
  -12.7769   -2.0954   -8.7576 C   0  0  2  0  0  0  0  0  0  0  0  0
  -13.8139   -0.9674   -8.7698 C   0  0  1  0  0  0  0  0  0  0  0  0
  -14.8327   -1.1464   -7.6439 C   0  0  0  0  0  0  0  0  0  0  0  0
  -15.4244   -2.5439   -7.7308 C   0  0  1  0  0  0  0  0  0  0  0  0
  -14.3063   -3.5668   -7.6302 C   0  0  1  0  0  0  0  0  0  0  0  0
  -14.8365   -4.9872   -7.7052 C   0  0  0  0  0  0  0  0  0  0  0  0
  -13.1201    0.3497   -8.6039 N   0  3  0  0  0  0  0  0  0  0  0  0
  -15.3462   -5.2205   -9.1012 N   0  3  0  0  0  0  0  0  0  0  0  0
  -16.3646   -2.7482   -6.6856 O   0  0  0  0  0  0  0  0  0  0  0  0
  -13.3911   -3.3793   -8.7229 O   0  0  0  0  0  0  0  0  0  0  0  0
  1  2  1  0  0  0  0
  1 22  1  6  0  0  0
  1 10  1  0  0  0  0
  2  3  1  0  0  0  0
  2  7  1  6  0  0  0
  3  4  1  0  0  0  0
  3  8  1  1  0  0  0
  4  5  1  0  0  0  0
  4  9  1  6  0  0  0
  5  6  1  1  0  0  0
  5 10  1  0  0  0  0
  6 11  1  0  0  0  0
 12 13  1  0  0  0  0
 12 17  1  0  0  0  0
 12 18  1  6  0  0  0
 13 14  1  0  0  0  0
 14 15  1  0  0  0  0
 14 19  1  6  0  0  0
 15 16  1  0  0  0  0
 15 21  1  1  0  0  0
 16 17  1  0  0  0  0
 16 20  1  6  0  0  0
 17 22  1  1  0  0  0
 23 21  1  1  0  0  0
 23 24  1  0  0  0  0
 23 32  1  0  0  0  0
 24 25  1  0  0  0  0
 24 29  1  1  0  0  0
 25 26  1  0  0  0  0
 26 27  1  0  0  0  0
 26 31  1  1  0  0  0
 27 28  1  6  0  0  0
 27 32  1  0  0  0  0
 28 30  1  0  0  0  0
M  CHG  5   8   1  18   1  19   1  29   1  30   1
M  END
>  <CHROM.1>
-148.35290914,-169.42777368,156.00136316,-83.78304404,-32.98040797,155.56186651
-47.30226147,59.68333842,-148.31009463,-172.79886496,-17.94284813,-145.20868252
-61.84161375,46.29866708,68.70715671,-96.97878917,-9.47931758,-1.29073591
-8.72915939,-0.39453214,-0.12366607,2.85870761

>  <Name>
2tob cryst

>  <RI>
0

>  <Rbt.Current_Directory>
/home/itssahil/PROJECTS/Mol_Feturizer/New_Systems/rnas/2tob

>  <Rbt.Executable>
rbdock ($Id: //depot/dev/client3/rdock/2013.1/src/exe/rbdock.cxx#4 $)

>  <Rbt.Library>
libRbt.so (2013.1, Build901 2013/11/27)

>  <Rbt.Parameter_File>
/export/apps/rDock/src/rDock_2013.1_src/data/scripts/dock_solv.prm

>  <Rbt.Receptor>
prm/blind_docking_100.prm

>  <SCORE>
-39.3148

>  <SCORE.INTER>
-39.0076

>  <SCORE.INTER.CONST>
1

>  <SCORE.INTER.POLAR>
-7.28268

>  <SCORE.INTER.ROT>
6

>  <SCORE.INTER.SOLV>
40.8236

>  <SCORE.INTER.VDW>
-22.9373

>  <SCORE.INTER.norm>
-1.21899

>  <SCORE.INTRA>
-8.1582

>  <SCORE.INTRA.DIHEDRAL>
12.9666

>  <SCORE.INTRA.DIHEDRAL.0>
18.4221

>  <SCORE.INTRA.POLAR>
-0.100844

>  <SCORE.INTRA.POLAR.0>
-1.57101

>  <SCORE.INTRA.REPUL>
-0.730195

>  <SCORE.INTRA.REPUL.0>
0.730195

>  <SCORE.INTRA.SOLV>
-1.71167

>  <SCORE.INTRA.SOLV.lig_0>
-127.221

>  <SCORE.INTRA.VDW>
-9.79181

>  <SCORE.INTRA.VDW.0>
10.8385

>  <SCORE.INTRA.norm>
-0.254944

>  <SCORE.RESTR>
7.85103

>  <SCORE.RESTR.CAVITY>
7.85103

>  <SCORE.RESTR.norm>
0.245345

>  <SCORE.SYSTEM>
0

>  <SCORE.SYSTEM.CONST>
0

>  <SCORE.SYSTEM.DIHEDRAL>
0

>  <SCORE.SYSTEM.SOLV>
0

>  <SCORE.SYSTEM.norm>
0

>  <SCORE.heavy>
32

>  <SCORE.norm>
-1.22859

>  <RMSD>
4.148

$$$$
2tob cryst
 OpenBabel11021811463D
libRbt.so/2013.1/901 2013/11/27
 32 34  0  0  0  0  0  0  0  0999 V2000
   -8.9376   -0.7014   -7.3625 C   0  0  2  0  0  0  0  0  0  0  0  0
   -8.9408    0.7247   -7.9039 C   0  0  1  0  0  0  0  0  0  0  0  0
   -8.2356    0.7416   -9.2604 C   0  0  2  0  0  0  0  0  0  0  0  0
   -6.8269    0.1431   -9.1514 C   0  0  1  0  0  0  0  0  0  0  0  0
   -6.8932   -1.2341   -8.4821 C   0  0  1  0  0  0  0  0  0  0  0  0
   -5.5368   -1.8557   -8.1922 C   0  0  0  0  0  0  0  0  0  0  0  0
  -10.2806    1.1877   -8.0498 O   0  0  0  0  0  0  0  0  0  0  0  0
   -8.1140    2.0595   -9.9605 N   0  3  0  0  0  0  0  0  0  0  0  0
   -6.2742    0.0212  -10.4559 O   0  0  0  0  0  0  0  0  0  0  0  0
   -7.5980   -1.1372   -7.2283 O   0  0  0  0  0  0  0  0  0  0  0  0
   -4.8221   -2.0988   -9.3996 O   0  0  0  0  0  0  0  0  0  0  0  0
   -9.2407   -3.6298   -7.1577 C   0  0  2  0  0  0  0  0  0  0  0  0
   -9.8024   -4.7622   -6.2875 C   0  0  0  0  0  0  0  0  0  0  0  0
  -10.7601   -4.2464   -5.2169 C   0  0  1  0  0  0  0  0  0  0  0  0
  -11.8814   -3.4788   -5.9036 C   0  0  2  0  0  0  0  0  0  0  0  0
  -11.3003   -2.2524   -6.6118 C   0  0  1  0  0  0  0  0  0  0  0  0
  -10.3151   -2.6816   -7.7132 C   0  0  1  0  0  0  0  0  0  0  0  0
   -8.4444   -4.1879   -8.3021 N   0  3  0  0  0  0  0  0  0  0  0  0
  -11.2970   -5.3736   -4.3867 N   0  3  0  0  0  0  0  0  0  0  0  0
  -12.3593   -1.4848   -7.1698 O   0  0  0  0  0  0  0  0  0  0  0  0
  -12.8731   -3.0691   -4.9444 O   0  0  0  0  0  0  0  0  0  0  0  0
   -9.6486   -1.5204   -8.2510 O   0  0  0  0  0  0  0  0  0  0  0  0
  -14.0675   -2.6303   -5.5304 C   0  0  2  0  0  0  0  0  0  0  0  0
  -15.0179   -2.1066   -4.4486 C   0  0  1  0  0  0  0  0  0  0  0  0
  -15.6271   -3.2585   -3.6488 C   0  0  0  0  0  0  0  0  0  0  0  0
  -16.2589   -4.2493   -4.6132 C   0  0  1  0  0  0  0  0  0  0  0  0
  -15.2001   -4.7492   -5.5805 C   0  0  1  0  0  0  0  0  0  0  0  0
  -15.7706   -5.7500   -6.5690 C   0  0  0  0  0  0  0  0  0  0  0  0
  -14.2667   -1.2029   -3.5197 N   0  3  0  0  0  0  0  0  0  0  0  0
  -15.9166   -5.0601   -7.8978 N   0  3  0  0  0  0  0  0  0  0  0  0
  -16.8204   -5.3426   -3.9008 O   0  0  0  0  0  0  0  0  0  0  0  0
  -14.6780   -3.6384   -6.3291 O   0  0  0  0  0  0  0  0  0  0  0  0
  1  2  1  0  0  0  0
  1 22  1  6  0  0  0
  1 10  1  0  0  0  0
  2  3  1  0  0  0  0
  2  7  1  6  0  0  0
  3  4  1  0  0  0  0
  3  8  1  1  0  0  0
  4  5  1  0  0  0  0
  4  9  1  6  0  0  0
  5  6  1  1  0  0  0
  5 10  1  0  0  0  0
  6 11  1  0  0  0  0
 12 13  1  0  0  0  0
 12 17  1  0  0  0  0
 12 18  1  6  0  0  0
 13 14  1  0  0  0  0
 14 15  1  0  0  0  0
 14 19  1  6  0  0  0
 15 16  1  0  0  0  0
 15 21  1  1  0  0  0
 16 17  1  0  0  0  0
 16 20  1  6  0  0  0
 17 22  1  1  0  0  0
 23 21  1  1  0  0  0
 23 24  1  0  0  0  0
 23 32  1  0  0  0  0
 24 25  1  0  0  0  0
 24 29  1  1  0  0  0
 25 26  1  0  0  0  0
 26 27  1  0  0  0  0
 26 31  1  1  0  0  0
 27 28  1  6  0  0  0
 27 32  1  0  0  0  0
 28 30  1  0  0  0  0
M  CHG  5   8   1  18   1  19   1  29   1  30   1
M  END
>  <CHROM.1>
-151.23409951,179.12470623,-91.55151111,92.71375429,-63.09400656,-179.31156870
-164.77754459,-54.98422886,-166.37226925,155.84007060,-64.07926546,-175.31639007
-160.06260570,67.76968091,105.06084950,-177.05320557,-11.05110123,-2.38374571
-6.88664983,0.47489305,0.35215982,-0.23493987

>  <Name>
2tob cryst

>  <RI>
0

>  <Rbt.Current_Directory>
/home/itssahil/PROJECTS/Mol_Feturizer/New_Systems/rnas/2tob

>  <Rbt.Executable>
rbdock ($Id: //depot/dev/client3/rdock/2013.1/src/exe/rbdock.cxx#4 $)

>  <Rbt.Library>
libRbt.so (2013.1, Build901 2013/11/27)

>  <Rbt.Parameter_File>
/export/apps/rDock/src/rDock_2013.1_src/data/scripts/dock_solv.prm

>  <Rbt.Receptor>
prm/pocket_docking_6.prm

>  <SCORE>
-60.0166

>  <SCORE.INTER>
-45.9206

>  <SCORE.INTER.CONST>
1

>  <SCORE.INTER.POLAR>
-7.57561

>  <SCORE.INTER.ROT>
6

>  <SCORE.INTER.SOLV>
28.6766

>  <SCORE.INTER.VDW>
-22.5206

>  <SCORE.INTER.norm>
-1.43502

>  <SCORE.INTRA>
-14.1545

>  <SCORE.INTRA.DIHEDRAL>
1.0977

>  <SCORE.INTRA.DIHEDRAL.0>
18.4221

>  <SCORE.INTRA.POLAR>
1.40731

>  <SCORE.INTRA.POLAR.0>
-1.57101

>  <SCORE.INTRA.REPUL>
-0.730195

>  <SCORE.INTRA.REPUL.0>
0.730195

>  <SCORE.INTRA.SOLV>
-6.38853

>  <SCORE.INTRA.SOLV.lig_0>
-127.221

>  <SCORE.INTRA.VDW>
-12.6429

>  <SCORE.INTRA.VDW.0>
10.8385

>  <SCORE.INTRA.norm>
-0.442327

>  <SCORE.RESTR>
0.0584497

>  <SCORE.RESTR.CAVITY>
0.0584497

>  <SCORE.RESTR.norm>
0.00182655

>  <SCORE.SYSTEM>
0

>  <SCORE.SYSTEM.CONST>
0

>  <SCORE.SYSTEM.DIHEDRAL>
0

>  <SCORE.SYSTEM.SOLV>
0

>  <SCORE.SYSTEM.norm>
0

>  <SCORE.heavy>
32

>  <SCORE.norm>
-1.87552

>  <RMSD>
4.159

$$$$
2tob cryst
 OpenBabel11021811463D
libRbt.so/2013.1/901 2013/11/27
 32 34  0  0  0  0  0  0  0  0999 V2000
   -9.3658   -0.6493   -7.7933 C   0  0  2  0  0  0  0  0  0  0  0  0
   -9.4347    0.7983   -8.2697 C   0  0  1  0  0  0  0  0  0  0  0  0
   -8.5522    0.9551   -9.5083 C   0  0  2  0  0  0  0  0  0  0  0  0
   -7.1202    0.4839   -9.2223 C   0  0  1  0  0  0  0  0  0  0  0  0
   -7.1424   -0.9284   -8.6276 C   0  0  1  0  0  0  0  0  0  0  0  0
   -5.7850   -1.4375   -8.1712 C   0  0  0  0  0  0  0  0  0  0  0  0
  -10.7802    1.1432   -8.5878 O   0  0  0  0  0  0  0  0  0  0  0  0
   -8.4653    2.3154  -10.1281 N   0  3  0  0  0  0  0  0  0  0  0  0
   -6.3815    0.4859  -10.4375 O   0  0  0  0  0  0  0  0  0  0  0  0
   -8.0215   -0.9665   -7.4856 O   0  0  0  0  0  0  0  0  0  0  0  0
   -4.9541   -1.7365   -9.2883 O   0  0  0  0  0  0  0  0  0  0  0  0
   -9.5362   -3.4905   -7.5190 C   0  0  2  0  0  0  0  0  0  0  0  0
  -10.1850   -4.6712   -6.7841 C   0  0  0  0  0  0  0  0  0  0  0  0
  -11.4740   -4.2698   -6.0724 C   0  0  1  0  0  0  0  0  0  0  0  0
  -12.4273   -3.6775   -7.1011 C   0  0  2  0  0  0  0  0  0  0  0  0
  -11.8202   -2.3977   -7.6814 C   0  0  1  0  0  0  0  0  0  0  0  0
  -10.5067   -2.7102   -8.4197 C   0  0  1  0  0  0  0  0  0  0  0  0
   -8.3727   -3.9575   -8.3458 N   0  3  0  0  0  0  0  0  0  0  0  0
  -12.0880   -5.4429   -5.3687 N   0  3  0  0  0  0  0  0  0  0  0  0
  -12.7528   -1.7942   -8.5691 O   0  0  0  0  0  0  0  0  0  0  0  0
  -13.7023   -3.3882   -6.4992 O   0  0  0  0  0  0  0  0  0  0  0  0
   -9.8610   -1.4799   -8.8085 O   0  0  0  0  0  0  0  0  0  0  0  0
  -14.7123   -4.2829   -6.8759 C   0  0  2  0  0  0  0  0  0  0  0  0
  -15.9828   -3.5101   -7.2455 C   0  0  1  0  0  0  0  0  0  0  0  0
  -16.6811   -2.9725   -5.9961 C   0  0  0  0  0  0  0  0  0  0  0  0
  -16.9045   -4.1190   -5.0232 C   0  0  1  0  0  0  0  0  0  0  0  0
  -15.5664   -4.7495   -4.6787 C   0  0  1  0  0  0  0  0  0  0  0  0
  -15.7234   -5.9014   -3.7026 C   0  0  0  0  0  0  0  0  0  0  0  0
  -15.6269   -2.3657   -8.1439 N   0  3  0  0  0  0  0  0  0  0  0  0
  -15.5390   -5.3605   -2.3111 N   0  3  0  0  0  0  0  0  0  0  0  0
  -17.5377   -3.6482   -3.8420 O   0  0  0  0  0  0  0  0  0  0  0  0
  -14.9619   -5.2657   -5.8766 O   0  0  0  0  0  0  0  0  0  0  0  0
  1  2  1  0  0  0  0
  1 22  1  6  0  0  0
  1 10  1  0  0  0  0
  2  3  1  0  0  0  0
  2  7  1  6  0  0  0
  3  4  1  0  0  0  0
  3  8  1  1  0  0  0
  4  5  1  0  0  0  0
  4  9  1  6  0  0  0
  5  6  1  1  0  0  0
  5 10  1  0  0  0  0
  6 11  1  0  0  0  0
 12 13  1  0  0  0  0
 12 17  1  0  0  0  0
 12 18  1  6  0  0  0
 13 14  1  0  0  0  0
 14 15  1  0  0  0  0
 14 19  1  6  0  0  0
 15 16  1  0  0  0  0
 15 21  1  1  0  0  0
 16 17  1  0  0  0  0
 16 20  1  6  0  0  0
 17 22  1  1  0  0  0
 23 21  1  1  0  0  0
 23 24  1  0  0  0  0
 23 32  1  0  0  0  0
 24 25  1  0  0  0  0
 24 29  1  6  0  0  0
 25 26  1  0  0  0  0
 26 27  1  0  0  0  0
 26 31  1  1  0  0  0
 27 28  1  1  0  0  0
 27 32  1  0  0  0  0
 28 30  1  0  0  0  0
M  CHG  5   8   1  18   1  19   1  29   1  30   1
M  END
>  <CHROM.1>
-149.76059530,65.66179734,76.16129856,80.91602817,-71.79068637,-173.09294039
-149.99896572,82.02989554,-106.58487702,177.23579551,-54.26919744,-134.03046061
-27.06479648,168.70359388,-93.51536722,80.31914084,-11.48349586,-2.44757668
-7.26841651,0.59522052,0.16276387,-0.54276748

>  <Name>
2tob cryst

>  <RI>
2.10184e+07

>  <Rbt.Current_Directory>
/home/itssahil/PROJECTS/Mol_Feturizer/New_Systems/rnas/2tob

>  <Rbt.Executable>
rbdock ($Id: //depot/dev/client3/rdock/2013.1/src/exe/rbdock.cxx#4 $)

>  <Rbt.Library>
libRbt.so (2013.1, Build901 2013/11/27)

>  <Rbt.Parameter_File>
/export/apps/rDock/src/rDock_2013.1_src/data/scripts/dock_solv.prm

>  <Rbt.Receptor>
prm/pocket_docking_7.prm

>  <SCORE>
-65.5491

>  <SCORE.INTER>
-51.7422

>  <SCORE.INTER.CONST>
1

>  <SCORE.INTER.POLAR>
-8.80864

>  <SCORE.INTER.ROT>
6

>  <SCORE.INTER.SOLV>
29.5383

>  <SCORE.INTER.VDW>
-22.5788

>  <SCORE.INTER.norm>
-1.61694

>  <SCORE.INTRA>
-13.8069

>  <SCORE.INTRA.DIHEDRAL>
11.071

>  <SCORE.INTRA.DIHEDRAL.0>
18.4221

>  <SCORE.INTRA.POLAR>
-0.288716

>  <SCORE.INTRA.POLAR.0>
-1.57101

>  <SCORE.INTRA.REPUL>
-0.730195

>  <SCORE.INTRA.REPUL.0>
0.730195

>  <SCORE.INTRA.SOLV>
-1.38579

>  <SCORE.INTRA.SOLV.lig_0>
-127.221

>  <SCORE.INTRA.VDW>
-14.0169

>  <SCORE.INTRA.VDW.0>
10.8385

>  <SCORE.INTRA.norm>
-0.431466

>  <SCORE.RESTR>
0

>  <SCORE.RESTR.CAVITY>
0

>  <SCORE.RESTR.norm>
0

>  <SCORE.SYSTEM>
0

>  <SCORE.SYSTEM.CONST>
0

>  <SCORE.SYSTEM.DIHEDRAL>
0

>  <SCORE.SYSTEM.SOLV>
0

>  <SCORE.SYSTEM.norm>
0

>  <SCORE.heavy>
32

>  <SCORE.norm>
-2.04841

>  <RMSD>
4.166

$$$$
2tob cryst
 OpenBabel11021811463D
libRbt.so/2013.1/901 2013/11/27
 32 34  0  0  0  0  0  0  0  0999 V2000
   -5.5150    1.2702   -9.4305 C   0  0  2  0  0  0  0  0  0  0  0  0
   -4.7580    2.2561  -10.3147 C   0  0  1  0  0  0  0  0  0  0  0  0
   -4.3784    1.5595  -11.6217 C   0  0  2  0  0  0  0  0  0  0  0  0
   -3.5907    0.2719  -11.3459 C   0  0  1  0  0  0  0  0  0  0  0  0
   -4.3563   -0.6077  -10.3514 C   0  0  1  0  0  0  0  0  0  0  0  0
   -3.5982   -1.8436   -9.8954 C   0  0  0  0  0  0  0  0  0  0  0  0
   -5.5754    3.3902  -10.5910 O   0  0  0  0  0  0  0  0  0  0  0  0
   -3.6078    2.3536  -12.6304 N   0  3  0  0  0  0  0  0  0  0  0  0
   -3.4067   -0.4286  -12.5698 O   0  0  0  0  0  0  0  0  0  0  0  0
   -4.6834    0.1547   -9.1724 O   0  0  0  0  0  0  0  0  0  0  0  0
   -2.2997   -1.8855  -10.4784 O   0  0  0  0  0  0  0  0  0  0  0  0
   -8.9390    1.7056   -9.8301 C   0  0  2  0  0  0  0  0  0  0  0  0
  -10.3546    1.4447   -9.2979 C   0  0  0  0  0  0  0  0  0  0  0  0
  -10.7699   -0.0155   -9.4547 C   0  0  1  0  0  0  0  0  0  0  0  0
   -9.7481   -0.8862   -8.7364 C   0  0  2  0  0  0  0  0  0  0  0  0
   -8.3835   -0.7346   -9.4132 C   0  0  1  0  0  0  0  0  0  0  0  0
   -7.8857    0.7174   -9.3048 C   0  0  1  0  0  0  0  0  0  0  0  0
   -8.5009    3.1044   -9.5031 N   0  3  0  0  0  0  0  0  0  0  0  0
  -12.1530   -0.2419   -8.9219 N   0  3  0  0  0  0  0  0  0  0  0  0
   -7.4539   -1.6210   -8.8031 O   0  0  0  0  0  0  0  0  0  0  0  0
  -10.1574   -2.2659   -8.7579 O   0  0  0  0  0  0  0  0  0  0  0  0
   -6.6885    0.8828  -10.0928 O   0  0  0  0  0  0  0  0  0  0  0  0
   -9.6770   -3.0067   -7.6702 C   0  0  2  0  0  0  0  0  0  0  0  0
  -10.8208   -3.8064   -7.0376 C   0  0  1  0  0  0  0  0  0  0  0  0
  -11.7484   -2.8950   -6.2336 C   0  0  0  0  0  0  0  0  0  0  0  0
  -10.9181   -2.0958   -5.2423 C   0  0  1  0  0  0  0  0  0  0  0  0
   -9.8749   -1.2917   -5.9986 C   0  0  1  0  0  0  0  0  0  0  0  0
   -9.0147   -0.4649   -5.0602 C   0  0  0  0  0  0  0  0  0  0  0  0
  -11.6083   -4.4874   -8.1144 N   0  3  0  0  0  0  0  0  0  0  0  0
   -8.5734   -1.3533   -3.9293 N   0  3  0  0  0  0  0  0  0  0  0  0
  -11.7505   -1.2248   -4.4897 O   0  0  0  0  0  0  0  0  0  0  0  0
   -9.0098   -2.1896   -6.7143 O   0  0  0  0  0  0  0  0  0  0  0  0
  1  2  1  0  0  0  0
  1 22  1  6  0  0  0
  1 10  1  0  0  0  0
  2  3  1  0  0  0  0
  2  7  1  6  0  0  0
  3  4  1  0  0  0  0
  3  8  1  6  0  0  0
  4  5  1  0  0  0  0
  4  9  1  6  0  0  0
  5  6  1  1  0  0  0
  5 10  1  0  0  0  0
  6 11  1  0  0  0  0
 12 13  1  0  0  0  0
 12 17  1  0  0  0  0
 12 18  1  1  0  0  0
 13 14  1  0  0  0  0
 14 15  1  0  0  0  0
 14 19  1  1  0  0  0
 15 16  1  0  0  0  0
 15 21  1  6  0  0  0
 16 17  1  0  0  0  0
 16 20  1  1  0  0  0
 17 22  1  6  0  0  0
 23 21  1  6  0  0  0
 23 24  1  0  0  0  0
 23 32  1  0  0  0  0
 24 25  1  0  0  0  0
 24 29  1  6  0  0  0
 25 26  1  0  0  0  0
 26 27  1  0  0  0  0
 26 31  1  6  0  0  0
 27 28  1  1  0  0  0
 27 32  1  0  0  0  0
 28 30  1  0  0  0  0
M  CHG  5   8   1  18   1  19   1  29   1  30   1
M  END
>  <CHROM.1>
-141.22181552,177.29339028,-36.64557494,146.43732882,1.80245275,-174.60478916
67.43958032,-52.56784783,-152.10571278,-41.05275879,119.43343233,131.43767663
-92.11998796,65.41236234,47.23091191,58.92998163,-7.78169641,-0.44390982
-8.78532582,0.57553348,0.38558728,-0.48596800

>  <Name>
2tob cryst

>  <RI>
0

>  <Rbt.Current_Directory>
/home/itssahil/PROJECTS/Mol_Feturizer/New_Systems/rnas/2tob

>  <Rbt.Executable>
rbdock ($Id: //depot/dev/client3/rdock/2013.1/src/exe/rbdock.cxx#4 $)

>  <Rbt.Library>
libRbt.so (2013.1, Build901 2013/11/27)

>  <Rbt.Parameter_File>
/export/apps/rDock/src/rDock_2013.1_src/data/scripts/dock_solv.prm

>  <Rbt.Receptor>
prm/blind_docking_40.prm

>  <SCORE>
-31.5272

>  <SCORE.INTER>
-29.211

>  <SCORE.INTER.CONST>
1

>  <SCORE.INTER.POLAR>
-5.28268

>  <SCORE.INTER.ROT>
6

>  <SCORE.INTER.SOLV>
38.153

>  <SCORE.INTER.VDW>
-22.1827

>  <SCORE.INTER.norm>
-0.912843

>  <SCORE.INTRA>
-8.67272

>  <SCORE.INTRA.DIHEDRAL>
19.2527

>  <SCORE.INTRA.DIHEDRAL.0>
18.4221

>  <SCORE.INTRA.POLAR>
-0.366605

>  <SCORE.INTRA.POLAR.0>
-1.57101

>  <SCORE.INTRA.REPUL>
-0.730195

>  <SCORE.INTRA.REPUL.0>
0.730195

>  <SCORE.INTRA.SOLV>
-3.42108

>  <SCORE.INTRA.SOLV.lig_0>
-127.221

>  <SCORE.INTRA.VDW>
-11.6911

>  <SCORE.INTRA.VDW.0>
10.8385

>  <SCORE.INTRA.norm>
-0.271023

>  <SCORE.RESTR>
6.35653

>  <SCORE.RESTR.CAVITY>
6.35653

>  <SCORE.RESTR.norm>
0.198642

>  <SCORE.SYSTEM>
0

>  <SCORE.SYSTEM.CONST>
0

>  <SCORE.SYSTEM.DIHEDRAL>
0

>  <SCORE.SYSTEM.SOLV>
0

>  <SCORE.SYSTEM.norm>
0

>  <SCORE.heavy>
32

>  <SCORE.norm>
-0.985224

>  <RMSD>
4.184

$$$$
2tob cryst
 OpenBabel11021811463D
libRbt.so/2013.1/901 2013/11/27
 32 34  0  0  0  0  0  0  0  0999 V2000
   -6.4228   -0.0447   -8.6900 C   0  0  2  0  0  0  0  0  0  0  0  0
   -6.2773    1.4633   -8.8680 C   0  0  1  0  0  0  0  0  0  0  0  0
   -5.7494    1.7479  -10.2744 C   0  0  2  0  0  0  0  0  0  0  0  0
   -4.4444    0.9833  -10.5333 C   0  0  1  0  0  0  0  0  0  0  0  0
   -4.6350   -0.5027  -10.2103 C   0  0  1  0  0  0  0  0  0  0  0  0
   -3.3627   -1.3300  -10.2931 C   0  0  0  0  0  0  0  0  0  0  0  0
   -7.5396    2.0995   -8.6875 O   0  0  0  0  0  0  0  0  0  0  0  0
   -5.5173    3.1786  -10.6498 N   0  3  0  0  0  0  0  0  0  0  0  0
   -4.0807    1.1390  -11.8992 O   0  0  0  0  0  0  0  0  0  0  0  0
   -5.1580   -0.6517   -8.8752 O   0  0  0  0  0  0  0  0  0  0  0  0
   -2.4515   -0.7660  -11.2308 O   0  0  0  0  0  0  0  0  0  0  0  0
   -7.5215   -2.3438   -8.0592 C   0  0  2  0  0  0  0  0  0  0  0  0
   -8.4324   -3.3517   -7.3453 C   0  0  0  0  0  0  0  0  0  0  0  0
   -9.7897   -2.7515   -6.9893 C   0  0  1  0  0  0  0  0  0  0  0  0
  -10.4394   -2.2390   -8.2673 C   0  0  2  0  0  0  0  0  0  0  0  0
   -9.5903   -1.1079   -8.8527 C   0  0  1  0  0  0  0  0  0  0  0  0
   -8.1942   -1.6262   -9.2401 C   0  0  1  0  0  0  0  0  0  0  0  0
   -6.2696   -3.0152   -8.5461 N   0  3  0  0  0  0  0  0  0  0  0  0
  -10.6594   -3.7590   -6.2990 N   0  3  0  0  0  0  0  0  0  0  0  0
  -10.2480   -0.5659   -9.9911 O   0  0  0  0  0  0  0  0  0  0  0  0
  -11.7724   -1.7662   -8.0006 O   0  0  0  0  0  0  0  0  0  0  0  0
   -7.3527   -0.5194   -9.6258 O   0  0  0  0  0  0  0  0  0  0  0  0
  -12.6097   -1.7969   -9.1234 C   0  0  2  0  0  0  0  0  0  0  0  0
  -13.6494   -0.6752   -9.0298 C   0  0  1  0  0  0  0  0  0  0  0  0
  -14.7266   -1.0101   -7.9979 C   0  0  0  0  0  0  0  0  0  0  0  0
  -15.3068   -2.3787   -8.3160 C   0  0  1  0  0  0  0  0  0  0  0  0
  -14.1913   -3.4094   -8.3028 C   0  0  1  0  0  0  0  0  0  0  0  0
  -14.7106   -4.8024   -8.6091 C   0  0  0  0  0  0  0  0  0  0  0  0
  -12.9712    0.6021   -8.6397 N   0  3  0  0  0  0  0  0  0  0  0  0
  -13.5924   -5.7793   -8.3679 N   0  3  0  0  0  0  0  0  0  0  0  0
  -16.3011   -2.7274   -7.3633 O   0  0  0  0  0  0  0  0  0  0  0  0
  -13.2193   -3.0703   -9.3063 O   0  0  0  0  0  0  0  0  0  0  0  0
  1  2  1  0  0  0  0
  1 22  1  6  0  0  0
  1 10  1  0  0  0  0
  2  3  1  0  0  0  0
  2  7  1  6  0  0  0
  3  4  1  0  0  0  0
  3  8  1  1  0  0  0
  4  5  1  0  0  0  0
  4  9  1  6  0  0  0
  5  6  1  1  0  0  0
  5 10  1  0  0  0  0
  6 11  1  0  0  0  0
 12 13  1  0  0  0  0
 12 17  1  0  0  0  0
 12 18  1  6  0  0  0
 13 14  1  0  0  0  0
 14 15  1  0  0  0  0
 14 19  1  6  0  0  0
 15 16  1  0  0  0  0
 15 21  1  1  0  0  0
 16 17  1  0  0  0  0
 16 20  1  6  0  0  0
 17 22  1  1  0  0  0
 23 21  1  1  0  0  0
 23 24  1  0  0  0  0
 23 32  1  0  0  0  0
 24 25  1  0  0  0  0
 24 29  1  1  0  0  0
 25 26  1  0  0  0  0
 26 27  1  0  0  0  0
 26 31  1  1  0  0  0
 27 28  1  6  0  0  0
 27 32  1  0  0  0  0
 28 30  1  0  0  0  0
M  CHG  5   8   1  18   1  19   1  29   1  30   1
M  END
>  <CHROM.1>
-146.15221037,-49.67094546,-66.29319976,-74.51891012,-28.37115629,-69.03951002
-46.97816890,-53.73736295,-155.35780479,-174.72305506,-20.11308500,-149.69337207
62.03296271,51.51582881,-171.41380862,-53.65930488,-9.27089709,-1.26438958
-8.97161321,0.37710998,0.11704543,-0.27622018

>  <Name>
2tob cryst

>  <RI>
2.04895e+07

>  <Rbt.Current_Directory>
/home/itssahil/PROJECTS/Mol_Feturizer/New_Systems/rnas/2tob

>  <Rbt.Executable>
rbdock ($Id: //depot/dev/client3/rdock/2013.1/src/exe/rbdock.cxx#4 $)

>  <Rbt.Library>
libRbt.so (2013.1, Build901 2013/11/27)

>  <Rbt.Parameter_File>
/export/apps/rDock/src/rDock_2013.1_src/data/scripts/dock_solv.prm

>  <Rbt.Receptor>
prm/blind_docking_20.prm

>  <SCORE>
-38.3262

>  <SCORE.INTER>
-28.3026

>  <SCORE.INTER.CONST>
1

>  <SCORE.INTER.POLAR>
-7.03781

>  <SCORE.INTER.ROT>
6

>  <SCORE.INTER.SOLV>
39.6312

>  <SCORE.INTER.VDW>
-16.2195

>  <SCORE.INTER.norm>
-0.884457

>  <SCORE.INTRA>
-12.1256

>  <SCORE.INTRA.DIHEDRAL>
3.88258

>  <SCORE.INTRA.DIHEDRAL.0>
18.4221

>  <SCORE.INTRA.POLAR>
0.612226

>  <SCORE.INTRA.POLAR.0>
-1.57101

>  <SCORE.INTRA.REPUL>
-0.67843

>  <SCORE.INTRA.REPUL.0>
0.730195

>  <SCORE.INTRA.SOLV>
-3.70832

>  <SCORE.INTRA.SOLV.lig_0>
-127.221

>  <SCORE.INTRA.VDW>
-10.9022

>  <SCORE.INTRA.VDW.0>
10.8385

>  <SCORE.INTRA.norm>
-0.378926

>  <SCORE.RESTR>
2.10201

>  <SCORE.RESTR.CAVITY>
2.10201

>  <SCORE.RESTR.norm>
0.0656879

>  <SCORE.SYSTEM>
0

>  <SCORE.SYSTEM.CONST>
0

>  <SCORE.SYSTEM.DIHEDRAL>
0

>  <SCORE.SYSTEM.SOLV>
0

>  <SCORE.SYSTEM.norm>
0

>  <SCORE.heavy>
32

>  <SCORE.norm>
-1.19769

>  <RMSD>
4.241

$$$$
2tob cryst
 OpenBabel11021811463D
libRbt.so/2013.1/901 2013/11/27
 32 34  0  0  0  0  0  0  0  0999 V2000
   -8.1182   -0.3169   -9.9992 C   0  0  2  0  0  0  0  0  0  0  0  0
   -6.9533    0.6297  -10.2714 C   0  0  1  0  0  0  0  0  0  0  0  0
   -6.7244    1.5020   -9.0367 C   0  0  2  0  0  0  0  0  0  0  0  0
   -8.0130    2.2336   -8.6382 C   0  0  1  0  0  0  0  0  0  0  0  0
   -9.1656    1.2318   -8.5087 C   0  0  1  0  0  0  0  0  0  0  0  0
  -10.5232    1.8677   -8.2586 C   0  0  0  0  0  0  0  0  0  0  0  0
   -5.7750   -0.1180  -10.5602 O   0  0  0  0  0  0  0  0  0  0  0  0
   -5.6283    2.5199   -9.1024 N   0  3  0  0  0  0  0  0  0  0  0  0
   -7.8041    2.8944   -7.3964 O   0  0  0  0  0  0  0  0  0  0  0  0
   -9.2735    0.4491   -9.7144 O   0  0  0  0  0  0  0  0  0  0  0  0
  -11.5737    0.9948   -8.6616 O   0  0  0  0  0  0  0  0  0  0  0  0
   -7.7553   -3.2620   -7.7677 C   0  0  2  0  0  0  0  0  0  0  0  0
   -8.5643   -4.4563   -7.2442 C   0  0  0  0  0  0  0  0  0  0  0  0
   -9.9314   -4.0377   -6.7102 C   0  0  1  0  0  0  0  0  0  0  0  0
  -10.6815   -3.3156   -7.8210 C   0  0  2  0  0  0  0  0  0  0  0  0
   -9.9337   -2.0320   -8.1903 C   0  0  1  0  0  0  0  0  0  0  0  0
   -8.5345   -2.3615   -8.7393 C   0  0  1  0  0  0  0  0  0  0  0  0
   -6.4966   -3.7300   -8.4400 N   0  3  0  0  0  0  0  0  0  0  0  0
  -10.7008   -5.2240   -6.2115 N   0  3  0  0  0  0  0  0  0  0  0  0
  -10.6854   -1.3107   -9.1582 O   0  0  0  0  0  0  0  0  0  0  0  0
  -12.0221   -3.0009   -7.4023 O   0  0  0  0  0  0  0  0  0  0  0  0
   -7.7815   -1.1439   -8.9183 O   0  0  0  0  0  0  0  0  0  0  0  0
  -12.9366   -2.9380   -8.4617 C   0  0  2  0  0  0  0  0  0  0  0  0
  -14.3665   -3.0601   -7.9245 C   0  0  1  0  0  0  0  0  0  0  0  0
  -14.6760   -4.4988   -7.5100 C   0  0  0  0  0  0  0  0  0  0  0  0
  -14.3609   -5.4263   -8.6725 C   0  0  1  0  0  0  0  0  0  0  0  0
  -12.9007   -5.2657   -9.0579 C   0  0  1  0  0  0  0  0  0  0  0  0
  -12.5221   -6.1737  -10.2139 C   0  0  0  0  0  0  0  0  0  0  0  0
  -14.5332   -2.1578   -6.7406 N   0  3  0  0  0  0  0  0  0  0  0  0
  -13.4150   -5.8415  -11.3781 N   0  3  0  0  0  0  0  0  0  0  0  0
  -14.6225   -6.7755   -8.3129 O   0  0  0  0  0  0  0  0  0  0  0  0
  -12.6638   -3.9081   -9.4672 O   0  0  0  0  0  0  0  0  0  0  0  0
  1  2  1  0  0  0  0
  1 22  1  1  0  0  0
  1 10  1  0  0  0  0
  2  3  1  0  0  0  0
  2  7  1  1  0  0  0
  3  4  1  0  0  0  0
  3  8  1  6  0  0  0
  4  5  1  0  0  0  0
  4  9  1  1  0  0  0
  5  6  1  6  0  0  0
  5 10  1  0  0  0  0
  6 11  1  0  0  0  0
 12 13  1  0  0  0  0
 12 17  1  0  0  0  0
 12 18  1  6  0  0  0
 13 14  1  0  0  0  0
 14 15  1  0  0  0  0
 14 19  1  6  0  0  0
 15 16  1  0  0  0  0
 15 21  1  1  0  0  0
 16 17  1  0  0  0  0
 16 20  1  6  0  0  0
 17 22  1  1  0  0  0
 23 21  1  1  0  0  0
 23 24  1  0  0  0  0
 23 32  1  0  0  0  0
 24 25  1  0  0  0  0
 24 29  1  1  0  0  0
 25 26  1  0  0  0  0
 26 27  1  0  0  0  0
 26 31  1  1  0  0  0
 27 28  1  6  0  0  0
 27 32  1  0  0  0  0
 28 30  1  0  0  0  0
M  CHG  5   8   1  18   1  19   1  29   1  30   1
M  END
>  <CHROM.1>
-161.62522780,-179.48746742,178.77797907,-54.82444517,157.18586815,-80.18134189
29.65920901,-173.02724051,-151.51399090,-82.21202895,164.60277588,161.54389344
-138.29184039,65.68693607,58.21498196,-83.00703324,-10.29925477,-2.05446465
-8.58736341,-0.77625077,-0.11442760,-3.11239408

>  <Name>
2tob cryst

>  <RI>
2.04895e+07

>  <Rbt.Current_Directory>
/home/itssahil/PROJECTS/Mol_Feturizer/New_Systems/rnas/2tob

>  <Rbt.Executable>
rbdock ($Id: //depot/dev/client3/rdock/2013.1/src/exe/rbdock.cxx#4 $)

>  <Rbt.Library>
libRbt.so (2013.1, Build901 2013/11/27)

>  <Rbt.Parameter_File>
/export/apps/rDock/src/rDock_2013.1_src/data/scripts/dock_solv.prm

>  <Rbt.Receptor>
prm/blind_docking_20.prm

>  <SCORE>
-9.41345

>  <SCORE.INTER>
0.433027

>  <SCORE.INTER.CONST>
1

>  <SCORE.INTER.POLAR>
-3.70776

>  <SCORE.INTER.ROT>
6

>  <SCORE.INTER.SOLV>
42.4868

>  <SCORE.INTER.VDW>
-9.11439

>  <SCORE.INTER.norm>
0.0135321

>  <SCORE.INTRA>
-13.2063

>  <SCORE.INTRA.DIHEDRAL>
1.12605

>  <SCORE.INTRA.DIHEDRAL.0>
18.4221

>  <SCORE.INTRA.POLAR>
1.23308

>  <SCORE.INTRA.POLAR.0>
-1.57101

>  <SCORE.INTRA.REPUL>
-0.730195

>  <SCORE.INTRA.REPUL.0>
0.730195

>  <SCORE.INTRA.SOLV>
-5.71967

>  <SCORE.INTRA.SOLV.lig_0>
-127.221

>  <SCORE.INTRA.VDW>
-11.4509

>  <SCORE.INTRA.VDW.0>
10.8385

>  <SCORE.INTRA.norm>
-0.412695

>  <SCORE.RESTR>
3.35977

>  <SCORE.RESTR.CAVITY>
3.35977

>  <SCORE.RESTR.norm>
0.104993

>  <SCORE.SYSTEM>
0

>  <SCORE.SYSTEM.CONST>
0

>  <SCORE.SYSTEM.DIHEDRAL>
0

>  <SCORE.SYSTEM.SOLV>
0

>  <SCORE.SYSTEM.norm>
0

>  <SCORE.heavy>
32

>  <SCORE.norm>
-0.29417

>  <RMSD>
4.248

$$$$
2tob cryst
 OpenBabel11021811463D
libRbt.so/2013.1/901 2013/11/27
 32 34  0  0  0  0  0  0  0  0999 V2000
   -7.2965   -0.5795   -7.9107 C   0  0  2  0  0  0  0  0  0  0  0  0
   -8.1515    0.3770   -7.0854 C   0  0  1  0  0  0  0  0  0  0  0  0
   -8.5928    1.5402   -7.9743 C   0  0  2  0  0  0  0  0  0  0  0  0
   -7.3810    2.2234   -8.6218 C   0  0  1  0  0  0  0  0  0  0  0  0
   -6.5039    1.1800   -9.3225 C   0  0  1  0  0  0  0  0  0  0  0  0
   -5.1984    1.7283   -9.8751 C   0  0  0  0  0  0  0  0  0  0  0  0
   -9.2954   -0.3053   -6.5787 O   0  0  0  0  0  0  0  0  0  0  0  0
   -9.4334    2.6093   -7.3479 N   0  3  0  0  0  0  0  0  0  0  0  0
   -7.8408    3.1821   -9.5661 O   0  0  0  0  0  0  0  0  0  0  0  0
   -6.1699    0.1217   -8.4024 O   0  0  0  0  0  0  0  0  0  0  0  0
   -5.4407    2.6115  -10.9654 O   0  0  0  0  0  0  0  0  0  0  0  0
   -8.1451   -3.1312   -7.6898 C   0  0  2  0  0  0  0  0  0  0  0  0
   -9.0094   -4.2459   -7.0849 C   0  0  0  0  0  0  0  0  0  0  0  0
  -10.3407   -3.7205   -6.5550 C   0  0  1  0  0  0  0  0  0  0  0  0
  -11.0703   -3.0220   -7.6943 C   0  0  2  0  0  0  0  0  0  0  0  0
  -10.2594   -1.8061   -8.1495 C   0  0  1  0  0  0  0  0  0  0  0  0
   -8.8912   -2.2454   -8.7000 C   0  0  1  0  0  0  0  0  0  0  0  0
   -6.9273   -3.7076   -8.3531 N   0  3  0  0  0  0  0  0  0  0  0  0
  -11.1654   -4.8307   -5.9760 N   0  3  0  0  0  0  0  0  0  0  0  0
  -10.9878   -1.1002   -9.1459 O   0  0  0  0  0  0  0  0  0  0  0  0
  -12.3831   -2.6084   -7.2738 O   0  0  0  0  0  0  0  0  0  0  0  0
   -8.0751   -1.0846   -8.9615 O   0  0  0  0  0  0  0  0  0  0  0  0
  -13.3900   -3.5225   -7.6106 C   0  0  2  0  0  0  0  0  0  0  0  0
  -14.5143   -2.8055   -8.3654 C   0  0  1  0  0  0  0  0  0  0  0  0
  -15.3586   -1.9561   -7.4151 C   0  0  0  0  0  0  0  0  0  0  0  0
  -15.8323   -2.8271   -6.2628 C   0  0  1  0  0  0  0  0  0  0  0  0
  -14.6255   -3.4149   -5.5522 C   0  0  1  0  0  0  0  0  0  0  0  0
  -15.0349   -4.2932   -4.3838 C   0  0  0  0  0  0  0  0  0  0  0  0
  -13.9226   -1.9246   -9.4225 N   0  3  0  0  0  0  0  0  0  0  0  0
  -15.6416   -5.5529   -4.9388 N   0  3  0  0  0  0  0  0  0  0  0  0
  -16.6072   -2.0616   -5.3510 O   0  0  0  0  0  0  0  0  0  0  0  0
  -13.8799   -4.2272   -6.4748 O   0  0  0  0  0  0  0  0  0  0  0  0
  1  2  1  0  0  0  0
  1 22  1  6  0  0  0
  1 10  1  0  0  0  0
  2  3  1  0  0  0  0
  2  7  1  6  0  0  0
  3  4  1  0  0  0  0
  3  8  1  1  0  0  0
  4  5  1  0  0  0  0
  4  9  1  6  0  0  0
  5  6  1  1  0  0  0
  5 10  1  0  0  0  0
  6 11  1  0  0  0  0
 12 13  1  0  0  0  0
 12 17  1  0  0  0  0
 12 18  1  6  0  0  0
 13 14  1  0  0  0  0
 14 15  1  0  0  0  0
 14 19  1  6  0  0  0
 15 16  1  0  0  0  0
 15 21  1  1  0  0  0
 16 17  1  0  0  0  0
 16 20  1  6  0  0  0
 17 22  1  1  0  0  0
 23 21  1  1  0  0  0
 23 24  1  0  0  0  0
 23 32  1  0  0  0  0
 24 25  1  0  0  0  0
 24 29  1  6  0  0  0
 25 26  1  0  0  0  0
 26 27  1  0  0  0  0
 26 31  1  1  0  0  0
 27 28  1  1  0  0  0
 27 32  1  0  0  0  0
 28 30  1  0  0  0  0
M  CHG  5   8   1  18   1  19   1  29   1  30   1
M  END
>  <CHROM.1>
-85.85689858,-164.63307921,171.78660446,-54.94484900,-68.19027761,48.09498340
132.00971889,-48.41266110,-95.71799311,-111.81556666,-33.75195415,-127.43726045
-25.26483921,43.46115046,71.29065741,48.49582259,-10.55819596,-1.52158019
-7.66924578,-0.59663548,-0.18145620,2.86258816

>  <Name>
2tob cryst

>  <RI>
3.75586e+07

>  <Rbt.Current_Directory>
/home/itssahil/PROJECTS/Mol_Feturizer/New_Systems/rnas/2tob

>  <Rbt.Executable>
rbdock ($Id: //depot/dev/client3/rdock/2013.1/src/exe/rbdock.cxx#4 $)

>  <Rbt.Library>
libRbt.so (2013.1, Build901 2013/11/27)

>  <Rbt.Parameter_File>
/export/apps/rDock/src/rDock_2013.1_src/data/scripts/dock_solv.prm

>  <Rbt.Receptor>
prm/pocket_docking_8.prm

>  <SCORE>
-50.9584

>  <SCORE.INTER>
-44.0062

>  <SCORE.INTER.CONST>
1

>  <SCORE.INTER.POLAR>
-5.70713

>  <SCORE.INTER.ROT>
6

>  <SCORE.INTER.SOLV>
37.7723

>  <SCORE.INTER.VDW>
-30.5045

>  <SCORE.INTER.norm>
-1.37519

>  <SCORE.INTRA>
-6.95215

>  <SCORE.INTRA.DIHEDRAL>
15.8564

>  <SCORE.INTRA.DIHEDRAL.0>
18.4221

>  <SCORE.INTRA.POLAR>
-1.04322

>  <SCORE.INTRA.POLAR.0>
-1.57101

>  <SCORE.INTRA.REPUL>
-0.730195

>  <SCORE.INTRA.REPUL.0>
0.730195

>  <SCORE.INTRA.SOLV>
-1.4689

>  <SCORE.INTRA.SOLV.lig_0>
-127.221

>  <SCORE.INTRA.VDW>
-6.94796

>  <SCORE.INTRA.VDW.0>
10.8385

>  <SCORE.INTRA.norm>
-0.217255

>  <SCORE.RESTR>
0

>  <SCORE.RESTR.CAVITY>
0

>  <SCORE.RESTR.norm>
0

>  <SCORE.SYSTEM>
0

>  <SCORE.SYSTEM.CONST>
0

>  <SCORE.SYSTEM.DIHEDRAL>
0

>  <SCORE.SYSTEM.SOLV>
0

>  <SCORE.SYSTEM.norm>
0

>  <SCORE.heavy>
32

>  <SCORE.norm>
-1.59245

>  <RMSD>
4.272

$$$$
2tob cryst
 OpenBabel11021811463D
libRbt.so/2013.1/901 2013/11/27
 32 34  0  0  0  0  0  0  0  0999 V2000
   -5.9064    1.8232  -10.8817 C   0  0  2  0  0  0  0  0  0  0  0  0
   -4.9258    0.8664  -11.5525 C   0  0  1  0  0  0  0  0  0  0  0  0
   -3.5360    1.0791  -10.9518 C   0  0  2  0  0  0  0  0  0  0  0  0
   -3.1121    2.5497  -11.0626 C   0  0  1  0  0  0  0  0  0  0  0  0
   -4.2047    3.4549  -10.4831 C   0  0  1  0  0  0  0  0  0  0  0  0
   -3.9525    4.9417  -10.6731 C   0  0  0  0  0  0  0  0  0  0  0  0
   -5.3408   -0.4811  -11.3456 O   0  0  0  0  0  0  0  0  0  0  0  0
   -2.4152    0.2438  -11.4883 N   0  3  0  0  0  0  0  0  0  0  0  0
   -1.8983    2.7362  -10.3455 O   0  0  0  0  0  0  0  0  0  0  0  0
   -5.4717    3.1520  -11.1004 O   0  0  0  0  0  0  0  0  0  0  0  0
   -2.8027    5.3580   -9.9434 O   0  0  0  0  0  0  0  0  0  0  0  0
   -8.3120    1.9863   -9.7403 C   0  0  2  0  0  0  0  0  0  0  0  0
   -9.7489    1.5408   -9.4371 C   0  0  0  0  0  0  0  0  0  0  0  0
   -9.9078    0.0241   -9.4980 C   0  0  1  0  0  0  0  0  0  0  0  0
   -8.9244   -0.6025   -8.5190 C   0  0  2  0  0  0  0  0  0  0  0  0
   -7.4935   -0.2850   -8.9603 C   0  0  1  0  0  0  0  0  0  0  0  0
   -7.2441    1.2332   -8.9313 C   0  0  1  0  0  0  0  0  0  0  0  0
   -8.1542    3.4606   -9.5020 N   0  3  0  0  0  0  0  0  0  0  0  0
  -11.3184   -0.3820   -9.1924 N   0  3  0  0  0  0  0  0  0  0  0  0
   -6.5768   -0.9513   -8.1013 O   0  0  0  0  0  0  0  0  0  0  0  0
   -9.1150   -2.0277   -8.4556 O   0  0  0  0  0  0  0  0  0  0  0  0
   -5.9565    1.5272   -9.5121 O   0  0  0  0  0  0  0  0  0  0  0  0
   -8.8980   -2.5628   -7.1792 C   0  0  2  0  0  0  0  0  0  0  0  0
   -8.0186   -3.8135   -7.2804 C   0  0  1  0  0  0  0  0  0  0  0  0
   -8.8105   -4.9978   -7.8353 C   0  0  0  0  0  0  0  0  0  0  0  0
  -10.0704   -5.1819   -7.0050 C   0  0  1  0  0  0  0  0  0  0  0  0
  -10.8884   -3.9030   -7.0483 C   0  0  1  0  0  0  0  0  0  0  0  0
  -12.1668   -4.0267   -6.2392 C   0  0  0  0  0  0  0  0  0  0  0  0
   -6.8539   -3.5328   -8.1794 N   0  3  0  0  0  0  0  0  0  0  0  0
  -12.8420   -2.6825   -6.2276 N   0  3  0  0  0  0  0  0  0  0  0  0
  -10.8385   -6.2665   -7.5066 O   0  0  0  0  0  0  0  0  0  0  0  0
  -10.1162   -2.8260   -6.4910 O   0  0  0  0  0  0  0  0  0  0  0  0
  1  2  1  0  0  0  0
  1 22  1  1  0  0  0
  1 10  1  0  0  0  0
  2  3  1  0  0  0  0
  2  7  1  1  0  0  0
  3  4  1  0  0  0  0
  3  8  1  6  0  0  0
  4  5  1  0  0  0  0
  4  9  1  1  0  0  0
  5  6  1  6  0  0  0
  5 10  1  0  0  0  0
  6 11  1  0  0  0  0
 12 13  1  0  0  0  0
 12 17  1  0  0  0  0
 12 18  1  1  0  0  0
 13 14  1  0  0  0  0
 14 15  1  0  0  0  0
 14 19  1  1  0  0  0
 15 16  1  0  0  0  0
 15 21  1  6  0  0  0
 16 17  1  0  0  0  0
 16 20  1  1  0  0  0
 17 22  1  6  0  0  0
 23 21  1  6  0  0  0
 23 24  1  0  0  0  0
 23 32  1  0  0  0  0
 24 25  1  0  0  0  0
 24 29  1  6  0  0  0
 25 26  1  0  0  0  0
 26 27  1  0  0  0  0
 26 31  1  6  0  0  0
 27 28  1  1  0  0  0
 27 32  1  0  0  0  0
 28 30  1  0  0  0  0
M  CHG  5   8   1  18   1  19   1  29   1  30   1
M  END
>  <CHROM.1>
-124.40308636,-69.82866363,72.83283321,-48.09641338,-65.29016304,60.38234796
72.48143669,-56.79435048,-144.97930779,-165.21648725,-28.72940040,-133.50867863
-116.03985274,-62.62910631,174.58777178,-43.54144872,-7.34536754,-0.26170515
-9.08259589,0.80515123,0.28752384,-0.21364579

>  <Name>
2tob cryst

>  <RI>
0

>  <Rbt.Current_Directory>
/home/itssahil/PROJECTS/Mol_Feturizer/New_Systems/rnas/2tob

>  <Rbt.Executable>
rbdock ($Id: //depot/dev/client3/rdock/2013.1/src/exe/rbdock.cxx#4 $)

>  <Rbt.Library>
libRbt.so (2013.1, Build901 2013/11/27)

>  <Rbt.Parameter_File>
/export/apps/rDock/src/rDock_2013.1_src/data/scripts/dock_solv.prm

>  <Rbt.Receptor>
prm/blind_docking_100.prm

>  <SCORE>
-27.3382

>  <SCORE.INTER>
-22.6577

>  <SCORE.INTER.CONST>
1

>  <SCORE.INTER.POLAR>
-6.90292

>  <SCORE.INTER.ROT>
6

>  <SCORE.INTER.SOLV>
41.5803

>  <SCORE.INTER.VDW>
-13.5555

>  <SCORE.INTER.norm>
-0.708054

>  <SCORE.INTRA>
-13.4424

>  <SCORE.INTRA.DIHEDRAL>
10.8122

>  <SCORE.INTRA.DIHEDRAL.0>
18.4221

>  <SCORE.INTRA.POLAR>
-0.601951

>  <SCORE.INTRA.POLAR.0>
-1.57101

>  <SCORE.INTRA.REPUL>
-0.730195

>  <SCORE.INTRA.REPUL.0>
0.730195

>  <SCORE.INTRA.SOLV>
-2.64497

>  <SCORE.INTRA.SOLV.lig_0>
-127.221

>  <SCORE.INTRA.VDW>
-11.8284

>  <SCORE.INTRA.VDW.0>
10.8385

>  <SCORE.INTRA.norm>
-0.420074

>  <SCORE.RESTR>
8.76185

>  <SCORE.RESTR.CAVITY>
8.76185

>  <SCORE.RESTR.norm>
0.273808

>  <SCORE.SYSTEM>
0

>  <SCORE.SYSTEM.CONST>
0

>  <SCORE.SYSTEM.DIHEDRAL>
0

>  <SCORE.SYSTEM.SOLV>
0

>  <SCORE.SYSTEM.norm>
0

>  <SCORE.heavy>
32

>  <SCORE.norm>
-0.85432

>  <RMSD>
4.273

$$$$
2tob cryst
 OpenBabel11021811463D
libRbt.so/2013.1/901 2013/11/27
 32 34  0  0  0  0  0  0  0  0999 V2000
   -5.5584    1.5325   -9.4580 C   0  0  2  0  0  0  0  0  0  0  0  0
   -4.6851    2.3975  -10.3614 C   0  0  1  0  0  0  0  0  0  0  0  0
   -4.3469    1.6089  -11.6268 C   0  0  2  0  0  0  0  0  0  0  0  0
   -3.6998    0.2628  -11.2752 C   0  0  1  0  0  0  0  0  0  0  0  0
   -4.5735   -0.4908  -10.2664 C   0  0  1  0  0  0  0  0  0  0  0  0
   -3.9549   -1.7746   -9.7378 C   0  0  0  0  0  0  0  0  0  0  0  0
   -5.3773    3.5940  -10.7078 O   0  0  0  0  0  0  0  0  0  0  0  0
   -3.4766    2.2764  -12.6461 N   0  3  0  0  0  0  0  0  0  0  0  0
   -3.5586   -0.5065  -12.4629 O   0  0  0  0  0  0  0  0  0  0  0  0
   -4.8498    0.3523   -9.1301 O   0  0  0  0  0  0  0  0  0  0  0  0
   -4.9630   -2.6810   -9.3019 O   0  0  0  0  0  0  0  0  0  0  0  0
   -9.0464    1.8943   -9.8238 C   0  0  2  0  0  0  0  0  0  0  0  0
  -10.4362    1.5183   -9.2926 C   0  0  0  0  0  0  0  0  0  0  0  0
  -10.7551    0.0410   -9.5057 C   0  0  1  0  0  0  0  0  0  0  0  0
   -9.6707   -0.7876   -8.8309 C   0  0  2  0  0  0  0  0  0  0  0  0
   -8.3259   -0.5181   -9.5107 C   0  0  1  0  0  0  0  0  0  0  0  0
   -7.9247    0.9584   -9.3468 C   0  0  1  0  0  0  0  0  0  0  0  0
   -8.6990    3.3049   -9.4432 N   0  3  0  0  0  0  0  0  0  0  0  0
  -12.1148   -0.2984   -8.9726 N   0  3  0  0  0  0  0  0  0  0  0  0
   -7.3336   -1.3643   -8.9439 O   0  0  0  0  0  0  0  0  0  0  0  0
   -9.9876   -2.1896   -8.9056 O   0  0  0  0  0  0  0  0  0  0  0  0
   -6.7489    1.2349  -10.1360 O   0  0  0  0  0  0  0  0  0  0  0  0
   -9.4517   -2.9391   -7.8503 C   0  0  2  0  0  0  0  0  0  0  0  0
  -10.5563   -3.7666   -7.1845 C   0  0  1  0  0  0  0  0  0  0  0  0
  -11.4642   -2.8826   -6.3291 C   0  0  0  0  0  0  0  0  0  0  0  0
  -10.6065   -2.0854   -5.3598 C   0  0  1  0  0  0  0  0  0  0  0  0
   -9.6076   -1.2532   -6.1450 C   0  0  1  0  0  0  0  0  0  0  0  0
   -8.7226   -0.4272   -5.2293 C   0  0  0  0  0  0  0  0  0  0  0  0
  -11.3766   -4.4437   -8.2391 N   0  3  0  0  0  0  0  0  0  0  0  0
   -8.2950    0.8035   -5.9813 N   0  3  0  0  0  0  0  0  0  0  0  0
  -11.4208   -1.2395   -4.5602 O   0  0  0  0  0  0  0  0  0  0  0  0
   -8.7588   -2.1260   -6.9094 O   0  0  0  0  0  0  0  0  0  0  0  0
  1  2  1  0  0  0  0
  1 22  1  6  0  0  0
  1 10  1  0  0  0  0
  2  3  1  0  0  0  0
  2  7  1  6  0  0  0
  3  4  1  0  0  0  0
  3  8  1  6  0  0  0
  4  5  1  0  0  0  0
  4  9  1  6  0  0  0
  5  6  1  1  0  0  0
  5 10  1  0  0  0  0
  6 11  1  0  0  0  0
 12 13  1  0  0  0  0
 12 17  1  0  0  0  0
 12 18  1  1  0  0  0
 13 14  1  0  0  0  0
 14 15  1  0  0  0  0
 14 19  1  1  0  0  0
 15 16  1  0  0  0  0
 15 21  1  6  0  0  0
 16 17  1  0  0  0  0
 16 20  1  1  0  0  0
 17 22  1  6  0  0  0
 23 21  1  6  0  0  0
 23 24  1  0  0  0  0
 23 32  1  0  0  0  0
 24 25  1  0  0  0  0
 24 29  1  6  0  0  0
 25 26  1  0  0  0  0
 26 27  1  0  0  0  0
 26 31  1  6  0  0  0
 27 28  1  1  0  0  0
 27 32  1  0  0  0  0
 28 30  1  0  0  0  0
M  CHG  5   8   1  18   1  19   1  29   1  30   1
M  END
>  <CHROM.1>
-153.50959931,179.17531973,-158.37751987,70.98076733,-154.94271102,-60.64500072
61.45084427,-52.09645901,-151.91981449,-41.74354286,126.18611439,127.63061130
139.73503369,-176.27262175,-151.87955339,-67.86470637,-7.80917734,-0.29754012
-8.86896511,0.54124231,0.47318384,-0.27608922

>  <Name>
2tob cryst

>  <RI>
0

>  <Rbt.Current_Directory>
/home/itssahil/PROJECTS/Mol_Feturizer/New_Systems/rnas/2tob

>  <Rbt.Executable>
rbdock ($Id: //depot/dev/client3/rdock/2013.1/src/exe/rbdock.cxx#4 $)

>  <Rbt.Library>
libRbt.so (2013.1, Build901 2013/11/27)

>  <Rbt.Parameter_File>
/export/apps/rDock/src/rDock_2013.1_src/data/scripts/dock_solv.prm

>  <Rbt.Receptor>
prm/blind_docking_40.prm

>  <SCORE>
-38.9571

>  <SCORE.INTER>
-34.1873

>  <SCORE.INTER.CONST>
1

>  <SCORE.INTER.POLAR>
-5.61769

>  <SCORE.INTER.ROT>
6

>  <SCORE.INTER.SOLV>
43.5488

>  <SCORE.INTER.VDW>
-26.1822

>  <SCORE.INTER.norm>
-1.06835

>  <SCORE.INTRA>
-9.77722

>  <SCORE.INTRA.DIHEDRAL>
12.2922

>  <SCORE.INTRA.DIHEDRAL.0>
18.4221

>  <SCORE.INTRA.POLAR>
0.467139

>  <SCORE.INTRA.POLAR.0>
-1.57101

>  <SCORE.INTRA.REPUL>
-0.722404

>  <SCORE.INTRA.REPUL.0>
0.730195

>  <SCORE.INTRA.SOLV>
-1.02913

>  <SCORE.INTRA.SOLV.lig_0>
-127.221

>  <SCORE.INTRA.VDW>
-13.385

>  <SCORE.INTRA.VDW.0>
10.8385

>  <SCORE.INTRA.norm>
-0.305538

>  <SCORE.RESTR>
5.00742

>  <SCORE.RESTR.CAVITY>
5.00742

>  <SCORE.RESTR.norm>
0.156482

>  <SCORE.SYSTEM>
0

>  <SCORE.SYSTEM.CONST>
0

>  <SCORE.SYSTEM.DIHEDRAL>
0

>  <SCORE.SYSTEM.SOLV>
0

>  <SCORE.SYSTEM.norm>
0

>  <SCORE.heavy>
32

>  <SCORE.norm>
-1.21741

>  <RMSD>
4.275

$$$$
2tob cryst
 OpenBabel11021811463D
libRbt.so/2013.1/901 2013/11/27
 32 34  0  0  0  0  0  0  0  0999 V2000
  -10.1303   -0.9135   -7.3411 C   0  0  2  0  0  0  0  0  0  0  0  0
   -8.7400   -1.2253   -7.8860 C   0  0  1  0  0  0  0  0  0  0  0  0
   -8.3493   -2.6425   -7.4661 C   0  0  2  0  0  0  0  0  0  0  0  0
   -8.4495   -2.8086   -5.9439 C   0  0  1  0  0  0  0  0  0  0  0  0
   -9.8303   -2.3551   -5.4573 C   0  0  1  0  0  0  0  0  0  0  0  0
   -9.9882   -2.3407   -3.9457 C   0  0  0  0  0  0  0  0  0  0  0  0
   -8.7399   -1.1250   -9.3076 O   0  0  0  0  0  0  0  0  0  0  0  0
   -7.0024   -3.1424   -7.8877 N   0  3  0  0  0  0  0  0  0  0  0  0
   -8.2451   -4.1766   -5.6137 O   0  0  0  0  0  0  0  0  0  0  0  0
  -10.1038   -1.0211   -5.9304 O   0  0  0  0  0  0  0  0  0  0  0  0
   -9.9400   -3.6626   -3.4184 O   0  0  0  0  0  0  0  0  0  0  0  0
  -13.2608   -1.1104   -8.5308 C   0  0  2  0  0  0  0  0  0  0  0  0
  -14.7730   -1.2594   -8.3165 C   0  0  0  0  0  0  0  0  0  0  0  0
  -15.1760   -2.7038   -8.0328 C   0  0  1  0  0  0  0  0  0  0  0  0
  -14.4022   -3.1889   -6.8147 C   0  0  2  0  0  0  0  0  0  0  0  0
  -12.9047   -3.1969   -7.1320 C   0  0  1  0  0  0  0  0  0  0  0  0
  -12.4098   -1.7718   -7.4352 C   0  0  1  0  0  0  0  0  0  0  0  0
  -12.8818    0.3391   -8.6337 N   0  3  0  0  0  0  0  0  0  0  0  0
  -16.6562   -2.8182   -7.8223 N   0  3  0  0  0  0  0  0  0  0  0  0
  -12.1922   -3.7416   -6.0284 O   0  0  0  0  0  0  0  0  0  0  0  0
  -14.8322   -4.5096   -6.4373 O   0  0  0  0  0  0  0  0  0  0  0  0
  -11.0445   -1.8180   -7.8996 O   0  0  0  0  0  0  0  0  0  0  0  0
  -14.8699   -5.4110   -7.5091 C   0  0  2  0  0  0  0  0  0  0  0  0
  -15.5644   -6.7067   -7.0769 C   0  0  1  0  0  0  0  0  0  0  0  0
  -14.6550   -7.5426   -6.1760 C   0  0  0  0  0  0  0  0  0  0  0  0
  -13.3211   -7.7486   -6.8754 C   0  0  1  0  0  0  0  0  0  0  0  0
  -12.7025   -6.3953   -7.1796 C   0  0  1  0  0  0  0  0  0  0  0  0
  -11.3609   -6.5351   -7.8757 C   0  0  0  0  0  0  0  0  0  0  0  0
  -16.8236   -6.3747   -6.3368 N   0  3  0  0  0  0  0  0  0  0  0  0
  -11.6042   -7.1118   -9.2436 N   0  3  0  0  0  0  0  0  0  0  0  0
  -12.4455   -8.5092   -6.0552 O   0  0  0  0  0  0  0  0  0  0  0  0
  -13.5769   -5.6583   -8.0509 O   0  0  0  0  0  0  0  0  0  0  0  0
  1  2  1  0  0  0  0
  1 22  1  6  0  0  0
  1 10  1  0  0  0  0
  2  3  1  0  0  0  0
  2  7  1  6  0  0  0
  3  4  1  0  0  0  0
  3  8  1  1  0  0  0
  4  5  1  0  0  0  0
  4  9  1  6  0  0  0
  5  6  1  1  0  0  0
  5 10  1  0  0  0  0
  6 11  1  0  0  0  0
 12 13  1  0  0  0  0
 12 17  1  0  0  0  0
 12 18  1  1  0  0  0
 13 14  1  0  0  0  0
 14 15  1  0  0  0  0
 14 19  1  1  0  0  0
 15 16  1  0  0  0  0
 15 21  1  6  0  0  0
 16 17  1  0  0  0  0
 16 20  1  1  0  0  0
 17 22  1  6  0  0  0
 23 21  1  1  0  0  0
 23 24  1  0  0  0  0
 23 32  1  0  0  0  0
 24 25  1  0  0  0  0
 24 29  1  1  0  0  0
 25 26  1  0  0  0  0
 26 27  1  0  0  0  0
 26 31  1  1  0  0  0
 27 28  1  6  0  0  0
 27 32  1  0  0  0  0
 28 30  1  0  0  0  0
M  CHG  5   8   1  18   1  19   1  29   1  30   1
M  END
>  <CHROM.1>
175.06550302,175.27947840,-15.61548124,-177.96905100,-66.88145364,-64.73522235
-1.77556279,-154.25842364,49.31846283,46.74900123,105.38453506,-170.11165865
56.67048594,174.05771665,67.38789400,43.82443771,-12.06960529,-3.74747653
-7.04844095,0.59067219,-0.17578469,-0.22411638

>  <Name>
2tob cryst

>  <RI>
0

>  <Rbt.Current_Directory>
/home/itssahil/PROJECTS/Mol_Feturizer/New_Systems/rnas/2tob

>  <Rbt.Executable>
rbdock ($Id: //depot/dev/client3/rdock/2013.1/src/exe/rbdock.cxx#4 $)

>  <Rbt.Library>
libRbt.so (2013.1, Build901 2013/11/27)

>  <Rbt.Parameter_File>
/export/apps/rDock/src/rDock_2013.1_src/data/scripts/dock_solv.prm

>  <Rbt.Receptor>
prm/pocket_docking_6.prm

>  <SCORE>
-45.5688

>  <SCORE.INTER>
-31.5397

>  <SCORE.INTER.CONST>
1

>  <SCORE.INTER.POLAR>
-5.58247

>  <SCORE.INTER.ROT>
6

>  <SCORE.INTER.SOLV>
28.4141

>  <SCORE.INTER.VDW>
-19.4896

>  <SCORE.INTER.norm>
-0.985615

>  <SCORE.INTRA>
-14.2682

>  <SCORE.INTRA.DIHEDRAL>
-0.811775

>  <SCORE.INTRA.DIHEDRAL.0>
18.4221

>  <SCORE.INTRA.POLAR>
1.05399

>  <SCORE.INTRA.POLAR.0>
-1.57101

>  <SCORE.INTRA.REPUL>
-0.730195

>  <SCORE.INTRA.REPUL.0>
0.730195

>  <SCORE.INTRA.SOLV>
-4.05542

>  <SCORE.INTRA.SOLV.lig_0>
-127.221

>  <SCORE.INTRA.VDW>
-11.7672

>  <SCORE.INTRA.VDW.0>
10.8385

>  <SCORE.INTRA.norm>
-0.445883

>  <SCORE.RESTR>
0.23915

>  <SCORE.RESTR.CAVITY>
0.23915

>  <SCORE.RESTR.norm>
0.00747342

>  <SCORE.SYSTEM>
0

>  <SCORE.SYSTEM.CONST>
0

>  <SCORE.SYSTEM.DIHEDRAL>
0

>  <SCORE.SYSTEM.SOLV>
0

>  <SCORE.SYSTEM.norm>
0

>  <SCORE.heavy>
32

>  <SCORE.norm>
-1.42402

>  <RMSD>
4.288

$$$$
2tob cryst
 OpenBabel11021811463D
libRbt.so/2013.1/901 2013/11/27
 32 34  0  0  0  0  0  0  0  0999 V2000
   -6.1116   -0.4241   -8.7538 C   0  0  2  0  0  0  0  0  0  0  0  0
   -6.7296    0.9435   -8.4804 C   0  0  1  0  0  0  0  0  0  0  0  0
   -6.7678    1.7401   -9.7849 C   0  0  2  0  0  0  0  0  0  0  0  0
   -5.3706    1.8266  -10.4134 C   0  0  1  0  0  0  0  0  0  0  0  0
   -4.7644    0.4244  -10.5377 C   0  0  1  0  0  0  0  0  0  0  0  0
   -3.3215    0.4057  -11.0150 C   0  0  0  0  0  0  0  0  0  0  0  0
   -8.0511    0.7880   -7.9701 O   0  0  0  0  0  0  0  0  0  0  0  0
   -7.3263    3.1283   -9.7318 N   0  3  0  0  0  0  0  0  0  0  0  0
   -5.4785    2.4231  -11.6998 O   0  0  0  0  0  0  0  0  0  0  0  0
   -4.8028   -0.2421   -9.2600 O   0  0  0  0  0  0  0  0  0  0  0  0
   -2.7484   -0.8868  -10.8457 O   0  0  0  0  0  0  0  0  0  0  0  0
   -7.2170   -2.7292   -7.9187 C   0  0  2  0  0  0  0  0  0  0  0  0
   -8.1985   -3.5714   -7.0926 C   0  0  0  0  0  0  0  0  0  0  0  0
   -9.4930   -2.8206   -6.7933 C   0  0  1  0  0  0  0  0  0  0  0  0
  -10.1183   -2.3938   -8.1143 C   0  0  2  0  0  0  0  0  0  0  0  0
   -9.1856   -1.4104   -8.8256 C   0  0  1  0  0  0  0  0  0  0  0  0
   -7.8458   -2.0869   -9.1653 C   0  0  1  0  0  0  0  0  0  0  0  0
   -6.0357   -3.5555   -8.3395 N   0  3  0  0  0  0  0  0  0  0  0  0
  -10.4340   -3.6686   -5.9910 N   0  3  0  0  0  0  0  0  0  0  0  0
   -9.8137   -0.9387  -10.0109 O   0  0  0  0  0  0  0  0  0  0  0  0
  -11.4011   -1.7809   -7.8902 O   0  0  0  0  0  0  0  0  0  0  0  0
   -6.9193   -1.1054   -9.6753 O   0  0  0  0  0  0  0  0  0  0  0  0
  -12.2568   -1.8586   -8.9967 C   0  0  2  0  0  0  0  0  0  0  0  0
  -13.2735   -0.7131   -8.9515 C   0  0  1  0  0  0  0  0  0  0  0  0
  -14.3401   -0.9677   -7.8860 C   0  0  0  0  0  0  0  0  0  0  0  0
  -14.9510   -2.3404   -8.1169 C   0  0  1  0  0  0  0  0  0  0  0  0
  -13.8551   -3.3904   -8.0618 C   0  0  1  0  0  0  0  0  0  0  0  0
  -14.4054   -4.7881   -8.2804 C   0  0  0  0  0  0  0  0  0  0  0  0
  -12.5652    0.5706   -8.6450 N   0  3  0  0  0  0  0  0  0  0  0  0
  -15.8575   -4.6634   -8.6531 N   0  3  0  0  0  0  0  0  0  0  0  0
  -15.9362   -2.6148   -7.1309 O   0  0  0  0  0  0  0  0  0  0  0  0
  -12.8932   -3.1281   -9.0975 O   0  0  0  0  0  0  0  0  0  0  0  0
  1  2  1  0  0  0  0
  1 22  1  6  0  0  0
  1 10  1  0  0  0  0
  2  3  1  0  0  0  0
  2  7  1  6  0  0  0
  3  4  1  0  0  0  0
  3  8  1  1  0  0  0
  4  5  1  0  0  0  0
  4  9  1  6  0  0  0
  5  6  1  1  0  0  0
  5 10  1  0  0  0  0
  6 11  1  0  0  0  0
 12 13  1  0  0  0  0
 12 17  1  0  0  0  0
 12 18  1  6  0  0  0
 13 14  1  0  0  0  0
 14 15  1  0  0  0  0
 14 19  1  6  0  0  0
 15 16  1  0  0  0  0
 15 21  1  1  0  0  0
 16 17  1  0  0  0  0
 16 20  1  6  0  0  0
 17 22  1  1  0  0  0
 23 21  1  1  0  0  0
 23 24  1  0  0  0  0
 23 32  1  0  0  0  0
 24 25  1  0  0  0  0
 24 29  1  1  0  0  0
 25 26  1  0  0  0  0
 26 27  1  0  0  0  0
 26 31  1  1  0  0  0
 27 28  1  6  0  0  0
 27 32  1  0  0  0  0
 28 30  1  0  0  0  0
M  CHG  5   8   1  18   1  19   1  29   1  30   1
M  END
>  <CHROM.1>
-99.38019325,-92.17742854,107.58053452,-173.08584183,168.13242019,56.05090983
-93.54229454,63.56754491,-155.38046118,-173.28370804,-32.36993631,-154.54548566
-40.14044137,-46.29755916,6.88576990,-55.16457832,-9.33391407,-1.23383238
-8.82779560,-0.40488406,-0.08035999,2.78032190

>  <Name>
2tob cryst

>  <RI>
0

>  <Rbt.Current_Directory>
/home/itssahil/PROJECTS/Mol_Feturizer/New_Systems/rnas/2tob

>  <Rbt.Executable>
rbdock ($Id: //depot/dev/client3/rdock/2013.1/src/exe/rbdock.cxx#4 $)

>  <Rbt.Library>
libRbt.so (2013.1, Build901 2013/11/27)

>  <Rbt.Parameter_File>
/export/apps/rDock/src/rDock_2013.1_src/data/scripts/dock_solv.prm

>  <Rbt.Receptor>
prm/blind_docking_80.prm

>  <SCORE>
-15.7119

>  <SCORE.INTER>
-16.6077

>  <SCORE.INTER.CONST>
1

>  <SCORE.INTER.POLAR>
-6.36968

>  <SCORE.INTER.ROT>
6

>  <SCORE.INTER.SOLV>
47.8482

>  <SCORE.INTER.VDW>
-13.389

>  <SCORE.INTER.norm>
-0.518992

>  <SCORE.INTRA>
-3.22869

>  <SCORE.INTRA.DIHEDRAL>
12.7379

>  <SCORE.INTRA.DIHEDRAL.0>
18.4221

>  <SCORE.INTRA.POLAR>
0.710328

>  <SCORE.INTRA.POLAR.0>
-1.57101

>  <SCORE.INTRA.REPUL>
-0.730195

>  <SCORE.INTRA.REPUL.0>
0.730195

>  <SCORE.INTRA.SOLV>
-4.05474

>  <SCORE.INTRA.SOLV.lig_0>
-127.221

>  <SCORE.INTRA.VDW>
-6.33441

>  <SCORE.INTRA.VDW.0>
10.8385

>  <SCORE.INTRA.norm>
-0.100897

>  <SCORE.RESTR>
4.1245

>  <SCORE.RESTR.CAVITY>
4.1245

>  <SCORE.RESTR.norm>
0.12889

>  <SCORE.SYSTEM>
0

>  <SCORE.SYSTEM.CONST>
0

>  <SCORE.SYSTEM.DIHEDRAL>
0

>  <SCORE.SYSTEM.SOLV>
0

>  <SCORE.SYSTEM.norm>
0

>  <SCORE.heavy>
32

>  <SCORE.norm>
-0.490998

>  <RMSD>
4.331

$$$$
2tob cryst
 OpenBabel11021811463D
libRbt.so/2013.1/901 2013/11/27
 32 34  0  0  0  0  0  0  0  0999 V2000
   -8.3036   -1.6260   -6.6376 C   0  0  2  0  0  0  0  0  0  0  0  0
   -8.4435   -0.2302   -6.0384 C   0  0  1  0  0  0  0  0  0  0  0  0
   -8.2172    0.8067   -7.1390 C   0  0  2  0  0  0  0  0  0  0  0  0
   -6.8665    0.5824   -7.8317 C   0  0  1  0  0  0  0  0  0  0  0  0
   -6.7494   -0.8747   -8.2920 C   0  0  1  0  0  0  0  0  0  0  0  0
   -5.3901   -1.2441   -8.8628 C   0  0  0  0  0  0  0  0  0  0  0  0
   -9.7447   -0.0672   -5.4808 O   0  0  0  0  0  0  0  0  0  0  0  0
   -8.2936    2.2517   -6.7543 N   0  3  0  0  0  0  0  0  0  0  0  0
   -6.7713    1.4531   -8.9520 O   0  0  0  0  0  0  0  0  0  0  0  0
   -7.0056   -1.7615   -7.1846 O   0  0  0  0  0  0  0  0  0  0  0  0
   -4.9617   -0.2783   -9.8175 O   0  0  0  0  0  0  0  0  0  0  0  0
   -9.2264   -4.1606   -7.1792 C   0  0  2  0  0  0  0  0  0  0  0  0
  -10.0075   -5.4182   -6.7748 C   0  0  0  0  0  0  0  0  0  0  0  0
  -11.0810   -5.1200   -5.7317 C   0  0  1  0  0  0  0  0  0  0  0  0
  -12.0139   -4.0553   -6.2921 C   0  0  2  0  0  0  0  0  0  0  0  0
  -11.2324   -2.7576   -6.5124 C   0  0  1  0  0  0  0  0  0  0  0  0
  -10.1201   -2.9680   -7.5547 C   0  0  1  0  0  0  0  0  0  0  0  0
   -8.3031   -4.4578   -8.3258 N   0  3  0  0  0  0  0  0  0  0  0  0
  -11.8308   -6.3642   -5.3603 N   0  3  0  0  0  0  0  0  0  0  0  0
  -12.1247   -1.7376   -6.9432 O   0  0  0  0  0  0  0  0  0  0  0  0
  -13.1114   -3.8216   -5.3907 O   0  0  0  0  0  0  0  0  0  0  0  0
   -9.2869   -1.7920   -7.6231 O   0  0  0  0  0  0  0  0  0  0  0  0
  -14.2429   -3.2838   -6.0179 C   0  0  2  0  0  0  0  0  0  0  0  0
  -14.9137   -2.2604   -5.0956 C   0  0  1  0  0  0  0  0  0  0  0  0
  -15.6581   -2.9546   -3.9549 C   0  0  0  0  0  0  0  0  0  0  0  0
  -16.6066   -3.9879   -4.5409 C   0  0  1  0  0  0  0  0  0  0  0  0
  -15.8116   -4.9840   -5.3670 C   0  0  1  0  0  0  0  0  0  0  0  0
  -16.7059   -6.0485   -5.9762 C   0  0  0  0  0  0  0  0  0  0  0  0
  -13.8732   -1.3473   -4.5235 N   0  3  0  0  0  0  0  0  0  0  0  0
  -15.8466   -6.9525   -6.8173 N   0  3  0  0  0  0  0  0  0  0  0  0
  -17.3028   -4.6640   -3.5034 O   0  0  0  0  0  0  0  0  0  0  0  0
  -15.1541   -4.2920   -6.4421 O   0  0  0  0  0  0  0  0  0  0  0  0
  1  2  1  0  0  0  0
  1 22  1  6  0  0  0
  1 10  1  0  0  0  0
  2  3  1  0  0  0  0
  2  7  1  6  0  0  0
  3  4  1  0  0  0  0
  3  8  1  1  0  0  0
  4  5  1  0  0  0  0
  4  9  1  6  0  0  0
  5  6  1  1  0  0  0
  5 10  1  0  0  0  0
  6 11  1  0  0  0  0
 12 13  1  0  0  0  0
 12 17  1  0  0  0  0
 12 18  1  6  0  0  0
 13 14  1  0  0  0  0
 14 15  1  0  0  0  0
 14 19  1  6  0  0  0
 15 16  1  0  0  0  0
 15 21  1  1  0  0  0
 16 17  1  0  0  0  0
 16 20  1  6  0  0  0
 17 22  1  1  0  0  0
 23 21  1  1  0  0  0
 23 24  1  0  0  0  0
 23 32  1  0  0  0  0
 24 25  1  0  0  0  0
 24 29  1  1  0  0  0
 25 26  1  0  0  0  0
 26 27  1  0  0  0  0
 26 31  1  1  0  0  0
 27 28  1  6  0  0  0
 27 32  1  0  0  0  0
 28 30  1  0  0  0  0
M  CHG  5   8   1  18   1  19   1  29   1  30   1
M  END
>  <CHROM.1>
-128.78531265,-66.52548294,179.17230756,73.84793447,-48.22182547,-55.09571851
-51.03992890,58.12449748,-156.60927870,-166.35123085,-41.24984957,-142.42717538
-82.39205069,176.35644223,177.73577387,-51.08390438,-11.09183156,-2.61824971
-6.54564893,-0.38500427,-0.40522197,-2.93701918

>  <Name>
2tob cryst

>  <RI>
2.10184e+07

>  <Rbt.Current_Directory>
/home/itssahil/PROJECTS/Mol_Feturizer/New_Systems/rnas/2tob

>  <Rbt.Executable>
rbdock ($Id: //depot/dev/client3/rdock/2013.1/src/exe/rbdock.cxx#4 $)

>  <Rbt.Library>
libRbt.so (2013.1, Build901 2013/11/27)

>  <Rbt.Parameter_File>
/export/apps/rDock/src/rDock_2013.1_src/data/scripts/dock_solv.prm

>  <Rbt.Receptor>
prm/pocket_docking_7.prm

>  <SCORE>
-42.1981

>  <SCORE.INTER>
-25.0785

>  <SCORE.INTER.CONST>
1

>  <SCORE.INTER.POLAR>
-3.27341

>  <SCORE.INTER.ROT>
6

>  <SCORE.INTER.SOLV>
32.8247

>  <SCORE.INTER.VDW>
-24.3492

>  <SCORE.INTER.norm>
-0.783704

>  <SCORE.INTRA>
-17.1235

>  <SCORE.INTRA.DIHEDRAL>
1.65975

>  <SCORE.INTRA.DIHEDRAL.0>
18.4221

>  <SCORE.INTRA.POLAR>
0.270476

>  <SCORE.INTRA.POLAR.0>
-1.57101

>  <SCORE.INTRA.REPUL>
-0.713908

>  <SCORE.INTRA.REPUL.0>
0.730195

>  <SCORE.INTRA.SOLV>
-4.69552

>  <SCORE.INTRA.SOLV.lig_0>
-127.221

>  <SCORE.INTRA.VDW>
-12.9557

>  <SCORE.INTRA.VDW.0>
10.8385

>  <SCORE.INTRA.norm>
-0.535109

>  <SCORE.RESTR>
0.00389561

>  <SCORE.RESTR.CAVITY>
0.00389561

>  <SCORE.RESTR.norm>
0.000121738

>  <SCORE.SYSTEM>
0

>  <SCORE.SYSTEM.CONST>
0

>  <SCORE.SYSTEM.DIHEDRAL>
0

>  <SCORE.SYSTEM.SOLV>
0

>  <SCORE.SYSTEM.norm>
0

>  <SCORE.heavy>
32

>  <SCORE.norm>
-1.31869

>  <RMSD>
4.357

$$$$
2tob cryst
 OpenBabel11021811463D
libRbt.so/2013.1/901 2013/11/27
 32 34  0  0  0  0  0  0  0  0999 V2000
   -8.1607   -0.4872  -10.0134 C   0  0  2  0  0  0  0  0  0  0  0  0
   -7.0417    0.5425  -10.1348 C   0  0  1  0  0  0  0  0  0  0  0  0
   -7.0929    1.4753   -8.9245 C   0  0  2  0  0  0  0  0  0  0  0  0
   -8.4822    2.1112   -8.7830 C   0  0  1  0  0  0  0  0  0  0  0  0
   -9.5606    1.0223   -8.7973 C   0  0  1  0  0  0  0  0  0  0  0  0
  -10.9853    1.5517   -8.8089 C   0  0  0  0  0  0  0  0  0  0  0  0
   -5.7782   -0.1146  -10.1857 O   0  0  0  0  0  0  0  0  0  0  0  0
   -6.0820    2.5778   -8.8575 N   0  3  0  0  0  0  0  0  0  0  0  0
   -8.5382    2.8319   -7.5584 O   0  0  0  0  0  0  0  0  0  0  0  0
   -9.4024    0.1899   -9.9636 O   0  0  0  0  0  0  0  0  0  0  0  0
  -11.9214    0.4913   -8.6444 O   0  0  0  0  0  0  0  0  0  0  0  0
   -7.8623   -3.3714   -7.7226 C   0  0  2  0  0  0  0  0  0  0  0  0
   -8.6233   -4.6250   -7.2705 C   0  0  0  0  0  0  0  0  0  0  0  0
  -10.0503   -4.3072   -6.8324 C   0  0  1  0  0  0  0  0  0  0  0  0
  -10.7668   -3.6212   -7.9874 C   0  0  2  0  0  0  0  0  0  0  0  0
  -10.0839   -2.2849   -8.2893 C   0  0  1  0  0  0  0  0  0  0  0  0
   -8.6299   -2.5114   -8.7391 C   0  0  1  0  0  0  0  0  0  0  0  0
   -6.5299   -3.7438   -8.3069 N   0  3  0  0  0  0  0  0  0  0  0  0
  -10.7706   -5.5498   -6.4020 N   0  3  0  0  0  0  0  0  0  0  0  0
  -10.8122   -1.6018   -9.3018 O   0  0  0  0  0  0  0  0  0  0  0  0
  -12.1521   -3.4036   -7.6634 O   0  0  0  0  0  0  0  0  0  0  0  0
   -7.9508   -1.2433   -8.8516 O   0  0  0  0  0  0  0  0  0  0  0  0
  -12.9459   -3.1091   -8.7795 C   0  0  2  0  0  0  0  0  0  0  0  0
  -14.2982   -2.5497   -8.3251 C   0  0  1  0  0  0  0  0  0  0  0  0
  -15.1893   -3.6575   -7.7628 C   0  0  0  0  0  0  0  0  0  0  0  0
  -15.2854   -4.7799   -8.7836 C   0  0  1  0  0  0  0  0  0  0  0  0
  -13.8906   -5.2968   -9.0903 C   0  0  1  0  0  0  0  0  0  0  0  0
  -13.9210   -6.4271  -10.1030 C   0  0  0  0  0  0  0  0  0  0  0  0
  -14.0784   -1.5090   -7.2704 N   0  3  0  0  0  0  0  0  0  0  0  0
  -12.5562   -7.0589  -10.1362 N   0  3  0  0  0  0  0  0  0  0  0  0
  -16.0948   -5.8347   -8.2833 O   0  0  0  0  0  0  0  0  0  0  0  0
  -13.0997   -4.2308   -9.6425 O   0  0  0  0  0  0  0  0  0  0  0  0
  1  2  1  0  0  0  0
  1 22  1  1  0  0  0
  1 10  1  0  0  0  0
  2  3  1  0  0  0  0
  2  7  1  1  0  0  0
  3  4  1  0  0  0  0
  3  8  1  6  0  0  0
  4  5  1  0  0  0  0
  4  9  1  1  0  0  0
  5  6  1  6  0  0  0
  5 10  1  0  0  0  0
  6 11  1  0  0  0  0
 12 13  1  0  0  0  0
 12 17  1  0  0  0  0
 12 18  1  6  0  0  0
 13 14  1  0  0  0  0
 14 15  1  0  0  0  0
 14 19  1  6  0  0  0
 15 16  1  0  0  0  0
 15 21  1  1  0  0  0
 16 17  1  0  0  0  0
 16 20  1  6  0  0  0
 17 22  1  1  0  0  0
 23 21  1  1  0  0  0
 23 24  1  0  0  0  0
 23 32  1  0  0  0  0
 24 25  1  0  0  0  0
 24 29  1  1  0  0  0
 25 26  1  0  0  0  0
 26 27  1  0  0  0  0
 26 31  1  1  0  0  0
 27 28  1  6  0  0  0
 27 32  1  0  0  0  0
 28 30  1  0  0  0  0
M  CHG  5   8   1  18   1  19   1  29   1  30   1
M  END
>  <CHROM.1>
-161.69107955,99.11315359,-159.81680947,-54.60957126,-172.34285029,83.07492283
27.65945739,-164.73097200,-164.09526129,85.73964966,158.16893669,-165.69978047
67.03990272,69.95675219,-168.62620545,-48.74255369,-10.57313710,-2.13638313
-8.62497284,-0.74589377,-0.03273528,3.10332481

>  <Name>
2tob cryst

>  <RI>
0

>  <Rbt.Current_Directory>
/home/itssahil/PROJECTS/Mol_Feturizer/New_Systems/rnas/2tob

>  <Rbt.Executable>
rbdock ($Id: //depot/dev/client3/rdock/2013.1/src/exe/rbdock.cxx#4 $)

>  <Rbt.Library>
libRbt.so (2013.1, Build901 2013/11/27)

>  <Rbt.Parameter_File>
/export/apps/rDock/src/rDock_2013.1_src/data/scripts/dock_solv.prm

>  <Rbt.Receptor>
prm/blind_docking_80.prm

>  <SCORE>
1.37754

>  <SCORE.INTER>
11.6395

>  <SCORE.INTER.CONST>
1

>  <SCORE.INTER.POLAR>
-2.07181

>  <SCORE.INTER.ROT>
6

>  <SCORE.INTER.SOLV>
40.608

>  <SCORE.INTER.VDW>
-6.4703

>  <SCORE.INTER.norm>
0.363735

>  <SCORE.INTRA>
-17.3453

>  <SCORE.INTRA.DIHEDRAL>
3.04315

>  <SCORE.INTRA.DIHEDRAL.0>
18.4221

>  <SCORE.INTRA.POLAR>
0.0291925

>  <SCORE.INTRA.POLAR.0>
-1.57101

>  <SCORE.INTRA.REPUL>
-0.730195

>  <SCORE.INTRA.REPUL.0>
0.730195

>  <SCORE.INTRA.SOLV>
-5.87054

>  <SCORE.INTRA.SOLV.lig_0>
-127.221

>  <SCORE.INTRA.VDW>
-12.3799

>  <SCORE.INTRA.VDW.0>
10.8385

>  <SCORE.INTRA.norm>
-0.54204

>  <SCORE.RESTR>
7.0833

>  <SCORE.RESTR.CAVITY>
7.0833

>  <SCORE.RESTR.norm>
0.221353

>  <SCORE.SYSTEM>
0

>  <SCORE.SYSTEM.CONST>
0

>  <SCORE.SYSTEM.DIHEDRAL>
0

>  <SCORE.SYSTEM.SOLV>
0

>  <SCORE.SYSTEM.norm>
0

>  <SCORE.heavy>
32

>  <SCORE.norm>
0.043048

>  <RMSD>
4.366

$$$$
2tob cryst
 OpenBabel11021811463D
libRbt.so/2013.1/901 2013/11/27
 32 34  0  0  0  0  0  0  0  0999 V2000
   -5.8058    0.2803   -8.9977 C   0  0  2  0  0  0  0  0  0  0  0  0
   -5.8561    1.8030   -9.0753 C   0  0  1  0  0  0  0  0  0  0  0  0
   -5.5758    2.2356  -10.5147 C   0  0  2  0  0  0  0  0  0  0  0  0
   -4.2467    1.6519  -11.0118 C   0  0  1  0  0  0  0  0  0  0  0  0
   -4.2218    0.1367  -10.7830 C   0  0  1  0  0  0  0  0  0  0  0  0
   -2.8918   -0.5241  -11.1067 C   0  0  0  0  0  0  0  0  0  0  0  0
   -7.1407    2.2694   -8.6716 O   0  0  0  0  0  0  0  0  0  0  0  0
   -5.5615    3.7043  -10.8053 N   0  3  0  0  0  0  0  0  0  0  0  0
   -4.1075    1.9345  -12.3985 O   0  0  0  0  0  0  0  0  0  0  0  0
   -4.5227   -0.1567   -9.4040 O   0  0  0  0  0  0  0  0  0  0  0  0
   -2.7430   -1.7433  -10.3863 O   0  0  0  0  0  0  0  0  0  0  0  0
   -6.9614   -1.8429   -8.0317 C   0  0  2  0  0  0  0  0  0  0  0  0
   -7.8632   -2.7622   -7.1970 C   0  0  0  0  0  0  0  0  0  0  0  0
   -9.2354   -2.1456   -6.9395 C   0  0  1  0  0  0  0  0  0  0  0  0
   -9.8778   -1.8237   -8.2818 C   0  0  2  0  0  0  0  0  0  0  0  0
   -9.0415   -0.7661   -9.0066 C   0  0  1  0  0  0  0  0  0  0  0  0
   -7.6316   -1.3050   -9.3058 C   0  0  1  0  0  0  0  0  0  0  0  0
   -5.6916   -2.5498   -8.4101 N   0  3  0  0  0  0  0  0  0  0  0  0
  -10.0958   -3.0670   -6.1278 N   0  3  0  0  0  0  0  0  0  0  0  0
   -9.6941   -0.3961  -10.2146 O   0  0  0  0  0  0  0  0  0  0  0  0
  -11.2222   -1.3449   -8.0954 O   0  0  0  0  0  0  0  0  0  0  0  0
   -6.8050   -0.2447   -9.8295 O   0  0  0  0  0  0  0  0  0  0  0  0
  -12.0150   -1.4478   -9.2458 C   0  0  2  0  0  0  0  0  0  0  0  0
  -13.2119   -0.4967   -9.1415 C   0  0  1  0  0  0  0  0  0  0  0  0
  -14.2549   -1.0327   -8.1605 C   0  0  0  0  0  0  0  0  0  0  0  0
  -14.6167   -2.4560   -8.5532 C   0  0  1  0  0  0  0  0  0  0  0  0
  -13.3613   -3.3108   -8.5446 C   0  0  1  0  0  0  0  0  0  0  0  0
  -13.6596   -4.7499   -8.9243 C   0  0  0  0  0  0  0  0  0  0  0  0
  -12.7416    0.8476   -8.6775 N   0  3  0  0  0  0  0  0  0  0  0  0
  -12.3492   -5.4755   -9.0635 N   0  3  0  0  0  0  0  0  0  0  0  0
  -15.5736   -2.9898   -7.6490 O   0  0  0  0  0  0  0  0  0  0  0  0
  -12.4237   -2.7876   -9.5005 O   0  0  0  0  0  0  0  0  0  0  0  0
  1  2  1  0  0  0  0
  1 22  1  6  0  0  0
  1 10  1  0  0  0  0
  2  3  1  0  0  0  0
  2  7  1  6  0  0  0
  3  4  1  0  0  0  0
  3  8  1  1  0  0  0
  4  5  1  0  0  0  0
  4  9  1  6  0  0  0
  5  6  1  1  0  0  0
  5 10  1  0  0  0  0
  6 11  1  0  0  0  0
 12 13  1  0  0  0  0
 12 17  1  0  0  0  0
 12 18  1  6  0  0  0
 13 14  1  0  0  0  0
 14 15  1  0  0  0  0
 14 19  1  6  0  0  0
 15 16  1  0  0  0  0
 15 21  1  1  0  0  0
 16 17  1  0  0  0  0
 16 20  1  6  0  0  0
 17 22  1  1  0  0  0
 23 21  1  1  0  0  0
 23 24  1  0  0  0  0
 23 32  1  0  0  0  0
 24 25  1  0  0  0  0
 24 29  1  1  0  0  0
 25 26  1  0  0  0  0
 26 27  1  0  0  0  0
 26 31  1  1  0  0  0
 27 28  1  6  0  0  0
 27 32  1  0  0  0  0
 28 30  1  0  0  0  0
M  CHG  5   8   1  18   1  19   1  29   1  30   1
M  END
>  <CHROM.1>
-134.16475141,-64.28286218,-83.15708176,-175.87113528,155.86849260,-175.78187817
70.63350109,-177.53832335,-160.06885920,178.55922939,-13.94018415,-159.77490506
-49.52004357,-54.29716144,172.79096045,76.86477808,-8.76302599,-0.95313298
-9.13660411,-0.41528711,-0.10559769,2.84180509

>  <Name>
2tob cryst

>  <RI>
0

>  <Rbt.Current_Directory>
/home/itssahil/PROJECTS/Mol_Feturizer/New_Systems/rnas/2tob

>  <Rbt.Executable>
rbdock ($Id: //depot/dev/client3/rdock/2013.1/src/exe/rbdock.cxx#4 $)

>  <Rbt.Library>
libRbt.so (2013.1, Build901 2013/11/27)

>  <Rbt.Parameter_File>
/export/apps/rDock/src/rDock_2013.1_src/data/scripts/dock_solv.prm

>  <Rbt.Receptor>
prm/blind_docking_100.prm

>  <SCORE>
-30.7759

>  <SCORE.INTER>
-20.354

>  <SCORE.INTER.CONST>
1

>  <SCORE.INTER.POLAR>
-5.90095

>  <SCORE.INTER.ROT>
6

>  <SCORE.INTER.SOLV>
46.0547

>  <SCORE.INTER.VDW>
-16.8511

>  <SCORE.INTER.norm>
-0.636062

>  <SCORE.INTRA>
-14.7334

>  <SCORE.INTRA.DIHEDRAL>
2.69065

>  <SCORE.INTRA.DIHEDRAL.0>
18.4221

>  <SCORE.INTRA.POLAR>
0.159523

>  <SCORE.INTRA.POLAR.0>
-1.57101

>  <SCORE.INTRA.REPUL>
-0.730195

>  <SCORE.INTRA.REPUL.0>
0.730195

>  <SCORE.INTRA.SOLV>
-5.8593

>  <SCORE.INTRA.SOLV.lig_0>
-127.221

>  <SCORE.INTRA.VDW>
-10.0405

>  <SCORE.INTRA.VDW.0>
10.8385

>  <SCORE.INTRA.norm>
-0.460419

>  <SCORE.RESTR>
4.31147

>  <SCORE.RESTR.CAVITY>
4.31147

>  <SCORE.RESTR.norm>
0.134733

>  <SCORE.SYSTEM>
0

>  <SCORE.SYSTEM.CONST>
0

>  <SCORE.SYSTEM.DIHEDRAL>
0

>  <SCORE.SYSTEM.SOLV>
0

>  <SCORE.SYSTEM.norm>
0

>  <SCORE.heavy>
32

>  <SCORE.norm>
-0.961748

>  <RMSD>
4.378

$$$$
2tob cryst
 OpenBabel11021811463D
libRbt.so/2013.1/901 2013/11/27
 32 34  0  0  0  0  0  0  0  0999 V2000
   -9.7442   -3.1174   -6.9514 C   0  0  2  0  0  0  0  0  0  0  0  0
  -10.2451   -1.6783   -7.0219 C   0  0  1  0  0  0  0  0  0  0  0  0
   -9.8422   -1.0786   -8.3694 C   0  0  2  0  0  0  0  0  0  0  0  0
   -8.3287   -1.1998   -8.5909 C   0  0  1  0  0  0  0  0  0  0  0  0
   -7.8826   -2.6504   -8.3775 C   0  0  1  0  0  0  0  0  0  0  0  0
   -6.3777   -2.8573   -8.4299 C   0  0  0  0  0  0  0  0  0  0  0  0
  -11.6631   -1.6485   -6.8840 O   0  0  0  0  0  0  0  0  0  0  0  0
  -10.2257    0.3441   -8.6358 N   0  3  0  0  0  0  0  0  0  0  0  0
   -8.0212   -0.7889   -9.9171 O   0  0  0  0  0  0  0  0  0  0  0  0
   -8.3361   -3.1195   -7.0920 O   0  0  0  0  0  0  0  0  0  0  0  0
   -5.7214   -2.0530   -7.4552 O   0  0  0  0  0  0  0  0  0  0  0  0
  -11.7053   -5.6341   -8.8834 C   0  0  2  0  0  0  0  0  0  0  0  0
  -12.2576   -7.0548   -8.7058 C   0  0  0  0  0  0  0  0  0  0  0  0
  -11.2485   -7.9874   -8.0415 C   0  0  1  0  0  0  0  0  0  0  0  0
  -10.8478   -7.3865   -6.7012 C   0  0  2  0  0  0  0  0  0  0  0  0
  -10.1367   -6.0510   -6.9333 C   0  0  1  0  0  0  0  0  0  0  0  0
  -11.0858   -5.0442   -7.6066 C   0  0  1  0  0  0  0  0  0  0  0  0
  -12.7790   -4.7074   -9.3772 N   0  3  0  0  0  0  0  0  0  0  0  0
  -11.8166   -9.3650   -7.8758 N   0  3  0  0  0  0  0  0  0  0  0  0
   -9.6777   -5.5390   -5.6887 O   0  0  0  0  0  0  0  0  0  0  0  0
   -9.9833   -8.2861   -5.9836 O   0  0  0  0  0  0  0  0  0  0  0  0
  -10.3549   -3.8559   -7.9749 O   0  0  0  0  0  0  0  0  0  0  0  0
  -10.0745   -8.1552   -4.5918 C   0  0  2  0  0  0  0  0  0  0  0  0
   -9.1042   -9.1268   -3.9117 C   0  0  1  0  0  0  0  0  0  0  0  0
   -9.6224  -10.5632   -3.9877 C   0  0  0  0  0  0  0  0  0  0  0  0
  -11.0401  -10.6063   -3.4407 C   0  0  1  0  0  0  0  0  0  0  0  0
  -11.9150   -9.6613   -4.2458 C   0  0  1  0  0  0  0  0  0  0  0  0
  -13.3494   -9.6642   -3.7494 C   0  0  0  0  0  0  0  0  0  0  0  0
   -7.7672   -9.0474   -4.5823 N   0  3  0  0  0  0  0  0  0  0  0  0
  -13.3710   -9.0302   -2.3854 N   0  3  0  0  0  0  0  0  0  0  0  0
  -11.5576  -11.9272   -3.5133 O   0  0  0  0  0  0  0  0  0  0  0  0
  -11.4077   -8.3219   -4.1211 O   0  0  0  0  0  0  0  0  0  0  0  0
  1  2  1  0  0  0  0
  1 22  1  6  0  0  0
  1 10  1  0  0  0  0
  2  3  1  0  0  0  0
  2  7  1  6  0  0  0
  3  4  1  0  0  0  0
  3  8  1  1  0  0  0
  4  5  1  0  0  0  0
  4  9  1  6  0  0  0
  5  6  1  1  0  0  0
  5 10  1  0  0  0  0
  6 11  1  0  0  0  0
 12 13  1  0  0  0  0
 12 17  1  0  0  0  0
 12 18  1  1  0  0  0
 13 14  1  0  0  0  0
 14 15  1  0  0  0  0
 14 19  1  1  0  0  0
 15 16  1  0  0  0  0
 15 21  1  6  0  0  0
 16 17  1  0  0  0  0
 16 20  1  1  0  0  0
 17 22  1  6  0  0  0
 23 21  1  6  0  0  0
 23 24  1  0  0  0  0
 23 32  1  0  0  0  0
 24 25  1  0  0  0  0
 24 29  1  6  0  0  0
 25 26  1  0  0  0  0
 26 27  1  0  0  0  0
 26 31  1  6  0  0  0
 27 28  1  1  0  0  0
 27 32  1  0  0  0  0
 28 30  1  0  0  0  0
M  CHG  5   8   1  18   1  19   1  29   1  30   1
M  END
>  <CHROM.1>
-124.36581806,-52.96391712,92.55420177,78.26972829,57.94493706,-60.39809119
-168.34363969,-63.38361639,-151.46965803,77.32054672,177.57886381,-178.87661088
-66.09922616,-54.59037014,68.45271057,-61.20238669,-10.23295321,-5.81289560
-6.56238255,-1.30959058,0.27956742,2.60216310

>  <Name>
2tob cryst

>  <RI>
0

>  <Rbt.Current_Directory>
/home/itssahil/PROJECTS/Mol_Feturizer/New_Systems/rnas/2tob

>  <Rbt.Executable>
rbdock ($Id: //depot/dev/client3/rdock/2013.1/src/exe/rbdock.cxx#4 $)

>  <Rbt.Library>
libRbt.so (2013.1, Build901 2013/11/27)

>  <Rbt.Parameter_File>
/export/apps/rDock/src/rDock_2013.1_src/data/scripts/dock_solv.prm

>  <Rbt.Receptor>
prm/pocket_docking_6.prm

>  <SCORE>
-48.494

>  <SCORE.INTER>
-31.1841

>  <SCORE.INTER.CONST>
1

>  <SCORE.INTER.POLAR>
-4.63073

>  <SCORE.INTER.ROT>
6

>  <SCORE.INTER.SOLV>
24.5795

>  <SCORE.INTER.VDW>
-21.1468

>  <SCORE.INTER.norm>
-0.974504

>  <SCORE.INTRA>
-17.3099

>  <SCORE.INTRA.DIHEDRAL>
-1.75415

>  <SCORE.INTRA.DIHEDRAL.0>
18.4221

>  <SCORE.INTRA.POLAR>
1.54888

>  <SCORE.INTRA.POLAR.0>
-1.57101

>  <SCORE.INTRA.REPUL>
-0.716815

>  <SCORE.INTRA.REPUL.0>
0.730195

>  <SCORE.INTRA.SOLV>
-7.20396

>  <SCORE.INTRA.SOLV.lig_0>
-127.221

>  <SCORE.INTRA.VDW>
-14.5129

>  <SCORE.INTRA.VDW.0>
10.8385

>  <SCORE.INTRA.norm>
-0.540933

>  <SCORE.RESTR>
0

>  <SCORE.RESTR.CAVITY>
0

>  <SCORE.RESTR.norm>
0

>  <SCORE.SYSTEM>
0

>  <SCORE.SYSTEM.CONST>
0

>  <SCORE.SYSTEM.DIHEDRAL>
0

>  <SCORE.SYSTEM.SOLV>
0

>  <SCORE.SYSTEM.norm>
0

>  <SCORE.heavy>
32

>  <SCORE.norm>
-1.51544

>  <RMSD>
4.382

$$$$
2tob cryst
 OpenBabel11021811463D
libRbt.so/2013.1/901 2013/11/27
 32 34  0  0  0  0  0  0  0  0999 V2000
   -5.9022   -0.2857   -8.8834 C   0  0  2  0  0  0  0  0  0  0  0  0
   -6.0725    1.2302   -8.8779 C   0  0  1  0  0  0  0  0  0  0  0  0
   -5.8078    1.7639  -10.2860 C   0  0  2  0  0  0  0  0  0  0  0  0
   -4.4297    1.3156  -10.7902 C   0  0  1  0  0  0  0  0  0  0  0  0
   -4.2874   -0.2035  -10.6449 C   0  0  1  0  0  0  0  0  0  0  0  0
   -2.9047   -0.7381  -10.9802 C   0  0  0  0  0  0  0  0  0  0  0  0
   -7.3956    1.5706   -8.4726 O   0  0  0  0  0  0  0  0  0  0  0  0
   -5.9065    3.2432  -10.4950 N   0  3  0  0  0  0  0  0  0  0  0  0
   -4.2944    1.6859  -12.1566 O   0  0  0  0  0  0  0  0  0  0  0  0
   -4.5829   -0.5968   -9.2898 O   0  0  0  0  0  0  0  0  0  0  0  0
   -2.4822   -0.2827  -12.2615 O   0  0  0  0  0  0  0  0  0  0  0  0
   -7.1427   -2.4170   -7.9620 C   0  0  2  0  0  0  0  0  0  0  0  0
   -8.1231   -3.2480   -7.1234 C   0  0  0  0  0  0  0  0  0  0  0  0
   -9.4306   -2.5058   -6.8605 C   0  0  1  0  0  0  0  0  0  0  0  0
  -10.0455   -2.1250   -8.2002 C   0  0  2  0  0  0  0  0  0  0  0  0
   -9.1170   -1.1502   -8.9288 C   0  0  1  0  0  0  0  0  0  0  0  0
   -7.7648   -1.8186   -9.2335 C   0  0  1  0  0  0  0  0  0  0  0  0
   -5.9462   -3.2394   -8.3455 N   0  3  0  0  0  0  0  0  0  0  0  0
  -10.3701   -3.3428   -6.0451 N   0  3  0  0  0  0  0  0  0  0  0  0
   -9.7371   -0.7206  -10.1342 O   0  0  0  0  0  0  0  0  0  0  0  0
  -11.3386   -1.5227   -8.0085 O   0  0  0  0  0  0  0  0  0  0  0  0
   -6.8449   -0.8401   -9.7608 O   0  0  0  0  0  0  0  0  0  0  0  0
  -12.1607   -1.5956   -9.1405 C   0  0  2  0  0  0  0  0  0  0  0  0
  -13.2342   -0.5039   -9.0768 C   0  0  1  0  0  0  0  0  0  0  0  0
  -14.3136   -0.8548   -8.0524 C   0  0  0  0  0  0  0  0  0  0  0  0
  -14.8492   -2.2448   -8.3558 C   0  0  1  0  0  0  0  0  0  0  0  0
  -13.7040   -3.2415   -8.3132 C   0  0  1  0  0  0  0  0  0  0  0  0
  -14.1781   -4.6539   -8.6036 C   0  0  0  0  0  0  0  0  0  0  0  0
  -12.5989    0.7988   -8.6989 N   0  3  0  0  0  0  0  0  0  0  0  0
  -15.1312   -5.0585   -7.5124 N   0  3  0  0  0  0  0  0  0  0  0  0
  -15.8443   -2.6081   -7.4094 O   0  0  0  0  0  0  0  0  0  0  0  0
  -12.7302   -2.8892   -9.3104 O   0  0  0  0  0  0  0  0  0  0  0  0
  1  2  1  0  0  0  0
  1 22  1  6  0  0  0
  1 10  1  0  0  0  0
  2  3  1  0  0  0  0
  2  7  1  6  0  0  0
  3  4  1  0  0  0  0
  3  8  1  1  0  0  0
  4  5  1  0  0  0  0
  4  9  1  6  0  0  0
  5  6  1  1  0  0  0
  5 10  1  0  0  0  0
  6 11  1  0  0  0  0
 12 13  1  0  0  0  0
 12 17  1  0  0  0  0
 12 18  1  6  0  0  0
 13 14  1  0  0  0  0
 14 15  1  0  0  0  0
 14 19  1  6  0  0  0
 15 16  1  0  0  0  0
 15 21  1  1  0  0  0
 16 17  1  0  0  0  0
 16 20  1  6  0  0  0
 17 22  1  1  0  0  0
 23 21  1  1  0  0  0
 23 24  1  0  0  0  0
 23 32  1  0  0  0  0
 24 25  1  0  0  0  0
 24 29  1  1  0  0  0
 25 26  1  0  0  0  0
 26 27  1  0  0  0  0
 26 31  1  1  0  0  0
 27 28  1  6  0  0  0
 27 32  1  0  0  0  0
 28 30  1  0  0  0  0
M  CHG  5   8   1  18   1  19   1  29   1  30   1
M  END
>  <CHROM.1>
-122.64467613,61.65494600,-81.26519933,-73.04059191,-52.22910225,-43.43868776
41.82562135,67.12220842,-157.80819483,69.58653000,-21.83551068,-157.60601820
-161.01648427,-41.82509818,-63.42140296,176.99041906,-9.02487528,-1.14539772
-9.01414105,-0.40033602,-0.11278914,2.73821636

>  <Name>
2tob cryst

>  <RI>
0

>  <Rbt.Current_Directory>
/home/itssahil/PROJECTS/Mol_Feturizer/New_Systems/rnas/2tob

>  <Rbt.Executable>
rbdock ($Id: //depot/dev/client3/rdock/2013.1/src/exe/rbdock.cxx#4 $)

>  <Rbt.Library>
libRbt.so (2013.1, Build901 2013/11/27)

>  <Rbt.Parameter_File>
/export/apps/rDock/src/rDock_2013.1_src/data/scripts/dock_solv.prm

>  <Rbt.Receptor>
prm/blind_docking_40.prm

>  <SCORE>
-29.4508

>  <SCORE.INTER>
-24.9871

>  <SCORE.INTER.CONST>
1

>  <SCORE.INTER.POLAR>
-7.23137

>  <SCORE.INTER.ROT>
6

>  <SCORE.INTER.SOLV>
43.0193

>  <SCORE.INTER.VDW>
-14.4933

>  <SCORE.INTER.norm>
-0.780847

>  <SCORE.INTRA>
-11.1873

>  <SCORE.INTRA.DIHEDRAL>
5.36143

>  <SCORE.INTRA.DIHEDRAL.0>
18.4221

>  <SCORE.INTRA.POLAR>
0.570102

>  <SCORE.INTRA.POLAR.0>
-1.57101

>  <SCORE.INTRA.REPUL>
-0.730195

>  <SCORE.INTRA.REPUL.0>
0.730195

>  <SCORE.INTRA.SOLV>
-4.19096

>  <SCORE.INTRA.SOLV.lig_0>
-127.221

>  <SCORE.INTRA.VDW>
-10.0599

>  <SCORE.INTRA.VDW.0>
10.8385

>  <SCORE.INTRA.norm>
-0.349604

>  <SCORE.RESTR>
6.72365

>  <SCORE.RESTR.CAVITY>
6.72365

>  <SCORE.RESTR.norm>
0.210114

>  <SCORE.SYSTEM>
0

>  <SCORE.SYSTEM.CONST>
0

>  <SCORE.SYSTEM.DIHEDRAL>
0

>  <SCORE.SYSTEM.SOLV>
0

>  <SCORE.SYSTEM.norm>
0

>  <SCORE.heavy>
32

>  <SCORE.norm>
-0.920337

>  <RMSD>
4.409

$$$$
2tob cryst
 OpenBabel11021811463D
libRbt.so/2013.1/901 2013/11/27
 32 34  0  0  0  0  0  0  0  0999 V2000
   -9.5191   -0.9490   -7.6082 C   0  0  2  0  0  0  0  0  0  0  0  0
   -9.7318    0.4852   -8.0824 C   0  0  1  0  0  0  0  0  0  0  0  0
   -8.9052    0.7169   -9.3476 C   0  0  2  0  0  0  0  0  0  0  0  0
   -7.4287    0.3765   -9.1055 C   0  0  1  0  0  0  0  0  0  0  0  0
   -7.3062   -1.0304   -8.5102 C   0  0  1  0  0  0  0  0  0  0  0  0
   -5.8953   -1.4146   -8.0955 C   0  0  0  0  0  0  0  0  0  0  0  0
  -11.1120    0.7074   -8.3593 O   0  0  0  0  0  0  0  0  0  0  0  0
   -8.9594    2.0776   -9.9699 N   0  3  0  0  0  0  0  0  0  0  0  0
   -6.7305    0.4411  -10.3427 O   0  0  0  0  0  0  0  0  0  0  0  0
   -8.1430   -1.1437   -7.3418 O   0  0  0  0  0  0  0  0  0  0  0  0
   -5.2873   -2.2473   -9.0777 O   0  0  0  0  0  0  0  0  0  0  0  0
   -9.2898   -3.8474   -7.4879 C   0  0  2  0  0  0  0  0  0  0  0  0
   -9.7222   -5.1146   -6.7379 C   0  0  0  0  0  0  0  0  0  0  0  0
  -10.9285   -4.8680   -5.8361 C   0  0  1  0  0  0  0  0  0  0  0  0
  -12.0656   -4.3255   -6.6909 C   0  0  2  0  0  0  0  0  0  0  0  0
  -11.6612   -2.9703   -7.2767 C   0  0  1  0  0  0  0  0  0  0  0  0
  -10.4424   -3.1250   -8.2032 C   0  0  1  0  0  0  0  0  0  0  0  0
   -8.2177   -4.1662   -8.4900 N   0  3  0  0  0  0  0  0  0  0  0  0
  -11.3317   -6.1230   -5.1214 N   0  3  0  0  0  0  0  0  0  0  0  0
  -12.7589   -2.4207   -7.9942 O   0  0  0  0  0  0  0  0  0  0  0  0
  -13.2636   -4.1844   -5.9058 O   0  0  0  0  0  0  0  0  0  0  0  0
   -9.9687   -1.8235   -8.6076 O   0  0  0  0  0  0  0  0  0  0  0  0
  -13.9248   -2.9666   -6.1119 C   0  0  2  0  0  0  0  0  0  0  0  0
  -14.2799   -2.3310   -4.7636 C   0  0  1  0  0  0  0  0  0  0  0  0
  -15.4525   -3.0587   -4.1057 C   0  0  0  0  0  0  0  0  0  0  0  0
  -16.6077   -3.1260   -5.0915 C   0  0  1  0  0  0  0  0  0  0  0  0
  -16.1496   -3.8433   -6.3494 C   0  0  1  0  0  0  0  0  0  0  0  0
  -17.2649   -3.9476   -7.3738 C   0  0  0  0  0  0  0  0  0  0  0  0
  -13.0898   -2.3893   -3.8559 N   0  3  0  0  0  0  0  0  0  0  0  0
  -17.2683   -2.6831   -8.1886 N   0  3  0  0  0  0  0  0  0  0  0  0
  -17.7096   -3.8128   -4.5152 O   0  0  0  0  0  0  0  0  0  0  0  0
  -15.0682   -3.1090   -6.9480 O   0  0  0  0  0  0  0  0  0  0  0  0
  1  2  1  0  0  0  0
  1 22  1  6  0  0  0
  1 10  1  0  0  0  0
  2  3  1  0  0  0  0
  2  7  1  6  0  0  0
  3  4  1  0  0  0  0
  3  8  1  1  0  0  0
  4  5  1  0  0  0  0
  4  9  1  6  0  0  0
  5  6  1  1  0  0  0
  5 10  1  0  0  0  0
  6 11  1  0  0  0  0
 12 13  1  0  0  0  0
 12 17  1  0  0  0  0
 12 18  1  6  0  0  0
 13 14  1  0  0  0  0
 14 15  1  0  0  0  0
 14 19  1  6  0  0  0
 15 16  1  0  0  0  0
 15 21  1  1  0  0  0
 16 17  1  0  0  0  0
 16 20  1  6  0  0  0
 17 22  1  1  0  0  0
 23 21  1  1  0  0  0
 23 24  1  0  0  0  0
 23 32  1  0  0  0  0
 24 25  1  0  0  0  0
 24 29  1  1  0  0  0
 25 26  1  0  0  0  0
 26 27  1  0  0  0  0
 26 31  1  1  0  0  0
 27 28  1  6  0  0  0
 27 32  1  0  0  0  0
 28 30  1  0  0  0  0
M  CHG  5   8   1  18   1  19   1  29   1  30   1
M  END
>  <CHROM.1>
-152.05692776,172.76188954,104.48499623,71.47085234,-100.57942129,-83.91656198
63.49553594,-168.60669382,134.79660910,175.92303843,-59.75655768,-132.07631375
177.58945016,62.81496800,85.88029614,68.47660199,-11.41543532,-2.36161663
-7.25881349,0.44845572,0.17820770,-0.49084186

>  <Name>
2tob cryst

>  <RI>
0

>  <Rbt.Current_Directory>
/home/itssahil/PROJECTS/Mol_Feturizer/New_Systems/rnas/2tob

>  <Rbt.Executable>
rbdock ($Id: //depot/dev/client3/rdock/2013.1/src/exe/rbdock.cxx#4 $)

>  <Rbt.Library>
libRbt.so (2013.1, Build901 2013/11/27)

>  <Rbt.Parameter_File>
/export/apps/rDock/src/rDock_2013.1_src/data/scripts/dock_solv.prm

>  <Rbt.Receptor>
prm/pocket_docking_6.prm

>  <SCORE>
-34.9191

>  <SCORE.INTER>
-38.4289

>  <SCORE.INTER.CONST>
1

>  <SCORE.INTER.POLAR>
-6.63865

>  <SCORE.INTER.ROT>
6

>  <SCORE.INTER.SOLV>
31.3079

>  <SCORE.INTER.VDW>
-21.5264

>  <SCORE.INTER.norm>
-1.2009

>  <SCORE.INTRA>
3.50974

>  <SCORE.INTRA.DIHEDRAL>
10.5681

>  <SCORE.INTRA.DIHEDRAL.0>
18.4221

>  <SCORE.INTRA.POLAR>
1.53959

>  <SCORE.INTRA.POLAR.0>
-1.57101

>  <SCORE.INTRA.REPUL>
-0.730195

>  <SCORE.INTRA.REPUL.0>
0.730195

>  <SCORE.INTRA.SOLV>
-2.88776

>  <SCORE.INTRA.SOLV.lig_0>
-127.221

>  <SCORE.INTRA.VDW>
-1.91407

>  <SCORE.INTRA.VDW.0>
10.8385

>  <SCORE.INTRA.norm>
0.109679

>  <SCORE.RESTR>
0

>  <SCORE.RESTR.CAVITY>
0

>  <SCORE.RESTR.norm>
0

>  <SCORE.SYSTEM>
0

>  <SCORE.SYSTEM.CONST>
0

>  <SCORE.SYSTEM.DIHEDRAL>
0

>  <SCORE.SYSTEM.SOLV>
0

>  <SCORE.SYSTEM.norm>
0

>  <SCORE.heavy>
32

>  <SCORE.norm>
-1.09122

>  <RMSD>
4.425

$$$$
2tob cryst
 OpenBabel11021811463D
libRbt.so/2013.1/901 2013/11/27
 32 34  0  0  0  0  0  0  0  0999 V2000
   -5.9470    0.2545   -8.9583 C   0  0  2  0  0  0  0  0  0  0  0  0
   -5.9701    1.7780   -9.0318 C   0  0  1  0  0  0  0  0  0  0  0  0
   -5.6793    2.2095  -10.4695 C   0  0  2  0  0  0  0  0  0  0  0  0
   -4.3597    1.6036  -10.9655 C   0  0  1  0  0  0  0  0  0  0  0  0
   -4.3622    0.0875  -10.7408 C   0  0  1  0  0  0  0  0  0  0  0  0
   -3.0435   -0.5958  -11.0637 C   0  0  0  0  0  0  0  0  0  0  0  0
   -7.2470    2.2661   -8.6294 O   0  0  0  0  0  0  0  0  0  0  0  0
   -5.6383    3.6785  -10.7560 N   0  3  0  0  0  0  0  0  0  0  0  0
   -4.2128    1.8874  -12.3512 O   0  0  0  0  0  0  0  0  0  0  0  0
   -4.6710   -0.2041   -9.3632 O   0  0  0  0  0  0  0  0  0  0  0  0
   -2.1274    0.3224  -11.6514 O   0  0  0  0  0  0  0  0  0  0  0  0
   -7.0653   -1.9160   -8.0543 C   0  0  2  0  0  0  0  0  0  0  0  0
   -7.9446   -2.8743   -7.2397 C   0  0  0  0  0  0  0  0  0  0  0  0
   -9.3175   -2.2806   -6.9364 C   0  0  1  0  0  0  0  0  0  0  0  0
   -9.9856   -1.9149   -8.2547 C   0  0  2  0  0  0  0  0  0  0  0  0
   -9.1711   -0.8232   -8.9533 C   0  0  1  0  0  0  0  0  0  0  0  0
   -7.7618   -1.3373   -9.2960 C   0  0  1  0  0  0  0  0  0  0  0  0
   -5.7960   -2.5964   -8.4802 N   0  3  0  0  0  0  0  0  0  0  0  0
  -10.1558   -3.2397   -6.1454 N   0  3  0  0  0  0  0  0  0  0  0  0
   -9.8475   -0.4146  -10.1355 O   0  0  0  0  0  0  0  0  0  0  0  0
  -11.3308   -1.4561   -8.0280 O   0  0  0  0  0  0  0  0  0  0  0  0
   -6.9536   -0.2505   -9.7934 O   0  0  0  0  0  0  0  0  0  0  0  0
  -12.1460   -1.5364   -9.1645 C   0  0  2  0  0  0  0  0  0  0  0  0
  -13.2214   -0.4460   -9.1133 C   0  0  1  0  0  0  0  0  0  0  0  0
  -14.3065   -0.7929   -8.0937 C   0  0  0  0  0  0  0  0  0  0  0  0
  -14.8382   -2.1853   -8.3927 C   0  0  1  0  0  0  0  0  0  0  0  0
  -13.6918   -3.1801   -8.3377 C   0  0  1  0  0  0  0  0  0  0  0  0
  -14.1621   -4.5948   -8.6233 C   0  0  0  0  0  0  0  0  0  0  0  0
  -12.5903    0.8597   -8.7387 N   0  3  0  0  0  0  0  0  0  0  0  0
  -12.9506   -5.4845   -8.6841 N   0  3  0  0  0  0  0  0  0  0  0  0
  -15.8385   -2.5450   -7.4504 O   0  0  0  0  0  0  0  0  0  0  0  0
  -12.7125   -2.8318   -9.3309 O   0  0  0  0  0  0  0  0  0  0  0  0
  1  2  1  0  0  0  0
  1 22  1  6  0  0  0
  1 10  1  0  0  0  0
  2  3  1  0  0  0  0
  2  7  1  6  0  0  0
  3  4  1  0  0  0  0
  3  8  1  1  0  0  0
  4  5  1  0  0  0  0
  4  9  1  6  0  0  0
  5  6  1  1  0  0  0
  5 10  1  0  0  0  0
  6 11  1  0  0  0  0
 12 13  1  0  0  0  0
 12 17  1  0  0  0  0
 12 18  1  6  0  0  0
 13 14  1  0  0  0  0
 14 15  1  0  0  0  0
 14 19  1  6  0  0  0
 15 16  1  0  0  0  0
 15 21  1  1  0  0  0
 16 17  1  0  0  0  0
 16 20  1  6  0  0  0
 17 22  1  1  0  0  0
 23 21  1  1  0  0  0
 23 24  1  0  0  0  0
 23 32  1  0  0  0  0
 24 25  1  0  0  0  0
 24 29  1  1  0  0  0
 25 26  1  0  0  0  0
 26 27  1  0  0  0  0
 26 31  1  1  0  0  0
 27 28  1  6  0  0  0
 27 32  1  0  0  0  0
 28 30  1  0  0  0  0
M  CHG  5   8   1  18   1  19   1  29   1  30   1
M  END
>  <CHROM.1>
-136.83400455,67.85615491,-82.29638349,-71.40134888,-6.41901749,-169.51480865
-47.63321135,-165.14723814,-159.45195425,-176.67034986,-14.07806088,-150.74241054
78.38060083,55.74130503,174.43601209,89.33049567,-8.89066314,-0.87955365
-9.11571197,-0.42795857,-0.11461193,2.80856675

>  <Name>
2tob cryst

>  <RI>
0

>  <Rbt.Current_Directory>
/home/itssahil/PROJECTS/Mol_Feturizer/New_Systems/rnas/2tob

>  <Rbt.Executable>
rbdock ($Id: //depot/dev/client3/rdock/2013.1/src/exe/rbdock.cxx#4 $)

>  <Rbt.Library>
libRbt.so (2013.1, Build901 2013/11/27)

>  <Rbt.Parameter_File>
/export/apps/rDock/src/rDock_2013.1_src/data/scripts/dock_solv.prm

>  <Rbt.Receptor>
prm/blind_docking_40.prm

>  <SCORE>
-30.318

>  <SCORE.INTER>
-26.7605

>  <SCORE.INTER.CONST>
1

>  <SCORE.INTER.POLAR>
-6.66866

>  <SCORE.INTER.ROT>
6

>  <SCORE.INTER.SOLV>
42.3947

>  <SCORE.INTER.VDW>
-17.3431

>  <SCORE.INTER.norm>
-0.836266

>  <SCORE.INTRA>
-10.1753

>  <SCORE.INTRA.DIHEDRAL>
10.4826

>  <SCORE.INTRA.DIHEDRAL.0>
18.4221

>  <SCORE.INTRA.POLAR>
0.0497898

>  <SCORE.INTRA.POLAR.0>
-1.57101

>  <SCORE.INTRA.REPUL>
-0.730195

>  <SCORE.INTRA.REPUL.0>
0.730195

>  <SCORE.INTRA.SOLV>
-5.42253

>  <SCORE.INTRA.SOLV.lig_0>
-127.221

>  <SCORE.INTRA.VDW>
-9.22362

>  <SCORE.INTRA.VDW.0>
10.8385

>  <SCORE.INTRA.norm>
-0.317977

>  <SCORE.RESTR>
6.61774

>  <SCORE.RESTR.CAVITY>
6.61774

>  <SCORE.RESTR.norm>
0.206804

>  <SCORE.SYSTEM>
0

>  <SCORE.SYSTEM.CONST>
0

>  <SCORE.SYSTEM.DIHEDRAL>
0

>  <SCORE.SYSTEM.SOLV>
0

>  <SCORE.SYSTEM.norm>
0

>  <SCORE.heavy>
32

>  <SCORE.norm>
-0.947438

>  <RMSD>
4.441

$$$$
2tob cryst
 OpenBabel11021811463D
libRbt.so/2013.1/901 2013/11/27
 32 34  0  0  0  0  0  0  0  0999 V2000
   -5.7813    0.0141   -8.9764 C   0  0  2  0  0  0  0  0  0  0  0  0
   -5.8972    1.5348   -9.0100 C   0  0  1  0  0  0  0  0  0  0  0  0
   -5.6513    2.0193  -10.4391 C   0  0  2  0  0  0  0  0  0  0  0  0
   -4.3039    1.5074  -10.9654 C   0  0  1  0  0  0  0  0  0  0  0  0
   -4.2120   -0.0112  -10.7803 C   0  0  1  0  0  0  0  0  0  0  0  0
   -2.8587   -0.6049  -11.1355 C   0  0  0  0  0  0  0  0  0  0  0  0
   -7.1961    1.9341   -8.5809 O   0  0  0  0  0  0  0  0  0  0  0  0
   -5.7027    3.4949  -10.6878 N   0  3  0  0  0  0  0  0  0  0  0  0
   -4.1920    1.8345  -12.3448 O   0  0  0  0  0  0  0  0  0  0  0  0
   -4.4852   -0.3559   -9.4074 O   0  0  0  0  0  0  0  0  0  0  0  0
   -1.8971    0.4218  -11.3568 O   0  0  0  0  0  0  0  0  0  0  0  0
   -6.9664   -2.0928   -7.9890 C   0  0  2  0  0  0  0  0  0  0  0  0
   -7.8939   -2.9687   -7.1359 C   0  0  0  0  0  0  0  0  0  0  0  0
   -9.2441   -2.3036   -6.8831 C   0  0  1  0  0  0  0  0  0  0  0  0
   -9.8817   -1.9825   -8.2279 C   0  0  2  0  0  0  0  0  0  0  0  0
   -9.0147   -0.9646   -8.9731 C   0  0  1  0  0  0  0  0  0  0  0  0
   -7.6244   -1.5540   -9.2691 C   0  0  1  0  0  0  0  0  0  0  0  0
   -5.7220   -2.8467   -8.3609 N   0  3  0  0  0  0  0  0  0  0  0  0
  -10.1304   -3.1832   -6.0532 N   0  3  0  0  0  0  0  0  0  0  0  0
   -9.6603   -0.5930  -10.1844 O   0  0  0  0  0  0  0  0  0  0  0  0
  -11.2090   -1.4573   -8.0440 O   0  0  0  0  0  0  0  0  0  0  0  0
   -6.7661   -0.5297   -9.8132 O   0  0  0  0  0  0  0  0  0  0  0  0
  -11.9961   -1.5138   -9.2016 C   0  0  2  0  0  0  0  0  0  0  0  0
  -13.0963   -0.4492   -9.1370 C   0  0  1  0  0  0  0  0  0  0  0  0
  -14.1964   -0.8556   -8.1562 C   0  0  0  0  0  0  0  0  0  0  0  0
  -14.6902   -2.2473   -8.5170 C   0  0  1  0  0  0  0  0  0  0  0  0
  -13.5237   -3.2188   -8.4704 C   0  0  1  0  0  0  0  0  0  0  0  0
  -13.9559   -4.6320   -8.8171 C   0  0  0  0  0  0  0  0  0  0  0  0
  -12.5029    0.8554   -8.7014 N   0  3  0  0  0  0  0  0  0  0  0  0
  -12.8298   -5.5636   -8.4609 N   0  3  0  0  0  0  0  0  0  0  0  0
  -15.7036   -2.6620   -7.6119 O   0  0  0  0  0  0  0  0  0  0  0  0
  -12.5299   -2.8142   -9.4272 O   0  0  0  0  0  0  0  0  0  0  0  0
  1  2  1  0  0  0  0
  1 22  1  6  0  0  0
  1 10  1  0  0  0  0
  2  3  1  0  0  0  0
  2  7  1  6  0  0  0
  3  4  1  0  0  0  0
  3  8  1  1  0  0  0
  4  5  1  0  0  0  0
  4  9  1  6  0  0  0
  5  6  1  1  0  0  0
  5 10  1  0  0  0  0
  6 11  1  0  0  0  0
 12 13  1  0  0  0  0
 12 17  1  0  0  0  0
 12 18  1  6  0  0  0
 13 14  1  0  0  0  0
 14 15  1  0  0  0  0
 14 19  1  6  0  0  0
 15 16  1  0  0  0  0
 15 21  1  1  0  0  0
 16 17  1  0  0  0  0
 16 20  1  6  0  0  0
 17 22  1  1  0  0  0
 23 21  1  1  0  0  0
 23 24  1  0  0  0  0
 23 32  1  0  0  0  0
 24 25  1  0  0  0  0
 24 29  1  1  0  0  0
 25 26  1  0  0  0  0
 26 27  1  0  0  0  0
 26 31  1  1  0  0  0
 27 28  1  6  0  0  0
 27 32  1  0  0  0  0
 28 30  1  0  0  0  0
M  CHG  5   8   1  18   1  19   1  29   1  30   1
M  END
>  <CHROM.1>
-128.47855203,-172.39509572,34.31074674,95.34245820,9.62669223,57.00076902
71.11271696,61.15691960,-161.99104765,172.72433306,-16.46132747,-155.60366200
77.49324434,175.73662954,-167.91740410,-177.15135859,-8.77395308,-0.97618063
-9.10719213,-0.42495452,-0.09065695,2.77090942

>  <Name>
2tob cryst

>  <RI>
0

>  <Rbt.Current_Directory>
/home/itssahil/PROJECTS/Mol_Feturizer/New_Systems/rnas/2tob

>  <Rbt.Executable>
rbdock ($Id: //depot/dev/client3/rdock/2013.1/src/exe/rbdock.cxx#4 $)

>  <Rbt.Library>
libRbt.so (2013.1, Build901 2013/11/27)

>  <Rbt.Parameter_File>
/export/apps/rDock/src/rDock_2013.1_src/data/scripts/dock_solv.prm

>  <Rbt.Receptor>
prm/blind_docking_100.prm

>  <SCORE>
-20.3255

>  <SCORE.INTER>
-14.9758

>  <SCORE.INTER.CONST>
1

>  <SCORE.INTER.POLAR>
-5.31914

>  <SCORE.INTER.ROT>
6

>  <SCORE.INTER.SOLV>
43.1713

>  <SCORE.INTER.VDW>
-14.2438

>  <SCORE.INTER.norm>
-0.467992

>  <SCORE.INTRA>
-9.09858

>  <SCORE.INTRA.DIHEDRAL>
11.648

>  <SCORE.INTRA.DIHEDRAL.0>
18.4221

>  <SCORE.INTRA.POLAR>
0.41331

>  <SCORE.INTRA.POLAR.0>
-1.57101

>  <SCORE.INTRA.REPUL>
-0.730195

>  <SCORE.INTRA.REPUL.0>
0.730195

>  <SCORE.INTRA.SOLV>
-5.57964

>  <SCORE.INTRA.SOLV.lig_0>
-127.221

>  <SCORE.INTRA.VDW>
-9.88705

>  <SCORE.INTRA.VDW.0>
10.8385

>  <SCORE.INTRA.norm>
-0.284331

>  <SCORE.RESTR>
3.74881

>  <SCORE.RESTR.CAVITY>
3.74881

>  <SCORE.RESTR.norm>
0.11715

>  <SCORE.SYSTEM>
0

>  <SCORE.SYSTEM.CONST>
0

>  <SCORE.SYSTEM.DIHEDRAL>
0

>  <SCORE.SYSTEM.SOLV>
0

>  <SCORE.SYSTEM.norm>
0

>  <SCORE.heavy>
32

>  <SCORE.norm>
-0.635173

>  <RMSD>
4.462

$$$$
2tob cryst
 OpenBabel11021811463D
libRbt.so/2013.1/901 2013/11/27
 32 34  0  0  0  0  0  0  0  0999 V2000
   -7.7869   -0.6511   -7.8041 C   0  0  2  0  0  0  0  0  0  0  0  0
   -8.4948    0.5799   -7.2469 C   0  0  1  0  0  0  0  0  0  0  0  0
   -8.5916    1.6368   -8.3474 C   0  0  2  0  0  0  0  0  0  0  0  0
   -7.2059    1.9510   -8.9267 C   0  0  1  0  0  0  0  0  0  0  0  0
   -6.5069    0.6531   -9.3461 C   0  0  1  0  0  0  0  0  0  0  0  0
   -5.0678    0.8351   -9.8001 C   0  0  0  0  0  0  0  0  0  0  0  0
   -9.8008    0.2293   -6.7971 O   0  0  0  0  0  0  0  0  0  0  0  0
   -9.2425    2.9397   -8.0001 N   0  3  0  0  0  0  0  0  0  0  0  0
   -7.3587    2.8045  -10.0538 O   0  0  0  0  0  0  0  0  0  0  0  0
   -6.4952   -0.2764   -8.2442 O   0  0  0  0  0  0  0  0  0  0  0  0
   -4.5453   -0.3800  -10.3277 O   0  0  0  0  0  0  0  0  0  0  0  0
   -8.0441   -3.2614   -7.7776 C   0  0  2  0  0  0  0  0  0  0  0  0
   -8.5409   -4.6528   -7.3623 C   0  0  0  0  0  0  0  0  0  0  0  0
  -10.0058   -4.6385   -6.9345 C   0  0  1  0  0  0  0  0  0  0  0  0
  -10.8370   -4.0828   -8.0827 C   0  0  2  0  0  0  0  0  0  0  0  0
  -10.4345   -2.6298   -8.3469 C   0  0  1  0  0  0  0  0  0  0  0  0
   -8.9613   -2.5490   -8.7841 C   0  0  1  0  0  0  0  0  0  0  0  0
   -6.6598   -3.3447   -8.3538 N   0  3  0  0  0  0  0  0  0  0  0  0
  -10.4648   -6.0103   -6.5402 N   0  3  0  0  0  0  0  0  0  0  0  0
  -11.2776   -2.0828   -9.3529 O   0  0  0  0  0  0  0  0  0  0  0  0
  -12.2402   -4.1556   -7.7707 O   0  0  0  0  0  0  0  0  0  0  0  0
   -8.5501   -1.1680   -8.8605 O   0  0  0  0  0  0  0  0  0  0  0  0
  -12.6469   -3.2201   -6.8105 C   0  0  2  0  0  0  0  0  0  0  0  0
  -13.9012   -3.7244   -6.0891 C   0  0  1  0  0  0  0  0  0  0  0  0
  -15.1347   -3.6050   -6.9846 C   0  0  0  0  0  0  0  0  0  0  0  0
  -15.2366   -2.1775   -7.4970 C   0  0  1  0  0  0  0  0  0  0  0  0
  -13.9684   -1.8275   -8.2559 C   0  0  1  0  0  0  0  0  0  0  0  0
  -14.0123   -0.4108   -8.7993 C   0  0  0  0  0  0  0  0  0  0  0  0
  -13.7100   -5.1581   -5.6996 N   0  3  0  0  0  0  0  0  0  0  0  0
  -12.6056    0.1216   -8.8246 N   0  3  0  0  0  0  0  0  0  0  0  0
  -16.3656   -2.0374   -8.3477 O   0  0  0  0  0  0  0  0  0  0  0  0
  -12.8415   -1.9250   -7.3686 O   0  0  0  0  0  0  0  0  0  0  0  0
  1  2  1  0  0  0  0
  1 22  1  6  0  0  0
  1 10  1  0  0  0  0
  2  3  1  0  0  0  0
  2  7  1  6  0  0  0
  3  4  1  0  0  0  0
  3  8  1  1  0  0  0
  4  5  1  0  0  0  0
  4  9  1  6  0  0  0
  5  6  1  1  0  0  0
  5 10  1  0  0  0  0
  6 11  1  0  0  0  0
 12 13  1  0  0  0  0
 12 17  1  0  0  0  0
 12 18  1  6  0  0  0
 13 14  1  0  0  0  0
 14 15  1  0  0  0  0
 14 19  1  6  0  0  0
 15 16  1  0  0  0  0
 15 21  1  1  0  0  0
 16 17  1  0  0  0  0
 16 20  1  6  0  0  0
 17 22  1  1  0  0  0
 23 21  1  6  0  0  0
 23 24  1  0  0  0  0
 23 32  1  0  0  0  0
 24 25  1  0  0  0  0
 24 29  1  6  0  0  0
 25 26  1  0  0  0  0
 26 27  1  0  0  0  0
 26 31  1  6  0  0  0
 27 28  1  1  0  0  0
 27 32  1  0  0  0  0
 28 30  1  0  0  0  0
M  CHG  5   8   1  18   1  19   1  29   1  30   1
M  END
>  <CHROM.1>
-124.22883494,-58.28723261,-44.65605392,179.21873262,-172.73672926,-176.87710266
68.06298874,-49.39093125,72.80477091,-52.70435340,-19.63553849,-154.91396990
-54.94223289,85.42507597,148.87779719,-79.94204016,-10.22777876,-1.61480242
-8.07327960,-0.53815702,-0.10862342,2.89397811

>  <Name>
2tob cryst

>  <RI>
0

>  <Rbt.Current_Directory>
/home/itssahil/PROJECTS/Mol_Feturizer/New_Systems/rnas/2tob

>  <Rbt.Executable>
rbdock ($Id: //depot/dev/client3/rdock/2013.1/src/exe/rbdock.cxx#4 $)

>  <Rbt.Library>
libRbt.so (2013.1, Build901 2013/11/27)

>  <Rbt.Parameter_File>
/export/apps/rDock/src/rDock_2013.1_src/data/scripts/dock_solv.prm

>  <Rbt.Receptor>
prm/blind_docking_80.prm

>  <SCORE>
-41.0538

>  <SCORE.INTER>
-35.0125

>  <SCORE.INTER.CONST>
1

>  <SCORE.INTER.POLAR>
-6.26195

>  <SCORE.INTER.ROT>
6

>  <SCORE.INTER.SOLV>
41.351

>  <SCORE.INTER.VDW>
-23.8521

>  <SCORE.INTER.norm>
-1.09414

>  <SCORE.INTRA>
-11.7053

>  <SCORE.INTRA.DIHEDRAL>
5.74968

>  <SCORE.INTRA.DIHEDRAL.0>
18.4221

>  <SCORE.INTRA.POLAR>
-0.524732

>  <SCORE.INTRA.POLAR.0>
-1.57101

>  <SCORE.INTRA.REPUL>
-0.730195

>  <SCORE.INTRA.REPUL.0>
0.730195

>  <SCORE.INTRA.SOLV>
1.9752

>  <SCORE.INTRA.SOLV.lig_0>
-127.221

>  <SCORE.INTRA.VDW>
-10.1327

>  <SCORE.INTRA.VDW.0>
10.8385

>  <SCORE.INTRA.norm>
-0.36579

>  <SCORE.RESTR>
5.66399

>  <SCORE.RESTR.CAVITY>
5.66399

>  <SCORE.RESTR.norm>
0.177

>  <SCORE.SYSTEM>
0

>  <SCORE.SYSTEM.CONST>
0

>  <SCORE.SYSTEM.DIHEDRAL>
0

>  <SCORE.SYSTEM.SOLV>
0

>  <SCORE.SYSTEM.norm>
0

>  <SCORE.heavy>
32

>  <SCORE.norm>
-1.28293

>  <RMSD>
4.485

$$$$
2tob cryst
 OpenBabel11021811463D
libRbt.so/2013.1/901 2013/11/27
 32 34  0  0  0  0  0  0  0  0999 V2000
   -5.8415    0.2553   -8.9773 C   0  0  2  0  0  0  0  0  0  0  0  0
   -5.8970    1.7784   -9.0418 C   0  0  1  0  0  0  0  0  0  0  0  0
   -5.6149    2.2245  -10.4767 C   0  0  2  0  0  0  0  0  0  0  0  0
   -4.2825    1.6499  -10.9756 C   0  0  1  0  0  0  0  0  0  0  0  0
   -4.2527    0.1328  -10.7599 C   0  0  1  0  0  0  0  0  0  0  0  0
   -2.9196   -0.5203  -11.0861 C   0  0  0  0  0  0  0  0  0  0  0  0
   -7.1843    2.2368   -8.6372 O   0  0  0  0  0  0  0  0  0  0  0  0
   -5.6052    3.6957  -10.7545 N   0  3  0  0  0  0  0  0  0  0  0  0
   -4.1410    1.9449  -12.3595 O   0  0  0  0  0  0  0  0  0  0  0  0
   -4.5558   -0.1735   -9.3843 O   0  0  0  0  0  0  0  0  0  0  0  0
   -1.9262    0.4632  -11.3573 O   0  0  0  0  0  0  0  0  0  0  0  0
   -6.9517   -1.9181   -8.0642 C   0  0  2  0  0  0  0  0  0  0  0  0
   -7.8326   -2.8699   -7.2438 C   0  0  0  0  0  0  0  0  0  0  0  0
   -9.2060   -2.2739   -6.9477 C   0  0  1  0  0  0  0  0  0  0  0  0
   -9.8716   -1.9184   -8.2700 C   0  0  2  0  0  0  0  0  0  0  0  0
   -9.0558   -0.8321   -8.9756 C   0  0  1  0  0  0  0  0  0  0  0  0
   -7.6459   -1.3490   -9.3117 C   0  0  1  0  0  0  0  0  0  0  0  0
   -5.6817   -2.6017   -8.4825 N   0  3  0  0  0  0  0  0  0  0  0  0
  -10.0459   -3.2268   -6.1509 N   0  3  0  0  0  0  0  0  0  0  0  0
   -9.7300   -0.4326  -10.1621 O   0  0  0  0  0  0  0  0  0  0  0  0
  -11.2172   -1.4578   -8.0494 O   0  0  0  0  0  0  0  0  0  0  0  0
   -6.8368   -0.2660   -9.8159 O   0  0  0  0  0  0  0  0  0  0  0  0
  -12.0199   -1.5116   -9.1963 C   0  0  2  0  0  0  0  0  0  0  0  0
  -13.0690   -0.3957   -9.1518 C   0  0  1  0  0  0  0  0  0  0  0  0
  -14.1749   -0.7219   -8.1478 C   0  0  0  0  0  0  0  0  0  0  0  0
  -14.7365   -2.0992   -8.4618 C   0  0  1  0  0  0  0  0  0  0  0  0
  -13.6154   -3.1218   -8.3987 C   0  0  1  0  0  0  0  0  0  0  0  0
  -14.1163   -4.5230   -8.6987 C   0  0  0  0  0  0  0  0  0  0  0  0
  -12.4111    0.8921   -8.7615 N   0  3  0  0  0  0  0  0  0  0  0  0
  -15.1156   -4.8969   -7.6382 N   0  3  0  0  0  0  0  0  0  0  0  0
  -15.7570   -2.4398   -7.5341 O   0  0  0  0  0  0  0  0  0  0  0  0
  -12.6155   -2.7918   -9.3776 O   0  0  0  0  0  0  0  0  0  0  0  0
  1  2  1  0  0  0  0
  1 22  1  6  0  0  0
  1 10  1  0  0  0  0
  2  3  1  0  0  0  0
  2  7  1  6  0  0  0
  3  4  1  0  0  0  0
  3  8  1  1  0  0  0
  4  5  1  0  0  0  0
  4  9  1  6  0  0  0
  5  6  1  1  0  0  0
  5 10  1  0  0  0  0
  6 11  1  0  0  0  0
 12 13  1  0  0  0  0
 12 17  1  0  0  0  0
 12 18  1  6  0  0  0
 13 14  1  0  0  0  0
 14 15  1  0  0  0  0
 14 19  1  6  0  0  0
 15 16  1  0  0  0  0
 15 21  1  1  0  0  0
 16 17  1  0  0  0  0
 16 20  1  6  0  0  0
 17 22  1  1  0  0  0
 23 21  1  1  0  0  0
 23 24  1  0  0  0  0
 23 32  1  0  0  0  0
 24 25  1  0  0  0  0
 24 29  1  1  0  0  0
 25 26  1  0  0  0  0
 26 27  1  0  0  0  0
 26 31  1  1  0  0  0
 27 28  1  6  0  0  0
 27 32  1  0  0  0  0
 28 30  1  0  0  0  0
M  CHG  5   8   1  18   1  19   1  29   1  30   1
M  END
>  <CHROM.1>
-135.18814240,-154.89699798,36.88687056,-76.89546623,7.74468178,60.37404991
72.73379822,67.85570904,-161.14528767,-179.79625271,-14.77642975,-149.35796935
-38.33290396,58.70510786,-62.49055025,47.09252443,-8.87087942,-0.82513012
-9.08967973,-0.42542719,-0.08003345,2.73254048

>  <Name>
2tob cryst

>  <RI>
0

>  <Rbt.Current_Directory>
/home/itssahil/PROJECTS/Mol_Feturizer/New_Systems/rnas/2tob

>  <Rbt.Executable>
rbdock ($Id: //depot/dev/client3/rdock/2013.1/src/exe/rbdock.cxx#4 $)

>  <Rbt.Library>
libRbt.so (2013.1, Build901 2013/11/27)

>  <Rbt.Parameter_File>
/export/apps/rDock/src/rDock_2013.1_src/data/scripts/dock_solv.prm

>  <Rbt.Receptor>
prm/blind_docking_40.prm

>  <SCORE>
-29.8772

>  <SCORE.INTER>
-26.0153

>  <SCORE.INTER.CONST>
1

>  <SCORE.INTER.POLAR>
-7.18717

>  <SCORE.INTER.ROT>
6

>  <SCORE.INTER.SOLV>
41.6573

>  <SCORE.INTER.VDW>
-14.8721

>  <SCORE.INTER.norm>
-0.812977

>  <SCORE.INTRA>
-9.90797

>  <SCORE.INTRA.DIHEDRAL>
11.5103

>  <SCORE.INTRA.DIHEDRAL.0>
18.4221

>  <SCORE.INTRA.POLAR>
-0.632817

>  <SCORE.INTRA.POLAR.0>
-1.57101

>  <SCORE.INTRA.REPUL>
-0.730195

>  <SCORE.INTRA.REPUL.0>
0.730195

>  <SCORE.INTRA.SOLV>
-3.13547

>  <SCORE.INTRA.SOLV.lig_0>
-127.221

>  <SCORE.INTRA.VDW>
-8.29283

>  <SCORE.INTRA.VDW.0>
10.8385

>  <SCORE.INTRA.norm>
-0.309624

>  <SCORE.RESTR>
6.04607

>  <SCORE.RESTR.CAVITY>
6.04607

>  <SCORE.RESTR.norm>
0.18894

>  <SCORE.SYSTEM>
0

>  <SCORE.SYSTEM.CONST>
0

>  <SCORE.SYSTEM.DIHEDRAL>
0

>  <SCORE.SYSTEM.SOLV>
0

>  <SCORE.SYSTEM.norm>
0

>  <SCORE.heavy>
32

>  <SCORE.norm>
-0.933661

>  <RMSD>
4.490

$$$$
2tob cryst
 OpenBabel11021811463D
libRbt.so/2013.1/901 2013/11/27
 32 34  0  0  0  0  0  0  0  0999 V2000
   -5.5345    0.1132   -9.0295 C   0  0  2  0  0  0  0  0  0  0  0  0
   -5.6993    1.6292   -9.0695 C   0  0  1  0  0  0  0  0  0  0  0  0
   -5.5487    2.1063  -10.5143 C   0  0  2  0  0  0  0  0  0  0  0  0
   -4.2176    1.6303  -11.1110 C   0  0  1  0  0  0  0  0  0  0  0  0
   -4.0684    0.1172  -10.9183 C   0  0  1  0  0  0  0  0  0  0  0  0
   -2.7192   -0.4385  -11.3437 C   0  0  0  0  0  0  0  0  0  0  0  0
   -6.9840    1.9932   -8.5716 O   0  0  0  0  0  0  0  0  0  0  0  0
   -5.6597    3.5770  -10.7723 N   0  3  0  0  0  0  0  0  0  0  0  0
   -4.1931    1.9465  -12.4972 O   0  0  0  0  0  0  0  0  0  0  0  0
   -4.2536   -0.2214   -9.5293 O   0  0  0  0  0  0  0  0  0  0  0  0
   -2.3900   -1.6017  -10.5911 O   0  0  0  0  0  0  0  0  0  0  0  0
   -6.8228   -1.7875   -7.8058 C   0  0  2  0  0  0  0  0  0  0  0  0
   -7.7877   -2.5359   -6.8763 C   0  0  0  0  0  0  0  0  0  0  0  0
   -9.1320   -1.8251   -6.7469 C   0  0  1  0  0  0  0  0  0  0  0  0
   -9.7284   -1.6664   -8.1387 C   0  0  2  0  0  0  0  0  0  0  0  0
   -8.8244   -0.7627   -8.9808 C   0  0  1  0  0  0  0  0  0  0  0  0
   -7.4374   -1.4044   -9.1613 C   0  0  1  0  0  0  0  0  0  0  0  0
   -5.5826   -2.5999   -8.0452 N   0  3  0  0  0  0  0  0  0  0  0  0
  -10.0552   -2.5807   -5.8387 N   0  3  0  0  0  0  0  0  0  0  0  0
   -9.4314   -0.5370  -10.2467 O   0  0  0  0  0  0  0  0  0  0  0  0
  -11.0506   -1.1033   -8.0595 O   0  0  0  0  0  0  0  0  0  0  0  0
   -6.5472   -0.4690   -9.8049 O   0  0  0  0  0  0  0  0  0  0  0  0
  -11.7804   -1.2249   -9.2492 C   0  0  2  0  0  0  0  0  0  0  0  0
  -12.9960   -0.2927   -9.2132 C   0  0  1  0  0  0  0  0  0  0  0  0
  -14.0803   -0.8405   -8.2849 C   0  0  0  0  0  0  0  0  0  0  0  0
  -14.3984   -2.2714   -8.6874 C   0  0  1  0  0  0  0  0  0  0  0  0
  -13.1318   -3.1058   -8.6082 C   0  0  1  0  0  0  0  0  0  0  0  0
  -13.3869   -4.5514   -8.9944 C   0  0  0  0  0  0  0  0  0  0  0  0
  -12.5720    1.0614   -8.7333 N   0  3  0  0  0  0  0  0  0  0  0  0
  -12.0587   -5.2534   -9.0732 N   0  3  0  0  0  0  0  0  0  0  0  0
  -15.3927   -2.8160   -7.8314 O   0  0  0  0  0  0  0  0  0  0  0  0
  -12.1538   -2.5723   -9.5169 O   0  0  0  0  0  0  0  0  0  0  0  0
  1  2  1  0  0  0  0
  1 22  1  6  0  0  0
  1 10  1  0  0  0  0
  2  3  1  0  0  0  0
  2  7  1  6  0  0  0
  3  4  1  0  0  0  0
  3  8  1  1  0  0  0
  4  5  1  0  0  0  0
  4  9  1  6  0  0  0
  5  6  1  1  0  0  0
  5 10  1  0  0  0  0
  6 11  1  0  0  0  0
 12 13  1  0  0  0  0
 12 17  1  0  0  0  0
 12 18  1  6  0  0  0
 13 14  1  0  0  0  0
 14 15  1  0  0  0  0
 14 19  1  1  0  0  0
 15 16  1  0  0  0  0
 15 21  1  1  0  0  0
 16 17  1  0  0  0  0
 16 20  1  6  0  0  0
 17 22  1  1  0  0  0
 23 21  1  1  0  0  0
 23 24  1  0  0  0  0
 23 32  1  0  0  0  0
 24 25  1  0  0  0  0
 24 29  1  1  0  0  0
 25 26  1  0  0  0  0
 26 27  1  0  0  0  0
 26 31  1  1  0  0  0
 27 28  1  6  0  0  0
 27 32  1  0  0  0  0
 28 30  1  0  0  0  0
M  CHG  5   8   1  18   1  19   1  29   1  30   1
M  END
>  <CHROM.1>
-121.66766272,64.91652181,33.56086410,-175.20654453,151.56091917,61.61221844
140.63228994,-166.93584670,-165.49686185,161.02316343,-13.47268455,-164.84233248
-166.43588933,67.27935467,172.27447444,75.57974577,-8.60061058,-0.88175338
-9.12826998,-0.39027444,-0.09196804,2.77357273

>  <Name>
2tob cryst

>  <RI>
0

>  <Rbt.Current_Directory>
/home/itssahil/PROJECTS/Mol_Feturizer/New_Systems/rnas/2tob

>  <Rbt.Executable>
rbdock ($Id: //depot/dev/client3/rdock/2013.1/src/exe/rbdock.cxx#4 $)

>  <Rbt.Library>
libRbt.so (2013.1, Build901 2013/11/27)

>  <Rbt.Parameter_File>
/export/apps/rDock/src/rDock_2013.1_src/data/scripts/dock_solv.prm

>  <Rbt.Receptor>
prm/blind_docking_60.prm

>  <SCORE>
-23.6282

>  <SCORE.INTER>
-21.5862

>  <SCORE.INTER.CONST>
1

>  <SCORE.INTER.POLAR>
-6.68432

>  <SCORE.INTER.ROT>
6

>  <SCORE.INTER.SOLV>
48.5586

>  <SCORE.INTER.VDW>
-15.8959

>  <SCORE.INTER.norm>
-0.67457

>  <SCORE.INTRA>
-9.60669

>  <SCORE.INTRA.DIHEDRAL>
7.51079

>  <SCORE.INTRA.DIHEDRAL.0>
18.4221

>  <SCORE.INTRA.POLAR>
1.17199

>  <SCORE.INTRA.POLAR.0>
-1.57101

>  <SCORE.INTRA.REPUL>
-0.730195

>  <SCORE.INTRA.REPUL.0>
0.730195

>  <SCORE.INTRA.SOLV>
-7.92902

>  <SCORE.INTRA.SOLV.lig_0>
-127.221

>  <SCORE.INTRA.VDW>
-9.73136

>  <SCORE.INTRA.VDW.0>
10.8385

>  <SCORE.INTRA.norm>
-0.300209

>  <SCORE.RESTR>
7.5647

>  <SCORE.RESTR.CAVITY>
7.5647

>  <SCORE.RESTR.norm>
0.236397

>  <SCORE.SYSTEM>
0

>  <SCORE.SYSTEM.CONST>
0

>  <SCORE.SYSTEM.DIHEDRAL>
0

>  <SCORE.SYSTEM.SOLV>
0

>  <SCORE.SYSTEM.norm>
0

>  <SCORE.heavy>
32

>  <SCORE.norm>
-0.738383

>  <RMSD>
4.510

$$$$
2tob cryst
 OpenBabel11021811463D
libRbt.so/2013.1/901 2013/11/27
 32 34  0  0  0  0  0  0  0  0999 V2000
   -7.8300    0.0534  -10.1820 C   0  0  2  0  0  0  0  0  0  0  0  0
   -6.7298    1.0599  -10.5035 C   0  0  1  0  0  0  0  0  0  0  0  0
   -6.1338    1.5782   -9.1944 C   0  0  2  0  0  0  0  0  0  0  0  0
   -7.2283    2.1538   -8.2859 C   0  0  1  0  0  0  0  0  0  0  0  0
   -8.3576    1.1320   -8.1142 C   0  0  1  0  0  0  0  0  0  0  0  0
   -9.5633    1.6533   -7.3496 C   0  0  0  0  0  0  0  0  0  0  0  0
   -5.7131    0.4377  -11.2846 O   0  0  0  0  0  0  0  0  0  0  0  0
   -5.0410    2.5975   -9.2873 N   0  3  0  0  0  0  0  0  0  0  0  0
   -6.6613    2.4658   -7.0196 O   0  0  0  0  0  0  0  0  0  0  0  0
   -8.8246    0.6948   -9.4061 O   0  0  0  0  0  0  0  0  0  0  0  0
   -9.3650    1.5295   -5.9449 O   0  0  0  0  0  0  0  0  0  0  0  0
   -7.5048   -2.7995   -7.8738 C   0  0  2  0  0  0  0  0  0  0  0  0
   -8.4510   -3.7724   -7.1575 C   0  0  0  0  0  0  0  0  0  0  0  0
   -9.8079   -3.1417   -6.8571 C   0  0  1  0  0  0  0  0  0  0  0  0
  -10.4137   -2.6567   -8.1670 C   0  0  2  0  0  0  0  0  0  0  0  0
   -9.5308   -1.5559   -8.7602 C   0  0  1  0  0  0  0  0  0  0  0  0
   -8.1329   -2.1062   -9.0931 C   0  0  1  0  0  0  0  0  0  0  0  0
   -6.2506   -3.5035   -8.3058 N   0  3  0  0  0  0  0  0  0  0  0  0
  -10.7124   -4.1157   -6.1632 N   0  3  0  0  0  0  0  0  0  0  0  0
  -10.1479   -1.0372   -9.9316 O   0  0  0  0  0  0  0  0  0  0  0  0
  -11.7459   -2.1563   -7.9516 O   0  0  0  0  0  0  0  0  0  0  0  0
   -7.2635   -1.0239   -9.4863 O   0  0  0  0  0  0  0  0  0  0  0  0
  -12.5496   -2.1994   -9.0983 C   0  0  2  0  0  0  0  0  0  0  0  0
  -13.5138   -1.0085   -9.1047 C   0  0  1  0  0  0  0  0  0  0  0  0
  -14.6413   -1.2099   -8.0919 C   0  0  0  0  0  0  0  0  0  0  0  0
  -15.3025   -2.5542   -8.3498 C   0  0  1  0  0  0  0  0  0  0  0  0
  -14.2598   -3.6529   -8.2395 C   0  0  1  0  0  0  0  0  0  0  0  0
  -14.8622   -5.0249   -8.4820 C   0  0  0  0  0  0  0  0  0  0  0  0
  -12.7631    0.2428   -8.7665 N   0  3  0  0  0  0  0  0  0  0  0  0
  -14.0873   -5.6841   -9.5901 N   0  3  0  0  0  0  0  0  0  0  0  0
  -16.3459   -2.7794   -7.4124 O   0  0  0  0  0  0  0  0  0  0  0  0
  -13.2378   -3.4389   -9.2277 O   0  0  0  0  0  0  0  0  0  0  0  0
  1  2  1  0  0  0  0
  1 22  1  1  0  0  0
  1 10  1  0  0  0  0
  2  3  1  0  0  0  0
  2  7  1  6  0  0  0
  3  4  1  0  0  0  0
  3  8  1  6  0  0  0
  4  5  1  0  0  0  0
  4  9  1  1  0  0  0
  5  6  1  6  0  0  0
  5 10  1  0  0  0  0
  6 11  1  0  0  0  0
 12 13  1  0  0  0  0
 12 17  1  0  0  0  0
 12 18  1  6  0  0  0
 13 14  1  0  0  0  0
 14 15  1  0  0  0  0
 14 19  1  6  0  0  0
 15 16  1  0  0  0  0
 15 21  1  1  0  0  0
 16 17  1  0  0  0  0
 16 20  1  6  0  0  0
 17 22  1  1  0  0  0
 23 21  1  1  0  0  0
 23 24  1  0  0  0  0
 23 32  1  0  0  0  0
 24 25  1  0  0  0  0
 24 29  1  1  0  0  0
 25 26  1  0  0  0  0
 26 27  1  0  0  0  0
 26 31  1  1  0  0  0
 27 28  1  6  0  0  0
 27 32  1  0  0  0  0
 28 30  1  0  0  0  0
M  CHG  5   8   1  18   1  19   1  29   1  30   1
M  END
>  <CHROM.1>
-179.38175773,-169.32289292,-92.91698748,-154.68151629,-84.54498066,-57.97238823
-84.42707714,61.39152378,-155.71609901,84.00965320,-154.88700038,-146.16755606
-35.04927363,49.95242193,124.68728456,176.06191062,-10.07788932,-1.23368450
-8.51316744,-0.52190678,-0.08999831,-3.13133939

>  <Name>
2tob cryst

>  <RI>
0

>  <Rbt.Current_Directory>
/home/itssahil/PROJECTS/Mol_Feturizer/New_Systems/rnas/2tob

>  <Rbt.Executable>
rbdock ($Id: //depot/dev/client3/rdock/2013.1/src/exe/rbdock.cxx#4 $)

>  <Rbt.Library>
libRbt.so (2013.1, Build901 2013/11/27)

>  <Rbt.Parameter_File>
/export/apps/rDock/src/rDock_2013.1_src/data/scripts/dock_solv.prm

>  <Rbt.Receptor>
prm/blind_docking_80.prm

>  <SCORE>
4.8706

>  <SCORE.INTER>
2.01508

>  <SCORE.INTER.CONST>
1

>  <SCORE.INTER.POLAR>
-5.92296

>  <SCORE.INTER.ROT>
6

>  <SCORE.INTER.SOLV>
46.6679

>  <SCORE.INTER.VDW>
-2.06937

>  <SCORE.INTER.norm>
0.0629712

>  <SCORE.INTRA>
-1.64413

>  <SCORE.INTRA.DIHEDRAL>
9.2142

>  <SCORE.INTRA.DIHEDRAL.0>
18.4221

>  <SCORE.INTRA.POLAR>
1.05917

>  <SCORE.INTRA.POLAR.0>
-1.57101

>  <SCORE.INTRA.REPUL>
-0.730195

>  <SCORE.INTRA.REPUL.0>
0.730195

>  <SCORE.INTRA.SOLV>
-5.31013

>  <SCORE.INTRA.SOLV.lig_0>
-127.221

>  <SCORE.INTRA.VDW>
-3.54637

>  <SCORE.INTRA.VDW.0>
10.8385

>  <SCORE.INTRA.norm>
-0.051379

>  <SCORE.RESTR>
4.49964

>  <SCORE.RESTR.CAVITY>
4.49964

>  <SCORE.RESTR.norm>
0.140614

>  <SCORE.SYSTEM>
0

>  <SCORE.SYSTEM.CONST>
0

>  <SCORE.SYSTEM.DIHEDRAL>
0

>  <SCORE.SYSTEM.SOLV>
0

>  <SCORE.SYSTEM.norm>
0

>  <SCORE.heavy>
32

>  <SCORE.norm>
0.152206

>  <RMSD>
4.528

$$$$
2tob cryst
 OpenBabel11021811463D
libRbt.so/2013.1/901 2013/11/27
 32 34  0  0  0  0  0  0  0  0999 V2000
   -9.5400   -2.2858   -8.7487 C   0  0  2  0  0  0  0  0  0  0  0  0
   -8.1478   -2.9003   -8.8540 C   0  0  1  0  0  0  0  0  0  0  0  0
   -7.1691   -2.0530   -8.0403 C   0  0  2  0  0  0  0  0  0  0  0  0
   -7.2141   -0.5858   -8.4873 C   0  0  1  0  0  0  0  0  0  0  0  0
   -8.6604   -0.0791   -8.4770 C   0  0  1  0  0  0  0  0  0  0  0  0
   -8.8379    1.3207   -9.0419 C   0  0  0  0  0  0  0  0  0  0  0  0
   -8.1646   -4.2343   -8.3530 O   0  0  0  0  0  0  0  0  0  0  0  0
   -5.7333   -2.4774   -8.0255 N   0  3  0  0  0  0  0  0  0  0  0  0
   -6.4221    0.1926   -7.5990 O   0  0  0  0  0  0  0  0  0  0  0  0
   -9.4960   -0.9634   -9.2504 O   0  0  0  0  0  0  0  0  0  0  0  0
  -10.1438    1.4862   -9.5852 O   0  0  0  0  0  0  0  0  0  0  0  0
  -10.0574   -3.6204   -5.3892 C   0  0  2  0  0  0  0  0  0  0  0  0
  -10.7884   -4.7209   -4.6083 C   0  0  0  0  0  0  0  0  0  0  0  0
  -12.2992   -4.6711   -4.8184 C   0  0  1  0  0  0  0  0  0  0  0  0
  -12.5816   -4.7816   -6.3104 C   0  0  2  0  0  0  0  0  0  0  0  0
  -11.9898   -3.5685   -7.0325 C   0  0  1  0  0  0  0  0  0  0  0  0
  -10.4599   -3.5373   -6.8701 C   0  0  1  0  0  0  0  0  0  0  0  0
   -8.5700   -3.8066   -5.2981 N   0  3  0  0  0  0  0  0  0  0  0  0
  -12.9858   -5.7598   -4.0492 N   0  3  0  0  0  0  0  0  0  0  0  0
  -12.3380   -3.6242   -8.4100 O   0  0  0  0  0  0  0  0  0  0  0  0
  -13.9987   -4.8545   -6.5513 O   0  0  0  0  0  0  0  0  0  0  0  0
   -9.9377   -2.3029   -7.4043 O   0  0  0  0  0  0  0  0  0  0  0  0
  -14.3230   -5.3255   -7.8302 C   0  0  2  0  0  0  0  0  0  0  0  0
  -15.8210   -5.6390   -7.9064 C   0  0  1  0  0  0  0  0  0  0  0  0
  -16.1507   -6.9290   -7.1550 C   0  0  0  0  0  0  0  0  0  0  0  0
  -15.2498   -8.0420   -7.6656 C   0  0  1  0  0  0  0  0  0  0  0  0
  -13.7986   -7.6420   -7.4639 C   0  0  1  0  0  0  0  0  0  0  0  0
  -12.8465   -8.7192   -7.9509 C   0  0  0  0  0  0  0  0  0  0  0  0
  -16.5985   -4.5065   -7.3091 N   0  3  0  0  0  0  0  0  0  0  0  0
  -12.1440   -9.2959   -6.7523 N   0  3  0  0  0  0  0  0  0  0  0  0
  -15.5201   -9.2529   -6.9739 O   0  0  0  0  0  0  0  0  0  0  0  0
  -13.5279   -6.4435   -8.2104 O   0  0  0  0  0  0  0  0  0  0  0  0
  1  2  1  0  0  0  0
  1 22  1  1  0  0  0
  1 10  1  0  0  0  0
  2  3  1  0  0  0  0
  2  7  1  1  0  0  0
  3  4  1  0  0  0  0
  3  8  1  6  0  0  0
  4  5  1  0  0  0  0
  4  9  1  1  0  0  0
  5  6  1  6  0  0  0
  5 10  1  0  0  0  0
  6 11  1  0  0  0  0
 12 13  1  0  0  0  0
 12 17  1  0  0  0  0
 12 18  1  6  0  0  0
 13 14  1  0  0  0  0
 14 15  1  0  0  0  0
 14 19  1  1  0  0  0
 15 16  1  0  0  0  0
 15 21  1  1  0  0  0
 16 17  1  0  0  0  0
 16 20  1  6  0  0  0
 17 22  1  1  0  0  0
 23 21  1  1  0  0  0
 23 24  1  0  0  0  0
 23 32  1  0  0  0  0
 24 25  1  0  0  0  0
 24 29  1  1  0  0  0
 25 26  1  0  0  0  0
 26 27  1  0  0  0  0
 26 31  1  1  0  0  0
 27 28  1  6  0  0  0
 27 32  1  0  0  0  0
 28 30  1  0  0  0  0
M  CHG  5   8   1  18   1  19   1  29   1  30   1
M  END
>  <CHROM.1>
-80.47012966,70.85511612,-66.90083173,176.83874756,152.40470802,-171.85653583
-110.74435510,177.65328180,-163.18467701,175.79728108,147.12538949,168.64365600
56.65413559,176.80489191,-112.40172614,-177.26004707,-11.27526745,-4.05213703
-7.38594664,0.75610624,-0.17393977,-0.38564024

>  <Name>
2tob cryst

>  <RI>
0

>  <Rbt.Current_Directory>
/home/itssahil/PROJECTS/Mol_Feturizer/New_Systems/rnas/2tob

>  <Rbt.Executable>
rbdock ($Id: //depot/dev/client3/rdock/2013.1/src/exe/rbdock.cxx#4 $)

>  <Rbt.Library>
libRbt.so (2013.1, Build901 2013/11/27)

>  <Rbt.Parameter_File>
/export/apps/rDock/src/rDock_2013.1_src/data/scripts/dock_solv.prm

>  <Rbt.Receptor>
prm/pocket_docking_5.prm

>  <SCORE>
-45.338

>  <SCORE.INTER>
-27.0353

>  <SCORE.INTER.CONST>
1

>  <SCORE.INTER.POLAR>
-4.98384

>  <SCORE.INTER.ROT>
6

>  <SCORE.INTER.SOLV>
26.1264

>  <SCORE.INTER.VDW>
-17.7195

>  <SCORE.INTER.norm>
-0.844853

>  <SCORE.INTRA>
-18.3027

>  <SCORE.INTRA.DIHEDRAL>
1.62818

>  <SCORE.INTRA.DIHEDRAL.0>
18.4221

>  <SCORE.INTRA.POLAR>
0.432883

>  <SCORE.INTRA.POLAR.0>
-1.57101

>  <SCORE.INTRA.REPUL>
-0.730195

>  <SCORE.INTRA.REPUL.0>
0.730195

>  <SCORE.INTRA.SOLV>
-6.88252

>  <SCORE.INTRA.SOLV.lig_0>
-127.221

>  <SCORE.INTRA.VDW>
-13.4963

>  <SCORE.INTRA.VDW.0>
10.8385

>  <SCORE.INTRA.norm>
-0.571958

>  <SCORE.RESTR>
0

>  <SCORE.RESTR.CAVITY>
0

>  <SCORE.RESTR.norm>
0

>  <SCORE.SYSTEM>
0

>  <SCORE.SYSTEM.CONST>
0

>  <SCORE.SYSTEM.DIHEDRAL>
0

>  <SCORE.SYSTEM.SOLV>
0

>  <SCORE.SYSTEM.norm>
0

>  <SCORE.heavy>
32

>  <SCORE.norm>
-1.41681

>  <RMSD>
4.534

$$$$
2tob cryst
 OpenBabel11021811463D
libRbt.so/2013.1/901 2013/11/27
 32 34  0  0  0  0  0  0  0  0999 V2000
   -6.8293   -0.0284   -7.9377 C   0  0  2  0  0  0  0  0  0  0  0  0
   -6.9057    1.4821   -8.1366 C   0  0  1  0  0  0  0  0  0  0  0  0
   -6.7523    1.7945   -9.6254 C   0  0  2  0  0  0  0  0  0  0  0  0
   -5.4618    1.1793  -10.1827 C   0  0  1  0  0  0  0  0  0  0  0  0
   -5.3982   -0.3114   -9.8322 C   0  0  1  0  0  0  0  0  0  0  0  0
   -4.0914   -0.9888  -10.2109 C   0  0  0  0  0  0  0  0  0  0  0  0
   -8.1581    1.9730   -7.6661 O   0  0  0  0  0  0  0  0  0  0  0  0
   -6.7814    3.2338  -10.0368 N   0  3  0  0  0  0  0  0  0  0  0  0
   -5.4426    1.3457  -11.5949 O   0  0  0  0  0  0  0  0  0  0  0  0
   -5.5790   -0.4901   -8.4132 O   0  0  0  0  0  0  0  0  0  0  0  0
   -4.1323   -2.3781   -9.9012 O   0  0  0  0  0  0  0  0  0  0  0  0
   -7.4838   -2.3562   -7.0054 C   0  0  2  0  0  0  0  0  0  0  0  0
   -7.9879   -3.6418   -6.3360 C   0  0  0  0  0  0  0  0  0  0  0  0
   -9.5022   -3.6376   -6.1455 C   0  0  1  0  0  0  0  0  0  0  0  0
  -10.1576   -3.4375   -7.5051 C   0  0  2  0  0  0  0  0  0  0  0  0
   -9.7731   -2.0633   -8.0591 C   0  0  1  0  0  0  0  0  0  0  0  0
   -8.2528   -1.9770   -8.2809 C   0  0  1  0  0  0  0  0  0  0  0  0
   -6.0225   -2.4687   -7.3328 N   0  3  0  0  0  0  0  0  0  0  0  0
   -9.9664   -4.9065   -5.4954 N   0  3  0  0  0  0  0  0  0  0  0  0
  -10.4630   -1.8386   -9.2821 O   0  0  0  0  0  0  0  0  0  0  0  0
  -11.5890   -3.5406   -7.3948 O   0  0  0  0  0  0  0  0  0  0  0  0
   -7.8875   -0.6271   -8.6359 O   0  0  0  0  0  0  0  0  0  0  0  0
  -12.1584   -2.5495   -6.5849 C   0  0  2  0  0  0  0  0  0  0  0  0
  -13.6434   -2.8510   -6.3575 C   0  0  1  0  0  0  0  0  0  0  0  0
  -14.4636   -2.5463   -7.6113 C   0  0  0  0  0  0  0  0  0  0  0  0
  -14.1734   -1.1223   -8.0572 C   0  0  1  0  0  0  0  0  0  0  0  0
  -12.6852   -0.9756   -8.3228 C   0  0  1  0  0  0  0  0  0  0  0  0
  -12.3321    0.4286   -8.7786 C   0  0  0  0  0  0  0  0  0  0  0  0
  -13.8096   -4.2953   -5.9970 N   0  3  0  0  0  0  0  0  0  0  0  0
  -10.8675    0.4521   -9.1211 N   0  3  0  0  0  0  0  0  0  0  0  0
  -14.9090   -0.8131   -9.2325 O   0  0  0  0  0  0  0  0  0  0  0  0
  -11.9579   -1.2422   -7.1117 O   0  0  0  0  0  0  0  0  0  0  0  0
  1  2  1  0  0  0  0
  1 22  1  6  0  0  0
  1 10  1  0  0  0  0
  2  3  1  0  0  0  0
  2  7  1  6  0  0  0
  3  4  1  0  0  0  0
  3  8  1  1  0  0  0
  4  5  1  0  0  0  0
  4  9  1  6  0  0  0
  5  6  1  1  0  0  0
  5 10  1  0  0  0  0
  6 11  1  0  0  0  0
 12 13  1  0  0  0  0
 12 17  1  0  0  0  0
 12 18  1  6  0  0  0
 13 14  1  0  0  0  0
 14 15  1  0  0  0  0
 14 19  1  6  0  0  0
 15 16  1  0  0  0  0
 15 21  1  1  0  0  0
 16 17  1  0  0  0  0
 16 20  1  6  0  0  0
 17 22  1  1  0  0  0
 23 21  1  6  0  0  0
 23 24  1  0  0  0  0
 23 32  1  0  0  0  0
 24 25  1  0  0  0  0
 24 29  1  6  0  0  0
 25 26  1  0  0  0  0
 26 27  1  0  0  0  0
 26 31  1  6  0  0  0
 27 28  1  1  0  0  0
 27 32  1  0  0  0  0
 28 30  1  0  0  0  0
M  CHG  5   8   1  18   1  19   1  29   1  30   1
M  END
>  <CHROM.1>
-161.95338132,-53.79914540,66.50622791,-176.98742305,-177.71345326,-167.76542433
20.53669136,-64.19570213,63.18359235,-64.55095698,9.14873915,-171.79618303
-163.94188802,-179.13032547,-175.58514001,54.80935537,-9.22081759,-1.21787552
-8.22118631,-0.45376374,-0.08491623,2.63238508

>  <Name>
2tob cryst

>  <RI>
0

>  <Rbt.Current_Directory>
/home/itssahil/PROJECTS/Mol_Feturizer/New_Systems/rnas/2tob

>  <Rbt.Executable>
rbdock ($Id: //depot/dev/client3/rdock/2013.1/src/exe/rbdock.cxx#4 $)

>  <Rbt.Library>
libRbt.so (2013.1, Build901 2013/11/27)

>  <Rbt.Parameter_File>
/export/apps/rDock/src/rDock_2013.1_src/data/scripts/dock_solv.prm

>  <Rbt.Receptor>
prm/blind_docking_100.prm

>  <SCORE>
-2.42262

>  <SCORE.INTER>
-4.52853

>  <SCORE.INTER.CONST>
1

>  <SCORE.INTER.POLAR>
-3.61838

>  <SCORE.INTER.ROT>
6

>  <SCORE.INTER.SOLV>
41.8124

>  <SCORE.INTER.VDW>
-12.4952

>  <SCORE.INTER.norm>
-0.141517

>  <SCORE.INTRA>
-1.56497

>  <SCORE.INTRA.DIHEDRAL>
-5.01465

>  <SCORE.INTRA.DIHEDRAL.0>
18.4221

>  <SCORE.INTRA.POLAR>
0.450702

>  <SCORE.INTRA.POLAR.0>
-1.57101

>  <SCORE.INTRA.REPUL>
-0.730195

>  <SCORE.INTRA.REPUL.0>
0.730195

>  <SCORE.INTRA.SOLV>
5.54755

>  <SCORE.INTRA.SOLV.lig_0>
-127.221

>  <SCORE.INTRA.VDW>
0.287165

>  <SCORE.INTRA.VDW.0>
10.8385

>  <SCORE.INTRA.norm>
-0.0489055

>  <SCORE.RESTR>
3.67089

>  <SCORE.RESTR.CAVITY>
3.67089

>  <SCORE.RESTR.norm>
0.114715

>  <SCORE.SYSTEM>
0

>  <SCORE.SYSTEM.CONST>
0

>  <SCORE.SYSTEM.DIHEDRAL>
0

>  <SCORE.SYSTEM.SOLV>
0

>  <SCORE.SYSTEM.norm>
0

>  <SCORE.heavy>
32

>  <SCORE.norm>
-0.0757068

>  <RMSD>
4.554

$$$$
2tob cryst
 OpenBabel11021811463D
libRbt.so/2013.1/901 2013/11/27
 32 34  0  0  0  0  0  0  0  0999 V2000
   -6.3146   -0.1729   -8.5692 C   0  0  2  0  0  0  0  0  0  0  0  0
   -7.2780    0.4398   -7.5575 C   0  0  1  0  0  0  0  0  0  0  0  0
   -8.1623    1.4625   -8.2714 C   0  0  2  0  0  0  0  0  0  0  0  0
   -7.3086    2.5096   -8.9990 C   0  0  1  0  0  0  0  0  0  0  0  0
   -6.2808    1.8143   -9.8985 C   0  0  1  0  0  0  0  0  0  0  0  0
   -5.2856    2.7558  -10.5566 C   0  0  0  0  0  0  0  0  0  0  0  0
   -8.0885   -0.5788   -6.9776 O   0  0  0  0  0  0  0  0  0  0  0  0
   -9.1738    2.1972   -7.4475 N   0  3  0  0  0  0  0  0  0  0  0  0
   -8.1595    3.3350   -9.7845 O   0  0  0  0  0  0  0  0  0  0  0  0
   -5.5237    0.8576   -9.1305 O   0  0  0  0  0  0  0  0  0  0  0  0
   -4.1893    3.0225   -9.6878 O   0  0  0  0  0  0  0  0  0  0  0  0
   -7.2104   -2.6080   -7.9337 C   0  0  2  0  0  0  0  0  0  0  0  0
   -8.1069   -3.6191   -7.2063 C   0  0  0  0  0  0  0  0  0  0  0  0
   -9.4891   -3.0490   -6.9002 C   0  0  1  0  0  0  0  0  0  0  0  0
  -10.1246   -2.5990   -8.2086 C   0  0  2  0  0  0  0  0  0  0  0  0
   -9.2964   -1.4625   -8.8132 C   0  0  1  0  0  0  0  0  0  0  0  0
   -7.8770   -1.9506   -9.1525 C   0  0  1  0  0  0  0  0  0  0  0  0
   -5.9283   -3.2567   -8.3704 N   0  3  0  0  0  0  0  0  0  0  0  0
  -10.3440   -4.0592   -6.1954 N   0  3  0  0  0  0  0  0  0  0  0  0
   -9.9438   -0.9787   -9.9832 O   0  0  0  0  0  0  0  0  0  0  0  0
  -11.4768   -2.1585   -7.9870 O   0  0  0  0  0  0  0  0  0  0  0  0
   -7.0602   -0.8321   -9.5568 O   0  0  0  0  0  0  0  0  0  0  0  0
  -12.2551   -2.1409   -9.1517 C   0  0  2  0  0  0  0  0  0  0  0  0
  -13.0242   -0.8189   -9.2454 C   0  0  1  0  0  0  0  0  0  0  0  0
  -14.1887   -0.7901   -8.2552 C   0  0  0  0  0  0  0  0  0  0  0  0
  -15.0438   -2.0298   -8.4623 C   0  0  1  0  0  0  0  0  0  0  0  0
  -14.1850   -3.2672   -8.2675 C   0  0  1  0  0  0  0  0  0  0  0  0
  -14.9866   -4.5422   -8.4563 C   0  0  0  0  0  0  0  0  0  0  0  0
  -12.0966    0.3197   -8.9509 N   0  3  0  0  0  0  0  0  0  0  0  0
  -14.0302   -5.7028   -8.4205 N   0  3  0  0  0  0  0  0  0  0  0  0
  -16.1274   -2.0415   -7.5438 O   0  0  0  0  0  0  0  0  0  0  0  0
  -13.1232   -3.2660   -9.2367 O   0  0  0  0  0  0  0  0  0  0  0  0
  1  2  1  0  0  0  0
  1 22  1  6  0  0  0
  1 10  1  0  0  0  0
  2  3  1  0  0  0  0
  2  7  1  6  0  0  0
  3  4  1  0  0  0  0
  3  8  1  1  0  0  0
  4  5  1  0  0  0  0
  4  9  1  6  0  0  0
  5  6  1  1  0  0  0
  5 10  1  0  0  0  0
  6 11  1  0  0  0  0
 12 13  1  0  0  0  0
 12 17  1  0  0  0  0
 12 18  1  6  0  0  0
 13 14  1  0  0  0  0
 14 15  1  0  0  0  0
 14 19  1  6  0  0  0
 15 16  1  0  0  0  0
 15 21  1  1  0  0  0
 16 17  1  0  0  0  0
 16 20  1  6  0  0  0
 17 22  1  1  0  0  0
 23 21  1  1  0  0  0
 23 24  1  0  0  0  0
 23 32  1  0  0  0  0
 24 25  1  0  0  0  0
 24 29  1  1  0  0  0
 25 26  1  0  0  0  0
 26 27  1  0  0  0  0
 26 31  1  1  0  0  0
 27 28  1  6  0  0  0
 27 32  1  0  0  0  0
 28 30  1  0  0  0  0
M  CHG  5   8   1  18   1  19   1  29   1  30   1
M  END
>  <CHROM.1>
-62.85821446,-179.52007434,85.66297925,49.64737157,85.04438192,65.48097704
39.60966442,-50.76220089,-160.62460869,-160.88992435,-29.38677067,-133.22320162
-83.73495024,176.59999924,172.88876714,-162.65342907,-9.74226659,-1.03023150
-8.52819981,-0.53847785,0.02717701,2.89701659

>  <Name>
2tob cryst

>  <RI>
0

>  <Rbt.Current_Directory>
/home/itssahil/PROJECTS/Mol_Feturizer/New_Systems/rnas/2tob

>  <Rbt.Executable>
rbdock ($Id: //depot/dev/client3/rdock/2013.1/src/exe/rbdock.cxx#4 $)

>  <Rbt.Library>
libRbt.so (2013.1, Build901 2013/11/27)

>  <Rbt.Parameter_File>
/export/apps/rDock/src/rDock_2013.1_src/data/scripts/dock_solv.prm

>  <Rbt.Receptor>
prm/blind_docking_60.prm

>  <SCORE>
-15.6372

>  <SCORE.INTER>
-22.6493

>  <SCORE.INTER.CONST>
1

>  <SCORE.INTER.POLAR>
-4.72329

>  <SCORE.INTER.ROT>
6

>  <SCORE.INTER.SOLV>
40.9554

>  <SCORE.INTER.VDW>
-20.607

>  <SCORE.INTER.norm>
-0.707791

>  <SCORE.INTRA>
-3.4509

>  <SCORE.INTRA.DIHEDRAL>
2.37157

>  <SCORE.INTRA.DIHEDRAL.0>
18.4221

>  <SCORE.INTRA.POLAR>
0.28562

>  <SCORE.INTRA.POLAR.0>
-1.57101

>  <SCORE.INTRA.REPUL>
-0.729759

>  <SCORE.INTRA.REPUL.0>
0.730195

>  <SCORE.INTRA.SOLV>
-1.59141

>  <SCORE.INTRA.SOLV.lig_0>
-127.221

>  <SCORE.INTRA.VDW>
-1.1633

>  <SCORE.INTRA.VDW.0>
10.8385

>  <SCORE.INTRA.norm>
-0.107841

>  <SCORE.RESTR>
10.463

>  <SCORE.RESTR.CAVITY>
10.463

>  <SCORE.RESTR.norm>
0.326969

>  <SCORE.SYSTEM>
0

>  <SCORE.SYSTEM.CONST>
0

>  <SCORE.SYSTEM.DIHEDRAL>
0

>  <SCORE.SYSTEM.SOLV>
0

>  <SCORE.SYSTEM.norm>
0

>  <SCORE.heavy>
32

>  <SCORE.norm>
-0.488663

>  <RMSD>
4.568

$$$$
2tob cryst
 OpenBabel11021811463D
libRbt.so/2013.1/901 2013/11/27
 32 34  0  0  0  0  0  0  0  0999 V2000
   -5.5134    0.1247   -9.1874 C   0  0  2  0  0  0  0  0  0  0  0  0
   -5.1344    1.4220   -9.8947 C   0  0  1  0  0  0  0  0  0  0  0  0
   -4.6072    1.0897  -11.2909 C   0  0  2  0  0  0  0  0  0  0  0  0
   -3.4485    0.0868  -11.2131 C   0  0  1  0  0  0  0  0  0  0  0  0
   -3.8644   -1.1306  -10.3800 C   0  0  1  0  0  0  0  0  0  0  0  0
   -2.7430   -2.1221  -10.1165 C   0  0  0  0  0  0  0  0  0  0  0  0
   -6.2737    2.2717   -9.9978 O   0  0  0  0  0  0  0  0  0  0  0  0
   -4.1606    2.2307  -12.1514 N   0  3  0  0  0  0  0  0  0  0  0  0
   -3.1027   -0.3232  -12.5301 O   0  0  0  0  0  0  0  0  0  0  0  0
   -4.3671   -0.7004   -9.0992 O   0  0  0  0  0  0  0  0  0  0  0  0
   -1.5914   -1.8025  -10.8908 O   0  0  0  0  0  0  0  0  0  0  0  0
   -6.7964   -1.6969   -7.8395 C   0  0  2  0  0  0  0  0  0  0  0  0
   -7.7572   -2.3771   -6.8549 C   0  0  0  0  0  0  0  0  0  0  0  0
   -9.0918   -1.6440   -6.7514 C   0  0  1  0  0  0  0  0  0  0  0  0
   -9.7047   -1.5616   -8.1427 C   0  0  2  0  0  0  0  0  0  0  0  0
   -8.8019   -0.7204   -9.0485 C   0  0  1  0  0  0  0  0  0  0  0  0
   -7.4246   -1.3881   -9.2077 C   0  0  1  0  0  0  0  0  0  0  0  0
   -5.5685   -2.5367   -8.0453 N   0  3  0  0  0  0  0  0  0  0  0  0
  -10.0112   -2.3332   -5.7882 N   0  3  0  0  0  0  0  0  0  0  0  0
   -9.4230   -0.5635  -10.3180 O   0  0  0  0  0  0  0  0  0  0  0  0
  -11.0194   -0.9792   -8.0808 O   0  0  0  0  0  0  0  0  0  0  0  0
   -6.5327   -0.5032   -9.9171 O   0  0  0  0  0  0  0  0  0  0  0  0
  -11.7502   -1.1256   -9.2670 C   0  0  2  0  0  0  0  0  0  0  0  0
  -13.0059   -0.2487   -9.2179 C   0  0  1  0  0  0  0  0  0  0  0  0
  -14.0591   -0.8500   -8.2869 C   0  0  0  0  0  0  0  0  0  0  0  0
  -14.3157   -2.2911   -8.6971 C   0  0  1  0  0  0  0  0  0  0  0  0
  -13.0128   -3.0688   -8.6307 C   0  0  1  0  0  0  0  0  0  0  0  0
  -13.2057   -4.5219   -9.0250 C   0  0  0  0  0  0  0  0  0  0  0  0
  -12.6396    1.1198   -8.7314 N   0  3  0  0  0  0  0  0  0  0  0  0
  -13.9150   -5.2200   -7.8969 N   0  3  0  0  0  0  0  0  0  0  0  0
  -15.2796   -2.8848   -7.8389 O   0  0  0  0  0  0  0  0  0  0  0  0
  -12.0650   -2.4866   -9.5415 O   0  0  0  0  0  0  0  0  0  0  0  0
  1  2  1  0  0  0  0
  1 22  1  6  0  0  0
  1 10  1  0  0  0  0
  2  3  1  0  0  0  0
  2  7  1  6  0  0  0
  3  4  1  0  0  0  0
  3  8  1  1  0  0  0
  4  5  1  0  0  0  0
  4  9  1  6  0  0  0
  5  6  1  1  0  0  0
  5 10  1  0  0  0  0
  6 11  1  0  0  0  0
 12 13  1  0  0  0  0
 12 17  1  0  0  0  0
 12 18  1  6  0  0  0
 13 14  1  0  0  0  0
 14 15  1  0  0  0  0
 14 19  1  1  0  0  0
 15 16  1  0  0  0  0
 15 21  1  1  0  0  0
 16 17  1  0  0  0  0
 16 20  1  6  0  0  0
 17 22  1  1  0  0  0
 23 21  1  1  0  0  0
 23 24  1  0  0  0  0
 23 32  1  0  0  0  0
 24 25  1  0  0  0  0
 24 29  1  1  0  0  0
 25 26  1  0  0  0  0
 26 27  1  0  0  0  0
 26 31  1  1  0  0  0
 27 28  1  6  0  0  0
 27 32  1  0  0  0  0
 28 30  1  0  0  0  0
M  CHG  5   8   1  18   1  19   1  29   1  30   1
M  END
>  <CHROM.1>
-154.12848109,65.07752610,-30.67229179,172.23682001,-9.39409217,-171.61739637
142.15835335,72.24459299,-167.42748347,158.18550720,-14.22253083,-168.73108228
-166.59402396,64.25286828,-73.67060802,-71.55161301,-8.43046927,-1.14666519
-9.19446967,0.31228303,0.10924670,-0.49510802

>  <Name>
2tob cryst

>  <RI>
0

>  <Rbt.Current_Directory>
/home/itssahil/PROJECTS/Mol_Feturizer/New_Systems/rnas/2tob

>  <Rbt.Executable>
rbdock ($Id: //depot/dev/client3/rdock/2013.1/src/exe/rbdock.cxx#4 $)

>  <Rbt.Library>
libRbt.so (2013.1, Build901 2013/11/27)

>  <Rbt.Parameter_File>
/export/apps/rDock/src/rDock_2013.1_src/data/scripts/dock_solv.prm

>  <Rbt.Receptor>
prm/blind_docking_60.prm

>  <SCORE>
-5.53902

>  <SCORE.INTER>
-3.72292

>  <SCORE.INTER.CONST>
1

>  <SCORE.INTER.POLAR>
-4.8309

>  <SCORE.INTER.ROT>
6

>  <SCORE.INTER.SOLV>
42.5279

>  <SCORE.INTER.VDW>
-8.15491

>  <SCORE.INTER.norm>
-0.116341

>  <SCORE.INTRA>
-10.1808

>  <SCORE.INTRA.DIHEDRAL>
6.00006

>  <SCORE.INTRA.DIHEDRAL.0>
18.4221

>  <SCORE.INTRA.POLAR>
0.0761725

>  <SCORE.INTRA.POLAR.0>
-1.57101

>  <SCORE.INTRA.REPUL>
-0.730195

>  <SCORE.INTRA.REPUL.0>
0.730195

>  <SCORE.INTRA.SOLV>
-4.33152

>  <SCORE.INTRA.SOLV.lig_0>
-127.221

>  <SCORE.INTRA.VDW>
-7.62307

>  <SCORE.INTRA.VDW.0>
10.8385

>  <SCORE.INTRA.norm>
-0.31815

>  <SCORE.RESTR>
8.36469

>  <SCORE.RESTR.CAVITY>
8.36469

>  <SCORE.RESTR.norm>
0.261397

>  <SCORE.SYSTEM>
0

>  <SCORE.SYSTEM.CONST>
0

>  <SCORE.SYSTEM.DIHEDRAL>
0

>  <SCORE.SYSTEM.SOLV>
0

>  <SCORE.SYSTEM.norm>
0

>  <SCORE.heavy>
32

>  <SCORE.norm>
-0.173094

>  <RMSD>
4.586

$$$$
2tob cryst
 OpenBabel11021811463D
libRbt.so/2013.1/901 2013/11/27
 32 34  0  0  0  0  0  0  0  0999 V2000
   -5.2425   -0.1242   -9.2219 C   0  0  2  0  0  0  0  0  0  0  0  0
   -5.4767    1.3781   -9.0975 C   0  0  1  0  0  0  0  0  0  0  0  0
   -5.6029    1.9779  -10.4982 C   0  0  2  0  0  0  0  0  0  0  0  0
   -4.3782    1.6292  -11.3543 C   0  0  1  0  0  0  0  0  0  0  0  0
   -4.1326    0.1167  -11.3260 C   0  0  1  0  0  0  0  0  0  0  0  0
   -2.8566   -0.3240  -12.0244 C   0  0  0  0  0  0  0  0  0  0  0  0
   -6.6683    1.6259   -8.3562 O   0  0  0  0  0  0  0  0  0  0  0  0
   -5.8206    3.4557  -10.6009 N   0  3  0  0  0  0  0  0  0  0  0  0
   -4.6112    2.0569  -12.6904 O   0  0  0  0  0  0  0  0  0  0  0  0
   -4.0562   -0.3428   -9.9618 O   0  0  0  0  0  0  0  0  0  0  0  0
   -1.8575   -0.6832  -11.0753 O   0  0  0  0  0  0  0  0  0  0  0  0
   -6.6386   -1.6516   -7.6655 C   0  0  2  0  0  0  0  0  0  0  0  0
   -7.6132   -2.2011   -6.6151 C   0  0  0  0  0  0  0  0  0  0  0  0
   -8.9340   -1.4366   -6.5977 C   0  0  1  0  0  0  0  0  0  0  0  0
   -9.5434   -1.4970   -7.9917 C   0  0  2  0  0  0  0  0  0  0  0  0
   -8.6238   -0.7777   -8.9817 C   0  0  1  0  0  0  0  0  0  0  0  0
   -7.2590   -1.4841   -9.0615 C   0  0  1  0  0  0  0  0  0  0  0  0
   -5.4264   -2.5315   -7.7733 N   0  3  0  0  0  0  0  0  0  0  0  0
   -9.8675   -1.9982   -5.5675 N   0  3  0  0  0  0  0  0  0  0  0  0
   -9.2401   -0.7504  -10.2628 O   0  0  0  0  0  0  0  0  0  0  0  0
  -10.8471   -0.8871   -7.9988 O   0  0  0  0  0  0  0  0  0  0  0  0
   -6.3497   -0.6996   -9.8612 O   0  0  0  0  0  0  0  0  0  0  0  0
  -11.5418   -1.0711   -9.2014 C   0  0  2  0  0  0  0  0  0  0  0  0
  -12.8276   -0.2377   -9.1939 C   0  0  1  0  0  0  0  0  0  0  0  0
  -13.8831   -0.8654   -8.2831 C   0  0  0  0  0  0  0  0  0  0  0  0
  -14.0795   -2.3187   -8.6833 C   0  0  1  0  0  0  0  0  0  0  0  0
  -12.7528   -3.0501   -8.5752 C   0  0  1  0  0  0  0  0  0  0  0  0
  -12.8855   -4.5130   -8.9578 C   0  0  0  0  0  0  0  0  0  0  0  0
  -12.5212    1.1477   -8.7138 N   0  3  0  0  0  0  0  0  0  0  0  0
  -13.7431   -5.1887   -7.9229 N   0  3  0  0  0  0  0  0  0  0  0  0
  -15.0441   -2.9365   -7.8430 O   0  0  0  0  0  0  0  0  0  0  0  0
  -11.8025   -2.4450   -9.4683 O   0  0  0  0  0  0  0  0  0  0  0  0
  1  2  1  0  0  0  0
  1 22  1  6  0  0  0
  1 10  1  0  0  0  0
  2  3  1  0  0  0  0
  2  7  1  1  0  0  0
  3  4  1  0  0  0  0
  3  8  1  1  0  0  0
  4  5  1  0  0  0  0
  4  9  1  6  0  0  0
  5  6  1  6  0  0  0
  5 10  1  0  0  0  0
  6 11  1  0  0  0  0
 12 13  1  0  0  0  0
 12 17  1  0  0  0  0
 12 18  1  6  0  0  0
 13 14  1  0  0  0  0
 14 15  1  0  0  0  0
 14 19  1  1  0  0  0
 15 16  1  0  0  0  0
 15 21  1  1  0  0  0
 16 17  1  0  0  0  0
 16 20  1  6  0  0  0
 17 22  1  6  0  0  0
 23 21  1  1  0  0  0
 23 24  1  0  0  0  0
 23 32  1  0  0  0  0
 24 25  1  0  0  0  0
 24 29  1  1  0  0  0
 25 26  1  0  0  0  0
 26 27  1  0  0  0  0
 26 31  1  1  0  0  0
 27 28  1  6  0  0  0
 27 32  1  0  0  0  0
 28 30  1  0  0  0  0
M  CHG  5   8   1  18   1  19   1  29   1  30   1
M  END
>  <CHROM.1>
-106.91911513,-177.86488323,-95.71533940,-138.80992839,105.45595851,69.67265984
27.66379043,64.87002340,-171.65333541,-54.66447970,-7.92258175,-172.39680114
-41.24331521,65.82264017,-66.86592742,171.11490837,-8.50622989,-0.82837288
-9.10666924,-0.41866489,-0.06074263,2.61398808

>  <Name>
2tob cryst

>  <RI>
0

>  <Rbt.Current_Directory>
/home/itssahil/PROJECTS/Mol_Feturizer/New_Systems/rnas/2tob

>  <Rbt.Executable>
rbdock ($Id: //depot/dev/client3/rdock/2013.1/src/exe/rbdock.cxx#4 $)

>  <Rbt.Library>
libRbt.so (2013.1, Build901 2013/11/27)

>  <Rbt.Parameter_File>
/export/apps/rDock/src/rDock_2013.1_src/data/scripts/dock_solv.prm

>  <Rbt.Receptor>
prm/blind_docking_60.prm

>  <SCORE>
-0.740681

>  <SCORE.INTER>
-2.03371

>  <SCORE.INTER.CONST>
1

>  <SCORE.INTER.POLAR>
-5.60676

>  <SCORE.INTER.ROT>
6

>  <SCORE.INTER.SOLV>
48.3791

>  <SCORE.INTER.VDW>
-6.39298

>  <SCORE.INTER.norm>
-0.0635533

>  <SCORE.INTRA>
-5.62031

>  <SCORE.INTRA.DIHEDRAL>
12.0438

>  <SCORE.INTRA.DIHEDRAL.0>
18.4221

>  <SCORE.INTRA.POLAR>
0.474504

>  <SCORE.INTRA.POLAR.0>
-1.57101

>  <SCORE.INTRA.REPUL>
-0.730195

>  <SCORE.INTRA.REPUL.0>
0.730195

>  <SCORE.INTRA.SOLV>
-6.47723

>  <SCORE.INTRA.SOLV.lig_0>
-127.221

>  <SCORE.INTRA.VDW>
-6.36592

>  <SCORE.INTRA.VDW.0>
10.8385

>  <SCORE.INTRA.norm>
-0.175635

>  <SCORE.RESTR>
6.91333

>  <SCORE.RESTR.CAVITY>
6.91333

>  <SCORE.RESTR.norm>
0.216042

>  <SCORE.SYSTEM>
0

>  <SCORE.SYSTEM.CONST>
0

>  <SCORE.SYSTEM.DIHEDRAL>
0

>  <SCORE.SYSTEM.SOLV>
0

>  <SCORE.SYSTEM.norm>
0

>  <SCORE.heavy>
32

>  <SCORE.norm>
-0.0231463

>  <RMSD>
4.594

$$$$
2tob cryst
 OpenBabel11021811463D
libRbt.so/2013.1/901 2013/11/27
 32 34  0  0  0  0  0  0  0  0999 V2000
   -6.6106    0.1410  -10.2119 C   0  0  2  0  0  0  0  0  0  0  0  0
   -5.7474   -1.1113  -10.3295 C   0  0  1  0  0  0  0  0  0  0  0  0
   -4.2921   -0.7387  -10.0452 C   0  0  2  0  0  0  0  0  0  0  0  0
   -3.8295    0.3989  -10.9652 C   0  0  1  0  0  0  0  0  0  0  0  0
   -4.8160    1.5692  -10.8878 C   0  0  1  0  0  0  0  0  0  0  0  0
   -4.5322    2.6939  -11.8700 C   0  0  0  0  0  0  0  0  0  0  0  0
   -6.1859   -2.0949   -9.3963 O   0  0  0  0  0  0  0  0  0  0  0  0
   -3.2701   -1.8300  -10.1266 N   0  3  0  0  0  0  0  0  0  0  0  0
   -2.5368    0.8276  -10.5560 O   0  0  0  0  0  0  0  0  0  0  0  0
   -6.1547    1.1008  -11.1464 O   0  0  0  0  0  0  0  0  0  0  0  0
   -4.3762    3.9345  -11.1886 O   0  0  0  0  0  0  0  0  0  0  0  0
   -8.8726    1.1222   -8.7568 C   0  0  2  0  0  0  0  0  0  0  0  0
  -10.2244    0.7869   -8.1123 C   0  0  0  0  0  0  0  0  0  0  0  0
  -10.3925   -0.7106   -7.8701 C   0  0  1  0  0  0  0  0  0  0  0  0
   -9.2392   -1.1896   -6.9992 C   0  0  2  0  0  0  0  0  0  0  0  0
   -7.9199   -1.0043   -7.7530 C   0  0  1  0  0  0  0  0  0  0  0  0
   -7.6692    0.4859   -8.0435 C   0  0  1  0  0  0  0  0  0  0  0  0
   -8.6714    2.6091   -8.8199 N   0  3  0  0  0  0  0  0  0  0  0  0
  -11.7180   -1.0076   -7.2352 N   0  3  0  0  0  0  0  0  0  0  0  0
   -6.8552   -1.5412   -6.9783 O   0  0  0  0  0  0  0  0  0  0  0  0
   -9.4145   -2.5742   -6.6473 O   0  0  0  0  0  0  0  0  0  0  0  0
   -6.5174    0.6288   -8.9007 O   0  0  0  0  0  0  0  0  0  0  0  0
   -8.4037   -3.0695   -5.8133 C   0  0  2  0  0  0  0  0  0  0  0  0
   -8.7431   -4.4977   -5.3737 C   0  0  1  0  0  0  0  0  0  0  0  0
   -9.8542   -4.4992   -4.3235 C   0  0  0  0  0  0  0  0  0  0  0  0
   -9.4608   -3.5694   -3.1870 C   0  0  1  0  0  0  0  0  0  0  0  0
   -9.2276   -2.1746   -3.7408 C   0  0  1  0  0  0  0  0  0  0  0  0
   -8.8359   -1.1954   -2.6490 C   0  0  0  0  0  0  0  0  0  0  0  0
   -9.1858   -5.2936   -6.5629 N   0  3  0  0  0  0  0  0  0  0  0  0
   -9.2166    0.1866   -3.1050 N   0  3  0  0  0  0  0  0  0  0  0  0
  -10.4823   -3.5354   -2.2004 O   0  0  0  0  0  0  0  0  0  0  0  0
   -8.1576   -2.2170   -4.7001 O   0  0  0  0  0  0  0  0  0  0  0  0
  1  2  1  0  0  0  0
  1 22  1  1  0  0  0
  1 10  1  0  0  0  0
  2  3  1  0  0  0  0
  2  7  1  1  0  0  0
  3  4  1  0  0  0  0
  3  8  1  6  0  0  0
  4  5  1  0  0  0  0
  4  9  1  1  0  0  0
  5  6  1  6  0  0  0
  5 10  1  0  0  0  0
  6 11  1  0  0  0  0
 12 13  1  0  0  0  0
 12 17  1  0  0  0  0
 12 18  1  1  0  0  0
 13 14  1  0  0  0  0
 14 15  1  0  0  0  0
 14 19  1  1  0  0  0
 15 16  1  0  0  0  0
 15 21  1  6  0  0  0
 16 17  1  0  0  0  0
 16 20  1  1  0  0  0
 17 22  1  6  0  0  0
 23 21  1  1  0  0  0
 23 24  1  0  0  0  0
 23 32  1  0  0  0  0
 24 25  1  0  0  0  0
 24 29  1  6  0  0  0
 25 26  1  0  0  0  0
 26 27  1  0  0  0  0
 26 31  1  1  0  0  0
 27 28  1  1  0  0  0
 27 32  1  0  0  0  0
 28 30  1  0  0  0  0
M  CHG  5   8   1  18   1  19   1  29   1  30   1
M  END
>  <CHROM.1>
-108.55519194,46.16210073,-82.07899630,-96.25582775,-123.68237206,-59.06833414
62.78730292,-173.13210365,-178.33412159,170.91911508,-54.64681781,174.19759904
176.09795959,-59.37833220,-155.04179619,-175.44850522,-7.53225189,-0.84016099
-7.63736255,0.83817775,0.61678125,-0.52904733

>  <Name>
2tob cryst

>  <RI>
0

>  <Rbt.Current_Directory>
/home/itssahil/PROJECTS/Mol_Feturizer/New_Systems/rnas/2tob

>  <Rbt.Executable>
rbdock ($Id: //depot/dev/client3/rdock/2013.1/src/exe/rbdock.cxx#4 $)

>  <Rbt.Library>
libRbt.so (2013.1, Build901 2013/11/27)

>  <Rbt.Parameter_File>
/export/apps/rDock/src/rDock_2013.1_src/data/scripts/dock_solv.prm

>  <Rbt.Receptor>
prm/blind_docking_40.prm

>  <SCORE>
42.2588

>  <SCORE.INTER>
44.4289

>  <SCORE.INTER.CONST>
1

>  <SCORE.INTER.POLAR>
-6.30528

>  <SCORE.INTER.ROT>
6

>  <SCORE.INTER.SOLV>
44.2398

>  <SCORE.INTER.VDW>
28.2903

>  <SCORE.INTER.norm>
1.3884

>  <SCORE.INTRA>
-10.9577

>  <SCORE.INTRA.DIHEDRAL>
3.19476

>  <SCORE.INTRA.DIHEDRAL.0>
18.4221

>  <SCORE.INTRA.POLAR>
1.09388

>  <SCORE.INTRA.POLAR.0>
-1.57101

>  <SCORE.INTRA.REPUL>
-0.730195

>  <SCORE.INTRA.REPUL.0>
0.730195

>  <SCORE.INTRA.SOLV>
-10.1658

>  <SCORE.INTRA.SOLV.lig_0>
-127.221

>  <SCORE.INTRA.VDW>
-7.54042

>  <SCORE.INTRA.VDW.0>
10.8385

>  <SCORE.INTRA.norm>
-0.342428

>  <SCORE.RESTR>
8.78753

>  <SCORE.RESTR.CAVITY>
8.78753

>  <SCORE.RESTR.norm>
0.27461

>  <SCORE.SYSTEM>
0

>  <SCORE.SYSTEM.CONST>
0

>  <SCORE.SYSTEM.DIHEDRAL>
0

>  <SCORE.SYSTEM.SOLV>
0

>  <SCORE.SYSTEM.norm>
0

>  <SCORE.heavy>
32

>  <SCORE.norm>
1.32059

>  <RMSD>
4.598

$$$$
2tob cryst
 OpenBabel11021811463D
libRbt.so/2013.1/901 2013/11/27
 32 34  0  0  0  0  0  0  0  0999 V2000
   -5.4462   -0.0018   -9.0016 C   0  0  2  0  0  0  0  0  0  0  0  0
   -5.6768    1.5061   -8.9952 C   0  0  1  0  0  0  0  0  0  0  0  0
   -5.6286    2.0211  -10.4340 C   0  0  2  0  0  0  0  0  0  0  0  0
   -4.3145    1.6167  -11.1154 C   0  0  1  0  0  0  0  0  0  0  0  0
   -4.0909    0.1077  -10.9684 C   0  0  1  0  0  0  0  0  0  0  0  0
   -2.7458   -0.3793  -11.4818 C   0  0  0  0  0  0  0  0  0  0  0  0
   -6.9454    1.8027   -8.4178 O   0  0  0  0  0  0  0  0  0  0  0  0
   -5.8160    3.4909  -10.6494 N   0  3  0  0  0  0  0  0  0  0  0  0
   -4.3820    1.9642  -12.4927 O   0  0  0  0  0  0  0  0  0  0  0  0
   -4.1827   -0.2693   -9.5800 O   0  0  0  0  0  0  0  0  0  0  0  0
   -1.7791    0.6655  -11.4406 O   0  0  0  0  0  0  0  0  0  0  0  0
   -6.7769   -1.7734   -7.6437 C   0  0  2  0  0  0  0  0  0  0  0  0
   -7.7550   -2.4408   -6.6675 C   0  0  0  0  0  0  0  0  0  0  0  0
   -9.0926   -1.7089   -6.6003 C   0  0  1  0  0  0  0  0  0  0  0  0
   -9.6791   -1.6484   -8.0040 C   0  0  2  0  0  0  0  0  0  0  0  0
   -8.7606   -0.8190   -8.9049 C   0  0  1  0  0  0  0  0  0  0  0  0
   -7.3795   -1.4862   -9.0280 C   0  0  1  0  0  0  0  0  0  0  0  0
   -5.5439   -2.6138   -7.8137 N   0  3  0  0  0  0  0  0  0  0  0  0
  -10.0290   -2.3855   -5.6445 N   0  3  0  0  0  0  0  0  0  0  0  0
   -9.3578   -0.6822  -10.1882 O   0  0  0  0  0  0  0  0  0  0  0  0
  -10.9957   -1.0677   -7.9757 O   0  0  0  0  0  0  0  0  0  0  0  0
   -6.4757   -0.6102   -9.7335 O   0  0  0  0  0  0  0  0  0  0  0  0
  -11.6863   -1.1930   -9.1882 C   0  0  2  0  0  0  0  0  0  0  0  0
  -12.8894   -0.2442   -9.2038 C   0  0  1  0  0  0  0  0  0  0  0  0
  -14.0121   -0.7668   -8.3071 C   0  0  0  0  0  0  0  0  0  0  0  0
  -14.3361   -2.1978   -8.7046 C   0  0  1  0  0  0  0  0  0  0  0  0
  -13.0846   -3.0482   -8.5731 C   0  0  1  0  0  0  0  0  0  0  0  0
  -13.3463   -4.4945   -8.9521 C   0  0  0  0  0  0  0  0  0  0  0  0
  -12.4634    1.1094   -8.7245 N   0  3  0  0  0  0  0  0  0  0  0  0
  -12.0295   -5.2218   -8.9497 N   0  3  0  0  0  0  0  0  0  0  0  0
  -15.3663   -2.7192   -7.8771 O   0  0  0  0  0  0  0  0  0  0  0  0
  -12.0690   -2.5383   -9.4537 O   0  0  0  0  0  0  0  0  0  0  0  0
  1  2  1  0  0  0  0
  1 22  1  6  0  0  0
  1 10  1  0  0  0  0
  2  3  1  0  0  0  0
  2  7  1  6  0  0  0
  3  4  1  0  0  0  0
  3  8  1  1  0  0  0
  4  5  1  0  0  0  0
  4  9  1  6  0  0  0
  5  6  1  1  0  0  0
  5 10  1  0  0  0  0
  6 11  1  0  0  0  0
 12 13  1  0  0  0  0
 12 17  1  0  0  0  0
 12 18  1  6  0  0  0
 13 14  1  0  0  0  0
 14 15  1  0  0  0  0
 14 19  1  1  0  0  0
 15 16  1  0  0  0  0
 15 21  1  1  0  0  0
 16 17  1  0  0  0  0
 16 20  1  6  0  0  0
 17 22  1  6  0  0  0
 23 21  1  1  0  0  0
 23 24  1  0  0  0  0
 23 32  1  0  0  0  0
 24 25  1  0  0  0  0
 24 29  1  1  0  0  0
 25 26  1  0  0  0  0
 26 27  1  0  0  0  0
 26 31  1  1  0  0  0
 27 28  1  6  0  0  0
 27 32  1  0  0  0  0
 28 30  1  0  0  0  0
M  CHG  5   8   1  18   1  19   1  29   1  30   1
M  END
>  <CHROM.1>
-114.97871505,-179.99016560,-84.31756559,-86.06726786,25.67380874,53.73899096
20.46747165,-48.50276764,-169.48618319,-58.24790092,-12.29523561,-164.79084592
79.39778354,-62.11369784,173.43905024,74.57662614,-8.55281057,-0.80131399
-9.09310482,-0.42034030,-0.05409013,2.66589732

>  <Name>
2tob cryst

>  <RI>
0

>  <Rbt.Current_Directory>
/home/itssahil/PROJECTS/Mol_Feturizer/New_Systems/rnas/2tob

>  <Rbt.Executable>
rbdock ($Id: //depot/dev/client3/rdock/2013.1/src/exe/rbdock.cxx#4 $)

>  <Rbt.Library>
libRbt.so (2013.1, Build901 2013/11/27)

>  <Rbt.Parameter_File>
/export/apps/rDock/src/rDock_2013.1_src/data/scripts/dock_solv.prm

>  <Rbt.Receptor>
prm/blind_docking_60.prm

>  <SCORE>
-14.9248

>  <SCORE.INTER>
-14.5833

>  <SCORE.INTER.CONST>
1

>  <SCORE.INTER.POLAR>
-7.47898

>  <SCORE.INTER.ROT>
6

>  <SCORE.INTER.SOLV>
48.0808

>  <SCORE.INTER.VDW>
-8.41917

>  <SCORE.INTER.norm>
-0.455727

>  <SCORE.INTRA>
-7.24697

>  <SCORE.INTRA.DIHEDRAL>
8.8784

>  <SCORE.INTRA.DIHEDRAL.0>
18.4221

>  <SCORE.INTRA.POLAR>
1.17295

>  <SCORE.INTRA.POLAR.0>
-1.57101

>  <SCORE.INTRA.REPUL>
-0.730195

>  <SCORE.INTRA.REPUL.0>
0.730195

>  <SCORE.INTRA.SOLV>
-7.70892

>  <SCORE.INTRA.SOLV.lig_0>
-127.221

>  <SCORE.INTRA.VDW>
-8.16877

>  <SCORE.INTRA.VDW.0>
10.8385

>  <SCORE.INTRA.norm>
-0.226468

>  <SCORE.RESTR>
6.90539

>  <SCORE.RESTR.CAVITY>
6.90539

>  <SCORE.RESTR.norm>
0.215793

>  <SCORE.SYSTEM>
0

>  <SCORE.SYSTEM.CONST>
0

>  <SCORE.SYSTEM.DIHEDRAL>
0

>  <SCORE.SYSTEM.SOLV>
0

>  <SCORE.SYSTEM.norm>
0

>  <SCORE.heavy>
32

>  <SCORE.norm>
-0.466401

>  <RMSD>
4.607

$$$$
2tob cryst
 OpenBabel11021811463D
libRbt.so/2013.1/901 2013/11/27
 32 34  0  0  0  0  0  0  0  0999 V2000
   -5.3978   -0.0088   -9.0975 C   0  0  2  0  0  0  0  0  0  0  0  0
   -5.5857    1.5048   -9.0680 C   0  0  1  0  0  0  0  0  0  0  0  0
   -5.5163    2.0410  -10.4981 C   0  0  2  0  0  0  0  0  0  0  0  0
   -4.2110    1.6104  -11.1804 C   0  0  1  0  0  0  0  0  0  0  0  0
   -4.0309    0.0935  -11.0567 C   0  0  1  0  0  0  0  0  0  0  0  0
   -2.6977   -0.4233  -11.5722 C   0  0  0  0  0  0  0  0  0  0  0  0
   -6.8480    1.8281   -8.4912 O   0  0  0  0  0  0  0  0  0  0  0  0
   -5.6610    3.5187  -10.6907 N   0  3  0  0  0  0  0  0  0  0  0  0
   -4.2622    1.9815  -12.5522 O   0  0  0  0  0  0  0  0  0  0  0  0
   -4.1397   -0.3027   -9.6748 O   0  0  0  0  0  0  0  0  0  0  0  0
   -1.6288    0.4120  -11.1393 O   0  0  0  0  0  0  0  0  0  0  0  0
   -6.7857   -1.7640   -7.7744 C   0  0  2  0  0  0  0  0  0  0  0  0
   -7.7880   -2.4150   -6.8116 C   0  0  0  0  0  0  0  0  0  0  0  0
   -9.1006   -1.6400   -6.7344 C   0  0  1  0  0  0  0  0  0  0  0  0
   -9.6812   -1.5360   -8.1380 C   0  0  2  0  0  0  0  0  0  0  0  0
   -8.7334   -0.7224   -9.0228 C   0  0  1  0  0  0  0  0  0  0  0  0
   -7.3750   -1.4332   -9.1547 C   0  0  1  0  0  0  0  0  0  0  0  0
   -5.5811   -2.6421   -7.9564 N   0  3  0  0  0  0  0  0  0  0  0  0
  -10.0614   -2.3012   -5.7922 N   0  3  0  0  0  0  0  0  0  0  0  0
   -9.3225   -0.5438  -10.3047 O   0  0  0  0  0  0  0  0  0  0  0  0
  -10.9778   -0.9122   -8.1023 O   0  0  0  0  0  0  0  0  0  0  0  0
   -6.4407   -0.5760   -9.8433 O   0  0  0  0  0  0  0  0  0  0  0  0
  -11.7299   -1.1229   -9.2653 C   0  0  2  0  0  0  0  0  0  0  0  0
  -13.0292   -0.3132   -9.2003 C   0  0  1  0  0  0  0  0  0  0  0  0
  -14.0244   -0.9494   -8.2296 C   0  0  0  0  0  0  0  0  0  0  0  0
  -14.2135   -2.4107   -8.6036 C   0  0  1  0  0  0  0  0  0  0  0  0
  -12.8694   -3.1163   -8.5563 C   0  0  1  0  0  0  0  0  0  0  0  0
  -12.9940   -4.5858   -8.9159 C   0  0  0  0  0  0  0  0  0  0  0  0
  -12.7247    1.0831   -8.7516 N   0  3  0  0  0  0  0  0  0  0  0  0
  -12.9723   -4.7013  -10.4156 N   0  3  0  0  0  0  0  0  0  0  0  0
  -15.1218   -3.0362   -7.7081 O   0  0  0  0  0  0  0  0  0  0  0  0
  -11.9780   -2.5043   -9.5037 O   0  0  0  0  0  0  0  0  0  0  0  0
  1  2  1  0  0  0  0
  1 22  1  6  0  0  0
  1 10  1  0  0  0  0
  2  3  1  0  0  0  0
  2  7  1  6  0  0  0
  3  4  1  0  0  0  0
  3  8  1  1  0  0  0
  4  5  1  0  0  0  0
  4  9  1  6  0  0  0
  5  6  1  1  0  0  0
  5 10  1  0  0  0  0
  6 11  1  0  0  0  0
 12 13  1  0  0  0  0
 12 17  1  0  0  0  0
 12 18  1  6  0  0  0
 13 14  1  0  0  0  0
 14 15  1  0  0  0  0
 14 19  1  1  0  0  0
 15 16  1  0  0  0  0
 15 21  1  1  0  0  0
 16 17  1  0  0  0  0
 16 20  1  6  0  0  0
 17 22  1  1  0  0  0
 23 21  1  1  0  0  0
 23 24  1  0  0  0  0
 23 32  1  0  0  0  0
 24 25  1  0  0  0  0
 24 29  1  1  0  0  0
 25 26  1  0  0  0  0
 26 27  1  0  0  0  0
 26 31  1  1  0  0  0
 27 28  1  6  0  0  0
 27 32  1  0  0  0  0
 28 30  1  0  0  0  0
M  CHG  5   8   1  18   1  19   1  29   1  30   1
M  END
>  <CHROM.1>
-114.76043488,179.35800498,148.16466049,-79.59861937,43.80062752,-175.99117836
135.66041649,56.71121462,-162.69609879,-173.58733016,-12.65642470,-174.36413136
71.75050973,65.58560459,83.70150016,164.12201463,-8.53823682,-0.79203942
-9.20205904,-0.40429898,-0.05225972,2.69105430

>  <Name>
2tob cryst

>  <RI>
0

>  <Rbt.Current_Directory>
/home/itssahil/PROJECTS/Mol_Feturizer/New_Systems/rnas/2tob

>  <Rbt.Executable>
rbdock ($Id: //depot/dev/client3/rdock/2013.1/src/exe/rbdock.cxx#4 $)

>  <Rbt.Library>
libRbt.so (2013.1, Build901 2013/11/27)

>  <Rbt.Parameter_File>
/export/apps/rDock/src/rDock_2013.1_src/data/scripts/dock_solv.prm

>  <Rbt.Receptor>
prm/blind_docking_60.prm

>  <SCORE>
-21.0346

>  <SCORE.INTER>
-19.0263

>  <SCORE.INTER.CONST>
1

>  <SCORE.INTER.POLAR>
-6.90693

>  <SCORE.INTER.ROT>
6

>  <SCORE.INTER.SOLV>
52.7998

>  <SCORE.INTER.VDW>
-14.861

>  <SCORE.INTER.norm>
-0.594571

>  <SCORE.INTRA>
-8.90287

>  <SCORE.INTRA.DIHEDRAL>
7.46428

>  <SCORE.INTRA.DIHEDRAL.0>
18.4221

>  <SCORE.INTRA.POLAR>
1.22274

>  <SCORE.INTRA.POLAR.0>
-1.57101

>  <SCORE.INTRA.REPUL>
-0.730195

>  <SCORE.INTRA.REPUL.0>
0.730195

>  <SCORE.INTRA.SOLV>
-6.79587

>  <SCORE.INTRA.SOLV.lig_0>
-127.221

>  <SCORE.INTRA.VDW>
-9.74341

>  <SCORE.INTRA.VDW.0>
10.8385

>  <SCORE.INTRA.norm>
-0.278215

>  <SCORE.RESTR>
6.89454

>  <SCORE.RESTR.CAVITY>
6.89454

>  <SCORE.RESTR.norm>
0.215454

>  <SCORE.SYSTEM>
0

>  <SCORE.SYSTEM.CONST>
0

>  <SCORE.SYSTEM.DIHEDRAL>
0

>  <SCORE.SYSTEM.SOLV>
0

>  <SCORE.SYSTEM.norm>
0

>  <SCORE.heavy>
32

>  <SCORE.norm>
-0.657331

>  <RMSD>
4.625

$$$$
2tob cryst
 OpenBabel11021811463D
libRbt.so/2013.1/901 2013/11/27
 32 34  0  0  0  0  0  0  0  0999 V2000
   -5.5861    0.3456  -10.5754 C   0  0  2  0  0  0  0  0  0  0  0  0
   -4.5293   -0.6432  -11.0575 C   0  0  1  0  0  0  0  0  0  0  0  0
   -3.1429   -0.0715  -10.7595 C   0  0  2  0  0  0  0  0  0  0  0  0
   -2.9842    1.3254  -11.3742 C   0  0  1  0  0  0  0  0  0  0  0  0
   -4.1512    2.2219  -10.9461 C   0  0  1  0  0  0  0  0  0  0  0  0
   -4.1713    3.5864  -11.6153 C   0  0  0  0  0  0  0  0  0  0  0  0
   -4.6906   -1.8925  -10.3911 O   0  0  0  0  0  0  0  0  0  0  0  0
   -1.9557   -0.8849  -11.1727 N   0  3  0  0  0  0  0  0  0  0  0  0
   -1.7547    1.8876  -10.9331 O   0  0  0  0  0  0  0  0  0  0  0  0
   -5.4036    1.5760  -11.2501 O   0  0  0  0  0  0  0  0  0  0  0  0
   -5.2218    4.3924  -11.0913 O   0  0  0  0  0  0  0  0  0  0  0  0
   -7.7493    1.1357   -8.8191 C   0  0  2  0  0  0  0  0  0  0  0  0
   -9.1175    0.7469   -8.2430 C   0  0  0  0  0  0  0  0  0  0  0  0
   -9.4205   -0.7375   -8.4273 C   0  0  1  0  0  0  0  0  0  0  0  0
   -8.3051   -1.5412   -7.7732 C   0  0  2  0  0  0  0  0  0  0  0  0
   -6.9845   -1.2617   -8.4952 C   0  0  1  0  0  0  0  0  0  0  0  0
   -6.6006    0.2225   -8.3624 C   0  0  1  0  0  0  0  0  0  0  0  0
   -7.4119    2.5562   -8.4674 N   0  3  0  0  0  0  0  0  0  0  0  0
  -10.7592   -1.0893   -7.8507 N   0  3  0  0  0  0  0  0  0  0  0  0
   -5.9639   -2.0857   -7.9462 O   0  0  0  0  0  0  0  0  0  0  0  0
   -8.6032   -2.9485   -7.8203 O   0  0  0  0  0  0  0  0  0  0  0  0
   -5.4522    0.5052   -9.1889 O   0  0  0  0  0  0  0  0  0  0  0  0
   -8.3209   -3.6183   -6.6227 C   0  0  2  0  0  0  0  0  0  0  0  0
   -9.1240   -4.9214   -6.5519 C   0  0  1  0  0  0  0  0  0  0  0  0
  -10.5975   -4.6425   -6.2544 C   0  0  0  0  0  0  0  0  0  0  0  0
  -10.6945   -3.7770   -5.0084 C   0  0  1  0  0  0  0  0  0  0  0  0
   -9.9242   -2.4878   -5.2347 C   0  0  1  0  0  0  0  0  0  0  0  0
   -9.9886   -1.5754   -4.0233 C   0  0  0  0  0  0  0  0  0  0  0  0
   -9.0121   -5.6477   -7.8571 N   0  3  0  0  0  0  0  0  0  0  0  0
   -8.9689   -2.0535   -3.0259 N   0  3  0  0  0  0  0  0  0  0  0  0
  -12.0533   -3.4852   -4.7142 O   0  0  0  0  0  0  0  0  0  0  0  0
   -8.5420   -2.7972   -5.4810 O   0  0  0  0  0  0  0  0  0  0  0  0
  1  2  1  0  0  0  0
  1 22  1  1  0  0  0
  1 10  1  0  0  0  0
  2  3  1  0  0  0  0
  2  7  1  1  0  0  0
  3  4  1  0  0  0  0
  3  8  1  6  0  0  0
  4  5  1  0  0  0  0
  4  9  1  1  0  0  0
  5  6  1  6  0  0  0
  5 10  1  0  0  0  0
  6 11  1  0  0  0  0
 12 13  1  0  0  0  0
 12 17  1  0  0  0  0
 12 18  1  1  0  0  0
 13 14  1  0  0  0  0
 14 15  1  0  0  0  0
 14 19  1  1  0  0  0
 15 16  1  0  0  0  0
 15 21  1  6  0  0  0
 16 17  1  0  0  0  0
 16 20  1  1  0  0  0
 17 22  1  6  0  0  0
 23 21  1  6  0  0  0
 23 24  1  0  0  0  0
 23 32  1  0  0  0  0
 24 25  1  0  0  0  0
 24 29  1  6  0  0  0
 25 26  1  0  0  0  0
 26 27  1  0  0  0  0
 26 31  1  6  0  0  0
 27 28  1  1  0  0  0
 27 32  1  0  0  0  0
 28 30  1  0  0  0  0
M  CHG  5   8   1  18   1  19   1  29   1  30   1
M  END
>  <CHROM.1>
-122.97521671,-62.92140932,74.05626958,-56.08619506,-175.58771687,179.80068899
64.74216099,-147.38585813,-136.94559706,-64.93366520,-58.28085989,158.58668154
72.58940651,-55.96077867,80.93859686,-70.74044466,-7.08010570,-0.85741588
-8.34449480,-0.65663710,-0.61194807,2.94996786

>  <Name>
2tob cryst

>  <RI>
2.04895e+07

>  <Rbt.Current_Directory>
/home/itssahil/PROJECTS/Mol_Feturizer/New_Systems/rnas/2tob

>  <Rbt.Executable>
rbdock ($Id: //depot/dev/client3/rdock/2013.1/src/exe/rbdock.cxx#4 $)

>  <Rbt.Library>
libRbt.so (2013.1, Build901 2013/11/27)

>  <Rbt.Parameter_File>
/export/apps/rDock/src/rDock_2013.1_src/data/scripts/dock_solv.prm

>  <Rbt.Receptor>
prm/blind_docking_20.prm

>  <SCORE>
-34.4546

>  <SCORE.INTER>
-23.9377

>  <SCORE.INTER.CONST>
1

>  <SCORE.INTER.POLAR>
-5.25106

>  <SCORE.INTER.ROT>
6

>  <SCORE.INTER.SOLV>
38.0041

>  <SCORE.INTER.VDW>
-18.723

>  <SCORE.INTER.norm>
-0.748055

>  <SCORE.INTRA>
-16.095

>  <SCORE.INTRA.DIHEDRAL>
1.87133

>  <SCORE.INTRA.DIHEDRAL.0>
18.4221

>  <SCORE.INTRA.POLAR>
0.805067

>  <SCORE.INTRA.POLAR.0>
-1.57101

>  <SCORE.INTRA.REPUL>
-0.730195

>  <SCORE.INTRA.REPUL.0>
0.730195

>  <SCORE.INTRA.SOLV>
-4.50885

>  <SCORE.INTRA.SOLV.lig_0>
-127.221

>  <SCORE.INTRA.VDW>
-13.8625

>  <SCORE.INTRA.VDW.0>
10.8385

>  <SCORE.INTRA.norm>
-0.502968

>  <SCORE.RESTR>
5.57812

>  <SCORE.RESTR.CAVITY>
5.57812

>  <SCORE.RESTR.norm>
0.174316

>  <SCORE.SYSTEM>
0

>  <SCORE.SYSTEM.CONST>
0

>  <SCORE.SYSTEM.DIHEDRAL>
0

>  <SCORE.SYSTEM.SOLV>
0

>  <SCORE.SYSTEM.norm>
0

>  <SCORE.heavy>
32

>  <SCORE.norm>
-1.07671

>  <RMSD>
4.628

$$$$
2tob cryst
 OpenBabel11021811463D
libRbt.so/2013.1/901 2013/11/27
 32 34  0  0  0  0  0  0  0  0999 V2000
   -5.4693    0.0739   -9.1592 C   0  0  2  0  0  0  0  0  0  0  0  0
   -5.1161    1.3698   -9.8824 C   0  0  1  0  0  0  0  0  0  0  0  0
   -4.6167    1.0332  -11.2877 C   0  0  2  0  0  0  0  0  0  0  0  0
   -3.4485    0.0399  -11.2290 C   0  0  1  0  0  0  0  0  0  0  0  0
   -3.8365   -1.1755  -10.3799 C   0  0  1  0  0  0  0  0  0  0  0  0
   -2.7017   -2.1566  -10.1349 C   0  0  0  0  0  0  0  0  0  0  0  0
   -6.2642    2.2099   -9.9657 O   0  0  0  0  0  0  0  0  0  0  0  0
   -4.1980    2.1724  -12.1644 N   0  3  0  0  0  0  0  0  0  0  0  0
   -3.1281   -0.3754  -12.5508 O   0  0  0  0  0  0  0  0  0  0  0  0
   -4.3148   -0.7415   -9.0911 O   0  0  0  0  0  0  0  0  0  0  0  0
   -1.6083   -1.8953  -11.0089 O   0  0  0  0  0  0  0  0  0  0  0  0
   -6.7471   -1.7092   -7.7549 C   0  0  2  0  0  0  0  0  0  0  0  0
   -7.7011   -2.3588   -6.7435 C   0  0  0  0  0  0  0  0  0  0  0  0
   -9.0289   -1.6131   -6.6416 C   0  0  1  0  0  0  0  0  0  0  0  0
   -9.6576   -1.5584   -8.0272 C   0  0  2  0  0  0  0  0  0  0  0  0
   -8.7594   -0.7456   -8.9629 C   0  0  1  0  0  0  0  0  0  0  0  0
   -7.3891   -1.4275   -9.1225 C   0  0  1  0  0  0  0  0  0  0  0  0
   -5.5281   -2.5631   -7.9555 N   0  3  0  0  0  0  0  0  0  0  0  0
   -9.9419   -2.2725   -5.6518 N   0  3  0  0  0  0  0  0  0  0  0  0
   -9.3943   -0.6136  -10.2284 O   0  0  0  0  0  0  0  0  0  0  0  0
  -10.9671   -0.9645   -7.9635 O   0  0  0  0  0  0  0  0  0  0  0  0
   -6.4991   -0.5664   -9.8629 O   0  0  0  0  0  0  0  0  0  0  0  0
  -11.7054   -1.1152   -9.1446 C   0  0  2  0  0  0  0  0  0  0  0  0
  -12.9293   -0.1936   -9.1159 C   0  0  1  0  0  0  0  0  0  0  0  0
  -14.0009   -0.7336   -8.1685 C   0  0  0  0  0  0  0  0  0  0  0  0
  -14.3090   -2.1747   -8.5415 C   0  0  1  0  0  0  0  0  0  0  0  0
  -13.0341   -2.9959   -8.4572 C   0  0  1  0  0  0  0  0  0  0  0  0
  -13.2789   -4.4508   -8.8141 C   0  0  0  0  0  0  0  0  0  0  0  0
  -12.5140    1.1731   -8.6650 N   0  3  0  0  0  0  0  0  0  0  0  0
  -11.9482   -5.1513   -8.8505 N   0  3  0  0  0  0  0  0  0  0  0  0
  -15.2911   -2.7121   -7.6671 O   0  0  0  0  0  0  0  0  0  0  0  0
  -12.0685   -2.4707   -9.3838 O   0  0  0  0  0  0  0  0  0  0  0  0
  1  2  1  0  0  0  0
  1 22  1  6  0  0  0
  1 10  1  0  0  0  0
  2  3  1  0  0  0  0
  2  7  1  6  0  0  0
  3  4  1  0  0  0  0
  3  8  1  1  0  0  0
  4  5  1  0  0  0  0
  4  9  1  6  0  0  0
  5  6  1  1  0  0  0
  5 10  1  0  0  0  0
  6 11  1  0  0  0  0
 12 13  1  0  0  0  0
 12 17  1  0  0  0  0
 12 18  1  6  0  0  0
 13 14  1  0  0  0  0
 14 15  1  0  0  0  0
 14 19  1  1  0  0  0
 15 16  1  0  0  0  0
 15 21  1  1  0  0  0
 16 17  1  0  0  0  0
 16 20  1  6  0  0  0
 17 22  1  6  0  0  0
 23 21  1  1  0  0  0
 23 24  1  0  0  0  0
 23 32  1  0  0  0  0
 24 25  1  0  0  0  0
 24 29  1  1  0  0  0
 25 26  1  0  0  0  0
 26 27  1  0  0  0  0
 26 31  1  1  0  0  0
 27 28  1  6  0  0  0
 27 32  1  0  0  0  0
 28 30  1  0  0  0  0
M  CHG  5   8   1  18   1  19   1  29   1  30   1
M  END
>  <CHROM.1>
-152.59003424,65.96197002,86.99951359,72.91931414,-13.85724637,70.97797498
-99.58835949,73.41166163,-168.34524738,-42.15386104,-14.43609239,-166.90890107
-40.34092334,175.33223941,173.93367635,-167.08317953,-8.33286829,-1.14497690
-9.16230852,0.29689009,0.13483925,-0.47418131

>  <Name>
2tob cryst

>  <RI>
0

>  <Rbt.Current_Directory>
/home/itssahil/PROJECTS/Mol_Feturizer/New_Systems/rnas/2tob

>  <Rbt.Executable>
rbdock ($Id: //depot/dev/client3/rdock/2013.1/src/exe/rbdock.cxx#4 $)

>  <Rbt.Library>
libRbt.so (2013.1, Build901 2013/11/27)

>  <Rbt.Parameter_File>
/export/apps/rDock/src/rDock_2013.1_src/data/scripts/dock_solv.prm

>  <Rbt.Receptor>
prm/blind_docking_60.prm

>  <SCORE>
0.328853

>  <SCORE.INTER>
-1.8975

>  <SCORE.INTER.CONST>
1

>  <SCORE.INTER.POLAR>
-6.11937

>  <SCORE.INTER.ROT>
6

>  <SCORE.INTER.SOLV>
45.3412

>  <SCORE.INTER.VDW>
-3.58083

>  <SCORE.INTER.norm>
-0.0592968

>  <SCORE.INTRA>
-5.82218

>  <SCORE.INTRA.DIHEDRAL>
6.17285

>  <SCORE.INTRA.DIHEDRAL.0>
18.4221

>  <SCORE.INTRA.POLAR>
1.25624

>  <SCORE.INTRA.POLAR.0>
-1.57101

>  <SCORE.INTRA.REPUL>
-0.730195

>  <SCORE.INTRA.REPUL.0>
0.730195

>  <SCORE.INTRA.SOLV>
-5.53468

>  <SCORE.INTRA.SOLV.lig_0>
-127.221

>  <SCORE.INTRA.VDW>
-6.76151

>  <SCORE.INTRA.VDW.0>
10.8385

>  <SCORE.INTRA.norm>
-0.181943

>  <SCORE.RESTR>
8.04853

>  <SCORE.RESTR.CAVITY>
8.04853

>  <SCORE.RESTR.norm>
0.251517

>  <SCORE.SYSTEM>
0

>  <SCORE.SYSTEM.CONST>
0

>  <SCORE.SYSTEM.DIHEDRAL>
0

>  <SCORE.SYSTEM.SOLV>
0

>  <SCORE.SYSTEM.norm>
0

>  <SCORE.heavy>
32

>  <SCORE.norm>
0.0102767

>  <RMSD>
4.632

$$$$
2tob cryst
 OpenBabel11021811463D
libRbt.so/2013.1/901 2013/11/27
 32 34  0  0  0  0  0  0  0  0999 V2000
   -7.2708   -0.2247   -8.1516 C   0  0  2  0  0  0  0  0  0  0  0  0
   -8.0271    0.7463   -7.2504 C   0  0  1  0  0  0  0  0  0  0  0  0
   -8.8115    1.7253   -8.1244 C   0  0  2  0  0  0  0  0  0  0  0  0
   -7.8841    2.4302   -9.1231 C   0  0  1  0  0  0  0  0  0  0  0  0
   -7.0661    1.3931   -9.9004 C   0  0  1  0  0  0  0  0  0  0  0  0
   -6.0087    1.9875  -10.8161 C   0  0  0  0  0  0  0  0  0  0  0  0
   -8.9220    0.0296   -6.4042 O   0  0  0  0  0  0  0  0  0  0  0  0
   -9.6150    2.7812   -7.4306 N   0  3  0  0  0  0  0  0  0  0  0  0
   -8.6726    3.1983  -10.0235 O   0  0  0  0  0  0  0  0  0  0  0  0
   -6.3915    0.5109   -8.9812 O   0  0  0  0  0  0  0  0  0  0  0  0
   -5.3890    0.9732  -11.6002 O   0  0  0  0  0  0  0  0  0  0  0  0
   -7.6643   -2.6174   -7.2626 C   0  0  2  0  0  0  0  0  0  0  0  0
   -8.0937   -3.9006   -6.5387 C   0  0  0  0  0  0  0  0  0  0  0  0
   -9.5970   -3.9404   -6.2778 C   0  0  1  0  0  0  0  0  0  0  0  0
  -10.3205   -3.7974   -7.6097 C   0  0  2  0  0  0  0  0  0  0  0  0
  -10.0082   -2.4265   -8.2149 C   0  0  1  0  0  0  0  0  0  0  0  0
   -8.5034   -2.2969   -8.5096 C   0  0  1  0  0  0  0  0  0  0  0  0
   -6.2166   -2.6911   -7.6550 N   0  3  0  0  0  0  0  0  0  0  0  0
   -9.9880   -5.2061   -5.5755 N   0  3  0  0  0  0  0  0  0  0  0  0
  -10.7606   -2.2563   -9.4095 O   0  0  0  0  0  0  0  0  0  0  0  0
  -11.7410   -3.9438   -7.4301 O   0  0  0  0  0  0  0  0  0  0  0  0
   -8.2002   -0.9456   -8.9146 O   0  0  0  0  0  0  0  0  0  0  0  0
  -12.2954   -2.9876   -6.5693 C   0  0  2  0  0  0  0  0  0  0  0  0
  -13.6050   -3.5172   -5.9754 C   0  0  1  0  0  0  0  0  0  0  0  0
  -14.7278   -3.4921   -7.0128 C   0  0  0  0  0  0  0  0  0  0  0  0
  -14.8256   -2.0937   -7.6009 C   0  0  1  0  0  0  0  0  0  0  0  0
  -13.4917   -1.7192   -8.2231 C   0  0  1  0  0  0  0  0  0  0  0  0
  -13.5278   -0.3304   -8.8347 C   0  0  0  0  0  0  0  0  0  0  0  0
  -13.4038   -4.9228   -5.4985 N   0  3  0  0  0  0  0  0  0  0  0  0
  -12.1097    0.1049   -9.0849 N   0  3  0  0  0  0  0  0  0  0  0  0
  -15.8509   -2.0414   -8.5827 O   0  0  0  0  0  0  0  0  0  0  0  0
  -12.4745   -1.7276   -7.2072 O   0  0  0  0  0  0  0  0  0  0  0  0
  1  2  1  0  0  0  0
  1 22  1  6  0  0  0
  1 10  1  0  0  0  0
  2  3  1  0  0  0  0
  2  7  1  1  0  0  0
  3  4  1  0  0  0  0
  3  8  1  1  0  0  0
  4  5  1  0  0  0  0
  4  9  1  6  0  0  0
  5  6  1  1  0  0  0
  5 10  1  0  0  0  0
  6 11  1  0  0  0  0
 12 13  1  0  0  0  0
 12 17  1  0  0  0  0
 12 18  1  6  0  0  0
 13 14  1  0  0  0  0
 14 15  1  0  0  0  0
 14 19  1  6  0  0  0
 15 16  1  0  0  0  0
 15 21  1  1  0  0  0
 16 17  1  0  0  0  0
 16 20  1  6  0  0  0
 17 22  1  1  0  0  0
 23 21  1  6  0  0  0
 23 24  1  0  0  0  0
 23 32  1  0  0  0  0
 24 25  1  0  0  0  0
 24 29  1  6  0  0  0
 25 26  1  0  0  0  0
 26 27  1  0  0  0  0
 26 31  1  6  0  0  0
 27 28  1  1  0  0  0
 27 32  1  0  0  0  0
 28 30  1  0  0  0  0
M  CHG  5   8   1  18   1  19   1  29   1  30   1
M  END
>  <CHROM.1>
-102.15706079,-57.30850281,154.62779618,-67.59785046,-174.05556696,-170.66658692
18.56885411,179.51028405,60.37971451,-44.41147220,-0.24371122,-156.57076547
-162.32010733,90.00890198,164.88922058,-77.71874523,-10.04553807,-1.27550380
-8.01246073,-0.68632038,-0.03274223,2.68804135

>  <Name>
2tob cryst

>  <RI>
0

>  <Rbt.Current_Directory>
/home/itssahil/PROJECTS/Mol_Feturizer/New_Systems/rnas/2tob

>  <Rbt.Executable>
rbdock ($Id: //depot/dev/client3/rdock/2013.1/src/exe/rbdock.cxx#4 $)

>  <Rbt.Library>
libRbt.so (2013.1, Build901 2013/11/27)

>  <Rbt.Parameter_File>
/export/apps/rDock/src/rDock_2013.1_src/data/scripts/dock_solv.prm

>  <Rbt.Receptor>
prm/blind_docking_80.prm

>  <SCORE>
-33.1972

>  <SCORE.INTER>
-32.6676

>  <SCORE.INTER.CONST>
1

>  <SCORE.INTER.POLAR>
-6.50051

>  <SCORE.INTER.ROT>
6

>  <SCORE.INTER.SOLV>
42.9836

>  <SCORE.INTER.VDW>
-22.0379

>  <SCORE.INTER.norm>
-1.02086

>  <SCORE.INTRA>
-5.93257

>  <SCORE.INTRA.DIHEDRAL>
8.95007

>  <SCORE.INTRA.DIHEDRAL.0>
18.4221

>  <SCORE.INTRA.POLAR>
0.222889

>  <SCORE.INTRA.POLAR.0>
-1.57101

>  <SCORE.INTRA.REPUL>
-0.683225

>  <SCORE.INTRA.REPUL.0>
0.730195

>  <SCORE.INTRA.SOLV>
2.33627

>  <SCORE.INTRA.SOLV.lig_0>
-127.221

>  <SCORE.INTRA.VDW>
-8.91743

>  <SCORE.INTRA.VDW.0>
10.8385

>  <SCORE.INTRA.norm>
-0.185393

>  <SCORE.RESTR>
5.4029

>  <SCORE.RESTR.CAVITY>
5.4029

>  <SCORE.RESTR.norm>
0.168841

>  <SCORE.SYSTEM>
0

>  <SCORE.SYSTEM.CONST>
0

>  <SCORE.SYSTEM.DIHEDRAL>
0

>  <SCORE.SYSTEM.SOLV>
0

>  <SCORE.SYSTEM.norm>
0

>  <SCORE.heavy>
32

>  <SCORE.norm>
-1.03741

>  <RMSD>
4.651

$$$$
2tob cryst
 OpenBabel11021811463D
libRbt.so/2013.1/901 2013/11/27
 32 34  0  0  0  0  0  0  0  0999 V2000
   -7.1520    0.0275  -10.3605 C   0  0  2  0  0  0  0  0  0  0  0  0
   -5.8544    0.3567  -11.0918 C   0  0  1  0  0  0  0  0  0  0  0  0
   -5.1375    1.4832  -10.3468 C   0  0  2  0  0  0  0  0  0  0  0  0
   -6.0580    2.6993  -10.1785 C   0  0  1  0  0  0  0  0  0  0  0  0
   -7.3894    2.2663   -9.5551 C   0  0  1  0  0  0  0  0  0  0  0  0
   -8.4325    3.3690   -9.4768 C   0  0  0  0  0  0  0  0  0  0  0  0
   -5.0186   -0.7963  -11.1447 O   0  0  0  0  0  0  0  0  0  0  0  0
   -3.8411    1.9724  -10.9141 N   0  3  0  0  0  0  0  0  0  0  0  0
   -5.4172    3.6513   -9.3386 O   0  0  0  0  0  0  0  0  0  0  0  0
   -7.9619    1.1872  -10.3206 O   0  0  0  0  0  0  0  0  0  0  0  0
   -9.5081    2.9895   -8.6243 O   0  0  0  0  0  0  0  0  0  0  0  0
   -6.9748   -1.8980   -7.1722 C   0  0  2  0  0  0  0  0  0  0  0  0
   -7.8336   -2.8732   -6.3557 C   0  0  0  0  0  0  0  0  0  0  0  0
   -9.2920   -2.4304   -6.2764 C   0  0  1  0  0  0  0  0  0  0  0  0
   -9.8289   -2.2861   -7.6937 C   0  0  2  0  0  0  0  0  0  0  0  0
   -9.0636   -1.1758   -8.4182 C   0  0  1  0  0  0  0  0  0  0  0  0
   -7.5734   -1.5394   -8.5415 C   0  0  1  0  0  0  0  0  0  0  0  0
   -5.5935   -2.4517   -7.3742 N   0  3  0  0  0  0  0  0  0  0  0  0
  -10.1073   -3.4036   -5.4787 N   0  3  0  0  0  0  0  0  0  0  0  0
   -9.6304   -0.9764   -9.7070 O   0  0  0  0  0  0  0  0  0  0  0  0
  -11.2352   -1.9806   -7.6715 O   0  0  0  0  0  0  0  0  0  0  0  0
   -6.8387   -0.4145   -9.0673 O   0  0  0  0  0  0  0  0  0  0  0  0
  -11.8533   -2.1093   -8.9221 C   0  0  2  0  0  0  0  0  0  0  0  0
  -12.7692   -0.9077   -9.1776 C   0  0  1  0  0  0  0  0  0  0  0  0
  -14.0449   -1.0022   -8.3402 C   0  0  0  0  0  0  0  0  0  0  0  0
  -14.6980   -2.3527   -8.5861 C   0  0  1  0  0  0  0  0  0  0  0  0
  -13.7179   -3.4548   -8.2238 C   0  0  1  0  0  0  0  0  0  0  0  0
  -14.3162   -4.8325   -8.4432 C   0  0  0  0  0  0  0  0  0  0  0  0
  -12.0429    0.3556   -8.8310 N   0  3  0  0  0  0  0  0  0  0  0  0
  -13.1948   -5.8351   -8.4251 N   0  3  0  0  0  0  0  0  0  0  0  0
  -15.8797   -2.4789   -7.8079 O   0  0  0  0  0  0  0  0  0  0  0  0
  -12.5498   -3.3438   -9.0545 O   0  0  0  0  0  0  0  0  0  0  0  0
  1  2  1  0  0  0  0
  1 22  1  1  0  0  0
  1 10  1  0  0  0  0
  2  3  1  0  0  0  0
  2  7  1  1  0  0  0
  3  4  1  0  0  0  0
  3  8  1  6  0  0  0
  4  5  1  0  0  0  0
  4  9  1  1  0  0  0
  5  6  1  6  0  0  0
  5 10  1  0  0  0  0
  6 11  1  0  0  0  0
 12 13  1  0  0  0  0
 12 17  1  0  0  0  0
 12 18  1  6  0  0  0
 13 14  1  0  0  0  0
 14 15  1  0  0  0  0
 14 19  1  1  0  0  0
 15 16  1  0  0  0  0
 15 21  1  1  0  0  0
 16 17  1  0  0  0  0
 16 20  1  6  0  0  0
 17 22  1  1  0  0  0
 23 21  1  1  0  0  0
 23 24  1  0  0  0  0
 23 32  1  0  0  0  0
 24 25  1  0  0  0  0
 24 29  1  1  0  0  0
 25 26  1  0  0  0  0
 26 27  1  0  0  0  0
 26 31  1  1  0  0  0
 27 28  1  6  0  0  0
 27 32  1  0  0  0  0
 28 30  1  0  0  0  0
M  CHG  5   8   1  18   1  19   1  29   1  30   1
M  END
>  <CHROM.1>
-138.42926128,179.53090978,128.33958551,-40.33099832,-166.61652978,-55.46354975
-93.78266010,70.77252221,-167.37741053,164.01329638,175.51274521,-135.23305476
-88.52997560,47.10475884,164.93768557,-42.54794314,-9.38281392,-0.87580036
-8.77887208,0.57521689,-0.00769443,-0.39423468

>  <Name>
2tob cryst

>  <RI>
2.04895e+07

>  <Rbt.Current_Directory>
/home/itssahil/PROJECTS/Mol_Feturizer/New_Systems/rnas/2tob

>  <Rbt.Executable>
rbdock ($Id: //depot/dev/client3/rdock/2013.1/src/exe/rbdock.cxx#4 $)

>  <Rbt.Library>
libRbt.so (2013.1, Build901 2013/11/27)

>  <Rbt.Parameter_File>
/export/apps/rDock/src/rDock_2013.1_src/data/scripts/dock_solv.prm

>  <Rbt.Receptor>
prm/blind_docking_20.prm

>  <SCORE>
35.8056

>  <SCORE.INTER>
47.3458

>  <SCORE.INTER.CONST>
1

>  <SCORE.INTER.POLAR>
-5.23766

>  <SCORE.INTER.ROT>
6

>  <SCORE.INTER.SOLV>
39.9702

>  <SCORE.INTER.VDW>
28.0993

>  <SCORE.INTER.norm>
1.47956

>  <SCORE.INTRA>
-12.4418

>  <SCORE.INTRA.DIHEDRAL>
7.56697

>  <SCORE.INTRA.DIHEDRAL.0>
18.4221

>  <SCORE.INTRA.POLAR>
0.15594

>  <SCORE.INTRA.POLAR.0>
-1.57101

>  <SCORE.INTRA.REPUL>
-0.722279

>  <SCORE.INTRA.REPUL.0>
0.730195

>  <SCORE.INTRA.SOLV>
-6.02676

>  <SCORE.INTRA.SOLV.lig_0>
-127.221

>  <SCORE.INTRA.VDW>
-10.1307

>  <SCORE.INTRA.VDW.0>
10.8385

>  <SCORE.INTRA.norm>
-0.388805

>  <SCORE.RESTR>
0.901639

>  <SCORE.RESTR.CAVITY>
0.901639

>  <SCORE.RESTR.norm>
0.0281762

>  <SCORE.SYSTEM>
0

>  <SCORE.SYSTEM.CONST>
0

>  <SCORE.SYSTEM.DIHEDRAL>
0

>  <SCORE.SYSTEM.SOLV>
0

>  <SCORE.SYSTEM.norm>
0

>  <SCORE.heavy>
32

>  <SCORE.norm>
1.11893

>  <RMSD>
4.662

$$$$
2tob cryst
 OpenBabel11021811463D
libRbt.so/2013.1/901 2013/11/27
 32 34  0  0  0  0  0  0  0  0999 V2000
   -9.6768   -1.7868   -8.7341 C   0  0  2  0  0  0  0  0  0  0  0  0
   -8.3828   -2.5857   -8.6140 C   0  0  1  0  0  0  0  0  0  0  0  0
   -7.3270   -1.7189   -7.9272 C   0  0  2  0  0  0  0  0  0  0  0  0
   -7.1453   -0.3882   -8.6694 C   0  0  1  0  0  0  0  0  0  0  0  0
   -8.5043    0.2930   -8.8637 C   0  0  1  0  0  0  0  0  0  0  0  0
   -8.4586    1.5505   -9.7161 C   0  0  0  0  0  0  0  0  0  0  0  0
   -8.6088   -3.7678   -7.8510 O   0  0  0  0  0  0  0  0  0  0  0  0
   -5.9677   -2.3137   -7.7261 N   0  3  0  0  0  0  0  0  0  0  0  0
   -6.2869    0.4521   -7.9083 O   0  0  0  0  0  0  0  0  0  0  0  0
   -9.4254   -0.6196   -9.4937 O   0  0  0  0  0  0  0  0  0  0  0  0
   -7.2829    2.3059   -9.4425 O   0  0  0  0  0  0  0  0  0  0  0  0
  -12.1779   -0.8473   -8.5509 C   0  0  2  0  0  0  0  0  0  0  0  0
  -13.7085   -0.9531   -8.5831 C   0  0  0  0  0  0  0  0  0  0  0  0
  -14.2004   -2.3353   -8.1624 C   0  0  1  0  0  0  0  0  0  0  0  0
  -13.6622   -2.6343   -6.7699 C   0  0  2  0  0  0  0  0  0  0  0  0
  -12.1336   -2.6993   -6.8172 C   0  0  1  0  0  0  0  0  0  0  0  0
  -11.5485   -1.3397   -7.2381 C   0  0  1  0  0  0  0  0  0  0  0  0
  -11.7404    0.5674   -8.8005 N   0  3  0  0  0  0  0  0  0  0  0  0
  -15.6976   -2.4076   -8.1978 N   0  3  0  0  0  0  0  0  0  0  0  0
  -11.6382   -3.0741   -5.5381 O   0  0  0  0  0  0  0  0  0  0  0  0
  -14.1927   -3.8797   -6.2810 O   0  0  0  0  0  0  0  0  0  0  0  0
  -10.1261   -1.4640   -7.4459 O   0  0  0  0  0  0  0  0  0  0  0  0
  -14.0666   -4.0332   -4.8942 C   0  0  2  0  0  0  0  0  0  0  0  0
  -14.8572   -5.2614   -4.4312 C   0  0  1  0  0  0  0  0  0  0  0  0
  -16.3604   -4.9823   -4.4413 C   0  0  0  0  0  0  0  0  0  0  0  0
  -16.6338   -3.7206   -3.6386 C   0  0  1  0  0  0  0  0  0  0  0  0
  -15.8545   -2.5655   -4.2430 C   0  0  1  0  0  0  0  0  0  0  0  0
  -16.0916   -1.2714   -3.4859 C   0  0  0  0  0  0  0  0  0  0  0  0
  -14.5626   -6.4156   -5.3392 N   0  3  0  0  0  0  0  0  0  0  0  0
  -15.5020   -1.4225   -2.1102 N   0  3  0  0  0  0  0  0  0  0  0  0
  -18.0230   -3.4238   -3.6428 O   0  0  0  0  0  0  0  0  0  0  0  0
  -14.4484   -2.8592   -4.1853 O   0  0  0  0  0  0  0  0  0  0  0  0
  1  2  1  0  0  0  0
  1 22  1  1  0  0  0
  1 10  1  0  0  0  0
  2  3  1  0  0  0  0
  2  7  1  1  0  0  0
  3  4  1  0  0  0  0
  3  8  1  6  0  0  0
  4  5  1  0  0  0  0
  4  9  1  1  0  0  0
  5  6  1  6  0  0  0
  5 10  1  0  0  0  0
  6 11  1  0  0  0  0
 12 13  1  0  0  0  0
 12 17  1  0  0  0  0
 12 18  1  1  0  0  0
 13 14  1  0  0  0  0
 14 15  1  0  0  0  0
 14 19  1  1  0  0  0
 15 16  1  0  0  0  0
 15 21  1  6  0  0  0
 16 17  1  0  0  0  0
 16 20  1  1  0  0  0
 17 22  1  6  0  0  0
 23 21  1  6  0  0  0
 23 24  1  0  0  0  0
 23 32  1  0  0  0  0
 24 25  1  0  0  0  0
 24 29  1  6  0  0  0
 25 26  1  0  0  0  0
 26 27  1  0  0  0  0
 26 31  1  6  0  0  0
 27 28  1  1  0  0  0
 27 32  1  0  0  0  0
 28 30  1  0  0  0  0
M  CHG  5   8   1  18   1  19   1  29   1  30   1
M  END
>  <CHROM.1>
-149.34549854,-58.57317865,-174.00077715,-72.31224989,-38.38312118,168.43300735
-35.52279219,-38.20956838,-162.45233988,-63.01793672,-30.51554804,170.55450673
-46.45389498,59.55025331,66.41014944,52.10680226,-11.98531035,-2.03845649
-6.78601890,-0.52349132,-0.28794912,2.67120050

>  <Name>
2tob cryst

>  <RI>
2.10184e+07

>  <Rbt.Current_Directory>
/home/itssahil/PROJECTS/Mol_Feturizer/New_Systems/rnas/2tob

>  <Rbt.Executable>
rbdock ($Id: //depot/dev/client3/rdock/2013.1/src/exe/rbdock.cxx#4 $)

>  <Rbt.Library>
libRbt.so (2013.1, Build901 2013/11/27)

>  <Rbt.Parameter_File>
/export/apps/rDock/src/rDock_2013.1_src/data/scripts/dock_solv.prm

>  <Rbt.Receptor>
prm/pocket_docking_7.prm

>  <SCORE>
-54.6161

>  <SCORE.INTER>
-39.4444

>  <SCORE.INTER.CONST>
1

>  <SCORE.INTER.POLAR>
-6.46376

>  <SCORE.INTER.ROT>
6

>  <SCORE.INTER.SOLV>
31.1474

>  <SCORE.INTER.VDW>
-22.7329

>  <SCORE.INTER.norm>
-1.23264

>  <SCORE.INTRA>
-15.1717

>  <SCORE.INTRA.DIHEDRAL>
-3.0706

>  <SCORE.INTRA.DIHEDRAL.0>
18.4221

>  <SCORE.INTRA.POLAR>
0.750262

>  <SCORE.INTRA.POLAR.0>
-1.57101

>  <SCORE.INTRA.REPUL>
-0.730195

>  <SCORE.INTRA.REPUL.0>
0.730195

>  <SCORE.INTRA.SOLV>
-4.66631

>  <SCORE.INTRA.SOLV.lig_0>
-127.221

>  <SCORE.INTRA.VDW>
-10.2032

>  <SCORE.INTRA.VDW.0>
10.8385

>  <SCORE.INTRA.norm>
-0.474116

>  <SCORE.RESTR>
0

>  <SCORE.RESTR.CAVITY>
0

>  <SCORE.RESTR.norm>
0

>  <SCORE.SYSTEM>
0

>  <SCORE.SYSTEM.CONST>
0

>  <SCORE.SYSTEM.DIHEDRAL>
0

>  <SCORE.SYSTEM.SOLV>
0

>  <SCORE.SYSTEM.norm>
0

>  <SCORE.heavy>
32

>  <SCORE.norm>
-1.70675

>  <RMSD>
4.696

$$$$
2tob cryst
 OpenBabel11021811463D
libRbt.so/2013.1/901 2013/11/27
 32 34  0  0  0  0  0  0  0  0999 V2000
   -9.4952   -2.1404   -8.5113 C   0  0  2  0  0  0  0  0  0  0  0  0
   -9.1450   -0.6761   -8.7566 C   0  0  1  0  0  0  0  0  0  0  0  0
  -10.3376    0.1928   -8.3563 C   0  0  2  0  0  0  0  0  0  0  0  0
  -11.6091   -0.2525   -9.0910 C   0  0  1  0  0  0  0  0  0  0  0  0
  -11.8229   -1.7583   -8.9025 C   0  0  1  0  0  0  0  0  0  0  0  0
  -12.9758   -2.3332   -9.7090 C   0  0  0  0  0  0  0  0  0  0  0  0
   -8.0021   -0.3127   -7.9868 O   0  0  0  0  0  0  0  0  0  0  0  0
  -10.2063    1.6734   -8.5365 N   0  3  0  0  0  0  0  0  0  0  0  0
  -12.7204    0.4636   -8.5673 O   0  0  0  0  0  0  0  0  0  0  0  0
  -10.6320   -2.4750   -9.2848 O   0  0  0  0  0  0  0  0  0  0  0  0
  -14.2031   -1.7004   -9.3608 O   0  0  0  0  0  0  0  0  0  0  0  0
   -9.2288   -3.4265   -5.0652 C   0  0  2  0  0  0  0  0  0  0  0  0
   -9.2247   -4.7378   -4.2680 C   0  0  0  0  0  0  0  0  0  0  0  0
  -10.4438   -5.6033   -4.5748 C   0  0  1  0  0  0  0  0  0  0  0  0
  -10.4761   -5.8756   -6.0724 C   0  0  2  0  0  0  0  0  0  0  0  0
  -10.6634   -4.5567   -6.8264 C   0  0  1  0  0  0  0  0  0  0  0  0
   -9.4733   -3.6153   -6.5707 C   0  0  1  0  0  0  0  0  0  0  0  0
   -7.9372   -2.6855   -4.8704 N   0  3  0  0  0  0  0  0  0  0  0  0
  -10.4103   -6.8787   -3.7871 N   0  3  0  0  0  0  0  0  0  0  0  0
  -10.7908   -4.8232   -8.2174 O   0  0  0  0  0  0  0  0  0  0  0  0
  -11.5445   -6.7838   -6.3968 O   0  0  0  0  0  0  0  0  0  0  0  0
   -9.7449   -2.3190   -7.1433 O   0  0  0  0  0  0  0  0  0  0  0  0
  -11.0979   -8.0519   -6.7904 C   0  0  2  0  0  0  0  0  0  0  0  0
  -11.6689   -8.4017   -8.1686 C   0  0  1  0  0  0  0  0  0  0  0  0
  -13.1524   -8.7593   -8.0734 C   0  0  0  0  0  0  0  0  0  0  0  0
  -13.3321   -9.8458   -7.0254 C   0  0  1  0  0  0  0  0  0  0  0  0
  -12.7985   -9.3480   -5.6935 C   0  0  1  0  0  0  0  0  0  0  0  0
  -12.9556  -10.3902   -4.6011 C   0  0  0  0  0  0  0  0  0  0  0  0
  -11.5005   -7.2324   -9.0896 N   0  3  0  0  0  0  0  0  0  0  0  0
  -12.6238   -9.7395   -3.2860 N   0  3  0  0  0  0  0  0  0  0  0  0
  -14.7048  -10.1893   -6.9005 O   0  0  0  0  0  0  0  0  0  0  0  0
  -11.3975   -9.0528   -5.8233 O   0  0  0  0  0  0  0  0  0  0  0  0
  1  2  1  0  0  0  0
  1 22  1  1  0  0  0
  1 10  1  0  0  0  0
  2  3  1  0  0  0  0
  2  7  1  1  0  0  0
  3  4  1  0  0  0  0
  3  8  1  6  0  0  0
  4  5  1  0  0  0  0
  4  9  1  1  0  0  0
  5  6  1  6  0  0  0
  5 10  1  0  0  0  0
  6 11  1  0  0  0  0
 12 13  1  0  0  0  0
 12 17  1  0  0  0  0
 12 18  1  6  0  0  0
 13 14  1  0  0  0  0
 14 15  1  0  0  0  0
 14 19  1  1  0  0  0
 15 16  1  0  0  0  0
 15 21  1  1  0  0  0
 16 17  1  0  0  0  0
 16 20  1  6  0  0  0
 17 22  1  1  0  0  0
 23 21  1  1  0  0  0
 23 24  1  0  0  0  0
 23 32  1  0  0  0  0
 24 25  1  0  0  0  0
 24 29  1  6  0  0  0
 25 26  1  0  0  0  0
 26 27  1  0  0  0  0
 26 31  1  1  0  0  0
 27 28  1  1  0  0  0
 27 32  1  0  0  0  0
 28 30  1  0  0  0  0
M  CHG  5   8   1  18   1  19   1  29   1  30   1
M  END
>  <CHROM.1>
-151.12804742,-78.41799463,-156.25005852,-45.76717220,-59.43584429,-62.21344843
-55.11508781,90.01794015,-109.87302956,177.06931807,155.92949184,-124.44594440
87.02192030,173.18762324,-170.54896812,-57.89257360,-11.14856596,-4.71033600
-7.06163332,-1.27041711,0.74382101,2.64663667

>  <Name>
2tob cryst

>  <RI>
3.35201e+07

>  <Rbt.Current_Directory>
/home/itssahil/PROJECTS/Mol_Feturizer/New_Systems/rnas/2tob

>  <Rbt.Executable>
rbdock ($Id: //depot/dev/client3/rdock/2013.1/src/exe/rbdock.cxx#4 $)

>  <Rbt.Library>
libRbt.so (2013.1, Build901 2013/11/27)

>  <Rbt.Parameter_File>
/export/apps/rDock/src/rDock_2013.1_src/data/scripts/dock_solv.prm

>  <Rbt.Receptor>
prm/pocket_docking_4.prm

>  <SCORE>
-37.6248

>  <SCORE.INTER>
-20.6508

>  <SCORE.INTER.CONST>
1

>  <SCORE.INTER.POLAR>
-3.28909

>  <SCORE.INTER.ROT>
6

>  <SCORE.INTER.SOLV>
22.177

>  <SCORE.INTER.VDW>
-17.7959

>  <SCORE.INTER.norm>
-0.645337

>  <SCORE.INTRA>
-16.9741

>  <SCORE.INTRA.DIHEDRAL>
9.01452

>  <SCORE.INTRA.DIHEDRAL.0>
18.4221

>  <SCORE.INTRA.POLAR>
-0.958912

>  <SCORE.INTRA.POLAR.0>
-1.57101

>  <SCORE.INTRA.REPUL>
-0.669921

>  <SCORE.INTRA.REPUL.0>
0.730195

>  <SCORE.INTRA.SOLV>
-1.80498

>  <SCORE.INTRA.SOLV.lig_0>
-127.221

>  <SCORE.INTRA.VDW>
-13.9689

>  <SCORE.INTRA.VDW.0>
10.8385

>  <SCORE.INTRA.norm>
-0.530439

>  <SCORE.RESTR>
0

>  <SCORE.RESTR.CAVITY>
0

>  <SCORE.RESTR.norm>
0

>  <SCORE.SYSTEM>
0

>  <SCORE.SYSTEM.CONST>
0

>  <SCORE.SYSTEM.DIHEDRAL>
0

>  <SCORE.SYSTEM.SOLV>
0

>  <SCORE.SYSTEM.norm>
0

>  <SCORE.heavy>
32

>  <SCORE.norm>
-1.17578

>  <RMSD>
4.706

$$$$
2tob cryst
 OpenBabel11021811463D
libRbt.so/2013.1/901 2013/11/27
 32 34  0  0  0  0  0  0  0  0999 V2000
   -9.9772   -2.0428   -7.4066 C   0  0  2  0  0  0  0  0  0  0  0  0
  -10.5885   -0.6849   -7.7375 C   0  0  1  0  0  0  0  0  0  0  0  0
   -9.9290   -0.1398   -9.0046 C   0  0  2  0  0  0  0  0  0  0  0  0
   -8.4033   -0.0902   -8.8485 C   0  0  1  0  0  0  0  0  0  0  0  0
   -7.8789   -1.4558   -8.3913 C   0  0  1  0  0  0  0  0  0  0  0  0
   -6.3946   -1.4797   -8.0652 C   0  0  0  0  0  0  0  0  0  0  0  0
  -11.9923   -0.8194   -7.9426 O   0  0  0  0  0  0  0  0  0  0  0  0
  -10.3772    1.2020   -9.4953 N   0  3  0  0  0  0  0  0  0  0  0  0
   -7.8218    0.2579  -10.0986 O   0  0  0  0  0  0  0  0  0  0  0  0
   -8.5852   -1.8823   -7.2092 O   0  0  0  0  0  0  0  0  0  0  0  0
   -5.8904   -2.8111   -8.0954 O   0  0  0  0  0  0  0  0  0  0  0  0
  -10.3884   -4.8040   -6.9661 C   0  0  2  0  0  0  0  0  0  0  0  0
  -11.2692   -5.9060   -6.3619 C   0  0  0  0  0  0  0  0  0  0  0  0
  -12.6986   -5.4315   -6.1149 C   0  0  1  0  0  0  0  0  0  0  0  0
  -13.2751   -4.9341   -7.4333 C   0  0  2  0  0  0  0  0  0  0  0  0
  -12.4774   -3.7186   -7.9123 C   0  0  1  0  0  0  0  0  0  0  0  0
  -11.0136   -4.1072   -8.1849 C   0  0  1  0  0  0  0  0  0  0  0  0
   -9.0460   -5.3539   -7.3545 N   0  3  0  0  0  0  0  0  0  0  0  0
  -13.5366   -6.5290   -5.5305 N   0  3  0  0  0  0  0  0  0  0  0  0
  -13.0765   -3.1968   -9.0916 O   0  0  0  0  0  0  0  0  0  0  0  0
  -14.6617   -4.5817   -7.2763 O   0  0  0  0  0  0  0  0  0  0  0  0
  -10.2388   -2.9230   -8.4662 O   0  0  0  0  0  0  0  0  0  0  0  0
  -15.5041   -5.2060   -8.2055 C   0  0  2  0  0  0  0  0  0  0  0  0
  -16.8491   -4.4743   -8.2644 C   0  0  1  0  0  0  0  0  0  0  0  0
  -17.6946   -4.7795   -7.0276 C   0  0  0  0  0  0  0  0  0  0  0  0
  -17.8067   -6.2869   -6.8657 C   0  0  1  0  0  0  0  0  0  0  0  0
  -16.4143   -6.8807   -6.7419 C   0  0  1  0  0  0  0  0  0  0  0  0
  -16.4602   -8.3884   -6.5714 C   0  0  0  0  0  0  0  0  0  0  0  0
  -16.6105   -2.9980   -8.3481 N   0  3  0  0  0  0  0  0  0  0  0  0
  -16.9135   -8.9903   -7.8733 N   0  3  0  0  0  0  0  0  0  0  0  0
  -18.5739   -6.6042   -5.7130 O   0  0  0  0  0  0  0  0  0  0  0  0
  -15.6677   -6.5945   -7.9367 O   0  0  0  0  0  0  0  0  0  0  0  0
  1  2  1  0  0  0  0
  1 22  1  6  0  0  0
  1 10  1  0  0  0  0
  2  3  1  0  0  0  0
  2  7  1  6  0  0  0
  3  4  1  0  0  0  0
  3  8  1  1  0  0  0
  4  5  1  0  0  0  0
  4  9  1  6  0  0  0
  5  6  1  1  0  0  0
  5 10  1  0  0  0  0
  6 11  1  0  0  0  0
 12 13  1  0  0  0  0
 12 17  1  0  0  0  0
 12 18  1  6  0  0  0
 13 14  1  0  0  0  0
 14 15  1  0  0  0  0
 14 19  1  6  0  0  0
 15 16  1  0  0  0  0
 15 21  1  1  0  0  0
 16 17  1  0  0  0  0
 16 20  1  6  0  0  0
 17 22  1  1  0  0  0
 23 21  1  1  0  0  0
 23 24  1  0  0  0  0
 23 32  1  0  0  0  0
 24 25  1  0  0  0  0
 24 29  1  1  0  0  0
 25 26  1  0  0  0  0
 26 27  1  0  0  0  0
 26 31  1  1  0  0  0
 27 28  1  6  0  0  0
 27 32  1  0  0  0  0
 28 30  1  0  0  0  0
M  CHG  5   8   1  18   1  19   1  29   1  30   1
M  END
>  <CHROM.1>
-119.15142230,62.12122968,-176.82904519,-47.73953129,-160.22734858,174.95572047
-172.18132417,57.09467674,-126.98915529,-60.44354057,-50.48343588,-162.54355800
178.67596504,64.89116423,69.82654588,174.95712097,-12.43606642,-3.82858086
-7.72344185,-0.58142325,0.05503730,2.79069252

>  <Name>
2tob cryst

>  <RI>
3.75586e+07

>  <Rbt.Current_Directory>
/home/itssahil/PROJECTS/Mol_Feturizer/New_Systems/rnas/2tob

>  <Rbt.Executable>
rbdock ($Id: //depot/dev/client3/rdock/2013.1/src/exe/rbdock.cxx#4 $)

>  <Rbt.Library>
libRbt.so (2013.1, Build901 2013/11/27)

>  <Rbt.Parameter_File>
/export/apps/rDock/src/rDock_2013.1_src/data/scripts/dock_solv.prm

>  <Rbt.Receptor>
prm/pocket_docking_8.prm

>  <SCORE>
-49.0612

>  <SCORE.INTER>
-33.6474

>  <SCORE.INTER.CONST>
1

>  <SCORE.INTER.POLAR>
-6.04673

>  <SCORE.INTER.ROT>
6

>  <SCORE.INTER.SOLV>
27.0853

>  <SCORE.INTER.VDW>
-18.9043

>  <SCORE.INTER.norm>
-1.05148

>  <SCORE.INTRA>
-15.4138

>  <SCORE.INTRA.DIHEDRAL>
0.651492

>  <SCORE.INTRA.DIHEDRAL.0>
18.4221

>  <SCORE.INTRA.POLAR>
1.51933

>  <SCORE.INTRA.POLAR.0>
-1.57101

>  <SCORE.INTRA.REPUL>
-0.730195

>  <SCORE.INTRA.REPUL.0>
0.730195

>  <SCORE.INTRA.SOLV>
-3.71971

>  <SCORE.INTRA.SOLV.lig_0>
-127.221

>  <SCORE.INTRA.VDW>
-15.3944

>  <SCORE.INTRA.VDW.0>
10.8385

>  <SCORE.INTRA.norm>
-0.481681

>  <SCORE.RESTR>
0

>  <SCORE.RESTR.CAVITY>
0

>  <SCORE.RESTR.norm>
0

>  <SCORE.SYSTEM>
0

>  <SCORE.SYSTEM.CONST>
0

>  <SCORE.SYSTEM.DIHEDRAL>
0

>  <SCORE.SYSTEM.SOLV>
0

>  <SCORE.SYSTEM.norm>
0

>  <SCORE.heavy>
32

>  <SCORE.norm>
-1.53316

>  <RMSD>
4.712

$$$$
2tob cryst
 OpenBabel11021811463D
libRbt.so/2013.1/901 2013/11/27
 32 34  0  0  0  0  0  0  0  0999 V2000
   -5.3133    0.7128   -9.2946 C   0  0  2  0  0  0  0  0  0  0  0  0
   -5.2679    2.2328   -9.4149 C   0  0  1  0  0  0  0  0  0  0  0  0
   -4.9683    2.6065  -10.8669 C   0  0  2  0  0  0  0  0  0  0  0  0
   -3.6811    1.9264  -11.3517 C   0  0  1  0  0  0  0  0  0  0  0  0
   -3.7506    0.4196  -11.0805 C   0  0  1  0  0  0  0  0  0  0  0  0
   -2.4666   -0.3325  -11.3898 C   0  0  0  0  0  0  0  0  0  0  0  0
   -6.5185    2.7905   -9.0203 O   0  0  0  0  0  0  0  0  0  0  0  0
   -4.8630    4.0627  -11.1988 N   0  3  0  0  0  0  0  0  0  0  0  0
   -3.5315    2.1608  -12.7463 O   0  0  0  0  0  0  0  0  0  0  0  0
   -4.0624    0.1845   -9.6928 O   0  0  0  0  0  0  0  0  0  0  0  0
   -2.1537   -0.2522  -12.7767 O   0  0  0  0  0  0  0  0  0  0  0  0
   -6.4999   -1.3979   -8.3355 C   0  0  2  0  0  0  0  0  0  0  0  0
   -7.4044   -2.3049   -7.4904 C   0  0  0  0  0  0  0  0  0  0  0  0
   -8.7484   -1.6516   -7.1800 C   0  0  1  0  0  0  0  0  0  0  0  0
   -9.4205   -1.2846   -8.4959 C   0  0  2  0  0  0  0  0  0  0  0  0
   -8.5738   -0.2395   -9.2267 C   0  0  1  0  0  0  0  0  0  0  0  0
   -7.1909   -0.8155   -9.5786 C   0  0  1  0  0  0  0  0  0  0  0  0
   -5.2647   -2.1359   -8.7654 N   0  3  0  0  0  0  0  0  0  0  0  0
   -9.6123   -2.5616   -6.3592 N   0  3  0  0  0  0  0  0  0  0  0  0
   -9.2505    0.1733  -10.4072 O   0  0  0  0  0  0  0  0  0  0  0  0
  -10.7431   -0.7686   -8.2598 O   0  0  0  0  0  0  0  0  0  0  0  0
   -6.3478    0.2289  -10.1079 O   0  0  0  0  0  0  0  0  0  0  0  0
  -11.6351   -1.0198   -9.3105 C   0  0  2  0  0  0  0  0  0  0  0  0
  -12.9406   -0.2508   -9.0817 C   0  0  1  0  0  0  0  0  0  0  0  0
  -13.7768   -0.9043   -7.9810 C   0  0  0  0  0  0  0  0  0  0  0  0
  -13.9649   -2.3760   -8.3118 C   0  0  1  0  0  0  0  0  0  0  0  0
  -12.6037   -3.0379   -8.4363 C   0  0  1  0  0  0  0  0  0  0  0  0
  -12.7256   -4.5156   -8.7614 C   0  0  0  0  0  0  0  0  0  0  0  0
  -12.6262    1.1607   -8.6914 N   0  3  0  0  0  0  0  0  0  0  0  0
  -12.9412   -4.6497  -10.2441 N   0  3  0  0  0  0  0  0  0  0  0  0
  -14.7253   -3.0170   -7.2974 O   0  0  0  0  0  0  0  0  0  0  0  0
  -11.8664   -2.4117   -9.4999 O   0  0  0  0  0  0  0  0  0  0  0  0
  1  2  1  0  0  0  0
  1 22  1  6  0  0  0
  1 10  1  0  0  0  0
  2  3  1  0  0  0  0
  2  7  1  6  0  0  0
  3  4  1  0  0  0  0
  3  8  1  1  0  0  0
  4  5  1  0  0  0  0
  4  9  1  6  0  0  0
  5  6  1  1  0  0  0
  5 10  1  0  0  0  0
  6 11  1  0  0  0  0
 12 13  1  0  0  0  0
 12 17  1  0  0  0  0
 12 18  1  6  0  0  0
 13 14  1  0  0  0  0
 14 15  1  0  0  0  0
 14 19  1  6  0  0  0
 15 16  1  0  0  0  0
 15 21  1  1  0  0  0
 16 17  1  0  0  0  0
 16 20  1  6  0  0  0
 17 22  1  1  0  0  0
 23 21  1  1  0  0  0
 23 24  1  0  0  0  0
 23 32  1  0  0  0  0
 24 25  1  0  0  0  0
 24 29  1  1  0  0  0
 25 26  1  0  0  0  0
 26 27  1  0  0  0  0
 26 31  1  1  0  0  0
 27 28  1  6  0  0  0
 27 32  1  0  0  0  0
 28 30  1  0  0  0  0
M  CHG  5   8   1  18   1  19   1  29   1  30   1
M  END
>  <CHROM.1>
-137.54988202,-67.23919431,43.12854702,91.21568429,-63.15292647,-45.74510513
58.63770905,69.64871971,-150.33528693,-70.20764405,-14.31922916,-170.95792477
-169.45232911,-57.60346718,81.98920072,165.80127891,-8.28887665,-0.52866318
-9.42484518,-0.42666554,-0.19510469,2.91964193

>  <Name>
2tob cryst

>  <RI>
0

>  <Rbt.Current_Directory>
/home/itssahil/PROJECTS/Mol_Feturizer/New_Systems/rnas/2tob

>  <Rbt.Executable>
rbdock ($Id: //depot/dev/client3/rdock/2013.1/src/exe/rbdock.cxx#4 $)

>  <Rbt.Library>
libRbt.so (2013.1, Build901 2013/11/27)

>  <Rbt.Parameter_File>
/export/apps/rDock/src/rDock_2013.1_src/data/scripts/dock_solv.prm

>  <Rbt.Receptor>
prm/blind_docking_60.prm

>  <SCORE>
-14.9745

>  <SCORE.INTER>
-10.8602

>  <SCORE.INTER.CONST>
1

>  <SCORE.INTER.POLAR>
-5.27668

>  <SCORE.INTER.ROT>
6

>  <SCORE.INTER.SOLV>
47.5607

>  <SCORE.INTER.VDW>
-13.1047

>  <SCORE.INTER.norm>
-0.339381

>  <SCORE.INTRA>
-12.0851

>  <SCORE.INTRA.DIHEDRAL>
6.52553

>  <SCORE.INTRA.DIHEDRAL.0>
18.4221

>  <SCORE.INTRA.POLAR>
0.41323

>  <SCORE.INTRA.POLAR.0>
-1.57101

>  <SCORE.INTRA.REPUL>
-0.730195

>  <SCORE.INTRA.REPUL.0>
0.730195

>  <SCORE.INTRA.SOLV>
-4.77926

>  <SCORE.INTRA.SOLV.lig_0>
-127.221

>  <SCORE.INTRA.VDW>
-10.7122

>  <SCORE.INTRA.VDW.0>
10.8385

>  <SCORE.INTRA.norm>
-0.377659

>  <SCORE.RESTR>
7.97078

>  <SCORE.RESTR.CAVITY>
7.97078

>  <SCORE.RESTR.norm>
0.249087

>  <SCORE.SYSTEM>
0

>  <SCORE.SYSTEM.CONST>
0

>  <SCORE.SYSTEM.DIHEDRAL>
0

>  <SCORE.SYSTEM.SOLV>
0

>  <SCORE.SYSTEM.norm>
0

>  <SCORE.heavy>
32

>  <SCORE.norm>
-0.467954

>  <RMSD>
4.732

$$$$
2tob cryst
 OpenBabel11021811463D
libRbt.so/2013.1/901 2013/11/27
 32 34  0  0  0  0  0  0  0  0999 V2000
   -7.4976   -0.5418   -8.2760 C   0  0  2  0  0  0  0  0  0  0  0  0
   -8.2831    0.3943   -7.3629 C   0  0  1  0  0  0  0  0  0  0  0  0
   -8.9627    1.4650   -8.2170 C   0  0  2  0  0  0  0  0  0  0  0  0
   -7.9373    2.1988   -9.0914 C   0  0  1  0  0  0  0  0  0  0  0  0
   -7.1021    1.1854   -9.8816 C   0  0  1  0  0  0  0  0  0  0  0  0
   -5.9575    1.7977  -10.6721 C   0  0  0  0  0  0  0  0  0  0  0  0
   -9.2651   -0.3418   -6.6388 O   0  0  0  0  0  0  0  0  0  0  0  0
   -9.7765    2.5023   -7.5074 N   0  3  0  0  0  0  0  0  0  0  0  0
   -8.6269    3.0612   -9.9875 O   0  0  0  0  0  0  0  0  0  0  0  0
   -6.5317    0.2127   -8.9834 O   0  0  0  0  0  0  0  0  0  0  0  0
   -4.7858    1.9018   -9.8695 O   0  0  0  0  0  0  0  0  0  0  0  0
   -7.8896   -3.0731   -7.7681 C   0  0  2  0  0  0  0  0  0  0  0  0
   -8.4046   -4.3552   -7.1003 C   0  0  0  0  0  0  0  0  0  0  0  0
   -9.8396   -4.2096   -6.6014 C   0  0  1  0  0  0  0  0  0  0  0  0
  -10.7209   -3.8160   -7.7790 C   0  0  2  0  0  0  0  0  0  0  0  0
  -10.2887   -2.4443   -8.3032 C   0  0  1  0  0  0  0  0  0  0  0  0
   -8.8429   -2.4981   -8.8275 C   0  0  1  0  0  0  0  0  0  0  0  0
   -6.5463   -3.3077   -8.3972 N   0  3  0  0  0  0  0  0  0  0  0  0
  -10.3177   -5.4775   -5.9597 N   0  3  0  0  0  0  0  0  0  0  0  0
  -11.1734   -2.0355   -9.3386 O   0  0  0  0  0  0  0  0  0  0  0  0
  -12.1041   -3.7779   -7.3830 O   0  0  0  0  0  0  0  0  0  0  0  0
   -8.3930   -1.1669   -9.1552 O   0  0  0  0  0  0  0  0  0  0  0  0
  -12.4396   -2.6391   -6.6391 C   0  0  2  0  0  0  0  0  0  0  0  0
  -13.6037   -2.9571   -5.6947 C   0  0  1  0  0  0  0  0  0  0  0  0
  -14.9214   -3.0600   -6.4631 C   0  0  0  0  0  0  0  0  0  0  0  0
  -15.1107   -1.7985   -7.2899 C   0  0  1  0  0  0  0  0  0  0  0  0
  -13.9325   -1.6393   -8.2350 C   0  0  1  0  0  0  0  0  0  0  0  0
  -14.0667   -0.3958   -9.0950 C   0  0  0  0  0  0  0  0  0  0  0  0
  -13.3374   -4.2540   -4.9941 N   0  3  0  0  0  0  0  0  0  0  0  0
  -12.9652    0.5551   -8.7134 N   0  3  0  0  0  0  0  0  0  0  0  0
  -16.3208   -1.8702   -8.0306 O   0  0  0  0  0  0  0  0  0  0  0  0
  -12.7220   -1.5174   -7.4690 O   0  0  0  0  0  0  0  0  0  0  0  0
  1  2  1  0  0  0  0
  1 22  1  6  0  0  0
  1 10  1  0  0  0  0
  2  3  1  0  0  0  0
  2  7  1  6  0  0  0
  3  4  1  0  0  0  0
  3  8  1  1  0  0  0
  4  5  1  0  0  0  0
  4  9  1  6  0  0  0
  5  6  1  1  0  0  0
  5 10  1  0  0  0  0
  6 11  1  0  0  0  0
 12 13  1  0  0  0  0
 12 17  1  0  0  0  0
 12 18  1  6  0  0  0
 13 14  1  0  0  0  0
 14 15  1  0  0  0  0
 14 19  1  6  0  0  0
 15 16  1  0  0  0  0
 15 21  1  1  0  0  0
 16 17  1  0  0  0  0
 16 20  1  6  0  0  0
 17 22  1  1  0  0  0
 23 21  1  6  0  0  0
 23 24  1  0  0  0  0
 23 32  1  0  0  0  0
 24 25  1  0  0  0  0
 24 29  1  6  0  0  0
 25 26  1  0  0  0  0
 26 27  1  0  0  0  0
 26 31  1  6  0  0  0
 27 28  1  1  0  0  0
 27 32  1  0  0  0  0
 28 30  1  0  0  0  0
M  CHG  5   8   1  18   1  19   1  29   1  30   1
M  END
>  <CHROM.1>
-98.22709312,-160.81628156,-84.79148423,-66.34157493,87.48978996,51.75189530
-48.79459897,57.52110281,76.45392408,-56.32779478,-16.50076975,-151.57868979
-56.41304714,-57.68650510,114.18781744,122.19033935,-10.27090518,-1.29128726
-7.99638516,-0.59108982,-0.11102233,2.77680030

>  <Name>
2tob cryst

>  <RI>
2.04895e+07

>  <Rbt.Current_Directory>
/home/itssahil/PROJECTS/Mol_Feturizer/New_Systems/rnas/2tob

>  <Rbt.Executable>
rbdock ($Id: //depot/dev/client3/rdock/2013.1/src/exe/rbdock.cxx#4 $)

>  <Rbt.Library>
libRbt.so (2013.1, Build901 2013/11/27)

>  <Rbt.Parameter_File>
/export/apps/rDock/src/rDock_2013.1_src/data/scripts/dock_solv.prm

>  <Rbt.Receptor>
prm/blind_docking_20.prm

>  <SCORE>
-41.5156

>  <SCORE.INTER>
-44.8294

>  <SCORE.INTER.CONST>
1

>  <SCORE.INTER.POLAR>
-7.73057

>  <SCORE.INTER.ROT>
6

>  <SCORE.INTER.SOLV>
43.0979

>  <SCORE.INTER.VDW>
-26.0837

>  <SCORE.INTER.norm>
-1.40092

>  <SCORE.INTRA>
-1.0122

>  <SCORE.INTRA.DIHEDRAL>
12.2705

>  <SCORE.INTRA.DIHEDRAL.0>
18.4221

>  <SCORE.INTRA.POLAR>
0.960001

>  <SCORE.INTRA.POLAR.0>
-1.57101

>  <SCORE.INTRA.REPUL>
-0.730195

>  <SCORE.INTRA.REPUL.0>
0.730195

>  <SCORE.INTRA.SOLV>
1.82085

>  <SCORE.INTRA.SOLV.lig_0>
-127.221

>  <SCORE.INTRA.VDW>
-7.6709

>  <SCORE.INTRA.VDW.0>
10.8385

>  <SCORE.INTRA.norm>
-0.0316311

>  <SCORE.RESTR>
4.32599

>  <SCORE.RESTR.CAVITY>
4.32599

>  <SCORE.RESTR.norm>
0.135187

>  <SCORE.SYSTEM>
0

>  <SCORE.SYSTEM.CONST>
0

>  <SCORE.SYSTEM.DIHEDRAL>
0

>  <SCORE.SYSTEM.SOLV>
0

>  <SCORE.SYSTEM.norm>
0

>  <SCORE.heavy>
32

>  <SCORE.norm>
-1.29736

>  <RMSD>
4.744

$$$$
2tob cryst
 OpenBabel11021811463D
libRbt.so/2013.1/901 2013/11/27
 32 34  0  0  0  0  0  0  0  0999 V2000
   -5.0043    0.6077   -9.5601 C   0  0  2  0  0  0  0  0  0  0  0  0
   -4.9708    2.1309   -9.4855 C   0  0  1  0  0  0  0  0  0  0  0  0
   -4.9050    2.6955  -10.9049 C   0  0  2  0  0  0  0  0  0  0  0  0
   -3.7153    2.1049  -11.6733 C   0  0  1  0  0  0  0  0  0  0  0  0
   -3.7484    0.5747  -11.5945 C   0  0  1  0  0  0  0  0  0  0  0  0
   -2.5342   -0.1102  -12.2001 C   0  0  0  0  0  0  0  0  0  0  0  0
   -6.1394    2.6125   -8.8273 O   0  0  0  0  0  0  0  0  0  0  0  0
   -4.8464    4.1840  -11.0553 N   0  3  0  0  0  0  0  0  0  0  0  0
   -3.7892    2.5215  -13.0309 O   0  0  0  0  0  0  0  0  0  0  0  0
   -3.8357    0.1557  -10.2179 O   0  0  0  0  0  0  0  0  0  0  0  0
   -1.9281   -0.9916  -11.2602 O   0  0  0  0  0  0  0  0  0  0  0  0
   -6.3386   -1.2485   -8.3499 C   0  0  2  0  0  0  0  0  0  0  0  0
   -7.2602   -2.0550   -7.4250 C   0  0  0  0  0  0  0  0  0  0  0  0
   -8.5827   -1.3402   -7.1621 C   0  0  1  0  0  0  0  0  0  0  0  0
   -9.2563   -1.0670   -8.4999 C   0  0  2  0  0  0  0  0  0  0  0  0
   -8.3878   -0.1117   -9.3223 C   0  0  1  0  0  0  0  0  0  0  0  0
   -7.0246   -0.7541   -9.6333 C   0  0  1  0  0  0  0  0  0  0  0  0
   -5.1281   -2.0548   -8.7239 N   0  3  0  0  0  0  0  0  0  0  0  0
   -9.4640   -2.1527   -6.2614 N   0  3  0  0  0  0  0  0  0  0  0  0
   -9.0636    0.2187  -10.5290 O   0  0  0  0  0  0  0  0  0  0  0  0
  -10.5621   -0.4958   -8.2996 O   0  0  0  0  0  0  0  0  0  0  0  0
   -6.1578    0.2176  -10.2549 O   0  0  0  0  0  0  0  0  0  0  0  0
  -11.4797   -0.8377   -9.3015 C   0  0  2  0  0  0  0  0  0  0  0  0
  -12.8278   -0.1631   -9.0267 C   0  0  1  0  0  0  0  0  0  0  0  0
  -13.5608   -0.8509   -7.8746 C   0  0  0  0  0  0  0  0  0  0  0  0
  -13.6520   -2.3400   -8.1662 C   0  0  1  0  0  0  0  0  0  0  0  0
  -12.2517   -2.9012   -8.3418 C   0  0  1  0  0  0  0  0  0  0  0  0
  -12.2762   -4.3912   -8.6307 C   0  0  0  0  0  0  0  0  0  0  0  0
  -12.6035    1.2768   -8.6804 N   0  3  0  0  0  0  0  0  0  0  0  0
  -12.7517   -5.0979   -7.3908 N   0  3  0  0  0  0  0  0  0  0  0  0
  -14.3144   -3.0117   -7.1042 O   0  0  0  0  0  0  0  0  0  0  0  0
  -11.6134   -2.2471   -9.4515 O   0  0  0  0  0  0  0  0  0  0  0  0
  1  2  1  0  0  0  0
  1 22  1  6  0  0  0
  1 10  1  0  0  0  0
  2  3  1  0  0  0  0
  2  7  1  6  0  0  0
  3  4  1  0  0  0  0
  3  8  1  1  0  0  0
  4  5  1  0  0  0  0
  4  9  1  6  0  0  0
  5  6  1  1  0  0  0
  5 10  1  0  0  0  0
  6 11  1  0  0  0  0
 12 13  1  0  0  0  0
 12 17  1  0  0  0  0
 12 18  1  6  0  0  0
 13 14  1  0  0  0  0
 14 15  1  0  0  0  0
 14 19  1  1  0  0  0
 15 16  1  0  0  0  0
 15 21  1  1  0  0  0
 16 17  1  0  0  0  0
 16 20  1  6  0  0  0
 17 22  1  1  0  0  0
 23 21  1  1  0  0  0
 23 24  1  0  0  0  0
 23 32  1  0  0  0  0
 24 25  1  0  0  0  0
 24 29  1  1  0  0  0
 25 26  1  0  0  0  0
 26 27  1  0  0  0  0
 26 31  1  1  0  0  0
 27 28  1  6  0  0  0
 27 32  1  0  0  0  0
 28 30  1  0  0  0  0
M  CHG  5   8   1  18   1  19   1  29   1  30   1
M  END
>  <CHROM.1>
-127.94245592,-56.98333314,48.98832058,-82.99277455,125.63179012,-88.22575552
177.88120222,-67.95743598,-148.79546522,73.25799996,-6.08564948,-178.69843606
-170.59332941,-45.55083942,-68.23959643,-62.27481360,-8.12096111,-0.46113983
-9.31631551,-0.46631502,-0.18594873,2.79040647

>  <Name>
2tob cryst

>  <RI>
0

>  <Rbt.Current_Directory>
/home/itssahil/PROJECTS/Mol_Feturizer/New_Systems/rnas/2tob

>  <Rbt.Executable>
rbdock ($Id: //depot/dev/client3/rdock/2013.1/src/exe/rbdock.cxx#4 $)

>  <Rbt.Library>
libRbt.so (2013.1, Build901 2013/11/27)

>  <Rbt.Parameter_File>
/export/apps/rDock/src/rDock_2013.1_src/data/scripts/dock_solv.prm

>  <Rbt.Receptor>
prm/blind_docking_40.prm

>  <SCORE>
-10.9577

>  <SCORE.INTER>
-10.6989

>  <SCORE.INTER.CONST>
1

>  <SCORE.INTER.POLAR>
-4.58892

>  <SCORE.INTER.ROT>
6

>  <SCORE.INTER.SOLV>
42.8117

>  <SCORE.INTER.VDW>
-13.7067

>  <SCORE.INTER.norm>
-0.33434

>  <SCORE.INTRA>
-7.99431

>  <SCORE.INTRA.DIHEDRAL>
13.0335

>  <SCORE.INTRA.DIHEDRAL.0>
18.4221

>  <SCORE.INTRA.POLAR>
-0.127288

>  <SCORE.INTRA.POLAR.0>
-1.57101

>  <SCORE.INTRA.REPUL>
-0.730195

>  <SCORE.INTRA.REPUL.0>
0.730195

>  <SCORE.INTRA.SOLV>
-4.14723

>  <SCORE.INTRA.SOLV.lig_0>
-127.221

>  <SCORE.INTRA.VDW>
-8.3537

>  <SCORE.INTRA.VDW.0>
10.8385

>  <SCORE.INTRA.norm>
-0.249822

>  <SCORE.RESTR>
7.73547

>  <SCORE.RESTR.CAVITY>
7.73547

>  <SCORE.RESTR.norm>
0.241733

>  <SCORE.SYSTEM>
0

>  <SCORE.SYSTEM.CONST>
0

>  <SCORE.SYSTEM.DIHEDRAL>
0

>  <SCORE.SYSTEM.SOLV>
0

>  <SCORE.SYSTEM.norm>
0

>  <SCORE.heavy>
32

>  <SCORE.norm>
-0.342428

>  <RMSD>
4.748

$$$$
2tob cryst
 OpenBabel11021811463D
libRbt.so/2013.1/901 2013/11/27
 32 34  0  0  0  0  0  0  0  0999 V2000
  -10.0894   -1.7818   -7.5470 C   0  0  2  0  0  0  0  0  0  0  0  0
  -10.6632   -0.4244   -7.9410 C   0  0  1  0  0  0  0  0  0  0  0  0
   -9.9690    0.0562   -9.2157 C   0  0  2  0  0  0  0  0  0  0  0  0
   -8.4456    0.0775   -9.0334 C   0  0  1  0  0  0  0  0  0  0  0  0
   -7.9610   -1.2807   -8.5144 C   0  0  1  0  0  0  0  0  0  0  0  0
   -6.4836   -1.3252   -8.1602 C   0  0  0  0  0  0  0  0  0  0  0  0
  -12.0659   -0.5352   -8.1669 O   0  0  0  0  0  0  0  0  0  0  0  0
  -10.3772    1.3875   -9.7659 N   0  3  0  0  0  0  0  0  0  0  0  0
   -7.8342    0.3637  -10.2850 O   0  0  0  0  0  0  0  0  0  0  0  0
   -8.6977   -1.6450   -7.3301 O   0  0  0  0  0  0  0  0  0  0  0  0
   -5.9691   -2.6459   -8.2973 O   0  0  0  0  0  0  0  0  0  0  0  0
  -10.2099   -4.6054   -7.1115 C   0  0  2  0  0  0  0  0  0  0  0  0
  -10.9454   -5.7677   -6.4310 C   0  0  0  0  0  0  0  0  0  0  0  0
  -12.3598   -5.3847   -6.0044 C   0  0  1  0  0  0  0  0  0  0  0  0
  -13.1193   -4.9033   -7.2330 C   0  0  2  0  0  0  0  0  0  0  0  0
  -12.4576   -3.6346   -7.7767 C   0  0  1  0  0  0  0  0  0  0  0  0
  -11.0172   -3.9295   -8.2310 C   0  0  1  0  0  0  0  0  0  0  0  0
   -8.8943   -5.0669   -7.6698 N   0  3  0  0  0  0  0  0  0  0  0  0
  -13.0556   -6.5396   -5.3485 N   0  3  0  0  0  0  0  0  0  0  0  0
  -13.2241   -3.1324   -8.8641 O   0  0  0  0  0  0  0  0  0  0  0  0
  -14.4950   -4.6381   -6.9035 O   0  0  0  0  0  0  0  0  0  0  0  0
  -10.3525   -2.6964   -8.5765 O   0  0  0  0  0  0  0  0  0  0  0  0
  -15.3659   -4.7790   -7.9918 C   0  0  2  0  0  0  0  0  0  0  0  0
  -16.4136   -3.6611   -7.9697 C   0  0  1  0  0  0  0  0  0  0  0  0
  -17.4553   -3.9067   -6.8779 C   0  0  0  0  0  0  0  0  0  0  0  0
  -18.0310   -5.3031   -7.0497 C   0  0  1  0  0  0  0  0  0  0  0  0
  -16.9052   -6.3199   -6.9763 C   0  0  1  0  0  0  0  0  0  0  0  0
  -17.4194   -7.7391   -7.1360 C   0  0  0  0  0  0  0  0  0  0  0  0
  -15.7369   -2.3481   -7.7209 N   0  3  0  0  0  0  0  0  0  0  0  0
  -18.2449   -8.0741   -5.9239 N   0  3  0  0  0  0  0  0  0  0  0  0
  -18.9920   -5.5691   -6.0380 O   0  0  0  0  0  0  0  0  0  0  0  0
  -15.9678   -6.0683   -8.0369 O   0  0  0  0  0  0  0  0  0  0  0  0
  1  2  1  0  0  0  0
  1 22  1  6  0  0  0
  1 10  1  0  0  0  0
  2  3  1  0  0  0  0
  2  7  1  6  0  0  0
  3  4  1  0  0  0  0
  3  8  1  1  0  0  0
  4  5  1  0  0  0  0
  4  9  1  6  0  0  0
  5  6  1  1  0  0  0
  5 10  1  0  0  0  0
  6 11  1  0  0  0  0
 12 13  1  0  0  0  0
 12 17  1  0  0  0  0
 12 18  1  6  0  0  0
 13 14  1  0  0  0  0
 14 15  1  0  0  0  0
 14 19  1  6  0  0  0
 15 16  1  0  0  0  0
 15 21  1  1  0  0  0
 16 17  1  0  0  0  0
 16 20  1  6  0  0  0
 17 22  1  1  0  0  0
 23 21  1  1  0  0  0
 23 24  1  0  0  0  0
 23 32  1  0  0  0  0
 24 25  1  0  0  0  0
 24 29  1  1  0  0  0
 25 26  1  0  0  0  0
 26 27  1  0  0  0  0
 26 31  1  1  0  0  0
 27 28  1  6  0  0  0
 27 32  1  0  0  0  0
 28 30  1  0  0  0  0
M  CHG  5   8   1  18   1  19   1  29   1  30   1
M  END
>  <CHROM.1>
-126.60528222,-172.74925837,64.60459109,-44.63789613,-152.73551060,-79.71219198
91.96015400,-38.73603447,-153.02436564,174.68755573,-54.26455123,-139.48643850
-63.75918090,70.43372039,-67.84921275,54.66923663,-12.47832042,-3.48446668
-7.69723538,0.54547870,-0.00842319,-0.38312874

>  <Name>
2tob cryst

>  <RI>
3.75586e+07

>  <Rbt.Current_Directory>
/home/itssahil/PROJECTS/Mol_Feturizer/New_Systems/rnas/2tob

>  <Rbt.Executable>
rbdock ($Id: //depot/dev/client3/rdock/2013.1/src/exe/rbdock.cxx#4 $)

>  <Rbt.Library>
libRbt.so (2013.1, Build901 2013/11/27)

>  <Rbt.Parameter_File>
/export/apps/rDock/src/rDock_2013.1_src/data/scripts/dock_solv.prm

>  <Rbt.Receptor>
prm/pocket_docking_8.prm

>  <SCORE>
-52.4273

>  <SCORE.INTER>
-33.8255

>  <SCORE.INTER.CONST>
1

>  <SCORE.INTER.POLAR>
-6.37137

>  <SCORE.INTER.ROT>
6

>  <SCORE.INTER.SOLV>
27.6427

>  <SCORE.INTER.VDW>
-18.1267

>  <SCORE.INTER.norm>
-1.05705

>  <SCORE.INTRA>
-18.6017

>  <SCORE.INTRA.DIHEDRAL>
6.68789

>  <SCORE.INTRA.DIHEDRAL.0>
18.4221

>  <SCORE.INTRA.POLAR>
-0.675409

>  <SCORE.INTRA.POLAR.0>
-1.57101

>  <SCORE.INTRA.REPUL>
-0.730195

>  <SCORE.INTRA.REPUL.0>
0.730195

>  <SCORE.INTRA.SOLV>
-2.74353

>  <SCORE.INTRA.SOLV.lig_0>
-127.221

>  <SCORE.INTRA.VDW>
-14.6266

>  <SCORE.INTRA.VDW.0>
10.8385

>  <SCORE.INTRA.norm>
-0.581305

>  <SCORE.RESTR>
0

>  <SCORE.RESTR.CAVITY>
0

>  <SCORE.RESTR.norm>
0

>  <SCORE.SYSTEM>
0

>  <SCORE.SYSTEM.CONST>
0

>  <SCORE.SYSTEM.DIHEDRAL>
0

>  <SCORE.SYSTEM.SOLV>
0

>  <SCORE.SYSTEM.norm>
0

>  <SCORE.heavy>
32

>  <SCORE.norm>
-1.63835

>  <RMSD>
4.749

$$$$
2tob cryst
 OpenBabel11021811463D
libRbt.so/2013.1/901 2013/11/27
 32 34  0  0  0  0  0  0  0  0999 V2000
   -7.3799   -0.4834   -8.3371 C   0  0  2  0  0  0  0  0  0  0  0  0
   -8.1583    0.4248   -7.3905 C   0  0  1  0  0  0  0  0  0  0  0  0
   -8.8805    1.4938   -8.2110 C   0  0  2  0  0  0  0  0  0  0  0  0
   -7.8927    2.2591   -9.1016 C   0  0  1  0  0  0  0  0  0  0  0  0
   -7.0599    1.2728   -9.9278 C   0  0  1  0  0  0  0  0  0  0  0  0
   -5.9484    1.9178  -10.7394 C   0  0  0  0  0  0  0  0  0  0  0  0
   -9.1067   -0.3400   -6.6512 O   0  0  0  0  0  0  0  0  0  0  0  0
   -9.6945    2.5055   -7.4655 N   0  3  0  0  0  0  0  0  0  0  0  0
   -8.6219    3.1204   -9.9668 O   0  0  0  0  0  0  0  0  0  0  0  0
   -6.4476    0.2990   -9.0589 O   0  0  0  0  0  0  0  0  0  0  0  0
   -4.8882    2.3505   -9.8929 O   0  0  0  0  0  0  0  0  0  0  0  0
   -7.7867   -3.0005   -7.7868 C   0  0  2  0  0  0  0  0  0  0  0  0
   -8.3032   -4.2739   -7.1036 C   0  0  0  0  0  0  0  0  0  0  0  0
   -9.7400   -4.1225   -6.6117 C   0  0  1  0  0  0  0  0  0  0  0  0
  -10.6174   -3.7455   -7.7975 C   0  0  2  0  0  0  0  0  0  0  0  0
  -10.1843   -2.3807   -8.3386 C   0  0  1  0  0  0  0  0  0  0  0  0
   -8.7367   -2.4405   -8.8572 C   0  0  1  0  0  0  0  0  0  0  0  0
   -6.4410   -3.2426   -8.4081 N   0  3  0  0  0  0  0  0  0  0  0  0
  -10.2195   -5.3821   -5.9546 N   0  3  0  0  0  0  0  0  0  0  0  0
  -11.0657   -1.9864   -9.3825 O   0  0  0  0  0  0  0  0  0  0  0  0
  -12.0020   -3.7029   -7.4068 O   0  0  0  0  0  0  0  0  0  0  0  0
   -8.2865   -1.1136   -9.2013 O   0  0  0  0  0  0  0  0  0  0  0  0
  -12.3325   -2.5727   -6.6478 C   0  0  2  0  0  0  0  0  0  0  0  0
  -13.4556   -2.9154   -5.6634 C   0  0  1  0  0  0  0  0  0  0  0  0
  -14.7978   -3.0417   -6.3845 C   0  0  0  0  0  0  0  0  0  0  0  0
  -15.0408   -1.7821   -7.2000 C   0  0  1  0  0  0  0  0  0  0  0  0
  -13.9004   -1.5979   -8.1861 C   0  0  1  0  0  0  0  0  0  0  0  0
  -14.0892   -0.3550   -9.0368 C   0  0  0  0  0  0  0  0  0  0  0  0
  -13.1396   -4.2087   -4.9769 N   0  3  0  0  0  0  0  0  0  0  0  0
  -12.9696    0.5990   -8.7218 N   0  3  0  0  0  0  0  0  0  0  0  0
  -16.2750   -1.8753   -7.8972 O   0  0  0  0  0  0  0  0  0  0  0  0
  -12.6659   -1.4546   -7.4635 O   0  0  0  0  0  0  0  0  0  0  0  0
  1  2  1  0  0  0  0
  1 22  1  6  0  0  0
  1 10  1  0  0  0  0
  2  3  1  0  0  0  0
  2  7  1  6  0  0  0
  3  4  1  0  0  0  0
  3  8  1  1  0  0  0
  4  5  1  0  0  0  0
  4  9  1  6  0  0  0
  5  6  1  1  0  0  0
  5 10  1  0  0  0  0
  6 11  1  0  0  0  0
 12 13  1  0  0  0  0
 12 17  1  0  0  0  0
 12 18  1  6  0  0  0
 13 14  1  0  0  0  0
 14 15  1  0  0  0  0
 14 19  1  6  0  0  0
 15 16  1  0  0  0  0
 15 21  1  1  0  0  0
 16 17  1  0  0  0  0
 16 20  1  6  0  0  0
 17 22  1  1  0  0  0
 23 21  1  6  0  0  0
 23 24  1  0  0  0  0
 23 32  1  0  0  0  0
 24 25  1  0  0  0  0
 24 29  1  6  0  0  0
 25 26  1  0  0  0  0
 26 27  1  0  0  0  0
 26 31  1  6  0  0  0
 27 28  1  1  0  0  0
 27 32  1  0  0  0  0
 28 30  1  0  0  0  0
M  CHG  5   8   1  18   1  19   1  29   1  30   1
M  END
>  <CHROM.1>
-96.20683255,67.69155529,151.60557535,-67.22024838,72.34629149,69.38589591
-165.46891660,-158.61607998,74.78245831,-160.59293393,-15.62148455,-148.74337503
-66.54774341,-59.85041628,115.85823710,-1.35080939,-10.18834278,-1.22301821
-7.99662799,-0.60424894,-0.11348058,2.77207490

>  <Name>
2tob cryst

>  <RI>
2.04895e+07

>  <Rbt.Current_Directory>
/home/itssahil/PROJECTS/Mol_Feturizer/New_Systems/rnas/2tob

>  <Rbt.Executable>
rbdock ($Id: //depot/dev/client3/rdock/2013.1/src/exe/rbdock.cxx#4 $)

>  <Rbt.Library>
libRbt.so (2013.1, Build901 2013/11/27)

>  <Rbt.Parameter_File>
/export/apps/rDock/src/rDock_2013.1_src/data/scripts/dock_solv.prm

>  <Rbt.Receptor>
prm/blind_docking_20.prm

>  <SCORE>
-36.7501

>  <SCORE.INTER>
-41.5441

>  <SCORE.INTER.CONST>
1

>  <SCORE.INTER.POLAR>
-7.0354

>  <SCORE.INTER.ROT>
6

>  <SCORE.INTER.SOLV>
43.873

>  <SCORE.INTER.VDW>
-26.4691

>  <SCORE.INTER.norm>
-1.29825

>  <SCORE.INTRA>
0.676945

>  <SCORE.INTRA.DIHEDRAL>
12.6052

>  <SCORE.INTRA.DIHEDRAL.0>
18.4221

>  <SCORE.INTRA.POLAR>
1.01919

>  <SCORE.INTRA.POLAR.0>
-1.57101

>  <SCORE.INTRA.REPUL>
-0.274136

>  <SCORE.INTRA.REPUL.0>
0.730195

>  <SCORE.INTRA.SOLV>
1.66918

>  <SCORE.INTRA.SOLV.lig_0>
-127.221

>  <SCORE.INTRA.VDW>
-8.55482

>  <SCORE.INTRA.VDW.0>
10.8385

>  <SCORE.INTRA.norm>
0.0211545

>  <SCORE.RESTR>
4.11713

>  <SCORE.RESTR.CAVITY>
4.11713

>  <SCORE.RESTR.norm>
0.12866

>  <SCORE.SYSTEM>
0

>  <SCORE.SYSTEM.CONST>
0

>  <SCORE.SYSTEM.DIHEDRAL>
0

>  <SCORE.SYSTEM.SOLV>
0

>  <SCORE.SYSTEM.norm>
0

>  <SCORE.heavy>
32

>  <SCORE.norm>
-1.14844

>  <RMSD>
4.758

$$$$
2tob cryst
 OpenBabel11021811463D
libRbt.so/2013.1/901 2013/11/27
 32 34  0  0  0  0  0  0  0  0999 V2000
   -5.7564    0.2459  -10.6928 C   0  0  2  0  0  0  0  0  0  0  0  0
   -4.5970   -0.6587  -11.0984 C   0  0  1  0  0  0  0  0  0  0  0  0
   -3.2876   -0.0316  -10.6187 C   0  0  2  0  0  0  0  0  0  0  0  0
   -3.1437    1.4026  -11.1449 C   0  0  1  0  0  0  0  0  0  0  0  0
   -4.4010    2.2122  -10.8097 C   0  0  1  0  0  0  0  0  0  0  0  0
   -4.4266    3.6076  -11.4118 C   0  0  0  0  0  0  0  0  0  0  0  0
   -4.7577   -1.9486  -10.5143 O   0  0  0  0  0  0  0  0  0  0  0  0
   -2.0167   -0.7582  -10.9328 N   0  3  0  0  0  0  0  0  0  0  0  0
   -2.0053    2.0043  -10.5414 O   0  0  0  0  0  0  0  0  0  0  0  0
   -5.5725    1.5185  -11.2837 O   0  0  0  0  0  0  0  0  0  0  0  0
   -5.5522    4.3421  -10.9412 O   0  0  0  0  0  0  0  0  0  0  0  0
   -7.9099    1.4328   -8.9771 C   0  0  2  0  0  0  0  0  0  0  0  0
   -9.3910    1.2918   -8.6007 C   0  0  0  0  0  0  0  0  0  0  0  0
   -9.9949   -0.0129   -9.1131 C   0  0  1  0  0  0  0  0  0  0  0  0
   -9.1784   -1.1718   -8.5579 C   0  0  2  0  0  0  0  0  0  0  0  0
   -7.7499   -1.0962   -9.1030 C   0  0  1  0  0  0  0  0  0  0  0  0
   -7.0615    0.1979   -8.6347 C   0  0  1  0  0  0  0  0  0  0  0  0
   -7.3080    2.6373   -8.3122 N   0  3  0  0  0  0  0  0  0  0  0  0
  -11.4391   -0.1260   -8.7262 N   0  3  0  0  0  0  0  0  0  0  0  0
   -7.0166   -2.2318   -8.6617 O   0  0  0  0  0  0  0  0  0  0  0  0
   -9.7772   -2.4295   -8.9200 O   0  0  0  0  0  0  0  0  0  0  0  0
   -5.7858    0.3380   -9.2941 O   0  0  0  0  0  0  0  0  0  0  0  0
   -9.5910   -3.4324   -7.9597 C   0  0  2  0  0  0  0  0  0  0  0  0
  -10.9496   -3.9463   -7.4718 C   0  0  1  0  0  0  0  0  0  0  0  0
  -11.6175   -2.9336   -6.5413 C   0  0  0  0  0  0  0  0  0  0  0  0
  -10.6474   -2.5705   -5.4287 C   0  0  1  0  0  0  0  0  0  0  0  0
   -9.3770   -2.0044   -6.0388 C   0  0  1  0  0  0  0  0  0  0  0  0
   -8.3674   -1.6162   -4.9737 C   0  0  0  0  0  0  0  0  0  0  0  0
  -11.8400   -4.1976   -8.6498 N   0  3  0  0  0  0  0  0  0  0  0  0
   -7.7225   -2.8756   -4.4629 N   0  3  0  0  0  0  0  0  0  0  0  0
  -11.2331   -1.6162   -4.5545 O   0  0  0  0  0  0  0  0  0  0  0  0
   -8.7698   -2.9992   -6.8805 O   0  0  0  0  0  0  0  0  0  0  0  0
  1  2  1  0  0  0  0
  1 22  1  1  0  0  0
  1 10  1  0  0  0  0
  2  3  1  0  0  0  0
  2  7  1  1  0  0  0
  3  4  1  0  0  0  0
  3  8  1  6  0  0  0
  4  5  1  0  0  0  0
  4  9  1  1  0  0  0
  5  6  1  6  0  0  0
  5 10  1  0  0  0  0
  6 11  1  0  0  0  0
 12 13  1  0  0  0  0
 12 17  1  0  0  0  0
 12 18  1  1  0  0  0
 13 14  1  0  0  0  0
 14 15  1  0  0  0  0
 14 19  1  1  0  0  0
 15 16  1  0  0  0  0
 15 21  1  6  0  0  0
 16 17  1  0  0  0  0
 16 20  1  1  0  0  0
 17 22  1  6  0  0  0
 23 21  1  6  0  0  0
 23 24  1  0  0  0  0
 23 32  1  0  0  0  0
 24 25  1  0  0  0  0
 24 29  1  6  0  0  0
 25 26  1  0  0  0  0
 26 27  1  0  0  0  0
 26 31  1  1  0  0  0
 27 28  1  1  0  0  0
 27 32  1  0  0  0  0
 28 30  1  0  0  0  0
M  CHG  5   8   1  18   1  19   1  29   1  30   1
M  END
>  <CHROM.1>
-134.43296895,179.35964336,-72.50917276,175.92523550,-173.83888799,-42.94689748
90.73970345,-39.20702237,-147.75241920,-174.09701430,-68.93046811,121.16398060
146.45092369,178.76258871,76.63434689,-159.97216191,-7.42085365,-0.54395511
-8.73726175,-0.64638626,-0.37523574,2.80253676

>  <Name>
2tob cryst

>  <RI>
0

>  <Rbt.Current_Directory>
/home/itssahil/PROJECTS/Mol_Feturizer/New_Systems/rnas/2tob

>  <Rbt.Executable>
rbdock ($Id: //depot/dev/client3/rdock/2013.1/src/exe/rbdock.cxx#4 $)

>  <Rbt.Library>
libRbt.so (2013.1, Build901 2013/11/27)

>  <Rbt.Parameter_File>
/export/apps/rDock/src/rDock_2013.1_src/data/scripts/dock_solv.prm

>  <Rbt.Receptor>
prm/blind_docking_80.prm

>  <SCORE>
-2.34425

>  <SCORE.INTER>
-0.70448

>  <SCORE.INTER.CONST>
1

>  <SCORE.INTER.POLAR>
-6.34461

>  <SCORE.INTER.ROT>
6

>  <SCORE.INTER.SOLV>
40.43

>  <SCORE.INTER.VDW>
-0.397625

>  <SCORE.INTER.norm>
-0.022015

>  <SCORE.INTRA>
-9.21416

>  <SCORE.INTRA.DIHEDRAL>
8.30987

>  <SCORE.INTRA.DIHEDRAL.0>
18.4221

>  <SCORE.INTRA.POLAR>
0.478207

>  <SCORE.INTRA.POLAR.0>
-1.57101

>  <SCORE.INTRA.REPUL>
-0.598307

>  <SCORE.INTRA.REPUL.0>
0.730195

>  <SCORE.INTRA.SOLV>
-3.04001

>  <SCORE.INTRA.SOLV.lig_0>
-127.221

>  <SCORE.INTRA.VDW>
-10.4835

>  <SCORE.INTRA.VDW.0>
10.8385

>  <SCORE.INTRA.norm>
-0.287943

>  <SCORE.RESTR>
7.57439

>  <SCORE.RESTR.CAVITY>
7.57439

>  <SCORE.RESTR.norm>
0.2367

>  <SCORE.SYSTEM>
0

>  <SCORE.SYSTEM.CONST>
0

>  <SCORE.SYSTEM.DIHEDRAL>
0

>  <SCORE.SYSTEM.SOLV>
0

>  <SCORE.SYSTEM.norm>
0

>  <SCORE.heavy>
32

>  <SCORE.norm>
-0.0732579

>  <RMSD>
4.762

$$$$
2tob cryst
 OpenBabel11021811463D
libRbt.so/2013.1/901 2013/11/27
 32 34  0  0  0  0  0  0  0  0999 V2000
   -7.1630   -0.0364  -10.0376 C   0  0  2  0  0  0  0  0  0  0  0  0
   -5.7809    0.1557  -10.6541 C   0  0  1  0  0  0  0  0  0  0  0  0
   -5.0932    1.3380   -9.9708 C   0  0  2  0  0  0  0  0  0  0  0  0
   -5.9664    2.5974  -10.0483 C   0  0  1  0  0  0  0  0  0  0  0  0
   -7.3756    2.2904   -9.5299 C   0  0  1  0  0  0  0  0  0  0  0  0
   -8.3666    3.4307   -9.6966 C   0  0  0  0  0  0  0  0  0  0  0  0
   -5.0010   -1.0241  -10.4795 O   0  0  0  0  0  0  0  0  0  0  0  0
   -3.7220    1.7086  -10.4442 N   0  3  0  0  0  0  0  0  0  0  0  0
   -5.3727    3.6208   -9.2594 O   0  0  0  0  0  0  0  0  0  0  0  0
   -7.9156    1.1475  -10.2231 O   0  0  0  0  0  0  0  0  0  0  0  0
   -9.5573    2.9785  -10.3334 O   0  0  0  0  0  0  0  0  0  0  0  0
   -7.4206   -1.5712   -6.6503 C   0  0  2  0  0  0  0  0  0  0  0  0
   -8.4217   -2.3763   -5.8108 C   0  0  0  0  0  0  0  0  0  0  0  0
   -9.8375   -1.8143   -5.9055 C   0  0  1  0  0  0  0  0  0  0  0  0
  -10.2491   -1.7912   -7.3711 C   0  0  2  0  0  0  0  0  0  0  0  0
   -9.3362   -0.8345   -8.1420 C   0  0  1  0  0  0  0  0  0  0  0  0
   -7.8785   -1.3256   -8.0967 C   0  0  1  0  0  0  0  0  0  0  0  0
   -6.0817   -2.2510   -6.6718 N   0  3  0  0  0  0  0  0  0  0  0  0
  -10.7939   -2.6229   -5.0810 N   0  3  0  0  0  0  0  0  0  0  0  0
   -9.7825   -0.7400   -9.4888 O   0  0  0  0  0  0  0  0  0  0  0  0
  -11.6208   -1.3758   -7.5031 O   0  0  0  0  0  0  0  0  0  0  0  0
   -7.0099   -0.3293   -8.6751 O   0  0  0  0  0  0  0  0  0  0  0  0
  -12.1449   -1.5830   -8.7857 C   0  0  2  0  0  0  0  0  0  0  0  0
  -13.2307   -0.5426   -9.0800 C   0  0  1  0  0  0  0  0  0  0  0  0
  -14.5149   -0.8574   -8.3122 C   0  0  0  0  0  0  0  0  0  0  0  0
  -14.9249   -2.2921   -8.6030 C   0  0  1  0  0  0  0  0  0  0  0  0
  -13.7975   -3.2256   -8.1978 C   0  0  1  0  0  0  0  0  0  0  0  0
  -14.1505   -4.6786   -8.4594 C   0  0  0  0  0  0  0  0  0  0  0  0
  -12.7394    0.8163   -8.6855 N   0  3  0  0  0  0  0  0  0  0  0  0
  -13.5873   -5.0600   -9.8011 N   0  3  0  0  0  0  0  0  0  0  0  0
  -16.1083   -2.6218   -7.8895 O   0  0  0  0  0  0  0  0  0  0  0  0
  -12.6224   -2.9122   -8.9644 O   0  0  0  0  0  0  0  0  0  0  0  0
  1  2  1  0  0  0  0
  1 22  1  1  0  0  0
  1 10  1  0  0  0  0
  2  3  1  0  0  0  0
  2  7  1  1  0  0  0
  3  4  1  0  0  0  0
  3  8  1  6  0  0  0
  4  5  1  0  0  0  0
  4  9  1  1  0  0  0
  5  6  1  6  0  0  0
  5 10  1  0  0  0  0
  6 11  1  0  0  0  0
 12 13  1  0  0  0  0
 12 17  1  0  0  0  0
 12 18  1  6  0  0  0
 13 14  1  0  0  0  0
 14 15  1  0  0  0  0
 14 19  1  1  0  0  0
 15 16  1  0  0  0  0
 15 21  1  1  0  0  0
 16 17  1  0  0  0  0
 16 20  1  6  0  0  0
 17 22  1  1  0  0  0
 23 21  1  1  0  0  0
 23 24  1  0  0  0  0
 23 32  1  0  0  0  0
 24 25  1  0  0  0  0
 24 29  1  1  0  0  0
 25 26  1  0  0  0  0
 26 27  1  0  0  0  0
 26 31  1  1  0  0  0
 27 28  1  6  0  0  0
 27 32  1  0  0  0  0
 28 30  1  0  0  0  0
M  CHG  5   8   1  18   1  19   1  29   1  30   1
M  END
>  <CHROM.1>
-140.34915680,159.29882352,-134.39274283,-44.09815883,128.88485283,-56.50854269
51.32828715,75.21144860,-168.09947469,159.17576012,174.11726859,-150.86054374
-34.71728878,-178.07052106,95.28940765,169.73102255,-9.59560739,-0.67785286
-8.66844068,0.49263403,-0.10769598,-0.54825353

>  <Name>
2tob cryst

>  <RI>
0

>  <Rbt.Current_Directory>
/home/itssahil/PROJECTS/Mol_Feturizer/New_Systems/rnas/2tob

>  <Rbt.Executable>
rbdock ($Id: //depot/dev/client3/rdock/2013.1/src/exe/rbdock.cxx#4 $)

>  <Rbt.Library>
libRbt.so (2013.1, Build901 2013/11/27)

>  <Rbt.Parameter_File>
/export/apps/rDock/src/rDock_2013.1_src/data/scripts/dock_solv.prm

>  <Rbt.Receptor>
prm/blind_docking_100.prm

>  <SCORE>
41.0702

>  <SCORE.INTER>
48.8549

>  <SCORE.INTER.CONST>
1

>  <SCORE.INTER.POLAR>
-5.81048

>  <SCORE.INTER.ROT>
6

>  <SCORE.INTER.SOLV>
48.0495

>  <SCORE.INTER.VDW>
28.3217

>  <SCORE.INTER.norm>
1.52672

>  <SCORE.INTRA>
-11.5465

>  <SCORE.INTRA.DIHEDRAL>
10.1403

>  <SCORE.INTRA.DIHEDRAL.0>
18.4221

>  <SCORE.INTRA.POLAR>
0.360481

>  <SCORE.INTRA.POLAR.0>
-1.57101

>  <SCORE.INTRA.REPUL>
-0.730195

>  <SCORE.INTRA.REPUL.0>
0.730195

>  <SCORE.INTRA.SOLV>
-7.30566

>  <SCORE.INTRA.SOLV.lig_0>
-127.221

>  <SCORE.INTRA.VDW>
-10.5385

>  <SCORE.INTRA.VDW.0>
10.8385

>  <SCORE.INTRA.norm>
-0.360828

>  <SCORE.RESTR>
3.76183

>  <SCORE.RESTR.CAVITY>
3.76183

>  <SCORE.RESTR.norm>
0.117557

>  <SCORE.SYSTEM>
0

>  <SCORE.SYSTEM.CONST>
0

>  <SCORE.SYSTEM.DIHEDRAL>
0

>  <SCORE.SYSTEM.SOLV>
0

>  <SCORE.SYSTEM.norm>
0

>  <SCORE.heavy>
32

>  <SCORE.norm>
1.28344

>  <RMSD>
4.766

$$$$
2tob cryst
 OpenBabel11021811463D
libRbt.so/2013.1/901 2013/11/27
 32 34  0  0  0  0  0  0  0  0999 V2000
   -6.6101    0.1368  -10.3976 C   0  0  2  0  0  0  0  0  0  0  0  0
   -5.2591    0.6552  -10.8802 C   0  0  1  0  0  0  0  0  0  0  0  0
   -4.8351    1.8300   -9.9983 C   0  0  2  0  0  0  0  0  0  0  0  0
   -5.9208    2.9140   -9.9732 C   0  0  1  0  0  0  0  0  0  0  0  0
   -7.2727    2.2931   -9.6047 C   0  0  1  0  0  0  0  0  0  0  0  0
   -8.4477    3.2531   -9.6920 C   0  0  0  0  0  0  0  0  0  0  0  0
   -4.2843   -0.3817  -10.8057 O   0  0  0  0  0  0  0  0  0  0  0  0
   -3.5345    2.5000  -10.3168 N   0  3  0  0  0  0  0  0  0  0  0  0
   -5.5649    3.9026   -9.0148 O   0  0  0  0  0  0  0  0  0  0  0  0
   -7.5583    1.1839  -10.4802 O   0  0  0  0  0  0  0  0  0  0  0  0
   -9.2875    3.1316   -8.5485 O   0  0  0  0  0  0  0  0  0  0  0  0
   -6.8183   -1.9027   -7.2964 C   0  0  2  0  0  0  0  0  0  0  0  0
   -7.8103   -2.7937   -6.5366 C   0  0  0  0  0  0  0  0  0  0  0  0
   -9.1813   -2.1388   -6.3931 C   0  0  1  0  0  0  0  0  0  0  0  0
   -9.7029   -1.8046   -7.7839 C   0  0  2  0  0  0  0  0  0  0  0  0
   -8.7815   -0.7731   -8.4398 C   0  0  1  0  0  0  0  0  0  0  0  0
   -7.3672   -1.3516   -8.6219 C   0  0  1  0  0  0  0  0  0  0  0  0
   -5.5419   -2.6455   -7.5687 N   0  3  0  0  0  0  0  0  0  0  0  0
  -10.1302   -3.0331   -5.6529 N   0  3  0  0  0  0  0  0  0  0  0  0
   -9.3229   -0.3900   -9.6976 O   0  0  0  0  0  0  0  0  0  0  0  0
  -11.0444   -1.2885   -7.7087 O   0  0  0  0  0  0  0  0  0  0  0  0
   -6.4717   -0.3163   -9.0780 O   0  0  0  0  0  0  0  0  0  0  0  0
  -11.7987   -1.5264   -8.8650 C   0  0  2  0  0  0  0  0  0  0  0  0
  -12.9820   -0.5547   -8.9252 C   0  0  1  0  0  0  0  0  0  0  0  0
  -14.0673   -0.9488   -7.9230 C   0  0  0  0  0  0  0  0  0  0  0  0
  -14.4396   -2.4058   -8.1457 C   0  0  1  0  0  0  0  0  0  0  0  0
  -13.2001   -3.2684   -7.9837 C   0  0  1  0  0  0  0  0  0  0  0  0
  -13.5096   -4.7401   -8.1893 C   0  0  0  0  0  0  0  0  0  0  0  0
  -12.5051    0.8315   -8.6178 N   0  3  0  0  0  0  0  0  0  0  0  0
  -13.4880   -5.0180   -9.6676 N   0  3  0  0  0  0  0  0  0  0  0  0
  -15.4360   -2.8086   -7.2168 O   0  0  0  0  0  0  0  0  0  0  0  0
  -12.2212   -2.8823   -8.9633 O   0  0  0  0  0  0  0  0  0  0  0  0
  1  2  1  0  0  0  0
  1 22  1  1  0  0  0
  1 10  1  0  0  0  0
  2  3  1  0  0  0  0
  2  7  1  1  0  0  0
  3  4  1  0  0  0  0
  3  8  1  6  0  0  0
  4  5  1  0  0  0  0
  4  9  1  1  0  0  0
  5  6  1  6  0  0  0
  5 10  1  0  0  0  0
  6 11  1  0  0  0  0
 12 13  1  0  0  0  0
 12 17  1  0  0  0  0
 12 18  1  6  0  0  0
 13 14  1  0  0  0  0
 14 15  1  0  0  0  0
 14 19  1  6  0  0  0
 15 16  1  0  0  0  0
 15 21  1  1  0  0  0
 16 17  1  0  0  0  0
 16 20  1  6  0  0  0
 17 22  1  1  0  0  0
 23 21  1  1  0  0  0
 23 24  1  0  0  0  0
 23 32  1  0  0  0  0
 24 25  1  0  0  0  0
 24 29  1  1  0  0  0
 25 26  1  0  0  0  0
 26 27  1  0  0  0  0
 26 31  1  1  0  0  0
 27 28  1  6  0  0  0
 27 32  1  0  0  0  0
 28 30  1  0  0  0  0
M  CHG  5   8   1  18   1  19   1  29   1  30   1
M  END
>  <CHROM.1>
-152.66698026,71.72135029,145.70150798,-0.30735473,-134.90738393,-59.96598141
11.31437015,-55.56033603,-152.43737524,-56.97252708,166.84515238,-159.80750167
-37.11277931,173.86755454,83.33229286,171.76269110,-9.19057692,-0.63295597
-8.72433483,-0.54713853,-0.04038760,2.83059279

>  <Name>
2tob cryst

>  <RI>
2.04895e+07

>  <Rbt.Current_Directory>
/home/itssahil/PROJECTS/Mol_Feturizer/New_Systems/rnas/2tob

>  <Rbt.Executable>
rbdock ($Id: //depot/dev/client3/rdock/2013.1/src/exe/rbdock.cxx#4 $)

>  <Rbt.Library>
libRbt.so (2013.1, Build901 2013/11/27)

>  <Rbt.Parameter_File>
/export/apps/rDock/src/rDock_2013.1_src/data/scripts/dock_solv.prm

>  <Rbt.Receptor>
prm/blind_docking_20.prm

>  <SCORE>
28.2093

>  <SCORE.INTER>
35.1242

>  <SCORE.INTER.CONST>
1

>  <SCORE.INTER.POLAR>
-6.94112

>  <SCORE.INTER.ROT>
6

>  <SCORE.INTER.SOLV>
47.1607

>  <SCORE.INTER.VDW>
23.233

>  <SCORE.INTER.norm>
1.09763

>  <SCORE.INTRA>
-8.8081

>  <SCORE.INTRA.DIHEDRAL>
11.6694

>  <SCORE.INTRA.DIHEDRAL.0>
18.4221

>  <SCORE.INTRA.POLAR>
1.28466

>  <SCORE.INTRA.POLAR.0>
-1.57101

>  <SCORE.INTRA.REPUL>
-0.730195

>  <SCORE.INTRA.REPUL.0>
0.730195

>  <SCORE.INTRA.SOLV>
-6.09343

>  <SCORE.INTRA.SOLV.lig_0>
-127.221

>  <SCORE.INTRA.VDW>
-12.3129

>  <SCORE.INTRA.VDW.0>
10.8385

>  <SCORE.INTRA.norm>
-0.275253

>  <SCORE.RESTR>
1.89326

>  <SCORE.RESTR.CAVITY>
1.89326

>  <SCORE.RESTR.norm>
0.0591644

>  <SCORE.SYSTEM>
0

>  <SCORE.SYSTEM.CONST>
0

>  <SCORE.SYSTEM.DIHEDRAL>
0

>  <SCORE.SYSTEM.SOLV>
0

>  <SCORE.SYSTEM.norm>
0

>  <SCORE.heavy>
32

>  <SCORE.norm>
0.881541

>  <RMSD>
4.774

$$$$
2tob cryst
 OpenBabel11021811463D
libRbt.so/2013.1/901 2013/11/27
 32 34  0  0  0  0  0  0  0  0999 V2000
   -6.3768   -0.0163  -10.6303 C   0  0  2  0  0  0  0  0  0  0  0  0
   -5.0693    0.7276  -10.8836 C   0  0  1  0  0  0  0  0  0  0  0  0
   -4.9036    1.8147   -9.8213 C   0  0  2  0  0  0  0  0  0  0  0  0
   -6.1264    2.7412   -9.7922 C   0  0  1  0  0  0  0  0  0  0  0  0
   -7.4090    1.9120   -9.6641 C   0  0  1  0  0  0  0  0  0  0  0  0
   -8.6913    2.7208   -9.7714 C   0  0  0  0  0  0  0  0  0  0  0  0
   -3.9723   -0.1799  -10.8218 O   0  0  0  0  0  0  0  0  0  0  0  0
   -3.6834    2.6788   -9.9003 N   0  3  0  0  0  0  0  0  0  0  0  0
   -6.0096    3.6262   -8.6853 O   0  0  0  0  0  0  0  0  0  0  0  0
   -7.4482    0.9058  -10.6957 O   0  0  0  0  0  0  0  0  0  0  0  0
   -8.4054    4.1107   -9.8905 O   0  0  0  0  0  0  0  0  0  0  0  0
   -6.8037   -2.4102   -7.8267 C   0  0  2  0  0  0  0  0  0  0  0  0
   -7.8762   -3.2963   -7.1788 C   0  0  0  0  0  0  0  0  0  0  0  0
   -9.1692   -2.5322   -6.9076 C   0  0  1  0  0  0  0  0  0  0  0  0
   -9.6668   -1.9465   -8.2218 C   0  0  2  0  0  0  0  0  0  0  0  0
   -8.6486   -0.9302   -8.7450 C   0  0  1  0  0  0  0  0  0  0  0  0
   -7.3049   -1.6178   -9.0444 C   0  0  1  0  0  0  0  0  0  0  0  0
   -5.6153   -3.2322   -8.2357 N   0  3  0  0  0  0  0  0  0  0  0  0
  -10.1994   -3.4231   -6.2805 N   0  3  0  0  0  0  0  0  0  0  0  0
   -9.1593   -0.3138   -9.9202 O   0  0  0  0  0  0  0  0  0  0  0  0
  -10.9457   -1.3121   -8.0390 O   0  0  0  0  0  0  0  0  0  0  0  0
   -6.3101   -0.6244   -9.3688 O   0  0  0  0  0  0  0  0  0  0  0  0
  -11.7651   -1.3725   -9.1738 C   0  0  2  0  0  0  0  0  0  0  0  0
  -12.9053   -0.3565   -9.0486 C   0  0  1  0  0  0  0  0  0  0  0  0
  -13.9572   -0.8328   -8.0465 C   0  0  0  0  0  0  0  0  0  0  0  0
  -14.4046   -2.2344   -8.4288 C   0  0  1  0  0  0  0  0  0  0  0  0
  -13.1984   -3.1573   -8.4424 C   0  0  1  0  0  0  0  0  0  0  0  0
  -13.5830   -4.5782   -8.8130 C   0  0  0  0  0  0  0  0  0  0  0  0
  -12.3526    0.9603   -8.5969 N   0  3  0  0  0  0  0  0  0  0  0  0
  -12.3172   -5.3579   -9.0430 N   0  3  0  0  0  0  0  0  0  0  0  0
  -15.3718   -2.7134   -7.5052 O   0  0  0  0  0  0  0  0  0  0  0  0
  -12.2519   -2.6879   -9.4174 O   0  0  0  0  0  0  0  0  0  0  0  0
  1  2  1  0  0  0  0
  1 22  1  1  0  0  0
  1 10  1  0  0  0  0
  2  3  1  0  0  0  0
  2  7  1  1  0  0  0
  3  4  1  0  0  0  0
  3  8  1  6  0  0  0
  4  5  1  0  0  0  0
  4  9  1  1  0  0  0
  5  6  1  6  0  0  0
  5 10  1  0  0  0  0
  6 11  1  0  0  0  0
 12 13  1  0  0  0  0
 12 17  1  0  0  0  0
 12 18  1  6  0  0  0
 13 14  1  0  0  0  0
 14 15  1  0  0  0  0
 14 19  1  6  0  0  0
 15 16  1  0  0  0  0
 15 21  1  1  0  0  0
 16 17  1  0  0  0  0
 16 20  1  6  0  0  0
 17 22  1  1  0  0  0
 23 21  1  1  0  0  0
 23 24  1  0  0  0  0
 23 32  1  0  0  0  0
 24 25  1  0  0  0  0
 24 29  1  1  0  0  0
 25 26  1  0  0  0  0
 26 27  1  0  0  0  0
 26 31  1  1  0  0  0
 27 28  1  6  0  0  0
 27 32  1  0  0  0  0
 28 30  1  0  0  0  0
M  CHG  5   8   1  18   1  19   1  29   1  30   1
M  END
>  <CHROM.1>
-166.54335295,65.04116834,-167.94484091,24.22183490,-3.52961125,67.64697686
135.24671623,74.99341272,-148.71816697,-60.41161091,163.92570558,-163.79973029
79.23194112,174.99191941,170.01126650,80.54304496,-9.09988725,-0.70523696
-8.96777624,-0.55377702,-0.07599585,2.90956223

>  <Name>
2tob cryst

>  <RI>
0

>  <Rbt.Current_Directory>
/home/itssahil/PROJECTS/Mol_Feturizer/New_Systems/rnas/2tob

>  <Rbt.Executable>
rbdock ($Id: //depot/dev/client3/rdock/2013.1/src/exe/rbdock.cxx#4 $)

>  <Rbt.Library>
libRbt.so (2013.1, Build901 2013/11/27)

>  <Rbt.Parameter_File>
/export/apps/rDock/src/rDock_2013.1_src/data/scripts/dock_solv.prm

>  <Rbt.Receptor>
prm/blind_docking_100.prm

>  <SCORE>
57.2125

>  <SCORE.INTER>
61.1167

>  <SCORE.INTER.CONST>
1

>  <SCORE.INTER.POLAR>
-6.46211

>  <SCORE.INTER.ROT>
6

>  <SCORE.INTER.SOLV>
49.191

>  <SCORE.INTER.VDW>
38.2878

>  <SCORE.INTER.norm>
1.9099

>  <SCORE.INTRA>
-6.72796

>  <SCORE.INTRA.DIHEDRAL>
5.2774

>  <SCORE.INTRA.DIHEDRAL.0>
18.4221

>  <SCORE.INTRA.POLAR>
1.16995

>  <SCORE.INTRA.POLAR.0>
-1.57101

>  <SCORE.INTRA.REPUL>
-0.710563

>  <SCORE.INTRA.REPUL.0>
0.730195

>  <SCORE.INTRA.SOLV>
-5.17631

>  <SCORE.INTRA.SOLV.lig_0>
-127.221

>  <SCORE.INTRA.VDW>
-7.20351

>  <SCORE.INTRA.VDW.0>
10.8385

>  <SCORE.INTRA.norm>
-0.210249

>  <SCORE.RESTR>
2.8237

>  <SCORE.RESTR.CAVITY>
2.8237

>  <SCORE.RESTR.norm>
0.0882406

>  <SCORE.SYSTEM>
0

>  <SCORE.SYSTEM.CONST>
0

>  <SCORE.SYSTEM.DIHEDRAL>
0

>  <SCORE.SYSTEM.SOLV>
0

>  <SCORE.SYSTEM.norm>
0

>  <SCORE.heavy>
32

>  <SCORE.norm>
1.78789

>  <RMSD>
4.847

$$$$
2tob cryst
 OpenBabel11021811463D
libRbt.so/2013.1/901 2013/11/27
 32 34  0  0  0  0  0  0  0  0999 V2000
   -6.3831    0.1362  -10.6546 C   0  0  2  0  0  0  0  0  0  0  0  0
   -5.0422    0.6189  -11.1989 C   0  0  1  0  0  0  0  0  0  0  0  0
   -4.5031    1.7192  -10.2844 C   0  0  2  0  0  0  0  0  0  0  0  0
   -5.5292    2.8490  -10.1252 C   0  0  1  0  0  0  0  0  0  0  0  0
   -6.8834    2.2708   -9.7003 C   0  0  1  0  0  0  0  0  0  0  0  0
   -8.0121    3.2876   -9.6540 C   0  0  0  0  0  0  0  0  0  0  0  0
   -4.1178   -0.4645  -11.2485 O   0  0  0  0  0  0  0  0  0  0  0  0
   -3.1942    2.3458  -10.6533 N   0  3  0  0  0  0  0  0  0  0  0  0
   -5.0622    3.7622   -9.1402 O   0  0  0  0  0  0  0  0  0  0  0  0
   -7.2810    1.2292  -10.6143 O   0  0  0  0  0  0  0  0  0  0  0  0
   -8.9759    2.9305   -8.6685 O   0  0  0  0  0  0  0  0  0  0  0  0
   -6.6175   -1.9176   -7.5539 C   0  0  2  0  0  0  0  0  0  0  0  0
   -7.6616   -2.7124   -6.7582 C   0  0  0  0  0  0  0  0  0  0  0  0
   -8.9741   -1.9488   -6.6049 C   0  0  1  0  0  0  0  0  0  0  0  0
   -9.4942   -1.6023   -7.9932 C   0  0  2  0  0  0  0  0  0  0  0  0
   -8.5073   -0.6598   -8.6868 C   0  0  1  0  0  0  0  0  0  0  0  0
   -7.1465   -1.3514   -8.8811 C   0  0  1  0  0  0  0  0  0  0  0  0
   -5.4086   -2.7640   -7.8324 N   0  3  0  0  0  0  0  0  0  0  0  0
   -9.9760   -2.7507   -5.8294 N   0  3  0  0  0  0  0  0  0  0  0  0
   -9.0408   -0.2604   -9.9429 O   0  0  0  0  0  0  0  0  0  0  0  0
  -10.7894   -0.9807   -7.9058 O   0  0  0  0  0  0  0  0  0  0  0  0
   -6.1814   -0.3992   -9.3746 O   0  0  0  0  0  0  0  0  0  0  0  0
  -11.6184   -1.2637   -8.9991 C   0  0  2  0  0  0  0  0  0  0  0  0
  -12.8509   -0.3537   -8.9688 C   0  0  1  0  0  0  0  0  0  0  0  0
  -13.8332   -0.7961   -7.8840 C   0  0  0  0  0  0  0  0  0  0  0  0
  -14.1469   -2.2714   -8.0737 C   0  0  1  0  0  0  0  0  0  0  0  0
  -12.8561   -3.0690   -8.0071 C   0  0  1  0  0  0  0  0  0  0  0  0
  -13.1052   -4.5558   -8.1847 C   0  0  0  0  0  0  0  0  0  0  0  0
  -12.4228    1.0568   -8.7026 N   0  3  0  0  0  0  0  0  0  0  0  0
  -12.8266   -4.9060   -9.6209 N   0  3  0  0  0  0  0  0  0  0  0  0
  -15.0461   -2.7185   -7.0689 O   0  0  0  0  0  0  0  0  0  0  0  0
  -11.9775   -2.6399   -9.0610 O   0  0  0  0  0  0  0  0  0  0  0  0
  1  2  1  0  0  0  0
  1 22  1  1  0  0  0
  1 10  1  0  0  0  0
  2  3  1  0  0  0  0
  2  7  1  1  0  0  0
  3  4  1  0  0  0  0
  3  8  1  6  0  0  0
  4  5  1  0  0  0  0
  4  9  1  1  0  0  0
  5  6  1  6  0  0  0
  5 10  1  0  0  0  0
  6 11  1  0  0  0  0
 12 13  1  0  0  0  0
 12 17  1  0  0  0  0
 12 18  1  6  0  0  0
 13 14  1  0  0  0  0
 14 15  1  0  0  0  0
 14 19  1  6  0  0  0
 15 16  1  0  0  0  0
 15 21  1  1  0  0  0
 16 17  1  0  0  0  0
 16 20  1  6  0  0  0
 17 22  1  1  0  0  0
 23 21  1  1  0  0  0
 23 24  1  0  0  0  0
 23 32  1  0  0  0  0
 24 25  1  0  0  0  0
 24 29  1  1  0  0  0
 25 26  1  0  0  0  0
 26 27  1  0  0  0  0
 26 31  1  1  0  0  0
 27 28  1  6  0  0  0
 27 32  1  0  0  0  0
 28 30  1  0  0  0  0
M  CHG  5   8   1  18   1  19   1  29   1  30   1
M  END
>  <CHROM.1>
-156.71112170,-55.62473447,12.26344439,73.76811560,-150.06942492,-55.63480133
-113.67810076,-48.02401382,-147.95932003,68.02550749,172.96535203,-168.73065222
-40.36699110,-179.15518192,98.02645504,179.30474327,-8.91032330,-0.56317840
-8.87462247,-0.52316268,-0.10568814,2.86593654

>  <Name>
2tob cryst

>  <RI>
2.04895e+07

>  <Rbt.Current_Directory>
/home/itssahil/PROJECTS/Mol_Feturizer/New_Systems/rnas/2tob

>  <Rbt.Executable>
rbdock ($Id: //depot/dev/client3/rdock/2013.1/src/exe/rbdock.cxx#4 $)

>  <Rbt.Library>
libRbt.so (2013.1, Build901 2013/11/27)

>  <Rbt.Parameter_File>
/export/apps/rDock/src/rDock_2013.1_src/data/scripts/dock_solv.prm

>  <Rbt.Receptor>
prm/blind_docking_20.prm

>  <SCORE>
24.4107

>  <SCORE.INTER>
33.3792

>  <SCORE.INTER.CONST>
1

>  <SCORE.INTER.POLAR>
-6.3444

>  <SCORE.INTER.ROT>
6

>  <SCORE.INTER.SOLV>
47.0309

>  <SCORE.INTER.VDW>
20.1239

>  <SCORE.INTER.norm>
1.0431

>  <SCORE.INTRA>
-11.0366

>  <SCORE.INTRA.DIHEDRAL>
4.48909

>  <SCORE.INTRA.DIHEDRAL.0>
18.4221

>  <SCORE.INTRA.POLAR>
1.37898

>  <SCORE.INTRA.POLAR.0>
-1.57101

>  <SCORE.INTRA.REPUL>
-0.730195

>  <SCORE.INTRA.REPUL.0>
0.730195

>  <SCORE.INTRA.SOLV>
-5.69438

>  <SCORE.INTRA.SOLV.lig_0>
-127.221

>  <SCORE.INTRA.VDW>
-11.4715

>  <SCORE.INTRA.VDW.0>
10.8385

>  <SCORE.INTRA.norm>
-0.344894

>  <SCORE.RESTR>
2.06804

>  <SCORE.RESTR.CAVITY>
2.06804

>  <SCORE.RESTR.norm>
0.0646261

>  <SCORE.SYSTEM>
0

>  <SCORE.SYSTEM.CONST>
0

>  <SCORE.SYSTEM.DIHEDRAL>
0

>  <SCORE.SYSTEM.SOLV>
0

>  <SCORE.SYSTEM.norm>
0

>  <SCORE.heavy>
32

>  <SCORE.norm>
0.762834

>  <RMSD>
4.866

$$$$
2tob cryst
 OpenBabel11021811463D
libRbt.so/2013.1/901 2013/11/27
 32 34  0  0  0  0  0  0  0  0999 V2000
  -11.3191   -1.8362   -7.3643 C   0  0  2  0  0  0  0  0  0  0  0  0
  -11.5372   -0.6198   -8.2587 C   0  0  1  0  0  0  0  0  0  0  0  0
  -10.1811    0.0093   -8.5795 C   0  0  2  0  0  0  0  0  0  0  0  0
   -9.4138    0.3394   -7.2923 C   0  0  1  0  0  0  0  0  0  0  0  0
   -9.3476   -0.8976   -6.3900 C   0  0  1  0  0  0  0  0  0  0  0  0
   -8.7344   -0.6437   -5.0226 C   0  0  0  0  0  0  0  0  0  0  0  0
  -12.1856   -1.0122   -9.4655 O   0  0  0  0  0  0  0  0  0  0  0  0
  -10.1732    1.2361   -9.4378 N   0  3  0  0  0  0  0  0  0  0  0  0
   -8.0991    0.7609   -7.6331 O   0  0  0  0  0  0  0  0  0  0  0  0
  -10.6738   -1.4204   -6.1755 O   0  0  0  0  0  0  0  0  0  0  0  0
   -8.5556   -1.8650   -4.3126 O   0  0  0  0  0  0  0  0  0  0  0  0
  -10.4935   -4.4847   -6.3654 C   0  0  2  0  0  0  0  0  0  0  0  0
  -11.0088   -5.8527   -5.8982 C   0  0  0  0  0  0  0  0  0  0  0  0
  -12.4755   -6.0708   -6.2594 C   0  0  1  0  0  0  0  0  0  0  0  0
  -12.6283   -5.9160   -7.7662 C   0  0  2  0  0  0  0  0  0  0  0  0
  -12.2774   -4.4816   -8.1695 C   0  0  1  0  0  0  0  0  0  0  0  0
  -10.8072   -4.1720   -7.8370 C   0  0  1  0  0  0  0  0  0  0  0  0
   -9.0114   -4.3762   -6.1493 N   0  3  0  0  0  0  0  0  0  0  0  0
  -12.9495   -7.4159   -5.7964 N   0  3  0  0  0  0  0  0  0  0  0  0
  -12.5139   -4.3123   -9.5614 O   0  0  0  0  0  0  0  0  0  0  0  0
  -13.9744   -6.2255   -8.1710 O   0  0  0  0  0  0  0  0  0  0  0  0
  -10.5410   -2.7716   -8.0608 O   0  0  0  0  0  0  0  0  0  0  0  0
  -14.1723   -7.5827   -8.4566 C   0  0  2  0  0  0  0  0  0  0  0  0
  -14.3836   -7.7735   -9.9623 C   0  0  1  0  0  0  0  0  0  0  0  0
  -15.7742   -7.3000  -10.3857 C   0  0  0  0  0  0  0  0  0  0  0  0
  -16.8154   -7.9836   -9.5142 C   0  0  1  0  0  0  0  0  0  0  0  0
  -16.5409   -7.6546   -8.0571 C   0  0  1  0  0  0  0  0  0  0  0  0
  -17.5544   -8.3063   -7.1340 C   0  0  0  0  0  0  0  0  0  0  0  0
  -13.3467   -6.9966  -10.7138 N   0  3  0  0  0  0  0  0  0  0  0  0
  -17.3344   -9.7938   -7.1775 N   0  3  0  0  0  0  0  0  0  0  0  0
  -18.1203   -7.5510   -9.8721 O   0  0  0  0  0  0  0  0  0  0  0  0
  -15.2378   -8.1434   -7.6969 O   0  0  0  0  0  0  0  0  0  0  0  0
  1  2  1  0  0  0  0
  1 22  1  6  0  0  0
  1 10  1  0  0  0  0
  2  3  1  0  0  0  0
  2  7  1  6  0  0  0
  3  4  1  0  0  0  0
  3  8  1  1  0  0  0
  4  5  1  0  0  0  0
  4  9  1  6  0  0  0
  5  6  1  1  0  0  0
  5 10  1  0  0  0  0
  6 11  1  0  0  0  0
 12 13  1  0  0  0  0
 12 17  1  0  0  0  0
 12 18  1  6  0  0  0
 13 14  1  0  0  0  0
 14 15  1  0  0  0  0
 14 19  1  6  0  0  0
 15 16  1  0  0  0  0
 15 21  1  1  0  0  0
 16 17  1  0  0  0  0
 16 20  1  6  0  0  0
 17 22  1  1  0  0  0
 23 21  1  6  0  0  0
 23 24  1  0  0  0  0
 23 32  1  0  0  0  0
 24 25  1  0  0  0  0
 24 29  1  6  0  0  0
 25 26  1  0  0  0  0
 26 27  1  0  0  0  0
 26 31  1  6  0  0  0
 27 28  1  1  0  0  0
 27 32  1  0  0  0  0
 28 30  1  0  0  0  0
M  CHG  5   8   1  18   1  19   1  29   1  30   1
M  END
>  <CHROM.1>
-145.33152709,-177.19776993,120.30477968,176.91156364,-172.71662749,177.51982095
-11.29023732,-173.61055610,-88.54023223,-125.22232272,-63.81537375,-110.10860408
-54.28598624,-56.10816854,68.07312538,-159.16997906,-12.42969591,-4.39769315
-7.78673062,0.49118640,-0.73554053,-0.70559567

>  <Name>
2tob cryst

>  <RI>
2.10184e+07

>  <Rbt.Current_Directory>
/home/itssahil/PROJECTS/Mol_Feturizer/New_Systems/rnas/2tob

>  <Rbt.Executable>
rbdock ($Id: //depot/dev/client3/rdock/2013.1/src/exe/rbdock.cxx#4 $)

>  <Rbt.Library>
libRbt.so (2013.1, Build901 2013/11/27)

>  <Rbt.Parameter_File>
/export/apps/rDock/src/rDock_2013.1_src/data/scripts/dock_solv.prm

>  <Rbt.Receptor>
prm/pocket_docking_7.prm

>  <SCORE>
-44.1269

>  <SCORE.INTER>
-27.2487

>  <SCORE.INTER.CONST>
1

>  <SCORE.INTER.POLAR>
-4.44749

>  <SCORE.INTER.ROT>
6

>  <SCORE.INTER.SOLV>
17.3374

>  <SCORE.INTER.VDW>
-16.72

>  <SCORE.INTER.norm>
-0.851523

>  <SCORE.INTRA>
-16.8782

>  <SCORE.INTRA.DIHEDRAL>
11.7367

>  <SCORE.INTRA.DIHEDRAL.0>
18.4221

>  <SCORE.INTRA.POLAR>
-1.81611

>  <SCORE.INTRA.POLAR.0>
-1.57101

>  <SCORE.INTRA.REPUL>
-0.730195

>  <SCORE.INTRA.REPUL.0>
0.730195

>  <SCORE.INTRA.SOLV>
-0.735166

>  <SCORE.INTRA.SOLV.lig_0>
-127.221

>  <SCORE.INTRA.VDW>
-12.5532

>  <SCORE.INTRA.VDW.0>
10.8385

>  <SCORE.INTRA.norm>
-0.527443

>  <SCORE.RESTR>
0

>  <SCORE.RESTR.CAVITY>
0

>  <SCORE.RESTR.norm>
0

>  <SCORE.SYSTEM>
0

>  <SCORE.SYSTEM.CONST>
0

>  <SCORE.SYSTEM.DIHEDRAL>
0

>  <SCORE.SYSTEM.SOLV>
0

>  <SCORE.SYSTEM.norm>
0

>  <SCORE.heavy>
32

>  <SCORE.norm>
-1.37897

>  <RMSD>
4.871

$$$$
2tob cryst
 OpenBabel11021811463D
libRbt.so/2013.1/901 2013/11/27
 32 34  0  0  0  0  0  0  0  0999 V2000
   -6.3307    0.1204  -10.4810 C   0  0  2  0  0  0  0  0  0  0  0  0
   -4.8984    0.4090  -10.9194 C   0  0  1  0  0  0  0  0  0  0  0  0
   -4.3795    1.6237  -10.1493 C   0  0  2  0  0  0  0  0  0  0  0  0
   -5.3166    2.8254  -10.3285 C   0  0  1  0  0  0  0  0  0  0  0  0
   -6.7563    2.4218   -9.9916 C   0  0  1  0  0  0  0  0  0  0  0  0
   -7.7912    3.4984  -10.2745 C   0  0  0  0  0  0  0  0  0  0  0  0
   -4.0708   -0.7206  -10.6550 O   0  0  0  0  0  0  0  0  0  0  0  0
   -2.9872    2.0878  -10.4461 N   0  3  0  0  0  0  0  0  0  0  0  0
   -4.8935    3.8742   -9.4663 O   0  0  0  0  0  0  0  0  0  0  0  0
   -7.1302    1.2560  -10.7527 O   0  0  0  0  0  0  0  0  0  0  0  0
   -8.9056    3.3732   -9.3969 O   0  0  0  0  0  0  0  0  0  0  0  0
   -6.7478   -1.6882   -7.2781 C   0  0  2  0  0  0  0  0  0  0  0  0
   -7.7733   -2.5337   -6.5109 C   0  0  0  0  0  0  0  0  0  0  0  0
   -9.1376   -1.8543   -6.4316 C   0  0  1  0  0  0  0  0  0  0  0  0
   -9.6163   -1.5692   -7.8485 C   0  0  2  0  0  0  0  0  0  0  0  0
   -8.6619   -0.5782   -8.5195 C   0  0  1  0  0  0  0  0  0  0  0  0
   -7.2522   -1.1835   -8.6393 C   0  0  1  0  0  0  0  0  0  0  0  0
   -5.4759   -2.4594   -7.4852 N   0  3  0  0  0  0  0  0  0  0  0  0
  -10.1196   -2.7045   -5.6826 N   0  3  0  0  0  0  0  0  0  0  0  0
   -9.1633   -0.2388   -9.8061 O   0  0  0  0  0  0  0  0  0  0  0  0
  -10.9513   -1.0317   -7.8311 O   0  0  0  0  0  0  0  0  0  0  0  0
   -6.3291   -0.1802   -9.1116 O   0  0  0  0  0  0  0  0  0  0  0  0
  -11.6586   -1.2574   -9.0191 C   0  0  2  0  0  0  0  0  0  0  0  0
  -12.8855   -0.3412   -9.0780 C   0  0  1  0  0  0  0  0  0  0  0  0
  -13.9795   -0.8271   -8.1270 C   0  0  0  0  0  0  0  0  0  0  0  0
  -14.2738   -2.2897   -8.4188 C   0  0  1  0  0  0  0  0  0  0  0  0
  -12.9991   -3.0985   -8.2521 C   0  0  1  0  0  0  0  0  0  0  0  0
  -13.2306   -4.5735   -8.5255 C   0  0  0  0  0  0  0  0  0  0  0  0
  -12.4858    1.0523   -8.7011 N   0  3  0  0  0  0  0  0  0  0  0  0
  -11.8983   -5.2705   -8.4764 N   0  3  0  0  0  0  0  0  0  0  0  0
  -15.2765   -2.7770   -7.5385 O   0  0  0  0  0  0  0  0  0  0  0  0
  -12.0116   -2.6266   -9.1842 O   0  0  0  0  0  0  0  0  0  0  0  0
  1  2  1  0  0  0  0
  1 22  1  1  0  0  0
  1 10  1  0  0  0  0
  2  3  1  0  0  0  0
  2  7  1  1  0  0  0
  3  4  1  0  0  0  0
  3  8  1  6  0  0  0
  4  5  1  0  0  0  0
  4  9  1  1  0  0  0
  5  6  1  6  0  0  0
  5 10  1  0  0  0  0
  6 11  1  0  0  0  0
 12 13  1  0  0  0  0
 12 17  1  0  0  0  0
 12 18  1  6  0  0  0
 13 14  1  0  0  0  0
 14 15  1  0  0  0  0
 14 19  1  6  0  0  0
 15 16  1  0  0  0  0
 15 21  1  1  0  0  0
 16 17  1  0  0  0  0
 16 20  1  6  0  0  0
 17 22  1  1  0  0  0
 23 21  1  1  0  0  0
 23 24  1  0  0  0  0
 23 32  1  0  0  0  0
 24 25  1  0  0  0  0
 24 29  1  1  0  0  0
 25 26  1  0  0  0  0
 26 27  1  0  0  0  0
 26 31  1  1  0  0  0
 27 28  1  6  0  0  0
 27 32  1  0  0  0  0
 28 30  1  0  0  0  0
M  CHG  5   8   1  18   1  19   1  29   1  30   1
M  END
>  <CHROM.1>
-143.90739923,74.13258891,101.89205567,67.96242736,-151.32790175,-60.65626718
16.17800473,72.88047754,-154.94189450,-49.10851696,160.32374232,-164.19570443
-155.47579572,176.49939855,174.28957664,-43.63782639,-8.90071475,-0.54051371
-8.85418227,-0.53582075,-0.03702675,2.76624969

>  <Name>
2tob cryst

>  <RI>
0

>  <Rbt.Current_Directory>
/home/itssahil/PROJECTS/Mol_Feturizer/New_Systems/rnas/2tob

>  <Rbt.Executable>
rbdock ($Id: //depot/dev/client3/rdock/2013.1/src/exe/rbdock.cxx#4 $)

>  <Rbt.Library>
libRbt.so (2013.1, Build901 2013/11/27)

>  <Rbt.Parameter_File>
/export/apps/rDock/src/rDock_2013.1_src/data/scripts/dock_solv.prm

>  <Rbt.Receptor>
prm/blind_docking_80.prm

>  <SCORE>
16.5351

>  <SCORE.INTER>
27.2603

>  <SCORE.INTER.CONST>
1

>  <SCORE.INTER.POLAR>
-6.57823

>  <SCORE.INTER.ROT>
6

>  <SCORE.INTER.SOLV>
47.3064

>  <SCORE.INTER.VDW>
16.7321

>  <SCORE.INTER.norm>
0.851883

>  <SCORE.INTRA>
-14.7536

>  <SCORE.INTRA.DIHEDRAL>
4.52103

>  <SCORE.INTRA.DIHEDRAL.0>
18.4221

>  <SCORE.INTRA.POLAR>
1.20671

>  <SCORE.INTRA.POLAR.0>
-1.57101

>  <SCORE.INTRA.REPUL>
-0.730195

>  <SCORE.INTRA.REPUL.0>
0.730195

>  <SCORE.INTRA.SOLV>
-7.01106

>  <SCORE.INTRA.SOLV.lig_0>
-127.221

>  <SCORE.INTRA.VDW>
-13.9604

>  <SCORE.INTRA.VDW.0>
10.8385

>  <SCORE.INTRA.norm>
-0.461049

>  <SCORE.RESTR>
4.02841

>  <SCORE.RESTR.CAVITY>
4.02841

>  <SCORE.RESTR.norm>
0.125888

>  <SCORE.SYSTEM>
0

>  <SCORE.SYSTEM.CONST>
0

>  <SCORE.SYSTEM.DIHEDRAL>
0

>  <SCORE.SYSTEM.SOLV>
0

>  <SCORE.SYSTEM.norm>
0

>  <SCORE.heavy>
32

>  <SCORE.norm>
0.516722

>  <RMSD>
4.879

$$$$
2tob cryst
 OpenBabel11021811463D
libRbt.so/2013.1/901 2013/11/27
 32 34  0  0  0  0  0  0  0  0999 V2000
   -6.3117    0.1393  -10.6881 C   0  0  2  0  0  0  0  0  0  0  0  0
   -4.9734    0.6327  -11.2288 C   0  0  1  0  0  0  0  0  0  0  0  0
   -4.4409    1.7308  -10.3077 C   0  0  2  0  0  0  0  0  0  0  0  0
   -5.4735    2.8538  -10.1426 C   0  0  1  0  0  0  0  0  0  0  0  0
   -6.8246    2.2654   -9.7218 C   0  0  1  0  0  0  0  0  0  0  0  0
   -7.9591    3.2755   -9.6703 C   0  0  0  0  0  0  0  0  0  0  0  0
   -4.0428   -0.4451  -11.2842 O   0  0  0  0  0  0  0  0  0  0  0  0
   -3.1355    2.3669  -10.6723 N   0  3  0  0  0  0  0  0  0  0  0  0
   -5.0123    3.7639   -9.1521 O   0  0  0  0  0  0  0  0  0  0  0  0
   -7.2158    1.2269  -10.6420 O   0  0  0  0  0  0  0  0  0  0  0  0
   -9.2010    2.6300   -9.4076 O   0  0  0  0  0  0  0  0  0  0  0  0
   -6.5886   -1.8639   -7.5554 C   0  0  2  0  0  0  0  0  0  0  0  0
   -7.6541   -2.6214   -6.7517 C   0  0  0  0  0  0  0  0  0  0  0  0
   -8.9568   -1.8347   -6.6358 C   0  0  1  0  0  0  0  0  0  0  0  0
   -9.4547   -1.5187   -8.0394 C   0  0  2  0  0  0  0  0  0  0  0  0
   -8.4454   -0.6101   -8.7458 C   0  0  1  0  0  0  0  0  0  0  0  0
   -7.0928   -1.3266   -8.9041 C   0  0  1  0  0  0  0  0  0  0  0  0
   -5.3892   -2.7352   -7.7957 N   0  3  0  0  0  0  0  0  0  0  0  0
   -9.9800   -2.6004   -5.8515 N   0  3  0  0  0  0  0  0  0  0  0  0
   -8.9575   -0.2373  -10.0190 O   0  0  0  0  0  0  0  0  0  0  0  0
  -10.7414   -0.8761   -7.9852 O   0  0  0  0  0  0  0  0  0  0  0  0
   -6.1076   -0.4024   -9.4111 O   0  0  0  0  0  0  0  0  0  0  0  0
  -11.5352   -1.1220   -9.1131 C   0  0  2  0  0  0  0  0  0  0  0  0
  -12.8130   -0.2790   -9.0458 C   0  0  1  0  0  0  0  0  0  0  0  0
  -13.7906   -0.8455   -8.0158 C   0  0  0  0  0  0  0  0  0  0  0  0
  -14.0248   -2.3174   -8.3146 C   0  0  1  0  0  0  0  0  0  0  0  0
  -12.6963   -3.0524   -8.2762 C   0  0  1  0  0  0  0  0  0  0  0  0
  -12.8657   -4.5335   -8.5623 C   0  0  0  0  0  0  0  0  0  0  0  0
  -12.4626    1.1288   -8.6728 N   0  3  0  0  0  0  0  0  0  0  0  0
  -12.9941   -4.7081  -10.0509 N   0  3  0  0  0  0  0  0  0  0  0  0
  -14.9177   -2.8787   -7.3629 O   0  0  0  0  0  0  0  0  0  0  0  0
  -11.8221   -2.5066   -9.2786 O   0  0  0  0  0  0  0  0  0  0  0  0
  1  2  1  0  0  0  0
  1 22  1  1  0  0  0
  1 10  1  0  0  0  0
  2  3  1  0  0  0  0
  2  7  1  1  0  0  0
  3  4  1  0  0  0  0
  3  8  1  6  0  0  0
  4  5  1  0  0  0  0
  4  9  1  1  0  0  0
  5  6  1  6  0  0  0
  5 10  1  0  0  0  0
  6 11  1  0  0  0  0
 12 13  1  0  0  0  0
 12 17  1  0  0  0  0
 12 18  1  6  0  0  0
 13 14  1  0  0  0  0
 14 15  1  0  0  0  0
 14 19  1  6  0  0  0
 15 16  1  0  0  0  0
 15 21  1  1  0  0  0
 16 17  1  0  0  0  0
 16 20  1  6  0  0  0
 17 22  1  1  0  0  0
 23 21  1  1  0  0  0
 23 24  1  0  0  0  0
 23 32  1  0  0  0  0
 24 25  1  0  0  0  0
 24 29  1  1  0  0  0
 25 26  1  0  0  0  0
 26 27  1  0  0  0  0
 26 31  1  1  0  0  0
 27 28  1  6  0  0  0
 27 32  1  0  0  0  0
 28 30  1  0  0  0  0
M  CHG  5   8   1  18   1  19   1  29   1  30   1
M  END
>  <CHROM.1>
-158.88472657,-53.45967798,-75.20270370,87.63531615,174.00399795,67.56021137
9.42927626,-52.99798354,-151.01873821,-52.63837811,175.29618696,-173.64461185
-159.76535557,69.64693278,79.70301310,161.28036666,-8.86482681,-0.53534917
-8.98473645,-0.51194634,-0.06900743,2.83686074

>  <Name>
2tob cryst

>  <RI>
0

>  <Rbt.Current_Directory>
/home/itssahil/PROJECTS/Mol_Feturizer/New_Systems/rnas/2tob

>  <Rbt.Executable>
rbdock ($Id: //depot/dev/client3/rdock/2013.1/src/exe/rbdock.cxx#4 $)

>  <Rbt.Library>
libRbt.so (2013.1, Build901 2013/11/27)

>  <Rbt.Parameter_File>
/export/apps/rDock/src/rDock_2013.1_src/data/scripts/dock_solv.prm

>  <Rbt.Receptor>
prm/blind_docking_80.prm

>  <SCORE>
27.002

>  <SCORE.INTER>
39.1857

>  <SCORE.INTER.CONST>
1

>  <SCORE.INTER.POLAR>
-5.18153

>  <SCORE.INTER.ROT>
6

>  <SCORE.INTER.SOLV>
48.9689

>  <SCORE.INTER.VDW>
19.4726

>  <SCORE.INTER.norm>
1.22455

>  <SCORE.INTRA>
-15.8896

>  <SCORE.INTRA.DIHEDRAL>
-1.08635

>  <SCORE.INTRA.DIHEDRAL.0>
18.4221

>  <SCORE.INTRA.POLAR>
1.13978

>  <SCORE.INTRA.POLAR.0>
-1.57101

>  <SCORE.INTRA.REPUL>
-0.730195

>  <SCORE.INTRA.REPUL.0>
0.730195

>  <SCORE.INTRA.SOLV>
-5.70823

>  <SCORE.INTRA.SOLV.lig_0>
-127.221

>  <SCORE.INTRA.VDW>
-12.7166

>  <SCORE.INTRA.VDW.0>
10.8385

>  <SCORE.INTRA.norm>
-0.496549

>  <SCORE.RESTR>
3.70587

>  <SCORE.RESTR.CAVITY>
3.70587

>  <SCORE.RESTR.norm>
0.115808

>  <SCORE.SYSTEM>
0

>  <SCORE.SYSTEM.CONST>
0

>  <SCORE.SYSTEM.DIHEDRAL>
0

>  <SCORE.SYSTEM.SOLV>
0

>  <SCORE.SYSTEM.norm>
0

>  <SCORE.heavy>
32

>  <SCORE.norm>
0.843813

>  <RMSD>
4.908

$$$$
2tob cryst
 OpenBabel11021811463D
libRbt.so/2013.1/901 2013/11/27
 32 34  0  0  0  0  0  0  0  0999 V2000
   -5.9144    0.1595  -10.6572 C   0  0  2  0  0  0  0  0  0  0  0  0
   -4.4972    0.5966  -11.0141 C   0  0  1  0  0  0  0  0  0  0  0  0
   -4.1292    1.8197  -10.1736 C   0  0  2  0  0  0  0  0  0  0  0  0
   -5.1658    2.9370  -10.3517 C   0  0  1  0  0  0  0  0  0  0  0  0
   -6.5749    2.3892  -10.1008 C   0  0  1  0  0  0  0  0  0  0  0  0
   -7.6924    3.3774  -10.3920 C   0  0  0  0  0  0  0  0  0  0  0  0
   -3.5802   -0.4626  -10.7535 O   0  0  0  0  0  0  0  0  0  0  0  0
   -2.7746    2.4219  -10.3845 N   0  3  0  0  0  0  0  0  0  0  0  0
   -4.8817    3.9824   -9.4304 O   0  0  0  0  0  0  0  0  0  0  0  0
   -6.8037    1.2276  -10.9234 O   0  0  0  0  0  0  0  0  0  0  0  0
   -8.8671    3.0445   -9.6592 O   0  0  0  0  0  0  0  0  0  0  0  0
   -6.5305   -1.7105   -7.5181 C   0  0  2  0  0  0  0  0  0  0  0  0
   -7.6412   -2.4794   -6.7900 C   0  0  0  0  0  0  0  0  0  0  0  0
   -8.9394   -1.6808   -6.7110 C   0  0  1  0  0  0  0  0  0  0  0  0
   -9.3664   -1.3152   -8.1259 C   0  0  2  0  0  0  0  0  0  0  0  0
   -8.3149   -0.3976   -8.7547 C   0  0  1  0  0  0  0  0  0  0  0  0
   -6.9641   -1.1254   -8.8714 C   0  0  1  0  0  0  0  0  0  0  0  0
   -5.3305   -2.5885   -7.7287 N   0  3  0  0  0  0  0  0  0  0  0  0
  -10.0070   -2.4578   -6.0005 N   0  3  0  0  0  0  0  0  0  0  0  0
   -8.7617    0.0207  -10.0382 O   0  0  0  0  0  0  0  0  0  0  0  0
  -10.6473   -0.6589   -8.1123 O   0  0  0  0  0  0  0  0  0  0  0  0
   -5.9460   -0.1980   -9.3018 O   0  0  0  0  0  0  0  0  0  0  0  0
  -11.4248   -0.9306   -9.2456 C   0  0  2  0  0  0  0  0  0  0  0  0
  -12.7757   -0.2158   -9.1351 C   0  0  1  0  0  0  0  0  0  0  0  0
  -13.6858   -0.9155   -8.1253 C   0  0  0  0  0  0  0  0  0  0  0  0
  -13.7831   -2.3890   -8.4863 C   0  0  1  0  0  0  0  0  0  0  0  0
  -12.3909   -2.9960   -8.4867 C   0  0  1  0  0  0  0  0  0  0  0  0
  -12.4226   -4.4729   -8.8357 C   0  0  0  0  0  0  0  0  0  0  0  0
  -12.5561    1.2016   -8.7035 N   0  3  0  0  0  0  0  0  0  0  0  0
  -13.0988   -5.2032   -7.7077 N   0  3  0  0  0  0  0  0  0  0  0  0
  -14.6102   -3.0721   -7.5550 O   0  0  0  0  0  0  0  0  0  0  0  0
  -11.5815   -2.3278   -9.4691 O   0  0  0  0  0  0  0  0  0  0  0  0
  1  2  1  0  0  0  0
  1 22  1  1  0  0  0
  1 10  1  0  0  0  0
  2  3  1  0  0  0  0
  2  7  1  1  0  0  0
  3  4  1  0  0  0  0
  3  8  1  6  0  0  0
  4  5  1  0  0  0  0
  4  9  1  1  0  0  0
  5  6  1  6  0  0  0
  5 10  1  0  0  0  0
  6 11  1  0  0  0  0
 12 13  1  0  0  0  0
 12 17  1  0  0  0  0
 12 18  1  6  0  0  0
 13 14  1  0  0  0  0
 14 15  1  0  0  0  0
 14 19  1  6  0  0  0
 15 16  1  0  0  0  0
 15 21  1  1  0  0  0
 16 17  1  0  0  0  0
 16 20  1  6  0  0  0
 17 22  1  1  0  0  0
 23 21  1  1  0  0  0
 23 24  1  0  0  0  0
 23 32  1  0  0  0  0
 24 25  1  0  0  0  0
 24 29  1  1  0  0  0
 25 26  1  0  0  0  0
 26 27  1  0  0  0  0
 26 31  1  1  0  0  0
 27 28  1  6  0  0  0
 27 32  1  0  0  0  0
 28 30  1  0  0  0  0
M  CHG  5   8   1  18   1  19   1  29   1  30   1
M  END
>  <CHROM.1>
-155.15901870,65.70578538,44.58446171,151.38668954,-156.29389953,-55.02184220
-112.96675497,-63.66713629,-147.09811675,-49.49759889,161.60599738,178.93402696
-46.99612713,66.97820254,-67.88661424,-69.96317573,-8.67618675,-0.44899566
-8.97850387,-0.53926084,-0.04641612,2.77006073

>  <Name>
2tob cryst

>  <RI>
0

>  <Rbt.Current_Directory>
/home/itssahil/PROJECTS/Mol_Feturizer/New_Systems/rnas/2tob

>  <Rbt.Executable>
rbdock ($Id: //depot/dev/client3/rdock/2013.1/src/exe/rbdock.cxx#4 $)

>  <Rbt.Library>
libRbt.so (2013.1, Build901 2013/11/27)

>  <Rbt.Parameter_File>
/export/apps/rDock/src/rDock_2013.1_src/data/scripts/dock_solv.prm

>  <Rbt.Receptor>
prm/blind_docking_60.prm

>  <SCORE>
21.0349

>  <SCORE.INTER>
33.7964

>  <SCORE.INTER.CONST>
1

>  <SCORE.INTER.POLAR>
-5.49684

>  <SCORE.INTER.ROT>
6

>  <SCORE.INTER.SOLV>
45.7969

>  <SCORE.INTER.VDW>
17.9881

>  <SCORE.INTER.norm>
1.05614

>  <SCORE.INTRA>
-21.6805

>  <SCORE.INTRA.DIHEDRAL>
1.12622

>  <SCORE.INTRA.DIHEDRAL.0>
18.4221

>  <SCORE.INTRA.POLAR>
-0.4192

>  <SCORE.INTRA.POLAR.0>
-1.57101

>  <SCORE.INTRA.REPUL>
-0.730195

>  <SCORE.INTRA.REPUL.0>
0.730195

>  <SCORE.INTRA.SOLV>
-5.60052

>  <SCORE.INTRA.SOLV.lig_0>
-127.221

>  <SCORE.INTRA.VDW>
-14.3671

>  <SCORE.INTRA.VDW.0>
10.8385

>  <SCORE.INTRA.norm>
-0.677515

>  <SCORE.RESTR>
8.91899

>  <SCORE.RESTR.CAVITY>
8.91899

>  <SCORE.RESTR.norm>
0.278719

>  <SCORE.SYSTEM>
0

>  <SCORE.SYSTEM.CONST>
0

>  <SCORE.SYSTEM.DIHEDRAL>
0

>  <SCORE.SYSTEM.SOLV>
0

>  <SCORE.SYSTEM.norm>
0

>  <SCORE.heavy>
32

>  <SCORE.norm>
0.657342

>  <RMSD>
4.939

$$$$
2tob cryst
 OpenBabel11021811463D
libRbt.so/2013.1/901 2013/11/27
 32 34  0  0  0  0  0  0  0  0999 V2000
   -5.6196    0.2439  -10.7745 C   0  0  2  0  0  0  0  0  0  0  0  0
   -4.4747   -0.6947  -11.1424 C   0  0  1  0  0  0  0  0  0  0  0  0
   -3.1568   -0.0756  -10.6760 C   0  0  2  0  0  0  0  0  0  0  0  0
   -2.9837    1.3372  -11.2493 C   0  0  1  0  0  0  0  0  0  0  0  0
   -4.2278    2.1803  -10.9492 C   0  0  1  0  0  0  0  0  0  0  0  0
   -4.2246    3.5548  -11.5979 C   0  0  0  0  0  0  0  0  0  0  0  0
   -4.6623   -1.9610  -10.5162 O   0  0  0  0  0  0  0  0  0  0  0  0
   -1.8977   -0.8353  -10.9578 N   0  3  0  0  0  0  0  0  0  0  0  0
   -1.8378    1.9382  -10.6593 O   0  0  0  0  0  0  0  0  0  0  0  0
   -5.4092    1.4923  -11.4067 O   0  0  0  0  0  0  0  0  0  0  0  0
   -5.3666    4.3062  -11.1992 O   0  0  0  0  0  0  0  0  0  0  0  0
   -7.8029    1.4658   -9.2173 C   0  0  2  0  0  0  0  0  0  0  0  0
   -9.2865    1.3401   -8.8456 C   0  0  0  0  0  0  0  0  0  0  0  0
   -9.8593   -0.0263   -9.2119 C   0  0  1  0  0  0  0  0  0  0  0  0
   -9.0302   -1.0977   -8.5170 C   0  0  2  0  0  0  0  0  0  0  0  0
   -7.5956   -1.0573   -9.0494 C   0  0  1  0  0  0  0  0  0  0  0  0
   -6.9375    0.2953   -8.7246 C   0  0  1  0  0  0  0  0  0  0  0  0
   -7.2324    2.7502   -8.6880 N   0  3  0  0  0  0  0  0  0  0  0  0
  -11.3067   -0.1225   -8.8325 N   0  3  0  0  0  0  0  0  0  0  0  0
   -6.8485   -2.1201   -8.4714 O   0  0  0  0  0  0  0  0  0  0  0  0
   -9.6010   -2.4001   -8.7394 O   0  0  0  0  0  0  0  0  0  0  0  0
   -5.6550    0.3836   -9.3799 O   0  0  0  0  0  0  0  0  0  0  0  0
   -9.3606   -3.3000   -7.6929 C   0  0  2  0  0  0  0  0  0  0  0  0
  -10.6783   -3.9372   -7.2397 C   0  0  1  0  0  0  0  0  0  0  0  0
  -11.5171   -2.9471   -6.4311 C   0  0  0  0  0  0  0  0  0  0  0  0
  -10.6682   -2.3889   -5.3003 C   0  0  1  0  0  0  0  0  0  0  0  0
   -9.4362   -1.7196   -5.8842 C   0  0  1  0  0  0  0  0  0  0  0  0
   -8.5481   -1.1352   -4.8007 C   0  0  0  0  0  0  0  0  0  0  0  0
  -11.4571   -4.3799   -8.4401 N   0  3  0  0  0  0  0  0  0  0  0  0
   -9.2198    0.0992   -4.2640 N   0  3  0  0  0  0  0  0  0  0  0  0
  -11.4151   -1.4508   -4.5386 O   0  0  0  0  0  0  0  0  0  0  0  0
   -8.6654   -2.6928   -6.6091 O   0  0  0  0  0  0  0  0  0  0  0  0
  1  2  1  0  0  0  0
  1 22  1  1  0  0  0
  1 10  1  0  0  0  0
  2  3  1  0  0  0  0
  2  7  1  1  0  0  0
  3  4  1  0  0  0  0
  3  8  1  6  0  0  0
  4  5  1  0  0  0  0
  4  9  1  1  0  0  0
  5  6  1  6  0  0  0
  5 10  1  0  0  0  0
  6 11  1  0  0  0  0
 12 13  1  0  0  0  0
 12 17  1  0  0  0  0
 12 18  1  1  0  0  0
 13 14  1  0  0  0  0
 14 15  1  0  0  0  0
 14 19  1  1  0  0  0
 15 16  1  0  0  0  0
 15 21  1  6  0  0  0
 16 17  1  0  0  0  0
 16 20  1  1  0  0  0
 17 22  1  6  0  0  0
 23 21  1  6  0  0  0
 23 24  1  0  0  0  0
 23 32  1  0  0  0  0
 24 25  1  0  0  0  0
 24 29  1  6  0  0  0
 25 26  1  0  0  0  0
 26 27  1  0  0  0  0
 26 31  1  6  0  0  0
 27 28  1  1  0  0  0
 27 32  1  0  0  0  0
 28 30  1  0  0  0  0
M  CHG  5   8   1  18   1  19   1  29   1  30   1
M  END
>  <CHROM.1>
-134.71898051,-176.44307434,54.66763166,-174.90237168,-176.08505659,72.22065292
73.63242518,-39.51452060,-150.37545118,-46.65604869,-63.65371666,128.42769114
-84.85131701,-51.91939237,-73.42062113,-178.93749671,-7.36192209,-0.38616169
-8.74060609,-0.45761617,-0.56760797,3.09202706

>  <Name>
2tob cryst

>  <RI>
0

>  <Rbt.Current_Directory>
/home/itssahil/PROJECTS/Mol_Feturizer/New_Systems/rnas/2tob

>  <Rbt.Executable>
rbdock ($Id: //depot/dev/client3/rdock/2013.1/src/exe/rbdock.cxx#4 $)

>  <Rbt.Library>
libRbt.so (2013.1, Build901 2013/11/27)

>  <Rbt.Parameter_File>
/export/apps/rDock/src/rDock_2013.1_src/data/scripts/dock_solv.prm

>  <Rbt.Receptor>
prm/blind_docking_40.prm

>  <SCORE>
-6.15884

>  <SCORE.INTER>
-0.616056

>  <SCORE.INTER.CONST>
1

>  <SCORE.INTER.POLAR>
-6.21958

>  <SCORE.INTER.ROT>
6

>  <SCORE.INTER.SOLV>
41.6803

>  <SCORE.INTER.VDW>
-1.1722

>  <SCORE.INTER.norm>
-0.0192517

>  <SCORE.INTRA>
-12.0299

>  <SCORE.INTRA.DIHEDRAL>
3.77662

>  <SCORE.INTRA.DIHEDRAL.0>
18.4221

>  <SCORE.INTRA.POLAR>
0.479811

>  <SCORE.INTRA.POLAR.0>
-1.57101

>  <SCORE.INTRA.REPUL>
-0.393382

>  <SCORE.INTRA.REPUL.0>
0.730195

>  <SCORE.INTRA.SOLV>
-3.0692

>  <SCORE.INTRA.SOLV.lig_0>
-127.221

>  <SCORE.INTRA.VDW>
-12.0481

>  <SCORE.INTRA.VDW.0>
10.8385

>  <SCORE.INTRA.norm>
-0.375935

>  <SCORE.RESTR>
6.48713

>  <SCORE.RESTR.CAVITY>
6.48713

>  <SCORE.RESTR.norm>
0.202723

>  <SCORE.SYSTEM>
0

>  <SCORE.SYSTEM.CONST>
0

>  <SCORE.SYSTEM.DIHEDRAL>
0

>  <SCORE.SYSTEM.SOLV>
0

>  <SCORE.SYSTEM.norm>
0

>  <SCORE.heavy>
32

>  <SCORE.norm>
-0.192464

>  <RMSD>
4.950

$$$$
2tob cryst
 OpenBabel11021811463D
libRbt.so/2013.1/901 2013/11/27
 32 34  0  0  0  0  0  0  0  0999 V2000
   -6.0885    0.1408  -10.8040 C   0  0  2  0  0  0  0  0  0  0  0  0
   -4.6758    0.4850  -11.2655 C   0  0  1  0  0  0  0  0  0  0  0  0
   -4.1390    1.6303  -10.4065 C   0  0  2  0  0  0  0  0  0  0  0  0
   -5.0922    2.8323  -10.4408 C   0  0  1  0  0  0  0  0  0  0  0  0
   -6.5149    2.3827  -10.0905 C   0  0  1  0  0  0  0  0  0  0  0  0
   -7.5687    3.4683  -10.2360 C   0  0  0  0  0  0  0  0  0  0  0  0
   -3.8296   -0.6542  -11.1359 O   0  0  0  0  0  0  0  0  0  0  0  0
   -2.7627    2.1360  -10.7096 N   0  3  0  0  0  0  0  0  0  0  0  0
   -4.6463    3.8028   -9.5019 O   0  0  0  0  0  0  0  0  0  0  0  0
   -6.9070    1.2869  -10.9413 O   0  0  0  0  0  0  0  0  0  0  0  0
   -8.8672    2.9550   -9.9564 O   0  0  0  0  0  0  0  0  0  0  0  0
   -6.5411   -1.8301   -7.6907 C   0  0  2  0  0  0  0  0  0  0  0  0
   -7.6182   -2.6230   -6.9381 C   0  0  0  0  0  0  0  0  0  0  0  0
   -8.9218   -1.8408   -6.8032 C   0  0  1  0  0  0  0  0  0  0  0  0
   -9.4001   -1.4585   -8.1972 C   0  0  2  0  0  0  0  0  0  0  0  0
   -8.3805   -0.5192   -8.8462 C   0  0  1  0  0  0  0  0  0  0  0  0
   -7.0264   -1.2293   -9.0194 C   0  0  1  0  0  0  0  0  0  0  0  0
   -5.3392   -2.6907   -7.9551 N   0  3  0  0  0  0  0  0  0  0  0  0
   -9.9562   -2.6411   -6.0699 N   0  3  0  0  0  0  0  0  0  0  0  0
   -8.8747   -0.0864  -10.1074 O   0  0  0  0  0  0  0  0  0  0  0  0
  -10.6870   -0.8174   -8.1305 O   0  0  0  0  0  0  0  0  0  0  0  0
   -6.0336   -0.2836   -9.4689 O   0  0  0  0  0  0  0  0  0  0  0  0
  -11.4634   -1.0051   -9.2814 C   0  0  2  0  0  0  0  0  0  0  0  0
  -12.7610   -0.1974   -9.1728 C   0  0  1  0  0  0  0  0  0  0  0  0
  -13.7355   -0.8535   -8.1943 C   0  0  0  0  0  0  0  0  0  0  0  0
  -13.9325   -2.3070   -8.5934 C   0  0  1  0  0  0  0  0  0  0  0  0
  -12.5876   -3.0128   -8.5887 C   0  0  1  0  0  0  0  0  0  0  0  0
  -12.7197   -4.4748   -8.9751 C   0  0  0  0  0  0  0  0  0  0  0  0
  -12.4472    1.1897   -8.7026 N   0  3  0  0  0  0  0  0  0  0  0  0
  -13.5348   -5.1644   -7.9153 N   0  3  0  0  0  0  0  0  0  0  0  0
  -14.8216   -2.9508   -7.6918 O   0  0  0  0  0  0  0  0  0  0  0  0
  -11.7164   -2.3815   -9.5423 O   0  0  0  0  0  0  0  0  0  0  0  0
  1  2  1  0  0  0  0
  1 22  1  1  0  0  0
  1 10  1  0  0  0  0
  2  3  1  0  0  0  0
  2  7  1  1  0  0  0
  3  4  1  0  0  0  0
  3  8  1  6  0  0  0
  4  5  1  0  0  0  0
  4  9  1  1  0  0  0
  5  6  1  6  0  0  0
  5 10  1  0  0  0  0
  6 11  1  0  0  0  0
 12 13  1  0  0  0  0
 12 17  1  0  0  0  0
 12 18  1  6  0  0  0
 13 14  1  0  0  0  0
 14 15  1  0  0  0  0
 14 19  1  6  0  0  0
 15 16  1  0  0  0  0
 15 21  1  1  0  0  0
 16 17  1  0  0  0  0
 16 20  1  6  0  0  0
 17 22  1  1  0  0  0
 23 21  1  1  0  0  0
 23 24  1  0  0  0  0
 23 32  1  0  0  0  0
 24 25  1  0  0  0  0
 24 29  1  1  0  0  0
 25 26  1  0  0  0  0
 26 27  1  0  0  0  0
 26 31  1  1  0  0  0
 27 28  1  6  0  0  0
 27 32  1  0  0  0  0
 28 30  1  0  0  0  0
M  CHG  5   8   1  18   1  19   1  29   1  30   1
M  END
>  <CHROM.1>
-150.61383688,-50.43864609,3.45258758,168.12073816,177.15247842,-61.32071385
122.80672806,87.74924407,-151.23397240,68.69187374,164.40867206,-175.34195144
-43.39995722,-49.87101332,-64.60246909,58.76265164,-8.73580227,-0.51836227
-9.09529972,-0.52543071,-0.06148031,2.77917257

>  <Name>
2tob cryst

>  <RI>
0

>  <Rbt.Current_Directory>
/home/itssahil/PROJECTS/Mol_Feturizer/New_Systems/rnas/2tob

>  <Rbt.Executable>
rbdock ($Id: //depot/dev/client3/rdock/2013.1/src/exe/rbdock.cxx#4 $)

>  <Rbt.Library>
libRbt.so (2013.1, Build901 2013/11/27)

>  <Rbt.Parameter_File>
/export/apps/rDock/src/rDock_2013.1_src/data/scripts/dock_solv.prm

>  <Rbt.Receptor>
prm/blind_docking_60.prm

>  <SCORE>
30.2705

>  <SCORE.INTER>
37.5501

>  <SCORE.INTER.CONST>
1

>  <SCORE.INTER.POLAR>
-5.78786

>  <SCORE.INTER.ROT>
6

>  <SCORE.INTER.SOLV>
43.9994

>  <SCORE.INTER.VDW>
22.0598

>  <SCORE.INTER.norm>
1.17344

>  <SCORE.INTRA>
-15.6023

>  <SCORE.INTRA.DIHEDRAL>
1.14762

>  <SCORE.INTRA.DIHEDRAL.0>
18.4221

>  <SCORE.INTRA.POLAR>
0.757668

>  <SCORE.INTRA.POLAR.0>
-1.57101

>  <SCORE.INTRA.REPUL>
-0.681335

>  <SCORE.INTRA.REPUL.0>
0.730195

>  <SCORE.INTRA.SOLV>
-5.28583

>  <SCORE.INTRA.SOLV.lig_0>
-127.221

>  <SCORE.INTRA.VDW>
-12.7026

>  <SCORE.INTRA.VDW.0>
10.8385

>  <SCORE.INTRA.norm>
-0.487573

>  <SCORE.RESTR>
8.32266

>  <SCORE.RESTR.CAVITY>
8.32266

>  <SCORE.RESTR.norm>
0.260083

>  <SCORE.SYSTEM>
0

>  <SCORE.SYSTEM.CONST>
0

>  <SCORE.SYSTEM.DIHEDRAL>
0

>  <SCORE.SYSTEM.SOLV>
0

>  <SCORE.SYSTEM.norm>
0

>  <SCORE.heavy>
32

>  <SCORE.norm>
0.945952

>  <RMSD>
4.954

$$$$
2tob cryst
 OpenBabel11021811463D
libRbt.so/2013.1/901 2013/11/27
 32 34  0  0  0  0  0  0  0  0999 V2000
   -5.9555    0.1043  -10.6560 C   0  0  2  0  0  0  0  0  0  0  0  0
   -4.5277    0.4518  -11.0655 C   0  0  1  0  0  0  0  0  0  0  0  0
   -4.0479    1.6400  -10.2314 C   0  0  2  0  0  0  0  0  0  0  0  0
   -5.0153    2.8241  -10.3602 C   0  0  1  0  0  0  0  0  0  0  0  0
   -6.4464    2.3667  -10.0577 C   0  0  1  0  0  0  0  0  0  0  0  0
   -7.5073    3.4284  -10.2973 C   0  0  0  0  0  0  0  0  0  0  0  0
   -3.6725   -0.6675  -10.8491 O   0  0  0  0  0  0  0  0  0  0  0  0
   -2.6661    2.1547  -10.4912 N   0  3  0  0  0  0  0  0  0  0  0  0
   -4.6277    3.8396   -9.4432 O   0  0  0  0  0  0  0  0  0  0  0  0
   -6.7826    1.2306  -10.8790 O   0  0  0  0  0  0  0  0  0  0  0  0
   -8.7786    2.9893   -9.8294 O   0  0  0  0  0  0  0  0  0  0  0  0
   -6.5327   -1.7582   -7.5013 C   0  0  2  0  0  0  0  0  0  0  0  0
   -7.6408   -2.5128   -6.7544 C   0  0  0  0  0  0  0  0  0  0  0  0
   -8.9317   -1.7034   -6.6662 C   0  0  1  0  0  0  0  0  0  0  0  0
   -9.3725   -1.3451   -8.0788 C   0  0  2  0  0  0  0  0  0  0  0  0
   -8.3213   -0.4405   -8.7268 C   0  0  1  0  0  0  0  0  0  0  0  0
   -6.9777   -1.1798   -8.8538 C   0  0  1  0  0  0  0  0  0  0  0  0
   -5.3422   -2.6472   -7.7193 N   0  3  0  0  0  0  0  0  0  0  0  0
   -9.9969   -2.4667   -5.9375 N   0  3  0  0  0  0  0  0  0  0  0  0
   -8.7798   -0.0282  -10.0081 O   0  0  0  0  0  0  0  0  0  0  0  0
  -10.6479   -0.6785   -8.0552 O   0  0  0  0  0  0  0  0  0  0  0  0
   -5.9575   -0.2637   -9.3031 O   0  0  0  0  0  0  0  0  0  0  0  0
  -11.4761   -1.0216   -9.1318 C   0  0  2  0  0  0  0  0  0  0  0  0
  -12.8144   -0.2844   -9.0162 C   0  0  1  0  0  0  0  0  0  0  0  0
  -13.6864   -0.8985   -7.9207 C   0  0  0  0  0  0  0  0  0  0  0  0
  -13.8125   -2.3929   -8.1696 C   0  0  1  0  0  0  0  0  0  0  0  0
  -12.4271   -3.0152   -8.1851 C   0  0  1  0  0  0  0  0  0  0  0  0
  -12.4872   -4.5129   -8.4246 C   0  0  0  0  0  0  0  0  0  0  0  0
  -12.5635    1.1577   -8.6980 N   0  3  0  0  0  0  0  0  0  0  0  0
  -12.9175   -4.7396   -9.8482 N   0  3  0  0  0  0  0  0  0  0  0  0
  -14.6047   -2.9972   -7.1572 O   0  0  0  0  0  0  0  0  0  0  0  0
  -11.6549   -2.4293   -9.2468 O   0  0  0  0  0  0  0  0  0  0  0  0
  1  2  1  0  0  0  0
  1 22  1  1  0  0  0
  1 10  1  0  0  0  0
  2  3  1  0  0  0  0
  2  7  1  1  0  0  0
  3  4  1  0  0  0  0
  3  8  1  6  0  0  0
  4  5  1  0  0  0  0
  4  9  1  1  0  0  0
  5  6  1  6  0  0  0
  5 10  1  0  0  0  0
  6 11  1  0  0  0  0
 12 13  1  0  0  0  0
 12 17  1  0  0  0  0
 12 18  1  6  0  0  0
 13 14  1  0  0  0  0
 14 15  1  0  0  0  0
 14 19  1  6  0  0  0
 15 16  1  0  0  0  0
 15 21  1  1  0  0  0
 16 17  1  0  0  0  0
 16 20  1  6  0  0  0
 17 22  1  1  0  0  0
 23 21  1  1  0  0  0
 23 24  1  0  0  0  0
 23 32  1  0  0  0  0
 24 25  1  0  0  0  0
 24 29  1  1  0  0  0
 25 26  1  0  0  0  0
 26 27  1  0  0  0  0
 26 31  1  1  0  0  0
 27 28  1  6  0  0  0
 27 32  1  0  0  0  0
 28 30  1  0  0  0  0
M  CHG  5   8   1  18   1  19   1  29   1  30   1
M  END
>  <CHROM.1>
-152.14413569,-51.95746050,-18.59256845,165.30702725,-172.31509497,-173.56925109
-112.09299280,64.68978504,-143.09319883,154.56246651,162.85883369,179.20059161
77.02636728,-60.14643435,69.88145610,57.22379971,-8.64931355,-0.48266993
-8.99046840,-0.51301578,-0.06225449,2.79366670

>  <Name>
2tob cryst

>  <RI>
0

>  <Rbt.Current_Directory>
/home/itssahil/PROJECTS/Mol_Feturizer/New_Systems/rnas/2tob

>  <Rbt.Executable>
rbdock ($Id: //depot/dev/client3/rdock/2013.1/src/exe/rbdock.cxx#4 $)

>  <Rbt.Library>
libRbt.so (2013.1, Build901 2013/11/27)

>  <Rbt.Parameter_File>
/export/apps/rDock/src/rDock_2013.1_src/data/scripts/dock_solv.prm

>  <Rbt.Receptor>
prm/blind_docking_100.prm

>  <SCORE>
14.3582

>  <SCORE.INTER>
29.2593

>  <SCORE.INTER.CONST>
1

>  <SCORE.INTER.POLAR>
-6.58864

>  <SCORE.INTER.ROT>
6

>  <SCORE.INTER.SOLV>
49.7394

>  <SCORE.INTER.VDW>
17.2885

>  <SCORE.INTER.norm>
0.914353

>  <SCORE.INTRA>
-17.9742

>  <SCORE.INTRA.DIHEDRAL>
2.87701

>  <SCORE.INTRA.DIHEDRAL.0>
18.4221

>  <SCORE.INTRA.POLAR>
0.298243

>  <SCORE.INTRA.POLAR.0>
-1.57101

>  <SCORE.INTRA.REPUL>
-0.658296

>  <SCORE.INTRA.REPUL.0>
0.730195

>  <SCORE.INTRA.SOLV>
-6.10281

>  <SCORE.INTRA.SOLV.lig_0>
-127.221

>  <SCORE.INTRA.VDW>
-14.0838

>  <SCORE.INTRA.VDW.0>
10.8385

>  <SCORE.INTRA.norm>
-0.561693

>  <SCORE.RESTR>
3.07313

>  <SCORE.RESTR.CAVITY>
3.07313

>  <SCORE.RESTR.norm>
0.0960353

>  <SCORE.SYSTEM>
0

>  <SCORE.SYSTEM.CONST>
0

>  <SCORE.SYSTEM.DIHEDRAL>
0

>  <SCORE.SYSTEM.SOLV>
0

>  <SCORE.SYSTEM.norm>
0

>  <SCORE.heavy>
32

>  <SCORE.norm>
0.448695

>  <RMSD>
4.960

$$$$
2tob cryst
 OpenBabel11021811463D
libRbt.so/2013.1/901 2013/11/27
 32 34  0  0  0  0  0  0  0  0999 V2000
   -5.9717    0.1569  -10.6240 C   0  0  2  0  0  0  0  0  0  0  0  0
   -4.5406    0.4954  -11.0294 C   0  0  1  0  0  0  0  0  0  0  0  0
   -4.0714    1.7086  -10.2258 C   0  0  2  0  0  0  0  0  0  0  0  0
   -5.0398    2.8862  -10.3987 C   0  0  1  0  0  0  0  0  0  0  0  0
   -6.4730    2.4346  -10.0970 C   0  0  1  0  0  0  0  0  0  0  0  0
   -7.5335    3.4865  -10.3779 C   0  0  0  0  0  0  0  0  0  0  0  0
   -3.6854   -0.6151  -10.7721 O   0  0  0  0  0  0  0  0  0  0  0  0
   -2.6881    2.2185  -10.4871 N   0  3  0  0  0  0  0  0  0  0  0  0
   -4.6632    3.9289   -9.5080 O   0  0  0  0  0  0  0  0  0  0  0  0
   -6.7988    1.2743  -10.8880 O   0  0  0  0  0  0  0  0  0  0  0  0
   -8.6633    3.3062   -9.5300 O   0  0  0  0  0  0  0  0  0  0  0  0
   -6.5526   -1.6284   -7.4259 C   0  0  2  0  0  0  0  0  0  0  0  0
   -7.6535   -2.3882   -6.6736 C   0  0  0  0  0  0  0  0  0  0  0  0
   -8.9643   -1.6079   -6.6266 C   0  0  1  0  0  0  0  0  0  0  0  0
   -9.3925   -1.2999   -8.0547 C   0  0  2  0  0  0  0  0  0  0  0  0
   -8.3535   -0.3888   -8.7132 C   0  0  1  0  0  0  0  0  0  0  0  0
   -6.9911   -1.0988   -8.8004 C   0  0  1  0  0  0  0  0  0  0  0  0
   -5.3383   -2.4943   -7.6019 N   0  3  0  0  0  0  0  0  0  0  0  0
  -10.0217   -2.3759   -5.8916 N   0  3  0  0  0  0  0  0  0  0  0  0
   -8.8028   -0.0236  -10.0120 O   0  0  0  0  0  0  0  0  0  0  0  0
  -10.6835   -0.6638   -8.0679 O   0  0  0  0  0  0  0  0  0  0  0  0
   -5.9863   -0.1715   -9.2610 O   0  0  0  0  0  0  0  0  0  0  0  0
  -11.4161   -0.9137   -9.2356 C   0  0  2  0  0  0  0  0  0  0  0  0
  -12.7606   -0.1812   -9.1749 C   0  0  1  0  0  0  0  0  0  0  0  0
  -13.7220   -0.8779   -8.2116 C   0  0  0  0  0  0  0  0  0  0  0  0
  -13.8238   -2.3463   -8.5914 C   0  0  1  0  0  0  0  0  0  0  0  0
  -12.4412   -2.9726   -8.5393 C   0  0  1  0  0  0  0  0  0  0  0  0
  -12.4781   -4.4455   -8.9044 C   0  0  0  0  0  0  0  0  0  0  0  0
  -12.5403    1.2288   -8.7199 N   0  3  0  0  0  0  0  0  0  0  0  0
  -13.2612   -5.1686   -7.8428 N   0  3  0  0  0  0  0  0  0  0  0  0
  -14.6987   -3.0268   -7.7028 O   0  0  0  0  0  0  0  0  0  0  0  0
  -11.5820   -2.3063   -9.4799 O   0  0  0  0  0  0  0  0  0  0  0  0
  1  2  1  0  0  0  0
  1 22  1  1  0  0  0
  1 10  1  0  0  0  0
  2  3  1  0  0  0  0
  2  7  1  1  0  0  0
  3  4  1  0  0  0  0
  3  8  1  6  0  0  0
  4  5  1  0  0  0  0
  4  9  1  1  0  0  0
  5  6  1  6  0  0  0
  5 10  1  0  0  0  0
  6 11  1  0  0  0  0
 12 13  1  0  0  0  0
 12 17  1  0  0  0  0
 12 18  1  6  0  0  0
 13 14  1  0  0  0  0
 14 15  1  0  0  0  0
 14 19  1  6  0  0  0
 15 16  1  0  0  0  0
 15 21  1  1  0  0  0
 16 17  1  0  0  0  0
 16 20  1  6  0  0  0
 17 22  1  1  0  0  0
 23 21  1  1  0  0  0
 23 24  1  0  0  0  0
 23 32  1  0  0  0  0
 24 25  1  0  0  0  0
 24 29  1  1  0  0  0
 25 26  1  0  0  0  0
 26 27  1  0  0  0  0
 26 31  1  1  0  0  0
 27 28  1  6  0  0  0
 27 32  1  0  0  0  0
 28 30  1  0  0  0  0
M  CHG  5   8   1  18   1  19   1  29   1  30   1
M  END
>  <CHROM.1>
-150.82692965,72.53183225,-2.34992517,-33.13781873,-151.70424217,-169.64353229
-103.86220925,-148.48816155,-151.26571075,-48.09298661,162.75766240,-179.00997814
-43.91975020,73.52729329,-65.53745608,60.04989232,-8.67346484,-0.43159497
-8.97477403,-0.52685211,-0.03793247,2.76512301

>  <Name>
2tob cryst

>  <RI>
0

>  <Rbt.Current_Directory>
/home/itssahil/PROJECTS/Mol_Feturizer/New_Systems/rnas/2tob

>  <Rbt.Executable>
rbdock ($Id: //depot/dev/client3/rdock/2013.1/src/exe/rbdock.cxx#4 $)

>  <Rbt.Library>
libRbt.so (2013.1, Build901 2013/11/27)

>  <Rbt.Parameter_File>
/export/apps/rDock/src/rDock_2013.1_src/data/scripts/dock_solv.prm

>  <Rbt.Receptor>
prm/blind_docking_60.prm

>  <SCORE>
20.4568

>  <SCORE.INTER>
25.2653

>  <SCORE.INTER.CONST>
1

>  <SCORE.INTER.POLAR>
-7.0779

>  <SCORE.INTER.ROT>
6

>  <SCORE.INTER.SOLV>
46.0105

>  <SCORE.INTER.VDW>
17.4997

>  <SCORE.INTER.norm>
0.789542

>  <SCORE.INTRA>
-13.5867

>  <SCORE.INTRA.DIHEDRAL>
7.24404

>  <SCORE.INTRA.DIHEDRAL.0>
18.4221

>  <SCORE.INTRA.POLAR>
0.748297

>  <SCORE.INTRA.POLAR.0>
-1.57101

>  <SCORE.INTRA.REPUL>
-0.730195

>  <SCORE.INTRA.REPUL.0>
0.730195

>  <SCORE.INTRA.SOLV>
-6.28136

>  <SCORE.INTRA.SOLV.lig_0>
-127.221

>  <SCORE.INTRA.VDW>
-12.9613

>  <SCORE.INTRA.VDW.0>
10.8385

>  <SCORE.INTRA.norm>
-0.424586

>  <SCORE.RESTR>
8.7782

>  <SCORE.RESTR.CAVITY>
8.7782

>  <SCORE.RESTR.norm>
0.274319

>  <SCORE.SYSTEM>
0

>  <SCORE.SYSTEM.CONST>
0

>  <SCORE.SYSTEM.DIHEDRAL>
0

>  <SCORE.SYSTEM.SOLV>
0

>  <SCORE.SYSTEM.norm>
0

>  <SCORE.heavy>
32

>  <SCORE.norm>
0.639275

>  <RMSD>
4.964

$$$$
2tob cryst
 OpenBabel11021811463D
libRbt.so/2013.1/901 2013/11/27
 32 34  0  0  0  0  0  0  0  0999 V2000
   -6.0606    0.1637  -10.5852 C   0  0  2  0  0  0  0  0  0  0  0  0
   -4.6262    0.4659  -11.0070 C   0  0  1  0  0  0  0  0  0  0  0  0
   -4.1112    1.6558  -10.1966 C   0  0  2  0  0  0  0  0  0  0  0  0
   -5.0477    2.8626  -10.3425 C   0  0  1  0  0  0  0  0  0  0  0  0
   -6.4889    2.4486  -10.0257 C   0  0  1  0  0  0  0  0  0  0  0  0
   -7.5226    3.5336  -10.2797 C   0  0  0  0  0  0  0  0  0  0  0  0
   -3.7998   -0.6715  -10.7743 O   0  0  0  0  0  0  0  0  0  0  0  0
   -2.7176    2.1290  -10.4717 N   0  3  0  0  0  0  0  0  0  0  0  0
   -4.6290    3.8837   -9.4457 O   0  0  0  0  0  0  0  0  0  0  0  0
   -6.8589    1.3074  -10.8249 O   0  0  0  0  0  0  0  0  0  0  0  0
   -8.7575    3.2154   -9.6461 O   0  0  0  0  0  0  0  0  0  0  0  0
   -6.5942   -1.6780   -7.4128 C   0  0  2  0  0  0  0  0  0  0  0  0
   -7.6771   -2.4668   -6.6644 C   0  0  0  0  0  0  0  0  0  0  0  0
   -8.9979   -1.7057   -6.5902 C   0  0  1  0  0  0  0  0  0  0  0  0
   -9.4443   -1.3772   -8.0083 C   0  0  2  0  0  0  0  0  0  0  0  0
   -8.4244   -0.4399   -8.6596 C   0  0  1  0  0  0  0  0  0  0  0  0
   -7.0533   -1.1293   -8.7730 C   0  0  1  0  0  0  0  0  0  0  0  0
   -5.3700   -2.5237   -7.6166 N   0  3  0  0  0  0  0  0  0  0  0  0
  -10.0375   -2.5016   -5.8596 N   0  3  0  0  0  0  0  0  0  0  0  0
   -8.8913   -0.0570   -9.9470 O   0  0  0  0  0  0  0  0  0  0  0  0
  -10.7439   -0.7589   -7.9973 O   0  0  0  0  0  0  0  0  0  0  0  0
   -6.0658   -0.1798   -9.2259 O   0  0  0  0  0  0  0  0  0  0  0  0
  -11.4727   -0.9723   -9.1745 C   0  0  2  0  0  0  0  0  0  0  0  0
  -12.7799   -0.1740   -9.1310 C   0  0  1  0  0  0  0  0  0  0  0  0
  -13.7872   -0.8220   -8.1806 C   0  0  0  0  0  0  0  0  0  0  0  0
  -13.9568   -2.2836   -8.5624 C   0  0  1  0  0  0  0  0  0  0  0  0
  -12.6077   -2.9777   -8.4926 C   0  0  1  0  0  0  0  0  0  0  0  0
  -12.7129   -4.4471   -8.8589 C   0  0  0  0  0  0  0  0  0  0  0  0
  -12.4959    1.2234   -8.6725 N   0  3  0  0  0  0  0  0  0  0  0  0
  -11.4243   -5.1175   -8.4679 N   0  3  0  0  0  0  0  0  0  0  0  0
  -14.8759   -2.9197   -7.6857 O   0  0  0  0  0  0  0  0  0  0  0  0
  -11.7044   -2.3551   -9.4216 O   0  0  0  0  0  0  0  0  0  0  0  0
  1  2  1  0  0  0  0
  1 22  1  1  0  0  0
  1 10  1  0  0  0  0
  2  3  1  0  0  0  0
  2  7  1  1  0  0  0
  3  4  1  0  0  0  0
  3  8  1  6  0  0  0
  4  5  1  0  0  0  0
  4  9  1  1  0  0  0
  5  6  1  6  0  0  0
  5 10  1  0  0  0  0
  6 11  1  0  0  0  0
 12 13  1  0  0  0  0
 12 17  1  0  0  0  0
 12 18  1  6  0  0  0
 13 14  1  0  0  0  0
 14 15  1  0  0  0  0
 14 19  1  6  0  0  0
 15 16  1  0  0  0  0
 15 21  1  1  0  0  0
 16 17  1  0  0  0  0
 16 20  1  6  0  0  0
 17 22  1  1  0  0  0
 23 21  1  1  0  0  0
 23 24  1  0  0  0  0
 23 32  1  0  0  0  0
 24 25  1  0  0  0  0
 24 29  1  1  0  0  0
 25 26  1  0  0  0  0
 26 27  1  0  0  0  0
 26 31  1  1  0  0  0
 27 28  1  6  0  0  0
 27 32  1  0  0  0  0
 28 30  1  0  0  0  0
M  CHG  5   8   1  18   1  19   1  29   1  30   1
M  END
>  <CHROM.1>
-148.12318394,72.43573449,-9.58185629,164.88866350,-164.67081417,-164.28869381
-107.32538558,-143.75852803,-152.61117219,171.78521421,162.13836613,-174.67112556
78.86415672,-177.42518269,-167.36466617,163.64809579,-8.66346521,-0.45379869
-8.96772066,-0.52362730,-0.05005232,2.78925642

>  <Name>
2tob cryst

>  <RI>
0

>  <Rbt.Current_Directory>
/home/itssahil/PROJECTS/Mol_Feturizer/New_Systems/rnas/2tob

>  <Rbt.Executable>
rbdock ($Id: //depot/dev/client3/rdock/2013.1/src/exe/rbdock.cxx#4 $)

>  <Rbt.Library>
libRbt.so (2013.1, Build901 2013/11/27)

>  <Rbt.Parameter_File>
/export/apps/rDock/src/rDock_2013.1_src/data/scripts/dock_solv.prm

>  <Rbt.Receptor>
prm/blind_docking_80.prm

>  <SCORE>
14.9965

>  <SCORE.INTER>
27.0255

>  <SCORE.INTER.CONST>
1

>  <SCORE.INTER.POLAR>
-7.33332

>  <SCORE.INTER.ROT>
6

>  <SCORE.INTER.SOLV>
48.9751

>  <SCORE.INTER.VDW>
18.5363

>  <SCORE.INTER.norm>
0.844546

>  <SCORE.INTRA>
-15.7623

>  <SCORE.INTRA.DIHEDRAL>
5.35573

>  <SCORE.INTRA.DIHEDRAL.0>
18.4221

>  <SCORE.INTRA.POLAR>
0.462712

>  <SCORE.INTRA.POLAR.0>
-1.57101

>  <SCORE.INTRA.REPUL>
-0.730195

>  <SCORE.INTRA.REPUL.0>
0.730195

>  <SCORE.INTRA.SOLV>
-6.99699

>  <SCORE.INTRA.SOLV.lig_0>
-127.221

>  <SCORE.INTRA.VDW>
-12.8639

>  <SCORE.INTRA.VDW.0>
10.8385

>  <SCORE.INTRA.norm>
-0.492573

>  <SCORE.RESTR>
3.73337

>  <SCORE.RESTR.CAVITY>
3.73337

>  <SCORE.RESTR.norm>
0.116668

>  <SCORE.SYSTEM>
0

>  <SCORE.SYSTEM.CONST>
0

>  <SCORE.SYSTEM.DIHEDRAL>
0

>  <SCORE.SYSTEM.SOLV>
0

>  <SCORE.SYSTEM.norm>
0

>  <SCORE.heavy>
32

>  <SCORE.norm>
0.468642

>  <RMSD>
4.974

$$$$
2tob cryst
 OpenBabel11021811463D
libRbt.so/2013.1/901 2013/11/27
 32 34  0  0  0  0  0  0  0  0999 V2000
   -6.7703    0.0929  -10.7321 C   0  0  2  0  0  0  0  0  0  0  0  0
   -5.6078    0.6628  -11.5388 C   0  0  1  0  0  0  0  0  0  0  0  0
   -4.8703    1.6945  -10.6847 C   0  0  2  0  0  0  0  0  0  0  0  0
   -5.8356    2.7737  -10.1767 C   0  0  1  0  0  0  0  0  0  0  0  0
   -7.0396    2.1188   -9.4909 C   0  0  1  0  0  0  0  0  0  0  0  0
   -8.1311    3.0923   -9.0773 C   0  0  0  0  0  0  0  0  0  0  0  0
   -4.7146   -0.3830  -11.9121 O   0  0  0  0  0  0  0  0  0  0  0  0
   -3.6970    2.3912  -11.3010 N   0  3  0  0  0  0  0  0  0  0  0  0
   -5.1493    3.6107   -9.2544 O   0  0  0  0  0  0  0  0  0  0  0  0
   -7.6402    1.1499  -10.3734 O   0  0  0  0  0  0  0  0  0  0  0  0
   -9.0009    3.3724  -10.1695 O   0  0  0  0  0  0  0  0  0  0  0  0
   -6.5399   -1.6101   -7.4503 C   0  0  2  0  0  0  0  0  0  0  0  0
   -7.5050   -2.2586   -6.4487 C   0  0  0  0  0  0  0  0  0  0  0  0
   -8.8664   -1.5691   -6.4302 C   0  0  1  0  0  0  0  0  0  0  0  0
   -9.4410   -1.6004   -7.8397 C   0  0  2  0  0  0  0  0  0  0  0  0
   -8.5416   -0.7883   -8.7750 C   0  0  1  0  0  0  0  0  0  0  0  0
   -7.1381   -1.4146   -8.8524 C   0  0  1  0  0  0  0  0  0  0  0  0
   -5.2784   -2.4166   -7.5668 N   0  3  0  0  0  0  0  0  0  0  0  0
   -9.7893   -2.2264   -5.4481 N   0  3  0  0  0  0  0  0  0  0  0  0
   -9.1305   -0.7376  -10.0683 O   0  0  0  0  0  0  0  0  0  0  0  0
  -10.7762   -1.0631   -7.8520 O   0  0  0  0  0  0  0  0  0  0  0  0
   -6.2568   -0.5465   -9.5950 O   0  0  0  0  0  0  0  0  0  0  0  0
  -11.4070   -1.1662   -9.0987 C   0  0  2  0  0  0  0  0  0  0  0  0
  -12.4577   -0.0605   -9.2448 C   0  0  1  0  0  0  0  0  0  0  0  0
  -13.6936   -0.3623   -8.3968 C   0  0  0  0  0  0  0  0  0  0  0  0
  -14.1974   -1.7558   -8.7366 C   0  0  1  0  0  0  0  0  0  0  0  0
  -13.0913   -2.7637   -8.4772 C   0  0  1  0  0  0  0  0  0  0  0  0
  -13.5369   -4.1799   -8.7936 C   0  0  0  0  0  0  0  0  0  0  0  0
  -11.8689    1.2472   -8.8125 N   0  3  0  0  0  0  0  0  0  0  0  0
  -14.6600   -4.5343   -7.8577 N   0  3  0  0  0  0  0  0  0  0  0  0
  -15.3377   -2.0738   -7.9515 O   0  0  0  0  0  0  0  0  0  0  0  0
  -11.9640   -2.4583   -9.3155 O   0  0  0  0  0  0  0  0  0  0  0  0
  1  2  1  0  0  0  0
  1 22  1  1  0  0  0
  1 10  1  0  0  0  0
  2  3  1  0  0  0  0
  2  7  1  1  0  0  0
  3  4  1  0  0  0  0
  3  8  1  6  0  0  0
  4  5  1  0  0  0  0
  4  9  1  1  0  0  0
  5  6  1  6  0  0  0
  5 10  1  0  0  0  0
  6 11  1  0  0  0  0
 12 13  1  0  0  0  0
 12 17  1  0  0  0  0
 12 18  1  6  0  0  0
 13 14  1  0  0  0  0
 14 15  1  0  0  0  0
 14 19  1  1  0  0  0
 15 16  1  0  0  0  0
 15 21  1  1  0  0  0
 16 17  1  0  0  0  0
 16 20  1  6  0  0  0
 17 22  1  6  0  0  0
 23 21  1  1  0  0  0
 23 24  1  0  0  0  0
 23 32  1  0  0  0  0
 24 25  1  0  0  0  0
 24 29  1  1  0  0  0
 25 26  1  0  0  0  0
 26 27  1  0  0  0  0
 26 31  1  1  0  0  0
 27 28  1  6  0  0  0
 27 32  1  0  0  0  0
 28 30  1  0  0  0  0
M  CHG  5   8   1  18   1  19   1  29   1  30   1
M  END
>  <CHROM.1>
-166.08426585,156.56981202,73.78148541,-38.13107138,83.65106708,50.04750833
-83.54015428,-49.16093907,-174.90491686,140.47252456,-161.29092922,-153.32587607
-35.73502534,53.52216553,-63.40727889,-70.43216088,-9.05840381,-0.41922587
-8.99527410,0.50660105,0.00270940,-0.49492154

>  <Name>
2tob cryst

>  <RI>
0

>  <Rbt.Current_Directory>
/home/itssahil/PROJECTS/Mol_Feturizer/New_Systems/rnas/2tob

>  <Rbt.Executable>
rbdock ($Id: //depot/dev/client3/rdock/2013.1/src/exe/rbdock.cxx#4 $)

>  <Rbt.Library>
libRbt.so (2013.1, Build901 2013/11/27)

>  <Rbt.Parameter_File>
/export/apps/rDock/src/rDock_2013.1_src/data/scripts/dock_solv.prm

>  <Rbt.Receptor>
prm/blind_docking_60.prm

>  <SCORE>
76.5136

>  <SCORE.INTER>
80.6321

>  <SCORE.INTER.CONST>
1

>  <SCORE.INTER.POLAR>
-5.60687

>  <SCORE.INTER.ROT>
6

>  <SCORE.INTER.SOLV>
45.2735

>  <SCORE.INTER.VDW>
49.7532

>  <SCORE.INTER.norm>
2.51975

>  <SCORE.INTRA>
-11.3254

>  <SCORE.INTRA.DIHEDRAL>
3.07903

>  <SCORE.INTRA.DIHEDRAL.0>
18.4221

>  <SCORE.INTRA.POLAR>
-0.187919

>  <SCORE.INTRA.POLAR.0>
-1.57101

>  <SCORE.INTRA.REPUL>
-0.479915

>  <SCORE.INTRA.REPUL.0>
0.730195

>  <SCORE.INTRA.SOLV>
-5.71929

>  <SCORE.INTRA.SOLV.lig_0>
-127.221

>  <SCORE.INTRA.VDW>
-6.96678

>  <SCORE.INTRA.VDW.0>
10.8385

>  <SCORE.INTRA.norm>
-0.353919

>  <SCORE.RESTR>
7.2069

>  <SCORE.RESTR.CAVITY>
7.2069

>  <SCORE.RESTR.norm>
0.225215

>  <SCORE.SYSTEM>
0

>  <SCORE.SYSTEM.CONST>
0

>  <SCORE.SYSTEM.DIHEDRAL>
0

>  <SCORE.SYSTEM.SOLV>
0

>  <SCORE.SYSTEM.norm>
0

>  <SCORE.heavy>
32

>  <SCORE.norm>
2.39105

>  <RMSD>
4.981

$$$$
2tob cryst
 OpenBabel11021811463D
libRbt.so/2013.1/901 2013/11/27
 32 34  0  0  0  0  0  0  0  0999 V2000
   -6.0829    0.7556  -10.8596 C   0  0  2  0  0  0  0  0  0  0  0  0
   -4.8383    0.0028  -11.3190 C   0  0  1  0  0  0  0  0  0  0  0  0
   -3.6017    0.6852  -10.7333 C   0  0  2  0  0  0  0  0  0  0  0  0
   -3.5736    2.1745  -11.1015 C   0  0  1  0  0  0  0  0  0  0  0  0
   -4.9057    2.8325  -10.7252 C   0  0  1  0  0  0  0  0  0  0  0  0
   -5.0411    4.2769  -11.1785 C   0  0  0  0  0  0  0  0  0  0  0  0
   -4.8974   -1.3512  -10.8786 O   0  0  0  0  0  0  0  0  0  0  0  0
   -2.2641    0.1084  -11.0795 N   0  3  0  0  0  0  0  0  0  0  0  0
   -2.5079    2.8038  -10.4010 O   0  0  0  0  0  0  0  0  0  0  0  0
   -5.9991    2.0953  -11.3076 O   0  0  0  0  0  0  0  0  0  0  0  0
   -3.7611    4.8802  -11.3379 O   0  0  0  0  0  0  0  0  0  0  0  0
   -8.3246    1.7178   -9.2353 C   0  0  2  0  0  0  0  0  0  0  0  0
   -9.8151    1.5272   -8.9237 C   0  0  0  0  0  0  0  0  0  0  0  0
  -10.3527    0.2044   -9.4628 C   0  0  1  0  0  0  0  0  0  0  0  0
   -9.5231   -0.9281   -8.8736 C   0  0  2  0  0  0  0  0  0  0  0  0
   -8.0757   -0.8042   -9.3560 C   0  0  1  0  0  0  0  0  0  0  0  0
   -7.4514    0.5110   -8.8573 C   0  0  1  0  0  0  0  0  0  0  0  0
   -7.7922    2.9401   -8.5441 N   0  3  0  0  0  0  0  0  0  0  0  0
  -11.8078    0.0428   -9.1391 N   0  3  0  0  0  0  0  0  0  0  0  0
   -7.3250   -1.9159   -8.8842 O   0  0  0  0  0  0  0  0  0  0  0  0
  -10.0637   -2.2041   -9.2622 O   0  0  0  0  0  0  0  0  0  0  0  0
   -6.1537    0.6945   -9.4606 O   0  0  0  0  0  0  0  0  0  0  0  0
  -10.0719   -3.1453   -8.2246 C   0  0  2  0  0  0  0  0  0  0  0  0
  -11.4230   -3.1141   -7.5025 C   0  0  1  0  0  0  0  0  0  0  0  0
  -11.5431   -1.8741   -6.6162 C   0  0  0  0  0  0  0  0  0  0  0  0
  -10.3367   -1.8078   -5.6936 C   0  0  1  0  0  0  0  0  0  0  0  0
   -9.0698   -1.7668   -6.5303 C   0  0  1  0  0  0  0  0  0  0  0  0
   -7.8263   -1.6941   -5.6628 C   0  0  0  0  0  0  0  0  0  0  0  0
  -12.5286   -3.1083   -8.5131 N   0  3  0  0  0  0  0  0  0  0  0  0
   -6.6702   -2.2326   -6.4605 N   0  3  0  0  0  0  0  0  0  0  0  0
  -10.4098   -0.6549   -4.8669 O   0  0  0  0  0  0  0  0  0  0  0  0
   -8.9852   -2.9631   -7.3232 O   0  0  0  0  0  0  0  0  0  0  0  0
  1  2  1  0  0  0  0
  1 22  1  1  0  0  0
  1 10  1  0  0  0  0
  2  3  1  0  0  0  0
  2  7  1  1  0  0  0
  3  4  1  0  0  0  0
  3  8  1  6  0  0  0
  4  5  1  0  0  0  0
  4  9  1  1  0  0  0
  5  6  1  6  0  0  0
  5 10  1  0  0  0  0
  6 11  1  0  0  0  0
 12 13  1  0  0  0  0
 12 17  1  0  0  0  0
 12 18  1  1  0  0  0
 13 14  1  0  0  0  0
 14 15  1  0  0  0  0
 14 19  1  1  0  0  0
 15 16  1  0  0  0  0
 15 21  1  6  0  0  0
 16 17  1  0  0  0  0
 16 20  1  1  0  0  0
 17 22  1  6  0  0  0
 23 21  1  6  0  0  0
 23 24  1  0  0  0  0
 23 32  1  0  0  0  0
 24 25  1  0  0  0  0
 24 29  1  6  0  0  0
 25 26  1  0  0  0  0
 26 27  1  0  0  0  0
 26 31  1  6  0  0  0
 27 28  1  1  0  0  0
 27 32  1  0  0  0  0
 28 30  1  0  0  0  0
M  CHG  5   8   1  18   1  19   1  29   1  30   1
M  END
>  <CHROM.1>
-140.62770835,-172.39063680,-59.76064488,-41.50512376,-24.69337067,-162.98205773
3.91500345,-160.73025388,-138.52426901,71.76767240,-61.94888806,93.34802141
-8.86495000,-170.36792912,156.32037133,-74.89310179,-7.55399305,-0.03482232
-9.01048680,0.66167494,0.26808566,-0.37270149

>  <Name>
2tob cryst

>  <RI>
0

>  <Rbt.Current_Directory>
/home/itssahil/PROJECTS/Mol_Feturizer/New_Systems/rnas/2tob

>  <Rbt.Executable>
rbdock ($Id: //depot/dev/client3/rdock/2013.1/src/exe/rbdock.cxx#4 $)

>  <Rbt.Library>
libRbt.so (2013.1, Build901 2013/11/27)

>  <Rbt.Parameter_File>
/export/apps/rDock/src/rDock_2013.1_src/data/scripts/dock_solv.prm

>  <Rbt.Receptor>
prm/blind_docking_60.prm

>  <SCORE>
30.4397

>  <SCORE.INTER>
17.9848

>  <SCORE.INTER.CONST>
1

>  <SCORE.INTER.POLAR>
-5.57626

>  <SCORE.INTER.ROT>
6

>  <SCORE.INTER.SOLV>
43.4782

>  <SCORE.INTER.VDW>
8.48466

>  <SCORE.INTER.norm>
0.562025

>  <SCORE.INTRA>
0.852361

>  <SCORE.INTRA.DIHEDRAL>
14.5346

>  <SCORE.INTRA.DIHEDRAL.0>
18.4221

>  <SCORE.INTRA.POLAR>
0.35995

>  <SCORE.INTRA.POLAR.0>
-1.57101

>  <SCORE.INTRA.REPUL>
-0.730195

>  <SCORE.INTRA.REPUL.0>
0.730195

>  <SCORE.INTRA.SOLV>
3.94272

>  <SCORE.INTRA.SOLV.lig_0>
-127.221

>  <SCORE.INTRA.VDW>
-5.95917

>  <SCORE.INTRA.VDW.0>
10.8385

>  <SCORE.INTRA.norm>
0.0266363

>  <SCORE.RESTR>
11.6026

>  <SCORE.RESTR.CAVITY>
11.6026

>  <SCORE.RESTR.norm>
0.36258

>  <SCORE.SYSTEM>
0

>  <SCORE.SYSTEM.CONST>
0

>  <SCORE.SYSTEM.DIHEDRAL>
0

>  <SCORE.SYSTEM.SOLV>
0

>  <SCORE.SYSTEM.norm>
0

>  <SCORE.heavy>
32

>  <SCORE.norm>
0.951242

>  <RMSD>
4.982

$$$$
2tob cryst
 OpenBabel11021811463D
libRbt.so/2013.1/901 2013/11/27
 32 34  0  0  0  0  0  0  0  0999 V2000
   -5.9157   -0.0642  -10.6072 C   0  0  2  0  0  0  0  0  0  0  0  0
   -4.5517    0.5596  -10.8856 C   0  0  1  0  0  0  0  0  0  0  0  0
   -4.4359    1.8680  -10.1030 C   0  0  2  0  0  0  0  0  0  0  0  0
   -5.6046    2.8065  -10.4317 C   0  0  1  0  0  0  0  0  0  0  0  0
   -6.9357    2.0688  -10.2508 C   0  0  1  0  0  0  0  0  0  0  0  0
   -8.1560    2.8616  -10.6895 C   0  0  0  0  0  0  0  0  0  0  0  0
   -3.5162   -0.3349  -10.4876 O   0  0  0  0  0  0  0  0  0  0  0  0
   -3.1698    2.6533  -10.2517 N   0  3  0  0  0  0  0  0  0  0  0  0
   -5.5526    3.9313   -9.5631 O   0  0  0  0  0  0  0  0  0  0  0  0
   -6.9246    0.8429  -11.0093 O   0  0  0  0  0  0  0  0  0  0  0  0
   -8.0773    4.2078  -10.2319 O   0  0  0  0  0  0  0  0  0  0  0  0
   -6.5627   -1.8944   -7.4732 C   0  0  2  0  0  0  0  0  0  0  0  0
   -7.6608   -2.6784   -6.7422 C   0  0  0  0  0  0  0  0  0  0  0  0
   -8.9584   -1.8833   -6.6274 C   0  0  1  0  0  0  0  0  0  0  0  0
   -9.4084   -1.4917   -8.0282 C   0  0  2  0  0  0  0  0  0  0  0  0
   -8.3680   -0.5609   -8.6563 C   0  0  1  0  0  0  0  0  0  0  0  0
   -7.0184   -1.2845   -8.8082 C   0  0  1  0  0  0  0  0  0  0  0  0
   -5.3652   -2.7667   -7.7195 N   0  3  0  0  0  0  0  0  0  0  0  0
  -10.0137   -2.6750   -5.9149 N   0  3  0  0  0  0  0  0  0  0  0  0
   -8.8357   -0.1191   -9.9244 O   0  0  0  0  0  0  0  0  0  0  0  0
  -10.6895   -0.8375   -7.9819 O   0  0  0  0  0  0  0  0  0  0  0  0
   -6.0083   -0.3478   -9.2372 O   0  0  0  0  0  0  0  0  0  0  0  0
  -11.4442   -1.0065   -9.1500 C   0  0  2  0  0  0  0  0  0  0  0  0
  -12.6739   -0.0929   -9.1135 C   0  0  1  0  0  0  0  0  0  0  0  0
  -13.7275   -0.6294   -8.1441 C   0  0  0  0  0  0  0  0  0  0  0  0
  -14.0311   -2.0767   -8.4962 C   0  0  1  0  0  0  0  0  0  0  0  0
  -12.7495   -2.8882   -8.4217 C   0  0  1  0  0  0  0  0  0  0  0  0
  -12.9895   -4.3487   -8.7586 C   0  0  0  0  0  0  0  0  0  0  0  0
  -12.2614    1.2815   -8.6842 N   0  3  0  0  0  0  0  0  0  0  0  0
  -13.9266   -4.9161   -7.7277 N   0  3  0  0  0  0  0  0  0  0  0  0
  -14.9965   -2.6108   -7.6013 O   0  0  0  0  0  0  0  0  0  0  0  0
  -11.8015   -2.3671   -9.3686 O   0  0  0  0  0  0  0  0  0  0  0  0
  1  2  1  0  0  0  0
  1 22  1  1  0  0  0
  1 10  1  0  0  0  0
  2  3  1  0  0  0  0
  2  7  1  1  0  0  0
  3  4  1  0  0  0  0
  3  8  1  6  0  0  0
  4  5  1  0  0  0  0
  4  9  1  1  0  0  0
  5  6  1  6  0  0  0
  5 10  1  0  0  0  0
  6 11  1  0  0  0  0
 12 13  1  0  0  0  0
 12 17  1  0  0  0  0
 12 18  1  6  0  0  0
 13 14  1  0  0  0  0
 14 15  1  0  0  0  0
 14 19  1  6  0  0  0
 15 16  1  0  0  0  0
 15 21  1  1  0  0  0
 16 17  1  0  0  0  0
 16 20  1  6  0  0  0
 17 22  1  1  0  0  0
 23 21  1  1  0  0  0
 23 24  1  0  0  0  0
 23 32  1  0  0  0  0
 24 25  1  0  0  0  0
 24 29  1  1  0  0  0
 25 26  1  0  0  0  0
 26 27  1  0  0  0  0
 26 31  1  1  0  0  0
 27 28  1  6  0  0  0
 27 32  1  0  0  0  0
 28 30  1  0  0  0  0
M  CHG  5   8   1  18   1  19   1  29   1  30   1
M  END
>  <CHROM.1>
-161.92903268,-32.14914972,-175.46676829,74.27761645,-44.05488634,71.16770295
5.59006431,100.16670511,-151.61050978,-44.00237189,155.53041172,-170.42892395
80.35157282,76.85972684,-62.72494538,47.71658609,-8.81698681,-0.44641628
-8.96427423,-0.53557365,-0.02952620,2.73158821

>  <Name>
2tob cryst

>  <RI>
0

>  <Rbt.Current_Directory>
/home/itssahil/PROJECTS/Mol_Feturizer/New_Systems/rnas/2tob

>  <Rbt.Executable>
rbdock ($Id: //depot/dev/client3/rdock/2013.1/src/exe/rbdock.cxx#4 $)

>  <Rbt.Library>
libRbt.so (2013.1, Build901 2013/11/27)

>  <Rbt.Parameter_File>
/export/apps/rDock/src/rDock_2013.1_src/data/scripts/dock_solv.prm

>  <Rbt.Receptor>
prm/blind_docking_40.prm

>  <SCORE>
69.1079

>  <SCORE.INTER>
76.2135

>  <SCORE.INTER.CONST>
1

>  <SCORE.INTER.POLAR>
-4.44864

>  <SCORE.INTER.ROT>
6

>  <SCORE.INTER.SOLV>
47.1326

>  <SCORE.INTER.VDW>
42.327

>  <SCORE.INTER.norm>
2.38167

>  <SCORE.INTRA>
-13.6722

>  <SCORE.INTRA.DIHEDRAL>
5.2247

>  <SCORE.INTRA.DIHEDRAL.0>
18.4221

>  <SCORE.INTRA.POLAR>
0.392495

>  <SCORE.INTRA.POLAR.0>
-1.57101

>  <SCORE.INTRA.REPUL>
-0.720643

>  <SCORE.INTRA.REPUL.0>
0.730195

>  <SCORE.INTRA.SOLV>
-5.17111

>  <SCORE.INTRA.SOLV.lig_0>
-127.221

>  <SCORE.INTRA.VDW>
-11.4302

>  <SCORE.INTRA.VDW.0>
10.8385

>  <SCORE.INTRA.norm>
-0.427255

>  <SCORE.RESTR>
6.56653

>  <SCORE.RESTR.CAVITY>
6.56653

>  <SCORE.RESTR.norm>
0.205204

>  <SCORE.SYSTEM>
0

>  <SCORE.SYSTEM.CONST>
0

>  <SCORE.SYSTEM.DIHEDRAL>
0

>  <SCORE.SYSTEM.SOLV>
0

>  <SCORE.SYSTEM.norm>
0

>  <SCORE.heavy>
32

>  <SCORE.norm>
2.15962

>  <RMSD>
4.984

$$$$
2tob cryst
 OpenBabel11021811463D
libRbt.so/2013.1/901 2013/11/27
 32 34  0  0  0  0  0  0  0  0999 V2000
   -6.0084    0.1057  -10.6218 C   0  0  2  0  0  0  0  0  0  0  0  0
   -4.5906    0.5469  -10.9713 C   0  0  1  0  0  0  0  0  0  0  0  0
   -4.2256    1.7632  -10.1197 C   0  0  2  0  0  0  0  0  0  0  0  0
   -5.2626    2.8812  -10.2912 C   0  0  1  0  0  0  0  0  0  0  0  0
   -6.6720    2.3302  -10.0485 C   0  0  1  0  0  0  0  0  0  0  0  0
   -7.7894    3.3200  -10.3343 C   0  0  0  0  0  0  0  0  0  0  0  0
   -3.6735   -0.5139  -10.7173 O   0  0  0  0  0  0  0  0  0  0  0  0
   -2.8710    2.3680  -10.3220 N   0  3  0  0  0  0  0  0  0  0  0  0
   -4.9816    3.9189   -9.3603 O   0  0  0  0  0  0  0  0  0  0  0  0
   -6.8978    1.1754  -10.8814 O   0  0  0  0  0  0  0  0  0  0  0  0
   -8.6605    3.4384   -9.2141 O   0  0  0  0  0  0  0  0  0  0  0  0
   -6.5738   -1.8437   -7.5286 C   0  0  2  0  0  0  0  0  0  0  0  0
   -7.6592   -2.6588   -6.8125 C   0  0  0  0  0  0  0  0  0  0  0  0
   -8.9727   -1.8908   -6.6926 C   0  0  1  0  0  0  0  0  0  0  0  0
   -9.4248   -1.4895   -8.0899 C   0  0  2  0  0  0  0  0  0  0  0  0
   -8.4004   -0.5302   -8.7013 C   0  0  1  0  0  0  0  0  0  0  0  0
   -7.0364   -1.2251   -8.8572 C   0  0  1  0  0  0  0  0  0  0  0  0
   -5.3586   -2.6890   -7.7815 N   0  3  0  0  0  0  0  0  0  0  0  0
  -10.0149   -2.7125   -5.9950 N   0  3  0  0  0  0  0  0  0  0  0  0
   -8.8718   -0.0807   -9.9654 O   0  0  0  0  0  0  0  0  0  0  0  0
  -10.7187   -0.8611   -8.0402 O   0  0  0  0  0  0  0  0  0  0  0  0
   -6.0432   -0.2632   -9.2696 O   0  0  0  0  0  0  0  0  0  0  0  0
  -11.4532   -1.0033   -9.2247 C   0  0  2  0  0  0  0  0  0  0  0  0
  -12.7023   -0.1173   -9.1735 C   0  0  1  0  0  0  0  0  0  0  0  0
  -13.7578   -0.7102   -8.2398 C   0  0  0  0  0  0  0  0  0  0  0  0
  -14.0257   -2.1498   -8.6481 C   0  0  1  0  0  0  0  0  0  0  0  0
  -12.7283   -2.9368   -8.5838 C   0  0  1  0  0  0  0  0  0  0  0  0
  -12.9326   -4.3887   -8.9765 C   0  0  0  0  0  0  0  0  0  0  0  0
  -12.3252    1.2490   -8.6891 N   0  3  0  0  0  0  0  0  0  0  0  0
  -11.6679   -5.1390   -8.6590 N   0  3  0  0  0  0  0  0  0  0  0  0
  -14.9920   -2.7357   -7.7873 O   0  0  0  0  0  0  0  0  0  0  0  0
  -11.7784   -2.3622   -9.4972 O   0  0  0  0  0  0  0  0  0  0  0  0
  1  2  1  0  0  0  0
  1 22  1  1  0  0  0
  1 10  1  0  0  0  0
  2  3  1  0  0  0  0
  2  7  1  1  0  0  0
  3  4  1  0  0  0  0
  3  8  1  6  0  0  0
  4  5  1  0  0  0  0
  4  9  1  1  0  0  0
  5  6  1  6  0  0  0
  5 10  1  0  0  0  0
  6 11  1  0  0  0  0
 12 13  1  0  0  0  0
 12 17  1  0  0  0  0
 12 18  1  6  0  0  0
 13 14  1  0  0  0  0
 14 15  1  0  0  0  0
 14 19  1  6  0  0  0
 15 16  1  0  0  0  0
 15 21  1  1  0  0  0
 16 17  1  0  0  0  0
 16 20  1  6  0  0  0
 17 22  1  1  0  0  0
 23 21  1  1  0  0  0
 23 24  1  0  0  0  0
 23 32  1  0  0  0  0
 24 25  1  0  0  0  0
 24 29  1  1  0  0  0
 25 26  1  0  0  0  0
 26 27  1  0  0  0  0
 26 31  1  1  0  0  0
 27 28  1  6  0  0  0
 27 32  1  0  0  0  0
 28 30  1  0  0  0  0
M  CHG  5   8   1  18   1  19   1  29   1  30   1
M  END
>  <CHROM.1>
-153.35047890,65.87763944,122.27059144,68.89856041,-126.83983835,-169.35375555
126.26971426,-51.66639146,-152.98302440,-51.87391024,159.60337349,-170.57444296
82.89473802,-179.82601932,-170.36719008,-52.20814851,-8.70447384,-0.47148147
-8.99945410,-0.51799828,-0.05326205,2.82815731

>  <Name>
2tob cryst

>  <RI>
0

>  <Rbt.Current_Directory>
/home/itssahil/PROJECTS/Mol_Feturizer/New_Systems/rnas/2tob

>  <Rbt.Executable>
rbdock ($Id: //depot/dev/client3/rdock/2013.1/src/exe/rbdock.cxx#4 $)

>  <Rbt.Library>
libRbt.so (2013.1, Build901 2013/11/27)

>  <Rbt.Parameter_File>
/export/apps/rDock/src/rDock_2013.1_src/data/scripts/dock_solv.prm

>  <Rbt.Receptor>
prm/blind_docking_60.prm

>  <SCORE>
21.5532

>  <SCORE.INTER>
25.938

>  <SCORE.INTER.CONST>
1

>  <SCORE.INTER.POLAR>
-7.87538

>  <SCORE.INTER.ROT>
6

>  <SCORE.INTER.SOLV>
48.4156

>  <SCORE.INTER.VDW>
19.8047

>  <SCORE.INTER.norm>
0.810563

>  <SCORE.INTRA>
-12.6112

>  <SCORE.INTRA.DIHEDRAL>
5.27802

>  <SCORE.INTRA.DIHEDRAL.0>
18.4221

>  <SCORE.INTRA.POLAR>
1.37342

>  <SCORE.INTRA.POLAR.0>
-1.57101

>  <SCORE.INTRA.REPUL>
-0.700317

>  <SCORE.INTRA.REPUL.0>
0.730195

>  <SCORE.INTRA.SOLV>
-6.71792

>  <SCORE.INTRA.SOLV.lig_0>
-127.221

>  <SCORE.INTRA.VDW>
-13.0593

>  <SCORE.INTRA.VDW.0>
10.8385

>  <SCORE.INTRA.norm>
-0.394101

>  <SCORE.RESTR>
8.2264

>  <SCORE.RESTR.CAVITY>
8.2264

>  <SCORE.RESTR.norm>
0.257075

>  <SCORE.SYSTEM>
0

>  <SCORE.SYSTEM.CONST>
0

>  <SCORE.SYSTEM.DIHEDRAL>
0

>  <SCORE.SYSTEM.SOLV>
0

>  <SCORE.SYSTEM.norm>
0

>  <SCORE.heavy>
32

>  <SCORE.norm>
0.673538

>  <RMSD>
4.989

$$$$
2tob cryst
 OpenBabel11021811463D
libRbt.so/2013.1/901 2013/11/27
 32 34  0  0  0  0  0  0  0  0999 V2000
   -6.0082    0.0072  -10.5751 C   0  0  2  0  0  0  0  0  0  0  0  0
   -4.6274    0.5496  -10.9304 C   0  0  1  0  0  0  0  0  0  0  0  0
   -4.4002    1.8598  -10.1758 C   0  0  2  0  0  0  0  0  0  0  0  0
   -5.5300    2.8580  -10.4616 C   0  0  1  0  0  0  0  0  0  0  0  0
   -6.8893    2.1988  -10.2035 C   0  0  1  0  0  0  0  0  0  0  0  0
   -8.0841    3.0529  -10.5943 C   0  0  0  0  0  0  0  0  0  0  0  0
   -3.6246   -0.3963  -10.5696 O   0  0  0  0  0  0  0  0  0  0  0  0
   -3.1015    2.5706  -10.3993 N   0  3  0  0  0  0  0  0  0  0  0  0
   -5.3722    3.9896   -9.6149 O   0  0  0  0  0  0  0  0  0  0  0  0
   -6.9842    0.9641  -10.9417 O   0  0  0  0  0  0  0  0  0  0  0  0
   -8.6201    3.7246   -9.4587 O   0  0  0  0  0  0  0  0  0  0  0  0
   -6.5589   -1.7147   -7.3509 C   0  0  2  0  0  0  0  0  0  0  0  0
   -7.6353   -2.4853   -6.5746 C   0  0  0  0  0  0  0  0  0  0  0  0
   -8.9523   -1.7179   -6.4983 C   0  0  1  0  0  0  0  0  0  0  0  0
   -9.4151   -1.4141   -7.9165 C   0  0  2  0  0  0  0  0  0  0  0  0
   -8.4000   -0.4929   -8.5978 C   0  0  1  0  0  0  0  0  0  0  0  0
   -7.0330   -1.1896   -8.7153 C   0  0  1  0  0  0  0  0  0  0  0  0
   -5.3404   -2.5687   -7.5541 N   0  3  0  0  0  0  0  0  0  0  0  0
   -9.9856   -2.4962   -5.7402 N   0  3  0  0  0  0  0  0  0  0  0  0
   -8.8815   -0.1322   -9.8862 O   0  0  0  0  0  0  0  0  0  0  0  0
  -10.7123   -0.7907   -7.9009 O   0  0  0  0  0  0  0  0  0  0  0  0
   -6.0478   -0.2524   -9.1979 O   0  0  0  0  0  0  0  0  0  0  0  0
  -11.4770   -1.0666   -9.0418 C   0  0  2  0  0  0  0  0  0  0  0  0
  -12.7158   -0.1652   -9.0702 C   0  0  1  0  0  0  0  0  0  0  0  0
  -13.7538   -0.6267   -8.0468 C   0  0  0  0  0  0  0  0  0  0  0  0
  -14.0457   -2.1017   -8.2701 C   0  0  1  0  0  0  0  0  0  0  0  0
  -12.7548   -2.8914   -8.1405 C   0  0  1  0  0  0  0  0  0  0  0  0
  -12.9828   -4.3777   -8.3482 C   0  0  0  0  0  0  0  0  0  0  0  0
  -12.3136    1.2450   -8.7649 N   0  3  0  0  0  0  0  0  0  0  0  0
  -12.7265   -4.6897   -9.7974 N   0  3  0  0  0  0  0  0  0  0  0  0
  -14.9961   -2.5663   -7.3221 O   0  0  0  0  0  0  0  0  0  0  0  0
  -11.8221   -2.4444   -9.1390 O   0  0  0  0  0  0  0  0  0  0  0  0
  1  2  1  0  0  0  0
  1 22  1  1  0  0  0
  1 10  1  0  0  0  0
  2  3  1  0  0  0  0
  2  7  1  1  0  0  0
  3  4  1  0  0  0  0
  3  8  1  6  0  0  0
  4  5  1  0  0  0  0
  4  9  1  1  0  0  0
  5  6  1  6  0  0  0
  5 10  1  0  0  0  0
  6 11  1  0  0  0  0
 12 13  1  0  0  0  0
 12 17  1  0  0  0  0
 12 18  1  6  0  0  0
 13 14  1  0  0  0  0
 14 15  1  0  0  0  0
 14 19  1  6  0  0  0
 15 16  1  0  0  0  0
 15 21  1  1  0  0  0
 16 17  1  0  0  0  0
 16 20  1  6  0  0  0
 17 22  1  1  0  0  0
 23 21  1  1  0  0  0
 23 24  1  0  0  0  0
 23 32  1  0  0  0  0
 24 25  1  0  0  0  0
 24 29  1  1  0  0  0
 25 26  1  0  0  0  0
 26 27  1  0  0  0  0
 26 31  1  1  0  0  0
 27 28  1  6  0  0  0
 27 32  1  0  0  0  0
 28 30  1  0  0  0  0
M  CHG  5   8   1  18   1  19   1  29   1  30   1
M  END
>  <CHROM.1>
-158.15613523,62.87966290,-79.40468745,-21.50771724,-98.00302011,-173.25235154
16.16103055,-46.07816561,-150.22981516,-53.56517161,158.53016226,-169.34926418
83.80921015,-58.71662495,93.63587922,-57.34753959,-8.79493036,-0.41283848
-8.93422938,-0.51848030,-0.04094435,2.75972244

>  <Name>
2tob cryst

>  <RI>
0

>  <Rbt.Current_Directory>
/home/itssahil/PROJECTS/Mol_Feturizer/New_Systems/rnas/2tob

>  <Rbt.Executable>
rbdock ($Id: //depot/dev/client3/rdock/2013.1/src/exe/rbdock.cxx#4 $)

>  <Rbt.Library>
libRbt.so (2013.1, Build901 2013/11/27)

>  <Rbt.Parameter_File>
/export/apps/rDock/src/rDock_2013.1_src/data/scripts/dock_solv.prm

>  <Rbt.Receptor>
prm/blind_docking_40.prm

>  <SCORE>
24.6745

>  <SCORE.INTER>
30.0552

>  <SCORE.INTER.CONST>
1

>  <SCORE.INTER.POLAR>
-8.49637

>  <SCORE.INTER.ROT>
6

>  <SCORE.INTER.SOLV>
51.3678

>  <SCORE.INTER.VDW>
23.6354

>  <SCORE.INTER.norm>
0.939224

>  <SCORE.INTRA>
-11.3947

>  <SCORE.INTRA.DIHEDRAL>
7.92488

>  <SCORE.INTRA.DIHEDRAL.0>
18.4221

>  <SCORE.INTRA.POLAR>
1.34944

>  <SCORE.INTRA.POLAR.0>
-1.57101

>  <SCORE.INTRA.REPUL>
-0.730195

>  <SCORE.INTRA.REPUL.0>
0.730195

>  <SCORE.INTRA.SOLV>
-7.16076

>  <SCORE.INTRA.SOLV.lig_0>
-127.221

>  <SCORE.INTRA.VDW>
-12.7139

>  <SCORE.INTRA.VDW.0>
10.8385

>  <SCORE.INTRA.norm>
-0.356085

>  <SCORE.RESTR>
6.01402

>  <SCORE.RESTR.CAVITY>
6.01402

>  <SCORE.RESTR.norm>
0.187938

>  <SCORE.SYSTEM>
0

>  <SCORE.SYSTEM.CONST>
0

>  <SCORE.SYSTEM.DIHEDRAL>
0

>  <SCORE.SYSTEM.SOLV>
0

>  <SCORE.SYSTEM.norm>
0

>  <SCORE.heavy>
32

>  <SCORE.norm>
0.771077

>  <RMSD>
4.992

$$$$
2tob cryst
 OpenBabel11021811463D
libRbt.so/2013.1/901 2013/11/27
 32 34  0  0  0  0  0  0  0  0999 V2000
   -6.2010    0.1597  -10.6735 C   0  0  2  0  0  0  0  0  0  0  0  0
   -4.7881    0.5404  -11.1046 C   0  0  1  0  0  0  0  0  0  0  0  0
   -4.3239    1.7401  -10.2782 C   0  0  2  0  0  0  0  0  0  0  0  0
   -5.3208    2.9010  -10.3925 C   0  0  1  0  0  0  0  0  0  0  0  0
   -6.7360    2.4102  -10.0683 C   0  0  1  0  0  0  0  0  0  0  0  0
   -7.8251    3.4465  -10.2920 C   0  0  0  0  0  0  0  0  0  0  0  0
   -3.9037   -0.5582  -10.9010 O   0  0  0  0  0  0  0  0  0  0  0  0
   -2.9587    2.2870  -10.5591 N   0  3  0  0  0  0  0  0  0  0  0  0
   -4.9433    3.9258   -9.4818 O   0  0  0  0  0  0  0  0  0  0  0  0
   -7.0577    1.2660  -10.8842 O   0  0  0  0  0  0  0  0  0  0  0  0
   -9.0959    2.9394   -9.8975 O   0  0  0  0  0  0  0  0  0  0  0  0
   -6.5855   -1.7967   -7.5554 C   0  0  2  0  0  0  0  0  0  0  0  0
   -7.6139   -2.6515   -6.8024 C   0  0  0  0  0  0  0  0  0  0  0  0
   -8.9544   -1.9383   -6.6477 C   0  0  1  0  0  0  0  0  0  0  0  0
   -9.4643   -1.5662   -8.0331 C   0  0  2  0  0  0  0  0  0  0  0  0
   -8.4998   -0.5691   -8.6805 C   0  0  1  0  0  0  0  0  0  0  0  0
   -7.1129   -1.2073   -8.8732 C   0  0  1  0  0  0  0  0  0  0  0  0
   -5.3438   -2.5920   -7.8397 N   0  3  0  0  0  0  0  0  0  0  0  0
   -9.9399   -2.7981   -5.9144 N   0  3  0  0  0  0  0  0  0  0  0  0
   -9.0270   -0.1487   -9.9324 O   0  0  0  0  0  0  0  0  0  0  0  0
  -10.7814   -0.9923   -7.9483 O   0  0  0  0  0  0  0  0  0  0  0  0
   -6.1738   -0.2076   -9.3207 O   0  0  0  0  0  0  0  0  0  0  0  0
  -11.5273   -1.1323   -9.1259 C   0  0  2  0  0  0  0  0  0  0  0  0
  -12.6478   -0.0877   -9.1611 C   0  0  1  0  0  0  0  0  0  0  0  0
  -13.7735   -0.4575   -8.1949 C   0  0  0  0  0  0  0  0  0  0  0  0
  -14.2298   -1.8775   -8.4886 C   0  0  1  0  0  0  0  0  0  0  0  0
  -13.0484   -2.8213   -8.3458 C   0  0  1  0  0  0  0  0  0  0  0  0
  -13.4433   -4.2606   -8.6221 C   0  0  0  0  0  0  0  0  0  0  0  0
  -12.0930    1.2517   -8.7844 N   0  3  0  0  0  0  0  0  0  0  0  0
  -12.1890   -5.0907   -8.6473 N   0  3  0  0  0  0  0  0  0  0  0  0
  -15.2660   -2.2582   -7.5946 O   0  0  0  0  0  0  0  0  0  0  0  0
  -12.0298   -2.4539   -9.2915 O   0  0  0  0  0  0  0  0  0  0  0  0
  1  2  1  0  0  0  0
  1 22  1  1  0  0  0
  1 10  1  0  0  0  0
  2  3  1  0  0  0  0
  2  7  1  1  0  0  0
  3  4  1  0  0  0  0
  3  8  1  6  0  0  0
  4  5  1  0  0  0  0
  4  9  1  1  0  0  0
  5  6  1  6  0  0  0
  5 10  1  0  0  0  0
  6 11  1  0  0  0  0
 12 13  1  0  0  0  0
 12 17  1  0  0  0  0
 12 18  1  6  0  0  0
 13 14  1  0  0  0  0
 14 15  1  0  0  0  0
 14 19  1  6  0  0  0
 15 16  1  0  0  0  0
 15 21  1  1  0  0  0
 16 17  1  0  0  0  0
 16 20  1  6  0  0  0
 17 22  1  1  0  0  0
 23 21  1  1  0  0  0
 23 24  1  0  0  0  0
 23 32  1  0  0  0  0
 24 25  1  0  0  0  0
 24 29  1  1  0  0  0
 25 26  1  0  0  0  0
 26 27  1  0  0  0  0
 26 31  1  1  0  0  0
 27 28  1  6  0  0  0
 27 32  1  0  0  0  0
 28 30  1  0  0  0  0
M  CHG  5   8   1  18   1  19   1  29   1  30   1
M  END
>  <CHROM.1>
-148.47441968,83.01320620,-91.97031164,-32.10119951,-176.70482964,-63.75258120
-107.15746056,82.44960971,-155.09621005,-178.02593914,160.03631314,-158.79166631
-154.25716178,57.69665420,172.25459334,-42.19798377,-8.82466492,-0.45358842
-9.01144743,-0.50819728,-0.05298225,2.76669485

>  <Name>
2tob cryst

>  <RI>
0

>  <Rbt.Current_Directory>
/home/itssahil/PROJECTS/Mol_Feturizer/New_Systems/rnas/2tob

>  <Rbt.Executable>
rbdock ($Id: //depot/dev/client3/rdock/2013.1/src/exe/rbdock.cxx#4 $)

>  <Rbt.Library>
libRbt.so (2013.1, Build901 2013/11/27)

>  <Rbt.Parameter_File>
/export/apps/rDock/src/rDock_2013.1_src/data/scripts/dock_solv.prm

>  <Rbt.Receptor>
prm/blind_docking_40.prm

>  <SCORE>
16.5994

>  <SCORE.INTER>
25.2934

>  <SCORE.INTER.CONST>
1

>  <SCORE.INTER.POLAR>
-8.78925

>  <SCORE.INTER.ROT>
6

>  <SCORE.INTER.SOLV>
45.4058

>  <SCORE.INTER.VDW>
23.4245

>  <SCORE.INTER.norm>
0.79042

>  <SCORE.INTRA>
-14.9055

>  <SCORE.INTRA.DIHEDRAL>
6.24674

>  <SCORE.INTRA.DIHEDRAL.0>
18.4221

>  <SCORE.INTRA.POLAR>
0.22601

>  <SCORE.INTRA.POLAR.0>
-1.57101

>  <SCORE.INTRA.REPUL>
-0.730195

>  <SCORE.INTRA.REPUL.0>
0.730195

>  <SCORE.INTRA.SOLV>
-5.82366

>  <SCORE.INTRA.SOLV.lig_0>
-127.221

>  <SCORE.INTRA.VDW>
-12.2345

>  <SCORE.INTRA.VDW.0>
10.8385

>  <SCORE.INTRA.norm>
-0.465797

>  <SCORE.RESTR>
6.21145

>  <SCORE.RESTR.CAVITY>
6.21145

>  <SCORE.RESTR.norm>
0.194108

>  <SCORE.SYSTEM>
0

>  <SCORE.SYSTEM.CONST>
0

>  <SCORE.SYSTEM.DIHEDRAL>
0

>  <SCORE.SYSTEM.SOLV>
0

>  <SCORE.SYSTEM.norm>
0

>  <SCORE.heavy>
32

>  <SCORE.norm>
0.51873

>  <RMSD>
4.994

$$$$
2tob cryst
 OpenBabel11021811463D
libRbt.so/2013.1/901 2013/11/27
 32 34  0  0  0  0  0  0  0  0999 V2000
   -6.5512    0.1081  -10.4057 C   0  0  2  0  0  0  0  0  0  0  0  0
   -5.2333    0.5159  -11.0568 C   0  0  1  0  0  0  0  0  0  0  0  0
   -4.6452    1.6988  -10.2870 C   0  0  2  0  0  0  0  0  0  0  0  0
   -5.6550    2.8510  -10.2008 C   0  0  1  0  0  0  0  0  0  0  0  0
   -6.9924    2.3358   -9.6577 C   0  0  1  0  0  0  0  0  0  0  0  0
   -8.1107    3.3652   -9.6672 C   0  0  0  0  0  0  0  0  0  0  0  0
   -4.3197   -0.5776  -11.0346 O   0  0  0  0  0  0  0  0  0  0  0  0
   -3.3502    2.2683  -10.7774 N   0  3  0  0  0  0  0  0  0  0  0  0
   -5.1371    3.8560   -9.3382 O   0  0  0  0  0  0  0  0  0  0  0  0
   -7.4386    1.2098  -10.4394 O   0  0  0  0  0  0  0  0  0  0  0  0
   -9.2430    2.8901   -8.9461 O   0  0  0  0  0  0  0  0  0  0  0  0
   -6.6290   -1.6179   -7.1007 C   0  0  2  0  0  0  0  0  0  0  0  0
   -7.6072   -2.4271   -6.2384 C   0  0  0  0  0  0  0  0  0  0  0  0
   -9.0036   -1.8115   -6.2181 C   0  0  1  0  0  0  0  0  0  0  0  0
   -9.5024   -1.7024   -7.6524 C   0  0  2  0  0  0  0  0  0  0  0  0
   -8.6021   -0.7421   -8.4336 C   0  0  1  0  0  0  0  0  0  0  0  0
   -7.1643   -1.2860   -8.5025 C   0  0  1  0  0  0  0  0  0  0  0  0
   -5.3208   -2.3427   -7.2375 N   0  3  0  0  0  0  0  0  0  0  0  0
   -9.9382   -2.6251   -5.3739 N   0  3  0  0  0  0  0  0  0  0  0  0
   -9.1256   -0.5662   -9.7440 O   0  0  0  0  0  0  0  0  0  0  0  0
  -10.8627   -1.2329   -7.6788 O   0  0  0  0  0  0  0  0  0  0  0  0
   -6.2949   -0.2939   -9.0872 O   0  0  0  0  0  0  0  0  0  0  0  0
  -11.4955   -1.4273   -8.9135 C   0  0  2  0  0  0  0  0  0  0  0  0
  -12.3513   -0.2042   -9.2595 C   0  0  1  0  0  0  0  0  0  0  0  0
  -13.6241   -0.1678   -8.4132 C   0  0  0  0  0  0  0  0  0  0  0  0
  -14.3465   -1.4984   -8.5503 C   0  0  1  0  0  0  0  0  0  0  0  0
  -13.4207   -2.6173   -8.1058 C   0  0  1  0  0  0  0  0  0  0  0  0
  -14.0895   -3.9757   -8.2144 C   0  0  0  0  0  0  0  0  0  0  0  0
  -11.5595    1.0436   -9.0154 N   0  3  0  0  0  0  0  0  0  0  0  0
  -15.5669   -3.7541   -8.3911 N   0  3  0  0  0  0  0  0  0  0  0  0
  -15.5274   -1.5029   -7.7607 O   0  0  0  0  0  0  0  0  0  0  0  0
  -12.2545   -2.6313   -8.9463 O   0  0  0  0  0  0  0  0  0  0  0  0
  1  2  1  0  0  0  0
  1 22  1  1  0  0  0
  1 10  1  0  0  0  0
  2  3  1  0  0  0  0
  2  7  1  1  0  0  0
  3  4  1  0  0  0  0
  3  8  1  6  0  0  0
  4  5  1  0  0  0  0
  4  9  1  1  0  0  0
  5  6  1  6  0  0  0
  5 10  1  0  0  0  0
  6 11  1  0  0  0  0
 12 13  1  0  0  0  0
 12 17  1  0  0  0  0
 12 18  1  6  0  0  0
 13 14  1  0  0  0  0
 14 15  1  0  0  0  0
 14 19  1  1  0  0  0
 15 16  1  0  0  0  0
 15 21  1  1  0  0  0
 16 17  1  0  0  0  0
 16 20  1  6  0  0  0
 17 22  1  1  0  0  0
 23 21  1  1  0  0  0
 23 24  1  0  0  0  0
 23 32  1  0  0  0  0
 24 25  1  0  0  0  0
 24 29  1  1  0  0  0
 25 26  1  0  0  0  0
 26 27  1  0  0  0  0
 26 31  1  1  0  0  0
 27 28  1  6  0  0  0
 27 32  1  0  0  0  0
 28 30  1  0  0  0  0
M  CHG  5   8   1  18   1  19   1  29   1  30   1
M  END
>  <CHROM.1>
-150.33772738,-61.47393561,46.50919354,-32.77848997,-170.08890287,87.36787341
-88.34631254,-172.84982097,-164.72175233,-55.99934557,176.52724661,-139.59875466
-87.39230382,-48.27859089,-14.37714635,-165.40293328,-9.09179902,-0.39246267
-8.76389942,0.45241439,-0.01825692,-0.50866594

>  <Name>
2tob cryst

>  <RI>
0

>  <Rbt.Current_Directory>
/home/itssahil/PROJECTS/Mol_Feturizer/New_Systems/rnas/2tob

>  <Rbt.Executable>
rbdock ($Id: //depot/dev/client3/rdock/2013.1/src/exe/rbdock.cxx#4 $)

>  <Rbt.Library>
libRbt.so (2013.1, Build901 2013/11/27)

>  <Rbt.Parameter_File>
/export/apps/rDock/src/rDock_2013.1_src/data/scripts/dock_solv.prm

>  <Rbt.Receptor>
prm/blind_docking_60.prm

>  <SCORE>
53.434

>  <SCORE.INTER>
54.0379

>  <SCORE.INTER.CONST>
1

>  <SCORE.INTER.POLAR>
-3.88989

>  <SCORE.INTER.ROT>
6

>  <SCORE.INTER.SOLV>
44.6798

>  <SCORE.INTER.VDW>
26.4983

>  <SCORE.INTER.norm>
1.68869

>  <SCORE.INTRA>
-8.00636

>  <SCORE.INTRA.DIHEDRAL>
7.87144

>  <SCORE.INTRA.DIHEDRAL.0>
18.4221

>  <SCORE.INTRA.POLAR>
-0.0419454

>  <SCORE.INTRA.POLAR.0>
-1.57101

>  <SCORE.INTRA.REPUL>
-0.467847

>  <SCORE.INTRA.REPUL.0>
0.730195

>  <SCORE.INTRA.SOLV>
-1.57934

>  <SCORE.INTRA.SOLV.lig_0>
-127.221

>  <SCORE.INTRA.VDW>
-8.67056

>  <SCORE.INTRA.VDW.0>
10.8385

>  <SCORE.INTRA.norm>
-0.250199

>  <SCORE.RESTR>
7.40239

>  <SCORE.RESTR.CAVITY>
7.40239

>  <SCORE.RESTR.norm>
0.231325

>  <SCORE.SYSTEM>
0

>  <SCORE.SYSTEM.CONST>
0

>  <SCORE.SYSTEM.DIHEDRAL>
0

>  <SCORE.SYSTEM.SOLV>
0

>  <SCORE.SYSTEM.norm>
0

>  <SCORE.heavy>
32

>  <SCORE.norm>
1.66981

>  <RMSD>
4.999

$$$$
2tob cryst
 OpenBabel11021811463D
libRbt.so/2013.1/901 2013/11/27
 32 34  0  0  0  0  0  0  0  0999 V2000
   -6.0443    0.1260  -10.8195 C   0  0  2  0  0  0  0  0  0  0  0  0
   -4.6147    0.3125  -11.3177 C   0  0  1  0  0  0  0  0  0  0  0  0
   -3.9564    1.4414  -10.5240 C   0  0  2  0  0  0  0  0  0  0  0  0
   -4.7931    2.7253  -10.6036 C   0  0  1  0  0  0  0  0  0  0  0  0
   -6.2448    2.4296  -10.2110 C   0  0  1  0  0  0  0  0  0  0  0  0
   -7.1946    3.6020  -10.3944 C   0  0  0  0  0  0  0  0  0  0  0  0
   -3.8768   -0.8942  -11.1446 O   0  0  0  0  0  0  0  0  0  0  0  0
   -2.5447    1.7995  -10.8715 N   0  3  0  0  0  0  0  0  0  0  0  0
   -4.2402    3.6928   -9.7201 O   0  0  0  0  0  0  0  0  0  0  0  0
   -6.7541    1.3366  -11.0011 O   0  0  0  0  0  0  0  0  0  0  0  0
   -8.4142    3.3806   -9.6935 O   0  0  0  0  0  0  0  0  0  0  0  0
   -6.5167   -1.7205   -7.6358 C   0  0  2  0  0  0  0  0  0  0  0  0
   -7.5959   -2.4870   -6.8593 C   0  0  0  0  0  0  0  0  0  0  0  0
   -8.9004   -1.7016   -6.7567 C   0  0  1  0  0  0  0  0  0  0  0  0
   -9.3742   -1.3693   -8.1650 C   0  0  2  0  0  0  0  0  0  0  0  0
   -8.3530   -0.4528   -8.8434 C   0  0  1  0  0  0  0  0  0  0  0  0
   -6.9978   -1.1676   -8.9867 C   0  0  1  0  0  0  0  0  0  0  0  0
   -5.3133   -2.5890   -7.8654 N   0  3  0  0  0  0  0  0  0  0  0  0
   -9.9368   -2.4761   -5.9990 N   0  3  0  0  0  0  0  0  0  0  0  0
   -8.8431   -0.0654  -10.1208 O   0  0  0  0  0  0  0  0  0  0  0  0
  -10.6617   -0.7273   -8.1255 O   0  0  0  0  0  0  0  0  0  0  0  0
   -6.0041   -0.2377   -9.4660 O   0  0  0  0  0  0  0  0  0  0  0  0
  -11.4424   -0.9736   -9.2623 C   0  0  2  0  0  0  0  0  0  0  0  0
  -12.7729   -0.2211   -9.1546 C   0  0  1  0  0  0  0  0  0  0  0  0
  -13.7063   -0.8975   -8.1502 C   0  0  0  0  0  0  0  0  0  0  0  0
  -13.8439   -2.3666   -8.5159 C   0  0  1  0  0  0  0  0  0  0  0  0
  -12.4695   -3.0129   -8.5130 C   0  0  1  0  0  0  0  0  0  0  0  0
  -12.5418   -4.4873   -8.8665 C   0  0  0  0  0  0  0  0  0  0  0  0
  -12.5148    1.1883   -8.7180 N   0  3  0  0  0  0  0  0  0  0  0  0
  -11.2963   -5.1520   -8.3470 N   0  3  0  0  0  0  0  0  0  0  0  0
  -14.6935   -3.0287   -7.5896 O   0  0  0  0  0  0  0  0  0  0  0  0
  -11.6378   -2.3651   -9.4906 O   0  0  0  0  0  0  0  0  0  0  0  0
  1  2  1  0  0  0  0
  1 22  1  1  0  0  0
  1 10  1  0  0  0  0
  2  3  1  0  0  0  0
  2  7  1  1  0  0  0
  3  4  1  0  0  0  0
  3  8  1  6  0  0  0
  4  5  1  0  0  0  0
  4  9  1  1  0  0  0
  5  6  1  6  0  0  0
  5 10  1  0  0  0  0
  6 11  1  0  0  0  0
 12 13  1  0  0  0  0
 12 17  1  0  0  0  0
 12 18  1  6  0  0  0
 13 14  1  0  0  0  0
 14 15  1  0  0  0  0
 14 19  1  6  0  0  0
 15 16  1  0  0  0  0
 15 21  1  1  0  0  0
 16 17  1  0  0  0  0
 16 20  1  6  0  0  0
 17 22  1  1  0  0  0
 23 21  1  1  0  0  0
 23 24  1  0  0  0  0
 23 32  1  0  0  0  0
 24 25  1  0  0  0  0
 24 29  1  1  0  0  0
 25 26  1  0  0  0  0
 26 27  1  0  0  0  0
 26 31  1  1  0  0  0
 27 28  1  6  0  0  0
 27 32  1  0  0  0  0
 28 30  1  0  0  0  0
M  CHG  5   8   1  18   1  19   1  29   1  30   1
M  END
>  <CHROM.1>
-144.66269421,-179.30130384,99.13049648,-178.99176305,-164.53244050,58.99196025
13.22716454,-55.25146669,-150.27785499,-51.59930290,163.61678065,-178.31634956
-166.62298694,-62.98396126,-158.76091412,68.41369288,-8.54535172,-0.50833348
-9.10898516,-0.52191694,-0.09746914,2.80659945

>  <Name>
2tob cryst

>  <RI>
0

>  <Rbt.Current_Directory>
/home/itssahil/PROJECTS/Mol_Feturizer/New_Systems/rnas/2tob

>  <Rbt.Executable>
rbdock ($Id: //depot/dev/client3/rdock/2013.1/src/exe/rbdock.cxx#4 $)

>  <Rbt.Library>
libRbt.so (2013.1, Build901 2013/11/27)

>  <Rbt.Parameter_File>
/export/apps/rDock/src/rDock_2013.1_src/data/scripts/dock_solv.prm

>  <Rbt.Receptor>
prm/blind_docking_60.prm

>  <SCORE>
32.5004

>  <SCORE.INTER>
40.5789

>  <SCORE.INTER.CONST>
1

>  <SCORE.INTER.POLAR>
-4.28615

>  <SCORE.INTER.ROT>
6

>  <SCORE.INTER.SOLV>
46.597

>  <SCORE.INTER.VDW>
18.2075

>  <SCORE.INTER.norm>
1.26809

>  <SCORE.INTRA>
-16.2166

>  <SCORE.INTRA.DIHEDRAL>
0.188195

>  <SCORE.INTRA.DIHEDRAL.0>
18.4221

>  <SCORE.INTRA.POLAR>
1.47269

>  <SCORE.INTRA.POLAR.0>
-1.57101

>  <SCORE.INTRA.REPUL>
-0.728674

>  <SCORE.INTRA.REPUL.0>
0.730195

>  <SCORE.INTRA.SOLV>
-6.73015

>  <SCORE.INTRA.SOLV.lig_0>
-127.221

>  <SCORE.INTRA.VDW>
-14.3094

>  <SCORE.INTRA.VDW.0>
10.8385

>  <SCORE.INTRA.norm>
-0.506768

>  <SCORE.RESTR>
8.13808

>  <SCORE.RESTR.CAVITY>
8.13808

>  <SCORE.RESTR.norm>
0.254315

>  <SCORE.SYSTEM>
0

>  <SCORE.SYSTEM.CONST>
0

>  <SCORE.SYSTEM.DIHEDRAL>
0

>  <SCORE.SYSTEM.SOLV>
0

>  <SCORE.SYSTEM.norm>
0

>  <SCORE.heavy>
32

>  <SCORE.norm>
1.01564

>  <RMSD>
5.004

$$$$
2tob cryst
 OpenBabel11021811463D
libRbt.so/2013.1/901 2013/11/27
 32 34  0  0  0  0  0  0  0  0999 V2000
   -6.3547   -0.0878   -9.8910 C   0  0  2  0  0  0  0  0  0  0  0  0
   -5.1936   -0.1719  -10.8769 C   0  0  1  0  0  0  0  0  0  0  0  0
   -4.4306    1.1530  -10.8584 C   0  0  2  0  0  0  0  0  0  0  0  0
   -5.3735    2.3305  -11.1391 C   0  0  1  0  0  0  0  0  0  0  0  0
   -6.5787    2.2734  -10.1941 C   0  0  1  0  0  0  0  0  0  0  0  0
   -7.6505    3.3119  -10.4821 C   0  0  0  0  0  0  0  0  0  0  0  0
   -4.3208   -1.2376  -10.5122 O   0  0  0  0  0  0  0  0  0  0  0  0
   -3.2546    1.2868  -11.7755 N   0  3  0  0  0  0  0  0  0  0  0  0
   -4.6637    3.5474  -10.9454 O   0  0  0  0  0  0  0  0  0  0  0  0
   -7.2043    0.9771  -10.2741 O   0  0  0  0  0  0  0  0  0  0  0  0
   -8.7750    3.1301   -9.6276 O   0  0  0  0  0  0  0  0  0  0  0  0
   -7.9366    0.8875   -7.7050 C   0  0  2  0  0  0  0  0  0  0  0  0
   -9.1124    0.6148   -6.7572 C   0  0  0  0  0  0  0  0  0  0  0  0
   -9.4913   -0.8631   -6.7182 C   0  0  1  0  0  0  0  0  0  0  0  0
   -8.2632   -1.6642   -6.3083 C   0  0  2  0  0  0  0  0  0  0  0  0
   -7.1749   -1.5098   -7.3737 C   0  0  1  0  0  0  0  0  0  0  0  0
   -6.7317   -0.0403   -7.4833 C   0  0  1  0  0  0  0  0  0  0  0  0
   -7.4819    2.3138   -7.5863 N   0  3  0  0  0  0  0  0  0  0  0  0
  -10.6374   -1.1004   -5.7811 N   0  3  0  0  0  0  0  0  0  0  0  0
   -6.0665   -2.3350   -7.0380 O   0  0  0  0  0  0  0  0  0  0  0  0
   -8.5990   -3.0542   -6.1458 O   0  0  0  0  0  0  0  0  0  0  0  0
   -5.8370    0.1170   -8.6043 O   0  0  0  0  0  0  0  0  0  0  0  0
   -8.1463   -3.5994   -4.9373 C   0  0  2  0  0  0  0  0  0  0  0  0
   -9.2294   -4.4990   -4.3326 C   0  0  1  0  0  0  0  0  0  0  0  0
  -10.3642   -3.6662   -3.7358 C   0  0  0  0  0  0  0  0  0  0  0  0
   -9.7765   -2.6532   -2.7666 C   0  0  1  0  0  0  0  0  0  0  0  0
   -8.7787   -1.7772   -3.5040 C   0  0  1  0  0  0  0  0  0  0  0  0
   -8.1594   -0.7378   -2.5874 C   0  0  0  0  0  0  0  0  0  0  0  0
   -9.7821   -5.3978   -5.3957 N   0  3  0  0  0  0  0  0  0  0  0  0
   -7.1914   -1.4398   -1.6747 N   0  3  0  0  0  0  0  0  0  0  0  0
  -10.8060   -1.8505   -2.2064 O   0  0  0  0  0  0  0  0  0  0  0  0
   -7.7175   -2.5975   -4.0213 O   0  0  0  0  0  0  0  0  0  0  0  0
  1  2  1  0  0  0  0
  1 22  1  1  0  0  0
  1 10  1  0  0  0  0
  2  3  1  0  0  0  0
  2  7  1  1  0  0  0
  3  4  1  0  0  0  0
  3  8  1  6  0  0  0
  4  5  1  0  0  0  0
  4  9  1  1  0  0  0
  5  6  1  6  0  0  0
  5 10  1  0  0  0  0
  6 11  1  0  0  0  0
 12 13  1  0  0  0  0
 12 17  1  0  0  0  0
 12 18  1  1  0  0  0
 13 14  1  0  0  0  0
 14 15  1  0  0  0  0
 14 19  1  1  0  0  0
 15 16  1  0  0  0  0
 15 21  1  6  0  0  0
 16 17  1  0  0  0  0
 16 20  1  1  0  0  0
 17 22  1  6  0  0  0
 23 21  1  6  0  0  0
 23 24  1  0  0  0  0
 23 32  1  0  0  0  0
 24 25  1  0  0  0  0
 24 29  1  6  0  0  0
 25 26  1  0  0  0  0
 26 27  1  0  0  0  0
 26 31  1  6  0  0  0
 27 28  1  1  0  0  0
 27 32  1  0  0  0  0
 28 30  1  0  0  0  0
M  CHG  5   8   1  18   1  19   1  29   1  30   1
M  END
>  <CHROM.1>
-167.77904593,170.96253729,-67.01723217,-149.93031427,175.72329199,-176.88235564
159.50166727,173.60072844,-130.51934907,-68.50466577,-55.34268639,137.99286772
-172.05820970,-178.98742755,73.19606565,-178.80027228,-7.51841409,-0.55698271
-7.16122169,-0.93134909,-0.81280699,2.64339147

>  <Name>
2tob cryst

>  <RI>
0

>  <Rbt.Current_Directory>
/home/itssahil/PROJECTS/Mol_Feturizer/New_Systems/rnas/2tob

>  <Rbt.Executable>
rbdock ($Id: //depot/dev/client3/rdock/2013.1/src/exe/rbdock.cxx#4 $)

>  <Rbt.Library>
libRbt.so (2013.1, Build901 2013/11/27)

>  <Rbt.Parameter_File>
/export/apps/rDock/src/rDock_2013.1_src/data/scripts/dock_solv.prm

>  <Rbt.Receptor>
prm/blind_docking_40.prm

>  <SCORE>
-5.86648

>  <SCORE.INTER>
-7.10346

>  <SCORE.INTER.CONST>
1

>  <SCORE.INTER.POLAR>
-5.43516

>  <SCORE.INTER.ROT>
6

>  <SCORE.INTER.SOLV>
33.6474

>  <SCORE.INTER.VDW>
-5.43424

>  <SCORE.INTER.norm>
-0.221983

>  <SCORE.INTRA>
-8.12699

>  <SCORE.INTRA.DIHEDRAL>
1.24117

>  <SCORE.INTRA.DIHEDRAL.0>
18.4221

>  <SCORE.INTRA.POLAR>
0.421049

>  <SCORE.INTRA.POLAR.0>
-1.57101

>  <SCORE.INTRA.REPUL>
-0.730195

>  <SCORE.INTRA.REPUL.0>
0.730195

>  <SCORE.INTRA.SOLV>
2.89808

>  <SCORE.INTRA.SOLV.lig_0>
-127.221

>  <SCORE.INTRA.VDW>
-7.97721

>  <SCORE.INTRA.VDW.0>
10.8385

>  <SCORE.INTRA.norm>
-0.253968

>  <SCORE.RESTR>
9.36398

>  <SCORE.RESTR.CAVITY>
9.36398

>  <SCORE.RESTR.norm>
0.292624

>  <SCORE.SYSTEM>
0

>  <SCORE.SYSTEM.CONST>
0

>  <SCORE.SYSTEM.DIHEDRAL>
0

>  <SCORE.SYSTEM.SOLV>
0

>  <SCORE.SYSTEM.norm>
0

>  <SCORE.heavy>
32

>  <SCORE.norm>
-0.183327

>  <RMSD>
5.007

$$$$
2tob cryst
 OpenBabel11021811463D
libRbt.so/2013.1/901 2013/11/27
 32 34  0  0  0  0  0  0  0  0999 V2000
   -7.3946   -1.4079   -6.6367 C   0  0  2  0  0  0  0  0  0  0  0  0
   -8.2028   -0.1269   -6.4556 C   0  0  1  0  0  0  0  0  0  0  0  0
   -8.5630    0.4308   -7.8329 C   0  0  2  0  0  0  0  0  0  0  0  0
   -7.3046    0.6298   -8.6881 C   0  0  1  0  0  0  0  0  0  0  0  0
   -6.4811   -0.6625   -8.7168 C   0  0  1  0  0  0  0  0  0  0  0  0
   -5.1384   -0.5343   -9.4174 C   0  0  0  0  0  0  0  0  0  0  0  0
   -9.3915   -0.4006   -5.7188 O   0  0  0  0  0  0  0  0  0  0  0  0
   -9.3475    1.7053   -7.8795 N   0  3  0  0  0  0  0  0  0  0  0  0
   -7.6945    0.9848  -10.0087 O   0  0  0  0  0  0  0  0  0  0  0  0
   -6.2222   -1.1097   -7.3710 O   0  0  0  0  0  0  0  0  0  0  0  0
   -4.9246    0.8012   -9.8629 O   0  0  0  0  0  0  0  0  0  0  0  0
   -8.8691   -2.8126   -5.0459 C   0  0  2  0  0  0  0  0  0  0  0  0
   -9.9557   -3.3631   -4.1124 C   0  0  0  0  0  0  0  0  0  0  0  0
  -11.3616   -3.0278   -4.6026 C   0  0  1  0  0  0  0  0  0  0  0  0
  -11.5236   -3.5785   -6.0128 C   0  0  2  0  0  0  0  0  0  0  0  0
  -10.5426   -2.8721   -6.9518 C   0  0  1  0  0  0  0  0  0  0  0  0
   -9.0908   -3.1551   -6.5276 C   0  0  1  0  0  0  0  0  0  0  0  0
   -7.5138   -3.3071   -4.6289 N   0  3  0  0  0  0  0  0  0  0  0  0
  -12.4014   -3.5823   -3.6756 N   0  3  0  0  0  0  0  0  0  0  0  0
  -10.7623   -3.3175   -8.2843 O   0  0  0  0  0  0  0  0  0  0  0  0
  -12.8727   -3.3878   -6.4766 O   0  0  0  0  0  0  0  0  0  0  0  0
   -8.1875   -2.3474   -7.3108 O   0  0  0  0  0  0  0  0  0  0  0  0
  -13.2999   -2.0550   -6.4153 C   0  0  2  0  0  0  0  0  0  0  0  0
  -14.7808   -1.9636   -6.7983 C   0  0  1  0  0  0  0  0  0  0  0  0
  -14.9698   -2.1398   -8.3052 C   0  0  0  0  0  0  0  0  0  0  0  0
  -14.0709   -1.1542   -9.0343 C   0  0  1  0  0  0  0  0  0  0  0  0
  -12.6282   -1.3986   -8.6273 C   0  0  1  0  0  0  0  0  0  0  0  0
  -11.6779   -0.4454   -9.3291 C   0  0  0  0  0  0  0  0  0  0  0  0
  -15.5493   -3.0272   -6.0760 N   0  3  0  0  0  0  0  0  0  0  0  0
  -12.0247    0.9551   -8.9029 N   0  3  0  0  0  0  0  0  0  0  0  0
  -14.2109   -1.3044  -10.4399 O   0  0  0  0  0  0  0  0  0  0  0  0
  -12.4928   -1.1933   -7.2109 O   0  0  0  0  0  0  0  0  0  0  0  0
  1  2  1  0  0  0  0
  1 22  1  6  0  0  0
  1 10  1  0  0  0  0
  2  3  1  0  0  0  0
  2  7  1  1  0  0  0
  3  4  1  0  0  0  0
  3  8  1  1  0  0  0
  4  5  1  0  0  0  0
  4  9  1  6  0  0  0
  5  6  1  1  0  0  0
  5 10  1  0  0  0  0
  6 11  1  0  0  0  0
 12 13  1  0  0  0  0
 12 17  1  0  0  0  0
 12 18  1  1  0  0  0
 13 14  1  0  0  0  0
 14 15  1  0  0  0  0
 14 19  1  1  0  0  0
 15 16  1  0  0  0  0
 15 21  1  6  0  0  0
 16 17  1  0  0  0  0
 16 20  1  6  0  0  0
 17 22  1  6  0  0  0
 23 21  1  6  0  0  0
 23 24  1  0  0  0  0
 23 32  1  0  0  0  0
 24 25  1  0  0  0  0
 24 29  1  1  0  0  0
 25 26  1  0  0  0  0
 26 27  1  0  0  0  0
 26 31  1  6  0  0  0
 27 28  1  6  0  0  0
 27 32  1  0  0  0  0
 28 30  1  0  0  0  0
M  CHG  5   8   1  18   1  19   1  29   1  30   1
M  END
>  <CHROM.1>
-84.79978475,-162.59834992,-44.37639853,-60.83502234,1.88862345,-57.75231179
164.43983195,58.47742248,55.10881165,-56.51092263,-3.75324054,-174.62479547
-51.38734302,-166.97542000,62.55485888,76.09534598,-10.29981738,-1.48010299
-7.31275944,-0.33617035,0.13123530,2.21574628

>  <Name>
2tob cryst

>  <RI>
0

>  <Rbt.Current_Directory>
/home/itssahil/PROJECTS/Mol_Feturizer/New_Systems/rnas/2tob

>  <Rbt.Executable>
rbdock ($Id: //depot/dev/client3/rdock/2013.1/src/exe/rbdock.cxx#4 $)

>  <Rbt.Library>
libRbt.so (2013.1, Build901 2013/11/27)

>  <Rbt.Parameter_File>
/export/apps/rDock/src/rDock_2013.1_src/data/scripts/dock_solv.prm

>  <Rbt.Receptor>
prm/blind_docking_40.prm

>  <SCORE>
-21.8813

>  <SCORE.INTER>
-33.0592

>  <SCORE.INTER.CONST>
1

>  <SCORE.INTER.POLAR>
-3.63719

>  <SCORE.INTER.ROT>
6

>  <SCORE.INTER.SOLV>
32.5072

>  <SCORE.INTER.VDW>
-28.3512

>  <SCORE.INTER.norm>
-1.0331

>  <SCORE.INTRA>
0.394343

>  <SCORE.INTRA.DIHEDRAL>
1.2614

>  <SCORE.INTRA.DIHEDRAL.0>
18.4221

>  <SCORE.INTRA.POLAR>
1.19597

>  <SCORE.INTRA.POLAR.0>
-1.57101

>  <SCORE.INTRA.REPUL>
-0.730195

>  <SCORE.INTRA.REPUL.0>
0.730195

>  <SCORE.INTRA.SOLV>
5.47864

>  <SCORE.INTRA.SOLV.lig_0>
-127.221

>  <SCORE.INTRA.VDW>
-3.39099

>  <SCORE.INTRA.VDW.0>
10.8385

>  <SCORE.INTRA.norm>
0.0123232

>  <SCORE.RESTR>
10.7836

>  <SCORE.RESTR.CAVITY>
10.7836

>  <SCORE.RESTR.norm>
0.336987

>  <SCORE.SYSTEM>
0

>  <SCORE.SYSTEM.CONST>
0

>  <SCORE.SYSTEM.DIHEDRAL>
0

>  <SCORE.SYSTEM.SOLV>
0

>  <SCORE.SYSTEM.norm>
0

>  <SCORE.heavy>
32

>  <SCORE.norm>
-0.68379

>  <RMSD>
5.008

$$$$
2tob cryst
 OpenBabel11021811463D
libRbt.so/2013.1/901 2013/11/27
 32 34  0  0  0  0  0  0  0  0999 V2000
   -6.1057    0.1694  -10.7904 C   0  0  2  0  0  0  0  0  0  0  0  0
   -4.7066    0.5816  -11.2372 C   0  0  1  0  0  0  0  0  0  0  0  0
   -4.2395    1.7591  -10.3810 C   0  0  2  0  0  0  0  0  0  0  0  0
   -5.2521    2.9107  -10.4368 C   0  0  1  0  0  0  0  0  0  0  0  0
   -6.6544    2.3920  -10.1005 C   0  0  1  0  0  0  0  0  0  0  0  0
   -7.7600    3.4215  -10.2677 C   0  0  0  0  0  0  0  0  0  0  0  0
   -3.8053   -0.5121  -11.0880 O   0  0  0  0  0  0  0  0  0  0  0  0
   -2.8869    2.3319  -10.6712 N   0  3  0  0  0  0  0  0  0  0  0  0
   -4.8680    3.9097   -9.5004 O   0  0  0  0  0  0  0  0  0  0  0  0
   -6.9795    1.2714  -10.9471 O   0  0  0  0  0  0  0  0  0  0  0  0
   -9.0229    2.8725   -9.9048 O   0  0  0  0  0  0  0  0  0  0  0  0
   -6.5366   -1.7873   -7.6676 C   0  0  2  0  0  0  0  0  0  0  0  0
   -7.6069   -2.5763   -6.9014 C   0  0  0  0  0  0  0  0  0  0  0  0
   -8.9054   -1.7889   -6.7488 C   0  0  1  0  0  0  0  0  0  0  0  0
   -9.4005   -1.4036   -8.1360 C   0  0  2  0  0  0  0  0  0  0  0  0
   -8.3857   -0.4680   -8.7978 C   0  0  1  0  0  0  0  0  0  0  0  0
   -7.0369   -1.1836   -8.9894 C   0  0  1  0  0  0  0  0  0  0  0  0
   -5.3418   -2.6527   -7.9485 N   0  3  0  0  0  0  0  0  0  0  0  0
   -9.9333   -2.5854   -6.0024 N   0  3  0  0  0  0  0  0  0  0  0  0
   -8.8948   -0.0322  -10.0520 O   0  0  0  0  0  0  0  0  0  0  0  0
  -10.6837   -0.7573   -8.0519 O   0  0  0  0  0  0  0  0  0  0  0  0
   -6.0463   -0.2417   -9.4513 O   0  0  0  0  0  0  0  0  0  0  0  0
  -11.4839   -0.9574   -9.1842 C   0  0  2  0  0  0  0  0  0  0  0  0
  -12.7455   -0.0927   -9.0911 C   0  0  1  0  0  0  0  0  0  0  0  0
  -13.7317   -0.6686   -8.0747 C   0  0  0  0  0  0  0  0  0  0  0  0
  -13.9942   -2.1272   -8.4130 C   0  0  1  0  0  0  0  0  0  0  0  0
  -12.6796   -2.8878   -8.3975 C   0  0  1  0  0  0  0  0  0  0  0  0
  -12.8774   -4.3571   -8.7235 C   0  0  0  0  0  0  0  0  0  0  0  0
  -12.3680    1.2975   -8.6808 N   0  3  0  0  0  0  0  0  0  0  0  0
  -12.8771   -4.5057  -10.2204 N   0  3  0  0  0  0  0  0  0  0  0  0
  -14.8958   -2.6974   -7.4749 O   0  0  0  0  0  0  0  0  0  0  0  0
  -11.7971   -2.3313   -9.3866 O   0  0  0  0  0  0  0  0  0  0  0  0
  1  2  1  0  0  0  0
  1 22  1  1  0  0  0
  1 10  1  0  0  0  0
  2  3  1  0  0  0  0
  2  7  1  1  0  0  0
  3  4  1  0  0  0  0
  3  8  1  6  0  0  0
  4  5  1  0  0  0  0
  4  9  1  1  0  0  0
  5  6  1  6  0  0  0
  5 10  1  0  0  0  0
  6 11  1  0  0  0  0
 12 13  1  0  0  0  0
 12 17  1  0  0  0  0
 12 18  1  6  0  0  0
 13 14  1  0  0  0  0
 14 15  1  0  0  0  0
 14 19  1  6  0  0  0
 15 16  1  0  0  0  0
 15 21  1  1  0  0  0
 16 17  1  0  0  0  0
 16 20  1  6  0  0  0
 17 22  1  1  0  0  0
 23 21  1  1  0  0  0
 23 24  1  0  0  0  0
 23 32  1  0  0  0  0
 24 25  1  0  0  0  0
 24 29  1  1  0  0  0
 25 26  1  0  0  0  0
 26 27  1  0  0  0  0
 26 31  1  1  0  0  0
 27 28  1  6  0  0  0
 27 32  1  0  0  0  0
 28 30  1  0  0  0  0
M  CHG  5   8   1  18   1  19   1  29   1  30   1
M  END
>  <CHROM.1>
-153.62298631,178.57577398,41.10937614,-59.02101487,-178.54856880,-59.73844048
5.27455951,-56.58483783,-150.33626212,-54.75437544,163.52113961,-172.65931593
77.00907173,175.40925755,85.13989333,165.02343071,-8.75661748,-0.42650617
-9.12564680,-0.49976134,-0.06049345,2.80073318

>  <Name>
2tob cryst

>  <RI>
0

>  <Rbt.Current_Directory>
/home/itssahil/PROJECTS/Mol_Feturizer/New_Systems/rnas/2tob

>  <Rbt.Executable>
rbdock ($Id: //depot/dev/client3/rdock/2013.1/src/exe/rbdock.cxx#4 $)

>  <Rbt.Library>
libRbt.so (2013.1, Build901 2013/11/27)

>  <Rbt.Parameter_File>
/export/apps/rDock/src/rDock_2013.1_src/data/scripts/dock_solv.prm

>  <Rbt.Receptor>
prm/blind_docking_40.prm

>  <SCORE>
19.6322

>  <SCORE.INTER>
33.1752

>  <SCORE.INTER.CONST>
1

>  <SCORE.INTER.POLAR>
-6.61327

>  <SCORE.INTER.ROT>
6

>  <SCORE.INTER.SOLV>
50.4293

>  <SCORE.INTER.VDW>
19.7513

>  <SCORE.INTER.norm>
1.03673

>  <SCORE.INTRA>
-19.4346

>  <SCORE.INTRA.DIHEDRAL>
-2.54633

>  <SCORE.INTRA.DIHEDRAL.0>
18.4221

>  <SCORE.INTRA.POLAR>
0.735959

>  <SCORE.INTRA.POLAR.0>
-1.57101

>  <SCORE.INTRA.REPUL>
-0.730195

>  <SCORE.INTRA.REPUL.0>
0.730195

>  <SCORE.INTRA.SOLV>
-6.07667

>  <SCORE.INTRA.SOLV.lig_0>
-127.221

>  <SCORE.INTRA.VDW>
-13.9744

>  <SCORE.INTRA.VDW.0>
10.8385

>  <SCORE.INTRA.norm>
-0.607332

>  <SCORE.RESTR>
5.89157

>  <SCORE.RESTR.CAVITY>
5.89157

>  <SCORE.RESTR.norm>
0.184112

>  <SCORE.SYSTEM>
0

>  <SCORE.SYSTEM.CONST>
0

>  <SCORE.SYSTEM.DIHEDRAL>
0

>  <SCORE.SYSTEM.SOLV>
0

>  <SCORE.SYSTEM.norm>
0

>  <SCORE.heavy>
32

>  <SCORE.norm>
0.613506

>  <RMSD>
5.031

$$$$
2tob cryst
 OpenBabel11021811463D
libRbt.so/2013.1/901 2013/11/27
 32 34  0  0  0  0  0  0  0  0999 V2000
   -6.0265    0.1216  -10.8118 C   0  0  2  0  0  0  0  0  0  0  0  0
   -4.6013    0.2927  -11.3282 C   0  0  1  0  0  0  0  0  0  0  0  0
   -3.9263    1.4255  -10.5543 C   0  0  2  0  0  0  0  0  0  0  0  0
   -4.7550    2.7142  -10.6384 C   0  0  1  0  0  0  0  0  0  0  0  0
   -6.2041    2.4330  -10.2263 C   0  0  1  0  0  0  0  0  0  0  0  0
   -7.1478    3.6099  -10.4117 C   0  0  0  0  0  0  0  0  0  0  0  0
   -3.8698   -0.9172  -11.1502 O   0  0  0  0  0  0  0  0  0  0  0  0
   -2.5162    1.7699  -10.9216 N   0  3  0  0  0  0  0  0  0  0  0  0
   -4.1855    3.6874   -9.7718 O   0  0  0  0  0  0  0  0  0  0  0  0
   -6.7299    1.3352  -10.9986 O   0  0  0  0  0  0  0  0  0  0  0  0
   -8.3553    3.4110   -9.6836 O   0  0  0  0  0  0  0  0  0  0  0  0
   -6.5070   -1.6468   -7.5809 C   0  0  2  0  0  0  0  0  0  0  0  0
   -7.5963   -2.3786   -6.7852 C   0  0  0  0  0  0  0  0  0  0  0  0
   -8.8942   -1.5788   -6.7136 C   0  0  1  0  0  0  0  0  0  0  0  0
   -9.3589   -1.2875   -8.1339 C   0  0  2  0  0  0  0  0  0  0  0  0
   -8.3267   -0.4021   -8.8365 C   0  0  1  0  0  0  0  0  0  0  0  0
   -6.9774   -1.1330   -8.9508 C   0  0  1  0  0  0  0  0  0  0  0  0
   -5.3105   -2.5328   -7.7773 N   0  3  0  0  0  0  0  0  0  0  0  0
   -9.9407   -2.3196   -5.9363 N   0  3  0  0  0  0  0  0  0  0  0  0
   -8.8079   -0.0513  -10.1278 O   0  0  0  0  0  0  0  0  0  0  0  0
  -10.6408   -0.6331   -8.1207 O   0  0  0  0  0  0  0  0  0  0  0  0
   -5.9734   -0.2277   -9.4550 O   0  0  0  0  0  0  0  0  0  0  0  0
  -11.4192   -0.9092   -9.2523 C   0  0  2  0  0  0  0  0  0  0  0  0
  -12.7664   -0.1868   -9.1478 C   0  0  1  0  0  0  0  0  0  0  0  0
  -13.6806   -0.8744   -8.1334 C   0  0  0  0  0  0  0  0  0  0  0  0
  -13.7852   -2.3500   -8.4836 C   0  0  1  0  0  0  0  0  0  0  0  0
  -12.3960   -2.9640   -8.4788 C   0  0  1  0  0  0  0  0  0  0  0  0
  -12.4351   -4.4433   -8.8170 C   0  0  0  0  0  0  0  0  0  0  0  0
  -12.5399    1.2326   -8.7265 N   0  3  0  0  0  0  0  0  0  0  0  0
  -12.8303   -4.5800  -10.2620 N   0  3  0  0  0  0  0  0  0  0  0  0
  -14.6161   -3.0221   -7.5478 O   0  0  0  0  0  0  0  0  0  0  0  0
  -11.5828   -2.3072   -9.4657 O   0  0  0  0  0  0  0  0  0  0  0  0
  1  2  1  0  0  0  0
  1 22  1  1  0  0  0
  1 10  1  0  0  0  0
  2  3  1  0  0  0  0
  2  7  1  1  0  0  0
  3  4  1  0  0  0  0
  3  8  1  6  0  0  0
  4  5  1  0  0  0  0
  4  9  1  1  0  0  0
  5  6  1  6  0  0  0
  5 10  1  0  0  0  0
  6 11  1  0  0  0  0
 12 13  1  0  0  0  0
 12 17  1  0  0  0  0
 12 18  1  6  0  0  0
 13 14  1  0  0  0  0
 14 15  1  0  0  0  0
 14 19  1  6  0  0  0
 15 16  1  0  0  0  0
 15 21  1  1  0  0  0
 16 17  1  0  0  0  0
 16 20  1  6  0  0  0
 17 22  1  1  0  0  0
 23 21  1  1  0  0  0
 23 24  1  0  0  0  0
 23 32  1  0  0  0  0
 24 25  1  0  0  0  0
 24 29  1  1  0  0  0
 25 26  1  0  0  0  0
 26 27  1  0  0  0  0
 26 31  1  1  0  0  0
 27 28  1  6  0  0  0
 27 32  1  0  0  0  0
 28 30  1  0  0  0  0
M  CHG  5   8   1  18   1  19   1  29   1  30   1
M  END
>  <CHROM.1>
-145.38017804,-174.90941985,-147.63211856,-62.70001211,-163.93735929,53.56429106
-101.87465653,-55.97761592,-150.24699572,71.40436765,165.32084131,179.40553593
-46.70704646,-55.71827676,68.69629119,174.28009638,-8.57439156,-0.45309313
-9.16468422,-0.49255766,-0.07723079,2.81466287

>  <Name>
2tob cryst

>  <RI>
0

>  <Rbt.Current_Directory>
/home/itssahil/PROJECTS/Mol_Feturizer/New_Systems/rnas/2tob

>  <Rbt.Executable>
rbdock ($Id: //depot/dev/client3/rdock/2013.1/src/exe/rbdock.cxx#4 $)

>  <Rbt.Library>
libRbt.so (2013.1, Build901 2013/11/27)

>  <Rbt.Parameter_File>
/export/apps/rDock/src/rDock_2013.1_src/data/scripts/dock_solv.prm

>  <Rbt.Receptor>
prm/blind_docking_60.prm

>  <SCORE>
24.1227

>  <SCORE.INTER>
33.8246

>  <SCORE.INTER.CONST>
1

>  <SCORE.INTER.POLAR>
-5.51508

>  <SCORE.INTER.ROT>
6

>  <SCORE.INTER.SOLV>
51.1418

>  <SCORE.INTER.VDW>
16.2861

>  <SCORE.INTER.norm>
1.05702

>  <SCORE.INTRA>
-17.0262

>  <SCORE.INTRA.DIHEDRAL>
-1.66844

>  <SCORE.INTRA.DIHEDRAL.0>
18.4221

>  <SCORE.INTRA.POLAR>
1.42031

>  <SCORE.INTRA.POLAR.0>
-1.57101

>  <SCORE.INTRA.REPUL>
-0.721892

>  <SCORE.INTRA.REPUL.0>
0.730195

>  <SCORE.INTRA.SOLV>
-6.89897

>  <SCORE.INTRA.SOLV.lig_0>
-127.221

>  <SCORE.INTRA.VDW>
-13.9621

>  <SCORE.INTRA.VDW.0>
10.8385

>  <SCORE.INTRA.norm>
-0.532068

>  <SCORE.RESTR>
7.32423

>  <SCORE.RESTR.CAVITY>
7.32423

>  <SCORE.RESTR.norm>
0.228882

>  <SCORE.SYSTEM>
0

>  <SCORE.SYSTEM.CONST>
0

>  <SCORE.SYSTEM.DIHEDRAL>
0

>  <SCORE.SYSTEM.SOLV>
0

>  <SCORE.SYSTEM.norm>
0

>  <SCORE.heavy>
32

>  <SCORE.norm>
0.753834

>  <RMSD>
5.057

$$$$
2tob cryst
 OpenBabel11021811463D
libRbt.so/2013.1/901 2013/11/27
 32 34  0  0  0  0  0  0  0  0999 V2000
   -5.9909    0.1156  -10.8581 C   0  0  2  0  0  0  0  0  0  0  0  0
   -4.5617    0.3203  -11.3506 C   0  0  1  0  0  0  0  0  0  0  0  0
   -3.9194    1.4542  -10.5509 C   0  0  2  0  0  0  0  0  0  0  0  0
   -4.7706    2.7285  -10.6294 C   0  0  1  0  0  0  0  0  0  0  0  0
   -6.2202    2.4148  -10.2431 C   0  0  1  0  0  0  0  0  0  0  0  0
   -7.1828    3.5767  -10.4262 C   0  0  0  0  0  0  0  0  0  0  0  0
   -3.8105   -0.8784  -11.1786 O   0  0  0  0  0  0  0  0  0  0  0  0
   -2.5107    1.8297  -10.8921 N   0  3  0  0  0  0  0  0  0  0  0  0
   -4.2322    3.6995   -9.7408 O   0  0  0  0  0  0  0  0  0  0  0  0
   -6.7140    1.3186  -11.0385 O   0  0  0  0  0  0  0  0  0  0  0  0
   -8.3852    3.3587   -9.6952 O   0  0  0  0  0  0  0  0  0  0  0  0
   -6.5021   -1.7110   -7.6676 C   0  0  2  0  0  0  0  0  0  0  0  0
   -7.6010   -2.4429   -6.8853 C   0  0  0  0  0  0  0  0  0  0  0  0
   -8.8824   -1.6202   -6.7838 C   0  0  1  0  0  0  0  0  0  0  0  0
   -9.3495   -1.2811   -8.1926 C   0  0  2  0  0  0  0  0  0  0  0  0
   -8.3041   -0.3972   -8.8774 C   0  0  1  0  0  0  0  0  0  0  0  0
   -6.9701   -1.1509   -9.0200 C   0  0  1  0  0  0  0  0  0  0  0  0
   -5.3244   -2.6146   -7.8955 N   0  3  0  0  0  0  0  0  0  0  0  0
   -9.9388   -2.3614   -6.0204 N   0  3  0  0  0  0  0  0  0  0  0  0
   -8.7857   -0.0019  -10.1556 O   0  0  0  0  0  0  0  0  0  0  0  0
  -10.6181   -0.6025   -8.1536 O   0  0  0  0  0  0  0  0  0  0  0  0
   -5.9514   -0.2520   -9.5057 O   0  0  0  0  0  0  0  0  0  0  0  0
  -11.4346   -0.8833   -9.2568 C   0  0  2  0  0  0  0  0  0  0  0  0
  -12.7844   -0.1749   -9.1008 C   0  0  1  0  0  0  0  0  0  0  0  0
  -13.6538   -0.8746   -8.0557 C   0  0  0  0  0  0  0  0  0  0  0  0
  -13.7563   -2.3502   -8.4065 C   0  0  1  0  0  0  0  0  0  0  0  0
  -12.3618   -2.9501   -8.4545 C   0  0  1  0  0  0  0  0  0  0  0  0
  -12.3983   -4.4288   -8.7957 C   0  0  0  0  0  0  0  0  0  0  0  0
  -12.5568    1.2456   -8.6836 N   0  3  0  0  0  0  0  0  0  0  0  0
  -12.8769   -4.5672  -10.2151 N   0  3  0  0  0  0  0  0  0  0  0  0
  -14.5456   -3.0333   -7.4430 O   0  0  0  0  0  0  0  0  0  0  0  0
  -11.5919   -2.2823   -9.4685 O   0  0  0  0  0  0  0  0  0  0  0  0
  1  2  1  0  0  0  0
  1 22  1  1  0  0  0
  1 10  1  0  0  0  0
  2  3  1  0  0  0  0
  2  7  1  1  0  0  0
  3  4  1  0  0  0  0
  3  8  1  6  0  0  0
  4  5  1  0  0  0  0
  4  9  1  1  0  0  0
  5  6  1  6  0  0  0
  5 10  1  0  0  0  0
  6 11  1  0  0  0  0
 12 13  1  0  0  0  0
 12 17  1  0  0  0  0
 12 18  1  6  0  0  0
 13 14  1  0  0  0  0
 14 15  1  0  0  0  0
 14 19  1  6  0  0  0
 15 16  1  0  0  0  0
 15 21  1  1  0  0  0
 16 17  1  0  0  0  0
 16 20  1  6  0  0  0
 17 22  1  1  0  0  0
 23 21  1  1  0  0  0
 23 24  1  0  0  0  0
 23 32  1  0  0  0  0
 24 25  1  0  0  0  0
 24 29  1  1  0  0  0
 25 26  1  0  0  0  0
 26 27  1  0  0  0  0
 26 31  1  1  0  0  0
 27 28  1  6  0  0  0
 27 32  1  0  0  0  0
 28 30  1  0  0  0  0
M  CHG  5   8   1  18   1  19   1  29   1  30   1
M  END
>  <CHROM.1>
-147.22812546,-61.44240785,100.57702925,-61.51936097,-162.64637188,54.04285887
127.25947770,-166.82183060,-147.34539971,76.59669179,164.15869975,177.33749934
-169.18946638,-177.46684374,67.34405595,177.23952364,-8.57063716,-0.45845210
-9.17676270,-0.49347611,-0.08989506,2.83076227

>  <Name>
2tob cryst

>  <RI>
0

>  <Rbt.Current_Directory>
/home/itssahil/PROJECTS/Mol_Feturizer/New_Systems/rnas/2tob

>  <Rbt.Executable>
rbdock ($Id: //depot/dev/client3/rdock/2013.1/src/exe/rbdock.cxx#4 $)

>  <Rbt.Library>
libRbt.so (2013.1, Build901 2013/11/27)

>  <Rbt.Parameter_File>
/export/apps/rDock/src/rDock_2013.1_src/data/scripts/dock_solv.prm

>  <Rbt.Receptor>
prm/blind_docking_60.prm

>  <SCORE>
23.8178

>  <SCORE.INTER>
31.8263

>  <SCORE.INTER.CONST>
1

>  <SCORE.INTER.POLAR>
-5.82884

>  <SCORE.INTER.ROT>
6

>  <SCORE.INTER.SOLV>
50.6428

>  <SCORE.INTER.VDW>
16.1661

>  <SCORE.INTER.norm>
0.994572

>  <SCORE.INTRA>
-15.4161

>  <SCORE.INTRA.DIHEDRAL>
0.685084

>  <SCORE.INTRA.DIHEDRAL.0>
18.4221

>  <SCORE.INTRA.POLAR>
1.44766

>  <SCORE.INTRA.POLAR.0>
-1.57101

>  <SCORE.INTRA.REPUL>
-0.676056

>  <SCORE.INTRA.REPUL.0>
0.730195

>  <SCORE.INTRA.SOLV>
-6.41908

>  <SCORE.INTRA.SOLV.lig_0>
-127.221

>  <SCORE.INTRA.VDW>
-14.0909

>  <SCORE.INTRA.VDW.0>
10.8385

>  <SCORE.INTRA.norm>
-0.481753

>  <SCORE.RESTR>
7.40755

>  <SCORE.RESTR.CAVITY>
7.40755

>  <SCORE.RESTR.norm>
0.231486

>  <SCORE.SYSTEM>
0

>  <SCORE.SYSTEM.CONST>
0

>  <SCORE.SYSTEM.DIHEDRAL>
0

>  <SCORE.SYSTEM.SOLV>
0

>  <SCORE.SYSTEM.norm>
0

>  <SCORE.heavy>
32

>  <SCORE.norm>
0.744305

>  <RMSD>
5.057

$$$$
2tob cryst
 OpenBabel11021811463D
libRbt.so/2013.1/901 2013/11/27
 32 34  0  0  0  0  0  0  0  0999 V2000
   -5.9526    0.0626  -10.9769 C   0  0  2  0  0  0  0  0  0  0  0  0
   -4.6161    0.4751  -11.5857 C   0  0  1  0  0  0  0  0  0  0  0  0
   -3.9362    1.4797  -10.6550 C   0  0  2  0  0  0  0  0  0  0  0  0
   -4.8598    2.6712  -10.3689 C   0  0  1  0  0  0  0  0  0  0  0  0
   -6.2246    2.1713   -9.8830 C   0  0  1  0  0  0  0  0  0  0  0  0
   -7.2662    3.2643   -9.7080 C   0  0  0  0  0  0  0  0  0  0  0  0
   -3.7831   -0.6689  -11.7535 O   0  0  0  0  0  0  0  0  0  0  0  0
   -2.6092    2.0279  -11.0795 N   0  3  0  0  0  0  0  0  0  0  0  0
   -4.2617    3.4909   -9.3725 O   0  0  0  0  0  0  0  0  0  0  0  0
   -6.7591    1.2148  -10.8198 O   0  0  0  0  0  0  0  0  0  0  0  0
   -8.5372    2.7069   -9.3893 O   0  0  0  0  0  0  0  0  0  0  0  0
   -6.4145   -1.4561   -7.6193 C   0  0  2  0  0  0  0  0  0  0  0  0
   -7.5852   -1.8497   -6.7085 C   0  0  0  0  0  0  0  0  0  0  0  0
   -8.7649   -0.8902   -6.8380 C   0  0  1  0  0  0  0  0  0  0  0  0
   -9.1976   -0.8536   -8.2973 C   0  0  2  0  0  0  0  0  0  0  0  0
   -8.0623   -0.2838   -9.1515 C   0  0  1  0  0  0  0  0  0  0  0  0
   -6.8228   -1.1927   -9.0773 C   0  0  1  0  0  0  0  0  0  0  0  0
   -5.3476   -2.5127   -7.5953 N   0  3  0  0  0  0  0  0  0  0  0  0
   -9.8946   -1.3021   -5.9423 N   0  3  0  0  0  0  0  0  0  0  0  0
   -8.5024   -0.1597  -10.4979 O   0  0  0  0  0  0  0  0  0  0  0  0
  -10.3811   -0.0495   -8.4523 O   0  0  0  0  0  0  0  0  0  0  0  0
   -5.7114   -0.5571   -9.7427 O   0  0  0  0  0  0  0  0  0  0  0  0
  -11.3057   -0.5871   -9.3572 C   0  0  2  0  0  0  0  0  0  0  0  0
  -12.7183   -0.1085   -9.0060 C   0  0  1  0  0  0  0  0  0  0  0  0
  -13.2486   -0.8269   -7.7650 C   0  0  0  0  0  0  0  0  0  0  0  0
  -13.1283   -2.3278   -7.9742 C   0  0  1  0  0  0  0  0  0  0  0  0
  -11.6745   -2.6806   -8.2364 C   0  0  1  0  0  0  0  0  0  0  0  0
  -11.4883   -4.1721   -8.4483 C   0  0  0  0  0  0  0  0  0  0  0  0
  -12.6958    1.3674   -8.7510 N   0  3  0  0  0  0  0  0  0  0  0  0
  -10.1586   -4.5628   -7.8633 N   0  3  0  0  0  0  0  0  0  0  0  0
  -13.5982   -3.0253   -6.8293 O   0  0  0  0  0  0  0  0  0  0  0  0
  -11.2292   -2.0070   -9.4258 O   0  0  0  0  0  0  0  0  0  0  0  0
  1  2  1  0  0  0  0
  1 22  1  1  0  0  0
  1 10  1  0  0  0  0
  2  3  1  0  0  0  0
  2  7  1  1  0  0  0
  3  4  1  0  0  0  0
  3  8  1  6  0  0  0
  4  5  1  0  0  0  0
  4  9  1  1  0  0  0
  5  6  1  6  0  0  0
  5 10  1  0  0  0  0
  6 11  1  0  0  0  0
 12 13  1  0  0  0  0
 12 17  1  0  0  0  0
 12 18  1  6  0  0  0
 13 14  1  0  0  0  0
 14 15  1  0  0  0  0
 14 19  1  1  0  0  0
 15 16  1  0  0  0  0
 15 21  1  1  0  0  0
 16 17  1  0  0  0  0
 16 20  1  6  0  0  0
 17 22  1  6  0  0  0
 23 21  1  1  0  0  0
 23 24  1  0  0  0  0
 23 32  1  0  0  0  0
 24 25  1  0  0  0  0
 24 29  1  1  0  0  0
 25 26  1  0  0  0  0
 26 27  1  0  0  0  0
 26 31  1  1  0  0  0
 27 28  1  6  0  0  0
 27 32  1  0  0  0  0
 28 30  1  0  0  0  0
M  CHG  5   8   1  18   1  19   1  29   1  30   1
M  END
>  <CHROM.1>
-171.58621799,177.63233771,-18.56315650,171.46456514,174.02789218,58.20935632
22.15518483,-57.61525436,-139.97656618,-31.31200606,-165.09229446,153.57619180
171.51787402,66.62640829,-145.12771090,-49.63769742,-8.31876181,-0.34569997
-9.02974018,-0.49409368,-0.17714657,2.81058159

>  <Name>
2tob cryst

>  <RI>
0

>  <Rbt.Current_Directory>
/home/itssahil/PROJECTS/Mol_Feturizer/New_Systems/rnas/2tob

>  <Rbt.Executable>
rbdock ($Id: //depot/dev/client3/rdock/2013.1/src/exe/rbdock.cxx#4 $)

>  <Rbt.Library>
libRbt.so (2013.1, Build901 2013/11/27)

>  <Rbt.Parameter_File>
/export/apps/rDock/src/rDock_2013.1_src/data/scripts/dock_solv.prm

>  <Rbt.Receptor>
prm/blind_docking_60.prm

>  <SCORE>
56.3824

>  <SCORE.INTER>
54.7394

>  <SCORE.INTER.CONST>
1

>  <SCORE.INTER.POLAR>
-4.96349

>  <SCORE.INTER.ROT>
6

>  <SCORE.INTER.SOLV>
49.7045

>  <SCORE.INTER.VDW>
28.8698

>  <SCORE.INTER.norm>
1.71061

>  <SCORE.INTRA>
-6.36153

>  <SCORE.INTRA.DIHEDRAL>
4.45719

>  <SCORE.INTRA.DIHEDRAL.0>
18.4221

>  <SCORE.INTRA.POLAR>
1.56991

>  <SCORE.INTRA.POLAR.0>
-1.57101

>  <SCORE.INTRA.REPUL>
-0.722984

>  <SCORE.INTRA.REPUL.0>
0.730195

>  <SCORE.INTRA.SOLV>
-3.41182

>  <SCORE.INTRA.SOLV.lig_0>
-127.221

>  <SCORE.INTRA.VDW>
-8.60697

>  <SCORE.INTRA.VDW.0>
10.8385

>  <SCORE.INTRA.norm>
-0.198798

>  <SCORE.RESTR>
8.00453

>  <SCORE.RESTR.CAVITY>
8.00453

>  <SCORE.RESTR.norm>
0.250141

>  <SCORE.SYSTEM>
0

>  <SCORE.SYSTEM.CONST>
0

>  <SCORE.SYSTEM.DIHEDRAL>
0

>  <SCORE.SYSTEM.SOLV>
0

>  <SCORE.SYSTEM.norm>
0

>  <SCORE.heavy>
32

>  <SCORE.norm>
1.76195

>  <RMSD>
5.060

$$$$
2tob cryst
 OpenBabel11021811463D
libRbt.so/2013.1/901 2013/11/27
 32 34  0  0  0  0  0  0  0  0999 V2000
  -10.1920   -2.3351   -7.9429 C   0  0  2  0  0  0  0  0  0  0  0  0
   -8.9718   -3.1393   -8.3806 C   0  0  1  0  0  0  0  0  0  0  0  0
   -7.7123   -2.3153   -8.1115 C   0  0  2  0  0  0  0  0  0  0  0  0
   -7.8023   -0.9421   -8.7903 C   0  0  1  0  0  0  0  0  0  0  0  0
   -9.1139   -0.2508   -8.4021 C   0  0  1  0  0  0  0  0  0  0  0  0
   -9.3737    1.0560   -9.1336 C   0  0  0  0  0  0  0  0  0  0  0  0
   -8.9111   -4.3655   -7.6570 O   0  0  0  0  0  0  0  0  0  0  0  0
   -6.3959   -2.9207   -8.4886 N   0  3  0  0  0  0  0  0  0  0  0  0
   -6.6965   -0.1490   -8.3775 O   0  0  0  0  0  0  0  0  0  0  0  0
  -10.2283   -1.1240   -8.6740 O   0  0  0  0  0  0  0  0  0  0  0  0
   -8.3654    2.0150   -8.8316 O   0  0  0  0  0  0  0  0  0  0  0  0
  -11.2393   -1.5519   -4.5117 C   0  0  2  0  0  0  0  0  0  0  0  0
  -12.5318   -1.6479   -3.6900 C   0  0  0  0  0  0  0  0  0  0  0  0
  -13.7795   -1.5378   -4.5622 C   0  0  1  0  0  0  0  0  0  0  0  0
  -13.7242   -2.6301   -5.6213 C   0  0  2  0  0  0  0  0  0  0  0  0
  -12.5185   -2.3942   -6.5345 C   0  0  1  0  0  0  0  0  0  0  0  0
  -11.2083   -2.4850   -5.7325 C   0  0  1  0  0  0  0  0  0  0  0  0
  -10.0428   -1.8368   -3.6500 N   0  3  0  0  0  0  0  0  0  0  0  0
  -15.0255   -1.6405   -3.7345 N   0  3  0  0  0  0  0  0  0  0  0  0
  -12.5238   -3.3577   -7.5802 O   0  0  0  0  0  0  0  0  0  0  0  0
  -14.9354   -2.6404   -6.3987 O   0  0  0  0  0  0  0  0  0  0  0  0
  -10.0981   -2.0909   -6.5655 O   0  0  0  0  0  0  0  0  0  0  0  0
  -15.2514   -3.9012   -6.9215 C   0  0  2  0  0  0  0  0  0  0  0  0
  -16.6390   -3.8641   -7.5704 C   0  0  1  0  0  0  0  0  0  0  0  0
  -17.7400   -3.8325   -6.5100 C   0  0  0  0  0  0  0  0  0  0  0  0
  -17.5292   -4.9877   -5.5446 C   0  0  1  0  0  0  0  0  0  0  0  0
  -16.1528   -4.8667   -4.9140 C   0  0  1  0  0  0  0  0  0  0  0  0
  -15.8842   -5.9927   -3.9321 C   0  0  0  0  0  0  0  0  0  0  0  0
  -16.7521   -2.6476   -8.4368 N   0  3  0  0  0  0  0  0  0  0  0  0
  -15.1907   -7.1020   -4.6747 N   0  3  0  0  0  0  0  0  0  0  0  0
  -18.5284   -4.9763   -4.5349 O   0  0  0  0  0  0  0  0  0  0  0  0
  -15.1512   -4.9307   -5.9434 O   0  0  0  0  0  0  0  0  0  0  0  0
  1  2  1  0  0  0  0
  1 22  1  1  0  0  0
  1 10  1  0  0  0  0
  2  3  1  0  0  0  0
  2  7  1  1  0  0  0
  3  4  1  0  0  0  0
  3  8  1  6  0  0  0
  4  5  1  0  0  0  0
  4  9  1  1  0  0  0
  5  6  1  6  0  0  0
  5 10  1  0  0  0  0
  6 11  1  0  0  0  0
 12 13  1  0  0  0  0
 12 17  1  0  0  0  0
 12 18  1  1  0  0  0
 13 14  1  0  0  0  0
 14 15  1  0  0  0  0
 14 19  1  1  0  0  0
 15 16  1  0  0  0  0
 15 21  1  6  0  0  0
 16 17  1  0  0  0  0
 16 20  1  6  0  0  0
 17 22  1  6  0  0  0
 23 21  1  1  0  0  0
 23 24  1  0  0  0  0
 23 32  1  0  0  0  0
 24 25  1  0  0  0  0
 24 29  1  6  0  0  0
 25 26  1  0  0  0  0
 26 27  1  0  0  0  0
 26 31  1  1  0  0  0
 27 28  1  1  0  0  0
 27 32  1  0  0  0  0
 28 30  1  0  0  0  0
M  CHG  5   8   1  18   1  19   1  29   1  30   1
M  END
>  <CHROM.1>
-125.58935366,175.28044031,150.99756698,-173.65207003,-62.34160868,-66.14470609
-169.23978089,65.37950026,-151.85411438,73.32315241,-151.74666639,172.46874098
-179.18221940,62.40011834,92.57789110,-177.92868315,-12.35405208,-2.67088568
-6.57904805,-0.48950423,-0.00807755,2.48484160

>  <Name>
2tob cryst

>  <RI>
3.75586e+07

>  <Rbt.Current_Directory>
/home/itssahil/PROJECTS/Mol_Feturizer/New_Systems/rnas/2tob

>  <Rbt.Executable>
rbdock ($Id: //depot/dev/client3/rdock/2013.1/src/exe/rbdock.cxx#4 $)

>  <Rbt.Library>
libRbt.so (2013.1, Build901 2013/11/27)

>  <Rbt.Parameter_File>
/export/apps/rDock/src/rDock_2013.1_src/data/scripts/dock_solv.prm

>  <Rbt.Receptor>
prm/pocket_docking_8.prm

>  <SCORE>
-46.1891

>  <SCORE.INTER>
-31.7502

>  <SCORE.INTER.CONST>
1

>  <SCORE.INTER.POLAR>
-4.7879

>  <SCORE.INTER.ROT>
6

>  <SCORE.INTER.SOLV>
24.3418

>  <SCORE.INTER.VDW>
-20.9211

>  <SCORE.INTER.norm>
-0.992193

>  <SCORE.INTRA>
-14.4389

>  <SCORE.INTRA.DIHEDRAL>
2.02499

>  <SCORE.INTRA.DIHEDRAL.0>
18.4221

>  <SCORE.INTRA.POLAR>
1.05428

>  <SCORE.INTRA.POLAR.0>
-1.57101

>  <SCORE.INTRA.REPUL>
-0.730195

>  <SCORE.INTRA.REPUL.0>
0.730195

>  <SCORE.INTRA.SOLV>
-8.23445

>  <SCORE.INTRA.SOLV.lig_0>
-127.221

>  <SCORE.INTRA.VDW>
-11.2677

>  <SCORE.INTRA.VDW.0>
10.8385

>  <SCORE.INTRA.norm>
-0.451216

>  <SCORE.RESTR>
0

>  <SCORE.RESTR.CAVITY>
0

>  <SCORE.RESTR.norm>
0

>  <SCORE.SYSTEM>
0

>  <SCORE.SYSTEM.CONST>
0

>  <SCORE.SYSTEM.DIHEDRAL>
0

>  <SCORE.SYSTEM.SOLV>
0

>  <SCORE.SYSTEM.norm>
0

>  <SCORE.heavy>
32

>  <SCORE.norm>
-1.44341

>  <RMSD>
5.101

$$$$
2tob cryst
 OpenBabel11021811463D
libRbt.so/2013.1/901 2013/11/27
 32 34  0  0  0  0  0  0  0  0999 V2000
   -5.1166    0.4693  -11.1186 C   0  0  2  0  0  0  0  0  0  0  0  0
   -4.0524   -0.6150  -11.2554 C   0  0  1  0  0  0  0  0  0  0  0  0
   -2.6836   -0.0082  -10.9456 C   0  0  2  0  0  0  0  0  0  0  0  0
   -2.4142    1.2139  -11.8335 C   0  0  1  0  0  0  0  0  0  0  0  0
   -3.5857    2.1976  -11.7403 C   0  0  1  0  0  0  0  0  0  0  0  0
   -3.4897    3.3782  -12.6928 C   0  0  0  0  0  0  0  0  0  0  0  0
   -4.3243   -1.6817  -10.3504 O   0  0  0  0  0  0  0  0  0  0  0  0
   -1.4906   -0.9079  -11.0405 N   0  3  0  0  0  0  0  0  0  0  0  0
   -1.2162    1.8454  -11.3995 O   0  0  0  0  0  0  0  0  0  0  0  0
   -4.8233    1.5155  -12.0253 O   0  0  0  0  0  0  0  0  0  0  0  0
   -4.0286    3.0456  -13.9682 O   0  0  0  0  0  0  0  0  0  0  0  0
   -7.3751    1.7707   -9.9073 C   0  0  2  0  0  0  0  0  0  0  0  0
   -8.8294    1.6273   -9.4388 C   0  0  0  0  0  0  0  0  0  0  0  0
   -9.2427    0.1669   -9.2785 C   0  0  1  0  0  0  0  0  0  0  0  0
   -8.2860   -0.4992   -8.2992 C   0  0  2  0  0  0  0  0  0  0  0  0
   -6.8722   -0.4968   -8.8860 C   0  0  1  0  0  0  0  0  0  0  0  0
   -6.3730    0.9452   -9.0848 C   0  0  1  0  0  0  0  0  0  0  0  0
   -6.9526    3.2116   -9.8865 N   0  3  0  0  0  0  0  0  0  0  0  0
  -10.6644    0.0577   -8.8149 N   0  3  0  0  0  0  0  0  0  0  0  0
   -5.9993   -1.2046   -8.0148 O   0  0  0  0  0  0  0  0  0  0  0  0
   -8.7031   -1.8494   -8.0263 O   0  0  0  0  0  0  0  0  0  0  0  0
   -5.1174    0.9331   -9.7955 O   0  0  0  0  0  0  0  0  0  0  0  0
   -7.8410   -2.5348   -7.1604 C   0  0  2  0  0  0  0  0  0  0  0  0
   -8.1708   -4.0312   -7.1725 C   0  0  1  0  0  0  0  0  0  0  0  0
   -9.4590   -4.3155   -6.3997 C   0  0  0  0  0  0  0  0  0  0  0  0
   -9.3455   -3.7090   -5.0104 C   0  0  1  0  0  0  0  0  0  0  0  0
   -9.0962   -2.2161   -5.1361 C   0  0  1  0  0  0  0  0  0  0  0  0
   -8.9789   -1.5502   -3.7770 C   0  0  0  0  0  0  0  0  0  0  0  0
   -8.3306   -4.4953   -8.5876 N   0  3  0  0  0  0  0  0  0  0  0  0
   -9.2079   -0.0748   -3.9604 N   0  3  0  0  0  0  0  0  0  0  0  0
  -10.5360   -3.9417   -4.2710 O   0  0  0  0  0  0  0  0  0  0  0  0
   -7.8629   -1.9982   -5.8420 O   0  0  0  0  0  0  0  0  0  0  0  0
  1  2  1  0  0  0  0
  1 22  1  1  0  0  0
  1 10  1  0  0  0  0
  2  3  1  0  0  0  0
  2  7  1  1  0  0  0
  3  4  1  0  0  0  0
  3  8  1  6  0  0  0
  4  5  1  0  0  0  0
  4  9  1  1  0  0  0
  5  6  1  6  0  0  0
  5 10  1  0  0  0  0
  6 11  1  0  0  0  0
 12 13  1  0  0  0  0
 12 17  1  0  0  0  0
 12 18  1  1  0  0  0
 13 14  1  0  0  0  0
 14 15  1  0  0  0  0
 14 19  1  1  0  0  0
 15 16  1  0  0  0  0
 15 21  1  6  0  0  0
 16 17  1  0  0  0  0
 16 20  1  1  0  0  0
 17 22  1  6  0  0  0
 23 21  1  6  0  0  0
 23 24  1  0  0  0  0
 23 32  1  0  0  0  0
 24 25  1  0  0  0  0
 24 29  1  6  0  0  0
 25 26  1  0  0  0  0
 26 27  1  0  0  0  0
 26 31  1  1  0  0  0
 27 28  1  1  0  0  0
 27 32  1  0  0  0  0
 28 30  1  0  0  0  0
M  CHG  5   8   1  18   1  19   1  29   1  30   1
M  END
>  <CHROM.1>
-127.30421584,-48.34645833,-167.62182897,-48.94812939,85.83782902,71.93015213
2.34966795,-56.38368703,178.19499281,-42.20304737,-55.89757318,-167.29955598
175.70549556,75.11992346,-160.87655596,-139.94391169,-6.56582555,-0.42310969
-8.90828234,-0.78298612,-0.49392210,2.61961598

>  <Name>
2tob cryst

>  <RI>
0

>  <Rbt.Current_Directory>
/home/itssahil/PROJECTS/Mol_Feturizer/New_Systems/rnas/2tob

>  <Rbt.Executable>
rbdock ($Id: //depot/dev/client3/rdock/2013.1/src/exe/rbdock.cxx#4 $)

>  <Rbt.Library>
libRbt.so (2013.1, Build901 2013/11/27)

>  <Rbt.Parameter_File>
/export/apps/rDock/src/rDock_2013.1_src/data/scripts/dock_solv.prm

>  <Rbt.Receptor>
prm/blind_docking_40.prm

>  <SCORE>
-20.2151

>  <SCORE.INTER>
-16.6335

>  <SCORE.INTER.CONST>
1

>  <SCORE.INTER.POLAR>
-6.24983

>  <SCORE.INTER.ROT>
6

>  <SCORE.INTER.SOLV>
47.7727

>  <SCORE.INTER.VDW>
-13.7805

>  <SCORE.INTER.norm>
-0.519797

>  <SCORE.INTRA>
-12.7154

>  <SCORE.INTRA.DIHEDRAL>
3.93715

>  <SCORE.INTRA.DIHEDRAL.0>
18.4221

>  <SCORE.INTRA.POLAR>
0.499149

>  <SCORE.INTRA.POLAR.0>
-1.57101

>  <SCORE.INTRA.REPUL>
-0.730195

>  <SCORE.INTRA.REPUL.0>
0.730195

>  <SCORE.INTRA.SOLV>
-9.34623

>  <SCORE.INTRA.SOLV.lig_0>
-127.221

>  <SCORE.INTRA.VDW>
-8.05696

>  <SCORE.INTRA.VDW.0>
10.8385

>  <SCORE.INTRA.norm>
-0.397355

>  <SCORE.RESTR>
9.13375

>  <SCORE.RESTR.CAVITY>
9.13375

>  <SCORE.RESTR.norm>
0.28543

>  <SCORE.SYSTEM>
0

>  <SCORE.SYSTEM.CONST>
0

>  <SCORE.SYSTEM.DIHEDRAL>
0

>  <SCORE.SYSTEM.SOLV>
0

>  <SCORE.SYSTEM.norm>
0

>  <SCORE.heavy>
32

>  <SCORE.norm>
-0.631722

>  <RMSD>
5.173

$$$$
2tob cryst
 OpenBabel11021811463D
libRbt.so/2013.1/901 2013/11/27
 32 34  0  0  0  0  0  0  0  0999 V2000
   -8.9130   -1.7786   -8.5658 C   0  0  2  0  0  0  0  0  0  0  0  0
   -7.6368   -2.5128   -8.9648 C   0  0  1  0  0  0  0  0  0  0  0  0
   -6.4308   -1.6539   -8.5833 C   0  0  2  0  0  0  0  0  0  0  0  0
   -6.5383   -0.2546   -9.2037 C   0  0  1  0  0  0  0  0  0  0  0  0
   -7.8981    0.3657   -8.8646 C   0  0  1  0  0  0  0  0  0  0  0  0
   -8.1691    1.6946   -9.5508 C   0  0  0  0  0  0  0  0  0  0  0  0
   -7.5672   -3.7686   -8.2949 O   0  0  0  0  0  0  0  0  0  0  0  0
   -5.0703   -2.1888   -8.9071 N   0  3  0  0  0  0  0  0  0  0  0  0
   -5.4927    0.5606   -8.6895 O   0  0  0  0  0  0  0  0  0  0  0  0
   -8.9572   -0.5365   -9.2424 O   0  0  0  0  0  0  0  0  0  0  0  0
   -6.9914    2.4941   -9.5903 O   0  0  0  0  0  0  0  0  0  0  0  0
   -9.5317   -2.1014   -4.9019 C   0  0  2  0  0  0  0  0  0  0  0  0
  -10.4901   -2.8431   -3.9604 C   0  0  0  0  0  0  0  0  0  0  0  0
  -11.9209   -2.8620   -4.4912 C   0  0  1  0  0  0  0  0  0  0  0  0
  -11.9128   -3.4993   -5.8739 C   0  0  2  0  0  0  0  0  0  0  0  0
  -11.0927   -2.6305   -6.8308 C   0  0  1  0  0  0  0  0  0  0  0  0
   -9.6272   -2.5532   -6.3678 C   0  0  1  0  0  0  0  0  0  0  0  0
   -8.1117   -2.2523   -4.4370 N   0  3  0  0  0  0  0  0  0  0  0  0
  -12.8326   -3.5971   -3.5550 N   0  3  0  0  0  0  0  0  0  0  0  0
  -11.1669   -3.1750   -8.1424 O   0  0  0  0  0  0  0  0  0  0  0  0
  -13.2561   -3.6445   -6.3700 O   0  0  0  0  0  0  0  0  0  0  0  0
   -8.9102   -1.5966   -7.1757 O   0  0  0  0  0  0  0  0  0  0  0  0
  -14.0324   -2.4875   -6.2237 C   0  0  2  0  0  0  0  0  0  0  0  0
  -15.4019   -2.6916   -6.8800 C   0  0  1  0  0  0  0  0  0  0  0  0
  -15.2933   -2.6391   -8.4041 C   0  0  0  0  0  0  0  0  0  0  0  0
  -14.5907   -1.3521   -8.8051 C   0  0  1  0  0  0  0  0  0  0  0  0
  -13.2198   -1.3074   -8.1530 C   0  0  1  0  0  0  0  0  0  0  0  0
  -12.4639   -0.0436   -8.5213 C   0  0  0  0  0  0  0  0  0  0  0  0
  -15.9586   -4.0202   -6.4695 N   0  3  0  0  0  0  0  0  0  0  0  0
  -11.5409   -0.3698   -9.6635 N   0  3  0  0  0  0  0  0  0  0  0  0
  -14.4588   -1.2808  -10.2177 O   0  0  0  0  0  0  0  0  0  0  0  0
  -13.3727   -1.3292   -6.7236 O   0  0  0  0  0  0  0  0  0  0  0  0
  1  2  1  0  0  0  0
  1 22  1  1  0  0  0
  1 10  1  0  0  0  0
  2  3  1  0  0  0  0
  2  7  1  1  0  0  0
  3  4  1  0  0  0  0
  3  8  1  6  0  0  0
  4  5  1  0  0  0  0
  4  9  1  1  0  0  0
  5  6  1  6  0  0  0
  5 10  1  0  0  0  0
  6 11  1  0  0  0  0
 12 13  1  0  0  0  0
 12 17  1  0  0  0  0
 12 18  1  1  0  0  0
 13 14  1  0  0  0  0
 14 15  1  0  0  0  0
 14 19  1  1  0  0  0
 15 16  1  0  0  0  0
 15 21  1  6  0  0  0
 16 17  1  0  0  0  0
 16 20  1  6  0  0  0
 17 22  1  6  0  0  0
 23 21  1  6  0  0  0
 23 24  1  0  0  0  0
 23 32  1  0  0  0  0
 24 25  1  0  0  0  0
 24 29  1  6  0  0  0
 25 26  1  0  0  0  0
 26 27  1  0  0  0  0
 26 31  1  6  0  0  0
 27 28  1  1  0  0  0
 27 32  1  0  0  0  0
 28 30  1  0  0  0  0
M  CHG  5   8   1  18   1  19   1  29   1  30   1
M  END
>  <CHROM.1>
-96.39573057,158.46078931,131.05475358,-175.69495098,-39.23890148,165.41388768
-74.57051382,-175.41614005,47.29552343,48.02725801,-177.30270324,175.30248179
-166.75460981,-150.07587549,-96.96045509,-115.98262575,-10.55101221,-1.74245897
-7.54341584,0.39014155,-0.09693515,-0.95780325

>  <Name>
2tob cryst

>  <RI>
2.04895e+07

>  <Rbt.Current_Directory>
/home/itssahil/PROJECTS/Mol_Feturizer/New_Systems/rnas/2tob

>  <Rbt.Executable>
rbdock ($Id: //depot/dev/client3/rdock/2013.1/src/exe/rbdock.cxx#4 $)

>  <Rbt.Library>
libRbt.so (2013.1, Build901 2013/11/27)

>  <Rbt.Parameter_File>
/export/apps/rDock/src/rDock_2013.1_src/data/scripts/dock_solv.prm

>  <Rbt.Receptor>
prm/blind_docking_20.prm

>  <SCORE>
-36.2325

>  <SCORE.INTER>
-33.5123

>  <SCORE.INTER.CONST>
1

>  <SCORE.INTER.POLAR>
-4.82043

>  <SCORE.INTER.ROT>
6

>  <SCORE.INTER.SOLV>
35.4022

>  <SCORE.INTER.VDW>
-25.6742

>  <SCORE.INTER.norm>
-1.04726

>  <SCORE.INTRA>
-9.03516

>  <SCORE.INTRA.DIHEDRAL>
7.63643

>  <SCORE.INTRA.DIHEDRAL.0>
18.4221

>  <SCORE.INTRA.POLAR>
-0.459347

>  <SCORE.INTRA.POLAR.0>
-1.57101

>  <SCORE.INTRA.REPUL>
-0.730195

>  <SCORE.INTRA.REPUL.0>
0.730195

>  <SCORE.INTRA.SOLV>
0.164602

>  <SCORE.INTRA.SOLV.lig_0>
-127.221

>  <SCORE.INTRA.VDW>
-7.72293

>  <SCORE.INTRA.VDW.0>
10.8385

>  <SCORE.INTRA.norm>
-0.282349

>  <SCORE.RESTR>
6.31501

>  <SCORE.RESTR.CAVITY>
6.31501

>  <SCORE.RESTR.norm>
0.197344

>  <SCORE.SYSTEM>
0

>  <SCORE.SYSTEM.CONST>
0

>  <SCORE.SYSTEM.DIHEDRAL>
0

>  <SCORE.SYSTEM.SOLV>
0

>  <SCORE.SYSTEM.norm>
0

>  <SCORE.heavy>
32

>  <SCORE.norm>
-1.13226

>  <RMSD>
5.183

$$$$
2tob cryst
 OpenBabel11021811463D
libRbt.so/2013.1/901 2013/11/27
 32 34  0  0  0  0  0  0  0  0999 V2000
  -10.0155   -2.6409   -7.5730 C   0  0  2  0  0  0  0  0  0  0  0  0
   -8.5892   -3.1594   -7.7272 C   0  0  1  0  0  0  0  0  0  0  0  0
   -7.6169   -1.9899   -7.5702 C   0  0  2  0  0  0  0  0  0  0  0  0
   -7.9560   -0.8616   -8.5534 C   0  0  1  0  0  0  0  0  0  0  0  0
   -9.4361   -0.4842   -8.4273 C   0  0  1  0  0  0  0  0  0  0  0  0
   -9.9152    0.5251   -9.4578 C   0  0  0  0  0  0  0  0  0  0  0  0
   -8.3202   -4.1480   -6.7367 O   0  0  0  0  0  0  0  0  0  0  0  0
   -6.1548   -2.2829   -7.7052 N   0  3  0  0  0  0  0  0  0  0  0  0
   -7.1420    0.2670   -8.2604 O   0  0  0  0  0  0  0  0  0  0  0  0
  -10.2565   -1.6615   -8.5656 O   0  0  0  0  0  0  0  0  0  0  0  0
  -11.2317    0.9744   -9.1532 O   0  0  0  0  0  0  0  0  0  0  0  0
  -11.3867   -1.6075   -4.2709 C   0  0  2  0  0  0  0  0  0  0  0  0
  -12.7096   -1.7281   -3.5024 C   0  0  0  0  0  0  0  0  0  0  0  0
  -13.9230   -1.6144   -4.4211 C   0  0  1  0  0  0  0  0  0  0  0  0
  -13.8160   -2.6886   -5.4948 C   0  0  2  0  0  0  0  0  0  0  0  0
  -12.5776   -2.4273   -6.3558 C   0  0  1  0  0  0  0  0  0  0  0  0
  -11.2991   -2.5200   -5.5044 C   0  0  1  0  0  0  0  0  0  0  0  0
  -10.2223   -1.8962   -3.3674 N   0  3  0  0  0  0  0  0  0  0  0  0
  -15.1995   -1.7415   -3.6450 N   0  3  0  0  0  0  0  0  0  0  0  0
  -12.5330   -3.3735   -7.4163 O   0  0  0  0  0  0  0  0  0  0  0  0
  -14.9957   -2.6966   -6.3193 O   0  0  0  0  0  0  0  0  0  0  0  0
  -10.1608   -2.1027   -6.2866 O   0  0  0  0  0  0  0  0  0  0  0  0
  -15.2392   -3.9328   -6.9318 C   0  0  2  0  0  0  0  0  0  0  0  0
  -16.5899   -3.9000   -7.6545 C   0  0  1  0  0  0  0  0  0  0  0  0
  -17.7474   -3.9665   -6.6578 C   0  0  0  0  0  0  0  0  0  0  0  0
  -17.5498   -5.1706   -5.7512 C   0  0  1  0  0  0  0  0  0  0  0  0
  -16.2147   -5.0450   -5.0381 C   0  0  1  0  0  0  0  0  0  0  0  0
  -15.9614   -6.2192   -4.1101 C   0  0  0  0  0  0  0  0  0  0  0  0
  -16.6975   -2.6375   -8.4535 N   0  3  0  0  0  0  0  0  0  0  0  0
  -14.6019   -6.0389   -3.4918 N   0  3  0  0  0  0  0  0  0  0  0  0
  -18.6022   -5.2511   -4.8005 O   0  0  0  0  0  0  0  0  0  0  0  0
  -15.1570   -5.0157   -6.0113 O   0  0  0  0  0  0  0  0  0  0  0  0
  1  2  1  0  0  0  0
  1 22  1  1  0  0  0
  1 10  1  0  0  0  0
  2  3  1  0  0  0  0
  2  7  1  1  0  0  0
  3  4  1  0  0  0  0
  3  8  1  6  0  0  0
  4  5  1  0  0  0  0
  4  9  1  1  0  0  0
  5  6  1  6  0  0  0
  5 10  1  0  0  0  0
  6 11  1  0  0  0  0
 12 13  1  0  0  0  0
 12 17  1  0  0  0  0
 12 18  1  1  0  0  0
 13 14  1  0  0  0  0
 14 15  1  0  0  0  0
 14 19  1  1  0  0  0
 15 16  1  0  0  0  0
 15 21  1  6  0  0  0
 16 17  1  0  0  0  0
 16 20  1  6  0  0  0
 17 22  1  6  0  0  0
 23 21  1  1  0  0  0
 23 24  1  0  0  0  0
 23 32  1  0  0  0  0
 24 25  1  0  0  0  0
 24 29  1  1  0  0  0
 25 26  1  0  0  0  0
 26 27  1  0  0  0  0
 26 31  1  1  0  0  0
 27 28  1  1  0  0  0
 27 32  1  0  0  0  0
 28 30  1  0  0  0  0
M  CHG  5   8   1  18   1  19   1  29   1  30   1
M  END
>  <CHROM.1>
-130.55600158,-58.16614582,86.36532677,69.41927135,-171.18249220,-167.20160788
-179.05832361,-163.46552229,-155.08055160,148.55918042,-169.28571223,173.52781661
-173.67869413,-175.77676454,177.80915570,-169.43072516,-12.46998520,-2.71396617
-6.40760163,0.42156598,-0.18269179,-1.03789470

>  <Name>
2tob cryst

>  <RI>
2.10184e+07

>  <Rbt.Current_Directory>
/home/itssahil/PROJECTS/Mol_Feturizer/New_Systems/rnas/2tob

>  <Rbt.Executable>
rbdock ($Id: //depot/dev/client3/rdock/2013.1/src/exe/rbdock.cxx#4 $)

>  <Rbt.Library>
libRbt.so (2013.1, Build901 2013/11/27)

>  <Rbt.Parameter_File>
/export/apps/rDock/src/rDock_2013.1_src/data/scripts/dock_solv.prm

>  <Rbt.Receptor>
prm/pocket_docking_7.prm

>  <SCORE>
-45.4519

>  <SCORE.INTER>
-29.067

>  <SCORE.INTER.CONST>
1

>  <SCORE.INTER.POLAR>
-4.2687

>  <SCORE.INTER.ROT>
6

>  <SCORE.INTER.SOLV>
25.1614

>  <SCORE.INTER.VDW>
-21.1362

>  <SCORE.INTER.norm>
-0.908344

>  <SCORE.INTRA>
-16.3849

>  <SCORE.INTRA.DIHEDRAL>
-0.232033

>  <SCORE.INTRA.DIHEDRAL.0>
18.4221

>  <SCORE.INTRA.POLAR>
1.03318

>  <SCORE.INTRA.POLAR.0>
-1.57101

>  <SCORE.INTRA.REPUL>
-0.730195

>  <SCORE.INTRA.REPUL.0>
0.730195

>  <SCORE.INTRA.SOLV>
-9.14888

>  <SCORE.INTRA.SOLV.lig_0>
-127.221

>  <SCORE.INTRA.VDW>
-11.5563

>  <SCORE.INTRA.VDW.0>
10.8385

>  <SCORE.INTRA.norm>
-0.512028

>  <SCORE.RESTR>
0

>  <SCORE.RESTR.CAVITY>
0

>  <SCORE.RESTR.norm>
0

>  <SCORE.SYSTEM>
0

>  <SCORE.SYSTEM.CONST>
0

>  <SCORE.SYSTEM.DIHEDRAL>
0

>  <SCORE.SYSTEM.SOLV>
0

>  <SCORE.SYSTEM.norm>
0

>  <SCORE.heavy>
32

>  <SCORE.norm>
-1.42037

>  <RMSD>
5.186

$$$$
2tob cryst
 OpenBabel11021811463D
libRbt.so/2013.1/901 2013/11/27
 32 34  0  0  0  0  0  0  0  0999 V2000
   -9.3356   -3.8240   -4.9373 C   0  0  2  0  0  0  0  0  0  0  0  0
   -9.1178   -2.8057   -3.8226 C   0  0  1  0  0  0  0  0  0  0  0  0
   -9.4608   -1.4122   -4.3502 C   0  0  2  0  0  0  0  0  0  0  0  0
   -8.6581   -1.0954   -5.6190 C   0  0  1  0  0  0  0  0  0  0  0  0
   -8.8260   -2.2253   -6.6408 C   0  0  1  0  0  0  0  0  0  0  0  0
   -7.9571   -2.0839   -7.8798 C   0  0  0  0  0  0  0  0  0  0  0  0
   -9.9483   -3.1184   -2.7077 O   0  0  0  0  0  0  0  0  0  0  0  0
   -9.2968   -0.2574   -3.4114 N   0  3  0  0  0  0  0  0  0  0  0  0
   -9.1277    0.1288   -6.1695 O   0  0  0  0  0  0  0  0  0  0  0  0
   -8.5018   -3.4908   -6.0311 O   0  0  0  0  0  0  0  0  0  0  0  0
   -6.5832   -2.2787   -7.5602 O   0  0  0  0  0  0  0  0  0  0  0  0
  -10.7401   -4.7755   -7.5123 C   0  0  2  0  0  0  0  0  0  0  0  0
  -10.9502   -6.0364   -8.3615 C   0  0  0  0  0  0  0  0  0  0  0  0
  -10.4009   -7.2878   -7.6822 C   0  0  1  0  0  0  0  0  0  0  0  0
  -11.0689   -7.4292   -6.3214 C   0  0  2  0  0  0  0  0  0  0  0  0
  -10.6867   -6.2377   -5.4396 C   0  0  1  0  0  0  0  0  0  0  0  0
  -11.2020   -4.9244   -6.0541 C   0  0  1  0  0  0  0  0  0  0  0  0
  -11.4428   -3.6000   -8.1285 N   0  3  0  0  0  0  0  0  0  0  0  0
  -10.6250   -8.5033   -8.5309 N   0  3  0  0  0  0  0  0  0  0  0  0
  -11.2317   -6.4202   -4.1389 O   0  0  0  0  0  0  0  0  0  0  0  0
  -10.6685   -8.6582   -5.6884 O   0  0  0  0  0  0  0  0  0  0  0  0
  -10.6876   -3.8018   -5.3078 O   0  0  0  0  0  0  0  0  0  0  0  0
  -11.5702   -9.1020   -4.7124 C   0  0  2  0  0  0  0  0  0  0  0  0
  -10.9983  -10.3278   -3.9924 C   0  0  1  0  0  0  0  0  0  0  0  0
  -11.0740  -11.5704   -4.8800 C   0  0  0  0  0  0  0  0  0  0  0  0
  -12.5027  -11.7405   -5.3706 C   0  0  1  0  0  0  0  0  0  0  0  0
  -12.9216  -10.4940   -6.1304 C   0  0  1  0  0  0  0  0  0  0  0  0
  -14.3426  -10.6058   -6.6524 C   0  0  0  0  0  0  0  0  0  0  0  0
   -9.5694  -10.0689   -3.6253 N   0  3  0  0  0  0  0  0  0  0  0  0
  -15.2752  -10.5806   -5.4723 N   0  3  0  0  0  0  0  0  0  0  0  0
  -12.6032  -12.8795   -6.2135 O   0  0  0  0  0  0  0  0  0  0  0  0
  -12.8630   -9.3588   -5.2502 O   0  0  0  0  0  0  0  0  0  0  0  0
  1  2  1  0  0  0  0
  1 22  1  6  0  0  0
  1 10  1  0  0  0  0
  2  3  1  0  0  0  0
  2  7  1  1  0  0  0
  3  4  1  0  0  0  0
  3  8  1  1  0  0  0
  4  5  1  0  0  0  0
  4  9  1  6  0  0  0
  5  6  1  6  0  0  0
  5 10  1  0  0  0  0
  6 11  1  0  0  0  0
 12 13  1  0  0  0  0
 12 17  1  0  0  0  0
 12 18  1  6  0  0  0
 13 14  1  0  0  0  0
 14 15  1  0  0  0  0
 14 19  1  6  0  0  0
 15 16  1  0  0  0  0
 15 21  1  1  0  0  0
 16 17  1  0  0  0  0
 16 20  1  1  0  0  0
 17 22  1  1  0  0  0
 23 21  1  6  0  0  0
 23 24  1  0  0  0  0
 23 32  1  0  0  0  0
 24 25  1  0  0  0  0
 24 29  1  6  0  0  0
 25 26  1  0  0  0  0
 26 27  1  0  0  0  0
 26 31  1  6  0  0  0
 27 28  1  1  0  0  0
 27 32  1  0  0  0  0
 28 30  1  0  0  0  0
M  CHG  5   8   1  18   1  19   1  29   1  30   1
M  END
>  <CHROM.1>
-162.49838124,-56.75340645,94.49990758,-51.03248802,69.28434278,-58.12900096
65.38896030,-38.49760032,-157.71612831,-58.63395924,-77.50278053,-174.13447233
-50.28875930,176.09780874,68.61638541,54.19536208,-10.64022359,-6.13266456
-5.75759209,0.02894808,1.19657458,1.53603681

>  <Name>
2tob cryst

>  <RI>
3.75586e+07

>  <Rbt.Current_Directory>
/home/itssahil/PROJECTS/Mol_Feturizer/New_Systems/rnas/2tob

>  <Rbt.Executable>
rbdock ($Id: //depot/dev/client3/rdock/2013.1/src/exe/rbdock.cxx#4 $)

>  <Rbt.Library>
libRbt.so (2013.1, Build901 2013/11/27)

>  <Rbt.Parameter_File>
/export/apps/rDock/src/rDock_2013.1_src/data/scripts/dock_solv.prm

>  <Rbt.Receptor>
prm/pocket_docking_8.prm

>  <SCORE>
-41.275

>  <SCORE.INTER>
-21.2415

>  <SCORE.INTER.CONST>
1

>  <SCORE.INTER.POLAR>
-3.49214

>  <SCORE.INTER.ROT>
6

>  <SCORE.INTER.SOLV>
18.5891

>  <SCORE.INTER.VDW>
-16.3169

>  <SCORE.INTER.norm>
-0.663798

>  <SCORE.INTRA>
-20.0335

>  <SCORE.INTRA.DIHEDRAL>
-8.34762

>  <SCORE.INTRA.DIHEDRAL.0>
18.4221

>  <SCORE.INTRA.POLAR>
1.38169

>  <SCORE.INTRA.POLAR.0>
-1.57101

>  <SCORE.INTRA.REPUL>
-0.730195

>  <SCORE.INTRA.REPUL.0>
0.730195

>  <SCORE.INTRA.SOLV>
-6.45416

>  <SCORE.INTRA.SOLV.lig_0>
-127.221

>  <SCORE.INTRA.VDW>
-13.6794

>  <SCORE.INTRA.VDW.0>
10.8385

>  <SCORE.INTRA.norm>
-0.626046

>  <SCORE.RESTR>
0

>  <SCORE.RESTR.CAVITY>
0

>  <SCORE.RESTR.norm>
0

>  <SCORE.SYSTEM>
0

>  <SCORE.SYSTEM.CONST>
0

>  <SCORE.SYSTEM.DIHEDRAL>
0

>  <SCORE.SYSTEM.SOLV>
0

>  <SCORE.SYSTEM.norm>
0

>  <SCORE.heavy>
32

>  <SCORE.norm>
-1.28984

>  <RMSD>
5.197

$$$$
2tob cryst
 OpenBabel11021811463D
libRbt.so/2013.1/901 2013/11/27
 32 34  0  0  0  0  0  0  0  0999 V2000
   -9.8656   -3.1314   -7.2813 C   0  0  2  0  0  0  0  0  0  0  0  0
   -9.1537   -1.8219   -7.6060 C   0  0  1  0  0  0  0  0  0  0  0  0
  -10.1910   -0.7020   -7.6927 C   0  0  2  0  0  0  0  0  0  0  0  0
  -11.2920   -1.0539   -8.7019 C   0  0  1  0  0  0  0  0  0  0  0  0
  -11.8698   -2.4376   -8.3854 C   0  0  1  0  0  0  0  0  0  0  0  0
  -12.8688   -2.9488   -9.4105 C   0  0  0  0  0  0  0  0  0  0  0  0
   -8.2006   -1.5205   -6.5903 O   0  0  0  0  0  0  0  0  0  0  0  0
   -9.6984    0.6731   -8.0220 N   0  3  0  0  0  0  0  0  0  0  0  0
  -12.3182   -0.0722   -8.6275 O   0  0  0  0  0  0  0  0  0  0  0  0
  -10.8058   -3.4067   -8.3025 O   0  0  0  0  0  0  0  0  0  0  0  0
  -13.6436   -4.0166   -8.8746 O   0  0  0  0  0  0  0  0  0  0  0  0
  -11.2945   -3.8210   -3.9135 C   0  0  2  0  0  0  0  0  0  0  0  0
  -11.9952   -4.9508   -3.1469 C   0  0  0  0  0  0  0  0  0  0  0  0
  -13.1159   -5.5918   -3.9608 C   0  0  1  0  0  0  0  0  0  0  0  0
  -12.5287   -6.1030   -5.2692 C   0  0  2  0  0  0  0  0  0  0  0  0
  -12.0016   -4.9215   -6.0875 C   0  0  1  0  0  0  0  0  0  0  0  0
  -10.8625   -4.2102   -5.3361 C   0  0  1  0  0  0  0  0  0  0  0  0
  -10.0932   -3.3338   -3.1555 N   0  3  0  0  0  0  0  0  0  0  0  0
  -13.7780   -6.6945   -3.1902 N   0  3  0  0  0  0  0  0  0  0  0  0
  -11.5425   -5.3898   -7.3492 O   0  0  0  0  0  0  0  0  0  0  0  0
  -13.5242   -6.8185   -6.0232 O   0  0  0  0  0  0  0  0  0  0  0  0
  -10.4961   -3.0027   -6.0357 O   0  0  0  0  0  0  0  0  0  0  0  0
  -12.9825   -7.6613   -7.0025 C   0  0  2  0  0  0  0  0  0  0  0  0
  -14.0626   -8.0382   -8.0220 C   0  0  1  0  0  0  0  0  0  0  0  0
  -15.0402   -9.0565   -7.4347 C   0  0  0  0  0  0  0  0  0  0  0  0
  -14.2541  -10.2371   -6.8876 C   0  0  1  0  0  0  0  0  0  0  0  0
  -13.2762   -9.7418   -5.8363 C   0  0  1  0  0  0  0  0  0  0  0  0
  -12.4627  -10.8795   -5.2462 C   0  0  0  0  0  0  0  0  0  0  0  0
  -14.8149   -6.8086   -8.4291 N   0  3  0  0  0  0  0  0  0  0  0  0
  -11.7749  -11.5949   -6.3767 N   0  3  0  0  0  0  0  0  0  0  0  0
  -15.1345  -11.1956   -6.3183 O   0  0  0  0  0  0  0  0  0  0  0  0
  -12.3609   -8.8116   -6.4395 O   0  0  0  0  0  0  0  0  0  0  0  0
  1  2  1  0  0  0  0
  1 22  1  1  0  0  0
  1 10  1  0  0  0  0
  2  3  1  0  0  0  0
  2  7  1  1  0  0  0
  3  4  1  0  0  0  0
  3  8  1  6  0  0  0
  4  5  1  0  0  0  0
  4  9  1  1  0  0  0
  5  6  1  6  0  0  0
  5 10  1  0  0  0  0
  6 11  1  0  0  0  0
 12 13  1  0  0  0  0
 12 17  1  0  0  0  0
 12 18  1  1  0  0  0
 13 14  1  0  0  0  0
 14 15  1  0  0  0  0
 14 19  1  1  0  0  0
 15 16  1  0  0  0  0
 15 21  1  6  0  0  0
 16 17  1  0  0  0  0
 16 20  1  6  0  0  0
 17 22  1  6  0  0  0
 23 21  1  1  0  0  0
 23 24  1  0  0  0  0
 23 32  1  0  0  0  0
 24 25  1  0  0  0  0
 24 29  1  1  0  0  0
 25 26  1  0  0  0  0
 26 27  1  0  0  0  0
 26 31  1  1  0  0  0
 27 28  1  6  0  0  0
 27 32  1  0  0  0  0
 28 30  1  0  0  0  0
M  CHG  5   8   1  18   1  19   1  29   1  30   1
M  END
>  <CHROM.1>
-160.73321787,-62.80593481,-37.17174959,92.77705643,-162.76616267,176.33816434
-167.44856041,-173.77563018,-160.98795903,-58.20640506,169.95969098,-162.54403535
51.82968444,-59.49549854,55.91111808,-54.82691961,-12.10387951,-5.28308666
-6.60064119,-0.85516383,0.99255093,2.36133643

>  <Name>
2tob cryst

>  <RI>
0

>  <Rbt.Current_Directory>
/home/itssahil/PROJECTS/Mol_Feturizer/New_Systems/rnas/2tob

>  <Rbt.Executable>
rbdock ($Id: //depot/dev/client3/rdock/2013.1/src/exe/rbdock.cxx#4 $)

>  <Rbt.Library>
libRbt.so (2013.1, Build901 2013/11/27)

>  <Rbt.Parameter_File>
/export/apps/rDock/src/rDock_2013.1_src/data/scripts/dock_solv.prm

>  <Rbt.Receptor>
prm/pocket_docking_5.prm

>  <SCORE>
-33.6997

>  <SCORE.INTER>
-14.0208

>  <SCORE.INTER.CONST>
1

>  <SCORE.INTER.POLAR>
-3.08116

>  <SCORE.INTER.ROT>
6

>  <SCORE.INTER.SOLV>
7.58168

>  <SCORE.INTER.VDW>
-9.20392

>  <SCORE.INTER.norm>
-0.438151

>  <SCORE.INTRA>
-19.6789

>  <SCORE.INTRA.DIHEDRAL>
-5.90866

>  <SCORE.INTRA.DIHEDRAL.0>
18.4221

>  <SCORE.INTRA.POLAR>
0.40725

>  <SCORE.INTRA.POLAR.0>
-1.57101

>  <SCORE.INTRA.REPUL>
-0.568351

>  <SCORE.INTRA.REPUL.0>
0.730195

>  <SCORE.INTRA.SOLV>
-4.34959

>  <SCORE.INTRA.SOLV.lig_0>
-127.221

>  <SCORE.INTRA.VDW>
-13.0927

>  <SCORE.INTRA.VDW.0>
10.8385

>  <SCORE.INTRA.norm>
-0.614966

>  <SCORE.RESTR>
0

>  <SCORE.RESTR.CAVITY>
0

>  <SCORE.RESTR.norm>
0

>  <SCORE.SYSTEM>
0

>  <SCORE.SYSTEM.CONST>
0

>  <SCORE.SYSTEM.DIHEDRAL>
0

>  <SCORE.SYSTEM.SOLV>
0

>  <SCORE.SYSTEM.norm>
0

>  <SCORE.heavy>
32

>  <SCORE.norm>
-1.05312

>  <RMSD>
5.206

$$$$
2tob cryst
 OpenBabel11021811463D
libRbt.so/2013.1/901 2013/11/27
 32 34  0  0  0  0  0  0  0  0999 V2000
   -9.6331   -1.8232   -7.6538 C   0  0  2  0  0  0  0  0  0  0  0  0
   -8.6549   -2.8779   -8.1614 C   0  0  1  0  0  0  0  0  0  0  0  0
   -7.2458   -2.2846   -8.1687 C   0  0  2  0  0  0  0  0  0  0  0  0
   -7.2044   -0.9848   -8.9832 C   0  0  1  0  0  0  0  0  0  0  0  0
   -8.2989   -0.0277   -8.4983 C   0  0  1  0  0  0  0  0  0  0  0  0
   -8.4424    1.2343   -9.3330 C   0  0  0  0  0  0  0  0  0  0  0  0
   -8.6923   -4.0245   -7.3160 O   0  0  0  0  0  0  0  0  0  0  0  0
   -6.1300   -3.1575   -8.6534 N   0  3  0  0  0  0  0  0  0  0  0  0
   -5.9272   -0.3800   -8.8241 O   0  0  0  0  0  0  0  0  0  0  0  0
   -9.5758   -0.6967   -8.5083 O   0  0  0  0  0  0  0  0  0  0  0  0
   -9.3496    2.1459   -8.7217 O   0  0  0  0  0  0  0  0  0  0  0  0
  -11.1228   -2.9377   -5.7991 C   0  0  2  0  0  0  0  0  0  0  0  0
  -11.6787   -4.0229   -4.8672 C   0  0  0  0  0  0  0  0  0  0  0  0
  -10.6010   -5.0063   -4.4193 C   0  0  1  0  0  0  0  0  0  0  0  0
   -9.4865   -4.2225   -3.7399 C   0  0  2  0  0  0  0  0  0  0  0  0
   -8.8361   -3.2781   -4.7539 C   0  0  1  0  0  0  0  0  0  0  0  0
   -9.8584   -2.2472   -5.2641 C   0  0  1  0  0  0  0  0  0  0  0  0
  -12.1668   -1.8948   -6.0779 N   0  3  0  0  0  0  0  0  0  0  0  0
  -11.1708   -6.0505   -3.5065 N   0  3  0  0  0  0  0  0  0  0  0  0
   -7.7338   -2.6186   -4.1440 O   0  0  0  0  0  0  0  0  0  0  0  0
   -8.4987   -5.1177   -3.1974 O   0  0  0  0  0  0  0  0  0  0  0  0
   -9.2812   -1.4796   -6.3409 O   0  0  0  0  0  0  0  0  0  0  0  0
   -8.0877   -4.7756   -1.9025 C   0  0  2  0  0  0  0  0  0  0  0  0
   -6.9572   -5.7062   -1.4510 C   0  0  1  0  0  0  0  0  0  0  0  0
   -7.4949   -7.0947   -1.1039 C   0  0  0  0  0  0  0  0  0  0  0  0
   -8.6267   -6.9491   -0.0996 C   0  0  1  0  0  0  0  0  0  0  0  0
   -9.7129   -6.0704   -0.6953 C   0  0  1  0  0  0  0  0  0  0  0  0
  -10.8777   -5.8913    0.2615 C   0  0  0  0  0  0  0  0  0  0  0  0
   -5.9439   -5.8284   -2.5474 N   0  3  0  0  0  0  0  0  0  0  0  0
  -10.4043   -5.0562    1.4197 N   0  3  0  0  0  0  0  0  0  0  0  0
   -9.1604   -8.2233    0.2314 O   0  0  0  0  0  0  0  0  0  0  0  0
   -9.1700   -4.7695   -0.9777 O   0  0  0  0  0  0  0  0  0  0  0  0
  1  2  1  0  0  0  0
  1 22  1  1  0  0  0
  1 10  1  0  0  0  0
  2  3  1  0  0  0  0
  2  7  1  1  0  0  0
  3  4  1  0  0  0  0
  3  8  1  6  0  0  0
  4  5  1  0  0  0  0
  4  9  1  1  0  0  0
  5  6  1  6  0  0  0
  5 10  1  0  0  0  0
  6 11  1  0  0  0  0
 12 13  1  0  0  0  0
 12 17  1  0  0  0  0
 12 18  1  1  0  0  0
 13 14  1  0  0  0  0
 14 15  1  0  0  0  0
 14 19  1  1  0  0  0
 15 16  1  0  0  0  0
 15 21  1  6  0  0  0
 16 17  1  0  0  0  0
 16 20  1  1  0  0  0
 17 22  1  6  0  0  0
 23 21  1  6  0  0  0
 23 24  1  0  0  0  0
 23 32  1  0  0  0  0
 24 25  1  0  0  0  0
 24 29  1  6  0  0  0
 25 26  1  0  0  0  0
 26 27  1  0  0  0  0
 26 31  1  6  0  0  0
 27 28  1  1  0  0  0
 27 32  1  0  0  0  0
 28 30  1  0  0  0  0
M  CHG  5   8   1  18   1  19   1  29   1  30   1
M  END
>  <CHROM.1>
-89.12163320,178.46019450,41.00605151,-60.17912472,-172.33261908,-169.16585987
-83.05304299,-57.23607991,-135.56085414,66.63787686,-20.58482006,-175.28886714
-57.63402509,174.89845880,68.75197756,162.81912606,-8.92358652,-3.49665911
-4.73915418,1.48730531,0.25958054,-0.92671726

>  <Name>
2tob cryst

>  <RI>
3.75586e+07

>  <Rbt.Current_Directory>
/home/itssahil/PROJECTS/Mol_Feturizer/New_Systems/rnas/2tob

>  <Rbt.Executable>
rbdock ($Id: //depot/dev/client3/rdock/2013.1/src/exe/rbdock.cxx#4 $)

>  <Rbt.Library>
libRbt.so (2013.1, Build901 2013/11/27)

>  <Rbt.Parameter_File>
/export/apps/rDock/src/rDock_2013.1_src/data/scripts/dock_solv.prm

>  <Rbt.Receptor>
prm/pocket_docking_8.prm

>  <SCORE>
-49.333

>  <SCORE.INTER>
-36.6031

>  <SCORE.INTER.CONST>
1

>  <SCORE.INTER.POLAR>
-5.92464

>  <SCORE.INTER.ROT>
6

>  <SCORE.INTER.SOLV>
25.1494

>  <SCORE.INTER.VDW>
-20.6364

>  <SCORE.INTER.norm>
-1.14385

>  <SCORE.INTRA>
-12.7299

>  <SCORE.INTRA.DIHEDRAL>
0.756112

>  <SCORE.INTRA.DIHEDRAL.0>
18.4221

>  <SCORE.INTRA.POLAR>
1.37131

>  <SCORE.INTRA.POLAR.0>
-1.57101

>  <SCORE.INTRA.REPUL>
-0.730195

>  <SCORE.INTRA.REPUL.0>
0.730195

>  <SCORE.INTRA.SOLV>
-3.83342

>  <SCORE.INTRA.SOLV.lig_0>
-127.221

>  <SCORE.INTRA.VDW>
-12.2027

>  <SCORE.INTRA.VDW.0>
10.8385

>  <SCORE.INTRA.norm>
-0.397808

>  <SCORE.RESTR>
0

>  <SCORE.RESTR.CAVITY>
0

>  <SCORE.RESTR.norm>
0

>  <SCORE.SYSTEM>
0

>  <SCORE.SYSTEM.CONST>
0

>  <SCORE.SYSTEM.DIHEDRAL>
0

>  <SCORE.SYSTEM.SOLV>
0

>  <SCORE.SYSTEM.norm>
0

>  <SCORE.heavy>
32

>  <SCORE.norm>
-1.54166

>  <RMSD>
5.289

$$$$
2tob cryst
 OpenBabel11021811463D
libRbt.so/2013.1/901 2013/11/27
 32 34  0  0  0  0  0  0  0  0999 V2000
  -11.9599   -3.0086   -7.3662 C   0  0  2  0  0  0  0  0  0  0  0  0
  -12.3065   -1.6156   -7.8824 C   0  0  1  0  0  0  0  0  0  0  0  0
  -11.0155   -0.8975   -8.2765 C   0  0  2  0  0  0  0  0  0  0  0  0
  -10.0234   -0.8753   -7.1061 C   0  0  1  0  0  0  0  0  0  0  0  0
   -9.8252   -2.2936   -6.5604 C   0  0  1  0  0  0  0  0  0  0  0  0
   -8.9722   -2.3682   -5.3047 C   0  0  0  0  0  0  0  0  0  0  0  0
  -13.1687   -1.7152   -9.0126 O   0  0  0  0  0  0  0  0  0  0  0  0
  -11.1333    0.5018   -8.7961 N   0  3  0  0  0  0  0  0  0  0  0  0
   -8.7815   -0.3543   -7.5627 O   0  0  0  0  0  0  0  0  0  0  0  0
  -11.1034   -2.8821   -6.2469 O   0  0  0  0  0  0  0  0  0  0  0  0
   -8.8576   -3.7125   -4.8489 O   0  0  0  0  0  0  0  0  0  0  0  0
   -9.7601   -5.1835   -7.3038 C   0  0  2  0  0  0  0  0  0  0  0  0
   -9.4765   -6.5738   -6.7191 C   0  0  0  0  0  0  0  0  0  0  0  0
  -10.6993   -7.1686   -6.0261 C   0  0  1  0  0  0  0  0  0  0  0  0
  -11.8429   -7.2218   -7.0297 C   0  0  2  0  0  0  0  0  0  0  0  0
  -12.2169   -5.7989   -7.4524 C   0  0  1  0  0  0  0  0  0  0  0  0
  -11.0333   -5.1181   -8.1620 C   0  0  1  0  0  0  0  0  0  0  0  0
   -8.5951   -4.7070   -8.1231 N   0  3  0  0  0  0  0  0  0  0  0  0
  -10.3951   -8.5275   -5.4703 N   0  3  0  0  0  0  0  0  0  0  0  0
  -13.3473   -5.8451   -8.3139 O   0  0  0  0  0  0  0  0  0  0  0  0
  -12.9866   -7.8814   -6.4565 O   0  0  0  0  0  0  0  0  0  0  0  0
  -11.3400   -3.7281   -8.3977 O   0  0  0  0  0  0  0  0  0  0  0  0
  -12.9495   -9.2757   -6.5875 C   0  0  2  0  0  0  0  0  0  0  0  0
  -14.0080   -9.7334   -7.5965 C   0  0  1  0  0  0  0  0  0  0  0  0
  -15.4113   -9.6504   -6.9953 C   0  0  0  0  0  0  0  0  0  0  0  0
  -15.4300  -10.4093   -5.6783 C   0  0  1  0  0  0  0  0  0  0  0  0
  -14.3934   -9.8118   -4.7428 C   0  0  1  0  0  0  0  0  0  0  0  0
  -14.3678  -10.5261   -3.4037 C   0  0  0  0  0  0  0  0  0  0  0  0
  -13.9410   -8.8675   -8.8169 N   0  3  0  0  0  0  0  0  0  0  0  0
  -15.5974  -10.1219   -2.6371 N   0  3  0  0  0  0  0  0  0  0  0  0
  -16.7186  -10.3368   -5.0847 O   0  0  0  0  0  0  0  0  0  0  0  0
  -13.0896   -9.9384   -5.3353 O   0  0  0  0  0  0  0  0  0  0  0  0
  1  2  1  0  0  0  0
  1 22  1  6  0  0  0
  1 10  1  0  0  0  0
  2  3  1  0  0  0  0
  2  7  1  6  0  0  0
  3  4  1  0  0  0  0
  3  8  1  1  0  0  0
  4  5  1  0  0  0  0
  4  9  1  6  0  0  0
  5  6  1  1  0  0  0
  5 10  1  0  0  0  0
  6 11  1  0  0  0  0
 12 13  1  0  0  0  0
 12 17  1  0  0  0  0
 12 18  1  6  0  0  0
 13 14  1  0  0  0  0
 14 15  1  0  0  0  0
 14 19  1  6  0  0  0
 15 16  1  0  0  0  0
 15 21  1  1  0  0  0
 16 17  1  0  0  0  0
 16 20  1  6  0  0  0
 17 22  1  1  0  0  0
 23 21  1  1  0  0  0
 23 24  1  0  0  0  0
 23 32  1  0  0  0  0
 24 25  1  0  0  0  0
 24 29  1  6  0  0  0
 25 26  1  0  0  0  0
 26 27  1  0  0  0  0
 26 31  1  1  0  0  0
 27 28  1  1  0  0  0
 27 32  1  0  0  0  0
 28 30  1  0  0  0  0
M  CHG  5   8   1  18   1  19   1  29   1  30   1
M  END
>  <CHROM.1>
-174.61305060,171.65702259,-52.49243777,72.70388980,178.90604653,-54.70369522
-118.02365933,62.88614138,-85.80694662,179.61275352,-78.54193405,-109.50711801
-170.26437332,62.07029141,-73.37733815,173.62845693,-12.03320775,-5.77868194
-6.73129500,1.05629140,-0.43602347,-0.49336910

>  <Name>
2tob cryst

>  <RI>
3.75586e+07

>  <Rbt.Current_Directory>
/home/itssahil/PROJECTS/Mol_Feturizer/New_Systems/rnas/2tob

>  <Rbt.Executable>
rbdock ($Id: //depot/dev/client3/rdock/2013.1/src/exe/rbdock.cxx#4 $)

>  <Rbt.Library>
libRbt.so (2013.1, Build901 2013/11/27)

>  <Rbt.Parameter_File>
/export/apps/rDock/src/rDock_2013.1_src/data/scripts/dock_solv.prm

>  <Rbt.Receptor>
prm/pocket_docking_8.prm

>  <SCORE>
-51.0285

>  <SCORE.INTER>
-28.0827

>  <SCORE.INTER.CONST>
1

>  <SCORE.INTER.POLAR>
-5.32807

>  <SCORE.INTER.ROT>
6

>  <SCORE.INTER.SOLV>
19.125

>  <SCORE.INTER.VDW>
-14.9366

>  <SCORE.INTER.norm>
-0.877583

>  <SCORE.INTRA>
-22.9459

>  <SCORE.INTRA.DIHEDRAL>
-1.30279

>  <SCORE.INTRA.DIHEDRAL.0>
18.4221

>  <SCORE.INTRA.POLAR>
-1.46653

>  <SCORE.INTRA.POLAR.0>
-1.57101

>  <SCORE.INTRA.REPUL>
-0.730195

>  <SCORE.INTRA.REPUL.0>
0.730195

>  <SCORE.INTRA.SOLV>
-0.619791

>  <SCORE.INTRA.SOLV.lig_0>
-127.221

>  <SCORE.INTRA.VDW>
-13.3474

>  <SCORE.INTRA.VDW.0>
10.8385

>  <SCORE.INTRA.norm>
-0.717058

>  <SCORE.RESTR>
0

>  <SCORE.RESTR.CAVITY>
0

>  <SCORE.RESTR.norm>
0

>  <SCORE.SYSTEM>
0

>  <SCORE.SYSTEM.CONST>
0

>  <SCORE.SYSTEM.DIHEDRAL>
0

>  <SCORE.SYSTEM.SOLV>
0

>  <SCORE.SYSTEM.norm>
0

>  <SCORE.heavy>
32

>  <SCORE.norm>
-1.59464

>  <RMSD>
5.316

$$$$
2tob cryst
 OpenBabel11021811463D
libRbt.so/2013.1/901 2013/11/27
 32 34  0  0  0  0  0  0  0  0999 V2000
   -5.1742    1.7699  -11.1081 C   0  0  2  0  0  0  0  0  0  0  0  0
   -4.0813    1.0576  -11.8988 C   0  0  1  0  0  0  0  0  0  0  0  0
   -2.7530    1.2106  -11.1572 C   0  0  2  0  0  0  0  0  0  0  0  0
   -2.4397    2.6900  -10.8971 C   0  0  1  0  0  0  0  0  0  0  0  0
   -3.6342    3.3665  -10.2157 C   0  0  1  0  0  0  0  0  0  0  0  0
   -3.4881    4.8694  -10.0423 C   0  0  0  0  0  0  0  0  0  0  0  0
   -4.4014   -0.3241  -12.0370 O   0  0  0  0  0  0  0  0  0  0  0  0
   -1.5385    0.5937  -11.7788 N   0  3  0  0  0  0  0  0  0  0  0  0
   -1.2918    2.7796  -10.0624 O   0  0  0  0  0  0  0  0  0  0  0  0
   -4.8322    3.1374  -10.9842 O   0  0  0  0  0  0  0  0  0  0  0  0
   -2.3029    5.1832   -9.3179 O   0  0  0  0  0  0  0  0  0  0  0  0
   -5.1765   -1.0727   -8.9516 C   0  0  2  0  0  0  0  0  0  0  0  0
   -5.9444   -2.3280   -8.5161 C   0  0  0  0  0  0  0  0  0  0  0  0
   -7.2752   -1.9884   -7.8507 C   0  0  1  0  0  0  0  0  0  0  0  0
   -8.0996   -1.1541   -8.8215 C   0  0  2  0  0  0  0  0  0  0  0  0
   -7.3831    0.1717   -9.0901 C   0  0  1  0  0  0  0  0  0  0  0  0
   -6.0215   -0.0774   -9.7622 C   0  0  1  0  0  0  0  0  0  0  0  0
   -3.9626   -1.4471   -9.7527 N   0  3  0  0  0  0  0  0  0  0  0  0
   -8.0053   -3.2324   -7.4414 N   0  3  0  0  0  0  0  0  0  0  0  0
   -8.1997    0.9890   -9.9191 O   0  0  0  0  0  0  0  0  0  0  0  0
   -9.4112   -0.9045   -8.2840 O   0  0  0  0  0  0  0  0  0  0  0  0
   -5.2870    1.1615   -9.8500 O   0  0  0  0  0  0  0  0  0  0  0  0
  -10.4349   -1.5495   -8.9900 C   0  0  2  0  0  0  0  0  0  0  0  0
  -11.7792   -0.8784   -8.6892 C   0  0  1  0  0  0  0  0  0  0  0  0
  -12.2738   -1.2437   -7.2893 C   0  0  0  0  0  0  0  0  0  0  0  0
  -12.2823   -2.7572   -7.1478 C   0  0  1  0  0  0  0  0  0  0  0  0
  -10.8813   -3.2896   -7.3938 C   0  0  1  0  0  0  0  0  0  0  0  0
  -10.8236   -4.8006   -7.2605 C   0  0  0  0  0  0  0  0  0  0  0  0
  -11.6275    0.6085   -8.7876 N   0  3  0  0  0  0  0  0  0  0  0  0
  -10.9083   -5.1423   -5.7980 N   0  3  0  0  0  0  0  0  0  0  0  0
  -12.7219   -3.1295   -5.8493 O   0  0  0  0  0  0  0  0  0  0  0  0
  -10.4710   -2.9485   -8.7288 O   0  0  0  0  0  0  0  0  0  0  0  0
  1  2  1  0  0  0  0
  1 22  1  1  0  0  0
  1 10  1  0  0  0  0
  2  3  1  0  0  0  0
  2  7  1  1  0  0  0
  3  4  1  0  0  0  0
  3  8  1  6  0  0  0
  4  5  1  0  0  0  0
  4  9  1  1  0  0  0
  5  6  1  6  0  0  0
  5 10  1  0  0  0  0
  6 11  1  0  0  0  0
 12 13  1  0  0  0  0
 12 17  1  0  0  0  0
 12 18  1  6  0  0  0
 13 14  1  0  0  0  0
 14 15  1  0  0  0  0
 14 19  1  6  0  0  0
 15 16  1  0  0  0  0
 15 21  1  1  0  0  0
 16 17  1  0  0  0  0
 16 20  1  6  0  0  0
 17 22  1  1  0  0  0
 23 21  1  1  0  0  0
 23 24  1  0  0  0  0
 23 32  1  0  0  0  0
 24 25  1  0  0  0  0
 24 29  1  1  0  0  0
 25 26  1  0  0  0  0
 26 27  1  0  0  0  0
 26 31  1  1  0  0  0
 27 28  1  6  0  0  0
 27 32  1  0  0  0  0
 28 30  1  0  0  0  0
M  CHG  5   8   1  18   1  19   1  29   1  30   1
M  END
>  <CHROM.1>
-79.36455867,82.25433657,104.34979292,-174.03543467,-56.33368252,166.96277932
-173.48733743,161.56346419,-112.24831193,169.03535804,132.30566662,-160.52771642
114.26944857,61.91360889,-73.95609458,-69.19227352,-7.00401488,-0.26578766
-9.16848807,0.60089656,0.27049254,-0.19380984

>  <Name>
2tob cryst

>  <RI>
0

>  <Rbt.Current_Directory>
/home/itssahil/PROJECTS/Mol_Feturizer/New_Systems/rnas/2tob

>  <Rbt.Executable>
rbdock ($Id: //depot/dev/client3/rdock/2013.1/src/exe/rbdock.cxx#4 $)

>  <Rbt.Library>
libRbt.so (2013.1, Build901 2013/11/27)

>  <Rbt.Parameter_File>
/export/apps/rDock/src/rDock_2013.1_src/data/scripts/dock_solv.prm

>  <Rbt.Receptor>
prm/pocket_docking_6.prm

>  <SCORE>
-44.5898

>  <SCORE.INTER>
-34.0533

>  <SCORE.INTER.CONST>
1

>  <SCORE.INTER.POLAR>
-6.51409

>  <SCORE.INTER.ROT>
6

>  <SCORE.INTER.SOLV>
33.4676

>  <SCORE.INTER.VDW>
-19.7445

>  <SCORE.INTER.norm>
-1.06417

>  <SCORE.INTRA>
-10.5365

>  <SCORE.INTRA.DIHEDRAL>
10.556

>  <SCORE.INTRA.DIHEDRAL.0>
18.4221

>  <SCORE.INTRA.POLAR>
-0.433641

>  <SCORE.INTRA.POLAR.0>
-1.57101

>  <SCORE.INTRA.REPUL>
-0.730195

>  <SCORE.INTRA.REPUL.0>
0.730195

>  <SCORE.INTRA.SOLV>
3.74784

>  <SCORE.INTRA.SOLV.lig_0>
-127.221

>  <SCORE.INTRA.VDW>
-12.563

>  <SCORE.INTRA.VDW.0>
10.8385

>  <SCORE.INTRA.norm>
-0.329264

>  <SCORE.RESTR>
0

>  <SCORE.RESTR.CAVITY>
0

>  <SCORE.RESTR.norm>
0

>  <SCORE.SYSTEM>
0

>  <SCORE.SYSTEM.CONST>
0

>  <SCORE.SYSTEM.DIHEDRAL>
0

>  <SCORE.SYSTEM.SOLV>
0

>  <SCORE.SYSTEM.norm>
0

>  <SCORE.heavy>
32

>  <SCORE.norm>
-1.39343

>  <RMSD>
5.471

$$$$
2tob cryst
 OpenBabel11021811463D
libRbt.so/2013.1/901 2013/11/27
 32 34  0  0  0  0  0  0  0  0999 V2000
   -4.3512    0.4865  -11.4237 C   0  0  2  0  0  0  0  0  0  0  0  0
   -3.1590   -0.4294  -11.6824 C   0  0  1  0  0  0  0  0  0  0  0  0
   -1.8860    0.2648  -11.1973 C   0  0  2  0  0  0  0  0  0  0  0  0
   -1.7351    1.6462  -11.8480 C   0  0  1  0  0  0  0  0  0  0  0  0
   -3.0200    2.4592  -11.6554 C   0  0  1  0  0  0  0  0  0  0  0  0
   -3.0338    3.7916  -12.3865 C   0  0  0  0  0  0  0  0  0  0  0  0
   -3.3318   -1.6621  -10.9886 O   0  0  0  0  0  0  0  0  0  0  0  0
   -0.5900   -0.4633  -11.3762 N   0  3  0  0  0  0  0  0  0  0  0  0
   -0.6390    2.3234  -11.2462 O   0  0  0  0  0  0  0  0  0  0  0  0
   -4.1546    1.7018  -12.1215 O   0  0  0  0  0  0  0  0  0  0  0  0
   -4.0038    4.6688  -11.8231 O   0  0  0  0  0  0  0  0  0  0  0  0
   -6.5599    1.8211  -10.4232 C   0  0  2  0  0  0  0  0  0  0  0  0
   -8.0655    1.8699  -10.1301 C   0  0  0  0  0  0  0  0  0  0  0  0
   -8.6769    0.4760  -10.0175 C   0  0  1  0  0  0  0  0  0  0  0  0
   -7.9342   -0.2889   -8.9306 C   0  0  2  0  0  0  0  0  0  0  0  0
   -6.4725   -0.4742   -9.3458 C   0  0  1  0  0  0  0  0  0  0  0  0
   -5.7744    0.8899   -9.4864 C   0  0  1  0  0  0  0  0  0  0  0  0
   -5.9633    3.1975  -10.3548 N   0  3  0  0  0  0  0  0  0  0  0  0
  -10.1455    0.5544   -9.7256 N   0  3  0  0  0  0  0  0  0  0  0  0
   -5.8049   -1.2718   -8.3761 O   0  0  0  0  0  0  0  0  0  0  0  0
   -8.5485   -1.5711   -8.7069 O   0  0  0  0  0  0  0  0  0  0  0  0
   -4.4558    0.7079  -10.0432 O   0  0  0  0  0  0  0  0  0  0  0  0
   -9.1075   -1.7060   -7.4294 C   0  0  2  0  0  0  0  0  0  0  0  0
   -9.1763   -3.1874   -7.0438 C   0  0  1  0  0  0  0  0  0  0  0  0
  -10.2963   -3.9004   -7.8021 C   0  0  0  0  0  0  0  0  0  0  0  0
  -11.5950   -3.1374   -7.5970 C   0  0  1  0  0  0  0  0  0  0  0  0
  -11.4188   -1.7107   -8.0872 C   0  0  1  0  0  0  0  0  0  0  0  0
  -12.6883   -0.8968   -7.9137 C   0  0  0  0  0  0  0  0  0  0  0  0
   -7.8686   -3.8461   -7.3592 N   0  3  0  0  0  0  0  0  0  0  0  0
  -13.3613   -0.7927   -9.2550 N   0  3  0  0  0  0  0  0  0  0  0  0
  -12.6544   -3.7663   -8.3044 O   0  0  0  0  0  0  0  0  0  0  0  0
  -10.3783   -1.0725   -7.3277 O   0  0  0  0  0  0  0  0  0  0  0  0
  1  2  1  0  0  0  0
  1 22  1  1  0  0  0
  1 10  1  0  0  0  0
  2  3  1  0  0  0  0
  2  7  1  1  0  0  0
  3  4  1  0  0  0  0
  3  8  1  6  0  0  0
  4  5  1  0  0  0  0
  4  9  1  1  0  0  0
  5  6  1  6  0  0  0
  5 10  1  0  0  0  0
  6 11  1  0  0  0  0
 12 13  1  0  0  0  0
 12 17  1  0  0  0  0
 12 18  1  1  0  0  0
 13 14  1  0  0  0  0
 14 15  1  0  0  0  0
 14 19  1  1  0  0  0
 15 16  1  0  0  0  0
 15 21  1  6  0  0  0
 16 17  1  0  0  0  0
 16 20  1  1  0  0  0
 17 22  1  6  0  0  0
 23 21  1  6  0  0  0
 23 24  1  0  0  0  0
 23 32  1  0  0  0  0
 24 25  1  0  0  0  0
 24 29  1  6  0  0  0
 25 26  1  0  0  0  0
 26 27  1  0  0  0  0
 26 31  1  6  0  0  0
 27 28  1  1  0  0  0
 27 32  1  0  0  0  0
 28 30  1  0  0  0  0
M  CHG  5   8   1  18   1  19   1  29   1  30   1
M  END
>  <CHROM.1>
-147.42923802,-56.34777281,154.62466703,177.95038090,-160.14835836,-177.77812697
-30.63562923,-76.87195499,-115.16133289,-53.31240897,-43.41223121,-155.36476582
82.67364753,59.56073781,-102.18358899,49.70445849,-6.76466687,-0.09694457
-9.73756876,-0.51279691,-0.20049884,2.75726586

>  <Name>
2tob cryst

>  <RI>
2.10184e+07

>  <Rbt.Current_Directory>
/home/itssahil/PROJECTS/Mol_Feturizer/New_Systems/rnas/2tob

>  <Rbt.Executable>
rbdock ($Id: //depot/dev/client3/rdock/2013.1/src/exe/rbdock.cxx#4 $)

>  <Rbt.Library>
libRbt.so (2013.1, Build901 2013/11/27)

>  <Rbt.Parameter_File>
/export/apps/rDock/src/rDock_2013.1_src/data/scripts/dock_solv.prm

>  <Rbt.Receptor>
prm/pocket_docking_7.prm

>  <SCORE>
-18.5373

>  <SCORE.INTER>
-6.11612

>  <SCORE.INTER.CONST>
1

>  <SCORE.INTER.POLAR>
-4.93037

>  <SCORE.INTER.ROT>
6

>  <SCORE.INTER.SOLV>
40.8675

>  <SCORE.INTER.VDW>
-8.86536

>  <SCORE.INTER.norm>
-0.191129

>  <SCORE.INTRA>
-12.5411

>  <SCORE.INTRA.DIHEDRAL>
7.68622

>  <SCORE.INTRA.DIHEDRAL.0>
18.4221

>  <SCORE.INTRA.POLAR>
0.0232445

>  <SCORE.INTRA.POLAR.0>
-1.57101

>  <SCORE.INTRA.REPUL>
-0.730195

>  <SCORE.INTRA.REPUL.0>
0.730195

>  <SCORE.INTRA.SOLV>
2.09784

>  <SCORE.INTRA.SOLV.lig_0>
-127.221

>  <SCORE.INTRA.VDW>
-13.8612

>  <SCORE.INTRA.VDW.0>
10.8385

>  <SCORE.INTRA.norm>
-0.391909

>  <SCORE.RESTR>
0.119885

>  <SCORE.RESTR.CAVITY>
0.119885

>  <SCORE.RESTR.norm>
0.00374641

>  <SCORE.SYSTEM>
0

>  <SCORE.SYSTEM.CONST>
0

>  <SCORE.SYSTEM.DIHEDRAL>
0

>  <SCORE.SYSTEM.SOLV>
0

>  <SCORE.SYSTEM.norm>
0

>  <SCORE.heavy>
32

>  <SCORE.norm>
-0.579291

>  <RMSD>
5.481

$$$$
2tob cryst
 OpenBabel11021811463D
libRbt.so/2013.1/901 2013/11/27
 32 34  0  0  0  0  0  0  0  0999 V2000
  -11.4576   -3.1560   -6.7885 C   0  0  2  0  0  0  0  0  0  0  0  0
  -12.4313   -2.0089   -7.0392 C   0  0  1  0  0  0  0  0  0  0  0  0
  -11.9555   -1.2111   -8.2537 C   0  0  2  0  0  0  0  0  0  0  0  0
  -10.5074   -0.7401   -8.0648 C   0  0  1  0  0  0  0  0  0  0  0  0
   -9.6147   -1.9282   -7.6903 C   0  0  1  0  0  0  0  0  0  0  0  0
   -8.1852   -1.5511   -7.3376 C   0  0  0  0  0  0  0  0  0  0  0  0
  -13.7384   -2.5229   -7.2804 O   0  0  0  0  0  0  0  0  0  0  0  0
  -12.7683   -0.0217   -8.6618 N   0  3  0  0  0  0  0  0  0  0  0  0
  -10.0500   -0.1542   -9.2772 O   0  0  0  0  0  0  0  0  0  0  0  0
  -10.1693   -2.6199   -6.5535 O   0  0  0  0  0  0  0  0  0  0  0  0
   -7.5393   -0.9246   -8.4412 O   0  0  0  0  0  0  0  0  0  0  0  0
   -9.7672   -5.5148   -7.1018 C   0  0  2  0  0  0  0  0  0  0  0  0
   -9.4423   -6.9088   -6.5483 C   0  0  0  0  0  0  0  0  0  0  0  0
  -10.5362   -7.4307   -5.6208 C   0  0  1  0  0  0  0  0  0  0  0  0
  -11.8521   -7.4410   -6.3866 C   0  0  2  0  0  0  0  0  0  0  0  0
  -12.2331   -6.0075   -6.7647 C   0  0  1  0  0  0  0  0  0  0  0  0
  -11.1767   -5.3979   -7.7030 C   0  0  1  0  0  0  0  0  0  0  0  0
   -8.7597   -5.1100   -8.1393 N   0  3  0  0  0  0  0  0  0  0  0  0
  -10.1951   -8.7948   -5.1003 N   0  3  0  0  0  0  0  0  0  0  0  0
  -13.5084   -6.0093   -7.3937 O   0  0  0  0  0  0  0  0  0  0  0  0
  -12.8943   -8.0333   -5.5902 O   0  0  0  0  0  0  0  0  0  0  0  0
  -11.4575   -3.9978   -7.9097 O   0  0  0  0  0  0  0  0  0  0  0  0
  -14.0366   -8.3699   -6.3282 C   0  0  2  0  0  0  0  0  0  0  0  0
  -15.1182   -8.9212   -5.3932 C   0  0  1  0  0  0  0  0  0  0  0  0
  -14.7784  -10.3406   -4.9377 C   0  0  0  0  0  0  0  0  0  0  0  0
  -14.5089  -11.2008   -6.1618 C   0  0  1  0  0  0  0  0  0  0  0  0
  -13.3701  -10.5906   -6.9601 C   0  0  1  0  0  0  0  0  0  0  0  0
  -13.0488  -11.4105   -8.1965 C   0  0  0  0  0  0  0  0  0  0  0  0
  -15.2402   -8.0329   -4.1933 N   0  3  0  0  0  0  0  0  0  0  0  0
  -11.9405  -10.7165   -8.9401 N   0  3  0  0  0  0  0  0  0  0  0  0
  -14.1730  -12.5246   -5.7710 O   0  0  0  0  0  0  0  0  0  0  0  0
  -13.7453   -9.2713   -7.3909 O   0  0  0  0  0  0  0  0  0  0  0  0
  1  2  1  0  0  0  0
  1 22  1  6  0  0  0
  1 10  1  0  0  0  0
  2  3  1  0  0  0  0
  2  7  1  6  0  0  0
  3  4  1  0  0  0  0
  3  8  1  1  0  0  0
  4  5  1  0  0  0  0
  4  9  1  6  0  0  0
  5  6  1  1  0  0  0
  5 10  1  0  0  0  0
  6 11  1  0  0  0  0
 12 13  1  0  0  0  0
 12 17  1  0  0  0  0
 12 18  1  6  0  0  0
 13 14  1  0  0  0  0
 14 15  1  0  0  0  0
 14 19  1  6  0  0  0
 15 16  1  0  0  0  0
 15 21  1  1  0  0  0
 16 17  1  0  0  0  0
 16 20  1  6  0  0  0
 17 22  1  1  0  0  0
 23 21  1  1  0  0  0
 23 24  1  0  0  0  0
 23 32  1  0  0  0  0
 24 25  1  0  0  0  0
 24 29  1  1  0  0  0
 25 26  1  0  0  0  0
 26 27  1  0  0  0  0
 26 31  1  1  0  0  0
 27 28  1  6  0  0  0
 27 32  1  0  0  0  0
 28 30  1  0  0  0  0
M  CHG  5   8   1  18   1  19   1  29   1  30   1
M  END
>  <CHROM.1>
-150.36273321,-58.03010090,-171.34139232,-63.09528649,-60.98417460,-58.98872241
157.56188269,66.14183986,-165.48820116,-61.57842214,-60.69504308,-176.95136173
77.48556431,177.06446095,178.54428723,178.60477015,-11.87128569,-5.88636114
-7.02797232,1.20626431,0.19131344,-0.12723199

>  <Name>
2tob cryst

>  <RI>
0

>  <Rbt.Current_Directory>
/home/itssahil/PROJECTS/Mol_Feturizer/New_Systems/rnas/2tob

>  <Rbt.Executable>
rbdock ($Id: //depot/dev/client3/rdock/2013.1/src/exe/rbdock.cxx#4 $)

>  <Rbt.Library>
libRbt.so (2013.1, Build901 2013/11/27)

>  <Rbt.Parameter_File>
/export/apps/rDock/src/rDock_2013.1_src/data/scripts/dock_solv.prm

>  <Rbt.Receptor>
prm/pocket_docking_5.prm

>  <SCORE>
-58.4997

>  <SCORE.INTER>
-36.9212

>  <SCORE.INTER.CONST>
1

>  <SCORE.INTER.POLAR>
-7.00137

>  <SCORE.INTER.ROT>
6

>  <SCORE.INTER.SOLV>
23.785

>  <SCORE.INTER.VDW>
-16.8046

>  <SCORE.INTER.norm>
-1.15379

>  <SCORE.INTRA>
-21.5785

>  <SCORE.INTRA.DIHEDRAL>
-11.4314

>  <SCORE.INTRA.DIHEDRAL.0>
18.4221

>  <SCORE.INTRA.POLAR>
1.41702

>  <SCORE.INTRA.POLAR.0>
-1.57101

>  <SCORE.INTRA.REPUL>
-0.730195

>  <SCORE.INTRA.REPUL.0>
0.730195

>  <SCORE.INTRA.SOLV>
-7.3331

>  <SCORE.INTRA.SOLV.lig_0>
-127.221

>  <SCORE.INTRA.VDW>
-13.3631

>  <SCORE.INTRA.VDW.0>
10.8385

>  <SCORE.INTRA.norm>
-0.674327

>  <SCORE.RESTR>
0

>  <SCORE.RESTR.CAVITY>
0

>  <SCORE.RESTR.norm>
0

>  <SCORE.SYSTEM>
0

>  <SCORE.SYSTEM.CONST>
0

>  <SCORE.SYSTEM.DIHEDRAL>
0

>  <SCORE.SYSTEM.SOLV>
0

>  <SCORE.SYSTEM.norm>
0

>  <SCORE.heavy>
32

>  <SCORE.norm>
-1.82812

>  <RMSD>
5.536

$$$$
2tob cryst
 OpenBabel11021811463D
libRbt.so/2013.1/901 2013/11/27
 32 34  0  0  0  0  0  0  0  0999 V2000
   -4.2633    0.1770  -11.2473 C   0  0  2  0  0  0  0  0  0  0  0  0
   -3.0384   -0.7276  -11.3390 C   0  0  1  0  0  0  0  0  0  0  0  0
   -1.7795    0.1240  -11.1721 C   0  0  2  0  0  0  0  0  0  0  0  0
   -1.7571    1.2714  -12.1907 C   0  0  1  0  0  0  0  0  0  0  0  0
   -3.0726    2.0551  -12.1261 C   0  0  1  0  0  0  0  0  0  0  0  0
   -3.2168    3.1265  -13.1945 C   0  0  0  0  0  0  0  0  0  0  0  0
   -3.0887   -1.7211  -10.3185 O   0  0  0  0  0  0  0  0  0  0  0  0
   -0.4571   -0.5739  -11.2480 N   0  3  0  0  0  0  0  0  0  0  0  0
   -0.6654    2.1327  -11.8929 O   0  0  0  0  0  0  0  0  0  0  0  0
   -4.1886    1.1536  -12.2686 O   0  0  0  0  0  0  0  0  0  0  0  0
   -2.9734    2.5867  -14.4896 O   0  0  0  0  0  0  0  0  0  0  0  0
   -6.2891    2.0466  -10.4039 C   0  0  2  0  0  0  0  0  0  0  0  0
   -7.7774    2.2535  -10.0920 C   0  0  0  0  0  0  0  0  0  0  0  0
   -8.5099    0.9327   -9.8722 C   0  0  1  0  0  0  0  0  0  0  0  0
   -7.8162    0.1794   -8.7456 C   0  0  2  0  0  0  0  0  0  0  0  0
   -6.3866   -0.1676   -9.1690 C   0  0  1  0  0  0  0  0  0  0  0  0
   -5.5710    1.1137   -9.4160 C   0  0  1  0  0  0  0  0  0  0  0  0
   -5.5689    3.3639  -10.4417 N   0  3  0  0  0  0  0  0  0  0  0  0
   -9.9587    1.1656   -9.5641 N   0  3  0  0  0  0  0  0  0  0  0  0
   -5.7731   -0.9546   -8.1559 O   0  0  0  0  0  0  0  0  0  0  0  0
   -8.5391   -1.0226   -8.4228 O   0  0  0  0  0  0  0  0  0  0  0  0
   -4.2867    0.7736   -9.9788 O   0  0  0  0  0  0  0  0  0  0  0  0
   -9.2015   -0.9605   -7.1900 C   0  0  2  0  0  0  0  0  0  0  0  0
   -8.9955   -2.2694   -6.4204 C   0  0  1  0  0  0  0  0  0  0  0  0
   -9.8398   -3.3957   -7.0172 C   0  0  0  0  0  0  0  0  0  0  0  0
  -11.2868   -2.9374   -7.1000 C   0  0  1  0  0  0  0  0  0  0  0  0
  -11.3649   -1.6806   -7.9491 C   0  0  1  0  0  0  0  0  0  0  0  0
  -12.7908   -1.1755   -8.0744 C   0  0  0  0  0  0  0  0  0  0  0  0
   -7.5491   -2.6555   -6.4714 N   0  3  0  0  0  0  0  0  0  0  0  0
  -13.0981   -1.0076   -9.5374 N   0  3  0  0  0  0  0  0  0  0  0  0
  -12.0964   -3.9576   -7.6673 O   0  0  0  0  0  0  0  0  0  0  0  0
  -10.5817   -0.6430   -7.3352 O   0  0  0  0  0  0  0  0  0  0  0  0
  1  2  1  0  0  0  0
  1 22  1  1  0  0  0
  1 10  1  0  0  0  0
  2  3  1  0  0  0  0
  2  7  1  1  0  0  0
  3  4  1  0  0  0  0
  3  8  1  6  0  0  0
  4  5  1  0  0  0  0
  4  9  1  1  0  0  0
  5  6  1  6  0  0  0
  5 10  1  0  0  0  0
  6 11  1  0  0  0  0
 12 13  1  0  0  0  0
 12 17  1  0  0  0  0
 12 18  1  1  0  0  0
 13 14  1  0  0  0  0
 14 15  1  0  0  0  0
 14 19  1  1  0  0  0
 15 16  1  0  0  0  0
 15 21  1  6  0  0  0
 16 17  1  0  0  0  0
 16 20  1  1  0  0  0
 17 22  1  6  0  0  0
 23 21  1  6  0  0  0
 23 24  1  0  0  0  0
 23 32  1  0  0  0  0
 24 25  1  0  0  0  0
 24 29  1  6  0  0  0
 25 26  1  0  0  0  0
 26 27  1  0  0  0  0
 26 31  1  6  0  0  0
 27 28  1  1  0  0  0
 27 32  1  0  0  0  0
 28 30  1  0  0  0  0
M  CHG  5   8   1  18   1  19   1  29   1  30   1
M  END
>  <CHROM.1>
-150.42687432,83.13126755,-178.93141715,-176.95549000,51.88428133,-58.11653285
-28.15543386,136.20105433,-108.62135733,173.23970592,-56.84019311,-136.23578058
-147.82642521,178.87106257,-127.03844216,162.53494571,-6.59584154,-0.04860780
-9.72522368,-0.52915218,-0.18018405,2.51052882

>  <Name>
2tob cryst

>  <RI>
0

>  <Rbt.Current_Directory>
/home/itssahil/PROJECTS/Mol_Feturizer/New_Systems/rnas/2tob

>  <Rbt.Executable>
rbdock ($Id: //depot/dev/client3/rdock/2013.1/src/exe/rbdock.cxx#4 $)

>  <Rbt.Library>
libRbt.so (2013.1, Build901 2013/11/27)

>  <Rbt.Parameter_File>
/export/apps/rDock/src/rDock_2013.1_src/data/scripts/dock_solv.prm

>  <Rbt.Receptor>
prm/blind_docking_60.prm

>  <SCORE>
-18.1462

>  <SCORE.INTER>
-18.7135

>  <SCORE.INTER.CONST>
1

>  <SCORE.INTER.POLAR>
-4.55901

>  <SCORE.INTER.ROT>
6

>  <SCORE.INTER.SOLV>
41.6201

>  <SCORE.INTER.VDW>
-18.7523

>  <SCORE.INTER.norm>
-0.584797

>  <SCORE.INTRA>
-11.7513

>  <SCORE.INTRA.DIHEDRAL>
13.3493

>  <SCORE.INTRA.DIHEDRAL.0>
18.4221

>  <SCORE.INTRA.POLAR>
-0.378365

>  <SCORE.INTRA.POLAR.0>
-1.57101

>  <SCORE.INTRA.REPUL>
-0.601236

>  <SCORE.INTRA.REPUL.0>
0.730195

>  <SCORE.INTRA.SOLV>
-1.35119

>  <SCORE.INTRA.SOLV.lig_0>
-127.221

>  <SCORE.INTRA.VDW>
-13.4577

>  <SCORE.INTRA.VDW.0>
10.8385

>  <SCORE.INTRA.norm>
-0.367229

>  <SCORE.RESTR>
12.3186

>  <SCORE.RESTR.CAVITY>
12.3186

>  <SCORE.RESTR.norm>
0.384957

>  <SCORE.SYSTEM>
0

>  <SCORE.SYSTEM.CONST>
0

>  <SCORE.SYSTEM.DIHEDRAL>
0

>  <SCORE.SYSTEM.SOLV>
0

>  <SCORE.SYSTEM.norm>
0

>  <SCORE.heavy>
32

>  <SCORE.norm>
-0.567069

>  <RMSD>
5.643

$$$$
2tob cryst
 OpenBabel11021811463D
libRbt.so/2013.1/901 2013/11/27
 32 34  0  0  0  0  0  0  0  0999 V2000
   -4.2315   -0.3799  -11.1405 C   0  0  2  0  0  0  0  0  0  0  0  0
   -3.2341   -1.5301  -11.0439 C   0  0  1  0  0  0  0  0  0  0  0  0
   -1.8243   -0.9539  -10.9100 C   0  0  2  0  0  0  0  0  0  0  0  0
   -1.5174    0.0128  -12.0615 C   0  0  1  0  0  0  0  0  0  0  0  0
   -2.6289    1.0618  -12.1751 C   0  0  1  0  0  0  0  0  0  0  0  0
   -2.4997    1.9840  -13.3763 C   0  0  0  0  0  0  0  0  0  0  0  0
   -3.5342   -2.3417   -9.9117 O   0  0  0  0  0  0  0  0  0  0  0  0
   -0.6867   -1.9230  -10.8179 N   0  3  0  0  0  0  0  0  0  0  0  0
   -0.2725    0.6520  -11.8091 O   0  0  0  0  0  0  0  0  0  0  0  0
   -3.9113    0.4101  -12.2700 O   0  0  0  0  0  0  0  0  0  0  0  0
   -3.5088    2.9885  -13.3551 O   0  0  0  0  0  0  0  0  0  0  0  0
   -5.9782    1.9359  -10.2351 C   0  0  2  0  0  0  0  0  0  0  0  0
   -7.4327    2.2951   -9.9029 C   0  0  0  0  0  0  0  0  0  0  0  0
   -8.3317    1.0632   -9.8415 C   0  0  1  0  0  0  0  0  0  0  0  0
   -7.7587    0.1002   -8.8109 C   0  0  2  0  0  0  0  0  0  0  0  0
   -6.3785   -0.3763   -9.2704 C   0  0  1  0  0  0  0  0  0  0  0  0
   -5.4017    0.8091   -9.3633 C   0  0  1  0  0  0  0  0  0  0  0  0
   -5.0948    3.1446  -10.1162 N   0  3  0  0  0  0  0  0  0  0  0  0
   -9.7437    1.4433   -9.5100 N   0  3  0  0  0  0  0  0  0  0  0  0
   -5.8874   -1.3489   -8.3566 O   0  0  0  0  0  0  0  0  0  0  0  0
   -8.6346   -1.0280   -8.6333 O   0  0  0  0  0  0  0  0  0  0  0  0
   -4.1623    0.3743   -9.9607 O   0  0  0  0  0  0  0  0  0  0  0  0
   -9.2960   -1.0310   -7.3983 C   0  0  2  0  0  0  0  0  0  0  0  0
   -9.2589   -2.4369   -6.7900 C   0  0  1  0  0  0  0  0  0  0  0  0
  -10.2290   -3.3728   -7.5114 C   0  0  0  0  0  0  0  0  0  0  0  0
  -11.6083   -2.7340   -7.5318 C   0  0  1  0  0  0  0  0  0  0  0  0
  -11.5240   -1.3857   -8.2259 C   0  0  1  0  0  0  0  0  0  0  0  0
  -12.8762   -0.6983   -8.2832 C   0  0  0  0  0  0  0  0  0  0  0  0
   -7.8702   -2.9888   -6.8939 N   0  3  0  0  0  0  0  0  0  0  0  0
  -13.7182   -1.4122   -9.3051 N   0  3  0  0  0  0  0  0  0  0  0  0
  -12.5313   -3.5730   -8.2116 O   0  0  0  0  0  0  0  0  0  0  0  0
  -10.6255   -0.5318   -7.4978 O   0  0  0  0  0  0  0  0  0  0  0  0
  1  2  1  0  0  0  0
  1 22  1  1  0  0  0
  1 10  1  0  0  0  0
  2  3  1  0  0  0  0
  2  7  1  1  0  0  0
  3  4  1  0  0  0  0
  3  8  1  6  0  0  0
  4  5  1  0  0  0  0
  4  9  1  1  0  0  0
  5  6  1  6  0  0  0
  5 10  1  0  0  0  0
  6 11  1  0  0  0  0
 12 13  1  0  0  0  0
 12 17  1  0  0  0  0
 12 18  1  1  0  0  0
 13 14  1  0  0  0  0
 14 15  1  0  0  0  0
 14 19  1  1  0  0  0
 15 16  1  0  0  0  0
 15 21  1  6  0  0  0
 16 17  1  0  0  0  0
 16 20  1  1  0  0  0
 17 22  1  6  0  0  0
 23 21  1  6  0  0  0
 23 24  1  0  0  0  0
 23 32  1  0  0  0  0
 24 25  1  0  0  0  0
 24 29  1  6  0  0  0
 25 26  1  0  0  0  0
 26 27  1  0  0  0  0
 26 31  1  6  0  0  0
 27 28  1  1  0  0  0
 27 32  1  0  0  0  0
 28 30  1  0  0  0  0
M  CHG  5   8   1  18   1  19   1  29   1  30   1
M  END
>  <CHROM.1>
-137.04810509,58.27929308,-161.43159541,68.34400247,-175.63864370,-172.35937251
72.53514117,50.58867221,-109.09292719,-63.62179747,-73.00395198,-135.75473015
20.38591169,65.91825131,-73.14191595,-69.79603121,-6.61962927,-0.37689737
-9.71190693,-0.37587157,-0.24373337,2.66501910

>  <Name>
2tob cryst

>  <RI>
0

>  <Rbt.Current_Directory>
/home/itssahil/PROJECTS/Mol_Feturizer/New_Systems/rnas/2tob

>  <Rbt.Executable>
rbdock ($Id: //depot/dev/client3/rdock/2013.1/src/exe/rbdock.cxx#4 $)

>  <Rbt.Library>
libRbt.so (2013.1, Build901 2013/11/27)

>  <Rbt.Parameter_File>
/export/apps/rDock/src/rDock_2013.1_src/data/scripts/dock_solv.prm

>  <Rbt.Receptor>
prm/blind_docking_100.prm

>  <SCORE>
6.64877

>  <SCORE.INTER>
15.4548

>  <SCORE.INTER.CONST>
1

>  <SCORE.INTER.POLAR>
-2.85581

>  <SCORE.INTER.ROT>
6

>  <SCORE.INTER.SOLV>
42.0894

>  <SCORE.INTER.VDW>
-1.80721

>  <SCORE.INTER.norm>
0.482963

>  <SCORE.INTRA>
-15.8256

>  <SCORE.INTRA.DIHEDRAL>
6.76843

>  <SCORE.INTRA.DIHEDRAL.0>
18.4221

>  <SCORE.INTRA.POLAR>
0.0823384

>  <SCORE.INTRA.POLAR.0>
-1.57101

>  <SCORE.INTRA.REPUL>
-0.730195

>  <SCORE.INTRA.REPUL.0>
0.730195

>  <SCORE.INTRA.SOLV>
-1.62957

>  <SCORE.INTRA.SOLV.lig_0>
-127.221

>  <SCORE.INTRA.VDW>
-15.024

>  <SCORE.INTRA.VDW.0>
10.8385

>  <SCORE.INTRA.norm>
-0.494549

>  <SCORE.RESTR>
7.01952

>  <SCORE.RESTR.CAVITY>
7.01952

>  <SCORE.RESTR.norm>
0.21936

>  <SCORE.SYSTEM>
0

>  <SCORE.SYSTEM.CONST>
0

>  <SCORE.SYSTEM.DIHEDRAL>
0

>  <SCORE.SYSTEM.SOLV>
0

>  <SCORE.SYSTEM.norm>
0

>  <SCORE.heavy>
32

>  <SCORE.norm>
0.207774

>  <RMSD>
5.696

$$$$
2tob cryst
 OpenBabel11021811463D
libRbt.so/2013.1/901 2013/11/27
 32 34  0  0  0  0  0  0  0  0999 V2000
   -4.0767    0.0199  -11.2535 C   0  0  2  0  0  0  0  0  0  0  0  0
   -2.8235   -0.8276  -11.4488 C   0  0  1  0  0  0  0  0  0  0  0  0
   -1.5935    0.0743  -11.3426 C   0  0  2  0  0  0  0  0  0  0  0  0
   -1.6874    1.2450  -12.3301 C   0  0  1  0  0  0  0  0  0  0  0  0
   -3.0277    1.9685  -12.1590 C   0  0  1  0  0  0  0  0  0  0  0  0
   -3.2878    3.0571  -13.1873 C   0  0  0  0  0  0  0  0  0  0  0  0
   -2.7637   -1.8458  -10.4536 O   0  0  0  0  0  0  0  0  0  0  0  0
   -0.2507   -0.5629  -11.5232 N   0  3  0  0  0  0  0  0  0  0  0  0
   -0.6158    2.1463  -12.0820 O   0  0  0  0  0  0  0  0  0  0  0  0
   -4.1115    1.0225  -12.2516 O   0  0  0  0  0  0  0  0  0  0  0  0
   -3.5857    4.2953  -12.5502 O   0  0  0  0  0  0  0  0  0  0  0  0
   -5.8766    2.1248  -10.2368 C   0  0  2  0  0  0  0  0  0  0  0  0
   -7.3388    2.4582   -9.9113 C   0  0  0  0  0  0  0  0  0  0  0  0
   -8.2204    1.2129   -9.8761 C   0  0  1  0  0  0  0  0  0  0  0  0
   -7.6421    0.2424   -8.8555 C   0  0  2  0  0  0  0  0  0  0  0  0
   -6.2515   -0.2073   -9.3106 C   0  0  1  0  0  0  0  0  0  0  0  0
   -5.2911    0.9931   -9.3774 C   0  0  1  0  0  0  0  0  0  0  0  0
   -5.0116    3.3439  -10.0922 N   0  3  0  0  0  0  0  0  0  0  0  0
   -9.6404    1.5678   -9.5506 N   0  3  0  0  0  0  0  0  0  0  0  0
   -5.7540   -1.1866   -8.4076 O   0  0  0  0  0  0  0  0  0  0  0  0
   -8.5032   -0.9006   -8.7022 O   0  0  0  0  0  0  0  0  0  0  0  0
   -4.0409    0.5852   -9.9709 O   0  0  0  0  0  0  0  0  0  0  0  0
   -9.3554   -0.8118   -7.5938 C   0  0  2  0  0  0  0  0  0  0  0  0
   -9.0969   -1.9841   -6.6417 C   0  0  1  0  0  0  0  0  0  0  0  0
   -9.6732   -3.2843   -7.2029 C   0  0  0  0  0  0  0  0  0  0  0  0
  -11.1377   -3.0670   -7.5478 C   0  0  1  0  0  0  0  0  0  0  0  0
  -11.2512   -1.9345   -8.5533 C   0  0  1  0  0  0  0  0  0  0  0  0
  -12.6947   -1.6724   -8.9430 C   0  0  0  0  0  0  0  0  0  0  0  0
   -7.6217   -2.1448   -6.4374 N   0  3  0  0  0  0  0  0  0  0  0  0
  -13.2277   -2.9094   -9.6128 N   0  3  0  0  0  0  0  0  0  0  0  0
  -11.6992   -4.2545   -8.0888 O   0  0  0  0  0  0  0  0  0  0  0  0
  -10.7252   -0.7291   -7.9726 O   0  0  0  0  0  0  0  0  0  0  0  0
  1  2  1  0  0  0  0
  1 22  1  1  0  0  0
  1 10  1  0  0  0  0
  2  3  1  0  0  0  0
  2  7  1  1  0  0  0
  3  4  1  0  0  0  0
  3  8  1  6  0  0  0
  4  5  1  0  0  0  0
  4  9  1  1  0  0  0
  5  6  1  6  0  0  0
  5 10  1  0  0  0  0
  6 11  1  0  0  0  0
 12 13  1  0  0  0  0
 12 17  1  0  0  0  0
 12 18  1  1  0  0  0
 13 14  1  0  0  0  0
 14 15  1  0  0  0  0
 14 19  1  1  0  0  0
 15 16  1  0  0  0  0
 15 21  1  6  0  0  0
 16 17  1  0  0  0  0
 16 20  1  1  0  0  0
 17 22  1  6  0  0  0
 23 21  1  6  0  0  0
 23 24  1  0  0  0  0
 23 32  1  0  0  0  0
 24 25  1  0  0  0  0
 24 29  1  6  0  0  0
 25 26  1  0  0  0  0
 26 27  1  0  0  0  0
 26 31  1  6  0  0  0
 27 28  1  1  0  0  0
 27 32  1  0  0  0  0
 28 30  1  0  0  0  0
M  CHG  5   8   1  18   1  19   1  29   1  30   1
M  END
>  <CHROM.1>
-157.20625347,76.22391599,46.23287168,-56.28326636,-125.68233343,-178.52177411
-136.75340895,64.33579286,-97.99464586,-65.41291638,-63.98623379,-120.46707107
-43.58818483,-44.40299900,-62.61735373,-176.20192811,-6.47733933,-0.06629943
-9.80088977,-0.50033700,-0.21471696,2.72712698

>  <Name>
2tob cryst

>  <RI>
0

>  <Rbt.Current_Directory>
/home/itssahil/PROJECTS/Mol_Feturizer/New_Systems/rnas/2tob

>  <Rbt.Executable>
rbdock ($Id: //depot/dev/client3/rdock/2013.1/src/exe/rbdock.cxx#4 $)

>  <Rbt.Library>
libRbt.so (2013.1, Build901 2013/11/27)

>  <Rbt.Parameter_File>
/export/apps/rDock/src/rDock_2013.1_src/data/scripts/dock_solv.prm

>  <Rbt.Receptor>
prm/blind_docking_60.prm

>  <SCORE>
-20.9199

>  <SCORE.INTER>
-15.2484

>  <SCORE.INTER.CONST>
1

>  <SCORE.INTER.POLAR>
-5.41444

>  <SCORE.INTER.ROT>
6

>  <SCORE.INTER.SOLV>
35.5927

>  <SCORE.INTER.VDW>
-11.5817

>  <SCORE.INTER.norm>
-0.476513

>  <SCORE.INTRA>
-17.5127

>  <SCORE.INTRA.DIHEDRAL>
7.99952

>  <SCORE.INTRA.DIHEDRAL.0>
18.4221

>  <SCORE.INTRA.POLAR>
-1.54195

>  <SCORE.INTRA.POLAR.0>
-1.57101

>  <SCORE.INTRA.REPUL>
-0.730195

>  <SCORE.INTRA.REPUL.0>
0.730195

>  <SCORE.INTRA.SOLV>
1.17092

>  <SCORE.INTRA.SOLV.lig_0>
-127.221

>  <SCORE.INTRA.VDW>
-13.2044

>  <SCORE.INTRA.VDW.0>
10.8385

>  <SCORE.INTRA.norm>
-0.547273

>  <SCORE.RESTR>
11.8413

>  <SCORE.RESTR.CAVITY>
11.8413

>  <SCORE.RESTR.norm>
0.370041

>  <SCORE.SYSTEM>
0

>  <SCORE.SYSTEM.CONST>
0

>  <SCORE.SYSTEM.DIHEDRAL>
0

>  <SCORE.SYSTEM.SOLV>
0

>  <SCORE.SYSTEM.norm>
0

>  <SCORE.heavy>
32

>  <SCORE.norm>
-0.653745

>  <RMSD>
5.728

$$$$
2tob cryst
 OpenBabel11021811463D
libRbt.so/2013.1/901 2013/11/27
 32 34  0  0  0  0  0  0  0  0999 V2000
   -5.4198    1.9149  -10.5228 C   0  0  2  0  0  0  0  0  0  0  0  0
   -4.7234    1.3124  -11.7389 C   0  0  1  0  0  0  0  0  0  0  0  0
   -3.2522    1.0716  -11.3991 C   0  0  2  0  0  0  0  0  0  0  0  0
   -2.5874    2.3630  -10.9041 C   0  0  1  0  0  0  0  0  0  0  0  0
   -3.4142    2.9758   -9.7684 C   0  0  1  0  0  0  0  0  0  0  0  0
   -2.9240    4.3362   -9.3001 C   0  0  0  0  0  0  0  0  0  0  0  0
   -5.3449    0.0807  -12.0960 O   0  0  0  0  0  0  0  0  0  0  0  0
   -2.3797    0.4961  -12.4712 N   0  3  0  0  0  0  0  0  0  0  0  0
   -1.2776    2.0602  -10.4404 O   0  0  0  0  0  0  0  0  0  0  0  0
   -4.7840    3.1342  -10.1886 O   0  0  0  0  0  0  0  0  0  0  0  0
   -3.4813    5.3772  -10.0961 O   0  0  0  0  0  0  0  0  0  0  0  0
   -5.4153   -1.3122   -8.7839 C   0  0  2  0  0  0  0  0  0  0  0  0
   -6.2765   -2.5560   -8.5260 C   0  0  0  0  0  0  0  0  0  0  0  0
   -7.6323   -2.2036   -7.9204 C   0  0  1  0  0  0  0  0  0  0  0  0
   -8.3405   -1.2346   -8.8571 C   0  0  2  0  0  0  0  0  0  0  0  0
   -7.5390    0.0665   -8.9458 C   0  0  1  0  0  0  0  0  0  0  0  0
   -6.1472   -0.1970   -9.5471 C   0  0  1  0  0  0  0  0  0  0  0  0
   -4.1680   -1.6795   -9.5353 N   0  3  0  0  0  0  0  0  0  0  0  0
   -8.4533   -3.4360   -7.6849 N   0  3  0  0  0  0  0  0  0  0  0  0
   -8.2504    1.0048   -9.7429 O   0  0  0  0  0  0  0  0  0  0  0  0
   -9.6727   -0.9606   -8.3861 O   0  0  0  0  0  0  0  0  0  0  0  0
   -5.3452    0.9995   -9.4635 O   0  0  0  0  0  0  0  0  0  0  0  0
  -10.5593   -0.5907   -9.4058 C   0  0  2  0  0  0  0  0  0  0  0  0
  -11.3111    0.6834   -9.0067 C   0  0  1  0  0  0  0  0  0  0  0  0
  -12.3740    0.3850   -7.9490 C   0  0  0  0  0  0  0  0  0  0  0  0
  -13.2662   -0.7397   -8.4491 C   0  0  1  0  0  0  0  0  0  0  0  0
  -12.4139   -1.9638   -8.7349 C   0  0  1  0  0  0  0  0  0  0  0  0
  -13.2517   -3.1270   -9.2339 C   0  0  0  0  0  0  0  0  0  0  0  0
  -10.3400    1.6857   -8.4626 N   0  3  0  0  0  0  0  0  0  0  0  0
  -12.4384   -4.3838   -9.0853 N   0  3  0  0  0  0  0  0  0  0  0  0
  -14.2562   -1.0530   -7.4797 O   0  0  0  0  0  0  0  0  0  0  0  0
  -11.4507   -1.6449   -9.7534 O   0  0  0  0  0  0  0  0  0  0  0  0
  1  2  1  0  0  0  0
  1 22  1  1  0  0  0
  1 10  1  0  0  0  0
  2  3  1  0  0  0  0
  2  7  1  1  0  0  0
  3  4  1  0  0  0  0
  3  8  1  6  0  0  0
  4  5  1  0  0  0  0
  4  9  1  1  0  0  0
  5  6  1  6  0  0  0
  5 10  1  0  0  0  0
  6 11  1  0  0  0  0
 12 13  1  0  0  0  0
 12 17  1  0  0  0  0
 12 18  1  6  0  0  0
 13 14  1  0  0  0  0
 14 15  1  0  0  0  0
 14 19  1  6  0  0  0
 15 16  1  0  0  0  0
 15 21  1  1  0  0  0
 16 17  1  0  0  0  0
 16 20  1  6  0  0  0
 17 22  1  1  0  0  0
 23 21  1  1  0  0  0
 23 24  1  0  0  0  0
 23 32  1  0  0  0  0
 24 25  1  0  0  0  0
 24 29  1  1  0  0  0
 25 26  1  0  0  0  0
 26 27  1  0  0  0  0
 26 31  1  1  0  0  0
 27 28  1  6  0  0  0
 27 32  1  0  0  0  0
 28 30  1  0  0  0  0
M  CHG  5   8   1  18   1  19   1  29   1  30   1
M  END
>  <CHROM.1>
-71.19866470,-171.63354933,-14.17017051,-170.18558969,86.12972512,-174.54253202
-178.07463761,171.19529230,-153.77465324,-53.83949793,150.27676492,-130.66857651
-133.88589116,-172.55687914,-162.74862067,-169.61256544,-7.43204427,0.08393587
-9.51027622,0.41057694,0.22201272,-0.01478938

>  <Name>
2tob cryst

>  <RI>
0

>  <Rbt.Current_Directory>
/home/itssahil/PROJECTS/Mol_Feturizer/New_Systems/rnas/2tob

>  <Rbt.Executable>
rbdock ($Id: //depot/dev/client3/rdock/2013.1/src/exe/rbdock.cxx#4 $)

>  <Rbt.Library>
libRbt.so (2013.1, Build901 2013/11/27)

>  <Rbt.Parameter_File>
/export/apps/rDock/src/rDock_2013.1_src/data/scripts/dock_solv.prm

>  <Rbt.Receptor>
prm/blind_docking_60.prm

>  <SCORE>
-17.8296

>  <SCORE.INTER>
-18.5764

>  <SCORE.INTER.CONST>
1

>  <SCORE.INTER.POLAR>
-8.44164

>  <SCORE.INTER.ROT>
6

>  <SCORE.INTER.SOLV>
40.4441

>  <SCORE.INTER.VDW>
-5.32681

>  <SCORE.INTER.norm>
-0.580512

>  <SCORE.INTRA>
-9.40411

>  <SCORE.INTRA.DIHEDRAL>
6.48672

>  <SCORE.INTRA.DIHEDRAL.0>
18.4221

>  <SCORE.INTRA.POLAR>
1.22146

>  <SCORE.INTRA.POLAR.0>
-1.57101

>  <SCORE.INTRA.REPUL>
-0.730195

>  <SCORE.INTRA.REPUL.0>
0.730195

>  <SCORE.INTRA.SOLV>
-2.92166

>  <SCORE.INTRA.SOLV.lig_0>
-127.221

>  <SCORE.INTRA.VDW>
-11.6886

>  <SCORE.INTRA.VDW.0>
10.8385

>  <SCORE.INTRA.norm>
-0.293878

>  <SCORE.RESTR>
10.1509

>  <SCORE.RESTR.CAVITY>
10.1509

>  <SCORE.RESTR.norm>
0.317216

>  <SCORE.SYSTEM>
0

>  <SCORE.SYSTEM.CONST>
0

>  <SCORE.SYSTEM.DIHEDRAL>
0

>  <SCORE.SYSTEM.SOLV>
0

>  <SCORE.SYSTEM.norm>
0

>  <SCORE.heavy>
32

>  <SCORE.norm>
-0.557174

>  <RMSD>
5.739

$$$$
2tob cryst
 OpenBabel11021811463D
libRbt.so/2013.1/901 2013/11/27
 32 34  0  0  0  0  0  0  0  0999 V2000
   -4.5307   -0.2421  -11.0822 C   0  0  2  0  0  0  0  0  0  0  0  0
   -3.7471   -1.5507  -11.0636 C   0  0  1  0  0  0  0  0  0  0  0  0
   -2.2753   -1.2434  -10.7859 C   0  0  2  0  0  0  0  0  0  0  0  0
   -1.7281   -0.2295  -11.7993 C   0  0  1  0  0  0  0  0  0  0  0  0
   -2.6395    1.0016  -11.8528 C   0  0  1  0  0  0  0  0  0  0  0  0
   -2.2706    2.0078  -12.9306 C   0  0  0  0  0  0  0  0  0  0  0  0
   -4.2605   -2.4120  -10.0510 O   0  0  0  0  0  0  0  0  0  0  0  0
   -1.3235   -2.3985  -10.7431 N   0  3  0  0  0  0  0  0  0  0  0  0
   -0.4169    0.1556  -11.4060 O   0  0  0  0  0  0  0  0  0  0  0  0
   -4.0012    0.5943  -12.0935 O   0  0  0  0  0  0  0  0  0  0  0  0
   -1.9307    1.3474  -14.1455 O   0  0  0  0  0  0  0  0  0  0  0  0
   -6.1849    1.9729  -10.1686 C   0  0  2  0  0  0  0  0  0  0  0  0
   -7.6124    2.4193   -9.8251 C   0  0  0  0  0  0  0  0  0  0  0  0
   -8.5580    1.2358   -9.6390 C   0  0  1  0  0  0  0  0  0  0  0  0
   -7.9918    0.3339   -8.5510 C   0  0  2  0  0  0  0  0  0  0  0  0
   -6.6473   -0.2362   -9.0098 C   0  0  1  0  0  0  0  0  0  0  0  0
   -5.6269    0.8952   -9.2257 C   0  0  1  0  0  0  0  0  0  0  0  0
   -5.2501    3.1483  -10.1727 N   0  3  0  0  0  0  0  0  0  0  0  0
   -9.9422    1.7010   -9.2990 N   0  3  0  0  0  0  0  0  0  0  0  0
   -6.1670   -1.1533   -8.0349 O   0  0  0  0  0  0  0  0  0  0  0  0
   -8.9065   -0.7381   -8.2580 O   0  0  0  0  0  0  0  0  0  0  0  0
   -4.4258    0.3618   -9.8212 O   0  0  0  0  0  0  0  0  0  0  0  0
  -10.0059   -0.3377   -7.4876 C   0  0  2  0  0  0  0  0  0  0  0  0
  -10.1906   -1.2946   -6.3051 C   0  0  1  0  0  0  0  0  0  0  0  0
  -10.7755   -2.6299   -6.7659 C   0  0  0  0  0  0  0  0  0  0  0  0
  -12.0426   -2.3653   -7.5629 C   0  0  1  0  0  0  0  0  0  0  0  0
  -11.7114   -1.4713   -8.7452 C   0  0  1  0  0  0  0  0  0  0  0  0
  -12.9397   -1.1746   -9.5861 C   0  0  0  0  0  0  0  0  0  0  0  0
   -8.8667   -1.5355   -5.6471 N   0  3  0  0  0  0  0  0  0  0  0  0
  -13.8892   -0.3593   -8.7515 N   0  3  0  0  0  0  0  0  0  0  0  0
  -12.6026   -3.5879   -8.0208 O   0  0  0  0  0  0  0  0  0  0  0  0
  -11.1934   -0.2195   -8.2639 O   0  0  0  0  0  0  0  0  0  0  0  0
  1  2  1  0  0  0  0
  1 22  1  1  0  0  0
  1 10  1  0  0  0  0
  2  3  1  0  0  0  0
  2  7  1  1  0  0  0
  3  4  1  0  0  0  0
  3  8  1  6  0  0  0
  4  5  1  0  0  0  0
  4  9  1  1  0  0  0
  5  6  1  6  0  0  0
  5 10  1  0  0  0  0
  6 11  1  0  0  0  0
 12 13  1  0  0  0  0
 12 17  1  0  0  0  0
 12 18  1  1  0  0  0
 13 14  1  0  0  0  0
 14 15  1  0  0  0  0
 14 19  1  1  0  0  0
 15 16  1  0  0  0  0
 15 21  1  6  0  0  0
 16 17  1  0  0  0  0
 16 20  1  1  0  0  0
 17 22  1  6  0  0  0
 23 21  1  6  0  0  0
 23 24  1  0  0  0  0
 23 32  1  0  0  0  0
 24 25  1  0  0  0  0
 24 29  1  6  0  0  0
 25 26  1  0  0  0  0
 26 27  1  0  0  0  0
 26 31  1  6  0  0  0
 27 28  1  1  0  0  0
 27 32  1  0  0  0  0
 28 30  1  0  0  0  0
M  CHG  5   8   1  18   1  19   1  29   1  30   1
M  END
>  <CHROM.1>
-134.80198167,-97.29122945,-23.90154836,-178.09049101,42.12992350,-60.61439623
68.28923235,49.58880355,-76.02691455,172.80171081,-59.92513986,-130.76545094
65.83583237,178.52352201,65.60688275,68.95227270,-6.87343396,-0.26087082
-9.59934353,-0.31039119,-0.27929129,2.65216725

>  <Name>
2tob cryst

>  <RI>
0

>  <Rbt.Current_Directory>
/home/itssahil/PROJECTS/Mol_Feturizer/New_Systems/rnas/2tob

>  <Rbt.Executable>
rbdock ($Id: //depot/dev/client3/rdock/2013.1/src/exe/rbdock.cxx#4 $)

>  <Rbt.Library>
libRbt.so (2013.1, Build901 2013/11/27)

>  <Rbt.Parameter_File>
/export/apps/rDock/src/rDock_2013.1_src/data/scripts/dock_solv.prm

>  <Rbt.Receptor>
prm/blind_docking_60.prm

>  <SCORE>
2.48146

>  <SCORE.INTER>
6.47971

>  <SCORE.INTER.CONST>
1

>  <SCORE.INTER.POLAR>
-4.59523

>  <SCORE.INTER.ROT>
6

>  <SCORE.INTER.SOLV>
44.972

>  <SCORE.INTER.VDW>
-2.95343

>  <SCORE.INTER.norm>
0.202491

>  <SCORE.INTRA>
-13.3666

>  <SCORE.INTRA.DIHEDRAL>
5.04717

>  <SCORE.INTRA.DIHEDRAL.0>
18.4221

>  <SCORE.INTRA.POLAR>
0.153448

>  <SCORE.INTRA.POLAR.0>
-1.57101

>  <SCORE.INTRA.REPUL>
-0.730195

>  <SCORE.INTRA.REPUL.0>
0.730195

>  <SCORE.INTRA.SOLV>
-1.80182

>  <SCORE.INTRA.SOLV.lig_0>
-127.221

>  <SCORE.INTRA.VDW>
-11.8601

>  <SCORE.INTRA.VDW.0>
10.8385

>  <SCORE.INTRA.norm>
-0.417707

>  <SCORE.RESTR>
9.3684

>  <SCORE.RESTR.CAVITY>
9.3684

>  <SCORE.RESTR.norm>
0.292762

>  <SCORE.SYSTEM>
0

>  <SCORE.SYSTEM.CONST>
0

>  <SCORE.SYSTEM.DIHEDRAL>
0

>  <SCORE.SYSTEM.SOLV>
0

>  <SCORE.SYSTEM.norm>
0

>  <SCORE.heavy>
32

>  <SCORE.norm>
0.0775458

>  <RMSD>
5.744

$$$$
2tob cryst
 OpenBabel11021811463D
libRbt.so/2013.1/901 2013/11/27
 32 34  0  0  0  0  0  0  0  0999 V2000
   -3.9811    0.1271  -11.3170 C   0  0  2  0  0  0  0  0  0  0  0  0
   -2.6679   -0.6316  -11.4813 C   0  0  1  0  0  0  0  0  0  0  0  0
   -1.5052    0.3343  -11.2518 C   0  0  2  0  0  0  0  0  0  0  0  0
   -1.6156    1.5523  -12.1785 C   0  0  1  0  0  0  0  0  0  0  0  0
   -3.0063    2.1836  -12.0504 C   0  0  1  0  0  0  0  0  0  0  0  0
   -3.2748    3.3123  -13.0322 C   0  0  0  0  0  0  0  0  0  0  0  0
   -2.6015   -1.7002  -10.5408 O   0  0  0  0  0  0  0  0  0  0  0  0
   -0.1168   -0.2105  -11.3846 N   0  3  0  0  0  0  0  0  0  0  0  0
   -0.6187    2.4999  -11.8173 O   0  0  0  0  0  0  0  0  0  0  0  0
   -4.0214    1.1817  -12.2597 O   0  0  0  0  0  0  0  0  0  0  0  0
   -3.7599    4.4677  -12.3559 O   0  0  0  0  0  0  0  0  0  0  0  0
   -6.1516    1.7472  -10.3793 C   0  0  2  0  0  0  0  0  0  0  0  0
   -7.6523    1.8185  -10.0665 C   0  0  0  0  0  0  0  0  0  0  0  0
   -8.2771    0.4340   -9.9174 C   0  0  1  0  0  0  0  0  0  0  0  0
   -7.5275   -0.3171   -8.8257 C   0  0  2  0  0  0  0  0  0  0  0  0
   -6.0739   -0.5270   -9.2571 C   0  0  1  0  0  0  0  0  0  0  0  0
   -5.3631    0.8263   -9.4348 C   0  0  1  0  0  0  0  0  0  0  0  0
   -5.5392    3.1181  -10.3468 N   0  3  0  0  0  0  0  0  0  0  0  0
   -9.7405    0.5345   -9.6069 N   0  3  0  0  0  0  0  0  0  0  0  0
   -5.4014   -1.3123   -8.2809 O   0  0  0  0  0  0  0  0  0  0  0  0
   -8.1525   -1.5877   -8.5677 O   0  0  0  0  0  0  0  0  0  0  0  0
   -4.0545    0.6186  -10.0060 O   0  0  0  0  0  0  0  0  0  0  0  0
   -7.5569   -2.2988   -7.5178 C   0  0  2  0  0  0  0  0  0  0  0  0
   -7.9473   -3.7782   -7.6021 C   0  0  1  0  0  0  0  0  0  0  0  0
   -9.3952   -3.9898   -7.1589 C   0  0  0  0  0  0  0  0  0  0  0  0
   -9.5872   -3.3673   -5.7854 C   0  0  1  0  0  0  0  0  0  0  0  0
   -9.2421   -1.8898   -5.8541 C   0  0  1  0  0  0  0  0  0  0  0  0
   -9.4203   -1.2087   -4.5093 C   0  0  0  0  0  0  0  0  0  0  0  0
   -7.7870   -4.2567   -9.0124 N   0  3  0  0  0  0  0  0  0  0  0  0
   -9.5191    0.2733   -4.7478 N   0  3  0  0  0  0  0  0  0  0  0  0
  -10.9298   -3.5324   -5.3516 O   0  0  0  0  0  0  0  0  0  0  0  0
   -7.8667   -1.7409   -6.2453 O   0  0  0  0  0  0  0  0  0  0  0  0
  1  2  1  0  0  0  0
  1 22  1  1  0  0  0
  1 10  1  0  0  0  0
  2  3  1  0  0  0  0
  2  7  1  1  0  0  0
  3  4  1  0  0  0  0
  3  8  1  6  0  0  0
  4  5  1  0  0  0  0
  4  9  1  1  0  0  0
  5  6  1  6  0  0  0
  5 10  1  0  0  0  0
  6 11  1  0  0  0  0
 12 13  1  0  0  0  0
 12 17  1  0  0  0  0
 12 18  1  1  0  0  0
 13 14  1  0  0  0  0
 14 15  1  0  0  0  0
 14 19  1  1  0  0  0
 15 16  1  0  0  0  0
 15 21  1  6  0  0  0
 16 17  1  0  0  0  0
 16 20  1  1  0  0  0
 17 22  1  6  0  0  0
 23 21  1  6  0  0  0
 23 24  1  0  0  0  0
 23 32  1  0  0  0  0
 24 25  1  0  0  0  0
 24 29  1  6  0  0  0
 25 26  1  0  0  0  0
 26 27  1  0  0  0  0
 26 31  1  6  0  0  0
 27 28  1  1  0  0  0
 27 32  1  0  0  0  0
 28 30  1  0  0  0  0
M  CHG  5   8   1  18   1  19   1  29   1  30   1
M  END
>  <CHROM.1>
-152.87312576,66.70330325,-81.86540788,-64.77957099,-129.04645788,176.75272828
-27.83681805,163.09970908,-176.53488671,167.15633372,-55.01173421,-161.40329648
67.19511530,59.98815630,-161.16175604,35.92481004,-5.93384241,-0.21153181
-9.31534090,-0.64276284,-0.47265359,2.76124699

>  <Name>
2tob cryst

>  <RI>
0

>  <Rbt.Current_Directory>
/home/itssahil/PROJECTS/Mol_Feturizer/New_Systems/rnas/2tob

>  <Rbt.Executable>
rbdock ($Id: //depot/dev/client3/rdock/2013.1/src/exe/rbdock.cxx#4 $)

>  <Rbt.Library>
libRbt.so (2013.1, Build901 2013/11/27)

>  <Rbt.Parameter_File>
/export/apps/rDock/src/rDock_2013.1_src/data/scripts/dock_solv.prm

>  <Rbt.Receptor>
prm/pocket_docking_6.prm

>  <SCORE>
-48.4957

>  <SCORE.INTER>
-34.2154

>  <SCORE.INTER.CONST>
1

>  <SCORE.INTER.POLAR>
-6.0992

>  <SCORE.INTER.ROT>
6

>  <SCORE.INTER.SOLV>
47.8245

>  <SCORE.INTER.VDW>
-26.0211

>  <SCORE.INTER.norm>
-1.06923

>  <SCORE.INTRA>
-16.0517

>  <SCORE.INTRA.DIHEDRAL>
-1.0818

>  <SCORE.INTRA.DIHEDRAL.0>
18.4221

>  <SCORE.INTRA.POLAR>
0.478338

>  <SCORE.INTRA.POLAR.0>
-1.57101

>  <SCORE.INTRA.REPUL>
-0.730195

>  <SCORE.INTRA.REPUL.0>
0.730195

>  <SCORE.INTRA.SOLV>
-6.35406

>  <SCORE.INTRA.SOLV.lig_0>
-127.221

>  <SCORE.INTRA.VDW>
-10.3092

>  <SCORE.INTRA.VDW.0>
10.8385

>  <SCORE.INTRA.norm>
-0.501616

>  <SCORE.RESTR>
1.77134

>  <SCORE.RESTR.CAVITY>
1.77134

>  <SCORE.RESTR.norm>
0.0553543

>  <SCORE.SYSTEM>
0

>  <SCORE.SYSTEM.CONST>
0

>  <SCORE.SYSTEM.DIHEDRAL>
0

>  <SCORE.SYSTEM.SOLV>
0

>  <SCORE.SYSTEM.norm>
0

>  <SCORE.heavy>
32

>  <SCORE.norm>
-1.51549

>  <RMSD>
5.780

$$$$
2tob cryst
 OpenBabel11021811463D
libRbt.so/2013.1/901 2013/11/27
 32 34  0  0  0  0  0  0  0  0999 V2000
  -13.6651   -3.2085   -6.8267 C   0  0  2  0  0  0  0  0  0  0  0  0
  -13.8952   -1.7266   -7.1061 C   0  0  1  0  0  0  0  0  0  0  0  0
  -12.9804   -1.2900   -8.2508 C   0  0  2  0  0  0  0  0  0  0  0  0
  -11.5157   -1.6222   -7.9368 C   0  0  1  0  0  0  0  0  0  0  0  0
  -11.3861   -3.0973   -7.5417 C   0  0  1  0  0  0  0  0  0  0  0  0
   -9.9987   -3.4999   -7.0694 C   0  0  0  0  0  0  0  0  0  0  0  0
  -15.2566   -1.5036   -7.4632 O   0  0  0  0  0  0  0  0  0  0  0  0
  -13.0380    0.1452   -8.6734 N   0  3  0  0  0  0  0  0  0  0  0  0
  -10.7246   -1.3584   -9.0887 O   0  0  0  0  0  0  0  0  0  0  0  0
  -12.3079   -3.4030   -6.4763 O   0  0  0  0  0  0  0  0  0  0  0  0
  -10.0257   -4.7833   -6.4529 O   0  0  0  0  0  0  0  0  0  0  0  0
  -15.7800   -5.5643   -7.9697 C   0  0  2  0  0  0  0  0  0  0  0  0
  -16.1851   -7.0353   -8.1346 C   0  0  0  0  0  0  0  0  0  0  0  0
  -15.3729   -7.7394   -9.2180 C   0  0  1  0  0  0  0  0  0  0  0  0
  -13.8961   -7.6163   -8.8688 C   0  0  2  0  0  0  0  0  0  0  0  0
  -13.4880   -6.1412   -8.8922 C   0  0  1  0  0  0  0  0  0  0  0  0
  -14.2651   -5.3494   -7.8258 C   0  0  1  0  0  0  0  0  0  0  0  0
  -16.4734   -4.9547   -6.7852 N   0  3  0  0  0  0  0  0  0  0  0  0
  -15.7857   -9.1746   -9.3530 N   0  3  0  0  0  0  0  0  0  0  0  0
  -12.0887   -6.0358   -8.6618 O   0  0  0  0  0  0  0  0  0  0  0  0
  -13.0936   -8.3636   -9.8010 O   0  0  0  0  0  0  0  0  0  0  0  0
  -13.9997   -3.9391   -7.9756 O   0  0  0  0  0  0  0  0  0  0  0  0
  -11.8425   -8.7319   -9.2892 C   0  0  2  0  0  0  0  0  0  0  0  0
  -11.1610   -9.7222  -10.2395 C   0  0  1  0  0  0  0  0  0  0  0  0
  -11.8045  -11.1058  -10.1439 C   0  0  0  0  0  0  0  0  0  0  0  0
  -11.8214  -11.5432   -8.6882 C   0  0  1  0  0  0  0  0  0  0  0  0
  -12.5888  -10.5206   -7.8684 C   0  0  1  0  0  0  0  0  0  0  0  0
  -12.6458  -10.9058   -6.4012 C   0  0  0  0  0  0  0  0  0  0  0  0
  -11.2732   -9.2209  -11.6465 N   0  3  0  0  0  0  0  0  0  0  0  0
  -13.3437   -9.8006   -5.6567 N   0  3  0  0  0  0  0  0  0  0  0  0
  -12.4297  -12.8208   -8.5632 O   0  0  0  0  0  0  0  0  0  0  0  0
  -11.9322   -9.2452   -7.9644 O   0  0  0  0  0  0  0  0  0  0  0  0
  1  2  1  0  0  0  0
  1 22  1  6  0  0  0
  1 10  1  0  0  0  0
  2  3  1  0  0  0  0
  2  7  1  6  0  0  0
  3  4  1  0  0  0  0
  3  8  1  1  0  0  0
  4  5  1  0  0  0  0
  4  9  1  6  0  0  0
  5  6  1  1  0  0  0
  5 10  1  0  0  0  0
  6 11  1  0  0  0  0
 12 13  1  0  0  0  0
 12 17  1  0  0  0  0
 12 18  1  1  0  0  0
 13 14  1  0  0  0  0
 14 15  1  0  0  0  0
 14 19  1  1  0  0  0
 15 16  1  0  0  0  0
 15 21  1  6  0  0  0
 16 17  1  0  0  0  0
 16 20  1  1  0  0  0
 17 22  1  6  0  0  0
 23 21  1  6  0  0  0
 23 24  1  0  0  0  0
 23 32  1  0  0  0  0
 24 25  1  0  0  0  0
 24 29  1  6  0  0  0
 25 26  1  0  0  0  0
 26 27  1  0  0  0  0
 26 31  1  6  0  0  0
 27 28  1  1  0  0  0
 27 32  1  0  0  0  0
 28 30  1  0  0  0  0
M  CHG  5   8   1  18   1  19   1  29   1  30   1
M  END
>  <CHROM.1>
-160.87192963,64.48663592,74.13295682,178.40128446,167.34113153,175.86171701
64.19629130,-172.88031648,-156.71764300,73.84170165,106.62550293,170.07318520
-58.16954664,-59.95256501,176.46885382,-47.21072035,-12.99967567,-6.26355538
-8.20889598,1.59815537,0.17009176,0.12070135

>  <Name>
2tob cryst

>  <RI>
0

>  <Rbt.Current_Directory>
/home/itssahil/PROJECTS/Mol_Feturizer/New_Systems/rnas/2tob

>  <Rbt.Executable>
rbdock ($Id: //depot/dev/client3/rdock/2013.1/src/exe/rbdock.cxx#4 $)

>  <Rbt.Library>
libRbt.so (2013.1, Build901 2013/11/27)

>  <Rbt.Parameter_File>
/export/apps/rDock/src/rDock_2013.1_src/data/scripts/dock_solv.prm

>  <Rbt.Receptor>
prm/pocket_docking_5.prm

>  <SCORE>
-34.5639

>  <SCORE.INTER>
-14.3131

>  <SCORE.INTER.CONST>
1

>  <SCORE.INTER.POLAR>
-1.97

>  <SCORE.INTER.ROT>
6

>  <SCORE.INTER.SOLV>
15.5346

>  <SCORE.INTER.VDW>
-15.7536

>  <SCORE.INTER.norm>
-0.447284

>  <SCORE.INTRA>
-20.2669

>  <SCORE.INTRA.DIHEDRAL>
-4.65137

>  <SCORE.INTRA.DIHEDRAL.0>
18.4221

>  <SCORE.INTRA.POLAR>
1.46745

>  <SCORE.INTRA.POLAR.0>
-1.57101

>  <SCORE.INTRA.REPUL>
-0.728212

>  <SCORE.INTRA.REPUL.0>
0.730195

>  <SCORE.INTRA.SOLV>
-7.65538

>  <SCORE.INTRA.SOLV.lig_0>
-127.221

>  <SCORE.INTRA.VDW>
-15.4618

>  <SCORE.INTRA.VDW.0>
10.8385

>  <SCORE.INTRA.norm>
-0.63334

>  <SCORE.RESTR>
0.0160798

>  <SCORE.RESTR.CAVITY>
0.0160798

>  <SCORE.RESTR.norm>
0.000502493

>  <SCORE.SYSTEM>
0

>  <SCORE.SYSTEM.CONST>
0

>  <SCORE.SYSTEM.DIHEDRAL>
0

>  <SCORE.SYSTEM.SOLV>
0

>  <SCORE.SYSTEM.norm>
0

>  <SCORE.heavy>
32

>  <SCORE.norm>
-1.08012

>  <RMSD>
5.784

$$$$
2tob cryst
 OpenBabel11021811463D
libRbt.so/2013.1/901 2013/11/27
 32 34  0  0  0  0  0  0  0  0999 V2000
  -12.1361   -3.1363   -7.5989 C   0  0  2  0  0  0  0  0  0  0  0  0
  -12.4217   -1.7007   -8.0284 C   0  0  1  0  0  0  0  0  0  0  0  0
  -11.1198   -1.0584   -8.5082 C   0  0  2  0  0  0  0  0  0  0  0  0
  -10.0317   -1.1585   -7.4309 C   0  0  1  0  0  0  0  0  0  0  0  0
   -9.8929   -2.6103   -6.9597 C   0  0  1  0  0  0  0  0  0  0  0  0
   -8.9428   -2.8008   -5.7888 C   0  0  0  0  0  0  0  0  0  0  0  0
  -13.3831   -1.6886   -9.0802 O   0  0  0  0  0  0  0  0  0  0  0  0
  -11.1778    0.3675   -8.9612 N   0  3  0  0  0  0  0  0  0  0  0  0
   -8.7985   -0.7065   -7.9760 O   0  0  0  0  0  0  0  0  0  0  0  0
  -11.1794   -3.1206   -6.5564 O   0  0  0  0  0  0  0  0  0  0  0  0
   -7.6336   -2.3489   -6.1196 O   0  0  0  0  0  0  0  0  0  0  0  0
  -10.7237   -5.7174   -7.5060 C   0  0  2  0  0  0  0  0  0  0  0  0
  -10.8541   -7.1941   -7.1093 C   0  0  0  0  0  0  0  0  0  0  0  0
  -12.3046   -7.5991   -6.8618 C   0  0  1  0  0  0  0  0  0  0  0  0
  -13.1093   -7.2990   -8.1189 C   0  0  2  0  0  0  0  0  0  0  0  0
  -13.1047   -5.7905   -8.3791 C   0  0  1  0  0  0  0  0  0  0  0  0
  -11.6721   -5.2919   -8.6379 C   0  0  1  0  0  0  0  0  0  0  0  0
   -9.3118   -5.4009   -7.9083 N   0  3  0  0  0  0  0  0  0  0  0  0
  -12.4021   -9.0464   -6.4821 N   0  3  0  0  0  0  0  0  0  0  0  0
  -13.9360   -5.5025   -9.4963 O   0  0  0  0  0  0  0  0  0  0  0  0
  -14.4620   -7.7695   -7.9761 O   0  0  0  0  0  0  0  0  0  0  0  0
  -11.6624   -3.8508   -8.7083 O   0  0  0  0  0  0  0  0  0  0  0  0
  -15.1717   -7.8006   -9.1835 C   0  0  2  0  0  0  0  0  0  0  0  0
  -16.5824   -8.3494   -8.9456 C   0  0  1  0  0  0  0  0  0  0  0  0
  -16.5523   -9.8613   -8.7202 C   0  0  0  0  0  0  0  0  0  0  0  0
  -15.8097  -10.5177   -9.8727 C   0  0  1  0  0  0  0  0  0  0  0  0
  -14.4056   -9.9443   -9.9533 C   0  0  1  0  0  0  0  0  0  0  0  0
  -13.6092  -10.5668  -11.0857 C   0  0  0  0  0  0  0  0  0  0  0  0
  -17.1811   -7.6825   -7.7454 N   0  3  0  0  0  0  0  0  0  0  0  0
  -12.1943  -10.0646  -10.9904 N   0  3  0  0  0  0  0  0  0  0  0  0
  -15.7494  -11.9244   -9.6842 O   0  0  0  0  0  0  0  0  0  0  0  0
  -14.4834   -8.5292  -10.1945 O   0  0  0  0  0  0  0  0  0  0  0  0
  1  2  1  0  0  0  0
  1 22  1  6  0  0  0
  1 10  1  0  0  0  0
  2  3  1  0  0  0  0
  2  7  1  6  0  0  0
  3  4  1  0  0  0  0
  3  8  1  1  0  0  0
  4  5  1  0  0  0  0
  4  9  1  6  0  0  0
  5  6  1  1  0  0  0
  5 10  1  0  0  0  0
  6 11  1  0  0  0  0
 12 13  1  0  0  0  0
 12 17  1  0  0  0  0
 12 18  1  6  0  0  0
 13 14  1  0  0  0  0
 14 15  1  0  0  0  0
 14 19  1  6  0  0  0
 15 16  1  0  0  0  0
 15 21  1  1  0  0  0
 16 17  1  0  0  0  0
 16 20  1  6  0  0  0
 17 22  1  1  0  0  0
 23 21  1  1  0  0  0
 23 24  1  0  0  0  0
 23 32  1  0  0  0  0
 24 25  1  0  0  0  0
 24 29  1  1  0  0  0
 25 26  1  0  0  0  0
 26 27  1  0  0  0  0
 26 31  1  1  0  0  0
 27 28  1  6  0  0  0
 27 32  1  0  0  0  0
 28 30  1  0  0  0  0
M  CHG  5   8   1  18   1  19   1  29   1  30   1
M  END
>  <CHROM.1>
-163.47698222,-56.70117671,64.92880343,69.65252182,-59.23506854,-141.66238162
162.80471273,56.36864038,-166.52785335,175.69406003,-63.31620585,178.39074297
66.34994013,59.78359978,-173.43899293,65.06426150,-12.53605293,-5.78099657
-8.33935225,0.98907754,-0.33849997,0.00784789

>  <Name>
2tob cryst

>  <RI>
0

>  <Rbt.Current_Directory>
/home/itssahil/PROJECTS/Mol_Feturizer/New_Systems/rnas/2tob

>  <Rbt.Executable>
rbdock ($Id: //depot/dev/client3/rdock/2013.1/src/exe/rbdock.cxx#4 $)

>  <Rbt.Library>
libRbt.so (2013.1, Build901 2013/11/27)

>  <Rbt.Parameter_File>
/export/apps/rDock/src/rDock_2013.1_src/data/scripts/dock_solv.prm

>  <Rbt.Receptor>
prm/pocket_docking_6.prm

>  <SCORE>
-47.1199

>  <SCORE.INTER>
-27.6412

>  <SCORE.INTER.CONST>
1

>  <SCORE.INTER.POLAR>
-5.19042

>  <SCORE.INTER.ROT>
6

>  <SCORE.INTER.SOLV>
17.3524

>  <SCORE.INTER.VDW>
-14.5102

>  <SCORE.INTER.norm>
-0.863787

>  <SCORE.INTRA>
-19.4787

>  <SCORE.INTRA.DIHEDRAL>
-9.20771

>  <SCORE.INTRA.DIHEDRAL.0>
18.4221

>  <SCORE.INTRA.POLAR>
1.52151

>  <SCORE.INTRA.POLAR.0>
-1.57101

>  <SCORE.INTRA.REPUL>
-0.730195

>  <SCORE.INTRA.REPUL.0>
0.730195

>  <SCORE.INTRA.SOLV>
-6.20611

>  <SCORE.INTRA.SOLV.lig_0>
-127.221

>  <SCORE.INTRA.VDW>
-13.294

>  <SCORE.INTRA.VDW.0>
10.8385

>  <SCORE.INTRA.norm>
-0.60871

>  <SCORE.RESTR>
0

>  <SCORE.RESTR.CAVITY>
0

>  <SCORE.RESTR.norm>
0

>  <SCORE.SYSTEM>
0

>  <SCORE.SYSTEM.CONST>
0

>  <SCORE.SYSTEM.DIHEDRAL>
0

>  <SCORE.SYSTEM.SOLV>
0

>  <SCORE.SYSTEM.norm>
0

>  <SCORE.heavy>
32

>  <SCORE.norm>
-1.4725

>  <RMSD>
5.788

$$$$
2tob cryst
 OpenBabel11021811463D
libRbt.so/2013.1/901 2013/11/27
 32 34  0  0  0  0  0  0  0  0999 V2000
   -4.2157    0.0338  -11.3538 C   0  0  2  0  0  0  0  0  0  0  0  0
   -3.5921   -1.3472  -11.1781 C   0  0  1  0  0  0  0  0  0  0  0  0
   -2.1001   -1.1840  -10.8866 C   0  0  2  0  0  0  0  0  0  0  0  0
   -1.4177   -0.3510  -11.9797 C   0  0  1  0  0  0  0  0  0  0  0  0
   -2.1766    0.9644  -12.1863 C   0  0  1  0  0  0  0  0  0  0  0  0
   -1.6709    1.8036  -13.3483 C   0  0  0  0  0  0  0  0  0  0  0  0
   -4.2231   -2.0333  -10.1001 O   0  0  0  0  0  0  0  0  0  0  0  0
   -1.2919   -2.4301  -10.6969 N   0  3  0  0  0  0  0  0  0  0  0  0
   -0.0782   -0.0804  -11.5862 O   0  0  0  0  0  0  0  0  0  0  0  0
   -3.5718    0.6936  -12.4274 O   0  0  0  0  0  0  0  0  0  0  0  0
   -2.6704    2.7188  -13.7854 O   0  0  0  0  0  0  0  0  0  0  0  0
   -5.9740    2.2117  -10.3324 C   0  0  2  0  0  0  0  0  0  0  0  0
   -7.4051    2.5256   -9.8759 C   0  0  0  0  0  0  0  0  0  0  0  0
   -8.2319    1.2612   -9.6587 C   0  0  1  0  0  0  0  0  0  0  0  0
   -7.5142    0.3859   -8.6404 C   0  0  2  0  0  0  0  0  0  0  0  0
   -6.1636   -0.0556   -9.2097 C   0  0  1  0  0  0  0  0  0  0  0  0
   -5.2602    1.1640   -9.4636 C   0  0  1  0  0  0  0  0  0  0  0  0
   -5.1440    3.4627  -10.3677 N   0  3  0  0  0  0  0  0  0  0  0  0
   -9.6218    1.5978   -9.2082 N   0  3  0  0  0  0  0  0  0  0  0  0
   -5.5383   -0.9507   -8.2987 O   0  0  0  0  0  0  0  0  0  0  0  0
   -8.3118   -0.7672   -8.3155 O   0  0  0  0  0  0  0  0  0  0  0  0
   -4.0652    0.7498  -10.1579 O   0  0  0  0  0  0  0  0  0  0  0  0
   -9.3585   -0.4884   -7.4270 C   0  0  2  0  0  0  0  0  0  0  0  0
   -9.4631   -1.6010   -6.3786 C   0  0  1  0  0  0  0  0  0  0  0  0
  -10.0753   -2.8662   -6.9802 C   0  0  0  0  0  0  0  0  0  0  0  0
  -11.3928   -2.5077   -7.6486 C   0  0  1  0  0  0  0  0  0  0  0  0
  -11.1417   -1.4559   -8.7151 C   0  0  1  0  0  0  0  0  0  0  0  0
  -12.4235   -1.0593   -9.4249 C   0  0  0  0  0  0  0  0  0  0  0  0
   -8.0983   -1.9163   -5.8481 N   0  3  0  0  0  0  0  0  0  0  0  0
  -13.3068   -0.3550   -8.4315 N   0  3  0  0  0  0  0  0  0  0  0  0
  -11.9800   -3.6615   -8.2335 O   0  0  0  0  0  0  0  0  0  0  0  0
  -10.5949   -0.2770   -8.1003 O   0  0  0  0  0  0  0  0  0  0  0  0
  1  2  1  0  0  0  0
  1 22  1  1  0  0  0
  1 10  1  0  0  0  0
  2  3  1  0  0  0  0
  2  7  1  1  0  0  0
  3  4  1  0  0  0  0
  3  8  1  6  0  0  0
  4  5  1  0  0  0  0
  4  9  1  1  0  0  0
  5  6  1  6  0  0  0
  5 10  1  0  0  0  0
  6 11  1  0  0  0  0
 12 13  1  0  0  0  0
 12 17  1  0  0  0  0
 12 18  1  1  0  0  0
 13 14  1  0  0  0  0
 14 15  1  0  0  0  0
 14 19  1  1  0  0  0
 15 16  1  0  0  0  0
 15 21  1  6  0  0  0
 16 17  1  0  0  0  0
 16 20  1  1  0  0  0
 17 22  1  6  0  0  0
 23 21  1  6  0  0  0
 23 24  1  0  0  0  0
 23 32  1  0  0  0  0
 24 25  1  0  0  0  0
 24 29  1  6  0  0  0
 25 26  1  0  0  0  0
 26 27  1  0  0  0  0
 26 31  1  6  0  0  0
 27 28  1  1  0  0  0
 27 32  1  0  0  0  0
 28 30  1  0  0  0  0
M  CHG  5   8   1  18   1  19   1  29   1  30   1
M  END
>  <CHROM.1>
-118.01188021,-158.36162962,98.92700599,68.67424370,158.81236425,-176.87148360
-39.87374819,-70.66877418,-77.78836365,172.22215533,-67.00935363,-137.75154081
-161.95189566,68.69674736,66.59867481,47.52240336,-6.48670101,-0.19082812
-9.69214190,0.35370274,0.29532507,-0.47367883

>  <Name>
2tob cryst

>  <RI>
0

>  <Rbt.Current_Directory>
/home/itssahil/PROJECTS/Mol_Feturizer/New_Systems/rnas/2tob

>  <Rbt.Executable>
rbdock ($Id: //depot/dev/client3/rdock/2013.1/src/exe/rbdock.cxx#4 $)

>  <Rbt.Library>
libRbt.so (2013.1, Build901 2013/11/27)

>  <Rbt.Parameter_File>
/export/apps/rDock/src/rDock_2013.1_src/data/scripts/dock_solv.prm

>  <Rbt.Receptor>
prm/blind_docking_60.prm

>  <SCORE>
4.60359

>  <SCORE.INTER>
7.03808

>  <SCORE.INTER.CONST>
1

>  <SCORE.INTER.POLAR>
-4.33369

>  <SCORE.INTER.ROT>
6

>  <SCORE.INTER.SOLV>
43.7045

>  <SCORE.INTER.VDW>
-3.03048

>  <SCORE.INTER.norm>
0.21994

>  <SCORE.INTRA>
-12.2331

>  <SCORE.INTRA.DIHEDRAL>
5.84842

>  <SCORE.INTRA.DIHEDRAL.0>
18.4221

>  <SCORE.INTRA.POLAR>
-0.0687988

>  <SCORE.INTRA.POLAR.0>
-1.57101

>  <SCORE.INTRA.REPUL>
-0.730195

>  <SCORE.INTRA.REPUL.0>
0.730195

>  <SCORE.INTRA.SOLV>
-1.13601

>  <SCORE.INTRA.SOLV.lig_0>
-127.221

>  <SCORE.INTRA.VDW>
-10.7044

>  <SCORE.INTRA.VDW.0>
10.8385

>  <SCORE.INTRA.norm>
-0.382283

>  <SCORE.RESTR>
9.79858

>  <SCORE.RESTR.CAVITY>
9.79858

>  <SCORE.RESTR.norm>
0.306205

>  <SCORE.SYSTEM>
0

>  <SCORE.SYSTEM.CONST>
0

>  <SCORE.SYSTEM.DIHEDRAL>
0

>  <SCORE.SYSTEM.SOLV>
0

>  <SCORE.SYSTEM.norm>
0

>  <SCORE.heavy>
32

>  <SCORE.norm>
0.143862

>  <RMSD>
5.909

$$$$
2tob cryst
 OpenBabel11021811463D
libRbt.so/2013.1/901 2013/11/27
 32 34  0  0  0  0  0  0  0  0999 V2000
   -4.0681   -0.3310  -11.1853 C   0  0  2  0  0  0  0  0  0  0  0  0
   -3.0721   -1.4827  -11.0928 C   0  0  1  0  0  0  0  0  0  0  0  0
   -1.6626   -0.9088  -10.9461 C   0  0  2  0  0  0  0  0  0  0  0  0
   -1.3486    0.0673  -12.0877 C   0  0  1  0  0  0  0  0  0  0  0  0
   -2.4587    1.1182  -12.1987 C   0  0  1  0  0  0  0  0  0  0  0  0
   -2.3221    2.0503  -13.3914 C   0  0  0  0  0  0  0  0  0  0  0  0
   -3.3792   -2.3036   -9.9691 O   0  0  0  0  0  0  0  0  0  0  0  0
   -0.5263   -1.8795  -10.8558 N   0  3  0  0  0  0  0  0  0  0  0  0
   -0.1046    0.7035  -11.8229 O   0  0  0  0  0  0  0  0  0  0  0  0
   -3.7410    0.4682  -12.3063 O   0  0  0  0  0  0  0  0  0  0  0  0
   -3.5695    2.6634  -13.7011 O   0  0  0  0  0  0  0  0  0  0  0  0
   -5.7943    2.0072  -10.2616 C   0  0  2  0  0  0  0  0  0  0  0  0
   -7.2485    2.3792   -9.9422 C   0  0  0  0  0  0  0  0  0  0  0  0
   -8.1656    1.1594   -9.9245 C   0  0  1  0  0  0  0  0  0  0  0  0
   -7.6219    0.1632   -8.9095 C   0  0  2  0  0  0  0  0  0  0  0  0
   -6.2417   -0.3218   -9.3601 C   0  0  1  0  0  0  0  0  0  0  0  0
   -5.2470    0.8512   -9.4094 C   0  0  1  0  0  0  0  0  0  0  0  0
   -4.8959    3.1997  -10.0998 N   0  3  0  0  0  0  0  0  0  0  0  0
   -9.5769    1.5516   -9.6046 N   0  3  0  0  0  0  0  0  0  0  0  0
   -5.7784   -1.3234   -8.4633 O   0  0  0  0  0  0  0  0  0  0  0  0
   -8.5163   -0.9561   -8.7727 O   0  0  0  0  0  0  0  0  0  0  0  0
   -4.0050    0.4133   -9.9988 O   0  0  0  0  0  0  0  0  0  0  0  0
   -9.2100   -0.9697   -7.5556 C   0  0  2  0  0  0  0  0  0  0  0  0
   -9.2565   -2.3959   -6.9975 C   0  0  1  0  0  0  0  0  0  0  0  0
  -10.2506   -3.2578   -7.7762 C   0  0  0  0  0  0  0  0  0  0  0  0
  -11.5967   -2.5522   -7.8084 C   0  0  1  0  0  0  0  0  0  0  0  0
  -11.4294   -1.1865   -8.4514 C   0  0  1  0  0  0  0  0  0  0  0  0
  -12.7451   -0.4324   -8.5179 C   0  0  0  0  0  0  0  0  0  0  0  0
   -7.8936   -3.0109   -7.0861 N   0  3  0  0  0  0  0  0  0  0  0  0
  -12.4352    1.0306   -8.6805 N   0  3  0  0  0  0  0  0  0  0  0  0
  -12.5401   -3.3212   -8.5409 O   0  0  0  0  0  0  0  0  0  0  0  0
  -10.5109   -0.4031   -7.6706 O   0  0  0  0  0  0  0  0  0  0  0  0
  1  2  1  0  0  0  0
  1 22  1  1  0  0  0
  1 10  1  0  0  0  0
  2  3  1  0  0  0  0
  2  7  1  1  0  0  0
  3  4  1  0  0  0  0
  3  8  1  6  0  0  0
  4  5  1  0  0  0  0
  4  9  1  1  0  0  0
  5  6  1  6  0  0  0
  5 10  1  0  0  0  0
  6 11  1  0  0  0  0
 12 13  1  0  0  0  0
 12 17  1  0  0  0  0
 12 18  1  1  0  0  0
 13 14  1  0  0  0  0
 14 15  1  0  0  0  0
 14 19  1  1  0  0  0
 15 16  1  0  0  0  0
 15 21  1  6  0  0  0
 16 17  1  0  0  0  0
 16 20  1  1  0  0  0
 17 22  1  6  0  0  0
 23 21  1  6  0  0  0
 23 24  1  0  0  0  0
 23 32  1  0  0  0  0
 24 25  1  0  0  0  0
 24 29  1  6  0  0  0
 25 26  1  0  0  0  0
 26 27  1  0  0  0  0
 26 31  1  6  0  0  0
 27 28  1  1  0  0  0
 27 32  1  0  0  0  0
 28 30  1  0  0  0  0
M  CHG  5   8   1  18   1  19   1  29   1  30   1
M  END
>  <CHROM.1>
-137.43427392,-174.71252533,-170.72929571,-58.41082655,159.73611463,-44.05430032
-163.68347569,56.82292838,-108.26387851,-67.67234288,-74.09889522,-138.08560917
12.29917084,-177.44089141,159.69511157,-46.66224712,-6.45928220,-0.22066020
-9.79477340,-0.32572666,-0.27385413,2.69281161

>  <Name>
2tob cryst

>  <RI>
0

>  <Rbt.Current_Directory>
/home/itssahil/PROJECTS/Mol_Feturizer/New_Systems/rnas/2tob

>  <Rbt.Executable>
rbdock ($Id: //depot/dev/client3/rdock/2013.1/src/exe/rbdock.cxx#4 $)

>  <Rbt.Library>
libRbt.so (2013.1, Build901 2013/11/27)

>  <Rbt.Parameter_File>
/export/apps/rDock/src/rDock_2013.1_src/data/scripts/dock_solv.prm

>  <Rbt.Receptor>
prm/blind_docking_60.prm

>  <SCORE>
3.52788

>  <SCORE.INTER>
4.80016

>  <SCORE.INTER.CONST>
1

>  <SCORE.INTER.POLAR>
-5.56919

>  <SCORE.INTER.ROT>
6

>  <SCORE.INTER.SOLV>
46.6004

>  <SCORE.INTER.VDW>
-1.36938

>  <SCORE.INTER.norm>
0.150005

>  <SCORE.INTRA>
-10.9161

>  <SCORE.INTRA.DIHEDRAL>
9.46856

>  <SCORE.INTRA.DIHEDRAL.0>
18.4221

>  <SCORE.INTRA.POLAR>
0.283771

>  <SCORE.INTRA.POLAR.0>
-1.57101

>  <SCORE.INTRA.REPUL>
-0.730195

>  <SCORE.INTRA.REPUL.0>
0.730195

>  <SCORE.INTRA.SOLV>
2.36667

>  <SCORE.INTRA.SOLV.lig_0>
-127.221

>  <SCORE.INTRA.VDW>
-14.1476

>  <SCORE.INTRA.VDW.0>
10.8385

>  <SCORE.INTRA.norm>
-0.341128

>  <SCORE.RESTR>
9.64382

>  <SCORE.RESTR.CAVITY>
9.64382

>  <SCORE.RESTR.norm>
0.301369

>  <SCORE.SYSTEM>
0

>  <SCORE.SYSTEM.CONST>
0

>  <SCORE.SYSTEM.DIHEDRAL>
0

>  <SCORE.SYSTEM.SOLV>
0

>  <SCORE.SYSTEM.norm>
0

>  <SCORE.heavy>
32

>  <SCORE.norm>
0.110246

>  <RMSD>
5.947

$$$$
2tob cryst
 OpenBabel11021811463D
libRbt.so/2013.1/901 2013/11/27
 32 34  0  0  0  0  0  0  0  0999 V2000
   -2.6353    1.4824  -10.9813 C   0  0  2  0  0  0  0  0  0  0  0  0
   -2.5346    2.2572  -12.2915 C   0  0  1  0  0  0  0  0  0  0  0  0
   -2.4664    1.2634  -13.4513 C   0  0  2  0  0  0  0  0  0  0  0  0
   -1.3155    0.2684  -13.2514 C   0  0  1  0  0  0  0  0  0  0  0  0
   -1.4137   -0.3742  -11.8635 C   0  0  1  0  0  0  0  0  0  0  0  0
   -0.2399   -1.2701  -11.5034 C   0  0  0  0  0  0  0  0  0  0  0  0
   -3.6709    3.1033  -12.4459 O   0  0  0  0  0  0  0  0  0  0  0  0
   -2.3456    1.8223  -14.8351 N   0  3  0  0  0  0  0  0  0  0  0  0
   -1.3923   -0.7352  -14.2560 O   0  0  0  0  0  0  0  0  0  0  0  0
   -1.4978    0.6504  -10.8529 O   0  0  0  0  0  0  0  0  0  0  0  0
   -0.5132   -2.0120  -10.3191 O   0  0  0  0  0  0  0  0  0  0  0  0
   -5.4441    2.4243  -10.4757 C   0  0  2  0  0  0  0  0  0  0  0  0
   -6.7508    2.7814   -9.7545 C   0  0  0  0  0  0  0  0  0  0  0  0
   -7.7649    1.6417   -9.7997 C   0  0  1  0  0  0  0  0  0  0  0  0
   -7.1248    0.4034   -9.1875 C   0  0  2  0  0  0  0  0  0  0  0  0
   -5.9297   -0.0277  -10.0414 C   0  0  1  0  0  0  0  0  0  0  0  0
   -4.8517    1.0703  -10.0543 C   0  0  1  0  0  0  0  0  0  0  0  0
   -4.4130    3.4951  -10.2624 N   0  3  0  0  0  0  0  0  0  0  0  0
   -9.0277    2.0161   -9.0833 N   0  3  0  0  0  0  0  0  0  0  0  0
   -5.3932   -1.2387   -9.5237 O   0  0  0  0  0  0  0  0  0  0  0  0
   -8.0811   -0.6689   -9.1027 O   0  0  0  0  0  0  0  0  0  0  0  0
   -3.8154    0.7255  -10.9971 O   0  0  0  0  0  0  0  0  0  0  0  0
   -8.7473   -0.7254   -7.8716 C   0  0  2  0  0  0  0  0  0  0  0  0
   -8.4281   -2.0475   -7.1658 C   0  0  1  0  0  0  0  0  0  0  0  0
   -9.1702   -3.2126   -7.8210 C   0  0  0  0  0  0  0  0  0  0  0  0
  -10.6518   -2.8789   -7.8886 C   0  0  1  0  0  0  0  0  0  0  0  0
  -10.8388   -1.5936   -8.6758 C   0  0  1  0  0  0  0  0  0  0  0  0
  -12.3034   -1.2094   -8.7834 C   0  0  0  0  0  0  0  0  0  0  0  0
   -6.9534   -2.3029   -7.2284 N   0  3  0  0  0  0  0  0  0  0  0  0
  -12.3916    0.2923   -8.7855 N   0  3  0  0  0  0  0  0  0  0  0  0
  -11.3686   -3.9368   -8.5091 O   0  0  0  0  0  0  0  0  0  0  0  0
  -10.1498   -0.5229   -8.0081 O   0  0  0  0  0  0  0  0  0  0  0  0
  1  2  1  0  0  0  0
  1 22  1  6  0  0  0
  1 10  1  0  0  0  0
  2  3  1  0  0  0  0
  2  7  1  6  0  0  0
  3  4  1  0  0  0  0
  3  8  1  6  0  0  0
  4  5  1  0  0  0  0
  4  9  1  6  0  0  0
  5  6  1  1  0  0  0
  5 10  1  0  0  0  0
  6 11  1  0  0  0  0
 12 13  1  0  0  0  0
 12 17  1  0  0  0  0
 12 18  1  1  0  0  0
 13 14  1  0  0  0  0
 14 15  1  0  0  0  0
 14 19  1  1  0  0  0
 15 16  1  0  0  0  0
 15 21  1  6  0  0  0
 16 17  1  0  0  0  0
 16 20  1  1  0  0  0
 17 22  1  6  0  0  0
 23 21  1  6  0  0  0
 23 24  1  0  0  0  0
 23 32  1  0  0  0  0
 24 25  1  0  0  0  0
 24 29  1  6  0  0  0
 25 26  1  0  0  0  0
 26 27  1  0  0  0  0
 26 31  1  6  0  0  0
 27 28  1  1  0  0  0
 27 32  1  0  0  0  0
 28 30  1  0  0  0  0
M  CHG  5   8   1  18   1  19   1  29   1  30   1
M  END
>  <CHROM.1>
-113.76307833,-68.86298110,77.15068549,-170.05614956,-169.51315498,68.24757014
111.40201010,71.68985156,-93.12693642,-78.73149270,69.64433851,-117.33166936
-175.05145863,-55.07898524,146.68918064,-43.43465241,-5.91812290,0.02601174
-10.17409755,0.36009217,0.35415648,-0.34792148

>  <Name>
2tob cryst

>  <RI>
0

>  <Rbt.Current_Directory>
/home/itssahil/PROJECTS/Mol_Feturizer/New_Systems/rnas/2tob

>  <Rbt.Executable>
rbdock ($Id: //depot/dev/client3/rdock/2013.1/src/exe/rbdock.cxx#4 $)

>  <Rbt.Library>
libRbt.so (2013.1, Build901 2013/11/27)

>  <Rbt.Parameter_File>
/export/apps/rDock/src/rDock_2013.1_src/data/scripts/dock_solv.prm

>  <Rbt.Receptor>
prm/blind_docking_60.prm

>  <SCORE>
-36.8039

>  <SCORE.INTER>
-41.8382

>  <SCORE.INTER.CONST>
1

>  <SCORE.INTER.POLAR>
-7.19813

>  <SCORE.INTER.ROT>
6

>  <SCORE.INTER.SOLV>
37.9446

>  <SCORE.INTER.VDW>
-24.1465

>  <SCORE.INTER.norm>
-1.30744

>  <SCORE.INTRA>
-8.91383

>  <SCORE.INTRA.DIHEDRAL>
11.8303

>  <SCORE.INTRA.DIHEDRAL.0>
18.4221

>  <SCORE.INTRA.POLAR>
-0.891459

>  <SCORE.INTRA.POLAR.0>
-1.57101

>  <SCORE.INTRA.REPUL>
-0.730195

>  <SCORE.INTRA.REPUL.0>
0.730195

>  <SCORE.INTRA.SOLV>
1.68607

>  <SCORE.INTRA.SOLV.lig_0>
-127.221

>  <SCORE.INTRA.VDW>
-8.99006

>  <SCORE.INTRA.VDW.0>
10.8385

>  <SCORE.INTRA.norm>
-0.278557

>  <SCORE.RESTR>
13.9481

>  <SCORE.RESTR.CAVITY>
13.9481

>  <SCORE.RESTR.norm>
0.435878

>  <SCORE.SYSTEM>
0

>  <SCORE.SYSTEM.CONST>
0

>  <SCORE.SYSTEM.DIHEDRAL>
0

>  <SCORE.SYSTEM.SOLV>
0

>  <SCORE.SYSTEM.norm>
0

>  <SCORE.heavy>
32

>  <SCORE.norm>
-1.15012

>  <RMSD>
5.999

$$$$
2tob cryst
 OpenBabel11021811463D
libRbt.so/2013.1/901 2013/11/27
 32 34  0  0  0  0  0  0  0  0999 V2000
   -3.8323   -0.2948  -11.1692 C   0  0  2  0  0  0  0  0  0  0  0  0
   -2.4760   -0.9371  -11.4429 C   0  0  1  0  0  0  0  0  0  0  0  0
   -1.3848    0.1221  -11.2848 C   0  0  2  0  0  0  0  0  0  0  0  0
   -1.6672    1.3354  -12.1808 C   0  0  1  0  0  0  0  0  0  0  0  0
   -3.0925    1.8445  -11.9395 C   0  0  1  0  0  0  0  0  0  0  0  0
   -3.5285    2.9558  -12.8802 C   0  0  0  0  0  0  0  0  0  0  0  0
   -2.2490   -2.0054  -10.5274 O   0  0  0  0  0  0  0  0  0  0  0  0
    0.0305   -0.3008  -11.5291 N   0  3  0  0  0  0  0  0  0  0  0  0
   -0.7293    2.3610  -11.8793 O   0  0  0  0  0  0  0  0  0  0  0  0
   -4.0324    0.7617  -12.0891 O   0  0  0  0  0  0  0  0  0  0  0  0
   -3.4453    4.2245  -12.2389 O   0  0  0  0  0  0  0  0  0  0  0  0
   -5.4214    1.9800  -10.1297 C   0  0  2  0  0  0  0  0  0  0  0  0
   -6.8514    2.4914   -9.9091 C   0  0  0  0  0  0  0  0  0  0  0  0
   -7.8915    1.3873  -10.0780 C   0  0  1  0  0  0  0  0  0  0  0  0
   -7.5595    0.2610   -9.1089 C   0  0  2  0  0  0  0  0  0  0  0  0
   -6.2021   -0.3438   -9.4760 C   0  0  1  0  0  0  0  0  0  0  0  0
   -5.0872    0.7074   -9.3356 C   0  0  1  0  0  0  0  0  0  0  0  0
   -4.4202    3.0455   -9.7867 N   0  3  0  0  0  0  0  0  0  0  0  0
   -9.2770    1.9138   -9.8514 N   0  3  0  0  0  0  0  0  0  0  0  0
   -5.9386   -1.4573   -8.6317 O   0  0  0  0  0  0  0  0  0  0  0  0
   -8.5780   -0.7552   -9.1489 O   0  0  0  0  0  0  0  0  0  0  0  0
   -3.8479    0.1756   -9.8486 O   0  0  0  0  0  0  0  0  0  0  0  0
   -9.4793   -0.6833   -8.0788 C   0  0  2  0  0  0  0  0  0  0  0  0
   -9.4533   -1.9942   -7.2858 C   0  0  1  0  0  0  0  0  0  0  0  0
  -10.1712   -3.1097   -8.0459 C   0  0  0  0  0  0  0  0  0  0  0  0
  -11.5641   -2.6324   -8.4241 C   0  0  1  0  0  0  0  0  0  0  0  0
  -11.4491   -1.3754   -9.2687 C   0  0  1  0  0  0  0  0  0  0  0  0
  -12.8119   -0.8516   -9.6841 C   0  0  0  0  0  0  0  0  0  0  0  0
   -8.0327   -2.3995   -7.0385 N   0  3  0  0  0  0  0  0  0  0  0  0
  -13.5040   -0.3290   -8.4549 N   0  3  0  0  0  0  0  0  0  0  0  0
  -12.2527   -3.6423   -9.1480 O   0  0  0  0  0  0  0  0  0  0  0  0
  -10.7956   -0.3478   -8.5046 O   0  0  0  0  0  0  0  0  0  0  0  0
  1  2  1  0  0  0  0
  1 22  1  1  0  0  0
  1 10  1  0  0  0  0
  2  3  1  0  0  0  0
  2  7  1  1  0  0  0
  3  4  1  0  0  0  0
  3  8  1  6  0  0  0
  4  5  1  0  0  0  0
  4  9  1  1  0  0  0
  5  6  1  6  0  0  0
  5 10  1  0  0  0  0
  6 11  1  0  0  0  0
 12 13  1  0  0  0  0
 12 17  1  0  0  0  0
 12 18  1  1  0  0  0
 13 14  1  0  0  0  0
 14 15  1  0  0  0  0
 14 19  1  1  0  0  0
 15 16  1  0  0  0  0
 15 21  1  6  0  0  0
 16 17  1  0  0  0  0
 16 20  1  1  0  0  0
 17 22  1  6  0  0  0
 23 21  1  6  0  0  0
 23 24  1  0  0  0  0
 23 32  1  0  0  0  0
 24 25  1  0  0  0  0
 24 29  1  6  0  0  0
 25 26  1  0  0  0  0
 26 27  1  0  0  0  0
 26 31  1  6  0  0  0
 27 28  1  1  0  0  0
 27 32  1  0  0  0  0
 28 30  1  0  0  0  0
M  CHG  5   8   1  18   1  19   1  29   1  30   1
M  END
>  <CHROM.1>
-174.14237984,-177.61749607,-53.16521809,-55.49033976,-101.22905009,179.70635552
-83.04390830,1.83931713,-101.31438025,-176.53430048,-65.33692208,-120.83900864
-41.28905050,-46.01188544,69.03921073,49.96037730,-6.44547364,0.07361048
-9.94545845,-0.37158881,-0.20632226,2.80185742

>  <Name>
2tob cryst

>  <RI>
0

>  <Rbt.Current_Directory>
/home/itssahil/PROJECTS/Mol_Feturizer/New_Systems/rnas/2tob

>  <Rbt.Executable>
rbdock ($Id: //depot/dev/client3/rdock/2013.1/src/exe/rbdock.cxx#4 $)

>  <Rbt.Library>
libRbt.so (2013.1, Build901 2013/11/27)

>  <Rbt.Parameter_File>
/export/apps/rDock/src/rDock_2013.1_src/data/scripts/dock_solv.prm

>  <Rbt.Receptor>
prm/blind_docking_60.prm

>  <SCORE>
-26.399

>  <SCORE.INTER>
-19.0955

>  <SCORE.INTER.CONST>
1

>  <SCORE.INTER.POLAR>
-4.91586

>  <SCORE.INTER.ROT>
6

>  <SCORE.INTER.SOLV>
33.3873

>  <SCORE.INTER.VDW>
-15.0733

>  <SCORE.INTER.norm>
-0.596736

>  <SCORE.INTRA>
-17.4771

>  <SCORE.INTRA.DIHEDRAL>
6.08967

>  <SCORE.INTRA.DIHEDRAL.0>
18.4221

>  <SCORE.INTRA.POLAR>
-1.6983

>  <SCORE.INTRA.POLAR.0>
-1.57101

>  <SCORE.INTRA.REPUL>
-0.730195

>  <SCORE.INTRA.REPUL.0>
0.730195

>  <SCORE.INTRA.SOLV>
1.91505

>  <SCORE.INTRA.SOLV.lig_0>
-127.221

>  <SCORE.INTRA.VDW>
-12.0542

>  <SCORE.INTRA.VDW.0>
10.8385

>  <SCORE.INTRA.norm>
-0.546158

>  <SCORE.RESTR>
10.1736

>  <SCORE.RESTR.CAVITY>
10.1736

>  <SCORE.RESTR.norm>
0.317925

>  <SCORE.SYSTEM>
0

>  <SCORE.SYSTEM.CONST>
0

>  <SCORE.SYSTEM.DIHEDRAL>
0

>  <SCORE.SYSTEM.SOLV>
0

>  <SCORE.SYSTEM.norm>
0

>  <SCORE.heavy>
32

>  <SCORE.norm>
-0.824969

>  <RMSD>
6.027

$$$$
2tob cryst
 OpenBabel11021811463D
libRbt.so/2013.1/901 2013/11/27
 32 34  0  0  0  0  0  0  0  0999 V2000
   -3.8321   -0.1704  -11.2133 C   0  0  2  0  0  0  0  0  0  0  0  0
   -2.5006   -0.8523  -11.5118 C   0  0  1  0  0  0  0  0  0  0  0  0
   -1.3668    0.1415  -11.2581 C   0  0  2  0  0  0  0  0  0  0  0  0
   -1.5774    1.4288  -12.0662 C   0  0  1  0  0  0  0  0  0  0  0  0
   -2.9832    1.9835  -11.8110 C   0  0  1  0  0  0  0  0  0  0  0  0
   -3.3510    3.1795  -12.6737 C   0  0  0  0  0  0  0  0  0  0  0  0
   -2.3391   -1.9940  -10.6744 O   0  0  0  0  0  0  0  0  0  0  0  0
    0.0329   -0.3266  -11.5102 N   0  3  0  0  0  0  0  0  0  0  0  0
   -0.6010    2.3856  -11.6745 O   0  0  0  0  0  0  0  0  0  0  0  0
   -3.9672    0.9587  -12.0555 O   0  0  0  0  0  0  0  0  0  0  0  0
   -3.4765    2.7992  -14.0403 O   0  0  0  0  0  0  0  0  0  0  0  0
   -5.3811    2.0527  -10.0852 C   0  0  2  0  0  0  0  0  0  0  0  0
   -6.7977    2.5926   -9.8462 C   0  0  0  0  0  0  0  0  0  0  0  0
   -7.8651    1.5202  -10.0459 C   0  0  1  0  0  0  0  0  0  0  0  0
   -7.5598    0.3574   -9.1117 C   0  0  2  0  0  0  0  0  0  0  0  0
   -6.2184   -0.2696   -9.4999 C   0  0  1  0  0  0  0  0  0  0  0  0
   -5.0774    0.7489   -9.3304 C   0  0  1  0  0  0  0  0  0  0  0  0
   -4.3533    3.0823   -9.7127 N   0  3  0  0  0  0  0  0  0  0  0  0
   -9.2368    2.0739   -9.8005 N   0  3  0  0  0  0  0  0  0  0  0  0
   -5.9814   -1.4142   -8.6899 O   0  0  0  0  0  0  0  0  0  0  0  0
   -8.6033   -0.6315   -9.1799 O   0  0  0  0  0  0  0  0  0  0  0  0
   -3.8525    0.2022   -9.8619 O   0  0  0  0  0  0  0  0  0  0  0  0
   -9.4919   -0.5797   -8.0981 C   0  0  2  0  0  0  0  0  0  0  0  0
   -9.4157   -1.8839   -7.2973 C   0  0  1  0  0  0  0  0  0  0  0  0
  -10.1098   -3.0255   -8.0406 C   0  0  0  0  0  0  0  0  0  0  0  0
  -11.5214   -2.5929   -8.4027 C   0  0  1  0  0  0  0  0  0  0  0  0
  -11.4557   -1.3387   -9.2567 C   0  0  1  0  0  0  0  0  0  0  0  0
  -12.8391   -0.8590   -9.6567 C   0  0  0  0  0  0  0  0  0  0  0  0
   -7.9802   -2.2445   -7.0670 N   0  3  0  0  0  0  0  0  0  0  0  0
  -13.5341   -0.3591   -8.4197 N   0  3  0  0  0  0  0  0  0  0  0  0
  -12.1888   -3.6279   -9.1108 O   0  0  0  0  0  0  0  0  0  0  0  0
  -10.8233   -0.2868   -8.5081 O   0  0  0  0  0  0  0  0  0  0  0  0
  1  2  1  0  0  0  0
  1 22  1  1  0  0  0
  1 10  1  0  0  0  0
  2  3  1  0  0  0  0
  2  7  1  1  0  0  0
  3  4  1  0  0  0  0
  3  8  1  6  0  0  0
  4  5  1  0  0  0  0
  4  9  1  1  0  0  0
  5  6  1  6  0  0  0
  5 10  1  0  0  0  0
  6 11  1  0  0  0  0
 12 13  1  0  0  0  0
 12 17  1  0  0  0  0
 12 18  1  1  0  0  0
 13 14  1  0  0  0  0
 14 15  1  0  0  0  0
 14 19  1  1  0  0  0
 15 16  1  0  0  0  0
 15 21  1  6  0  0  0
 16 17  1  0  0  0  0
 16 20  1  1  0  0  0
 17 22  1  6  0  0  0
 23 21  1  6  0  0  0
 23 24  1  0  0  0  0
 23 32  1  0  0  0  0
 24 25  1  0  0  0  0
 24 29  1  6  0  0  0
 25 26  1  0  0  0  0
 26 27  1  0  0  0  0
 26 31  1  6  0  0  0
 27 28  1  1  0  0  0
 27 32  1  0  0  0  0
 28 30  1  0  0  0  0
M  CHG  5   8   1  18   1  19   1  29   1  30   1
M  END
>  <CHROM.1>
-174.03627518,-170.25023217,73.12141744,-51.65178211,67.74996172,59.46003763
155.49916296,-13.87230187,-102.01929543,-171.48653942,-62.40612268,-116.77164643
79.02903713,-47.33570242,68.60438683,174.84347262,-6.42359700,0.09129795
-9.98772167,-0.37298092,-0.20176641,2.74359501

>  <Name>
2tob cryst

>  <RI>
0

>  <Rbt.Current_Directory>
/home/itssahil/PROJECTS/Mol_Feturizer/New_Systems/rnas/2tob

>  <Rbt.Executable>
rbdock ($Id: //depot/dev/client3/rdock/2013.1/src/exe/rbdock.cxx#4 $)

>  <Rbt.Library>
libRbt.so (2013.1, Build901 2013/11/27)

>  <Rbt.Parameter_File>
/export/apps/rDock/src/rDock_2013.1_src/data/scripts/dock_solv.prm

>  <Rbt.Receptor>
prm/blind_docking_60.prm

>  <SCORE>
-24.7741

>  <SCORE.INTER>
-20.7994

>  <SCORE.INTER.CONST>
1

>  <SCORE.INTER.POLAR>
-5.12989

>  <SCORE.INTER.ROT>
6

>  <SCORE.INTER.SOLV>
34.9587

>  <SCORE.INTER.VDW>
-16.0195

>  <SCORE.INTER.norm>
-0.64998

>  <SCORE.INTRA>
-14.4292

>  <SCORE.INTRA.DIHEDRAL>
2.78036

>  <SCORE.INTRA.DIHEDRAL.0>
18.4221

>  <SCORE.INTRA.POLAR>
-0.659278

>  <SCORE.INTRA.POLAR.0>
-1.57101

>  <SCORE.INTRA.REPUL>
-0.730195

>  <SCORE.INTRA.REPUL.0>
0.730195

>  <SCORE.INTRA.SOLV>
0.353852

>  <SCORE.INTRA.SOLV.lig_0>
-127.221

>  <SCORE.INTRA.VDW>
-10.1038

>  <SCORE.INTRA.VDW.0>
10.8385

>  <SCORE.INTRA.norm>
-0.450912

>  <SCORE.RESTR>
10.4545

>  <SCORE.RESTR.CAVITY>
10.4545

>  <SCORE.RESTR.norm>
0.326702

>  <SCORE.SYSTEM>
0

>  <SCORE.SYSTEM.CONST>
0

>  <SCORE.SYSTEM.DIHEDRAL>
0

>  <SCORE.SYSTEM.SOLV>
0

>  <SCORE.SYSTEM.norm>
0

>  <SCORE.heavy>
32

>  <SCORE.norm>
-0.774191

>  <RMSD>
6.061

$$$$
2tob cryst
 OpenBabel11021811463D
libRbt.so/2013.1/901 2013/11/27
 32 34  0  0  0  0  0  0  0  0999 V2000
   -2.6321    1.1160  -10.9653 C   0  0  2  0  0  0  0  0  0  0  0  0
   -2.1228    2.5249  -10.6776 C   0  0  1  0  0  0  0  0  0  0  0  0
   -2.2190    3.3576  -11.9563 C   0  0  2  0  0  0  0  0  0  0  0  0
   -1.4753    2.6736  -13.1111 C   0  0  1  0  0  0  0  0  0  0  0  0
   -1.9509    1.2238  -13.2547 C   0  0  1  0  0  0  0  0  0  0  0  0
   -1.1755    0.4083  -14.2764 C   0  0  0  0  0  0  0  0  0  0  0  0
   -2.9054    3.1257   -9.6494 O   0  0  0  0  0  0  0  0  0  0  0  0
   -1.7490    4.7778  -11.8940 N   0  3  0  0  0  0  0  0  0  0  0  0
   -1.7312    3.3884  -14.3135 O   0  0  0  0  0  0  0  0  0  0  0  0
   -1.8404    0.5431  -11.9887 O   0  0  0  0  0  0  0  0  0  0  0  0
   -1.5898   -0.9539  -14.2577 O   0  0  0  0  0  0  0  0  0  0  0  0
   -5.7551    2.6931  -10.7136 C   0  0  2  0  0  0  0  0  0  0  0  0
   -7.0281    2.9052   -9.8833 C   0  0  0  0  0  0  0  0  0  0  0  0
   -7.8908    1.6479   -9.8182 C   0  0  1  0  0  0  0  0  0  0  0  0
   -7.0488    0.5157   -9.2461 C   0  0  2  0  0  0  0  0  0  0  0  0
   -5.8883    0.2126  -10.1971 C   0  0  1  0  0  0  0  0  0  0  0  0
   -4.9624    1.4350  -10.3253 C   0  0  1  0  0  0  0  0  0  0  0  0
   -4.8522    3.8888  -10.6118 N   0  3  0  0  0  0  0  0  0  0  0  0
   -9.1231    1.8825   -8.9969 N   0  3  0  0  0  0  0  0  0  0  0  0
   -5.1605   -0.9078   -9.7103 O   0  0  0  0  0  0  0  0  0  0  0  0
   -7.8514   -0.6640   -9.0577 O   0  0  0  0  0  0  0  0  0  0  0  0
   -3.9774    1.1954  -11.3520 O   0  0  0  0  0  0  0  0  0  0  0  0
   -8.4118   -0.7583   -7.7772 C   0  0  2  0  0  0  0  0  0  0  0  0
   -7.9918   -2.0771   -7.1196 C   0  0  1  0  0  0  0  0  0  0  0  0
   -8.7463   -3.2589   -7.7292 C   0  0  0  0  0  0  0  0  0  0  0  0
  -10.2386   -2.9755   -7.6703 C   0  0  1  0  0  0  0  0  0  0  0  0
  -10.5324   -1.6879   -8.4203 C   0  0  1  0  0  0  0  0  0  0  0  0
  -12.0128   -1.3530   -8.4020 C   0  0  0  0  0  0  0  0  0  0  0  0
   -6.5197   -2.2809   -7.3065 N   0  3  0  0  0  0  0  0  0  0  0  0
  -12.1600    0.1202   -8.6687 N   0  3  0  0  0  0  0  0  0  0  0  0
  -10.9685   -4.0498   -8.2457 O   0  0  0  0  0  0  0  0  0  0  0  0
   -9.8268   -0.6024   -7.7954 O   0  0  0  0  0  0  0  0  0  0  0  0
  1  2  1  0  0  0  0
  1 22  1  6  0  0  0
  1 10  1  0  0  0  0
  2  3  1  0  0  0  0
  2  7  1  1  0  0  0
  3  4  1  0  0  0  0
  3  8  1  1  0  0  0
  4  5  1  0  0  0  0
  4  9  1  6  0  0  0
  5  6  1  6  0  0  0
  5 10  1  0  0  0  0
  6 11  1  0  0  0  0
 12 13  1  0  0  0  0
 12 17  1  0  0  0  0
 12 18  1  1  0  0  0
 13 14  1  0  0  0  0
 14 15  1  0  0  0  0
 14 19  1  1  0  0  0
 15 16  1  0  0  0  0
 15 21  1  6  0  0  0
 16 17  1  0  0  0  0
 16 20  1  1  0  0  0
 17 22  1  6  0  0  0
 23 21  1  6  0  0  0
 23 24  1  0  0  0  0
 23 32  1  0  0  0  0
 24 25  1  0  0  0  0
 24 29  1  6  0  0  0
 25 26  1  0  0  0  0
 26 27  1  0  0  0  0
 26 31  1  6  0  0  0
 27 28  1  1  0  0  0
 27 32  1  0  0  0  0
 28 30  1  0  0  0  0
M  CHG  5   8   1  18   1  19   1  29   1  30   1
M  END
>  <CHROM.1>
-75.50627636,73.53960634,61.78832035,-60.39444349,174.37640070,-94.75017524
-142.99618501,-172.92628940,-92.19562618,-80.01206768,123.71846801,-123.27711758
-165.48149839,-68.86175850,158.53810416,-167.28618308,-5.87596448,0.57873919
-10.17822561,-0.42132400,-0.49086517,3.10093279

>  <Name>
2tob cryst

>  <RI>
2.10184e+07

>  <Rbt.Current_Directory>
/home/itssahil/PROJECTS/Mol_Feturizer/New_Systems/rnas/2tob

>  <Rbt.Executable>
rbdock ($Id: //depot/dev/client3/rdock/2013.1/src/exe/rbdock.cxx#4 $)

>  <Rbt.Library>
libRbt.so (2013.1, Build901 2013/11/27)

>  <Rbt.Parameter_File>
/export/apps/rDock/src/rDock_2013.1_src/data/scripts/dock_solv.prm

>  <Rbt.Receptor>
prm/pocket_docking_7.prm

>  <SCORE>
-40.2057

>  <SCORE.INTER>
-31.6974

>  <SCORE.INTER.CONST>
1

>  <SCORE.INTER.POLAR>
-7.66382

>  <SCORE.INTER.ROT>
6

>  <SCORE.INTER.SOLV>
37.8011

>  <SCORE.INTER.VDW>
-15.7859

>  <SCORE.INTER.norm>
-0.990543

>  <SCORE.INTRA>
-8.57686

>  <SCORE.INTRA.DIHEDRAL>
13.5602

>  <SCORE.INTRA.DIHEDRAL.0>
18.4221

>  <SCORE.INTRA.POLAR>
-0.744858

>  <SCORE.INTRA.POLAR.0>
-1.57101

>  <SCORE.INTRA.REPUL>
-0.730195

>  <SCORE.INTRA.REPUL.0>
0.730195

>  <SCORE.INTRA.SOLV>
5.72715

>  <SCORE.INTRA.SOLV.lig_0>
-127.221

>  <SCORE.INTRA.VDW>
-12.0371

>  <SCORE.INTRA.VDW.0>
10.8385

>  <SCORE.INTRA.norm>
-0.268027

>  <SCORE.RESTR>
0.0685433

>  <SCORE.RESTR.CAVITY>
0.0685433

>  <SCORE.RESTR.norm>
0.00214198

>  <SCORE.SYSTEM>
0

>  <SCORE.SYSTEM.CONST>
0

>  <SCORE.SYSTEM.DIHEDRAL>
0

>  <SCORE.SYSTEM.SOLV>
0

>  <SCORE.SYSTEM.norm>
0

>  <SCORE.heavy>
32

>  <SCORE.norm>
-1.25643

>  <RMSD>
6.068

$$$$
2tob cryst
 OpenBabel11021811463D
libRbt.so/2013.1/901 2013/11/27
 32 34  0  0  0  0  0  0  0  0999 V2000
  -11.1977   -3.4151   -7.8969 C   0  0  2  0  0  0  0  0  0  0  0  0
  -10.6392   -2.4613   -8.9482 C   0  0  1  0  0  0  0  0  0  0  0  0
  -11.2239   -1.0681   -8.7141 C   0  0  2  0  0  0  0  0  0  0  0  0
  -12.7575   -1.1146   -8.6988 C   0  0  1  0  0  0  0  0  0  0  0  0
  -13.2394   -2.1843   -7.7127 C   0  0  1  0  0  0  0  0  0  0  0  0
  -14.7415   -2.4160   -7.7243 C   0  0  0  0  0  0  0  0  0  0  0  0
   -9.2181   -2.4112   -8.8549 O   0  0  0  0  0  0  0  0  0  0  0  0
  -10.8139    0.0214   -9.6559 N   0  3  0  0  0  0  0  0  0  0  0  0
  -13.2548    0.1601   -8.3114 O   0  0  0  0  0  0  0  0  0  0  0  0
  -12.6080   -3.4458   -8.0097 O   0  0  0  0  0  0  0  0  0  0  0  0
  -15.1240   -3.3129   -6.6866 O   0  0  0  0  0  0  0  0  0  0  0  0
   -8.9848   -2.9804   -5.0451 C   0  0  2  0  0  0  0  0  0  0  0  0
   -8.2535   -3.7346   -3.9263 C   0  0  0  0  0  0  0  0  0  0  0  0
   -9.2154   -4.5022   -3.0236 C   0  0  1  0  0  0  0  0  0  0  0  0
  -10.0257   -5.4591   -3.8871 C   0  0  2  0  0  0  0  0  0  0  0  0
  -10.8806   -4.6576   -4.8719 C   0  0  1  0  0  0  0  0  0  0  0  0
   -9.9868   -3.8456   -5.8257 C   0  0  1  0  0  0  0  0  0  0  0  0
   -8.0014   -2.3829   -6.0101 N   0  3  0  0  0  0  0  0  0  0  0  0
   -8.4736   -5.2330   -1.9447 N   0  3  0  0  0  0  0  0  0  0  0  0
  -11.7081   -5.5476   -5.6103 O   0  0  0  0  0  0  0  0  0  0  0  0
  -10.8680   -6.2887   -3.0663 O   0  0  0  0  0  0  0  0  0  0  0  0
  -10.8022   -2.9669   -6.6287 O   0  0  0  0  0  0  0  0  0  0  0  0
  -11.4218   -7.3754   -3.7556 C   0  0  2  0  0  0  0  0  0  0  0  0
  -12.4318   -8.1011   -2.8605 C   0  0  1  0  0  0  0  0  0  0  0  0
  -11.7209   -8.9201   -1.7829 C   0  0  0  0  0  0  0  0  0  0  0  0
  -10.7023   -9.8321   -2.4474 C   0  0  1  0  0  0  0  0  0  0  0  0
   -9.7175   -8.9885   -3.2381 C   0  0  1  0  0  0  0  0  0  0  0  0
   -8.6679   -9.8450   -3.9228 C   0  0  0  0  0  0  0  0  0  0  0  0
  -13.3300   -7.0968   -2.2061 N   0  3  0  0  0  0  0  0  0  0  0  0
   -7.5555   -8.9413   -4.3797 N   0  3  0  0  0  0  0  0  0  0  0  0
  -10.0112  -10.5962   -1.4694 O   0  0  0  0  0  0  0  0  0  0  0  0
  -10.4254   -8.2606   -4.2558 O   0  0  0  0  0  0  0  0  0  0  0  0
  1  2  1  0  0  0  0
  1 22  1  1  0  0  0
  1 10  1  0  0  0  0
  2  3  1  0  0  0  0
  2  7  1  1  0  0  0
  3  4  1  0  0  0  0
  3  8  1  6  0  0  0
  4  5  1  0  0  0  0
  4  9  1  1  0  0  0
  5  6  1  6  0  0  0
  5 10  1  0  0  0  0
  6 11  1  0  0  0  0
 12 13  1  0  0  0  0
 12 17  1  0  0  0  0
 12 18  1  6  0  0  0
 13 14  1  0  0  0  0
 14 15  1  0  0  0  0
 14 19  1  1  0  0  0
 15 16  1  0  0  0  0
 15 21  1  1  0  0  0
 16 17  1  0  0  0  0
 16 20  1  6  0  0  0
 17 22  1  1  0  0  0
 23 21  1  1  0  0  0
 23 24  1  0  0  0  0
 23 32  1  0  0  0  0
 24 25  1  0  0  0  0
 24 29  1  1  0  0  0
 25 26  1  0  0  0  0
 26 27  1  0  0  0  0
 26 31  1  1  0  0  0
 27 28  1  6  0  0  0
 27 32  1  0  0  0  0
 28 30  1  0  0  0  0
M  CHG  5   8   1  18   1  19   1  29   1  30   1
M  END
>  <CHROM.1>
-119.13586805,69.74859287,-118.05231114,-47.00307592,-173.69584359,-60.53610469
-80.20193863,-164.38380346,-167.09302963,-176.50385269,143.88316748,-173.12484086
73.26857090,-55.09614979,-165.90059484,-156.00820261,-10.86558283,-4.89661937
-5.36344280,-1.75854414,0.08609819,2.48931870

>  <Name>
2tob cryst

>  <RI>
2.10184e+07

>  <Rbt.Current_Directory>
/home/itssahil/PROJECTS/Mol_Feturizer/New_Systems/rnas/2tob

>  <Rbt.Executable>
rbdock ($Id: //depot/dev/client3/rdock/2013.1/src/exe/rbdock.cxx#4 $)

>  <Rbt.Library>
libRbt.so (2013.1, Build901 2013/11/27)

>  <Rbt.Parameter_File>
/export/apps/rDock/src/rDock_2013.1_src/data/scripts/dock_solv.prm

>  <Rbt.Receptor>
prm/pocket_docking_7.prm

>  <SCORE>
-51.445

>  <SCORE.INTER>
-32.1299

>  <SCORE.INTER.CONST>
1

>  <SCORE.INTER.POLAR>
-6.19706

>  <SCORE.INTER.ROT>
6

>  <SCORE.INTER.SOLV>
23.7257

>  <SCORE.INTER.VDW>
-16.2717

>  <SCORE.INTER.norm>
-1.00406

>  <SCORE.INTRA>
-19.3151

>  <SCORE.INTRA.DIHEDRAL>
3.62312

>  <SCORE.INTRA.DIHEDRAL.0>
18.4221

>  <SCORE.INTRA.POLAR>
0.0689412

>  <SCORE.INTRA.POLAR.0>
-1.57101

>  <SCORE.INTRA.REPUL>
-0.724708

>  <SCORE.INTRA.REPUL.0>
0.730195

>  <SCORE.INTRA.SOLV>
-8.7204

>  <SCORE.INTRA.SOLV.lig_0>
-127.221

>  <SCORE.INTRA.VDW>
-13.3773

>  <SCORE.INTRA.VDW.0>
10.8385

>  <SCORE.INTRA.norm>
-0.603597

>  <SCORE.RESTR>
0

>  <SCORE.RESTR.CAVITY>
0

>  <SCORE.RESTR.norm>
0

>  <SCORE.SYSTEM>
0

>  <SCORE.SYSTEM.CONST>
0

>  <SCORE.SYSTEM.DIHEDRAL>
0

>  <SCORE.SYSTEM.SOLV>
0

>  <SCORE.SYSTEM.norm>
0

>  <SCORE.heavy>
32

>  <SCORE.norm>
-1.60766

>  <RMSD>
6.094

$$$$
2tob cryst
 OpenBabel11021811463D
libRbt.so/2013.1/901 2013/11/27
 32 34  0  0  0  0  0  0  0  0999 V2000
   -4.5800    1.1296  -11.5177 C   0  0  2  0  0  0  0  0  0  0  0  0
   -3.0899    0.9579  -11.7955 C   0  0  1  0  0  0  0  0  0  0  0  0
   -2.3041    1.9049  -10.8880 C   0  0  2  0  0  0  0  0  0  0  0  0
   -2.7850    3.3517  -11.0608 C   0  0  1  0  0  0  0  0  0  0  0  0
   -4.3069    3.4214  -10.8933 C   0  0  1  0  0  0  0  0  0  0  0  0
   -4.9077    4.7861  -11.1879 C   0  0  0  0  0  0  0  0  0  0  0  0
   -2.6991   -0.3890  -11.5429 O   0  0  0  0  0  0  0  0  0  0  0  0
   -0.8123    1.9060  -11.0155 N   0  3  0  0  0  0  0  0  0  0  0  0
   -2.1526    4.1689  -10.0838 O   0  0  0  0  0  0  0  0  0  0  0  0
   -4.9417    2.4734  -11.7744 O   0  0  0  0  0  0  0  0  0  0  0  0
   -4.4503    5.7546  -10.2496 O   0  0  0  0  0  0  0  0  0  0  0  0
   -4.9365   -1.3263   -9.0245 C   0  0  2  0  0  0  0  0  0  0  0  0
   -5.8230   -2.4231   -8.4194 C   0  0  0  0  0  0  0  0  0  0  0  0
   -7.0774   -1.8539   -7.7621 C   0  0  1  0  0  0  0  0  0  0  0  0
   -7.8418   -1.0468   -8.8024 C   0  0  2  0  0  0  0  0  0  0  0  0
   -6.9912    0.1450   -9.2489 C   0  0  1  0  0  0  0  0  0  0  0  0
   -5.6963   -0.3393   -9.9246 C   0  0  1  0  0  0  0  0  0  0  0  0
   -3.8079   -1.9317   -9.8088 N   0  3  0  0  0  0  0  0  0  0  0  0
   -7.9262   -2.9471   -7.1855 N   0  3  0  0  0  0  0  0  0  0  0  0
   -7.7438    0.9509  -10.1467 O   0  0  0  0  0  0  0  0  0  0  0  0
   -9.0926   -0.5835   -8.2618 O   0  0  0  0  0  0  0  0  0  0  0  0
   -4.8301    0.7856  -10.1817 O   0  0  0  0  0  0  0  0  0  0  0  0
  -10.0931   -0.4240   -9.2294 C   0  0  2  0  0  0  0  0  0  0  0  0
  -11.0042    0.7480   -8.8496 C   0  0  1  0  0  0  0  0  0  0  0  0
  -11.9337    0.3692   -7.6963 C   0  0  0  0  0  0  0  0  0  0  0  0
  -12.6729   -0.9091   -8.0573 C   0  0  1  0  0  0  0  0  0  0  0  0
  -11.6628   -2.0087   -8.3352 C   0  0  1  0  0  0  0  0  0  0  0  0
  -12.3424   -3.3168   -8.6971 C   0  0  0  0  0  0  0  0  0  0  0  0
  -10.1652    1.9207   -8.4437 N   0  3  0  0  0  0  0  0  0  0  0  0
  -12.9120   -3.1776  -10.0824 N   0  3  0  0  0  0  0  0  0  0  0  0
  -13.5342   -1.2979   -6.9967 O   0  0  0  0  0  0  0  0  0  0  0  0
  -10.8321   -1.6219   -9.4429 O   0  0  0  0  0  0  0  0  0  0  0  0
  1  2  1  0  0  0  0
  1 22  1  1  0  0  0
  1 10  1  0  0  0  0
  2  3  1  0  0  0  0
  2  7  1  1  0  0  0
  3  4  1  0  0  0  0
  3  8  1  6  0  0  0
  4  5  1  0  0  0  0
  4  9  1  1  0  0  0
  5  6  1  6  0  0  0
  5 10  1  0  0  0  0
  6 11  1  0  0  0  0
 12 13  1  0  0  0  0
 12 17  1  0  0  0  0
 12 18  1  6  0  0  0
 13 14  1  0  0  0  0
 14 15  1  0  0  0  0
 14 19  1  6  0  0  0
 15 16  1  0  0  0  0
 15 21  1  1  0  0  0
 16 17  1  0  0  0  0
 16 20  1  6  0  0  0
 17 22  1  1  0  0  0
 23 21  1  1  0  0  0
 23 24  1  0  0  0  0
 23 32  1  0  0  0  0
 24 25  1  0  0  0  0
 24 29  1  1  0  0  0
 25 26  1  0  0  0  0
 26 27  1  0  0  0  0
 26 31  1  1  0  0  0
 27 28  1  6  0  0  0
 27 32  1  0  0  0  0
 28 30  1  0  0  0  0
M  CHG  5   8   1  18   1  19   1  29   1  30   1
M  END
>  <CHROM.1>
-117.09219213,56.36850074,-51.02877784,-50.44350360,-64.78609752,55.30320632
67.15555852,176.84131025,-150.98759798,-179.10083225,125.08517056,-146.65213440
96.80376547,177.61993672,72.56538459,102.26415976,-7.04361125,0.29710922
-9.58498724,-0.45916661,-0.21411406,2.98563598

>  <Name>
2tob cryst

>  <RI>
0

>  <Rbt.Current_Directory>
/home/itssahil/PROJECTS/Mol_Feturizer/New_Systems/rnas/2tob

>  <Rbt.Executable>
rbdock ($Id: //depot/dev/client3/rdock/2013.1/src/exe/rbdock.cxx#4 $)

>  <Rbt.Library>
libRbt.so (2013.1, Build901 2013/11/27)

>  <Rbt.Parameter_File>
/export/apps/rDock/src/rDock_2013.1_src/data/scripts/dock_solv.prm

>  <Rbt.Receptor>
prm/blind_docking_60.prm

>  <SCORE>
-5.66543

>  <SCORE.INTER>
-5.53802

>  <SCORE.INTER.CONST>
1

>  <SCORE.INTER.POLAR>
-6.02216

>  <SCORE.INTER.ROT>
6

>  <SCORE.INTER.SOLV>
39.907

>  <SCORE.INTER.VDW>
-4.52048

>  <SCORE.INTER.norm>
-0.173063

>  <SCORE.INTRA>
-13.7451

>  <SCORE.INTRA.DIHEDRAL>
10.4814

>  <SCORE.INTRA.DIHEDRAL.0>
18.4221

>  <SCORE.INTRA.POLAR>
0.0962584

>  <SCORE.INTRA.POLAR.0>
-1.57101

>  <SCORE.INTRA.REPUL>
-0.730195

>  <SCORE.INTRA.REPUL.0>
0.730195

>  <SCORE.INTRA.SOLV>
-2.55433

>  <SCORE.INTRA.SOLV.lig_0>
-127.221

>  <SCORE.INTRA.VDW>
-14.385

>  <SCORE.INTRA.VDW.0>
10.8385

>  <SCORE.INTRA.norm>
-0.429535

>  <SCORE.RESTR>
13.6177

>  <SCORE.RESTR.CAVITY>
13.6177

>  <SCORE.RESTR.norm>
0.425554

>  <SCORE.SYSTEM>
0

>  <SCORE.SYSTEM.CONST>
0

>  <SCORE.SYSTEM.DIHEDRAL>
0

>  <SCORE.SYSTEM.SOLV>
0

>  <SCORE.SYSTEM.norm>
0

>  <SCORE.heavy>
32

>  <SCORE.norm>
-0.177045

>  <RMSD>
6.102

$$$$
2tob cryst
 OpenBabel11021811463D
libRbt.so/2013.1/901 2013/11/27
 32 34  0  0  0  0  0  0  0  0999 V2000
   -3.7015    0.3072  -11.6147 C   0  0  2  0  0  0  0  0  0  0  0  0
   -2.3915   -0.4510  -11.8046 C   0  0  1  0  0  0  0  0  0  0  0  0
   -1.2248    0.5139  -11.5913 C   0  0  2  0  0  0  0  0  0  0  0  0
   -1.3509    1.7356  -12.5111 C   0  0  1  0  0  0  0  0  0  0  0  0
   -2.7391    2.3666  -12.3565 C   0  0  1  0  0  0  0  0  0  0  0  0
   -3.0243    3.4992  -13.3290 C   0  0  0  0  0  0  0  0  0  0  0  0
   -2.3091   -1.5233  -10.8697 O   0  0  0  0  0  0  0  0  0  0  0  0
    0.1610   -0.0305  -11.7501 N   0  3  0  0  0  0  0  0  0  0  0  0
   -0.3478    2.6816  -12.1632 O   0  0  0  0  0  0  0  0  0  0  0  0
   -3.7579    1.3656  -12.5524 O   0  0  0  0  0  0  0  0  0  0  0  0
   -2.0594    4.5379  -13.1944 O   0  0  0  0  0  0  0  0  0  0  0  0
   -5.8972    1.8692  -10.5305 C   0  0  2  0  0  0  0  0  0  0  0  0
   -7.3880    1.8665  -10.1662 C   0  0  0  0  0  0  0  0  0  0  0  0
   -7.9609    0.4539  -10.0907 C   0  0  1  0  0  0  0  0  0  0  0  0
   -7.1501   -0.3406   -9.0762 C   0  0  2  0  0  0  0  0  0  0  0  0
   -5.7058   -0.4699   -9.5666 C   0  0  1  0  0  0  0  0  0  0  0  0
   -5.0468    0.9164   -9.6756 C   0  0  1  0  0  0  0  0  0  0  0  0
   -5.3299    3.2558  -10.4256 N   0  3  0  0  0  0  0  0  0  0  0  0
   -9.4154    0.4818   -9.7278 N   0  3  0  0  0  0  0  0  0  0  0  0
   -4.9747   -1.2936   -8.6672 O   0  0  0  0  0  0  0  0  0  0  0  0
   -7.7233   -1.6468   -8.8844 O   0  0  0  0  0  0  0  0  0  0  0  0
   -3.7522    0.7934  -10.3007 O   0  0  0  0  0  0  0  0  0  0  0  0
   -7.4202   -2.2110   -7.6384 C   0  0  2  0  0  0  0  0  0  0  0  0
   -8.1083   -3.5733   -7.5012 C   0  0  1  0  0  0  0  0  0  0  0  0
   -9.6089   -3.4083   -7.2594 C   0  0  0  0  0  0  0  0  0  0  0  0
   -9.8190   -2.4771   -6.0764 C   0  0  1  0  0  0  0  0  0  0  0  0
   -9.1576   -1.1415   -6.3685 C   0  0  1  0  0  0  0  0  0  0  0  0
   -9.3384   -0.1630   -5.2223 C   0  0  0  0  0  0  0  0  0  0  0  0
   -7.8936   -4.3686   -8.7522 N   0  3  0  0  0  0  0  0  0  0  0  0
   -9.0015   -0.8781   -3.9424 N   0  3  0  0  0  0  0  0  0  0  0  0
  -11.2064   -2.2894   -5.8359 O   0  0  0  0  0  0  0  0  0  0  0  0
   -7.7468   -1.3416   -6.5595 O   0  0  0  0  0  0  0  0  0  0  0  0
  1  2  1  0  0  0  0
  1 22  1  1  0  0  0
  1 10  1  0  0  0  0
  2  3  1  0  0  0  0
  2  7  1  1  0  0  0
  3  4  1  0  0  0  0
  3  8  1  6  0  0  0
  4  5  1  0  0  0  0
  4  9  1  1  0  0  0
  5  6  1  6  0  0  0
  5 10  1  0  0  0  0
  6 11  1  0  0  0  0
 12 13  1  0  0  0  0
 12 17  1  0  0  0  0
 12 18  1  1  0  0  0
 13 14  1  0  0  0  0
 14 15  1  0  0  0  0
 14 19  1  1  0  0  0
 15 16  1  0  0  0  0
 15 21  1  6  0  0  0
 16 17  1  0  0  0  0
 16 20  1  1  0  0  0
 17 22  1  6  0  0  0
 23 21  1  6  0  0  0
 23 24  1  0  0  0  0
 23 32  1  0  0  0  0
 24 25  1  0  0  0  0
 24 29  1  6  0  0  0
 25 26  1  0  0  0  0
 26 27  1  0  0  0  0
 26 31  1  6  0  0  0
 27 28  1  1  0  0  0
 27 32  1  0  0  0  0
 28 30  1  0  0  0  0
M  CHG  5   8   1  18   1  19   1  29   1  30   1
M  END
>  <CHROM.1>
-148.91339751,-179.58792560,161.38269952,-165.01815740,-58.04755940,-141.77452570
-161.32979468,175.40085302,-154.97249644,168.84256056,-59.18138606,178.02406973
-81.53628185,65.09563130,47.35094466,-33.73172617,-5.67309550,-0.02370927
-9.55652879,-0.60502235,-0.48106030,2.76248588

>  <Name>
2tob cryst

>  <RI>
2.10184e+07

>  <Rbt.Current_Directory>
/home/itssahil/PROJECTS/Mol_Feturizer/New_Systems/rnas/2tob

>  <Rbt.Executable>
rbdock ($Id: //depot/dev/client3/rdock/2013.1/src/exe/rbdock.cxx#4 $)

>  <Rbt.Library>
libRbt.so (2013.1, Build901 2013/11/27)

>  <Rbt.Parameter_File>
/export/apps/rDock/src/rDock_2013.1_src/data/scripts/dock_solv.prm

>  <Rbt.Receptor>
prm/pocket_docking_7.prm

>  <SCORE>
-53.2477

>  <SCORE.INTER>
-37.6517

>  <SCORE.INTER.CONST>
1

>  <SCORE.INTER.POLAR>
-5.68181

>  <SCORE.INTER.ROT>
6

>  <SCORE.INTER.SOLV>
40.5047

>  <SCORE.INTER.VDW>
-27.2633

>  <SCORE.INTER.norm>
-1.17662

>  <SCORE.INTRA>
-15.6545

>  <SCORE.INTRA.DIHEDRAL>
-0.177133

>  <SCORE.INTRA.DIHEDRAL.0>
18.4221

>  <SCORE.INTRA.POLAR>
0.636599

>  <SCORE.INTRA.POLAR.0>
-1.57101

>  <SCORE.INTRA.REPUL>
-0.730195

>  <SCORE.INTRA.REPUL.0>
0.730195

>  <SCORE.INTRA.SOLV>
-4.58317

>  <SCORE.INTRA.SOLV.lig_0>
-127.221

>  <SCORE.INTRA.VDW>
-11.7878

>  <SCORE.INTRA.VDW.0>
10.8385

>  <SCORE.INTRA.norm>
-0.489202

>  <SCORE.RESTR>
0.0585161

>  <SCORE.RESTR.CAVITY>
0.0585161

>  <SCORE.RESTR.norm>
0.00182863

>  <SCORE.SYSTEM>
0

>  <SCORE.SYSTEM.CONST>
0

>  <SCORE.SYSTEM.DIHEDRAL>
0

>  <SCORE.SYSTEM.SOLV>
0

>  <SCORE.SYSTEM.norm>
0

>  <SCORE.heavy>
32

>  <SCORE.norm>
-1.66399

>  <RMSD>
6.155

$$$$
2tob cryst
 OpenBabel11021811463D
libRbt.so/2013.1/901 2013/11/27
 32 34  0  0  0  0  0  0  0  0999 V2000
   -2.5640    2.0054  -11.4069 C   0  0  2  0  0  0  0  0  0  0  0  0
   -2.2728    2.6398  -12.7633 C   0  0  1  0  0  0  0  0  0  0  0  0
   -2.1699    1.5352  -13.8154 C   0  0  2  0  0  0  0  0  0  0  0  0
   -1.1275    0.4861  -13.4062 C   0  0  1  0  0  0  0  0  0  0  0  0
   -1.4134   -0.0095  -11.9844 C   0  0  1  0  0  0  0  0  0  0  0  0
   -0.3562   -0.9461  -11.4230 C   0  0  0  0  0  0  0  0  0  0  0  0
   -3.3171    3.5444  -13.1125 O   0  0  0  0  0  0  0  0  0  0  0  0
   -1.8688    1.9466  -15.2232 N   0  3  0  0  0  0  0  0  0  0  0  0
   -1.1845   -0.6028  -14.3190 O   0  0  0  0  0  0  0  0  0  0  0  0
   -1.5148    1.1122  -11.0845 O   0  0  0  0  0  0  0  0  0  0  0  0
   -0.9516   -1.9571  -10.6161 O   0  0  0  0  0  0  0  0  0  0  0  0
   -5.7274    2.5762  -10.7511 C   0  0  2  0  0  0  0  0  0  0  0  0
   -6.9408    2.6419   -9.8139 C   0  0  0  0  0  0  0  0  0  0  0  0
   -7.5800    1.2725   -9.6007 C   0  0  1  0  0  0  0  0  0  0  0  0
   -6.5196    0.3263   -9.0545 C   0  0  2  0  0  0  0  0  0  0  0  0
   -5.4125    0.1454  -10.0961 C   0  0  1  0  0  0  0  0  0  0  0  0
   -4.7110    1.4861  -10.3763 C   0  0  1  0  0  0  0  0  0  0  0  0
   -5.0242    3.9023  -10.7991 N   0  3  0  0  0  0  0  0  0  0  0  0
   -8.7578    1.3660   -8.6777 N   0  3  0  0  0  0  0  0  0  0  0  0
   -4.4737   -0.8127   -9.6242 O   0  0  0  0  0  0  0  0  0  0  0  0
   -7.1015   -0.9491   -8.7286 O   0  0  0  0  0  0  0  0  0  0  0  0
   -3.7934    1.3352  -11.4795 O   0  0  0  0  0  0  0  0  0  0  0  0
   -6.8799   -1.3401   -7.4017 C   0  0  2  0  0  0  0  0  0  0  0  0
   -6.9546   -2.8663   -7.2880 C   0  0  1  0  0  0  0  0  0  0  0  0
   -8.4013   -3.3531   -7.3756 C   0  0  0  0  0  0  0  0  0  0  0  0
   -9.2368   -2.6057   -6.3489 C   0  0  1  0  0  0  0  0  0  0  0  0
   -9.1399   -1.1138   -6.6167 C   0  0  1  0  0  0  0  0  0  0  0  0
   -9.9608   -0.3109   -5.6239 C   0  0  0  0  0  0  0  0  0  0  0  0
   -6.1561   -3.4883   -8.3922 N   0  3  0  0  0  0  0  0  0  0  0  0
   -9.0774    0.0251   -4.4536 N   0  3  0  0  0  0  0  0  0  0  0  0
  -10.5927   -3.0239   -6.4164 O   0  0  0  0  0  0  0  0  0  0  0  0
   -7.7694   -0.6972   -6.4948 O   0  0  0  0  0  0  0  0  0  0  0  0
  1  2  1  0  0  0  0
  1 22  1  6  0  0  0
  1 10  1  0  0  0  0
  2  3  1  0  0  0  0
  2  7  1  6  0  0  0
  3  4  1  0  0  0  0
  3  8  1  6  0  0  0
  4  5  1  0  0  0  0
  4  9  1  6  0  0  0
  5  6  1  1  0  0  0
  5 10  1  0  0  0  0
  6 11  1  0  0  0  0
 12 13  1  0  0  0  0
 12 17  1  0  0  0  0
 12 18  1  1  0  0  0
 13 14  1  0  0  0  0
 14 15  1  0  0  0  0
 14 19  1  1  0  0  0
 15 16  1  0  0  0  0
 15 21  1  6  0  0  0
 16 17  1  0  0  0  0
 16 20  1  1  0  0  0
 17 22  1  6  0  0  0
 23 21  1  6  0  0  0
 23 24  1  0  0  0  0
 23 32  1  0  0  0  0
 24 25  1  0  0  0  0
 24 29  1  6  0  0  0
 25 26  1  0  0  0  0
 26 27  1  0  0  0  0
 26 31  1  6  0  0  0
 27 28  1  1  0  0  0
 27 32  1  0  0  0  0
 28 30  1  0  0  0  0
M  CHG  5   8   1  18   1  19   1  29   1  30   1
M  END
>  <CHROM.1>
-136.56504636,-178.59767552,-53.64011323,-179.25921408,-143.74506255,-170.46799435
-162.14336008,56.93113545,-124.28150089,177.24180835,97.45868109,-155.29136130
-170.10202709,176.26517236,90.34151000,-170.05740778,-5.26618608,0.12744768
-9.83873165,0.53299849,0.59454888,-0.41676661

>  <Name>
2tob cryst

>  <RI>
0

>  <Rbt.Current_Directory>
/home/itssahil/PROJECTS/Mol_Feturizer/New_Systems/rnas/2tob

>  <Rbt.Executable>
rbdock ($Id: //depot/dev/client3/rdock/2013.1/src/exe/rbdock.cxx#4 $)

>  <Rbt.Library>
libRbt.so (2013.1, Build901 2013/11/27)

>  <Rbt.Parameter_File>
/export/apps/rDock/src/rDock_2013.1_src/data/scripts/dock_solv.prm

>  <Rbt.Receptor>
prm/blind_docking_60.prm

>  <SCORE>
-18.8856

>  <SCORE.INTER>
-22.2687

>  <SCORE.INTER.CONST>
1

>  <SCORE.INTER.POLAR>
-3.16332

>  <SCORE.INTER.ROT>
6

>  <SCORE.INTER.SOLV>
37.9441

>  <SCORE.INTER.VDW>
-24.5494

>  <SCORE.INTER.norm>
-0.695896

>  <SCORE.INTRA>
-14.5126

>  <SCORE.INTRA.DIHEDRAL>
10.3953

>  <SCORE.INTRA.DIHEDRAL.0>
18.4221

>  <SCORE.INTRA.POLAR>
0.342593

>  <SCORE.INTRA.POLAR.0>
-1.57101

>  <SCORE.INTRA.REPUL>
-0.730195

>  <SCORE.INTRA.REPUL.0>
0.730195

>  <SCORE.INTRA.SOLV>
-2.16678

>  <SCORE.INTRA.SOLV.lig_0>
-127.221

>  <SCORE.INTRA.VDW>
-16.1407

>  <SCORE.INTRA.VDW.0>
10.8385

>  <SCORE.INTRA.norm>
-0.45352

>  <SCORE.RESTR>
17.8957

>  <SCORE.RESTR.CAVITY>
17.8957

>  <SCORE.RESTR.norm>
0.559242

>  <SCORE.SYSTEM>
0

>  <SCORE.SYSTEM.CONST>
0

>  <SCORE.SYSTEM.DIHEDRAL>
0

>  <SCORE.SYSTEM.SOLV>
0

>  <SCORE.SYSTEM.norm>
0

>  <SCORE.heavy>
32

>  <SCORE.norm>
-0.590173

>  <RMSD>
6.277

$$$$
2tob cryst
 OpenBabel11021811463D
libRbt.so/2013.1/901 2013/11/27
 32 34  0  0  0  0  0  0  0  0999 V2000
   -8.9509   -3.4295   -5.9314 C   0  0  2  0  0  0  0  0  0  0  0  0
   -8.5285   -2.2205   -5.1026 C   0  0  1  0  0  0  0  0  0  0  0  0
   -9.7229   -1.7448   -4.2752 C   0  0  2  0  0  0  0  0  0  0  0  0
  -10.9336   -1.4634   -5.1750 C   0  0  1  0  0  0  0  0  0  0  0  0
  -11.2164   -2.6769   -6.0674 C   0  0  1  0  0  0  0  0  0  0  0  0
  -12.3068   -2.4530   -7.1023 C   0  0  0  0  0  0  0  0  0  0  0  0
   -7.4519   -2.5742   -4.2384 O   0  0  0  0  0  0  0  0  0  0  0  0
   -9.5240   -0.5481   -3.3976 N   0  3  0  0  0  0  0  0  0  0  0  0
  -12.0642   -1.1902   -4.3568 O   0  0  0  0  0  0  0  0  0  0  0  0
  -10.0201   -3.0528   -6.7785 O   0  0  0  0  0  0  0  0  0  0  0  0
  -12.0165   -1.3140   -7.9061 O   0  0  0  0  0  0  0  0  0  0  0  0
   -9.4878   -6.4073   -6.4713 C   0  0  2  0  0  0  0  0  0  0  0  0
  -10.2615   -7.6829   -6.8308 C   0  0  0  0  0  0  0  0  0  0  0  0
  -10.8439   -8.3710   -5.5992 C   0  0  1  0  0  0  0  0  0  0  0  0
  -11.7385   -7.3774   -4.8709 C   0  0  2  0  0  0  0  0  0  0  0  0
  -10.8940   -6.2034   -4.3694 C   0  0  1  0  0  0  0  0  0  0  0  0
  -10.2620   -5.4491   -5.5524 C   0  0  1  0  0  0  0  0  0  0  0  0
   -9.0803   -5.6685   -7.7136 N   0  3  0  0  0  0  0  0  0  0  0  0
  -11.5982   -9.6094   -5.9807 N   0  3  0  0  0  0  0  0  0  0  0  0
  -11.7127   -5.3260   -3.6065 O   0  0  0  0  0  0  0  0  0  0  0  0
  -12.4025   -8.0141   -3.7639 O   0  0  0  0  0  0  0  0  0  0  0  0
   -9.3353   -4.4587   -5.0604 O   0  0  0  0  0  0  0  0  0  0  0  0
  -13.5483   -7.3322   -3.3343 C   0  0  2  0  0  0  0  0  0  0  0  0
  -14.1323   -8.0214   -2.0966 C   0  0  1  0  0  0  0  0  0  0  0  0
  -14.8351   -9.3254   -2.4749 C   0  0  0  0  0  0  0  0  0  0  0  0
  -15.8487   -9.0401   -3.5712 C   0  0  1  0  0  0  0  0  0  0  0  0
  -15.1345   -8.4322   -4.7658 C   0  0  1  0  0  0  0  0  0  0  0  0
  -16.0963   -8.1290   -5.9003 C   0  0  0  0  0  0  0  0  0  0  0  0
  -13.0317   -8.3169   -1.1245 N   0  3  0  0  0  0  0  0  0  0  0  0
  -16.8983   -6.9150   -5.5185 N   0  3  0  0  0  0  0  0  0  0  0  0
  -16.5084  -10.2373   -3.9578 O   0  0  0  0  0  0  0  0  0  0  0  0
  -14.5149   -7.1965   -4.3707 O   0  0  0  0  0  0  0  0  0  0  0  0
  1  2  1  0  0  0  0
  1 22  1  1  0  0  0
  1 10  1  0  0  0  0
  2  3  1  0  0  0  0
  2  7  1  1  0  0  0
  3  4  1  0  0  0  0
  3  8  1  6  0  0  0
  4  5  1  0  0  0  0
  4  9  1  1  0  0  0
  5  6  1  6  0  0  0
  5 10  1  0  0  0  0
  6 11  1  0  0  0  0
 12 13  1  0  0  0  0
 12 17  1  0  0  0  0
 12 18  1  6  0  0  0
 13 14  1  0  0  0  0
 14 15  1  0  0  0  0
 14 19  1  6  0  0  0
 15 16  1  0  0  0  0
 15 21  1  1  0  0  0
 16 17  1  0  0  0  0
 16 20  1  6  0  0  0
 17 22  1  1  0  0  0
 23 21  1  6  0  0  0
 23 24  1  0  0  0  0
 23 32  1  0  0  0  0
 24 25  1  0  0  0  0
 24 29  1  1  0  0  0
 25 26  1  0  0  0  0
 26 27  1  0  0  0  0
 26 31  1  6  0  0  0
 27 28  1  6  0  0  0
 27 32  1  0  0  0  0
 28 30  1  0  0  0  0
M  CHG  5   8   1  18   1  19   1  29   1  30   1
M  END
>  <CHROM.1>
154.76964228,-55.50375889,-84.64444597,-62.65945375,54.95113630,-63.57045284
107.60995487,176.32226490,-159.63871003,-62.21601587,76.50660984,-176.01400108
-52.54609944,175.26625510,74.12344316,45.65809812,-11.91822753,-5.60205468
-4.90900709,-0.89316318,-0.25317948,3.10813970

>  <Name>
2tob cryst

>  <RI>
3.75586e+07

>  <Rbt.Current_Directory>
/home/itssahil/PROJECTS/Mol_Feturizer/New_Systems/rnas/2tob

>  <Rbt.Executable>
rbdock ($Id: //depot/dev/client3/rdock/2013.1/src/exe/rbdock.cxx#4 $)

>  <Rbt.Library>
libRbt.so (2013.1, Build901 2013/11/27)

>  <Rbt.Parameter_File>
/export/apps/rDock/src/rDock_2013.1_src/data/scripts/dock_solv.prm

>  <Rbt.Receptor>
prm/pocket_docking_8.prm

>  <SCORE>
-45.6748

>  <SCORE.INTER>
-24.5364

>  <SCORE.INTER.CONST>
1

>  <SCORE.INTER.POLAR>
-4.85919

>  <SCORE.INTER.ROT>
6

>  <SCORE.INTER.SOLV>
17.5344

>  <SCORE.INTER.VDW>
-13.6051

>  <SCORE.INTER.norm>
-0.766762

>  <SCORE.INTRA>
-21.1384

>  <SCORE.INTRA.DIHEDRAL>
-6.12142

>  <SCORE.INTRA.DIHEDRAL.0>
18.4221

>  <SCORE.INTRA.POLAR>
0.38405

>  <SCORE.INTRA.POLAR.0>
-1.57101

>  <SCORE.INTRA.REPUL>
-0.730195

>  <SCORE.INTRA.REPUL.0>
0.730195

>  <SCORE.INTRA.SOLV>
-6.17402

>  <SCORE.INTRA.SOLV.lig_0>
-127.221

>  <SCORE.INTRA.VDW>
-12.6455

>  <SCORE.INTRA.VDW.0>
10.8385

>  <SCORE.INTRA.norm>
-0.660575

>  <SCORE.RESTR>
0

>  <SCORE.RESTR.CAVITY>
0

>  <SCORE.RESTR.norm>
0

>  <SCORE.SYSTEM>
0

>  <SCORE.SYSTEM.CONST>
0

>  <SCORE.SYSTEM.DIHEDRAL>
0

>  <SCORE.SYSTEM.SOLV>
0

>  <SCORE.SYSTEM.norm>
0

>  <SCORE.heavy>
32

>  <SCORE.norm>
-1.42734

>  <RMSD>
6.279

$$$$
2tob cryst
 OpenBabel11021811463D
libRbt.so/2013.1/901 2013/11/27
 32 34  0  0  0  0  0  0  0  0999 V2000
   -3.2220    1.6202  -11.8374 C   0  0  2  0  0  0  0  0  0  0  0  0
   -2.1888    0.8904  -12.6900 C   0  0  1  0  0  0  0  0  0  0  0  0
   -0.8803    0.7900  -11.9055 C   0  0  2  0  0  0  0  0  0  0  0  0
   -0.4101    2.1769  -11.4473 C   0  0  1  0  0  0  0  0  0  0  0  0
   -1.5442    2.8974  -10.7100 C   0  0  1  0  0  0  0  0  0  0  0  0
   -1.2340    4.3381  -10.3384 C   0  0  0  0  0  0  0  0  0  0  0  0
   -2.6592   -0.4150  -13.0147 O   0  0  0  0  0  0  0  0  0  0  0  0
    0.2781    0.1183  -12.5754 N   0  3  0  0  0  0  0  0  0  0  0  0
    0.7086    2.0235  -10.5830 O   0  0  0  0  0  0  0  0  0  0  0  0
   -2.7310    2.9109  -11.5281 O   0  0  0  0  0  0  0  0  0  0  0  0
   -0.1857    4.3991   -9.3766 O   0  0  0  0  0  0  0  0  0  0  0  0
   -5.3715    2.3278  -10.5909 C   0  0  2  0  0  0  0  0  0  0  0  0
   -6.8028    2.5476  -10.0829 C   0  0  0  0  0  0  0  0  0  0  0  0
   -7.6184    1.2575  -10.0795 C   0  0  1  0  0  0  0  0  0  0  0  0
   -6.8887    0.2292   -9.2263 C   0  0  2  0  0  0  0  0  0  0  0  0
   -5.5374   -0.0981   -9.8666 C   0  0  1  0  0  0  0  0  0  0  0  0
   -4.6451    1.1547   -9.9140 C   0  0  1  0  0  0  0  0  0  0  0  0
   -4.5518    3.5740  -10.4172 N   0  3  0  0  0  0  0  0  0  0  0  0
   -9.0087    1.5010   -9.5738 N   0  3  0  0  0  0  0  0  0  0  0  0
   -4.9005   -1.1287   -9.1221 O   0  0  0  0  0  0  0  0  0  0  0  0
   -7.6755   -0.9692   -9.0980 O   0  0  0  0  0  0  0  0  0  0  0  0
   -3.4502    0.8742  -10.6724 O   0  0  0  0  0  0  0  0  0  0  0  0
   -7.9536   -1.3138   -7.7689 C   0  0  2  0  0  0  0  0  0  0  0  0
   -7.6040   -2.7860   -7.5275 C   0  0  1  0  0  0  0  0  0  0  0  0
   -8.6408   -3.7086   -8.1690 C   0  0  0  0  0  0  0  0  0  0  0  0
  -10.0254   -3.3052   -7.6883 C   0  0  1  0  0  0  0  0  0  0  0  0
  -10.2779   -1.8531   -8.0546 C   0  0  1  0  0  0  0  0  0  0  0  0
  -11.6520   -1.3914   -7.6044 C   0  0  0  0  0  0  0  0  0  0  0  0
   -6.2546   -3.0798   -8.1076 N   0  3  0  0  0  0  0  0  0  0  0  0
  -12.0730   -0.2507   -8.4901 N   0  3  0  0  0  0  0  0  0  0  0  0
  -11.0150   -4.1344   -8.2808 O   0  0  0  0  0  0  0  0  0  0  0  0
   -9.2993   -1.0226   -7.4070 O   0  0  0  0  0  0  0  0  0  0  0  0
  1  2  1  0  0  0  0
  1 22  1  1  0  0  0
  1 10  1  0  0  0  0
  2  3  1  0  0  0  0
  2  7  1  1  0  0  0
  3  4  1  0  0  0  0
  3  8  1  6  0  0  0
  4  5  1  0  0  0  0
  4  9  1  1  0  0  0
  5  6  1  6  0  0  0
  5 10  1  0  0  0  0
  6 11  1  0  0  0  0
 12 13  1  0  0  0  0
 12 17  1  0  0  0  0
 12 18  1  1  0  0  0
 13 14  1  0  0  0  0
 14 15  1  0  0  0  0
 14 19  1  1  0  0  0
 15 16  1  0  0  0  0
 15 21  1  6  0  0  0
 16 17  1  0  0  0  0
 16 20  1  1  0  0  0
 17 22  1  6  0  0  0
 23 21  1  6  0  0  0
 23 24  1  0  0  0  0
 23 32  1  0  0  0  0
 24 25  1  0  0  0  0
 24 29  1  6  0  0  0
 25 26  1  0  0  0  0
 26 27  1  0  0  0  0
 26 31  1  6  0  0  0
 27 28  1  1  0  0  0
 27 32  1  0  0  0  0
 28 30  1  0  0  0  0
M  CHG  5   8   1  18   1  19   1  29   1  30   1
M  END
>  <CHROM.1>
-162.37901939,-50.08183373,-166.44786258,-58.25220769,-65.99766222,58.12369519
-131.35715133,97.34890574,-122.62981274,177.30839126,-2.95749071,-129.94329335
141.45005455,-49.98500011,-154.75694470,17.02204940,-5.45228384,0.31626850
-9.81004566,0.44626637,0.31003236,-0.07641728

>  <Name>
2tob cryst

>  <RI>
3.75586e+07

>  <Rbt.Current_Directory>
/home/itssahil/PROJECTS/Mol_Feturizer/New_Systems/rnas/2tob

>  <Rbt.Executable>
rbdock ($Id: //depot/dev/client3/rdock/2013.1/src/exe/rbdock.cxx#4 $)

>  <Rbt.Library>
libRbt.so (2013.1, Build901 2013/11/27)

>  <Rbt.Parameter_File>
/export/apps/rDock/src/rDock_2013.1_src/data/scripts/dock_solv.prm

>  <Rbt.Receptor>
prm/pocket_docking_8.prm

>  <SCORE>
-40.3639

>  <SCORE.INTER>
-39.842

>  <SCORE.INTER.CONST>
1

>  <SCORE.INTER.POLAR>
-6.46827

>  <SCORE.INTER.ROT>
6

>  <SCORE.INTER.SOLV>
38.0613

>  <SCORE.INTER.VDW>
-25.2875

>  <SCORE.INTER.norm>
-1.24506

>  <SCORE.INTRA>
-0.554081

>  <SCORE.INTRA.DIHEDRAL>
18.8381

>  <SCORE.INTRA.DIHEDRAL.0>
18.4221

>  <SCORE.INTRA.POLAR>
-0.425485

>  <SCORE.INTRA.POLAR.0>
-1.57101

>  <SCORE.INTRA.REPUL>
-0.730195

>  <SCORE.INTRA.REPUL.0>
0.730195

>  <SCORE.INTRA.SOLV>
1.24505

>  <SCORE.INTRA.SOLV.lig_0>
-127.221

>  <SCORE.INTRA.VDW>
-5.49805

>  <SCORE.INTRA.VDW.0>
10.8385

>  <SCORE.INTRA.norm>
-0.017315

>  <SCORE.RESTR>
0.0321429

>  <SCORE.RESTR.CAVITY>
0.0321429

>  <SCORE.RESTR.norm>
0.00100446

>  <SCORE.SYSTEM>
0

>  <SCORE.SYSTEM.CONST>
0

>  <SCORE.SYSTEM.DIHEDRAL>
0

>  <SCORE.SYSTEM.SOLV>
0

>  <SCORE.SYSTEM.norm>
0

>  <SCORE.heavy>
32

>  <SCORE.norm>
-1.26137

>  <RMSD>
6.336

$$$$
2tob cryst
 OpenBabel11021811463D
libRbt.so/2013.1/901 2013/11/27
 32 34  0  0  0  0  0  0  0  0999 V2000
  -12.2070   -3.4627   -7.7427 C   0  0  2  0  0  0  0  0  0  0  0  0
  -12.5429   -2.0183   -8.1002 C   0  0  1  0  0  0  0  0  0  0  0  0
  -11.2437   -1.2608   -8.3758 C   0  0  2  0  0  0  0  0  0  0  0  0
  -10.2805   -1.3774   -7.1870 C   0  0  1  0  0  0  0  0  0  0  0  0
  -10.0937   -2.8503   -6.8067 C   0  0  1  0  0  0  0  0  0  0  0  0
   -9.2715   -3.0729   -5.5478 C   0  0  0  0  0  0  0  0  0  0  0  0
  -13.3771   -1.9834   -9.2551 O   0  0  0  0  0  0  0  0  0  0  0  0
  -11.3506    0.1900   -8.7304 N   0  3  0  0  0  0  0  0  0  0  0  0
   -9.0285   -0.8084   -7.5489 O   0  0  0  0  0  0  0  0  0  0  0  0
  -11.3783   -3.4696   -6.5956 O   0  0  0  0  0  0  0  0  0  0  0  0
   -7.9681   -2.5169   -5.6888 O   0  0  0  0  0  0  0  0  0  0  0  0
  -11.3253   -6.1662   -7.6925 C   0  0  2  0  0  0  0  0  0  0  0  0
  -11.7151   -7.6490   -7.6266 C   0  0  0  0  0  0  0  0  0  0  0  0
  -13.1699   -7.8815   -8.0249 C   0  0  1  0  0  0  0  0  0  0  0  0
  -13.3803   -7.3241   -9.4259 C   0  0  2  0  0  0  0  0  0  0  0  0
  -13.1576   -5.8097   -9.4109 C   0  0  1  0  0  0  0  0  0  0  0  0
  -11.7075   -5.4814   -9.0143 C   0  0  1  0  0  0  0  0  0  0  0  0
   -9.8507   -5.9966   -7.4644 N   0  3  0  0  0  0  0  0  0  0  0  0
  -13.5205   -9.3377   -7.9568 N   0  3  0  0  0  0  0  0  0  0  0  0
  -13.4491   -5.2778  -10.6970 O   0  0  0  0  0  0  0  0  0  0  0  0
  -14.7089   -7.6214   -9.8926 O   0  0  0  0  0  0  0  0  0  0  0  0
  -11.5610   -4.0571   -8.8359 O   0  0  0  0  0  0  0  0  0  0  0  0
  -14.8495   -7.5104  -11.2821 C   0  0  2  0  0  0  0  0  0  0  0  0
  -16.2658   -7.9217  -11.6978 C   0  0  1  0  0  0  0  0  0  0  0  0
  -16.4407   -9.4388  -11.6239 C   0  0  0  0  0  0  0  0  0  0  0  0
  -15.3333  -10.1032  -12.4259 C   0  0  1  0  0  0  0  0  0  0  0  0
  -13.9871   -9.6756  -11.8678 C   0  0  1  0  0  0  0  0  0  0  0  0
  -12.8370  -10.3130  -12.6262 C   0  0  0  0  0  0  0  0  0  0  0  0
  -17.2619   -7.2646  -10.7924 N   0  3  0  0  0  0  0  0  0  0  0  0
  -12.9908   -9.9665  -14.0820 N   0  3  0  0  0  0  0  0  0  0  0  0
  -15.4580  -11.5169  -12.3631 O   0  0  0  0  0  0  0  0  0  0  0  0
  -13.8557   -8.2488  -11.9848 O   0  0  0  0  0  0  0  0  0  0  0  0
  1  2  1  0  0  0  0
  1 22  1  6  0  0  0
  1 10  1  0  0  0  0
  2  3  1  0  0  0  0
  2  7  1  6  0  0  0
  3  4  1  0  0  0  0
  3  8  1  1  0  0  0
  4  5  1  0  0  0  0
  4  9  1  6  0  0  0
  5  6  1  1  0  0  0
  5 10  1  0  0  0  0
  6 11  1  0  0  0  0
 12 13  1  0  0  0  0
 12 17  1  0  0  0  0
 12 18  1  6  0  0  0
 13 14  1  0  0  0  0
 14 15  1  0  0  0  0
 14 19  1  6  0  0  0
 15 16  1  0  0  0  0
 15 21  1  1  0  0  0
 16 17  1  0  0  0  0
 16 20  1  6  0  0  0
 17 22  1  1  0  0  0
 23 21  1  1  0  0  0
 23 24  1  0  0  0  0
 23 32  1  0  0  0  0
 24 25  1  0  0  0  0
 24 29  1  1  0  0  0
 25 26  1  0  0  0  0
 26 27  1  0  0  0  0
 26 31  1  1  0  0  0
 27 28  1  6  0  0  0
 27 32  1  0  0  0  0
 28 30  1  0  0  0  0
M  CHG  5   8   1  18   1  19   1  29   1  30   1
M  END
>  <CHROM.1>
-151.18576766,174.61873905,-61.81592849,-173.81560058,-59.28175665,-89.57037562
-179.01415300,-179.61225129,-161.77192105,164.24644036,-52.52697539,176.71898988
-39.32804285,57.49146907,55.87271084,64.61527512,-12.65749716,-5.82771202
-9.33682440,0.91937928,-0.69346328,0.10220952

>  <Name>
2tob cryst

>  <RI>
3.75586e+07

>  <Rbt.Current_Directory>
/home/itssahil/PROJECTS/Mol_Feturizer/New_Systems/rnas/2tob

>  <Rbt.Executable>
rbdock ($Id: //depot/dev/client3/rdock/2013.1/src/exe/rbdock.cxx#4 $)

>  <Rbt.Library>
libRbt.so (2013.1, Build901 2013/11/27)

>  <Rbt.Parameter_File>
/export/apps/rDock/src/rDock_2013.1_src/data/scripts/dock_solv.prm

>  <Rbt.Receptor>
prm/pocket_docking_8.prm

>  <SCORE>
-54.96

>  <SCORE.INTER>
-35.1325

>  <SCORE.INTER.CONST>
1

>  <SCORE.INTER.POLAR>
-6.60506

>  <SCORE.INTER.ROT>
6

>  <SCORE.INTER.SOLV>
18.9017

>  <SCORE.INTER.VDW>
-15.3054

>  <SCORE.INTER.norm>
-1.09789

>  <SCORE.INTRA>
-19.8275

>  <SCORE.INTRA.DIHEDRAL>
-6.85406

>  <SCORE.INTRA.DIHEDRAL.0>
18.4221

>  <SCORE.INTRA.POLAR>
0.727486

>  <SCORE.INTRA.POLAR.0>
-1.57101

>  <SCORE.INTRA.REPUL>
-0.730195

>  <SCORE.INTRA.REPUL.0>
0.730195

>  <SCORE.INTRA.SOLV>
-5.00757

>  <SCORE.INTRA.SOLV.lig_0>
-127.221

>  <SCORE.INTRA.VDW>
-12.7191

>  <SCORE.INTRA.VDW.0>
10.8385

>  <SCORE.INTRA.norm>
-0.619608

>  <SCORE.RESTR>
0

>  <SCORE.RESTR.CAVITY>
0

>  <SCORE.RESTR.norm>
0

>  <SCORE.SYSTEM>
0

>  <SCORE.SYSTEM.CONST>
0

>  <SCORE.SYSTEM.DIHEDRAL>
0

>  <SCORE.SYSTEM.SOLV>
0

>  <SCORE.SYSTEM.norm>
0

>  <SCORE.heavy>
32

>  <SCORE.norm>
-1.7175

>  <RMSD>
6.348

$$$$
2tob cryst
 OpenBabel11021811463D
libRbt.so/2013.1/901 2013/11/27
 32 34  0  0  0  0  0  0  0  0999 V2000
   -7.0440   -0.7509   -9.4579 C   0  0  2  0  0  0  0  0  0  0  0  0
   -6.1935    0.3366  -10.1067 C   0  0  1  0  0  0  0  0  0  0  0  0
   -6.7144    1.7040   -9.6633 C   0  0  2  0  0  0  0  0  0  0  0  0
   -8.2105    1.8456   -9.9736 C   0  0  1  0  0  0  0  0  0  0  0  0
   -8.9800    0.6512   -9.3992 C   0  0  1  0  0  0  0  0  0  0  0  0
  -10.4526    0.6158   -9.7737 C   0  0  0  0  0  0  0  0  0  0  0  0
   -4.8312    0.1882   -9.7157 O   0  0  0  0  0  0  0  0  0  0  0  0
   -6.0234    2.9166  -10.2056 N   0  3  0  0  0  0  0  0  0  0  0  0
   -8.6900    3.0534   -9.3960 O   0  0  0  0  0  0  0  0  0  0  0  0
   -8.3899   -0.5806   -9.8604 O   0  0  0  0  0  0  0  0  0  0  0  0
  -11.1865    1.5885   -9.0368 O   0  0  0  0  0  0  0  0  0  0  0  0
   -7.6293   -2.7862   -7.2072 C   0  0  2  0  0  0  0  0  0  0  0  0
   -8.4289   -3.5472   -6.1411 C   0  0  0  0  0  0  0  0  0  0  0  0
   -8.3422   -2.8815   -4.7704 C   0  0  1  0  0  0  0  0  0  0  0  0
   -8.8342   -1.4466   -4.9003 C   0  0  2  0  0  0  0  0  0  0  0  0
   -7.9018   -0.6704   -5.8337 C   0  0  1  0  0  0  0  0  0  0  0  0
   -7.9247   -1.2785   -7.2471 C   0  0  1  0  0  0  0  0  0  0  0  0
   -7.8777   -3.3677   -8.5694 N   0  3  0  0  0  0  0  0  0  0  0  0
   -9.1363   -3.6424   -3.7513 N   0  3  0  0  0  0  0  0  0  0  0  0
   -8.3059    0.6922   -5.8770 O   0  0  0  0  0  0  0  0  0  0  0  0
   -8.8797   -0.8105   -3.6100 O   0  0  0  0  0  0  0  0  0  0  0  0
   -6.9166   -0.6492   -8.0653 O   0  0  0  0  0  0  0  0  0  0  0  0
   -8.9979   -1.7148   -2.5466 C   0  0  2  0  0  0  0  0  0  0  0  0
  -10.2677   -1.4130   -1.7438 C   0  0  1  0  0  0  0  0  0  0  0  0
  -10.0910   -0.1580   -0.8886 C   0  0  0  0  0  0  0  0  0  0  0  0
   -8.8357   -0.3083   -0.0446 C   0  0  1  0  0  0  0  0  0  0  0  0
   -7.6423   -0.5250   -0.9586 C   0  0  1  0  0  0  0  0  0  0  0  0
   -6.3530   -0.6770   -0.1720 C   0  0  0  0  0  0  0  0  0  0  0  0
  -11.4164   -1.2129   -2.6840 N   0  3  0  0  0  0  0  0  0  0  0  0
   -5.2927   -1.1858   -1.1100 N   0  3  0  0  0  0  0  0  0  0  0  0
   -8.6335    0.8512    0.7509 O   0  0  0  0  0  0  0  0  0  0  0  0
   -7.8391   -1.7287   -1.7197 O   0  0  0  0  0  0  0  0  0  0  0  0
  1  2  1  0  0  0  0
  1 22  1  1  0  0  0
  1 10  1  0  0  0  0
  2  3  1  0  0  0  0
  2  7  1  1  0  0  0
  3  4  1  0  0  0  0
  3  8  1  6  0  0  0
  4  5  1  0  0  0  0
  4  9  1  1  0  0  0
  5  6  1  6  0  0  0
  5 10  1  0  0  0  0
  6 11  1  0  0  0  0
 12 13  1  0  0  0  0
 12 17  1  0  0  0  0
 12 18  1  6  0  0  0
 13 14  1  0  0  0  0
 14 15  1  0  0  0  0
 14 19  1  1  0  0  0
 15 16  1  0  0  0  0
 15 21  1  1  0  0  0
 16 17  1  0  0  0  0
 16 20  1  6  0  0  0
 17 22  1  6  0  0  0
 23 21  1  6  0  0  0
 23 24  1  0  0  0  0
 23 32  1  0  0  0  0
 24 25  1  0  0  0  0
 24 29  1  6  0  0  0
 25 26  1  0  0  0  0
 26 27  1  0  0  0  0
 26 31  1  6  0  0  0
 27 28  1  1  0  0  0
 27 32  1  0  0  0  0
 28 30  1  0  0  0  0
M  CHG  5   8   1  18   1  19   1  29   1  30   1
M  END
>  <CHROM.1>
161.06098128,178.31080306,-119.92798542,-62.52535755,-74.57951256,-62.35030253
0.70208086,55.90379621,-23.96613020,-63.53190733,78.17705050,-121.24670739
-69.05890129,106.68553809,167.61299783,-56.66777343,-8.19304363,-0.49848914
-5.74715106,-1.12153801,-1.34644931,2.21600352

>  <Name>
2tob cryst

>  <RI>
0

>  <Rbt.Current_Directory>
/home/itssahil/PROJECTS/Mol_Feturizer/New_Systems/rnas/2tob

>  <Rbt.Executable>
rbdock ($Id: //depot/dev/client3/rdock/2013.1/src/exe/rbdock.cxx#4 $)

>  <Rbt.Library>
libRbt.so (2013.1, Build901 2013/11/27)

>  <Rbt.Parameter_File>
/export/apps/rDock/src/rDock_2013.1_src/data/scripts/dock_solv.prm

>  <Rbt.Receptor>
prm/blind_docking_40.prm

>  <SCORE>
-5.50441

>  <SCORE.INTER>
-25.0715

>  <SCORE.INTER.CONST>
1

>  <SCORE.INTER.POLAR>
-4.22212

>  <SCORE.INTER.ROT>
6

>  <SCORE.INTER.SOLV>
33.9996

>  <SCORE.INTER.VDW>
-21.5738

>  <SCORE.INTER.norm>
-0.783483

>  <SCORE.INTRA>
10.4599

>  <SCORE.INTRA.DIHEDRAL>
11.6756

>  <SCORE.INTRA.DIHEDRAL.0>
18.4221

>  <SCORE.INTRA.POLAR>
0.157688

>  <SCORE.INTRA.POLAR.0>
-1.57101

>  <SCORE.INTRA.REPUL>
-0.699253

>  <SCORE.INTRA.REPUL.0>
0.730195

>  <SCORE.INTRA.SOLV>
-2.14843

>  <SCORE.INTRA.SOLV.lig_0>
-127.221

>  <SCORE.INTRA.VDW>
8.6564

>  <SCORE.INTRA.VDW.0>
10.8385

>  <SCORE.INTRA.norm>
0.326871

>  <SCORE.RESTR>
9.10719

>  <SCORE.RESTR.CAVITY>
9.10719

>  <SCORE.RESTR.norm>
0.2846

>  <SCORE.SYSTEM>
0

>  <SCORE.SYSTEM.CONST>
0

>  <SCORE.SYSTEM.DIHEDRAL>
0

>  <SCORE.SYSTEM.SOLV>
0

>  <SCORE.SYSTEM.norm>
0

>  <SCORE.heavy>
32

>  <SCORE.norm>
-0.172013

>  <RMSD>
6.406

$$$$
2tob cryst
 OpenBabel11021811463D
libRbt.so/2013.1/901 2013/11/27
 32 34  0  0  0  0  0  0  0  0999 V2000
  -11.9382   -3.4627   -7.1905 C   0  0  2  0  0  0  0  0  0  0  0  0
  -13.4413   -3.2744   -7.0113 C   0  0  1  0  0  0  0  0  0  0  0  0
  -14.0185   -2.6540   -8.2840 C   0  0  2  0  0  0  0  0  0  0  0  0
  -13.2874   -1.3520   -8.6374 C   0  0  1  0  0  0  0  0  0  0  0  0
  -11.7745   -1.5939   -8.6731 C   0  0  1  0  0  0  0  0  0  0  0  0
  -10.9436   -0.3367   -8.8715 C   0  0  0  0  0  0  0  0  0  0  0  0
  -14.0636   -4.5317   -6.7611 O   0  0  0  0  0  0  0  0  0  0  0  0
  -15.4881   -2.3687   -8.3095 N   0  3  0  0  0  0  0  0  0  0  0  0
  -13.7357   -0.9007   -9.9092 O   0  0  0  0  0  0  0  0  0  0  0  0
  -11.3452   -2.2019   -7.4385 O   0  0  0  0  0  0  0  0  0  0  0  0
   -9.5560   -0.6165   -8.7164 O   0  0  0  0  0  0  0  0  0  0  0  0
   -9.8862   -5.4286   -7.1349 C   0  0  2  0  0  0  0  0  0  0  0  0
   -9.3456   -6.7123   -6.4907 C   0  0  0  0  0  0  0  0  0  0  0  0
  -10.4294   -7.4824   -5.7413 C   0  0  1  0  0  0  0  0  0  0  0  0
  -11.5584   -7.7940   -6.7142 C   0  0  2  0  0  0  0  0  0  0  0  0
  -12.1915   -6.4863   -7.1961 C   0  0  1  0  0  0  0  0  0  0  0  0
  -11.1621   -5.6397   -7.9651 C   0  0  1  0  0  0  0  0  0  0  0  0
   -8.8395   -4.7917   -8.0033 N   0  3  0  0  0  0  0  0  0  0  0  0
   -9.8746   -8.7331   -5.1280 N   0  3  0  0  0  0  0  0  0  0  0  0
  -13.3067   -6.7812   -8.0276 O   0  0  0  0  0  0  0  0  0  0  0  0
  -12.5543   -8.6195   -6.0831 O   0  0  0  0  0  0  0  0  0  0  0  0
  -11.7204   -4.3424   -8.2603 O   0  0  0  0  0  0  0  0  0  0  0  0
  -13.1429   -9.5463   -6.9534 C   0  0  2  0  0  0  0  0  0  0  0  0
  -14.6123   -9.7580   -6.5740 C   0  0  1  0  0  0  0  0  0  0  0  0
  -14.7355  -10.6040   -5.3065 C   0  0  0  0  0  0  0  0  0  0  0  0
  -13.9437  -11.8884   -5.4912 C   0  0  1  0  0  0  0  0  0  0  0  0
  -12.4941  -11.5436   -5.7850 C   0  0  1  0  0  0  0  0  0  0  0  0
  -11.6480  -12.7895   -5.9744 C   0  0  0  0  0  0  0  0  0  0  0  0
  -15.2651   -8.4291   -6.3468 N   0  3  0  0  0  0  0  0  0  0  0  0
  -11.3590  -12.9370   -7.4433 N   0  3  0  0  0  0  0  0  0  0  0  0
  -14.0242  -12.6908   -4.3217 O   0  0  0  0  0  0  0  0  0  0  0  0
  -12.4250  -10.7749   -6.9980 O   0  0  0  0  0  0  0  0  0  0  0  0
  1  2  1  0  0  0  0
  1 22  1  6  0  0  0
  1 10  1  0  0  0  0
  2  3  1  0  0  0  0
  2  7  1  6  0  0  0
  3  4  1  0  0  0  0
  3  8  1  1  0  0  0
  4  5  1  0  0  0  0
  4  9  1  6  0  0  0
  5  6  1  1  0  0  0
  5 10  1  0  0  0  0
  6 11  1  0  0  0  0
 12 13  1  0  0  0  0
 12 17  1  0  0  0  0
 12 18  1  6  0  0  0
 13 14  1  0  0  0  0
 14 15  1  0  0  0  0
 14 19  1  6  0  0  0
 15 16  1  0  0  0  0
 15 21  1  1  0  0  0
 16 17  1  0  0  0  0
 16 20  1  6  0  0  0
 17 22  1  1  0  0  0
 23 21  1  1  0  0  0
 23 24  1  0  0  0  0
 23 32  1  0  0  0  0
 24 25  1  0  0  0  0
 24 29  1  1  0  0  0
 25 26  1  0  0  0  0
 26 27  1  0  0  0  0
 26 31  1  1  0  0  0
 27 28  1  6  0  0  0
 27 32  1  0  0  0  0
 28 30  1  0  0  0  0
M  CHG  5   8   1  18   1  19   1  29   1  30   1
M  END
>  <CHROM.1>
-112.35141907,64.96615145,-31.47559152,68.60710684,172.27994001,176.93448791
12.19718194,171.39108671,-145.06401920,173.31128697,-52.32627008,-146.08380710
160.10384700,62.96818478,105.46507849,-173.80032793,-12.32606650,-6.46086173
-7.13090652,-1.49587989,0.00576809,2.87950167

>  <Name>
2tob cryst

>  <RI>
0

>  <Rbt.Current_Directory>
/home/itssahil/PROJECTS/Mol_Feturizer/New_Systems/rnas/2tob

>  <Rbt.Executable>
rbdock ($Id: //depot/dev/client3/rdock/2013.1/src/exe/rbdock.cxx#4 $)

>  <Rbt.Library>
libRbt.so (2013.1, Build901 2013/11/27)

>  <Rbt.Parameter_File>
/export/apps/rDock/src/rDock_2013.1_src/data/scripts/dock_solv.prm

>  <Rbt.Receptor>
prm/pocket_docking_6.prm

>  <SCORE>
-42.8589

>  <SCORE.INTER>
-28.3319

>  <SCORE.INTER.CONST>
1

>  <SCORE.INTER.POLAR>
-4.67513

>  <SCORE.INTER.ROT>
6

>  <SCORE.INTER.SOLV>
20.8645

>  <SCORE.INTER.VDW>
-17.859

>  <SCORE.INTER.norm>
-0.885371

>  <SCORE.INTRA>
-14.5271

>  <SCORE.INTRA.DIHEDRAL>
9.22244

>  <SCORE.INTRA.DIHEDRAL.0>
18.4221

>  <SCORE.INTRA.POLAR>
0.0394491

>  <SCORE.INTRA.POLAR.0>
-1.57101

>  <SCORE.INTRA.REPUL>
-0.730195

>  <SCORE.INTRA.REPUL.0>
0.730195

>  <SCORE.INTRA.SOLV>
-4.78528

>  <SCORE.INTRA.SOLV.lig_0>
-127.221

>  <SCORE.INTRA.VDW>
-13.2288

>  <SCORE.INTRA.VDW.0>
10.8385

>  <SCORE.INTRA.norm>
-0.45397

>  <SCORE.RESTR>
0

>  <SCORE.RESTR.CAVITY>
0

>  <SCORE.RESTR.norm>
0

>  <SCORE.SYSTEM>
0

>  <SCORE.SYSTEM.CONST>
0

>  <SCORE.SYSTEM.DIHEDRAL>
0

>  <SCORE.SYSTEM.SOLV>
0

>  <SCORE.SYSTEM.norm>
0

>  <SCORE.heavy>
32

>  <SCORE.norm>
-1.33934

>  <RMSD>
6.422

$$$$
2tob cryst
 OpenBabel11021811463D
libRbt.so/2013.1/901 2013/11/27
 32 34  0  0  0  0  0  0  0  0999 V2000
   -3.9318    3.1106  -10.5671 C   0  0  2  0  0  0  0  0  0  0  0  0
   -3.9565    4.5676  -11.0183 C   0  0  1  0  0  0  0  0  0  0  0  0
   -3.1794    4.6940  -12.3289 C   0  0  2  0  0  0  0  0  0  0  0  0
   -1.7581    4.1357  -12.1774 C   0  0  1  0  0  0  0  0  0  0  0  0
   -1.8114    2.7171  -11.5998 C   0  0  1  0  0  0  0  0  0  0  0  0
   -0.4515    2.1225  -11.2724 C   0  0  0  0  0  0  0  0  0  0  0  0
   -5.3021    4.9954  -11.2109 O   0  0  0  0  0  0  0  0  0  0  0  0
   -3.0671    6.0573  -12.9378 N   0  3  0  0  0  0  0  0  0  0  0  0
   -1.1310    4.1155  -13.4536 O   0  0  0  0  0  0  0  0  0  0  0  0
   -2.5867    2.7107  -10.3844 O   0  0  0  0  0  0  0  0  0  0  0  0
   -0.5691    0.7443  -10.9339 O   0  0  0  0  0  0  0  0  0  0  0  0
   -3.8436    0.1889  -10.6956 C   0  0  2  0  0  0  0  0  0  0  0  0
   -4.2290   -1.1086   -9.9722 C   0  0  0  0  0  0  0  0  0  0  0  0
   -5.2524   -0.8700   -8.8654 C   0  0  1  0  0  0  0  0  0  0  0  0
   -6.4764   -0.2026   -9.4774 C   0  0  2  0  0  0  0  0  0  0  0  0
   -6.0859    1.1711  -10.0286 C   0  0  1  0  0  0  0  0  0  0  0  0
   -5.0482    1.0252  -11.1555 C   0  0  1  0  0  0  0  0  0  0  0  0
   -2.9735   -0.1066  -11.8834 N   0  3  0  0  0  0  0  0  0  0  0  0
   -5.6141   -2.1540   -8.1808 N   0  3  0  0  0  0  0  0  0  0  0  0
   -7.2481    1.8327  -10.5117 O   0  0  0  0  0  0  0  0  0  0  0  0
   -7.5177   -0.0602   -8.4941 O   0  0  0  0  0  0  0  0  0  0  0  0
   -4.5633    2.3276  -11.5436 O   0  0  0  0  0  0  0  0  0  0  0  0
   -8.6751   -0.7883   -8.7987 C   0  0  2  0  0  0  0  0  0  0  0  0
   -9.8841   -0.1659   -8.0922 C   0  0  1  0  0  0  0  0  0  0  0  0
   -9.8671   -0.4801   -6.5960 C   0  0  0  0  0  0  0  0  0  0  0  0
   -9.7358   -1.9829   -6.4085 C   0  0  1  0  0  0  0  0  0  0  0  0
   -8.4639   -2.4616   -7.0868 C   0  0  1  0  0  0  0  0  0  0  0  0
   -8.2731   -3.9592   -6.9290 C   0  0  0  0  0  0  0  0  0  0  0  0
   -9.8645    1.3193   -8.2856 N   0  3  0  0  0  0  0  0  0  0  0  0
   -9.0018   -4.6422   -8.0540 N   0  3  0  0  0  0  0  0  0  0  0  0
   -9.7000   -2.3070   -5.0259 O   0  0  0  0  0  0  0  0  0  0  0  0
   -8.5374   -2.1719   -8.4930 O   0  0  0  0  0  0  0  0  0  0  0  0
  1  2  1  0  0  0  0
  1 22  1  6  0  0  0
  1 10  1  0  0  0  0
  2  3  1  0  0  0  0
  2  7  1  6  0  0  0
  3  4  1  0  0  0  0
  3  8  1  1  0  0  0
  4  5  1  0  0  0  0
  4  9  1  6  0  0  0
  5  6  1  1  0  0  0
  5 10  1  0  0  0  0
  6 11  1  0  0  0  0
 12 13  1  0  0  0  0
 12 17  1  0  0  0  0
 12 18  1  6  0  0  0
 13 14  1  0  0  0  0
 14 15  1  0  0  0  0
 14 19  1  6  0  0  0
 15 16  1  0  0  0  0
 15 21  1  1  0  0  0
 16 17  1  0  0  0  0
 16 20  1  6  0  0  0
 17 22  1  1  0  0  0
 23 21  1  1  0  0  0
 23 24  1  0  0  0  0
 23 32  1  0  0  0  0
 24 25  1  0  0  0  0
 24 29  1  1  0  0  0
 25 26  1  0  0  0  0
 26 27  1  0  0  0  0
 26 31  1  1  0  0  0
 27 28  1  6  0  0  0
 27 32  1  0  0  0  0
 28 30  1  0  0  0  0
M  CHG  5   8   1  18   1  19   1  29   1  30   1
M  END
>  <CHROM.1>
-159.93385905,66.72724658,74.01327062,-54.45458590,-171.26971328,-174.22978295
-115.87053770,-72.04983640,-116.57178658,-179.38752464,-61.44459228,-156.40039631
-47.25524641,179.25014530,87.21025294,-92.46527409,-5.57642958,0.76403230
-9.78126295,0.77257812,0.36918449,-0.33961431

>  <Name>
2tob cryst

>  <RI>
2.10184e+07

>  <Rbt.Current_Directory>
/home/itssahil/PROJECTS/Mol_Feturizer/New_Systems/rnas/2tob

>  <Rbt.Executable>
rbdock ($Id: //depot/dev/client3/rdock/2013.1/src/exe/rbdock.cxx#4 $)

>  <Rbt.Library>
libRbt.so (2013.1, Build901 2013/11/27)

>  <Rbt.Parameter_File>
/export/apps/rDock/src/rDock_2013.1_src/data/scripts/dock_solv.prm

>  <Rbt.Receptor>
prm/pocket_docking_7.prm

>  <SCORE>
-58.5884

>  <SCORE.INTER>
-43.3088

>  <SCORE.INTER.CONST>
1

>  <SCORE.INTER.POLAR>
-6.99354

>  <SCORE.INTER.ROT>
6

>  <SCORE.INTER.SOLV>
35.1559

>  <SCORE.INTER.VDW>
-24.8794

>  <SCORE.INTER.norm>
-1.3534

>  <SCORE.INTRA>
-15.2922

>  <SCORE.INTRA.DIHEDRAL>
2.8631

>  <SCORE.INTRA.DIHEDRAL.0>
18.4221

>  <SCORE.INTRA.POLAR>
-0.0648556

>  <SCORE.INTRA.POLAR.0>
-1.57101

>  <SCORE.INTRA.REPUL>
-0.730195

>  <SCORE.INTRA.REPUL.0>
0.730195

>  <SCORE.INTRA.SOLV>
0.763716

>  <SCORE.INTRA.SOLV.lig_0>
-127.221

>  <SCORE.INTRA.VDW>
-13.2342

>  <SCORE.INTRA.VDW.0>
10.8385

>  <SCORE.INTRA.norm>
-0.477882

>  <SCORE.RESTR>
0.0126536

>  <SCORE.RESTR.CAVITY>
0.0126536

>  <SCORE.RESTR.norm>
0.000395425

>  <SCORE.SYSTEM>
0

>  <SCORE.SYSTEM.CONST>
0

>  <SCORE.SYSTEM.DIHEDRAL>
0

>  <SCORE.SYSTEM.SOLV>
0

>  <SCORE.SYSTEM.norm>
0

>  <SCORE.heavy>
32

>  <SCORE.norm>
-1.83089

>  <RMSD>
6.431

$$$$
2tob cryst
 OpenBabel11021811463D
libRbt.so/2013.1/901 2013/11/27
 32 34  0  0  0  0  0  0  0  0999 V2000
  -11.6481   -3.2850   -8.5679 C   0  0  2  0  0  0  0  0  0  0  0  0
  -12.9829   -3.4176   -7.8414 C   0  0  1  0  0  0  0  0  0  0  0  0
  -12.7171   -3.6307   -6.3509 C   0  0  2  0  0  0  0  0  0  0  0  0
  -11.7893   -4.8324   -6.1277 C   0  0  1  0  0  0  0  0  0  0  0  0
  -10.5290   -4.6880   -6.9878 C   0  0  1  0  0  0  0  0  0  0  0  0
   -9.6060   -5.8951   -6.9542 C   0  0  0  0  0  0  0  0  0  0  0  0
  -13.7597   -2.2378   -8.0301 O   0  0  0  0  0  0  0  0  0  0  0  0
  -13.9038   -3.8031   -5.4543 N   0  3  0  0  0  0  0  0  0  0  0  0
  -11.4325   -4.8918   -4.7524 O   0  0  0  0  0  0  0  0  0  0  0  0
  -10.8966   -4.4667   -8.3641 O   0  0  0  0  0  0  0  0  0  0  0  0
   -9.4129   -6.3485   -5.6182 O   0  0  0  0  0  0  0  0  0  0  0  0
  -11.2263    0.1915   -8.5097 C   0  0  2  0  0  0  0  0  0  0  0  0
  -10.6790    1.4370   -9.2199 C   0  0  0  0  0  0  0  0  0  0  0  0
   -9.1532    1.4671   -9.2382 C   0  0  1  0  0  0  0  0  0  0  0  0
   -8.6548    0.1941   -9.9082 C   0  0  2  0  0  0  0  0  0  0  0  0
   -9.0679   -1.0185   -9.0701 C   0  0  1  0  0  0  0  0  0  0  0  0
  -10.6011   -1.1257   -8.9953 C   0  0  1  0  0  0  0  0  0  0  0  0
  -12.7180    0.1085   -8.6626 N   0  3  0  0  0  0  0  0  0  0  0  0
   -8.6474    2.6904   -9.9423 N   0  3  0  0  0  0  0  0  0  0  0  0
   -8.5189   -2.1976   -9.6450 O   0  0  0  0  0  0  0  0  0  0  0  0
   -7.2232    0.2276  -10.0528 O   0  0  0  0  0  0  0  0  0  0  0  0
  -10.9727   -2.1641   -8.0650 O   0  0  0  0  0  0  0  0  0  0  0  0
   -6.5528    0.5915   -8.8777 C   0  0  2  0  0  0  0  0  0  0  0  0
   -5.4301   -0.4097   -8.5862 C   0  0  1  0  0  0  0  0  0  0  0  0
   -5.9949   -1.7312   -8.0644 C   0  0  0  0  0  0  0  0  0  0  0  0
   -6.9048   -1.4461   -6.8804 C   0  0  1  0  0  0  0  0  0  0  0  0
   -8.0149   -0.5067   -7.3184 C   0  0  1  0  0  0  0  0  0  0  0  0
   -8.9633   -0.1877   -6.1770 C   0  0  0  0  0  0  0  0  0  0  0  0
   -4.6519   -0.6656   -9.8403 N   0  3  0  0  0  0  0  0  0  0  0  0
   -9.6870   -1.4532   -5.8059 N   0  3  0  0  0  0  0  0  0  0  0  0
   -7.4602   -2.6548   -6.3820 O   0  0  0  0  0  0  0  0  0  0  0  0
   -7.4393    0.7300   -7.7724 O   0  0  0  0  0  0  0  0  0  0  0  0
  1  2  1  0  0  0  0
  1 22  1  1  0  0  0
  1 10  1  0  0  0  0
  2  3  1  0  0  0  0
  2  7  1  1  0  0  0
  3  4  1  0  0  0  0
  3  8  1  1  0  0  0
  4  5  1  0  0  0  0
  4  9  1  1  0  0  0
  5  6  1  6  0  0  0
  5 10  1  0  0  0  0
  6 11  1  0  0  0  0
 12 13  1  0  0  0  0
 12 17  1  0  0  0  0
 12 18  1  6  0  0  0
 13 14  1  0  0  0  0
 14 15  1  0  0  0  0
 14 19  1  6  0  0  0
 15 16  1  0  0  0  0
 15 21  1  1  0  0  0
 16 17  1  0  0  0  0
 16 20  1  6  0  0  0
 17 22  1  1  0  0  0
 23 21  1  6  0  0  0
 23 24  1  0  0  0  0
 23 32  1  0  0  0  0
 24 25  1  0  0  0  0
 24 29  1  6  0  0  0
 25 26  1  0  0  0  0
 26 27  1  0  0  0  0
 26 31  1  6  0  0  0
 27 28  1  1  0  0  0
 27 32  1  0  0  0  0
 28 30  1  0  0  0  0
M  CHG  5   8   1  18   1  19   1  29   1  30   1
M  END
>  <CHROM.1>
-122.11733821,173.39933942,169.72372317,-174.54693116,-45.97138925,-169.06499209
-79.73440778,-70.72150528,48.53278947,65.37186045,123.04380731,130.39281756
-149.48395793,68.47389889,-66.36539135,-70.36619983,-9.61648889,-1.76243615
-7.85192976,2.29435249,-0.02479632,2.65334973

>  <Name>
2tob cryst

>  <RI>
0

>  <Rbt.Current_Directory>
/home/itssahil/PROJECTS/Mol_Feturizer/New_Systems/rnas/2tob

>  <Rbt.Executable>
rbdock ($Id: //depot/dev/client3/rdock/2013.1/src/exe/rbdock.cxx#4 $)

>  <Rbt.Library>
libRbt.so (2013.1, Build901 2013/11/27)

>  <Rbt.Parameter_File>
/export/apps/rDock/src/rDock_2013.1_src/data/scripts/dock_solv.prm

>  <Rbt.Receptor>
prm/blind_docking_100.prm

>  <SCORE>
-9.50471

>  <SCORE.INTER>
-20.3207

>  <SCORE.INTER.CONST>
1

>  <SCORE.INTER.POLAR>
-4.38547

>  <SCORE.INTER.ROT>
6

>  <SCORE.INTER.SOLV>
36.6166

>  <SCORE.INTER.VDW>
-18.7345

>  <SCORE.INTER.norm>
-0.635022

>  <SCORE.INTRA>
4.92737

>  <SCORE.INTRA.DIHEDRAL>
9.01732

>  <SCORE.INTRA.DIHEDRAL.0>
18.4221

>  <SCORE.INTRA.POLAR>
-2.64306

>  <SCORE.INTRA.POLAR.0>
-1.57101

>  <SCORE.INTRA.REPUL>
-0.671149

>  <SCORE.INTRA.REPUL.0>
0.730195

>  <SCORE.INTRA.SOLV>
5.28784

>  <SCORE.INTRA.SOLV.lig_0>
-127.221

>  <SCORE.INTRA.VDW>
10.1169

>  <SCORE.INTRA.VDW.0>
10.8385

>  <SCORE.INTRA.norm>
0.15398

>  <SCORE.RESTR>
5.88863

>  <SCORE.RESTR.CAVITY>
5.88863

>  <SCORE.RESTR.norm>
0.18402

>  <SCORE.SYSTEM>
0

>  <SCORE.SYSTEM.CONST>
0

>  <SCORE.SYSTEM.DIHEDRAL>
0

>  <SCORE.SYSTEM.SOLV>
0

>  <SCORE.SYSTEM.norm>
0

>  <SCORE.heavy>
32

>  <SCORE.norm>
-0.297022

>  <RMSD>
6.503

$$$$
2tob cryst
 OpenBabel11021811463D
libRbt.so/2013.1/901 2013/11/27
 32 34  0  0  0  0  0  0  0  0999 V2000
  -10.9807   -2.7292   -8.7418 C   0  0  2  0  0  0  0  0  0  0  0  0
  -12.4866   -2.9516   -8.8398 C   0  0  1  0  0  0  0  0  0  0  0  0
  -13.0967   -2.8362   -7.4426 C   0  0  2  0  0  0  0  0  0  0  0  0
  -12.4092   -3.7985   -6.4649 C   0  0  1  0  0  0  0  0  0  0  0  0
  -10.8902   -3.6021   -6.5177 C   0  0  1  0  0  0  0  0  0  0  0  0
  -10.0997   -4.6056   -5.6940 C   0  0  0  0  0  0  0  0  0  0  0  0
  -13.0680   -1.9782   -9.7031 O   0  0  0  0  0  0  0  0  0  0  0  0
  -14.5744   -3.0402   -7.3139 N   0  3  0  0  0  0  0  0  0  0  0  0
  -12.8853   -3.5399   -5.1501 O   0  0  0  0  0  0  0  0  0  0  0  0
  -10.4287   -3.7060   -7.8795 O   0  0  0  0  0  0  0  0  0  0  0  0
   -9.7948   -5.7645   -6.4632 O   0  0  0  0  0  0  0  0  0  0  0  0
  -10.3366    0.9184   -8.5697 C   0  0  2  0  0  0  0  0  0  0  0  0
   -9.4544    1.9998   -9.2082 C   0  0  0  0  0  0  0  0  0  0  0  0
   -7.9790    1.6091   -9.2181 C   0  0  1  0  0  0  0  0  0  0  0  0
   -7.8369    0.2843   -9.9547 C   0  0  2  0  0  0  0  0  0  0  0  0
   -8.5835   -0.8090   -9.1861 C   0  0  1  0  0  0  0  0  0  0  0  0
  -10.0883   -0.4933   -9.1240 C   0  0  1  0  0  0  0  0  0  0  0  0
  -11.7903    1.2576   -8.7335 N   0  3  0  0  0  0  0  0  0  0  0  0
   -7.1429    2.6802   -9.8520 N   0  3  0  0  0  0  0  0  0  0  0  0
   -8.3688   -2.0625   -9.8222 O   0  0  0  0  0  0  0  0  0  0  0  0
   -6.4488   -0.0705  -10.0909 O   0  0  0  0  0  0  0  0  0  0  0  0
  -10.7488   -1.4355   -8.2536 O   0  0  0  0  0  0  0  0  0  0  0  0
   -5.7573   -0.0937   -8.8727 C   0  0  2  0  0  0  0  0  0  0  0  0
   -4.9482   -1.3898   -8.7565 C   0  0  1  0  0  0  0  0  0  0  0  0
   -5.8601   -2.5816   -8.4639 C   0  0  0  0  0  0  0  0  0  0  0  0
   -6.7136   -2.2632   -7.2469 C   0  0  1  0  0  0  0  0  0  0  0  0
   -7.5204   -1.0053   -7.5179 C   0  0  1  0  0  0  0  0  0  0  0  0
   -8.4004   -0.6377   -6.3371 C   0  0  0  0  0  0  0  0  0  0  0  0
   -4.2111   -1.6340  -10.0374 N   0  3  0  0  0  0  0  0  0  0  0  0
   -8.2536    0.8388   -6.0892 N   0  3  0  0  0  0  0  0  0  0  0  0
   -7.5860   -3.3466   -6.9583 O   0  0  0  0  0  0  0  0  0  0  0  0
   -6.6232    0.0920   -7.7580 O   0  0  0  0  0  0  0  0  0  0  0  0
  1  2  1  0  0  0  0
  1 22  1  1  0  0  0
  1 10  1  0  0  0  0
  2  3  1  0  0  0  0
  2  7  1  6  0  0  0
  3  4  1  0  0  0  0
  3  8  1  6  0  0  0
  4  5  1  0  0  0  0
  4  9  1  1  0  0  0
  5  6  1  1  0  0  0
  5 10  1  0  0  0  0
  6 11  1  0  0  0  0
 12 13  1  0  0  0  0
 12 17  1  0  0  0  0
 12 18  1  6  0  0  0
 13 14  1  0  0  0  0
 14 15  1  0  0  0  0
 14 19  1  6  0  0  0
 15 16  1  0  0  0  0
 15 21  1  1  0  0  0
 16 17  1  0  0  0  0
 16 20  1  6  0  0  0
 17 22  1  1  0  0  0
 23 21  1  6  0  0  0
 23 24  1  0  0  0  0
 23 32  1  0  0  0  0
 24 25  1  0  0  0  0
 24 29  1  6  0  0  0
 25 26  1  0  0  0  0
 26 27  1  0  0  0  0
 26 31  1  6  0  0  0
 27 28  1  1  0  0  0
 27 32  1  0  0  0  0
 28 30  1  0  0  0  0
M  CHG  5   8   1  18   1  19   1  29   1  30   1
M  END
>  <CHROM.1>
-115.36446667,165.86520090,-166.42828744,69.95361066,88.64241136,-55.21235280
39.96577779,43.86876185,54.44942921,-177.20617082,162.60283756,131.81603831
-13.07006942,-70.69754924,134.31521149,-16.23682978,-9.26198138,-1.47121472
-8.13017219,2.56460259,-0.06108329,2.71386566

>  <Name>
2tob cryst

>  <RI>
0

>  <Rbt.Current_Directory>
/home/itssahil/PROJECTS/Mol_Feturizer/New_Systems/rnas/2tob

>  <Rbt.Executable>
rbdock ($Id: //depot/dev/client3/rdock/2013.1/src/exe/rbdock.cxx#4 $)

>  <Rbt.Library>
libRbt.so (2013.1, Build901 2013/11/27)

>  <Rbt.Parameter_File>
/export/apps/rDock/src/rDock_2013.1_src/data/scripts/dock_solv.prm

>  <Rbt.Receptor>
prm/blind_docking_100.prm

>  <SCORE>
-8.12826

>  <SCORE.INTER>
-25.0819

>  <SCORE.INTER.CONST>
1

>  <SCORE.INTER.POLAR>
-4.00068

>  <SCORE.INTER.ROT>
6

>  <SCORE.INTER.SOLV>
48.0717

>  <SCORE.INTER.VDW>
-27.0096

>  <SCORE.INTER.norm>
-0.783809

>  <SCORE.INTRA>
13.6298

>  <SCORE.INTRA.DIHEDRAL>
14.0473

>  <SCORE.INTRA.DIHEDRAL.0>
18.4221

>  <SCORE.INTRA.POLAR>
-0.114441

>  <SCORE.INTRA.POLAR.0>
-1.57101

>  <SCORE.INTRA.REPUL>
-0.730195

>  <SCORE.INTRA.REPUL.0>
0.730195

>  <SCORE.INTRA.SOLV>
0.360244

>  <SCORE.INTRA.SOLV.lig_0>
-127.221

>  <SCORE.INTRA.VDW>
10.4661

>  <SCORE.INTRA.VDW.0>
10.8385

>  <SCORE.INTRA.norm>
0.425931

>  <SCORE.RESTR>
3.32386

>  <SCORE.RESTR.CAVITY>
3.32386

>  <SCORE.RESTR.norm>
0.103871

>  <SCORE.SYSTEM>
0

>  <SCORE.SYSTEM.CONST>
0

>  <SCORE.SYSTEM.DIHEDRAL>
0

>  <SCORE.SYSTEM.SOLV>
0

>  <SCORE.SYSTEM.norm>
0

>  <SCORE.heavy>
32

>  <SCORE.norm>
-0.254008

>  <RMSD>
6.514

$$$$
2tob cryst
 OpenBabel11021811463D
libRbt.so/2013.1/901 2013/11/27
 32 34  0  0  0  0  0  0  0  0999 V2000
  -11.1745   -2.6118   -8.7649 C   0  0  2  0  0  0  0  0  0  0  0  0
  -12.6854   -2.7309   -8.9381 C   0  0  1  0  0  0  0  0  0  0  0  0
  -13.3571   -2.5382   -7.5782 C   0  0  2  0  0  0  0  0  0  0  0  0
  -12.7910   -3.5214   -6.5450 C   0  0  1  0  0  0  0  0  0  0  0  0
  -11.2612   -3.4329   -6.5209 C   0  0  1  0  0  0  0  0  0  0  0  0
  -10.5876   -4.4681   -5.6351 C   0  0  0  0  0  0  0  0  0  0  0  0
  -13.1509   -1.7413   -9.8518 O   0  0  0  0  0  0  0  0  0  0  0  0
  -14.8502   -2.6354   -7.5241 N   0  3  0  0  0  0  0  0  0  0  0  0
  -13.3148   -3.1974   -5.2632 O   0  0  0  0  0  0  0  0  0  0  0  0
  -10.7386   -3.6028   -7.8537 O   0  0  0  0  0  0  0  0  0  0  0  0
  -10.8281   -4.1914   -4.2592 O   0  0  0  0  0  0  0  0  0  0  0  0
  -10.2816    0.9863   -8.6267 C   0  0  2  0  0  0  0  0  0  0  0  0
   -9.3013    1.9895   -9.2494 C   0  0  0  0  0  0  0  0  0  0  0  0
   -7.8594    1.4915   -9.2038 C   0  0  1  0  0  0  0  0  0  0  0  0
   -7.7914    0.1481   -9.9170 C   0  0  2  0  0  0  0  0  0  0  0  0
   -8.6416   -0.8749   -9.1594 C   0  0  1  0  0  0  0  0  0  0  0  0
  -10.1202   -0.4486   -9.1530 C   0  0  1  0  0  0  0  0  0  0  0  0
  -11.7001    1.4286   -8.8445 N   0  3  0  0  0  0  0  0  0  0  0  0
   -6.9259    2.4880   -9.8233 N   0  3  0  0  0  0  0  0  0  0  0  0
   -8.4994   -2.1508   -9.7708 O   0  0  0  0  0  0  0  0  0  0  0  0
   -6.4295   -0.3098  -10.0010 O   0  0  0  0  0  0  0  0  0  0  0  0
  -10.8770   -1.3256   -8.2927 O   0  0  0  0  0  0  0  0  0  0  0  0
   -5.7656   -0.3134   -8.7674 C   0  0  2  0  0  0  0  0  0  0  0  0
   -4.9684   -1.6122   -8.6076 C   0  0  1  0  0  0  0  0  0  0  0  0
   -5.8948   -2.7920   -8.3123 C   0  0  0  0  0  0  0  0  0  0  0  0
   -6.7731   -2.4441   -7.1212 C   0  0  1  0  0  0  0  0  0  0  0  0
   -7.5648   -1.1866   -7.4349 C   0  0  1  0  0  0  0  0  0  0  0  0
   -8.4685   -0.7899   -6.2816 C   0  0  0  0  0  0  0  0  0  0  0  0
   -4.2046   -1.8865   -9.8666 N   0  3  0  0  0  0  0  0  0  0  0  0
   -8.2936    0.6844   -6.0392 N   0  3  0  0  0  0  0  0  0  0  0  0
   -7.6592   -3.5159   -6.8311 O   0  0  0  0  0  0  0  0  0  0  0  0
   -6.6549   -0.1001   -7.6763 O   0  0  0  0  0  0  0  0  0  0  0  0
  1  2  1  0  0  0  0
  1 22  1  1  0  0  0
  1 10  1  0  0  0  0
  2  3  1  0  0  0  0
  2  7  1  6  0  0  0
  3  4  1  0  0  0  0
  3  8  1  6  0  0  0
  4  5  1  0  0  0  0
  4  9  1  1  0  0  0
  5  6  1  1  0  0  0
  5 10  1  0  0  0  0
  6 11  1  0  0  0  0
 12 13  1  0  0  0  0
 12 17  1  0  0  0  0
 12 18  1  6  0  0  0
 13 14  1  0  0  0  0
 14 15  1  0  0  0  0
 14 19  1  6  0  0  0
 15 16  1  0  0  0  0
 15 21  1  1  0  0  0
 16 17  1  0  0  0  0
 16 20  1  6  0  0  0
 17 22  1  1  0  0  0
 23 21  1  6  0  0  0
 23 24  1  0  0  0  0
 23 32  1  0  0  0  0
 24 25  1  0  0  0  0
 24 29  1  6  0  0  0
 25 26  1  0  0  0  0
 26 27  1  0  0  0  0
 26 31  1  6  0  0  0
 27 28  1  1  0  0  0
 27 32  1  0  0  0  0
 28 30  1  0  0  0  0
M  CHG  5   8   1  18   1  19   1  29   1  30   1
M  END
>  <CHROM.1>
-114.66905770,160.20921798,-56.87796474,-51.33434125,-70.16065931,57.14777130
37.47933329,-31.00220977,52.04912749,70.64675821,163.31023707,135.99220561
-125.61116198,-178.76990764,133.05729379,-20.52879756,-9.38653871,-1.41128007
-8.03783039,2.65681328,-0.02439191,2.54678616

>  <Name>
2tob cryst

>  <RI>
0

>  <Rbt.Current_Directory>
/home/itssahil/PROJECTS/Mol_Feturizer/New_Systems/rnas/2tob

>  <Rbt.Executable>
rbdock ($Id: //depot/dev/client3/rdock/2013.1/src/exe/rbdock.cxx#4 $)

>  <Rbt.Library>
libRbt.so (2013.1, Build901 2013/11/27)

>  <Rbt.Parameter_File>
/export/apps/rDock/src/rDock_2013.1_src/data/scripts/dock_solv.prm

>  <Rbt.Receptor>
prm/blind_docking_40.prm

>  <SCORE>
6.32809

>  <SCORE.INTER>
-17.2479

>  <SCORE.INTER.CONST>
1

>  <SCORE.INTER.POLAR>
-3.51185

>  <SCORE.INTER.ROT>
6

>  <SCORE.INTER.SOLV>
48.3172

>  <SCORE.INTER.VDW>
-23.4982

>  <SCORE.INTER.norm>
-0.538998

>  <SCORE.INTRA>
16.1347

>  <SCORE.INTRA.DIHEDRAL>
13.0769

>  <SCORE.INTRA.DIHEDRAL.0>
18.4221

>  <SCORE.INTRA.POLAR>
0.650762

>  <SCORE.INTRA.POLAR.0>
-1.57101

>  <SCORE.INTRA.REPUL>
-0.730195

>  <SCORE.INTRA.REPUL.0>
0.730195

>  <SCORE.INTRA.SOLV>
-0.546755

>  <SCORE.INTRA.SOLV.lig_0>
-127.221

>  <SCORE.INTRA.VDW>
11.308

>  <SCORE.INTRA.VDW.0>
10.8385

>  <SCORE.INTRA.norm>
0.50421

>  <SCORE.RESTR>
7.44131

>  <SCORE.RESTR.CAVITY>
7.44131

>  <SCORE.RESTR.norm>
0.232541

>  <SCORE.SYSTEM>
0

>  <SCORE.SYSTEM.CONST>
0

>  <SCORE.SYSTEM.DIHEDRAL>
0

>  <SCORE.SYSTEM.SOLV>
0

>  <SCORE.SYSTEM.norm>
0

>  <SCORE.heavy>
32

>  <SCORE.norm>
0.197753

>  <RMSD>
6.514

$$$$
2tob cryst
 OpenBabel11021811463D
libRbt.so/2013.1/901 2013/11/27
 32 34  0  0  0  0  0  0  0  0999 V2000
  -12.4185   -2.9960   -8.3968 C   0  0  2  0  0  0  0  0  0  0  0  0
  -13.4981   -3.2475   -7.3488 C   0  0  1  0  0  0  0  0  0  0  0  0
  -12.8340   -3.7286   -6.0584 C   0  0  2  0  0  0  0  0  0  0  0  0
  -11.9542   -4.9579   -6.3221 C   0  0  1  0  0  0  0  0  0  0  0  0
  -10.9831   -4.6700   -7.4723 C   0  0  1  0  0  0  0  0  0  0  0  0
  -10.1619   -5.8702   -7.9141 C   0  0  0  0  0  0  0  0  0  0  0  0
  -14.2249   -2.0472   -7.1000 O   0  0  0  0  0  0  0  0  0  0  0  0
  -13.7260   -4.0512   -4.8999 N   0  3  0  0  0  0  0  0  0  0  0  0
  -11.2265   -5.2676   -5.1402 O   0  0  0  0  0  0  0  0  0  0  0  0
  -11.7118   -4.2008   -8.6242 O   0  0  0  0  0  0  0  0  0  0  0  0
   -9.1553   -6.1766   -6.9546 O   0  0  0  0  0  0  0  0  0  0  0  0
  -11.6083    0.3608   -8.4606 C   0  0  2  0  0  0  0  0  0  0  0  0
  -10.9371    1.5315   -9.1913 C   0  0  0  0  0  0  0  0  0  0  0  0
   -9.4142    1.4386   -9.1529 C   0  0  1  0  0  0  0  0  0  0  0  0
   -8.9978    0.1060   -9.7601 C   0  0  2  0  0  0  0  0  0  0  0  0
   -9.5371   -1.0379   -8.8976 C   0  0  1  0  0  0  0  0  0  0  0  0
  -11.0757   -1.0193   -8.8774 C   0  0  1  0  0  0  0  0  0  0  0  0
  -13.0955    0.3918   -8.6670 N   0  3  0  0  0  0  0  0  0  0  0  0
   -8.7862    2.5908   -9.8784 N   0  3  0  0  0  0  0  0  0  0  0  0
   -9.0661   -2.2775   -9.4110 O   0  0  0  0  0  0  0  0  0  0  0  0
   -7.5641    0.0195   -9.8514 O   0  0  0  0  0  0  0  0  0  0  0  0
  -11.5628   -1.9896   -7.9271 O   0  0  0  0  0  0  0  0  0  0  0  0
   -6.9195    0.1214   -8.6118 C   0  0  2  0  0  0  0  0  0  0  0  0
   -5.4102   -0.0733   -8.7909 C   0  0  1  0  0  0  0  0  0  0  0  0
   -5.0726   -1.5427   -9.0445 C   0  0  0  0  0  0  0  0  0  0  0  0
   -5.6879   -2.3883   -7.9412 C   0  0  1  0  0  0  0  0  0  0  0  0
   -7.1898   -2.1637   -7.9186 C   0  0  1  0  0  0  0  0  0  0  0  0
   -7.8645   -2.9883   -6.8374 C   0  0  0  0  0  0  0  0  0  0  0  0
   -4.9351    0.7500   -9.9485 N   0  3  0  0  0  0  0  0  0  0  0  0
   -7.5455   -2.3620   -5.5074 N   0  3  0  0  0  0  0  0  0  0  0  0
   -5.4061   -3.7637   -8.1576 O   0  0  0  0  0  0  0  0  0  0  0  0
   -7.4589   -0.7775   -7.6485 O   0  0  0  0  0  0  0  0  0  0  0  0
  1  2  1  0  0  0  0
  1 22  1  1  0  0  0
  1 10  1  0  0  0  0
  2  3  1  0  0  0  0
  2  7  1  1  0  0  0
  3  4  1  0  0  0  0
  3  8  1  1  0  0  0
  4  5  1  0  0  0  0
  4  9  1  1  0  0  0
  5  6  1  6  0  0  0
  5 10  1  0  0  0  0
  6 11  1  0  0  0  0
 12 13  1  0  0  0  0
 12 17  1  0  0  0  0
 12 18  1  6  0  0  0
 13 14  1  0  0  0  0
 14 15  1  0  0  0  0
 14 19  1  6  0  0  0
 15 16  1  0  0  0  0
 15 21  1  1  0  0  0
 16 17  1  0  0  0  0
 16 20  1  6  0  0  0
 17 22  1  1  0  0  0
 23 21  1  6  0  0  0
 23 24  1  0  0  0  0
 23 32  1  0  0  0  0
 24 25  1  0  0  0  0
 24 29  1  6  0  0  0
 25 26  1  0  0  0  0
 26 27  1  0  0  0  0
 26 31  1  6  0  0  0
 27 28  1  1  0  0  0
 27 32  1  0  0  0  0
 28 30  1  0  0  0  0
M  CHG  5   8   1  18   1  19   1  29   1  30   1
M  END
>  <CHROM.1>
-141.19561711,-79.16925292,76.60606628,68.93435584,-73.27930022,52.58660819
73.12921176,48.56063927,59.96775914,28.73711615,116.84457138,176.26654491
-61.55876416,-81.97275556,73.61323580,-88.62304021,-9.59716686,-1.96318922
-7.99519504,2.49219694,-0.10136347,2.71093322

>  <Name>
2tob cryst

>  <RI>
0

>  <Rbt.Current_Directory>
/home/itssahil/PROJECTS/Mol_Feturizer/New_Systems/rnas/2tob

>  <Rbt.Executable>
rbdock ($Id: //depot/dev/client3/rdock/2013.1/src/exe/rbdock.cxx#4 $)

>  <Rbt.Library>
libRbt.so (2013.1, Build901 2013/11/27)

>  <Rbt.Parameter_File>
/export/apps/rDock/src/rDock_2013.1_src/data/scripts/dock_solv.prm

>  <Rbt.Receptor>
prm/blind_docking_100.prm

>  <SCORE>
5.75874

>  <SCORE.INTER>
6.25046

>  <SCORE.INTER.CONST>
1

>  <SCORE.INTER.POLAR>
-3.26645

>  <SCORE.INTER.ROT>
6

>  <SCORE.INTER.SOLV>
43.6723

>  <SCORE.INTER.VDW>
-7.10228

>  <SCORE.INTER.norm>
0.195327

>  <SCORE.INTRA>
-6.35062

>  <SCORE.INTRA.DIHEDRAL>
6.75056

>  <SCORE.INTRA.DIHEDRAL.0>
18.4221

>  <SCORE.INTRA.POLAR>
-0.0132822

>  <SCORE.INTRA.POLAR.0>
-1.57101

>  <SCORE.INTRA.REPUL>
-0.730195

>  <SCORE.INTRA.REPUL.0>
0.730195

>  <SCORE.INTRA.SOLV>
-3.64312

>  <SCORE.INTRA.SOLV.lig_0>
-127.221

>  <SCORE.INTRA.VDW>
-4.2082

>  <SCORE.INTRA.VDW.0>
10.8385

>  <SCORE.INTRA.norm>
-0.198457

>  <SCORE.RESTR>
5.8589

>  <SCORE.RESTR.CAVITY>
5.8589

>  <SCORE.RESTR.norm>
0.183091

>  <SCORE.SYSTEM>
0

>  <SCORE.SYSTEM.CONST>
0

>  <SCORE.SYSTEM.DIHEDRAL>
0

>  <SCORE.SYSTEM.SOLV>
0

>  <SCORE.SYSTEM.norm>
0

>  <SCORE.heavy>
32

>  <SCORE.norm>
0.179961

>  <RMSD>
6.517

$$$$
2tob cryst
 OpenBabel11021811463D
libRbt.so/2013.1/901 2013/11/27
 32 34  0  0  0  0  0  0  0  0999 V2000
  -11.9615   -2.7169   -8.3323 C   0  0  2  0  0  0  0  0  0  0  0  0
  -12.9542   -2.6986   -7.1741 C   0  0  1  0  0  0  0  0  0  0  0  0
  -12.2584   -3.2197   -5.9164 C   0  0  2  0  0  0  0  0  0  0  0  0
  -11.6488   -4.6059   -6.1638 C   0  0  1  0  0  0  0  0  0  0  0  0
  -10.7662   -4.5742   -7.4163 C   0  0  1  0  0  0  0  0  0  0  0  0
  -10.2271   -5.9314   -7.8375 C   0  0  0  0  0  0  0  0  0  0  0  0
  -13.4210   -1.3704   -6.9533 O   0  0  0  0  0  0  0  0  0  0  0  0
  -13.0690   -3.2998   -4.6601 N   0  3  0  0  0  0  0  0  0  0  0  0
  -10.8708   -4.9773   -5.0328 O   0  0  0  0  0  0  0  0  0  0  0  0
  -11.5130   -4.0444   -8.5298 O   0  0  0  0  0  0  0  0  0  0  0  0
   -9.1154   -6.3076   -7.0311 O   0  0  0  0  0  0  0  0  0  0  0  0
  -11.0726    0.4968   -8.4748 C   0  0  2  0  0  0  0  0  0  0  0  0
  -10.5175    1.7116   -9.2307 C   0  0  0  0  0  0  0  0  0  0  0  0
   -8.9959    1.6751   -9.3433 C   0  0  1  0  0  0  0  0  0  0  0  0
   -8.5951    0.3762  -10.0291 C   0  0  2  0  0  0  0  0  0  0  0  0
   -9.0070   -0.8104   -9.1541 C   0  0  1  0  0  0  0  0  0  0  0  0
  -10.5359   -0.8503   -8.9839 C   0  0  1  0  0  0  0  0  0  0  0  0
  -12.5731    0.4775   -8.5346 N   0  3  0  0  0  0  0  0  0  0  0  0
   -8.4827    2.8695  -10.0904 N   0  3  0  0  0  0  0  0  0  0  0  0
   -8.5459   -2.0168   -9.7490 O   0  0  0  0  0  0  0  0  0  0  0  0
   -7.1751    0.3463  -10.2619 O   0  0  0  0  0  0  0  0  0  0  0  0
  -10.8932   -1.8639   -8.0212 O   0  0  0  0  0  0  0  0  0  0  0  0
   -6.4162    0.5933   -9.1105 C   0  0  2  0  0  0  0  0  0  0  0  0
   -4.9758    0.1156   -9.3226 C   0  0  1  0  0  0  0  0  0  0  0  0
   -4.8896   -1.4098   -9.2662 C   0  0  0  0  0  0  0  0  0  0  0  0
   -5.5272   -1.8930   -7.9736 C   0  0  1  0  0  0  0  0  0  0  0  0
   -6.9695   -1.4201   -7.9210 C   0  0  1  0  0  0  0  0  0  0  0  0
   -7.6643   -1.8778   -6.6514 C   0  0  0  0  0  0  0  0  0  0  0  0
   -4.4844    0.5896  -10.6558 N   0  3  0  0  0  0  0  0  0  0  0  0
   -8.1784   -3.2730   -6.8794 N   0  3  0  0  0  0  0  0  0  0  0  0
   -5.4782   -3.3107   -7.8986 O   0  0  0  0  0  0  0  0  0  0  0  0
   -6.9995    0.0170   -7.9468 O   0  0  0  0  0  0  0  0  0  0  0  0
  1  2  1  0  0  0  0
  1 22  1  1  0  0  0
  1 10  1  0  0  0  0
  2  3  1  0  0  0  0
  2  7  1  1  0  0  0
  3  4  1  0  0  0  0
  3  8  1  1  0  0  0
  4  5  1  0  0  0  0
  4  9  1  1  0  0  0
  5  6  1  6  0  0  0
  5 10  1  0  0  0  0
  6 11  1  0  0  0  0
 12 13  1  0  0  0  0
 12 17  1  0  0  0  0
 12 18  1  6  0  0  0
 13 14  1  0  0  0  0
 14 15  1  0  0  0  0
 14 19  1  6  0  0  0
 15 16  1  0  0  0  0
 15 21  1  1  0  0  0
 16 17  1  0  0  0  0
 16 20  1  6  0  0  0
 17 22  1  1  0  0  0
 23 21  1  6  0  0  0
 23 24  1  0  0  0  0
 23 32  1  0  0  0  0
 24 25  1  0  0  0  0
 24 29  1  6  0  0  0
 25 26  1  0  0  0  0
 26 27  1  0  0  0  0
 26 31  1  6  0  0  0
 27 28  1  1  0  0  0
 27 32  1  0  0  0  0
 28 30  1  0  0  0  0
M  CHG  5   8   1  18   1  19   1  29   1  30   1
M  END
>  <CHROM.1>
-127.47919681,-81.07390419,-49.79803011,-46.83800684,-78.79499119,-173.37532004
49.56713015,-109.11846233,52.98126553,-82.97795100,103.50356360,162.09390690
-168.03542748,51.87284747,-84.55278899,-168.10718886,-9.24659151,-1.69098663
-8.12602983,2.40441368,-0.18729789,2.72106781

>  <Name>
2tob cryst

>  <RI>
0

>  <Rbt.Current_Directory>
/home/itssahil/PROJECTS/Mol_Feturizer/New_Systems/rnas/2tob

>  <Rbt.Executable>
rbdock ($Id: //depot/dev/client3/rdock/2013.1/src/exe/rbdock.cxx#4 $)

>  <Rbt.Library>
libRbt.so (2013.1, Build901 2013/11/27)

>  <Rbt.Parameter_File>
/export/apps/rDock/src/rDock_2013.1_src/data/scripts/dock_solv.prm

>  <Rbt.Receptor>
prm/blind_docking_100.prm

>  <SCORE>
4.82811

>  <SCORE.INTER>
-3.44449

>  <SCORE.INTER.CONST>
1

>  <SCORE.INTER.POLAR>
-6.09766

>  <SCORE.INTER.ROT>
6

>  <SCORE.INTER.SOLV>
41.5316

>  <SCORE.INTER.VDW>
-3.41466

>  <SCORE.INTER.norm>
-0.10764

>  <SCORE.INTRA>
4.28639

>  <SCORE.INTRA.DIHEDRAL>
9.52631

>  <SCORE.INTRA.DIHEDRAL.0>
18.4221

>  <SCORE.INTRA.POLAR>
0.231977

>  <SCORE.INTRA.POLAR.0>
-1.57101

>  <SCORE.INTRA.REPUL>
-0.730195

>  <SCORE.INTRA.REPUL.0>
0.730195

>  <SCORE.INTRA.SOLV>
5.53307

>  <SCORE.INTRA.SOLV.lig_0>
-127.221

>  <SCORE.INTRA.VDW>
-0.381043

>  <SCORE.INTRA.VDW.0>
10.8385

>  <SCORE.INTRA.norm>
0.13395

>  <SCORE.RESTR>
3.98621

>  <SCORE.RESTR.CAVITY>
3.98621

>  <SCORE.RESTR.norm>
0.124569

>  <SCORE.SYSTEM>
0

>  <SCORE.SYSTEM.CONST>
0

>  <SCORE.SYSTEM.DIHEDRAL>
0

>  <SCORE.SYSTEM.SOLV>
0

>  <SCORE.SYSTEM.norm>
0

>  <SCORE.heavy>
32

>  <SCORE.norm>
0.150879

>  <RMSD>
6.539

$$$$
2tob cryst
 OpenBabel11021811463D
libRbt.so/2013.1/901 2013/11/27
 32 34  0  0  0  0  0  0  0  0999 V2000
  -11.2459   -3.3442   -8.6488 C   0  0  2  0  0  0  0  0  0  0  0  0
  -12.7524   -3.1816   -8.4730 C   0  0  1  0  0  0  0  0  0  0  0  0
  -13.0698   -3.0852   -6.9805 C   0  0  2  0  0  0  0  0  0  0  0  0
  -12.5029   -4.2927   -6.2221 C   0  0  1  0  0  0  0  0  0  0  0  0
  -11.0158   -4.4660   -6.5498 C   0  0  1  0  0  0  0  0  0  0  0  0
  -10.3874   -5.7202   -5.9648 C   0  0  0  0  0  0  0  0  0  0  0  0
  -13.1964   -2.0025   -9.1388 O   0  0  0  0  0  0  0  0  0  0  0  0
  -14.5069   -2.9381   -6.5869 N   0  3  0  0  0  0  0  0  0  0  0  0
  -12.6694   -4.0813   -4.8257 O   0  0  0  0  0  0  0  0  0  0  0  0
  -10.8309   -4.5194   -7.9785 O   0  0  0  0  0  0  0  0  0  0  0  0
   -9.1250   -5.9836   -6.5687 O   0  0  0  0  0  0  0  0  0  0  0  0
  -10.8132    0.1719   -8.4219 C   0  0  2  0  0  0  0  0  0  0  0  0
  -10.2879    1.4356   -9.1161 C   0  0  0  0  0  0  0  0  0  0  0  0
   -8.7703    1.4170   -9.2771 C   0  0  1  0  0  0  0  0  0  0  0  0
   -8.3842    0.1667  -10.0554 C   0  0  2  0  0  0  0  0  0  0  0  0
   -8.7629   -1.0755   -9.2450 C   0  0  1  0  0  0  0  0  0  0  0  0
  -10.2856   -1.1367   -9.0311 C   0  0  1  0  0  0  0  0  0  0  0  0
  -12.3147    0.1458   -8.4371 N   0  3  0  0  0  0  0  0  0  0  0  0
   -8.2864    2.6596   -9.9626 N   0  3  0  0  0  0  0  0  0  0  0  0
   -8.3142   -2.2388   -9.9286 O   0  0  0  0  0  0  0  0  0  0  0  0
   -6.9720    0.1615  -10.3328 O   0  0  0  0  0  0  0  0  0  0  0  0
  -10.6079   -2.2114   -8.1240 O   0  0  0  0  0  0  0  0  0  0  0  0
   -6.1820    0.4305   -9.2076 C   0  0  2  0  0  0  0  0  0  0  0  0
   -4.8576   -0.3341   -9.3050 C   0  0  1  0  0  0  0  0  0  0  0  0
   -5.0617   -1.8231   -9.0246 C   0  0  0  0  0  0  0  0  0  0  0  0
   -5.7814   -1.9812   -7.6950 C   0  0  1  0  0  0  0  0  0  0  0  0
   -7.1083   -1.2446   -7.7547 C   0  0  1  0  0  0  0  0  0  0  0  0
   -7.8792   -1.3706   -6.4532 C   0  0  0  0  0  0  0  0  0  0  0  0
   -4.2831   -0.1637  -10.6778 N   0  3  0  0  0  0  0  0  0  0  0  0
   -8.2743   -2.8122   -6.2841 N   0  3  0  0  0  0  0  0  0  0  0  0
   -6.0018   -3.3560   -7.4130 O   0  0  0  0  0  0  0  0  0  0  0  0
   -6.8657    0.1527   -7.9902 O   0  0  0  0  0  0  0  0  0  0  0  0
  1  2  1  0  0  0  0
  1 22  1  1  0  0  0
  1 10  1  0  0  0  0
  2  3  1  0  0  0  0
  2  7  1  6  0  0  0
  3  4  1  0  0  0  0
  3  8  1  6  0  0  0
  4  5  1  0  0  0  0
  4  9  1  1  0  0  0
  5  6  1  1  0  0  0
  5 10  1  0  0  0  0
  6 11  1  0  0  0  0
 12 13  1  0  0  0  0
 12 17  1  0  0  0  0
 12 18  1  6  0  0  0
 13 14  1  0  0  0  0
 14 15  1  0  0  0  0
 14 19  1  6  0  0  0
 15 16  1  0  0  0  0
 15 21  1  1  0  0  0
 16 17  1  0  0  0  0
 16 20  1  6  0  0  0
 17 22  1  1  0  0  0
 23 21  1  6  0  0  0
 23 24  1  0  0  0  0
 23 32  1  0  0  0  0
 24 25  1  0  0  0  0
 24 29  1  6  0  0  0
 25 26  1  0  0  0  0
 26 27  1  0  0  0  0
 26 31  1  6  0  0  0
 27 28  1  1  0  0  0
 27 32  1  0  0  0  0
 28 30  1  0  0  0  0
M  CHG  5   8   1  18   1  19   1  29   1  30   1
M  END
>  <CHROM.1>
-94.37533020,61.60098953,174.34281823,178.89925728,165.70909258,-54.93028132
168.31976936,13.20563676,48.91789734,-97.40795250,129.59514622,147.39281232
113.25215291,-47.17630147,-66.36525521,52.36888270,-9.31293749,-1.79527678
-8.17512415,2.50546189,-0.07519587,2.64039516

>  <Name>
2tob cryst

>  <RI>
0

>  <Rbt.Current_Directory>
/home/itssahil/PROJECTS/Mol_Feturizer/New_Systems/rnas/2tob

>  <Rbt.Executable>
rbdock ($Id: //depot/dev/client3/rdock/2013.1/src/exe/rbdock.cxx#4 $)

>  <Rbt.Library>
libRbt.so (2013.1, Build901 2013/11/27)

>  <Rbt.Parameter_File>
/export/apps/rDock/src/rDock_2013.1_src/data/scripts/dock_solv.prm

>  <Rbt.Receptor>
prm/blind_docking_80.prm

>  <SCORE>
1.01431

>  <SCORE.INTER>
-11.7343

>  <SCORE.INTER.CONST>
1

>  <SCORE.INTER.POLAR>
-6.32992

>  <SCORE.INTER.ROT>
6

>  <SCORE.INTER.SOLV>
38.4019

>  <SCORE.INTER.VDW>
-7.12374

>  <SCORE.INTER.norm>
-0.366696

>  <SCORE.INTRA>
7.35917

>  <SCORE.INTRA.DIHEDRAL>
11.4673

>  <SCORE.INTRA.DIHEDRAL.0>
18.4221

>  <SCORE.INTRA.POLAR>
-0.857967

>  <SCORE.INTRA.POLAR.0>
-1.57101

>  <SCORE.INTRA.REPUL>
-0.730195

>  <SCORE.INTRA.REPUL.0>
0.730195

>  <SCORE.INTRA.SOLV>
5.47678

>  <SCORE.INTRA.SOLV.lig_0>
-127.221

>  <SCORE.INTRA.VDW>
5.45521

>  <SCORE.INTRA.VDW.0>
10.8385

>  <SCORE.INTRA.norm>
0.229974

>  <SCORE.RESTR>
5.38942

>  <SCORE.RESTR.CAVITY>
5.38942

>  <SCORE.RESTR.norm>
0.16842

>  <SCORE.SYSTEM>
0

>  <SCORE.SYSTEM.CONST>
0

>  <SCORE.SYSTEM.DIHEDRAL>
0

>  <SCORE.SYSTEM.SOLV>
0

>  <SCORE.SYSTEM.norm>
0

>  <SCORE.heavy>
32

>  <SCORE.norm>
0.0316971

>  <RMSD>
6.588

$$$$
2tob cryst
 OpenBabel11021811463D
libRbt.so/2013.1/901 2013/11/27
 32 34  0  0  0  0  0  0  0  0999 V2000
  -11.5819   -2.3550   -9.1145 C   0  0  2  0  0  0  0  0  0  0  0  0
  -13.0349   -2.2211   -8.6698 C   0  0  1  0  0  0  0  0  0  0  0  0
  -13.1160   -2.4603   -7.1619 C   0  0  2  0  0  0  0  0  0  0  0  0
  -12.4954   -3.8132   -6.7891 C   0  0  1  0  0  0  0  0  0  0  0  0
  -11.0852   -3.9231   -7.3792 C   0  0  1  0  0  0  0  0  0  0  0  0
  -10.4325   -5.2831   -7.1933 C   0  0  0  0  0  0  0  0  0  0  0  0
  -13.5214   -0.9179   -8.9794 O   0  0  0  0  0  0  0  0  0  0  0  0
  -14.4679   -2.3914   -6.5222 N   0  3  0  0  0  0  0  0  0  0  0  0
  -12.4369   -3.9203   -5.3723 O   0  0  0  0  0  0  0  0  0  0  0  0
  -11.1233   -3.6550   -8.7951 O   0  0  0  0  0  0  0  0  0  0  0  0
   -9.0583   -5.2407   -7.5640 O   0  0  0  0  0  0  0  0  0  0  0  0
  -10.4277    1.0009   -8.5446 C   0  0  2  0  0  0  0  0  0  0  0  0
   -9.5884    2.1508   -9.1177 C   0  0  0  0  0  0  0  0  0  0  0  0
   -8.1173    1.7728   -9.2668 C   0  0  1  0  0  0  0  0  0  0  0  0
   -8.0252    0.5370  -10.1512 C   0  0  2  0  0  0  0  0  0  0  0  0
   -8.7205   -0.6381   -9.4592 C   0  0  1  0  0  0  0  0  0  0  0  0
  -10.2177   -0.3405   -9.2646 C   0  0  1  0  0  0  0  0  0  0  0  0
  -11.8887    1.3468   -8.5748 N   0  3  0  0  0  0  0  0  0  0  0  0
   -7.3237    2.9118   -9.8335 N   0  3  0  0  0  0  0  0  0  0  0  0
   -8.5493   -1.8135  -10.2409 O   0  0  0  0  0  0  0  0  0  0  0  0
   -6.6493    0.2078  -10.4159 O   0  0  0  0  0  0  0  0  0  0  0  0
  -10.8204   -1.3760   -8.4607 O   0  0  0  0  0  0  0  0  0  0  0  0
   -5.8189    0.3410   -9.2955 C   0  0  2  0  0  0  0  0  0  0  0  0
   -4.4831   -0.3657   -9.5492 C   0  0  1  0  0  0  0  0  0  0  0  0
   -4.6421   -1.8843   -9.4708 C   0  0  0  0  0  0  0  0  0  0  0  0
   -5.3016   -2.2443   -8.1493 C   0  0  1  0  0  0  0  0  0  0  0  0
   -6.6458   -1.5436   -8.0548 C   0  0  1  0  0  0  0  0  0  0  0  0
   -7.3584   -1.8694   -6.7547 C   0  0  0  0  0  0  0  0  0  0  0  0
   -3.9708    0.0083  -10.9061 N   0  3  0  0  0  0  0  0  0  0  0  0
   -8.5086   -2.7857   -7.0714 N   0  3  0  0  0  0  0  0  0  0  0  0
   -5.4793   -3.6504   -8.0527 O   0  0  0  0  0  0  0  0  0  0  0  0
   -6.4445   -0.1210   -8.1031 O   0  0  0  0  0  0  0  0  0  0  0  0
  1  2  1  0  0  0  0
  1 22  1  1  0  0  0
  1 10  1  0  0  0  0
  2  3  1  0  0  0  0
  2  7  1  1  0  0  0
  3  4  1  0  0  0  0
  3  8  1  6  0  0  0
  4  5  1  0  0  0  0
  4  9  1  1  0  0  0
  5  6  1  6  0  0  0
  5 10  1  0  0  0  0
  6 11  1  0  0  0  0
 12 13  1  0  0  0  0
 12 17  1  0  0  0  0
 12 18  1  6  0  0  0
 13 14  1  0  0  0  0
 14 15  1  0  0  0  0
 14 19  1  6  0  0  0
 15 16  1  0  0  0  0
 15 21  1  1  0  0  0
 16 17  1  0  0  0  0
 16 20  1  6  0  0  0
 17 22  1  1  0  0  0
 23 21  1  6  0  0  0
 23 24  1  0  0  0  0
 23 32  1  0  0  0  0
 24 25  1  0  0  0  0
 24 29  1  6  0  0  0
 25 26  1  0  0  0  0
 26 27  1  0  0  0  0
 26 31  1  6  0  0  0
 27 28  1  1  0  0  0
 27 32  1  0  0  0  0
 28 30  1  0  0  0  0
M  CHG  5   8   1  18   1  19   1  29   1  30   1
M  END
>  <CHROM.1>
-114.52606064,-178.86809455,-41.57493010,72.68068901,-170.33753299,-179.39142818
169.18279408,-90.88377681,41.33620264,-168.57827365,136.46425792,165.14203409
111.51707217,-62.90130274,-107.67461131,64.98228859,-9.13065209,-1.41441548
-8.50135398,2.69002367,-0.14673885,2.76721087

>  <Name>
2tob cryst

>  <RI>
0

>  <Rbt.Current_Directory>
/home/itssahil/PROJECTS/Mol_Feturizer/New_Systems/rnas/2tob

>  <Rbt.Executable>
rbdock ($Id: //depot/dev/client3/rdock/2013.1/src/exe/rbdock.cxx#4 $)

>  <Rbt.Library>
libRbt.so (2013.1, Build901 2013/11/27)

>  <Rbt.Parameter_File>
/export/apps/rDock/src/rDock_2013.1_src/data/scripts/dock_solv.prm

>  <Rbt.Receptor>
prm/blind_docking_80.prm

>  <SCORE>
-1.07152

>  <SCORE.INTER>
5.96577

>  <SCORE.INTER.CONST>
1

>  <SCORE.INTER.POLAR>
-5.28288

>  <SCORE.INTER.ROT>
6

>  <SCORE.INTER.SOLV>
44.4522

>  <SCORE.INTER.VDW>
-0.8306

>  <SCORE.INTER.norm>
0.18643

>  <SCORE.INTRA>
-10.0306

>  <SCORE.INTRA.DIHEDRAL>
10.2985

>  <SCORE.INTRA.DIHEDRAL.0>
18.4221

>  <SCORE.INTRA.POLAR>
-1.41679

>  <SCORE.INTRA.POLAR.0>
-1.57101

>  <SCORE.INTRA.REPUL>
-0.730195

>  <SCORE.INTRA.REPUL.0>
0.730195

>  <SCORE.INTRA.SOLV>
6.4221

>  <SCORE.INTRA.SOLV.lig_0>
-127.221

>  <SCORE.INTRA.VDW>
-9.92279

>  <SCORE.INTRA.VDW.0>
10.8385

>  <SCORE.INTRA.norm>
-0.313455

>  <SCORE.RESTR>
2.99327

>  <SCORE.RESTR.CAVITY>
2.99327

>  <SCORE.RESTR.norm>
0.0935395

>  <SCORE.SYSTEM>
0

>  <SCORE.SYSTEM.CONST>
0

>  <SCORE.SYSTEM.DIHEDRAL>
0

>  <SCORE.SYSTEM.SOLV>
0

>  <SCORE.SYSTEM.norm>
0

>  <SCORE.heavy>
32

>  <SCORE.norm>
-0.033485

>  <RMSD>
6.588

$$$$
2tob cryst
 OpenBabel11021811463D
libRbt.so/2013.1/901 2013/11/27
 32 34  0  0  0  0  0  0  0  0999 V2000
  -11.1077   -2.3586   -8.6814 C   0  0  2  0  0  0  0  0  0  0  0  0
  -12.5202   -2.4613   -8.1146 C   0  0  1  0  0  0  0  0  0  0  0  0
  -12.4347   -2.6271   -6.5971 C   0  0  2  0  0  0  0  0  0  0  0  0
  -11.5501   -3.8251   -6.2273 C   0  0  1  0  0  0  0  0  0  0  0  0
  -10.1956   -3.7147   -6.9359 C   0  0  1  0  0  0  0  0  0  0  0  0
   -9.2933   -4.9242   -6.7548 C   0  0  0  0  0  0  0  0  0  0  0  0
  -13.2593   -1.2848   -8.4314 O   0  0  0  0  0  0  0  0  0  0  0  0
  -13.7207   -2.7647   -5.8426 N   0  3  0  0  0  0  0  0  0  0  0  0
  -11.3592   -3.8414   -4.8182 O   0  0  0  0  0  0  0  0  0  0  0  0
  -10.3957   -3.5365   -8.3524 O   0  0  0  0  0  0  0  0  0  0  0  0
   -9.7252   -6.0061   -7.5738 O   0  0  0  0  0  0  0  0  0  0  0  0
  -10.1024    1.1359   -8.4362 C   0  0  2  0  0  0  0  0  0  0  0  0
   -9.2909    2.2324   -9.1392 C   0  0  0  0  0  0  0  0  0  0  0  0
   -7.8271    1.8404   -9.3205 C   0  0  1  0  0  0  0  0  0  0  0  0
   -7.7717    0.5350  -10.1021 C   0  0  2  0  0  0  0  0  0  0  0  0
   -8.4342   -0.5770   -9.2849 C   0  0  1  0  0  0  0  0  0  0  0  0
   -9.9219   -0.2613   -9.0506 C   0  0  1  0  0  0  0  0  0  0  0  0
  -11.5640    1.4809   -8.4313 N   0  3  0  0  0  0  0  0  0  0  0  0
   -7.0609    2.9267  -10.0141 N   0  3  0  0  0  0  0  0  0  0  0  0
   -8.2954   -1.8137   -9.9728 O   0  0  0  0  0  0  0  0  0  0  0  0
   -6.4082    0.1822  -10.3984 O   0  0  0  0  0  0  0  0  0  0  0  0
  -10.4872   -1.2250   -8.1377 O   0  0  0  0  0  0  0  0  0  0  0  0
   -5.5619    0.2432   -9.2836 C   0  0  2  0  0  0  0  0  0  0  0  0
   -4.2791   -0.5485   -9.5585 C   0  0  1  0  0  0  0  0  0  0  0  0
   -4.5398   -2.0539   -9.4992 C   0  0  0  0  0  0  0  0  0  0  0  0
   -5.2118   -2.3870   -8.1770 C   0  0  1  0  0  0  0  0  0  0  0  0
   -6.5048   -1.5985   -8.0613 C   0  0  1  0  0  0  0  0  0  0  0  0
   -7.2276   -1.8937   -6.7595 C   0  0  0  0  0  0  0  0  0  0  0  0
   -3.7532   -0.1909  -10.9146 N   0  3  0  0  0  0  0  0  0  0  0  0
   -8.1423   -0.7369   -6.4626 N   0  3  0  0  0  0  0  0  0  0  0  0
   -5.4835   -3.7791   -8.0979 O   0  0  0  0  0  0  0  0  0  0  0  0
   -6.2080   -0.1922   -8.0921 O   0  0  0  0  0  0  0  0  0  0  0  0
  1  2  1  0  0  0  0
  1 22  1  1  0  0  0
  1 10  1  0  0  0  0
  2  3  1  0  0  0  0
  2  7  1  1  0  0  0
  3  4  1  0  0  0  0
  3  8  1  6  0  0  0
  4  5  1  0  0  0  0
  4  9  1  1  0  0  0
  5  6  1  6  0  0  0
  5 10  1  0  0  0  0
  6 11  1  0  0  0  0
 12 13  1  0  0  0  0
 12 17  1  0  0  0  0
 12 18  1  6  0  0  0
 13 14  1  0  0  0  0
 14 15  1  0  0  0  0
 14 19  1  6  0  0  0
 15 16  1  0  0  0  0
 15 21  1  1  0  0  0
 16 17  1  0  0  0  0
 16 20  1  6  0  0  0
 17 22  1  1  0  0  0
 23 21  1  6  0  0  0
 23 24  1  0  0  0  0
 23 32  1  0  0  0  0
 24 25  1  0  0  0  0
 24 29  1  6  0  0  0
 25 26  1  0  0  0  0
 26 27  1  0  0  0  0
 26 31  1  6  0  0  0
 27 28  1  1  0  0  0
 27 32  1  0  0  0  0
 28 30  1  0  0  0  0
M  CHG  5   8   1  18   1  19   1  29   1  30   1
M  END
>  <CHROM.1>
-126.07567091,70.80291342,-163.61059183,178.21755455,76.16196484,93.69974520
168.13268016,24.81760953,49.04877340,-174.07636461,145.61704792,162.18034608
3.91713924,-63.83289938,157.70125182,-26.22125170,-8.76578644,-1.39178021
-8.29148831,2.59313050,-0.22145639,2.76180557

>  <Name>
2tob cryst

>  <RI>
0

>  <Rbt.Current_Directory>
/home/itssahil/PROJECTS/Mol_Feturizer/New_Systems/rnas/2tob

>  <Rbt.Executable>
rbdock ($Id: //depot/dev/client3/rdock/2013.1/src/exe/rbdock.cxx#4 $)

>  <Rbt.Library>
libRbt.so (2013.1, Build901 2013/11/27)

>  <Rbt.Parameter_File>
/export/apps/rDock/src/rDock_2013.1_src/data/scripts/dock_solv.prm

>  <Rbt.Receptor>
prm/blind_docking_100.prm

>  <SCORE>
0.809614

>  <SCORE.INTER>
5.02434

>  <SCORE.INTER.CONST>
1

>  <SCORE.INTER.POLAR>
-5.35824

>  <SCORE.INTER.ROT>
6

>  <SCORE.INTER.SOLV>
44.7131

>  <SCORE.INTER.VDW>
-1.294

>  <SCORE.INTER.norm>
0.157011

>  <SCORE.INTRA>
-6.20604

>  <SCORE.INTRA.DIHEDRAL>
11.7685

>  <SCORE.INTRA.DIHEDRAL.0>
18.4221

>  <SCORE.INTRA.POLAR>
-1.20721

>  <SCORE.INTRA.POLAR.0>
-1.57101

>  <SCORE.INTRA.REPUL>
-0.730195

>  <SCORE.INTRA.REPUL.0>
0.730195

>  <SCORE.INTRA.SOLV>
0.817256

>  <SCORE.INTRA.SOLV.lig_0>
-127.221

>  <SCORE.INTRA.VDW>
-4.74341

>  <SCORE.INTRA.VDW.0>
10.8385

>  <SCORE.INTRA.norm>
-0.193939

>  <SCORE.RESTR>
1.99131

>  <SCORE.RESTR.CAVITY>
1.99131

>  <SCORE.RESTR.norm>
0.0622284

>  <SCORE.SYSTEM>
0

>  <SCORE.SYSTEM.CONST>
0

>  <SCORE.SYSTEM.DIHEDRAL>
0

>  <SCORE.SYSTEM.SOLV>
0

>  <SCORE.SYSTEM.norm>
0

>  <SCORE.heavy>
32

>  <SCORE.norm>
0.0253004

>  <RMSD>
6.594

$$$$
2tob cryst
 OpenBabel11021811463D
libRbt.so/2013.1/901 2013/11/27
 32 34  0  0  0  0  0  0  0  0999 V2000
  -10.9336   -1.9055   -8.8303 C   0  0  2  0  0  0  0  0  0  0  0  0
  -12.4461   -2.0316   -8.9842 C   0  0  1  0  0  0  0  0  0  0  0  0
  -13.0992   -1.8711   -7.6111 C   0  0  2  0  0  0  0  0  0  0  0  0
  -12.5117   -2.8710   -6.6063 C   0  0  1  0  0  0  0  0  0  0  0  0
  -10.9823   -2.7725   -6.6025 C   0  0  1  0  0  0  0  0  0  0  0  0
  -10.2891   -3.8208   -5.7477 C   0  0  0  0  0  0  0  0  0  0  0  0
  -12.9312   -1.0268   -9.8707 O   0  0  0  0  0  0  0  0  0  0  0  0
  -14.5907   -1.9796   -7.5375 N   0  3  0  0  0  0  0  0  0  0  0  0
  -13.0190   -2.5767   -5.3108 O   0  0  0  0  0  0  0  0  0  0  0  0
  -10.4780   -2.9118   -7.9458 O   0  0  0  0  0  0  0  0  0  0  0  0
   -9.2270   -3.2412   -4.9970 O   0  0  0  0  0  0  0  0  0  0  0  0
   -9.9589    1.6764   -8.5461 C   0  0  2  0  0  0  0  0  0  0  0  0
   -9.0060    2.6866   -9.1992 C   0  0  0  0  0  0  0  0  0  0  0  0
   -7.5989    2.1222   -9.3749 C   0  0  1  0  0  0  0  0  0  0  0  0
   -7.6916    0.8469  -10.2014 C   0  0  2  0  0  0  0  0  0  0  0  0
   -8.5006   -0.2010   -9.4328 C   0  0  1  0  0  0  0  0  0  0  0  0
   -9.9418    0.2890   -9.2071 C   0  0  1  0  0  0  0  0  0  0  0  0
  -11.3665    2.1998   -8.5482 N   0  3  0  0  0  0  0  0  0  0  0  0
   -6.6923    3.1275  -10.0195 N   0  3  0  0  0  0  0  0  0  0  0  0
   -8.5038   -1.4216  -10.1621 O   0  0  0  0  0  0  0  0  0  0  0  0
   -6.3772    0.3377  -10.4919 O   0  0  0  0  0  0  0  0  0  0  0  0
  -10.6377   -0.6271   -8.3364 O   0  0  0  0  0  0  0  0  0  0  0  0
   -5.5372    0.2913   -9.3717 C   0  0  2  0  0  0  0  0  0  0  0  0
   -4.4216   -0.7344   -9.5981 C   0  0  1  0  0  0  0  0  0  0  0  0
   -4.9556   -2.1618   -9.4769 C   0  0  0  0  0  0  0  0  0  0  0  0
   -5.6811   -2.3066   -8.1489 C   0  0  1  0  0  0  0  0  0  0  0  0
   -6.8068   -1.2893   -8.0814 C   0  0  1  0  0  0  0  0  0  0  0  0
   -7.5753   -1.3882   -6.7761 C   0  0  0  0  0  0  0  0  0  0  0  0
   -3.8351   -0.5402  -10.9627 N   0  3  0  0  0  0  0  0  0  0  0  0
   -6.8786   -2.3942   -5.9011 N   0  3  0  0  0  0  0  0  0  0  0  0
   -6.2050   -3.6200   -8.0128 O   0  0  0  0  0  0  0  0  0  0  0  0
   -6.2559    0.0357   -8.1696 O   0  0  0  0  0  0  0  0  0  0  0  0
  1  2  1  0  0  0  0
  1 22  1  1  0  0  0
  1 10  1  0  0  0  0
  2  3  1  0  0  0  0
  2  7  1  6  0  0  0
  3  4  1  0  0  0  0
  3  8  1  6  0  0  0
  4  5  1  0  0  0  0
  4  9  1  1  0  0  0
  5  6  1  1  0  0  0
  5 10  1  0  0  0  0
  6 11  1  0  0  0  0
 12 13  1  0  0  0  0
 12 17  1  0  0  0  0
 12 18  1  6  0  0  0
 13 14  1  0  0  0  0
 14 15  1  0  0  0  0
 14 19  1  6  0  0  0
 15 16  1  0  0  0  0
 15 21  1  1  0  0  0
 16 17  1  0  0  0  0
 16 20  1  6  0  0  0
 17 22  1  1  0  0  0
 23 21  1  6  0  0  0
 23 24  1  0  0  0  0
 23 32  1  0  0  0  0
 24 25  1  0  0  0  0
 24 29  1  6  0  0  0
 25 26  1  0  0  0  0
 26 27  1  0  0  0  0
 26 31  1  6  0  0  0
 27 28  1  1  0  0  0
 27 32  1  0  0  0  0
 28 30  1  0  0  0  0
M  CHG  5   8   1  18   1  19   1  29   1  30   1
M  END
>  <CHROM.1>
-112.47007629,-179.82283876,-45.55076208,-54.91422229,-137.23953778,-172.77250546
-20.21604138,16.94140385,47.34615522,-105.77669255,170.03264121,157.35611668
93.39243232,58.24014077,5.33960431,174.77233225,-8.92174948,-0.95592284,-8.36181016
2.72592525,-0.12229874,2.55689021

>  <Name>
2tob cryst

>  <RI>
0

>  <Rbt.Current_Directory>
/home/itssahil/PROJECTS/Mol_Feturizer/New_Systems/rnas/2tob

>  <Rbt.Executable>
rbdock ($Id: //depot/dev/client3/rdock/2013.1/src/exe/rbdock.cxx#4 $)

>  <Rbt.Library>
libRbt.so (2013.1, Build901 2013/11/27)

>  <Rbt.Parameter_File>
/export/apps/rDock/src/rDock_2013.1_src/data/scripts/dock_solv.prm

>  <Rbt.Receptor>
prm/blind_docking_40.prm

>  <SCORE>
85.3464

>  <SCORE.INTER>
72.3573

>  <SCORE.INTER.CONST>
1

>  <SCORE.INTER.POLAR>
-6.54845

>  <SCORE.INTER.ROT>
6

>  <SCORE.INTER.SOLV>
54.7681

>  <SCORE.INTER.VDW>
44.2104

>  <SCORE.INTER.norm>
2.26117

>  <SCORE.INTRA>
10.0077

>  <SCORE.INTRA.DIHEDRAL>
16.4299

>  <SCORE.INTRA.DIHEDRAL.0>
18.4221

>  <SCORE.INTRA.POLAR>
0.605293

>  <SCORE.INTRA.POLAR.0>
-1.57101

>  <SCORE.INTRA.REPUL>
-0.697525

>  <SCORE.INTRA.REPUL.0>
0.730195

>  <SCORE.INTRA.SOLV>
-0.977982

>  <SCORE.INTRA.SOLV.lig_0>
-127.221

>  <SCORE.INTRA.VDW>
3.71138

>  <SCORE.INTRA.VDW.0>
10.8385

>  <SCORE.INTRA.norm>
0.312741

>  <SCORE.RESTR>
2.98129

>  <SCORE.RESTR.CAVITY>
2.98129

>  <SCORE.RESTR.norm>
0.0931654

>  <SCORE.SYSTEM>
0

>  <SCORE.SYSTEM.CONST>
0

>  <SCORE.SYSTEM.DIHEDRAL>
0

>  <SCORE.SYSTEM.SOLV>
0

>  <SCORE.SYSTEM.norm>
0

>  <SCORE.heavy>
32

>  <SCORE.norm>
2.66707

>  <RMSD>
6.598

$$$$
2tob cryst
 OpenBabel11021811463D
libRbt.so/2013.1/901 2013/11/27
 32 34  0  0  0  0  0  0  0  0999 V2000
  -11.3485   -2.5337   -8.9832 C   0  0  2  0  0  0  0  0  0  0  0  0
  -12.8418   -2.6318   -8.6875 C   0  0  1  0  0  0  0  0  0  0  0  0
  -13.0414   -2.7479   -7.1761 C   0  0  2  0  0  0  0  0  0  0  0  0
  -12.2375   -3.9248   -6.6077 C   0  0  1  0  0  0  0  0  0  0  0  0
  -10.7747   -3.8241   -7.0537 C   0  0  1  0  0  0  0  0  0  0  0  0
   -9.9181   -5.0185   -6.6667 C   0  0  0  0  0  0  0  0  0  0  0  0
  -13.5125   -1.4732   -9.1761 O   0  0  0  0  0  0  0  0  0  0  0  0
  -14.4454   -2.8736   -6.6714 N   0  3  0  0  0  0  0  0  0  0  0  0
  -12.3139   -3.8940   -5.1880 O   0  0  0  0  0  0  0  0  0  0  0  0
  -10.7067   -3.6935   -8.4878 O   0  0  0  0  0  0  0  0  0  0  0  0
  -10.0908   -6.0871   -7.5918 O   0  0  0  0  0  0  0  0  0  0  0  0
  -10.4429    0.9925   -8.5545 C   0  0  2  0  0  0  0  0  0  0  0  0
   -9.5948    2.1138   -9.1696 C   0  0  0  0  0  0  0  0  0  0  0  0
   -8.1238    1.7251   -9.2896 C   0  0  1  0  0  0  0  0  0  0  0  0
   -8.0286    0.4519  -10.1189 C   0  0  2  0  0  0  0  0  0  0  0  0
   -8.7339   -0.6900   -9.3826 C   0  0  1  0  0  0  0  0  0  0  0  0
  -10.2316   -0.3795   -9.2140 C   0  0  1  0  0  0  0  0  0  0  0  0
  -11.9025    1.3413   -8.6122 N   0  3  0  0  0  0  0  0  0  0  0  0
   -7.3215    2.8360   -9.8982 N   0  3  0  0  0  0  0  0  0  0  0  0
   -8.5603   -1.8987  -10.1113 O   0  0  0  0  0  0  0  0  0  0  0  0
   -6.6517    0.1072  -10.3573 O   0  0  0  0  0  0  0  0  0  0  0  0
  -10.8448   -1.3773   -8.3712 O   0  0  0  0  0  0  0  0  0  0  0  0
   -5.8446    0.2156   -9.2173 C   0  0  2  0  0  0  0  0  0  0  0  0
   -4.5004   -0.4782   -9.4618 C   0  0  1  0  0  0  0  0  0  0  0  0
   -4.6531   -1.9990   -9.4253 C   0  0  0  0  0  0  0  0  0  0  0  0
   -5.3371   -2.3956   -8.1269 C   0  0  1  0  0  0  0  0  0  0  0  0
   -6.6865   -1.7039   -8.0418 C   0  0  1  0  0  0  0  0  0  0  0  0
   -7.4234   -2.0659   -6.7651 C   0  0  0  0  0  0  0  0  0  0  0  0
   -3.9629   -0.0673  -10.7982 N   0  3  0  0  0  0  0  0  0  0  0  0
   -8.4338   -0.9863   -6.4888 N   0  3  0  0  0  0  0  0  0  0  0  0
   -5.5094   -3.8045   -8.0697 O   0  0  0  0  0  0  0  0  0  0  0  0
   -6.4917   -0.2795   -8.0499 O   0  0  0  0  0  0  0  0  0  0  0  0
  1  2  1  0  0  0  0
  1 22  1  1  0  0  0
  1 10  1  0  0  0  0
  2  3  1  0  0  0  0
  2  7  1  1  0  0  0
  3  4  1  0  0  0  0
  3  8  1  6  0  0  0
  4  5  1  0  0  0  0
  4  9  1  1  0  0  0
  5  6  1  6  0  0  0
  5 10  1  0  0  0  0
  6 11  1  0  0  0  0
 12 13  1  0  0  0  0
 12 17  1  0  0  0  0
 12 18  1  6  0  0  0
 13 14  1  0  0  0  0
 14 15  1  0  0  0  0
 14 19  1  6  0  0  0
 15 16  1  0  0  0  0
 15 21  1  1  0  0  0
 16 17  1  0  0  0  0
 16 20  1  6  0  0  0
 17 22  1  1  0  0  0
 23 21  1  6  0  0  0
 23 24  1  0  0  0  0
 23 32  1  0  0  0  0
 24 25  1  0  0  0  0
 24 29  1  6  0  0  0
 25 26  1  0  0  0  0
 26 27  1  0  0  0  0
 26 31  1  6  0  0  0
 27 28  1  1  0  0  0
 27 32  1  0  0  0  0
 28 30  1  0  0  0  0
M  CHG  5   8   1  18   1  19   1  29   1  30   1
M  END
>  <CHROM.1>
-120.41182292,67.51147084,58.05677317,-176.89962000,81.71246163,-57.96194793
44.66931199,149.66514926,44.65671063,-177.97260441,150.26570354,166.44796546
-11.60899120,-74.69815623,158.06197423,86.94081124,-9.10961686,-1.48675717
-8.42676059,2.63418100,-0.13450742,2.76068029

>  <Name>
2tob cryst

>  <RI>
2.04895e+07

>  <Rbt.Current_Directory>
/home/itssahil/PROJECTS/Mol_Feturizer/New_Systems/rnas/2tob

>  <Rbt.Executable>
rbdock ($Id: //depot/dev/client3/rdock/2013.1/src/exe/rbdock.cxx#4 $)

>  <Rbt.Library>
libRbt.so (2013.1, Build901 2013/11/27)

>  <Rbt.Parameter_File>
/export/apps/rDock/src/rDock_2013.1_src/data/scripts/dock_solv.prm

>  <Rbt.Receptor>
prm/blind_docking_20.prm

>  <SCORE>
-4.72039

>  <SCORE.INTER>
6.9726

>  <SCORE.INTER.CONST>
1

>  <SCORE.INTER.POLAR>
-5.25881

>  <SCORE.INTER.ROT>
6

>  <SCORE.INTER.SOLV>
43.9779

>  <SCORE.INTER.VDW>
-0.0815227

>  <SCORE.INTER.norm>
0.217894

>  <SCORE.INTRA>
-13.3932

>  <SCORE.INTRA.DIHEDRAL>
6.12708

>  <SCORE.INTRA.DIHEDRAL.0>
18.4221

>  <SCORE.INTRA.POLAR>
-0.973503

>  <SCORE.INTRA.POLAR.0>
-1.57101

>  <SCORE.INTRA.REPUL>
-0.730195

>  <SCORE.INTRA.REPUL.0>
0.730195

>  <SCORE.INTRA.SOLV>
-0.242064

>  <SCORE.INTRA.SOLV.lig_0>
-127.221

>  <SCORE.INTRA.VDW>
-9.37482

>  <SCORE.INTRA.VDW.0>
10.8385

>  <SCORE.INTRA.norm>
-0.418538

>  <SCORE.RESTR>
1.70021

>  <SCORE.RESTR.CAVITY>
1.70021

>  <SCORE.RESTR.norm>
0.0531314

>  <SCORE.SYSTEM>
0

>  <SCORE.SYSTEM.CONST>
0

>  <SCORE.SYSTEM.DIHEDRAL>
0

>  <SCORE.SYSTEM.SOLV>
0

>  <SCORE.SYSTEM.norm>
0

>  <SCORE.heavy>
32

>  <SCORE.norm>
-0.147512

>  <RMSD>
6.617

$$$$
2tob cryst
 OpenBabel11021811463D
libRbt.so/2013.1/901 2013/11/27
 32 34  0  0  0  0  0  0  0  0999 V2000
  -11.6280   -2.2151   -9.2522 C   0  0  2  0  0  0  0  0  0  0  0  0
  -13.0865   -2.0075   -8.8564 C   0  0  1  0  0  0  0  0  0  0  0  0
  -13.2308   -2.2450   -7.3529 C   0  0  2  0  0  0  0  0  0  0  0  0
  -12.6936   -3.6288   -6.9642 C   0  0  1  0  0  0  0  0  0  0  0  0
  -11.2717   -3.8100   -7.5067 C   0  0  1  0  0  0  0  0  0  0  0  0
  -10.6965   -5.2022   -7.3038 C   0  0  0  0  0  0  0  0  0  0  0  0
  -13.4945   -0.6804   -9.1776 O   0  0  0  0  0  0  0  0  0  0  0  0
  -14.5984   -2.1077   -6.7590 N   0  3  0  0  0  0  0  0  0  0  0  0
  -12.6889   -3.7414   -5.5467 O   0  0  0  0  0  0  0  0  0  0  0  0
  -11.2479   -3.5377   -8.9222 O   0  0  0  0  0  0  0  0  0  0  0  0
   -9.3037   -5.2231   -7.5996 O   0  0  0  0  0  0  0  0  0  0  0  0
  -10.4532    1.1015   -8.5776 C   0  0  2  0  0  0  0  0  0  0  0  0
   -9.6138    2.2707   -9.1098 C   0  0  0  0  0  0  0  0  0  0  0  0
   -8.1408    1.9014   -9.2616 C   0  0  1  0  0  0  0  0  0  0  0  0
   -8.0399    0.6937  -10.1831 C   0  0  2  0  0  0  0  0  0  0  0  0
   -8.7360   -0.5040   -9.5319 C   0  0  1  0  0  0  0  0  0  0  0  0
  -10.2352   -0.2165   -9.3373 C   0  0  1  0  0  0  0  0  0  0  0  0
  -11.9151    1.4443   -8.6060 N   0  3  0  0  0  0  0  0  0  0  0  0
   -7.3470    3.0594   -9.7880 N   0  3  0  0  0  0  0  0  0  0  0  0
   -8.5569   -1.6543  -10.3485 O   0  0  0  0  0  0  0  0  0  0  0  0
   -6.6615    0.3764  -10.4495 O   0  0  0  0  0  0  0  0  0  0  0  0
  -10.8398   -1.2779   -8.5694 O   0  0  0  0  0  0  0  0  0  0  0  0
   -5.8297    0.5238   -9.3319 C   0  0  2  0  0  0  0  0  0  0  0  0
   -4.5259   -0.2523   -9.5460 C   0  0  1  0  0  0  0  0  0  0  0  0
   -4.7526   -1.7571   -9.3994 C   0  0  0  0  0  0  0  0  0  0  0  0
   -5.4317   -2.0267   -8.0664 C   0  0  1  0  0  0  0  0  0  0  0  0
   -6.7437   -1.2636   -8.0111 C   0  0  1  0  0  0  0  0  0  0  0  0
   -7.4744   -1.4976   -6.7013 C   0  0  0  0  0  0  0  0  0  0  0  0
   -3.9929    0.0363  -10.9158 N   0  3  0  0  0  0  0  0  0  0  0  0
   -7.7965   -2.9638   -6.6037 N   0  3  0  0  0  0  0  0  0  0  0  0
   -5.6722   -3.4176   -7.9068 O   0  0  0  0  0  0  0  0  0  0  0  0
   -6.4792    0.1451   -8.1231 O   0  0  0  0  0  0  0  0  0  0  0  0
  1  2  1  0  0  0  0
  1 22  1  1  0  0  0
  1 10  1  0  0  0  0
  2  3  1  0  0  0  0
  2  7  1  1  0  0  0
  3  4  1  0  0  0  0
  3  8  1  6  0  0  0
  4  5  1  0  0  0  0
  4  9  1  1  0  0  0
  5  6  1  6  0  0  0
  5 10  1  0  0  0  0
  6 11  1  0  0  0  0
 12 13  1  0  0  0  0
 12 17  1  0  0  0  0
 12 18  1  6  0  0  0
 13 14  1  0  0  0  0
 14 15  1  0  0  0  0
 14 19  1  6  0  0  0
 15 16  1  0  0  0  0
 15 21  1  1  0  0  0
 16 17  1  0  0  0  0
 16 20  1  6  0  0  0
 17 22  1  1  0  0  0
 23 21  1  6  0  0  0
 23 24  1  0  0  0  0
 23 32  1  0  0  0  0
 24 25  1  0  0  0  0
 24 29  1  6  0  0  0
 25 26  1  0  0  0  0
 26 27  1  0  0  0  0
 26 31  1  6  0  0  0
 27 28  1  1  0  0  0
 27 32  1  0  0  0  0
 28 30  1  0  0  0  0
M  CHG  5   8   1  18   1  19   1  29   1  30   1
M  END
>  <CHROM.1>
-110.17659458,178.38607754,73.12062009,-51.99071141,-169.06618784,-72.52892387
-70.53823934,19.49849857,39.16117228,169.75382614,134.57092232,161.25689392
117.93254946,64.34324849,-61.85567920,57.18843402,-9.17791125,-1.26212647
-8.54082769,2.70359655,-0.11482719,2.76108125

>  <Name>
2tob cryst

>  <RI>
0

>  <Rbt.Current_Directory>
/home/itssahil/PROJECTS/Mol_Feturizer/New_Systems/rnas/2tob

>  <Rbt.Executable>
rbdock ($Id: //depot/dev/client3/rdock/2013.1/src/exe/rbdock.cxx#4 $)

>  <Rbt.Library>
libRbt.so (2013.1, Build901 2013/11/27)

>  <Rbt.Parameter_File>
/export/apps/rDock/src/rDock_2013.1_src/data/scripts/dock_solv.prm

>  <Rbt.Receptor>
prm/blind_docking_40.prm

>  <SCORE>
-1.72365

>  <SCORE.INTER>
0.932742

>  <SCORE.INTER.CONST>
1

>  <SCORE.INTER.POLAR>
-8.10233

>  <SCORE.INTER.ROT>
6

>  <SCORE.INTER.SOLV>
48.838

>  <SCORE.INTER.VDW>
3.75028

>  <SCORE.INTER.norm>
0.0291482

>  <SCORE.INTRA>
-8.334

>  <SCORE.INTRA.DIHEDRAL>
7.33754

>  <SCORE.INTRA.DIHEDRAL.0>
18.4221

>  <SCORE.INTRA.POLAR>
-0.619207

>  <SCORE.INTRA.POLAR.0>
-1.57101

>  <SCORE.INTRA.REPUL>
-0.502947

>  <SCORE.INTRA.REPUL.0>
0.730195

>  <SCORE.INTRA.SOLV>
2.03077

>  <SCORE.INTRA.SOLV.lig_0>
-127.221

>  <SCORE.INTRA.VDW>
-8.39812

>  <SCORE.INTRA.VDW.0>
10.8385

>  <SCORE.INTRA.norm>
-0.260438

>  <SCORE.RESTR>
5.67761

>  <SCORE.RESTR.CAVITY>
5.67761

>  <SCORE.RESTR.norm>
0.177425

>  <SCORE.SYSTEM>
0

>  <SCORE.SYSTEM.CONST>
0

>  <SCORE.SYSTEM.DIHEDRAL>
0

>  <SCORE.SYSTEM.SOLV>
0

>  <SCORE.SYSTEM.norm>
0

>  <SCORE.heavy>
32

>  <SCORE.norm>
-0.0538639

>  <RMSD>
6.638

$$$$
2tob cryst
 OpenBabel11021811463D
libRbt.so/2013.1/901 2013/11/27
 32 34  0  0  0  0  0  0  0  0999 V2000
  -11.5650   -2.3949   -9.2455 C   0  0  2  0  0  0  0  0  0  0  0  0
  -13.0764   -2.1965   -9.1868 C   0  0  1  0  0  0  0  0  0  0  0  0
  -13.5261   -2.2421   -7.7262 C   0  0  2  0  0  0  0  0  0  0  0  0
  -13.0637   -3.5408   -7.0524 C   0  0  1  0  0  0  0  0  0  0  0  0
  -11.5581   -3.7335   -7.2643 C   0  0  1  0  0  0  0  0  0  0  0  0
  -11.0198   -5.0631   -6.7616 C   0  0  0  0  0  0  0  0  0  0  0  0
  -13.4257   -0.9400   -9.7612 O   0  0  0  0  0  0  0  0  0  0  0  0
  -14.9887   -2.0841   -7.4475 N   0  3  0  0  0  0  0  0  0  0  0  0
  -13.3513   -3.4678   -5.6616 O   0  0  0  0  0  0  0  0  0  0  0  0
  -11.2449   -3.6468   -8.6688 O   0  0  0  0  0  0  0  0  0  0  0  0
  -10.9668   -5.0831   -5.3388 O   0  0  0  0  0  0  0  0  0  0  0  0
  -10.5085    1.0242   -8.5912 C   0  0  2  0  0  0  0  0  0  0  0  0
   -9.6309    2.1651   -9.1235 C   0  0  0  0  0  0  0  0  0  0  0  0
   -8.1631    1.7614   -9.2325 C   0  0  1  0  0  0  0  0  0  0  0  0
   -8.0666    0.5350  -10.1295 C   0  0  2  0  0  0  0  0  0  0  0  0
   -8.8044   -0.6353   -9.4743 C   0  0  1  0  0  0  0  0  0  0  0  0
  -10.3012   -0.3120   -9.3217 C   0  0  1  0  0  0  0  0  0  0  0  0
  -11.9613    1.3978   -8.6616 N   0  3  0  0  0  0  0  0  0  0  0  0
   -7.3316    2.8921   -9.7599 N   0  3  0  0  0  0  0  0  0  0  0  0
   -8.6310   -1.8040  -10.2655 O   0  0  0  0  0  0  0  0  0  0  0  0
   -6.6895    0.1833  -10.3563 O   0  0  0  0  0  0  0  0  0  0  0  0
  -10.9474   -1.3458   -8.5500 O   0  0  0  0  0  0  0  0  0  0  0  0
   -5.8718    0.3819   -9.2362 C   0  0  2  0  0  0  0  0  0  0  0  0
   -4.6885   -0.5909   -9.2750 C   0  0  1  0  0  0  0  0  0  0  0  0
   -5.1327   -2.0099   -8.9191 C   0  0  0  0  0  0  0  0  0  0  0  0
   -5.8750   -1.9770   -7.5929 C   0  0  1  0  0  0  0  0  0  0  0  0
   -7.0645   -1.0400   -7.7095 C   0  0  1  0  0  0  0  0  0  0  0  0
   -7.8521   -0.9688   -6.4138 C   0  0  0  0  0  0  0  0  0  0  0  0
   -4.0873   -0.5904  -10.6469 N   0  3  0  0  0  0  0  0  0  0  0  0
   -8.9738   -1.9678   -6.4956 N   0  3  0  0  0  0  0  0  0  0  0  0
   -6.3166   -3.2807   -7.2416 O   0  0  0  0  0  0  0  0  0  0  0  0
   -6.5975    0.2849   -8.0153 O   0  0  0  0  0  0  0  0  0  0  0  0
  1  2  1  0  0  0  0
  1 22  1  1  0  0  0
  1 10  1  0  0  0  0
  2  3  1  0  0  0  0
  2  7  1  1  0  0  0
  3  4  1  0  0  0  0
  3  8  1  6  0  0  0
  4  5  1  0  0  0  0
  4  9  1  1  0  0  0
  5  6  1  6  0  0  0
  5 10  1  0  0  0  0
  6 11  1  0  0  0  0
 12 13  1  0  0  0  0
 12 17  1  0  0  0  0
 12 18  1  6  0  0  0
 13 14  1  0  0  0  0
 14 15  1  0  0  0  0
 14 19  1  6  0  0  0
 15 16  1  0  0  0  0
 15 21  1  1  0  0  0
 16 17  1  0  0  0  0
 16 20  1  6  0  0  0
 17 22  1  1  0  0  0
 23 21  1  6  0  0  0
 23 24  1  0  0  0  0
 23 32  1  0  0  0  0
 24 25  1  0  0  0  0
 24 29  1  6  0  0  0
 25 26  1  0  0  0  0
 26 27  1  0  0  0  0
 26 31  1  6  0  0  0
 27 28  1  1  0  0  0
 27 32  1  0  0  0  0
 28 30  1  0  0  0  0
M  CHG  5   8   1  18   1  19   1  29   1  30   1
M  END
>  <CHROM.1>
-105.32461720,-177.87871214,102.56408039,64.87560107,-73.16911358,54.01808157
45.79101426,-97.29372334,36.84945646,173.37296566,144.29018682,152.12400370
-135.97747280,174.93610004,-94.15992832,-56.55556484,-9.45370211,-1.27684733
-8.39204873,2.67477447,-0.03560247,2.63251673

>  <Name>
2tob cryst

>  <RI>
0

>  <Rbt.Current_Directory>
/home/itssahil/PROJECTS/Mol_Feturizer/New_Systems/rnas/2tob

>  <Rbt.Executable>
rbdock ($Id: //depot/dev/client3/rdock/2013.1/src/exe/rbdock.cxx#4 $)

>  <Rbt.Library>
libRbt.so (2013.1, Build901 2013/11/27)

>  <Rbt.Parameter_File>
/export/apps/rDock/src/rDock_2013.1_src/data/scripts/dock_solv.prm

>  <Rbt.Receptor>
prm/blind_docking_40.prm

>  <SCORE>
12.1481

>  <SCORE.INTER>
9.48132

>  <SCORE.INTER.CONST>
1

>  <SCORE.INTER.POLAR>
-5.5157

>  <SCORE.INTER.ROT>
6

>  <SCORE.INTER.SOLV>
45.2852

>  <SCORE.INTER.VDW>
2.01147

>  <SCORE.INTER.norm>
0.296291

>  <SCORE.INTRA>
-4.28647

>  <SCORE.INTRA.DIHEDRAL>
11.3341

>  <SCORE.INTRA.DIHEDRAL.0>
18.4221

>  <SCORE.INTRA.POLAR>
-1.2622

>  <SCORE.INTRA.POLAR.0>
-1.57101

>  <SCORE.INTRA.REPUL>
-0.729169

>  <SCORE.INTRA.REPUL.0>
0.730195

>  <SCORE.INTRA.SOLV>
3.29077

>  <SCORE.INTRA.SOLV.lig_0>
-127.221

>  <SCORE.INTRA.VDW>
-3.66161

>  <SCORE.INTRA.VDW.0>
10.8385

>  <SCORE.INTRA.norm>
-0.133952

>  <SCORE.RESTR>
6.95322

>  <SCORE.RESTR.CAVITY>
6.95322

>  <SCORE.RESTR.norm>
0.217288

>  <SCORE.SYSTEM>
0

>  <SCORE.SYSTEM.CONST>
0

>  <SCORE.SYSTEM.DIHEDRAL>
0

>  <SCORE.SYSTEM.SOLV>
0

>  <SCORE.SYSTEM.norm>
0

>  <SCORE.heavy>
32

>  <SCORE.norm>
0.379627

>  <RMSD>
6.642

$$$$
2tob cryst
 OpenBabel11021811463D
libRbt.so/2013.1/901 2013/11/27
 32 34  0  0  0  0  0  0  0  0999 V2000
  -11.3333   -2.4629   -9.0726 C   0  0  2  0  0  0  0  0  0  0  0  0
  -12.8386   -2.4790   -8.8259 C   0  0  1  0  0  0  0  0  0  0  0  0
  -13.0935   -2.6014   -7.3233 C   0  0  2  0  0  0  0  0  0  0  0  0
  -12.3765   -3.8289   -6.7457 C   0  0  1  0  0  0  0  0  0  0  0  0
  -10.8966   -3.8066   -7.1436 C   0  0  1  0  0  0  0  0  0  0  0  0
  -10.1220   -5.0523   -6.7458 C   0  0  0  0  0  0  0  0  0  0  0  0
  -13.4263   -1.2784   -9.3198 O   0  0  0  0  0  0  0  0  0  0  0  0
  -14.5180   -2.6526   -6.8652 N   0  3  0  0  0  0  0  0  0  0  0  0
  -12.4971   -3.8104   -5.3288 O   0  0  0  0  0  0  0  0  0  0  0  0
  -10.7747   -3.6632   -8.5729 O   0  0  0  0  0  0  0  0  0  0  0  0
  -10.0837   -5.9891   -7.8177 O   0  0  0  0  0  0  0  0  0  0  0  0
  -10.4075    1.0332   -8.5535 C   0  0  2  0  0  0  0  0  0  0  0  0
   -9.5743    2.1785   -9.1445 C   0  0  0  0  0  0  0  0  0  0  0  0
   -8.1003    1.8076   -9.2833 C   0  0  1  0  0  0  0  0  0  0  0  0
   -7.9978    0.5572  -10.1458 C   0  0  2  0  0  0  0  0  0  0  0  0
   -8.6873   -0.6102   -9.4351 C   0  0  1  0  0  0  0  0  0  0  0  0
  -10.1869   -0.3191   -9.2496 C   0  0  1  0  0  0  0  0  0  0  0  0
  -11.8707    1.3689   -8.5934 N   0  3  0  0  0  0  0  0  0  0  0  0
   -7.3127    2.9418   -9.8677 N   0  3  0  0  0  0  0  0  0  0  0  0
   -8.5064   -1.7979  -10.1959 O   0  0  0  0  0  0  0  0  0  0  0  0
   -6.6191    0.2325  -10.4013 O   0  0  0  0  0  0  0  0  0  0  0  0
  -10.7850   -1.3444   -8.4293 O   0  0  0  0  0  0  0  0  0  0  0  0
   -5.7996    0.3531   -9.2715 C   0  0  2  0  0  0  0  0  0  0  0  0
   -4.4644   -0.3576   -9.5172 C   0  0  1  0  0  0  0  0  0  0  0  0
   -4.6309   -1.8760   -9.4525 C   0  0  0  0  0  0  0  0  0  0  0  0
   -5.3054   -2.2434   -8.1406 C   0  0  1  0  0  0  0  0  0  0  0  0
   -6.6474   -1.5375   -8.0542 C   0  0  1  0  0  0  0  0  0  0  0  0
   -7.3746   -1.8703   -6.7640 C   0  0  0  0  0  0  0  0  0  0  0  0
   -3.9367    0.0248  -10.8659 N   0  3  0  0  0  0  0  0  0  0  0  0
   -8.4574   -0.8457   -6.5626 N   0  3  0  0  0  0  0  0  0  0  0  0
   -5.4902   -3.6494   -8.0570 O   0  0  0  0  0  0  0  0  0  0  0  0
   -6.4393   -0.1154   -8.0892 O   0  0  0  0  0  0  0  0  0  0  0  0
  1  2  1  0  0  0  0
  1 22  1  1  0  0  0
  1 10  1  0  0  0  0
  2  3  1  0  0  0  0
  2  7  1  1  0  0  0
  3  4  1  0  0  0  0
  3  8  1  6  0  0  0
  4  5  1  0  0  0  0
  4  9  1  1  0  0  0
  5  6  1  6  0  0  0
  5 10  1  0  0  0  0
  6 11  1  0  0  0  0
 12 13  1  0  0  0  0
 12 17  1  0  0  0  0
 12 18  1  6  0  0  0
 13 14  1  0  0  0  0
 14 15  1  0  0  0  0
 14 19  1  6  0  0  0
 15 16  1  0  0  0  0
 15 21  1  1  0  0  0
 16 17  1  0  0  0  0
 16 20  1  6  0  0  0
 17 22  1  1  0  0  0
 23 21  1  6  0  0  0
 23 24  1  0  0  0  0
 23 32  1  0  0  0  0
 24 25  1  0  0  0  0
 24 29  1  6  0  0  0
 25 26  1  0  0  0  0
 26 27  1  0  0  0  0
 26 31  1  6  0  0  0
 27 28  1  1  0  0  0
 27 32  1  0  0  0  0
 28 30  1  0  0  0  0
M  CHG  5   8   1  18   1  19   1  29   1  30   1
M  END
>  <CHROM.1>
-115.36364382,178.72834127,-56.48146450,71.24964999,94.39060194,79.94132433
-74.38178496,-97.38662978,43.09016261,-178.08187861,147.54951322,164.75268438
119.23249424,-64.59336634,163.20131371,-33.73242559,-9.11265067,-1.37914509
-8.49092908,2.65218716,-0.13132709,2.78430638

>  <Name>
2tob cryst

>  <RI>
0

>  <Rbt.Current_Directory>
/home/itssahil/PROJECTS/Mol_Feturizer/New_Systems/rnas/2tob

>  <Rbt.Executable>
rbdock ($Id: //depot/dev/client3/rdock/2013.1/src/exe/rbdock.cxx#4 $)

>  <Rbt.Library>
libRbt.so (2013.1, Build901 2013/11/27)

>  <Rbt.Parameter_File>
/export/apps/rDock/src/rDock_2013.1_src/data/scripts/dock_solv.prm

>  <Rbt.Receptor>
prm/blind_docking_80.prm

>  <SCORE>
-2.40905

>  <SCORE.INTER>
4.5721

>  <SCORE.INTER.CONST>
1

>  <SCORE.INTER.POLAR>
-5.51325

>  <SCORE.INTER.ROT>
6

>  <SCORE.INTER.SOLV>
44.3917

>  <SCORE.INTER.VDW>
-0.971667

>  <SCORE.INTER.norm>
0.142878

>  <SCORE.INTRA>
-9.58483

>  <SCORE.INTRA.DIHEDRAL>
10.0828

>  <SCORE.INTRA.DIHEDRAL.0>
18.4221

>  <SCORE.INTRA.POLAR>
-0.856209

>  <SCORE.INTRA.POLAR.0>
-1.57101

>  <SCORE.INTRA.REPUL>
-0.730195

>  <SCORE.INTRA.REPUL.0>
0.730195

>  <SCORE.INTRA.SOLV>
1.24825

>  <SCORE.INTRA.SOLV.lig_0>
-127.221

>  <SCORE.INTRA.VDW>
-8.68828

>  <SCORE.INTRA.VDW.0>
10.8385

>  <SCORE.INTRA.norm>
-0.299526

>  <SCORE.RESTR>
2.60368

>  <SCORE.RESTR.CAVITY>
2.60368

>  <SCORE.RESTR.norm>
0.0813651

>  <SCORE.SYSTEM>
0

>  <SCORE.SYSTEM.CONST>
0

>  <SCORE.SYSTEM.DIHEDRAL>
0

>  <SCORE.SYSTEM.SOLV>
0

>  <SCORE.SYSTEM.norm>
0

>  <SCORE.heavy>
32

>  <SCORE.norm>
-0.0752827

>  <RMSD>
6.667

$$$$
2tob cryst
 OpenBabel11021811463D
libRbt.so/2013.1/901 2013/11/27
 32 34  0  0  0  0  0  0  0  0999 V2000
  -11.5543   -2.9603   -8.9352 C   0  0  2  0  0  0  0  0  0  0  0  0
  -13.0385   -2.8381   -8.6047 C   0  0  1  0  0  0  0  0  0  0  0  0
  -13.2187   -2.9355   -7.0895 C   0  0  2  0  0  0  0  0  0  0  0  0
  -12.5857   -4.2231   -6.5456 C   0  0  1  0  0  0  0  0  0  0  0  0
  -11.1347   -4.3369   -7.0257 C   0  0  1  0  0  0  0  0  0  0  0  0
  -10.4563   -5.6482   -6.6645 C   0  0  0  0  0  0  0  0  0  0  0  0
  -13.5407   -1.5890   -9.0720 O   0  0  0  0  0  0  0  0  0  0  0  0
  -14.6140   -2.8556   -6.5522 N   0  3  0  0  0  0  0  0  0  0  0  0
  -12.6244   -4.1926   -5.1244 O   0  0  0  0  0  0  0  0  0  0  0  0
  -11.0807   -4.2064   -8.4604 O   0  0  0  0  0  0  0  0  0  0  0  0
   -9.1580   -5.7237   -7.2445 O   0  0  0  0  0  0  0  0  0  0  0  0
  -10.9565    0.5084   -8.4738 C   0  0  2  0  0  0  0  0  0  0  0  0
  -10.3607    1.7872   -9.0778 C   0  0  0  0  0  0  0  0  0  0  0  0
   -8.8436    1.7046   -9.2223 C   0  0  1  0  0  0  0  0  0  0  0  0
   -8.5070    0.4899  -10.0763 C   0  0  2  0  0  0  0  0  0  0  0  0
   -8.9569   -0.7821   -9.3532 C   0  0  1  0  0  0  0  0  0  0  0  0
  -10.4837   -0.7822   -9.1612 C   0  0  1  0  0  0  0  0  0  0  0  0
  -12.4571    0.5571   -8.5078 N   0  3  0  0  0  0  0  0  0  0  0  0
   -8.2905    2.9638   -9.8195 N   0  3  0  0  0  0  0  0  0  0  0  0
   -8.5549   -1.9193  -10.1063 O   0  0  0  0  0  0  0  0  0  0  0  0
   -7.0927    0.4334  -10.3372 O   0  0  0  0  0  0  0  0  0  0  0  0
  -10.8707   -1.8963   -8.3300 O   0  0  0  0  0  0  0  0  0  0  0  0
   -6.3068    0.6171   -9.1921 C   0  0  2  0  0  0  0  0  0  0  0  0
   -4.8621    0.1938   -9.4774 C   0  0  1  0  0  0  0  0  0  0  0  0
   -4.7373   -1.3290   -9.5339 C   0  0  0  0  0  0  0  0  0  0  0  0
   -5.3252   -1.9202   -8.2628 C   0  0  1  0  0  0  0  0  0  0  0  0
   -6.7764   -1.4903   -8.1368 C   0  0  1  0  0  0  0  0  0  0  0  0
   -7.4228   -2.0559   -6.8852 C   0  0  0  0  0  0  0  0  0  0  0  0
   -4.4212    0.7748  -10.7856 N   0  3  0  0  0  0  0  0  0  0  0  0
   -8.2417   -3.2528   -7.2847 N   0  3  0  0  0  0  0  0  0  0  0  0
   -5.2398   -3.3379   -8.2920 O   0  0  0  0  0  0  0  0  0  0  0  0
   -6.8420   -0.0563   -8.0577 O   0  0  0  0  0  0  0  0  0  0  0  0
  1  2  1  0  0  0  0
  1 22  1  1  0  0  0
  1 10  1  0  0  0  0
  2  3  1  0  0  0  0
  2  7  1  1  0  0  0
  3  4  1  0  0  0  0
  3  8  1  6  0  0  0
  4  5  1  0  0  0  0
  4  9  1  1  0  0  0
  5  6  1  6  0  0  0
  5 10  1  0  0  0  0
  6 11  1  0  0  0  0
 12 13  1  0  0  0  0
 12 17  1  0  0  0  0
 12 18  1  6  0  0  0
 13 14  1  0  0  0  0
 14 15  1  0  0  0  0
 14 19  1  6  0  0  0
 15 16  1  0  0  0  0
 15 21  1  1  0  0  0
 16 17  1  0  0  0  0
 16 20  1  6  0  0  0
 17 22  1  1  0  0  0
 23 21  1  6  0  0  0
 23 24  1  0  0  0  0
 23 32  1  0  0  0  0
 24 25  1  0  0  0  0
 24 29  1  6  0  0  0
 25 26  1  0  0  0  0
 26 27  1  0  0  0  0
 26 31  1  6  0  0  0
 27 28  1  1  0  0  0
 27 32  1  0  0  0  0
 28 30  1  0  0  0  0
M  CHG  5   8   1  18   1  19   1  29   1  30   1
M  END
>  <CHROM.1>
-101.99967369,69.70577509,-59.02247654,-179.16269543,174.87870590,-75.30444099
-62.43436139,7.51774003,47.69519625,-174.76357285,129.61847517,165.63257794
48.48758309,-176.74162211,-100.33633801,38.68033779,-9.34897719,-1.59771276
-8.42468849,2.56613927,-0.11244923,2.74106450

>  <Name>
2tob cryst

>  <RI>
2.04895e+07

>  <Rbt.Current_Directory>
/home/itssahil/PROJECTS/Mol_Feturizer/New_Systems/rnas/2tob

>  <Rbt.Executable>
rbdock ($Id: //depot/dev/client3/rdock/2013.1/src/exe/rbdock.cxx#4 $)

>  <Rbt.Library>
libRbt.so (2013.1, Build901 2013/11/27)

>  <Rbt.Parameter_File>
/export/apps/rDock/src/rDock_2013.1_src/data/scripts/dock_solv.prm

>  <Rbt.Receptor>
prm/blind_docking_20.prm

>  <SCORE>
-8.2159

>  <SCORE.INTER>
-3.74321

>  <SCORE.INTER.CONST>
1

>  <SCORE.INTER.POLAR>
-6.83633

>  <SCORE.INTER.ROT>
6

>  <SCORE.INTER.SOLV>
41.0307

>  <SCORE.INTER.VDW>
-0.984606

>  <SCORE.INTER.norm>
-0.116975

>  <SCORE.INTRA>
-7.04531

>  <SCORE.INTRA.DIHEDRAL>
6.57576

>  <SCORE.INTRA.DIHEDRAL.0>
18.4221

>  <SCORE.INTRA.POLAR>
-0.353367

>  <SCORE.INTRA.POLAR.0>
-1.57101

>  <SCORE.INTRA.REPUL>
-0.730195

>  <SCORE.INTRA.REPUL.0>
0.730195

>  <SCORE.INTRA.SOLV>
6.14656

>  <SCORE.INTRA.SOLV.lig_0>
-127.221

>  <SCORE.INTRA.VDW>
-8.55405

>  <SCORE.INTRA.VDW.0>
10.8385

>  <SCORE.INTRA.norm>
-0.220166

>  <SCORE.RESTR>
2.57263

>  <SCORE.RESTR.CAVITY>
2.57263

>  <SCORE.RESTR.norm>
0.0803946

>  <SCORE.SYSTEM>
0

>  <SCORE.SYSTEM.CONST>
0

>  <SCORE.SYSTEM.DIHEDRAL>
0

>  <SCORE.SYSTEM.SOLV>
0

>  <SCORE.SYSTEM.norm>
0

>  <SCORE.heavy>
32

>  <SCORE.norm>
-0.256747

>  <RMSD>
6.675

$$$$
2tob cryst
 OpenBabel11021811463D
libRbt.so/2013.1/901 2013/11/27
 32 34  0  0  0  0  0  0  0  0999 V2000
   -3.0801    2.6471  -11.0709 C   0  0  2  0  0  0  0  0  0  0  0  0
   -2.6901    3.9886  -10.4585 C   0  0  1  0  0  0  0  0  0  0  0  0
   -3.2951    5.1125  -11.3003 C   0  0  2  0  0  0  0  0  0  0  0  0
   -2.8780    4.9790  -12.7709 C   0  0  1  0  0  0  0  0  0  0  0  0
   -3.1852    3.5651  -13.2762 C   0  0  1  0  0  0  0  0  0  0  0  0
   -2.6789    3.2779  -14.6803 C   0  0  0  0  0  0  0  0  0  0  0  0
   -3.1736    4.0727   -9.1206 O   0  0  0  0  0  0  0  0  0  0  0  0
   -3.0153    6.5212  -10.8770 N   0  3  0  0  0  0  0  0  0  0  0  0
   -3.5935    5.9351  -13.5430 O   0  0  0  0  0  0  0  0  0  0  0  0
   -2.5902    2.5895  -12.3973 O   0  0  0  0  0  0  0  0  0  0  0  0
   -1.5011    4.0284  -14.9578 O   0  0  0  0  0  0  0  0  0  0  0  0
   -3.8801    0.2316  -10.6286 C   0  0  2  0  0  0  0  0  0  0  0  0
   -4.3070   -1.1316  -10.0679 C   0  0  0  0  0  0  0  0  0  0  0  0
   -5.1701   -0.9961   -8.8165 C   0  0  1  0  0  0  0  0  0  0  0  0
   -6.3837   -0.1430   -9.1590 C   0  0  2  0  0  0  0  0  0  0  0  0
   -5.9248    1.2667   -9.5401 C   0  0  1  0  0  0  0  0  0  0  0  0
   -5.0407    1.2245  -10.7989 C   0  0  1  0  0  0  0  0  0  0  0  0
   -3.1833    0.0655  -11.9485 N   0  3  0  0  0  0  0  0  0  0  0  0
   -5.5766   -2.3418   -8.2947 N   0  3  0  0  0  0  0  0  0  0  0  0
   -7.0635    2.0882   -9.7650 O   0  0  0  0  0  0  0  0  0  0  0  0
   -7.2880   -0.0807   -8.0410 O   0  0  0  0  0  0  0  0  0  0  0  0
   -4.4770    2.5301  -11.0430 O   0  0  0  0  0  0  0  0  0  0  0  0
   -8.5853   -0.5108   -8.3487 C   0  0  2  0  0  0  0  0  0  0  0  0
   -9.5800    0.0651   -7.3353 C   0  0  1  0  0  0  0  0  0  0  0  0
   -9.4709   -0.6534   -5.9902 C   0  0  0  0  0  0  0  0  0  0  0  0
   -9.6027   -2.1506   -6.2179 C   0  0  1  0  0  0  0  0  0  0  0  0
   -8.5169   -2.6075   -7.1765 C   0  0  1  0  0  0  0  0  0  0  0  0
   -8.5926   -4.1004   -7.4401 C   0  0  0  0  0  0  0  0  0  0  0  0
   -9.3046    1.5244   -7.1401 N   0  3  0  0  0  0  0  0  0  0  0  0
  -10.0252   -4.4480   -7.7399 N   0  3  0  0  0  0  0  0  0  0  0  0
   -9.4884   -2.8495   -4.9864 O   0  0  0  0  0  0  0  0  0  0  0  0
   -8.6768   -1.9289   -8.4338 O   0  0  0  0  0  0  0  0  0  0  0  0
  1  2  1  0  0  0  0
  1 22  1  6  0  0  0
  1 10  1  0  0  0  0
  2  3  1  0  0  0  0
  2  7  1  1  0  0  0
  3  4  1  0  0  0  0
  3  8  1  1  0  0  0
  4  5  1  0  0  0  0
  4  9  1  6  0  0  0
  5  6  1  6  0  0  0
  5 10  1  0  0  0  0
  6 11  1  0  0  0  0
 12 13  1  0  0  0  0
 12 17  1  0  0  0  0
 12 18  1  6  0  0  0
 13 14  1  0  0  0  0
 14 15  1  0  0  0  0
 14 19  1  6  0  0  0
 15 16  1  0  0  0  0
 15 21  1  1  0  0  0
 16 17  1  0  0  0  0
 16 20  1  6  0  0  0
 17 22  1  1  0  0  0
 23 21  1  1  0  0  0
 23 24  1  0  0  0  0
 23 32  1  0  0  0  0
 24 25  1  0  0  0  0
 24 29  1  1  0  0  0
 25 26  1  0  0  0  0
 26 27  1  0  0  0  0
 26 31  1  1  0  0  0
 27 28  1  6  0  0  0
 27 32  1  0  0  0  0
 28 30  1  0  0  0  0
M  CHG  5   8   1  18   1  19   1  29   1  30   1
M  END
>  <CHROM.1>
-144.06946403,-62.06292717,-177.44906602,-178.77163231,30.38175534,-145.08499899
98.45309251,52.54200441,-123.65045412,-161.20124416,-0.31904104,-158.46116965
54.92604450,-56.88366191,47.23439998,-65.61094170,-5.68132477,1.01643618
-9.80372491,-0.61011295,-0.77473651,-3.07206765

>  <Name>
2tob cryst

>  <RI>
3.75586e+07

>  <Rbt.Current_Directory>
/home/itssahil/PROJECTS/Mol_Feturizer/New_Systems/rnas/2tob

>  <Rbt.Executable>
rbdock ($Id: //depot/dev/client3/rdock/2013.1/src/exe/rbdock.cxx#4 $)

>  <Rbt.Library>
libRbt.so (2013.1, Build901 2013/11/27)

>  <Rbt.Parameter_File>
/export/apps/rDock/src/rDock_2013.1_src/data/scripts/dock_solv.prm

>  <Rbt.Receptor>
prm/pocket_docking_8.prm

>  <SCORE>
-50.6242

>  <SCORE.INTER>
-48.546

>  <SCORE.INTER.CONST>
1

>  <SCORE.INTER.POLAR>
-5.65908

>  <SCORE.INTER.ROT>
6

>  <SCORE.INTER.SOLV>
36.889

>  <SCORE.INTER.VDW>
-33.3968

>  <SCORE.INTER.norm>
-1.51706

>  <SCORE.INTRA>
-2.07821

>  <SCORE.INTRA.DIHEDRAL>
14.9457

>  <SCORE.INTRA.DIHEDRAL.0>
18.4221

>  <SCORE.INTRA.POLAR>
0.957378

>  <SCORE.INTRA.POLAR.0>
-1.57101

>  <SCORE.INTRA.REPUL>
-0.730195

>  <SCORE.INTRA.REPUL.0>
0.730195

>  <SCORE.INTRA.SOLV>
-1.06097

>  <SCORE.INTRA.SOLV.lig_0>
-127.221

>  <SCORE.INTRA.VDW>
-8.62468

>  <SCORE.INTRA.VDW.0>
10.8385

>  <SCORE.INTRA.norm>
-0.0649442

>  <SCORE.RESTR>
0

>  <SCORE.RESTR.CAVITY>
0

>  <SCORE.RESTR.norm>
0

>  <SCORE.SYSTEM>
0

>  <SCORE.SYSTEM.CONST>
0

>  <SCORE.SYSTEM.DIHEDRAL>
0

>  <SCORE.SYSTEM.SOLV>
0

>  <SCORE.SYSTEM.norm>
0

>  <SCORE.heavy>
32

>  <SCORE.norm>
-1.58201

>  <RMSD>
6.680

$$$$
2tob cryst
 OpenBabel11021811463D
libRbt.so/2013.1/901 2013/11/27
 32 34  0  0  0  0  0  0  0  0999 V2000
  -10.9865   -3.3470   -8.5548 C   0  0  2  0  0  0  0  0  0  0  0  0
  -12.5080   -3.3465   -8.6642 C   0  0  1  0  0  0  0  0  0  0  0  0
  -13.1053   -3.1593   -7.2692 C   0  0  2  0  0  0  0  0  0  0  0  0
  -12.5726   -4.2226   -6.2996 C   0  0  1  0  0  0  0  0  0  0  0  0
  -11.0408   -4.2492   -6.3412 C   0  0  1  0  0  0  0  0  0  0  0  0
  -10.4112   -5.3665   -5.5255 C   0  0  0  0  0  0  0  0  0  0  0  0
  -12.9349   -2.2890   -9.5187 O   0  0  0  0  0  0  0  0  0  0  0  0
  -14.5979   -3.1473   -7.1516 N   0  3  0  0  0  0  0  0  0  0  0  0
  -13.0159   -3.9125   -4.9844 O   0  0  0  0  0  0  0  0  0  0  0  0
  -10.5892   -4.4036   -7.7015 O   0  0  0  0  0  0  0  0  0  0  0  0
   -9.1517   -4.9616   -4.9987 O   0  0  0  0  0  0  0  0  0  0  0  0
  -10.9987    0.2380   -8.4123 C   0  0  2  0  0  0  0  0  0  0  0  0
  -10.5956    1.5247   -9.1452 C   0  0  0  0  0  0  0  0  0  0  0  0
   -9.0835    1.6417   -9.3163 C   0  0  1  0  0  0  0  0  0  0  0  0
   -8.5869    0.4107  -10.0620 C   0  0  2  0  0  0  0  0  0  0  0  0
   -8.8454   -0.8375   -9.2145 C   0  0  1  0  0  0  0  0  0  0  0  0
  -10.3549   -1.0330   -8.9883 C   0  0  1  0  0  0  0  0  0  0  0  0
  -12.4913    0.0730   -8.4161 N   0  3  0  0  0  0  0  0  0  0  0  0
   -8.7197    2.9037  -10.0396 N   0  3  0  0  0  0  0  0  0  0  0  0
   -8.2940   -1.9735   -9.8685 O   0  0  0  0  0  0  0  0  0  0  0  0
   -7.1814    0.5281  -10.3491 O   0  0  0  0  0  0  0  0  0  0  0  0
  -10.5724   -2.1066   -8.0493 O   0  0  0  0  0  0  0  0  0  0  0  0
   -6.4020    0.7985   -9.2168 C   0  0  2  0  0  0  0  0  0  0  0  0
   -4.9940    0.2232   -9.4031 C   0  0  1  0  0  0  0  0  0  0  0  0
   -4.9988   -1.2985   -9.2542 C   0  0  0  0  0  0  0  0  0  0  0  0
   -5.6561   -1.6633   -7.9329 C   0  0  1  0  0  0  0  0  0  0  0  0
   -7.0672   -1.1023   -7.9055 C   0  0  1  0  0  0  0  0  0  0  0  0
   -7.7802   -1.4396   -6.6086 C   0  0  0  0  0  0  0  0  0  0  0  0
   -4.4834    0.5851  -10.7640 N   0  3  0  0  0  0  0  0  0  0  0  0
   -8.0701   -2.9157   -6.6073 N   0  3  0  0  0  0  0  0  0  0  0  0
   -5.6915   -3.0742   -7.7718 O   0  0  0  0  0  0  0  0  0  0  0  0
   -7.0115    0.3298   -8.0187 O   0  0  0  0  0  0  0  0  0  0  0  0
  1  2  1  0  0  0  0
  1 22  1  1  0  0  0
  1 10  1  0  0  0  0
  2  3  1  0  0  0  0
  2  7  1  6  0  0  0
  3  4  1  0  0  0  0
  3  8  1  6  0  0  0
  4  5  1  0  0  0  0
  4  9  1  1  0  0  0
  5  6  1  1  0  0  0
  5 10  1  0  0  0  0
  6 11  1  0  0  0  0
 12 13  1  0  0  0  0
 12 17  1  0  0  0  0
 12 18  1  6  0  0  0
 13 14  1  0  0  0  0
 14 15  1  0  0  0  0
 14 19  1  6  0  0  0
 15 16  1  0  0  0  0
 15 21  1  1  0  0  0
 16 17  1  0  0  0  0
 16 20  1  6  0  0  0
 17 22  1  1  0  0  0
 23 21  1  6  0  0  0
 23 24  1  0  0  0  0
 23 32  1  0  0  0  0
 24 25  1  0  0  0  0
 24 29  1  6  0  0  0
 25 26  1  0  0  0  0
 26 27  1  0  0  0  0
 26 31  1  6  0  0  0
 27 28  1  1  0  0  0
 27 32  1  0  0  0  0
 28 30  1  0  0  0  0
M  CHG  5   8   1  18   1  19   1  29   1  30   1
M  END
>  <CHROM.1>
-86.82171268,159.70806091,63.50601247,178.32752838,-148.03897461,-156.30091883
-95.70784171,-79.73008297,53.61307242,-157.27595922,135.42823808,151.13113107
60.32765420,53.17291288,-70.30417936,56.17829136,-9.35417235,-1.60755736
-8.18783586,2.46404000,-0.01102398,2.56271484

>  <Name>
2tob cryst

>  <RI>
2.04895e+07

>  <Rbt.Current_Directory>
/home/itssahil/PROJECTS/Mol_Feturizer/New_Systems/rnas/2tob

>  <Rbt.Executable>
rbdock ($Id: //depot/dev/client3/rdock/2013.1/src/exe/rbdock.cxx#4 $)

>  <Rbt.Library>
libRbt.so (2013.1, Build901 2013/11/27)

>  <Rbt.Parameter_File>
/export/apps/rDock/src/rDock_2013.1_src/data/scripts/dock_solv.prm

>  <Rbt.Receptor>
prm/blind_docking_20.prm

>  <SCORE>
-18.4554

>  <SCORE.INTER>
-24.3619

>  <SCORE.INTER.CONST>
1

>  <SCORE.INTER.POLAR>
-7.59502

>  <SCORE.INTER.ROT>
6

>  <SCORE.INTER.SOLV>
38.5072

>  <SCORE.INTER.VDW>
-11.3603

>  <SCORE.INTER.norm>
-0.761309

>  <SCORE.INTRA>
3.47866

>  <SCORE.INTRA.DIHEDRAL>
7.66672

>  <SCORE.INTRA.DIHEDRAL.0>
18.4221

>  <SCORE.INTRA.POLAR>
-1.59331

>  <SCORE.INTRA.POLAR.0>
-1.57101

>  <SCORE.INTRA.REPUL>
-0.730195

>  <SCORE.INTRA.REPUL.0>
0.730195

>  <SCORE.INTRA.SOLV>
6.71082

>  <SCORE.INTRA.SOLV.lig_0>
-127.221

>  <SCORE.INTRA.VDW>
5.35811

>  <SCORE.INTRA.VDW.0>
10.8385

>  <SCORE.INTRA.norm>
0.108708

>  <SCORE.RESTR>
2.42783

>  <SCORE.RESTR.CAVITY>
2.42783

>  <SCORE.RESTR.norm>
0.0758697

>  <SCORE.SYSTEM>
0

>  <SCORE.SYSTEM.CONST>
0

>  <SCORE.SYSTEM.DIHEDRAL>
0

>  <SCORE.SYSTEM.SOLV>
0

>  <SCORE.SYSTEM.norm>
0

>  <SCORE.heavy>
32

>  <SCORE.norm>
-0.576731

>  <RMSD>
6.681

$$$$
2tob cryst
 OpenBabel11021811463D
libRbt.so/2013.1/901 2013/11/27
 32 34  0  0  0  0  0  0  0  0999 V2000
  -10.9452   -3.3549   -8.3840 C   0  0  2  0  0  0  0  0  0  0  0  0
  -12.2801   -3.8064   -8.9681 C   0  0  1  0  0  0  0  0  0  0  0  0
  -13.3554   -3.7015   -7.8863 C   0  0  2  0  0  0  0  0  0  0  0  0
  -12.9496   -4.4901   -6.6341 C   0  0  1  0  0  0  0  0  0  0  0  0
  -11.5459   -4.0713   -6.1833 C   0  0  1  0  0  0  0  0  0  0  0  0
  -10.9851   -4.8941   -5.0351 C   0  0  0  0  0  0  0  0  0  0  0  0
  -12.6294   -2.9842  -10.0783 O   0  0  0  0  0  0  0  0  0  0  0  0
  -14.7467   -4.1173   -8.2512 N   0  3  0  0  0  0  0  0  0  0  0  0
  -13.8886   -4.2287   -5.5987 O   0  0  0  0  0  0  0  0  0  0  0  0
  -10.6224   -4.1850   -7.2844 O   0  0  0  0  0  0  0  0  0  0  0  0
   -9.7730   -4.3261   -4.5491 O   0  0  0  0  0  0  0  0  0  0  0  0
  -11.2118    0.3523   -8.4198 C   0  0  2  0  0  0  0  0  0  0  0  0
  -10.6434    1.5679   -9.1644 C   0  0  0  0  0  0  0  0  0  0  0  0
   -9.1223    1.5155   -9.2781 C   0  0  1  0  0  0  0  0  0  0  0  0
   -8.7364    0.2188   -9.9764 C   0  0  2  0  0  0  0  0  0  0  0  0
   -9.1611   -0.9714   -9.1126 C   0  0  1  0  0  0  0  0  0  0  0  0
  -10.6903   -0.9958   -8.9419 C   0  0  1  0  0  0  0  0  0  0  0  0
  -12.7123    0.3504   -8.4790 N   0  3  0  0  0  0  0  0  0  0  0  0
   -8.5961    2.7111  -10.0140 N   0  3  0  0  0  0  0  0  0  0  0  0
   -8.7138   -2.1772   -9.7191 O   0  0  0  0  0  0  0  0  0  0  0  0
   -7.3169    0.1752  -10.2102 O   0  0  0  0  0  0  0  0  0  0  0  0
  -11.0586   -2.0145   -7.9888 O   0  0  0  0  0  0  0  0  0  0  0  0
   -6.5558    0.5106   -9.0829 C   0  0  2  0  0  0  0  0  0  0  0  0
   -5.1283   -0.0242   -9.2391 C   0  0  1  0  0  0  0  0  0  0  0  0
   -5.0846   -1.5390   -9.0366 C   0  0  0  0  0  0  0  0  0  0  0  0
   -5.7402   -1.8787   -7.7078 C   0  0  1  0  0  0  0  0  0  0  0  0
   -7.1691   -1.3639   -7.7099 C   0  0  1  0  0  0  0  0  0  0  0  0
   -7.8810   -1.6788   -6.4068 C   0  0  0  0  0  0  0  0  0  0  0  0
   -4.6190    0.3064  -10.6084 N   0  3  0  0  0  0  0  0  0  0  0  0
   -8.1256   -3.1623   -6.3569 N   0  3  0  0  0  0  0  0  0  0  0  0
   -5.7308   -3.2836   -7.4973 O   0  0  0  0  0  0  0  0  0  0  0  0
   -7.1592    0.0644   -7.8732 O   0  0  0  0  0  0  0  0  0  0  0  0
  1  2  1  0  0  0  0
  1 22  1  1  0  0  0
  1 10  1  0  0  0  0
  2  3  1  0  0  0  0
  2  7  1  6  0  0  0
  3  4  1  0  0  0  0
  3  8  1  6  0  0  0
  4  5  1  0  0  0  0
  4  9  1  1  0  0  0
  5  6  1  1  0  0  0
  5 10  1  0  0  0  0
  6 11  1  0  0  0  0
 12 13  1  0  0  0  0
 12 17  1  0  0  0  0
 12 18  1  6  0  0  0
 13 14  1  0  0  0  0
 14 15  1  0  0  0  0
 14 19  1  6  0  0  0
 15 16  1  0  0  0  0
 15 21  1  1  0  0  0
 16 17  1  0  0  0  0
 16 20  1  6  0  0  0
 17 22  1  1  0  0  0
 23 21  1  6  0  0  0
 23 24  1  0  0  0  0
 23 32  1  0  0  0  0
 24 25  1  0  0  0  0
 24 29  1  6  0  0  0
 25 26  1  0  0  0  0
 26 27  1  0  0  0  0
 26 31  1  6  0  0  0
 27 28  1  1  0  0  0
 27 32  1  0  0  0  0
 28 30  1  0  0  0  0
M  CHG  5   8   1  18   1  19   1  29   1  30   1
M  END
>  <CHROM.1>
-92.02484449,-176.14488262,-167.97207330,-179.01549342,-171.55334152,-176.35825034
178.39136825,165.12216488,48.03411851,71.69628924,166.53355765,159.96141085
63.49318903,38.74864340,-70.44087018,53.15160461,-9.54335144,-1.76083536
-8.17137163,-2.51928911,-0.08109953,-0.62590597

>  <Name>
2tob cryst

>  <RI>
2.04895e+07

>  <Rbt.Current_Directory>
/home/itssahil/PROJECTS/Mol_Feturizer/New_Systems/rnas/2tob

>  <Rbt.Executable>
rbdock ($Id: //depot/dev/client3/rdock/2013.1/src/exe/rbdock.cxx#4 $)

>  <Rbt.Library>
libRbt.so (2013.1, Build901 2013/11/27)

>  <Rbt.Parameter_File>
/export/apps/rDock/src/rDock_2013.1_src/data/scripts/dock_solv.prm

>  <Rbt.Receptor>
prm/blind_docking_20.prm

>  <SCORE>
-7.90622

>  <SCORE.INTER>
0.70587

>  <SCORE.INTER.CONST>
1

>  <SCORE.INTER.POLAR>
-6.6364

>  <SCORE.INTER.ROT>
6

>  <SCORE.INTER.SOLV>
42.2259

>  <SCORE.INTER.VDW>
0.9166

>  <SCORE.INTER.norm>
0.0220584

>  <SCORE.INTRA>
-12.0861

>  <SCORE.INTRA.DIHEDRAL>
-6.45108

>  <SCORE.INTRA.DIHEDRAL.0>
18.4221

>  <SCORE.INTRA.POLAR>
-1.25862

>  <SCORE.INTRA.POLAR.0>
-1.57101

>  <SCORE.INTRA.REPUL>
-0.730195

>  <SCORE.INTRA.REPUL.0>
0.730195

>  <SCORE.INTRA.SOLV>
2.23559

>  <SCORE.INTRA.SOLV.lig_0>
-127.221

>  <SCORE.INTRA.VDW>
-2.04804

>  <SCORE.INTRA.VDW.0>
10.8385

>  <SCORE.INTRA.norm>
-0.37769

>  <SCORE.RESTR>
3.47399

>  <SCORE.RESTR.CAVITY>
3.47399

>  <SCORE.RESTR.norm>
0.108562

>  <SCORE.SYSTEM>
0

>  <SCORE.SYSTEM.CONST>
0

>  <SCORE.SYSTEM.DIHEDRAL>
0

>  <SCORE.SYSTEM.SOLV>
0

>  <SCORE.SYSTEM.norm>
0

>  <SCORE.heavy>
32

>  <SCORE.norm>
-0.247069

>  <RMSD>
6.682

$$$$
2tob cryst
 OpenBabel11021811463D
libRbt.so/2013.1/901 2013/11/27
 32 34  0  0  0  0  0  0  0  0999 V2000
  -11.3173   -2.4058   -9.2074 C   0  0  2  0  0  0  0  0  0  0  0  0
  -12.8387   -2.3480   -9.3008 C   0  0  1  0  0  0  0  0  0  0  0  0
  -13.4227   -2.3516   -7.8878 C   0  0  2  0  0  0  0  0  0  0  0  0
  -12.9149   -3.5598   -7.0897 C   0  0  1  0  0  0  0  0  0  0  0  0
  -11.3847   -3.6213   -7.1494 C   0  0  1  0  0  0  0  0  0  0  0  0
  -10.7822   -4.8629   -6.5124 C   0  0  0  0  0  0  0  0  0  0  0  0
  -13.2404   -1.1654   -9.9869 O   0  0  0  0  0  0  0  0  0  0  0  0
  -14.9137   -2.3166   -7.7553 N   0  3  0  0  0  0  0  0  0  0  0  0
  -13.3419   -3.4342   -5.7391 O   0  0  0  0  0  0  0  0  0  0  0  0
  -10.9451   -3.5865   -8.5220 O   0  0  0  0  0  0  0  0  0  0  0  0
   -9.3614   -4.7752   -6.4759 O   0  0  0  0  0  0  0  0  0  0  0  0
  -10.4312    1.1064   -8.5431 C   0  0  2  0  0  0  0  0  0  0  0  0
   -9.5777    2.2589   -9.0894 C   0  0  0  0  0  0  0  0  0  0  0  0
   -8.1153    1.8600   -9.2671 C   0  0  1  0  0  0  0  0  0  0  0  0
   -8.0550    0.6513  -10.1908 C   0  0  2  0  0  0  0  0  0  0  0  0
   -8.7637   -0.5327   -9.5281 C   0  0  1  0  0  0  0  0  0  0  0  0
  -10.2531   -0.2151   -9.3072 C   0  0  1  0  0  0  0  0  0  0  0  0
  -11.8860    1.4787   -8.5457 N   0  3  0  0  0  0  0  0  0  0  0  0
   -7.3076    3.0022   -9.8067 N   0  3  0  0  0  0  0  0  0  0  0  0
   -8.6222   -1.6856  -10.3483 O   0  0  0  0  0  0  0  0  0  0  0  0
   -6.6882    0.3065  -10.4815 O   0  0  0  0  0  0  0  0  0  0  0  0
  -10.8656   -1.2647   -8.5294 O   0  0  0  0  0  0  0  0  0  0  0  0
   -5.8452    0.3805   -9.3650 C   0  0  2  0  0  0  0  0  0  0  0  0
   -4.5594   -0.4101   -9.6287 C   0  0  1  0  0  0  0  0  0  0  0  0
   -4.8161   -1.9155   -9.5558 C   0  0  0  0  0  0  0  0  0  0  0  0
   -5.4908   -2.2379   -8.2323 C   0  0  1  0  0  0  0  0  0  0  0  0
   -6.7863   -1.4521   -8.1277 C   0  0  1  0  0  0  0  0  0  0  0  0
   -7.5119   -1.7368   -6.8252 C   0  0  0  0  0  0  0  0  0  0  0  0
   -4.0308   -0.0640  -10.9867 N   0  3  0  0  0  0  0  0  0  0  0  0
   -8.5197   -0.6418   -6.6050 N   0  3  0  0  0  0  0  0  0  0  0  0
   -5.7588   -3.6300   -8.1406 O   0  0  0  0  0  0  0  0  0  0  0  0
   -6.4935   -0.0453   -8.1712 O   0  0  0  0  0  0  0  0  0  0  0  0
  1  2  1  0  0  0  0
  1 22  1  1  0  0  0
  1 10  1  0  0  0  0
  2  3  1  0  0  0  0
  2  7  1  1  0  0  0
  3  4  1  0  0  0  0
  3  8  1  6  0  0  0
  4  5  1  0  0  0  0
  4  9  1  1  0  0  0
  5  6  1  6  0  0  0
  5 10  1  0  0  0  0
  6 11  1  0  0  0  0
 12 13  1  0  0  0  0
 12 17  1  0  0  0  0
 12 18  1  6  0  0  0
 13 14  1  0  0  0  0
 14 15  1  0  0  0  0
 14 19  1  6  0  0  0
 15 16  1  0  0  0  0
 15 21  1  1  0  0  0
 16 17  1  0  0  0  0
 16 20  1  6  0  0  0
 17 22  1  1  0  0  0
 23 21  1  6  0  0  0
 23 24  1  0  0  0  0
 23 32  1  0  0  0  0
 24 25  1  0  0  0  0
 24 29  1  6  0  0  0
 25 26  1  0  0  0  0
 26 27  1  0  0  0  0
 26 31  1  6  0  0  0
 27 28  1  1  0  0  0
 27 32  1  0  0  0  0
 28 30  1  0  0  0  0
M  CHG  5   8   1  18   1  19   1  29   1  30   1
M  END
>  <CHROM.1>
-104.73744379,177.43547773,-70.77499565,179.84732737,-173.53810555,-63.15728868
173.05630064,15.78280540,41.75539864,166.19882329,154.48185116,161.86560858
-145.88559818,81.69171130,162.72558706,-37.59304531,-9.23729243,-1.23415109
-8.58288232,2.71131854,-0.08798778,2.72007164

>  <Name>
2tob cryst

>  <RI>
0

>  <Rbt.Current_Directory>
/home/itssahil/PROJECTS/Mol_Feturizer/New_Systems/rnas/2tob

>  <Rbt.Executable>
rbdock ($Id: //depot/dev/client3/rdock/2013.1/src/exe/rbdock.cxx#4 $)

>  <Rbt.Library>
libRbt.so (2013.1, Build901 2013/11/27)

>  <Rbt.Parameter_File>
/export/apps/rDock/src/rDock_2013.1_src/data/scripts/dock_solv.prm

>  <Rbt.Receptor>
prm/blind_docking_40.prm

>  <SCORE>
8.18407

>  <SCORE.INTER>
13.8998

>  <SCORE.INTER.CONST>
1

>  <SCORE.INTER.POLAR>
-5.88765

>  <SCORE.INTER.ROT>
6

>  <SCORE.INTER.SOLV>
47.6423

>  <SCORE.INTER.VDW>
5.41126

>  <SCORE.INTER.norm>
0.434369

>  <SCORE.INTRA>
-10.5281

>  <SCORE.INTRA.DIHEDRAL>
4.57671

>  <SCORE.INTRA.DIHEDRAL.0>
18.4221

>  <SCORE.INTRA.POLAR>
-0.188796

>  <SCORE.INTRA.POLAR.0>
-1.57101

>  <SCORE.INTRA.REPUL>
-0.730195

>  <SCORE.INTRA.REPUL.0>
0.730195

>  <SCORE.INTRA.SOLV>
0.19364

>  <SCORE.INTRA.SOLV.lig_0>
-127.221

>  <SCORE.INTRA.VDW>
-8.62036

>  <SCORE.INTRA.VDW.0>
10.8385

>  <SCORE.INTRA.norm>
-0.329002

>  <SCORE.RESTR>
4.81232

>  <SCORE.RESTR.CAVITY>
4.81232

>  <SCORE.RESTR.norm>
0.150385

>  <SCORE.SYSTEM>
0

>  <SCORE.SYSTEM.CONST>
0

>  <SCORE.SYSTEM.DIHEDRAL>
0

>  <SCORE.SYSTEM.SOLV>
0

>  <SCORE.SYSTEM.norm>
0

>  <SCORE.heavy>
32

>  <SCORE.norm>
0.255752

>  <RMSD>
6.683

$$$$
2tob cryst
 OpenBabel11021811463D
libRbt.so/2013.1/901 2013/11/27
 32 34  0  0  0  0  0  0  0  0999 V2000
  -11.1072   -2.7016   -9.1068 C   0  0  2  0  0  0  0  0  0  0  0  0
  -12.6065   -2.8770   -9.3267 C   0  0  1  0  0  0  0  0  0  0  0  0
  -13.3088   -2.8876   -7.9687 C   0  0  2  0  0  0  0  0  0  0  0  0
  -12.7065   -3.9593   -7.0504 C   0  0  1  0  0  0  0  0  0  0  0  0
  -11.1843   -3.7951   -6.9819 C   0  0  1  0  0  0  0  0  0  0  0  0
  -10.4695   -4.8948   -6.2138 C   0  0  0  0  0  0  0  0  0  0  0  0
  -13.1106   -1.8083  -10.1233 O   0  0  0  0  0  0  0  0  0  0  0  0
  -14.7952   -3.0681   -7.9600 N   0  3  0  0  0  0  0  0  0  0  0  0
  -13.2672   -3.8226   -5.7507 O   0  0  0  0  0  0  0  0  0  0  0  0
  -10.6325   -3.7729   -8.3135 O   0  0  0  0  0  0  0  0  0  0  0  0
  -10.3992   -6.0891   -6.9861 O   0  0  0  0  0  0  0  0  0  0  0  0
  -10.6151    0.9251   -8.5326 C   0  0  2  0  0  0  0  0  0  0  0  0
   -9.8296    2.1218   -9.0857 C   0  0  0  0  0  0  0  0  0  0  0  0
   -8.3396    1.8205   -9.2224 C   0  0  1  0  0  0  0  0  0  0  0  0
   -8.1756    0.5998  -10.1173 C   0  0  2  0  0  0  0  0  0  0  0  0
   -8.8174   -0.6159   -9.4439 C   0  0  1  0  0  0  0  0  0  0  0  0
  -10.3297   -0.3967   -9.2628 C   0  0  1  0  0  0  0  0  0  0  0  0
  -12.0915    1.1967   -8.5754 N   0  3  0  0  0  0  0  0  0  0  0  0
   -7.5992    3.0039   -9.7698 N   0  3  0  0  0  0  0  0  0  0  0  0
   -8.5786   -1.7733  -10.2348 O   0  0  0  0  0  0  0  0  0  0  0  0
   -6.7821    0.3435  -10.3702 O   0  0  0  0  0  0  0  0  0  0  0  0
  -10.8873   -1.4694   -8.4753 O   0  0  0  0  0  0  0  0  0  0  0  0
   -5.9756    0.4762   -9.2324 C   0  0  2  0  0  0  0  0  0  0  0  0
   -4.5724   -0.0676   -9.5212 C   0  0  1  0  0  0  0  0  0  0  0  0
   -4.5733   -1.5961   -9.5589 C   0  0  0  0  0  0  0  0  0  0  0  0
   -5.1984   -2.1214   -8.2767 C   0  0  1  0  0  0  0  0  0  0  0  0
   -6.6086   -1.5724   -8.1472 C   0  0  1  0  0  0  0  0  0  0  0  0
   -7.2900   -2.0676   -6.8845 C   0  0  0  0  0  0  0  0  0  0  0  0
   -4.0950    0.4592  -10.8395 N   0  3  0  0  0  0  0  0  0  0  0  0
   -8.0064   -3.3487   -7.2141 N   0  3  0  0  0  0  0  0  0  0  0  0
   -5.2296   -3.5416   -8.2881 O   0  0  0  0  0  0  0  0  0  0  0  0
   -6.5559   -0.1370   -8.0861 O   0  0  0  0  0  0  0  0  0  0  0  0
  1  2  1  0  0  0  0
  1 22  1  1  0  0  0
  1 10  1  0  0  0  0
  2  3  1  0  0  0  0
  2  7  1  6  0  0  0
  3  4  1  0  0  0  0
  3  8  1  6  0  0  0
  4  5  1  0  0  0  0
  4  9  1  1  0  0  0
  5  6  1  1  0  0  0
  5 10  1  0  0  0  0
  6 11  1  0  0  0  0
 12 13  1  0  0  0  0
 12 17  1  0  0  0  0
 12 18  1  6  0  0  0
 13 14  1  0  0  0  0
 14 15  1  0  0  0  0
 14 19  1  6  0  0  0
 15 16  1  0  0  0  0
 15 21  1  1  0  0  0
 16 17  1  0  0  0  0
 16 20  1  6  0  0  0
 17 22  1  1  0  0  0
 23 21  1  6  0  0  0
 23 24  1  0  0  0  0
 23 32  1  0  0  0  0
 24 25  1  0  0  0  0
 24 29  1  6  0  0  0
 25 26  1  0  0  0  0
 26 27  1  0  0  0  0
 26 31  1  6  0  0  0
 27 28  1  1  0  0  0
 27 32  1  0  0  0  0
 28 30  1  0  0  0  0
M  CHG  5   8   1  18   1  19   1  29   1  30   1
M  END
>  <CHROM.1>
-106.42558196,168.59019118,117.30959532,70.07455626,75.59426948,-178.54171566
51.75541036,137.14032475,42.78318613,170.62155253,161.36174742,169.22913881
71.53992119,-177.13220514,-90.08368575,41.16836235,-9.21133600,-1.51516476
-8.58986493,2.61593743,-0.05369111,2.74300327

>  <Name>
2tob cryst

>  <RI>
0

>  <Rbt.Current_Directory>
/home/itssahil/PROJECTS/Mol_Feturizer/New_Systems/rnas/2tob

>  <Rbt.Executable>
rbdock ($Id: //depot/dev/client3/rdock/2013.1/src/exe/rbdock.cxx#4 $)

>  <Rbt.Library>
libRbt.so (2013.1, Build901 2013/11/27)

>  <Rbt.Parameter_File>
/export/apps/rDock/src/rDock_2013.1_src/data/scripts/dock_solv.prm

>  <Rbt.Receptor>
prm/blind_docking_80.prm

>  <SCORE>
5.63729

>  <SCORE.INTER>
8.19278

>  <SCORE.INTER.CONST>
1

>  <SCORE.INTER.POLAR>
-6.68898

>  <SCORE.INTER.ROT>
6

>  <SCORE.INTER.SOLV>
47.3226

>  <SCORE.INTER.VDW>
4.38423

>  <SCORE.INTER.norm>
0.256024

>  <SCORE.INTRA>
-6.40388

>  <SCORE.INTRA.DIHEDRAL>
4.38507

>  <SCORE.INTRA.DIHEDRAL.0>
18.4221

>  <SCORE.INTRA.POLAR>
0.79609

>  <SCORE.INTRA.POLAR.0>
-1.57101

>  <SCORE.INTRA.REPUL>
-0.730195

>  <SCORE.INTRA.REPUL.0>
0.730195

>  <SCORE.INTRA.SOLV>
1.92617

>  <SCORE.INTRA.SOLV.lig_0>
-127.221

>  <SCORE.INTRA.VDW>
-8.61523

>  <SCORE.INTRA.VDW.0>
10.8385

>  <SCORE.INTRA.norm>
-0.200121

>  <SCORE.RESTR>
3.84838

>  <SCORE.RESTR.CAVITY>
3.84838

>  <SCORE.RESTR.norm>
0.120262

>  <SCORE.SYSTEM>
0

>  <SCORE.SYSTEM.CONST>
0

>  <SCORE.SYSTEM.DIHEDRAL>
0

>  <SCORE.SYSTEM.SOLV>
0

>  <SCORE.SYSTEM.norm>
0

>  <SCORE.heavy>
32

>  <SCORE.norm>
0.176165

>  <RMSD>
6.701

$$$$
2tob cryst
 OpenBabel11021811463D
libRbt.so/2013.1/901 2013/11/27
 32 34  0  0  0  0  0  0  0  0999 V2000
  -11.2955   -3.2242   -8.9076 C   0  0  2  0  0  0  0  0  0  0  0  0
  -12.8124   -3.2926   -8.7620 C   0  0  1  0  0  0  0  0  0  0  0  0
  -13.1662   -3.3387   -7.2753 C   0  0  2  0  0  0  0  0  0  0  0  0
  -12.4425   -4.4977   -6.5771 C   0  0  1  0  0  0  0  0  0  0  0  0
  -10.9405   -4.4330   -6.8753 C   0  0  1  0  0  0  0  0  0  0  0  0
  -10.1461   -5.6180   -6.3513 C   0  0  0  0  0  0  0  0  0  0  0  0
  -13.4121   -2.1498   -9.3664 O   0  0  0  0  0  0  0  0  0  0  0  0
  -14.6160   -3.4264   -6.9116 N   0  3  0  0  0  0  0  0  0  0  0  0
  -12.6621   -4.4024   -5.1753 O   0  0  0  0  0  0  0  0  0  0  0  0
  -10.7252   -4.3675   -8.2993 O   0  0  0  0  0  0  0  0  0  0  0  0
   -9.2432   -5.2105   -5.3284 O   0  0  0  0  0  0  0  0  0  0  0  0
  -11.1156    0.3410   -8.4758 C   0  0  2  0  0  0  0  0  0  0  0  0
  -10.6249    1.6542   -9.1002 C   0  0  0  0  0  0  0  0  0  0  0  0
   -9.1064    1.6902   -9.2490 C   0  0  1  0  0  0  0  0  0  0  0  0
   -8.6764    0.4938  -10.0868 C   0  0  2  0  0  0  0  0  0  0  0  0
   -9.0221   -0.7993   -9.3441 C   0  0  1  0  0  0  0  0  0  0  0  0
  -10.5435   -0.9179   -9.1465 C   0  0  1  0  0  0  0  0  0  0  0  0
  -12.6154    0.2700   -8.5050 N   0  3  0  0  0  0  0  0  0  0  0  0
   -8.6565    2.9806   -9.8661 N   0  3  0  0  0  0  0  0  0  0  0  0
   -8.5329   -1.9118  -10.0824 O   0  0  0  0  0  0  0  0  0  0  0  0
   -7.2628    0.5460  -10.3522 O   0  0  0  0  0  0  0  0  0  0  0  0
  -10.8387   -2.0470   -8.2982 O   0  0  0  0  0  0  0  0  0  0  0  0
   -6.4925    0.8262   -9.2161 C   0  0  2  0  0  0  0  0  0  0  0  0
   -5.0498    0.3588   -9.4356 C   0  0  1  0  0  0  0  0  0  0  0  0
   -4.9469   -1.1641   -9.3467 C   0  0  0  0  0  0  0  0  0  0  0  0
   -5.5634   -1.6250   -8.0358 C   0  0  1  0  0  0  0  0  0  0  0  0
   -7.0099   -1.1659   -7.9756 C   0  0  1  0  0  0  0  0  0  0  0  0
   -7.6842   -1.6024   -6.6876 C   0  0  0  0  0  0  0  0  0  0  0  0
   -4.5798    0.8080  -10.7850 N   0  3  0  0  0  0  0  0  0  0  0  0
   -7.8592   -3.0957   -6.7369 N   0  3  0  0  0  0  0  0  0  0  0  0
   -5.4986   -3.0402   -7.9301 O   0  0  0  0  0  0  0  0  0  0  0  0
   -7.0554    0.2699   -8.0327 O   0  0  0  0  0  0  0  0  0  0  0  0
  1  2  1  0  0  0  0
  1 22  1  1  0  0  0
  1 10  1  0  0  0  0
  2  3  1  0  0  0  0
  2  7  1  1  0  0  0
  3  4  1  0  0  0  0
  3  8  1  6  0  0  0
  4  5  1  0  0  0  0
  4  9  1  1  0  0  0
  5  6  1  6  0  0  0
  5 10  1  0  0  0  0
  6 11  1  0  0  0  0
 12 13  1  0  0  0  0
 12 17  1  0  0  0  0
 12 18  1  6  0  0  0
 13 14  1  0  0  0  0
 14 15  1  0  0  0  0
 14 19  1  6  0  0  0
 15 16  1  0  0  0  0
 15 21  1  1  0  0  0
 16 17  1  0  0  0  0
 16 20  1  6  0  0  0
 17 22  1  1  0  0  0
 23 21  1  6  0  0  0
 23 24  1  0  0  0  0
 23 32  1  0  0  0  0
 24 25  1  0  0  0  0
 24 29  1  6  0  0  0
 25 26  1  0  0  0  0
 26 27  1  0  0  0  0
 26 31  1  6  0  0  0
 27 28  1  1  0  0  0
 27 32  1  0  0  0  0
 28 30  1  0  0  0  0
M  CHG  5   8   1  18   1  19   1  29   1  30   1
M  END
>  <CHROM.1>
-99.95908456,157.57661541,-165.80954329,-54.80890417,-114.04661572,-158.49898575
155.41539850,36.73972961,46.86493988,-170.35877778,136.70640101,158.86612072
-64.82933561,53.41530516,-69.80660409,-176.33021862,-9.39651241,-1.62137949
-8.31494499,2.47031406,-0.01056682,2.63199963

>  <Name>
2tob cryst

>  <RI>
0

>  <Rbt.Current_Directory>
/home/itssahil/PROJECTS/Mol_Feturizer/New_Systems/rnas/2tob

>  <Rbt.Executable>
rbdock ($Id: //depot/dev/client3/rdock/2013.1/src/exe/rbdock.cxx#4 $)

>  <Rbt.Library>
libRbt.so (2013.1, Build901 2013/11/27)

>  <Rbt.Parameter_File>
/export/apps/rDock/src/rDock_2013.1_src/data/scripts/dock_solv.prm

>  <Rbt.Receptor>
prm/blind_docking_80.prm

>  <SCORE>
-1.89608

>  <SCORE.INTER>
-2.62507

>  <SCORE.INTER.CONST>
1

>  <SCORE.INTER.POLAR>
-7.12219

>  <SCORE.INTER.ROT>
6

>  <SCORE.INTER.SOLV>
40.7825

>  <SCORE.INTER.VDW>
0.796424

>  <SCORE.INTER.norm>
-0.0820333

>  <SCORE.INTRA>
-4.906

>  <SCORE.INTRA.DIHEDRAL>
9.36365

>  <SCORE.INTRA.DIHEDRAL.0>
18.4221

>  <SCORE.INTRA.POLAR>
-0.96565

>  <SCORE.INTRA.POLAR.0>
-1.57101

>  <SCORE.INTRA.REPUL>
-0.706582

>  <SCORE.INTRA.REPUL.0>
0.730195

>  <SCORE.INTRA.SOLV>
3.96653

>  <SCORE.INTRA.SOLV.lig_0>
-127.221

>  <SCORE.INTRA.VDW>
-4.75497

>  <SCORE.INTRA.VDW.0>
10.8385

>  <SCORE.INTRA.norm>
-0.153312

>  <SCORE.RESTR>
5.63498

>  <SCORE.RESTR.CAVITY>
5.63498

>  <SCORE.RESTR.norm>
0.176093

>  <SCORE.SYSTEM>
0

>  <SCORE.SYSTEM.CONST>
0

>  <SCORE.SYSTEM.DIHEDRAL>
0

>  <SCORE.SYSTEM.SOLV>
0

>  <SCORE.SYSTEM.norm>
0

>  <SCORE.heavy>
32

>  <SCORE.norm>
-0.0592525

>  <RMSD>
6.714

$$$$
2tob cryst
 OpenBabel11021811463D
libRbt.so/2013.1/901 2013/11/27
 32 34  0  0  0  0  0  0  0  0999 V2000
  -11.0810   -3.0993   -8.8567 C   0  0  2  0  0  0  0  0  0  0  0  0
  -12.5515   -3.5049   -8.8579 C   0  0  1  0  0  0  0  0  0  0  0  0
  -13.0485   -3.5719   -7.4135 C   0  0  2  0  0  0  0  0  0  0  0  0
  -12.1675   -4.5079   -6.5755 C   0  0  1  0  0  0  0  0  0  0  0  0
  -10.6938   -4.1153   -6.7272 C   0  0  1  0  0  0  0  0  0  0  0  0
   -9.7193   -5.0675   -6.0534 C   0  0  0  0  0  0  0  0  0  0  0  0
  -13.3190   -2.5528   -9.5896 O   0  0  0  0  0  0  0  0  0  0  0  0
  -14.4738   -3.9724   -7.1903 N   0  3  0  0  0  0  0  0  0  0  0  0
  -12.5565   -4.4102   -5.2111 O   0  0  0  0  0  0  0  0  0  0  0  0
  -10.3422   -4.0585   -8.1241 O   0  0  0  0  0  0  0  0  0  0  0  0
   -9.8012   -4.9574   -4.6360 O   0  0  0  0  0  0  0  0  0  0  0  0
  -10.9956    0.5769   -8.4677 C   0  0  2  0  0  0  0  0  0  0  0  0
  -10.3653    1.8305   -9.0891 C   0  0  0  0  0  0  0  0  0  0  0  0
   -8.8494    1.7103   -9.2191 C   0  0  1  0  0  0  0  0  0  0  0  0
   -8.5341    0.4731  -10.0484 C   0  0  2  0  0  0  0  0  0  0  0  0
   -9.0194   -0.7750   -9.3068 C   0  0  1  0  0  0  0  0  0  0  0  0
  -10.5473   -0.7365   -9.1280 C   0  0  1  0  0  0  0  0  0  0  0  0
  -12.4943    0.6596   -8.5154 N   0  3  0  0  0  0  0  0  0  0  0  0
   -8.2622    2.9455   -9.8337 N   0  3  0  0  0  0  0  0  0  0  0  0
   -8.6378   -1.9346  -10.0361 O   0  0  0  0  0  0  0  0  0  0  0  0
   -7.1194    0.3792  -10.2962 O   0  0  0  0  0  0  0  0  0  0  0  0
  -10.9669   -1.8263   -8.2806 O   0  0  0  0  0  0  0  0  0  0  0  0
   -6.3392    0.5580   -9.1465 C   0  0  2  0  0  0  0  0  0  0  0  0
   -4.8871    0.1625   -9.4347 C   0  0  1  0  0  0  0  0  0  0  0  0
   -4.7376   -1.3570   -9.5142 C   0  0  0  0  0  0  0  0  0  0  0  0
   -5.3186   -1.9770   -8.2536 C   0  0  1  0  0  0  0  0  0  0  0  0
   -6.7769   -1.5725   -8.1246 C   0  0  1  0  0  0  0  0  0  0  0  0
   -7.4167   -2.1676   -6.8834 C   0  0  0  0  0  0  0  0  0  0  0  0
   -4.4529    0.7705  -10.7329 N   0  3  0  0  0  0  0  0  0  0  0  0
   -8.5219   -1.2471   -6.4427 N   0  3  0  0  0  0  0  0  0  0  0  0
   -5.2102   -3.3925   -8.3042 O   0  0  0  0  0  0  0  0  0  0  0  0
   -6.8658   -0.1412   -8.0238 O   0  0  0  0  0  0  0  0  0  0  0  0
  1  2  1  0  0  0  0
  1 22  1  1  0  0  0
  1 10  1  0  0  0  0
  2  3  1  0  0  0  0
  2  7  1  6  0  0  0
  3  4  1  0  0  0  0
  3  8  1  6  0  0  0
  4  5  1  0  0  0  0
  4  9  1  1  0  0  0
  5  6  1  1  0  0  0
  5 10  1  0  0  0  0
  6 11  1  0  0  0  0
 12 13  1  0  0  0  0
 12 17  1  0  0  0  0
 12 18  1  6  0  0  0
 13 14  1  0  0  0  0
 14 15  1  0  0  0  0
 14 19  1  6  0  0  0
 15 16  1  0  0  0  0
 15 21  1  1  0  0  0
 16 17  1  0  0  0  0
 16 20  1  6  0  0  0
 17 22  1  1  0  0  0
 23 21  1  6  0  0  0
 23 24  1  0  0  0  0
 23 32  1  0  0  0  0
 24 25  1  0  0  0  0
 24 29  1  6  0  0  0
 25 26  1  0  0  0  0
 26 27  1  0  0  0  0
 26 31  1  6  0  0  0
 27 28  1  1  0  0  0
 27 32  1  0  0  0  0
 28 30  1  0  0  0  0
M  CHG  5   8   1  18   1  19   1  29   1  30   1
M  END
>  <CHROM.1>
-113.27578615,-54.90362079,63.56493190,-55.25643298,-70.74482388,-57.15941094
-53.20995382,4.14994558,48.01735266,177.91231253,158.94540316,168.45656178
179.10370703,-173.61016857,151.82635622,-154.09757304,-9.28043084,-1.59767700
-8.30200641,2.48587759,-0.01883458,2.61545611

>  <Name>
2tob cryst

>  <RI>
2.04895e+07

>  <Rbt.Current_Directory>
/home/itssahil/PROJECTS/Mol_Feturizer/New_Systems/rnas/2tob

>  <Rbt.Executable>
rbdock ($Id: //depot/dev/client3/rdock/2013.1/src/exe/rbdock.cxx#4 $)

>  <Rbt.Library>
libRbt.so (2013.1, Build901 2013/11/27)

>  <Rbt.Parameter_File>
/export/apps/rDock/src/rDock_2013.1_src/data/scripts/dock_solv.prm

>  <Rbt.Receptor>
prm/blind_docking_20.prm

>  <SCORE>
1.03932

>  <SCORE.INTER>
10.7554

>  <SCORE.INTER.CONST>
1

>  <SCORE.INTER.POLAR>
-5.83378

>  <SCORE.INTER.ROT>
6

>  <SCORE.INTER.SOLV>
39.9645

>  <SCORE.INTER.VDW>
5.69472

>  <SCORE.INTER.norm>
0.336107

>  <SCORE.INTRA>
-12.1786

>  <SCORE.INTRA.DIHEDRAL>
0.46748

>  <SCORE.INTRA.DIHEDRAL.0>
18.4221

>  <SCORE.INTRA.POLAR>
-0.0294121

>  <SCORE.INTRA.POLAR.0>
-1.57101

>  <SCORE.INTRA.REPUL>
-0.730195

>  <SCORE.INTRA.REPUL.0>
0.730195

>  <SCORE.INTRA.SOLV>
0.144376

>  <SCORE.INTRA.SOLV.lig_0>
-127.221

>  <SCORE.INTRA.VDW>
-8.73358

>  <SCORE.INTRA.VDW.0>
10.8385

>  <SCORE.INTRA.norm>
-0.380582

>  <SCORE.RESTR>
2.46251

>  <SCORE.RESTR.CAVITY>
2.46251

>  <SCORE.RESTR.norm>
0.0769535

>  <SCORE.SYSTEM>
0

>  <SCORE.SYSTEM.CONST>
0

>  <SCORE.SYSTEM.DIHEDRAL>
0

>  <SCORE.SYSTEM.SOLV>
0

>  <SCORE.SYSTEM.norm>
0

>  <SCORE.heavy>
32

>  <SCORE.norm>
0.0324788

>  <RMSD>
6.727

$$$$
2tob cryst
 OpenBabel11021811463D
libRbt.so/2013.1/901 2013/11/27
 32 34  0  0  0  0  0  0  0  0999 V2000
  -11.6177   -2.4072   -9.2634 C   0  0  2  0  0  0  0  0  0  0  0  0
  -13.1090   -2.1033   -9.1595 C   0  0  1  0  0  0  0  0  0  0  0  0
  -13.5235   -2.1516   -7.6886 C   0  0  2  0  0  0  0  0  0  0  0  0
  -13.1384   -3.4956   -7.0563 C   0  0  1  0  0  0  0  0  0  0  0  0
  -11.6564   -3.7899   -7.3130 C   0  0  1  0  0  0  0  0  0  0  0  0
  -11.2023   -5.1660   -6.8545 C   0  0  0  0  0  0  0  0  0  0  0  0
  -13.3818   -0.8118   -9.6965 O   0  0  0  0  0  0  0  0  0  0  0  0
  -14.9634   -1.8966   -7.3670 N   0  3  0  0  0  0  0  0  0  0  0  0
  -13.3846   -3.4355   -5.6569 O   0  0  0  0  0  0  0  0  0  0  0  0
  -11.3737   -3.6922   -8.7233 O   0  0  0  0  0  0  0  0  0  0  0  0
  -11.6993   -6.1792   -7.7229 O   0  0  0  0  0  0  0  0  0  0  0  0
  -10.5855    0.9672   -8.5588 C   0  0  2  0  0  0  0  0  0  0  0  0
   -9.7715    2.1600   -9.0781 C   0  0  0  0  0  0  0  0  0  0  0  0
   -8.2876    1.8303   -9.2145 C   0  0  1  0  0  0  0  0  0  0  0  0
   -8.1445    0.6287  -10.1385 C   0  0  2  0  0  0  0  0  0  0  0  0
   -8.8158   -0.5891   -9.4987 C   0  0  1  0  0  0  0  0  0  0  0  0
  -10.3241   -0.3421   -9.3200 C   0  0  1  0  0  0  0  0  0  0  0  0
  -12.0555    1.2712   -8.6025 N   0  3  0  0  0  0  0  0  0  0  0  0
   -7.5190    3.0107   -9.7285 N   0  3  0  0  0  0  0  0  0  0  0  0
   -8.5972   -1.7315  -10.3167 O   0  0  0  0  0  0  0  0  0  0  0  0
   -6.7553    0.3490  -10.3904 O   0  0  0  0  0  0  0  0  0  0  0  0
  -10.9089   -1.4216   -8.5621 O   0  0  0  0  0  0  0  0  0  0  0  0
   -5.9470    0.4710   -9.2527 C   0  0  2  0  0  0  0  0  0  0  0  0
   -4.5659   -0.1335   -9.5267 C   0  0  1  0  0  0  0  0  0  0  0  0
   -4.6274   -1.6611   -9.5358 C   0  0  0  0  0  0  0  0  0  0  0  0
   -5.2761   -2.1370   -8.2460 C   0  0  1  0  0  0  0  0  0  0  0  0
   -6.6636   -1.5301   -8.1314 C   0  0  1  0  0  0  0  0  0  0  0  0
   -7.3673   -1.9740   -6.8618 C   0  0  0  0  0  0  0  0  0  0  0  0
   -4.0645    0.3490  -10.8531 N   0  3  0  0  0  0  0  0  0  0  0  0
   -8.4710   -2.9204   -7.2481 N   0  3  0  0  0  0  0  0  0  0  0  0
   -5.3637   -3.5547   -8.2310 O   0  0  0  0  0  0  0  0  0  0  0  0
   -6.5540   -0.0970   -8.0970 O   0  0  0  0  0  0  0  0  0  0  0  0
  1  2  1  0  0  0  0
  1 22  1  1  0  0  0
  1 10  1  0  0  0  0
  2  3  1  0  0  0  0
  2  7  1  1  0  0  0
  3  4  1  0  0  0  0
  3  8  1  6  0  0  0
  4  5  1  0  0  0  0
  4  9  1  1  0  0  0
  5  6  1  6  0  0  0
  5 10  1  0  0  0  0
  6 11  1  0  0  0  0
 12 13  1  0  0  0  0
 12 17  1  0  0  0  0
 12 18  1  6  0  0  0
 13 14  1  0  0  0  0
 14 15  1  0  0  0  0
 14 19  1  6  0  0  0
 15 16  1  0  0  0  0
 15 21  1  1  0  0  0
 16 17  1  0  0  0  0
 16 20  1  6  0  0  0
 17 22  1  1  0  0  0
 23 21  1  6  0  0  0
 23 24  1  0  0  0  0
 23 32  1  0  0  0  0
 24 25  1  0  0  0  0
 24 29  1  6  0  0  0
 25 26  1  0  0  0  0
 26 27  1  0  0  0  0
 26 31  1  6  0  0  0
 27 28  1  1  0  0  0
 27 32  1  0  0  0  0
 28 30  1  0  0  0  0
M  CHG  5   8   1  18   1  19   1  29   1  30   1
M  END
>  <CHROM.1>
-99.14394719,71.11609454,63.54875409,-57.02172564,73.24717624,48.27678459
-72.74441265,16.86378931,41.18617267,175.49543813,137.15532488,167.58647758
-42.22488939,-169.22077523,-108.82600010,-74.62700151,-9.39826811,-1.33956150
-8.62203851,2.70208563,-0.10140109,2.80240573

>  <Name>
2tob cryst

>  <RI>
2.04895e+07

>  <Rbt.Current_Directory>
/home/itssahil/PROJECTS/Mol_Feturizer/New_Systems/rnas/2tob

>  <Rbt.Executable>
rbdock ($Id: //depot/dev/client3/rdock/2013.1/src/exe/rbdock.cxx#4 $)

>  <Rbt.Library>
libRbt.so (2013.1, Build901 2013/11/27)

>  <Rbt.Parameter_File>
/export/apps/rDock/src/rDock_2013.1_src/data/scripts/dock_solv.prm

>  <Rbt.Receptor>
prm/blind_docking_20.prm

>  <SCORE>
0.438113

>  <SCORE.INTER>
10.1323

>  <SCORE.INTER.CONST>
1

>  <SCORE.INTER.POLAR>
-5.18765

>  <SCORE.INTER.ROT>
6

>  <SCORE.INTER.SOLV>
46.1012

>  <SCORE.INTER.VDW>
1.08

>  <SCORE.INTER.norm>
0.316635

>  <SCORE.INTRA>
-12.5333

>  <SCORE.INTRA.DIHEDRAL>
7.21131

>  <SCORE.INTRA.DIHEDRAL.0>
18.4221

>  <SCORE.INTRA.POLAR>
-0.591371

>  <SCORE.INTRA.POLAR.0>
-1.57101

>  <SCORE.INTRA.REPUL>
-0.730195

>  <SCORE.INTRA.REPUL.0>
0.730195

>  <SCORE.INTRA.SOLV>
2.27756

>  <SCORE.INTRA.SOLV.lig_0>
-127.221

>  <SCORE.INTRA.VDW>
-11.6161

>  <SCORE.INTRA.VDW.0>
10.8385

>  <SCORE.INTRA.norm>
-0.391664

>  <SCORE.RESTR>
2.83906

>  <SCORE.RESTR.CAVITY>
2.83906

>  <SCORE.RESTR.norm>
0.0887207

>  <SCORE.SYSTEM>
0

>  <SCORE.SYSTEM.CONST>
0

>  <SCORE.SYSTEM.DIHEDRAL>
0

>  <SCORE.SYSTEM.SOLV>
0

>  <SCORE.SYSTEM.norm>
0

>  <SCORE.heavy>
32

>  <SCORE.norm>
0.013691

>  <RMSD>
6.728

$$$$
2tob cryst
 OpenBabel11021811463D
libRbt.so/2013.1/901 2013/11/27
 32 34  0  0  0  0  0  0  0  0999 V2000
   -3.7005    0.7313  -11.9129 C   0  0  2  0  0  0  0  0  0  0  0  0
   -2.2373    0.4719  -12.2572 C   0  0  1  0  0  0  0  0  0  0  0  0
   -1.3566    1.3691  -11.3871 C   0  0  2  0  0  0  0  0  0  0  0  0
   -1.7580    2.8422  -11.5397 C   0  0  1  0  0  0  0  0  0  0  0  0
   -3.2639    3.0019  -11.3039 C   0  0  1  0  0  0  0  0  0  0  0  0
   -3.7953    4.4003  -11.5728 C   0  0  0  0  0  0  0  0  0  0  0  0
   -1.9161   -0.8963  -12.0209 O   0  0  0  0  0  0  0  0  0  0  0  0
    0.1254    1.2818  -11.5815 N   0  3  0  0  0  0  0  0  0  0  0  0
   -1.0348    3.6188  -10.5931 O   0  0  0  0  0  0  0  0  0  0  0  0
   -3.9929    2.0946  -12.1545 O   0  0  0  0  0  0  0  0  0  0  0  0
   -5.1821    4.4843  -11.2606 O   0  0  0  0  0  0  0  0  0  0  0  0
   -4.3994   -1.5376   -9.2196 C   0  0  2  0  0  0  0  0  0  0  0  0
   -5.4739   -2.4200   -8.5701 C   0  0  0  0  0  0  0  0  0  0  0  0
   -6.6560   -1.6041   -8.0539 C   0  0  1  0  0  0  0  0  0  0  0  0
   -7.2338   -0.8066   -9.2150 C   0  0  2  0  0  0  0  0  0  0  0  0
   -6.1880    0.1913   -9.7185 C   0  0  1  0  0  0  0  0  0  0  0  0
   -4.9518   -0.5490  -10.2586 C   0  0  1  0  0  0  0  0  0  0  0  0
   -3.3408   -2.3838   -9.8667 N   0  3  0  0  0  0  0  0  0  0  0  0
   -7.6913   -2.4916   -7.4305 N   0  3  0  0  0  0  0  0  0  0  0  0
   -6.7614    1.0010  -10.7371 O   0  0  0  0  0  0  0  0  0  0  0  0
   -8.4230   -0.1076   -8.8041 O   0  0  0  0  0  0  0  0  0  0  0  0
   -3.9102    0.4008  -10.5666 O   0  0  0  0  0  0  0  0  0  0  0  0
   -9.2700    0.2250   -9.8693 C   0  0  2  0  0  0  0  0  0  0  0  0
   -9.9608    1.5636   -9.5882 C   0  0  1  0  0  0  0  0  0  0  0  0
  -11.0572    1.4048   -8.5346 C   0  0  0  0  0  0  0  0  0  0  0  0
  -11.9982    0.2911   -8.9650 C   0  0  1  0  0  0  0  0  0  0  0  0
  -11.2065   -0.9938   -9.1347 C   0  0  1  0  0  0  0  0  0  0  0  0
  -12.0952   -2.1487   -9.5599 C   0  0  0  0  0  0  0  0  0  0  0  0
   -8.9484    2.5550   -9.1026 N   0  3  0  0  0  0  0  0  0  0  0  0
  -11.8008   -3.3180   -8.6605 N   0  3  0  0  0  0  0  0  0  0  0  0
  -13.0209    0.1067   -7.9965 O   0  0  0  0  0  0  0  0  0  0  0  0
  -10.2093   -0.8065  -10.1532 O   0  0  0  0  0  0  0  0  0  0  0  0
  1  2  1  0  0  0  0
  1 22  1  1  0  0  0
  1 10  1  0  0  0  0
  2  3  1  0  0  0  0
  2  7  1  1  0  0  0
  3  4  1  0  0  0  0
  3  8  1  6  0  0  0
  4  5  1  0  0  0  0
  4  9  1  1  0  0  0
  5  6  1  6  0  0  0
  5 10  1  0  0  0  0
  6 11  1  0  0  0  0
 12 13  1  0  0  0  0
 12 17  1  0  0  0  0
 12 18  1  6  0  0  0
 13 14  1  0  0  0  0
 14 15  1  0  0  0  0
 14 19  1  6  0  0  0
 15 16  1  0  0  0  0
 15 21  1  1  0  0  0
 16 17  1  0  0  0  0
 16 20  1  6  0  0  0
 17 22  1  1  0  0  0
 23 21  1  1  0  0  0
 23 24  1  0  0  0  0
 23 32  1  0  0  0  0
 24 25  1  0  0  0  0
 24 29  1  1  0  0  0
 25 26  1  0  0  0  0
 26 27  1  0  0  0  0
 26 31  1  1  0  0  0
 27 28  1  6  0  0  0
 27 32  1  0  0  0  0
 28 30  1  0  0  0  0
M  CHG  5   8   1  18   1  19   1  29   1  30   1
M  END
>  <CHROM.1>
-124.88531703,165.65755926,-168.36038720,-54.28561785,-176.77870271,68.37761193
-169.20645459,50.98762555,-157.56537066,179.21708370,135.80652230,-145.81606591
-82.06592410,178.12608028,-130.89637119,151.56970832,-6.32005812,0.37127241
-10.04073083,-0.31995367,-0.21069017,2.89230334

>  <Name>
2tob cryst

>  <RI>
0

>  <Rbt.Current_Directory>
/home/itssahil/PROJECTS/Mol_Feturizer/New_Systems/rnas/2tob

>  <Rbt.Executable>
rbdock ($Id: //depot/dev/client3/rdock/2013.1/src/exe/rbdock.cxx#4 $)

>  <Rbt.Library>
libRbt.so (2013.1, Build901 2013/11/27)

>  <Rbt.Parameter_File>
/export/apps/rDock/src/rDock_2013.1_src/data/scripts/dock_solv.prm

>  <Rbt.Receptor>
prm/blind_docking_60.prm

>  <SCORE>
-8.99298

>  <SCORE.INTER>
-6.59614

>  <SCORE.INTER.CONST>
1

>  <SCORE.INTER.POLAR>
-6.82189

>  <SCORE.INTER.ROT>
6

>  <SCORE.INTER.SOLV>
37.7046

>  <SCORE.INTER.VDW>
-1.82599

>  <SCORE.INTER.norm>
-0.206129

>  <SCORE.INTRA>
-15.8842

>  <SCORE.INTRA.DIHEDRAL>
11.3058

>  <SCORE.INTRA.DIHEDRAL.0>
18.4221

>  <SCORE.INTRA.POLAR>
0.197673

>  <SCORE.INTRA.POLAR.0>
-1.57101

>  <SCORE.INTRA.REPUL>
-0.730195

>  <SCORE.INTRA.REPUL.0>
0.730195

>  <SCORE.INTRA.SOLV>
-6.14987

>  <SCORE.INTRA.SOLV.lig_0>
-127.221

>  <SCORE.INTRA.VDW>
-15.4833

>  <SCORE.INTRA.VDW.0>
10.8385

>  <SCORE.INTRA.norm>
-0.49638

>  <SCORE.RESTR>
13.4873

>  <SCORE.RESTR.CAVITY>
13.4873

>  <SCORE.RESTR.norm>
0.421479

>  <SCORE.SYSTEM>
0

>  <SCORE.SYSTEM.CONST>
0

>  <SCORE.SYSTEM.DIHEDRAL>
0

>  <SCORE.SYSTEM.SOLV>
0

>  <SCORE.SYSTEM.norm>
0

>  <SCORE.heavy>
32

>  <SCORE.norm>
-0.281031

>  <RMSD>
6.761

$$$$
2tob cryst
 OpenBabel11021811463D
libRbt.so/2013.1/901 2013/11/27
 32 34  0  0  0  0  0  0  0  0999 V2000
   -4.0102    3.5731  -10.5998 C   0  0  2  0  0  0  0  0  0  0  0  0
   -4.1891    5.0465  -10.9521 C   0  0  1  0  0  0  0  0  0  0  0  0
   -3.4685    5.3322  -12.2699 C   0  0  2  0  0  0  0  0  0  0  0  0
   -1.9961    4.9076  -12.1908 C   0  0  1  0  0  0  0  0  0  0  0  0
   -1.8946    3.4566  -11.7079 C   0  0  1  0  0  0  0  0  0  0  0  0
   -0.4742    2.9786  -11.4543 C   0  0  0  0  0  0  0  0  0  0  0  0
   -5.5750    5.3515  -11.0829 O   0  0  0  0  0  0  0  0  0  0  0  0
   -3.5069    6.7361  -12.7891 N   0  3  0  0  0  0  0  0  0  0  0  0
   -1.4095    5.0308  -13.4804 O   0  0  0  0  0  0  0  0  0  0  0  0
   -2.6278    3.2964  -10.4771 O   0  0  0  0  0  0  0  0  0  0  0  0
   -0.4743    1.7317  -10.7666 O   0  0  0  0  0  0  0  0  0  0  0  0
   -3.7552    0.6041  -11.0585 C   0  0  2  0  0  0  0  0  0  0  0  0
   -4.0325   -0.7567  -10.4054 C   0  0  0  0  0  0  0  0  0  0  0  0
   -4.8956   -0.6305   -9.1530 C   0  0  1  0  0  0  0  0  0  0  0  0
   -6.1946    0.0674   -9.5320 C   0  0  2  0  0  0  0  0  0  0  0  0
   -5.8889    1.4894  -10.0092 C   0  0  1  0  0  0  0  0  0  0  0  0
   -5.0148    1.4575  -11.2753 C   0  0  1  0  0  0  0  0  0  0  0  0
   -3.0548    0.4257  -12.3748 N   0  3  0  0  0  0  0  0  0  0  0  0
   -5.1548   -1.9742   -8.5402 N   0  3  0  0  0  0  0  0  0  0  0  0
   -7.1091    2.1714  -10.2700 O   0  0  0  0  0  0  0  0  0  0  0  0
   -7.0919    0.1081   -8.4075 O   0  0  0  0  0  0  0  0  0  0  0  0
   -4.5930    2.7959  -11.6107 O   0  0  0  0  0  0  0  0  0  0  0  0
   -8.4212   -0.1780   -8.7445 C   0  0  2  0  0  0  0  0  0  0  0  0
   -9.3710    0.5937   -7.8224 C   0  0  1  0  0  0  0  0  0  0  0  0
   -9.4058   -0.0279   -6.4260 C   0  0  0  0  0  0  0  0  0  0  0  0
   -9.7204   -1.5098   -6.5528 C   0  0  1  0  0  0  0  0  0  0  0  0
   -8.6672   -2.1711   -7.4246 C   0  0  1  0  0  0  0  0  0  0  0  0
   -8.9243   -3.6585   -7.5848 C   0  0  0  0  0  0  0  0  0  0  0  0
   -8.9177    2.0176   -7.7184 N   0  3  0  0  0  0  0  0  0  0  0  0
   -8.0513   -4.1641   -8.7007 N   0  3  0  0  0  0  0  0  0  0  0  0
   -9.7433   -2.1214   -5.2709 O   0  0  0  0  0  0  0  0  0  0  0  0
   -8.6911   -1.5758   -8.7329 O   0  0  0  0  0  0  0  0  0  0  0  0
  1  2  1  0  0  0  0
  1 22  1  6  0  0  0
  1 10  1  0  0  0  0
  2  3  1  0  0  0  0
  2  7  1  6  0  0  0
  3  4  1  0  0  0  0
  3  8  1  1  0  0  0
  4  5  1  0  0  0  0
  4  9  1  6  0  0  0
  5  6  1  1  0  0  0
  5 10  1  0  0  0  0
  6 11  1  0  0  0  0
 12 13  1  0  0  0  0
 12 17  1  0  0  0  0
 12 18  1  6  0  0  0
 13 14  1  0  0  0  0
 14 15  1  0  0  0  0
 14 19  1  6  0  0  0
 15 16  1  0  0  0  0
 15 21  1  1  0  0  0
 16 17  1  0  0  0  0
 16 20  1  6  0  0  0
 17 22  1  1  0  0  0
 23 21  1  1  0  0  0
 23 24  1  0  0  0  0
 23 32  1  0  0  0  0
 24 25  1  0  0  0  0
 24 29  1  1  0  0  0
 25 26  1  0  0  0  0
 26 27  1  0  0  0  0
 26 31  1  1  0  0  0
 27 28  1  6  0  0  0
 27 32  1  0  0  0  0
 28 30  1  0  0  0  0
M  CHG  5   8   1  18   1  19   1  29   1  30   1
M  END
>  <CHROM.1>
-156.11918836,-167.53312631,-41.57173794,74.83220499,168.54867314,-46.25922352
-171.65426882,-151.56566076,-137.78996730,-170.44173890,-70.61820005,-148.48619319
-85.82503831,-53.42967463,166.79869754,107.95469728,-5.49679586,1.27492952
-9.87046448,0.78181205,0.45496177,-0.23712568

>  <Name>
2tob cryst

>  <RI>
2.10184e+07

>  <Rbt.Current_Directory>
/home/itssahil/PROJECTS/Mol_Feturizer/New_Systems/rnas/2tob

>  <Rbt.Executable>
rbdock ($Id: //depot/dev/client3/rdock/2013.1/src/exe/rbdock.cxx#4 $)

>  <Rbt.Library>
libRbt.so (2013.1, Build901 2013/11/27)

>  <Rbt.Parameter_File>
/export/apps/rDock/src/rDock_2013.1_src/data/scripts/dock_solv.prm

>  <Rbt.Receptor>
prm/pocket_docking_7.prm

>  <SCORE>
-56.1152

>  <SCORE.INTER>
-41.1528

>  <SCORE.INTER.CONST>
1

>  <SCORE.INTER.POLAR>
-6.07136

>  <SCORE.INTER.ROT>
6

>  <SCORE.INTER.SOLV>
41.3345

>  <SCORE.INTER.VDW>
-28.5755

>  <SCORE.INTER.norm>
-1.28603

>  <SCORE.INTRA>
-14.9624

>  <SCORE.INTRA.DIHEDRAL>
5.95404

>  <SCORE.INTRA.DIHEDRAL.0>
18.4221

>  <SCORE.INTRA.POLAR>
0.0979904

>  <SCORE.INTRA.POLAR.0>
-1.57101

>  <SCORE.INTRA.REPUL>
-0.730195

>  <SCORE.INTRA.REPUL.0>
0.730195

>  <SCORE.INTRA.SOLV>
-0.156021

>  <SCORE.INTRA.SOLV.lig_0>
-127.221

>  <SCORE.INTRA.VDW>
-14.5436

>  <SCORE.INTRA.VDW.0>
10.8385

>  <SCORE.INTRA.norm>
-0.467576

>  <SCORE.RESTR>
0

>  <SCORE.RESTR.CAVITY>
0

>  <SCORE.RESTR.norm>
0

>  <SCORE.SYSTEM>
0

>  <SCORE.SYSTEM.CONST>
0

>  <SCORE.SYSTEM.DIHEDRAL>
0

>  <SCORE.SYSTEM.SOLV>
0

>  <SCORE.SYSTEM.norm>
0

>  <SCORE.heavy>
32

>  <SCORE.norm>
-1.7536

>  <RMSD>
6.769

$$$$
2tob cryst
 OpenBabel11021811463D
libRbt.so/2013.1/901 2013/11/27
 32 34  0  0  0  0  0  0  0  0999 V2000
  -11.3862   -2.4379   -7.6466 C   0  0  2  0  0  0  0  0  0  0  0  0
  -10.5262   -2.4166   -6.3868 C   0  0  1  0  0  0  0  0  0  0  0  0
   -9.4916   -3.5390   -6.4738 C   0  0  2  0  0  0  0  0  0  0  0  0
  -10.1730   -4.8928   -6.7136 C   0  0  1  0  0  0  0  0  0  0  0  0
  -11.1167   -4.7982   -7.9175 C   0  0  1  0  0  0  0  0  0  0  0  0
  -11.9540   -6.0440   -8.1565 C   0  0  0  0  0  0  0  0  0  0  0  0
   -9.8664   -1.1590   -6.2683 O   0  0  0  0  0  0  0  0  0  0  0  0
   -8.5514   -3.7041   -5.3202 N   0  3  0  0  0  0  0  0  0  0  0  0
   -9.1748   -5.8760   -6.9571 O   0  0  0  0  0  0  0  0  0  0  0  0
  -12.0283   -3.6954   -7.7413 O   0  0  0  0  0  0  0  0  0  0  0  0
  -12.5379   -6.0208   -9.4551 O   0  0  0  0  0  0  0  0  0  0  0  0
  -11.1094    0.0798   -8.2257 C   0  0  2  0  0  0  0  0  0  0  0  0
  -10.8246    1.5668   -8.4767 C   0  0  0  0  0  0  0  0  0  0  0  0
   -9.3400    1.8399   -8.7017 C   0  0  1  0  0  0  0  0  0  0  0  0
   -8.8661    0.9888   -9.8718 C   0  0  2  0  0  0  0  0  0  0  0  0
   -8.9981   -0.4929   -9.5108 C   0  0  1  0  0  0  0  0  0  0  0  0
  -10.4721   -0.8586   -9.2626 C   0  0  1  0  0  0  0  0  0  0  0  0
  -12.5888   -0.1749   -8.1821 N   0  3  0  0  0  0  0  0  0  0  0  0
   -9.0924    3.2978   -8.9497 N   0  3  0  0  0  0  0  0  0  0  0  0
   -8.4650   -1.2841  -10.5653 O   0  0  0  0  0  0  0  0  0  0  0  0
   -7.4981    1.2959  -10.1971 O   0  0  0  0  0  0  0  0  0  0  0  0
  -10.5618   -2.2069   -8.7568 O   0  0  0  0  0  0  0  0  0  0  0  0
   -6.6487    1.3048   -9.0831 C   0  0  2  0  0  0  0  0  0  0  0  0
   -5.1929    1.4522   -9.5380 C   0  0  1  0  0  0  0  0  0  0  0  0
   -4.6731    0.1489  -10.1452 C   0  0  0  0  0  0  0  0  0  0  0  0
   -4.9111   -0.9843   -9.1602 C   0  0  1  0  0  0  0  0  0  0  0  0
   -6.3954   -1.0737   -8.8511 C   0  0  1  0  0  0  0  0  0  0  0  0
   -6.6987   -2.1947   -7.8736 C   0  0  0  0  0  0  0  0  0  0  0  0
   -5.0974    2.5452  -10.5577 N   0  3  0  0  0  0  0  0  0  0  0  0
   -6.0707   -3.4554   -8.4019 N   0  3  0  0  0  0  0  0  0  0  0  0
   -4.4534   -2.2148   -9.7028 O   0  0  0  0  0  0  0  0  0  0  0  0
   -6.8321    0.1603   -8.2565 O   0  0  0  0  0  0  0  0  0  0  0  0
  1  2  1  0  0  0  0
  1 22  1  6  0  0  0
  1 10  1  0  0  0  0
  2  3  1  0  0  0  0
  2  7  1  6  0  0  0
  3  4  1  0  0  0  0
  3  8  1  1  0  0  0
  4  5  1  0  0  0  0
  4  9  1  6  0  0  0
  5  6  1  1  0  0  0
  5 10  1  0  0  0  0
  6 11  1  0  0  0  0
 12 13  1  0  0  0  0
 12 17  1  0  0  0  0
 12 18  1  6  0  0  0
 13 14  1  0  0  0  0
 14 15  1  0  0  0  0
 14 19  1  6  0  0  0
 15 16  1  0  0  0  0
 15 21  1  1  0  0  0
 16 17  1  0  0  0  0
 16 20  1  6  0  0  0
 17 22  1  1  0  0  0
 23 21  1  6  0  0  0
 23 24  1  0  0  0  0
 23 32  1  0  0  0  0
 24 25  1  0  0  0  0
 24 29  1  6  0  0  0
 25 26  1  0  0  0  0
 26 27  1  0  0  0  0
 26 31  1  6  0  0  0
 27 28  1  1  0  0  0
 27 32  1  0  0  0  0
 28 30  1  0  0  0  0
M  CHG  5   8   1  18   1  19   1  29   1  30   1
M  END
>  <CHROM.1>
-96.27850560,-173.81131699,-139.70125043,74.28011580,-165.17480029,-55.47004450
137.93807281,54.95881934,48.86175209,-36.53036457,12.13664254,172.45464354
-118.21802113,131.74961694,-51.95515551,-136.15456645,-8.78813478,-1.42741679
-8.48099574,2.25948567,-0.13515531,2.89202495

>  <Name>
2tob cryst

>  <RI>
2.04895e+07

>  <Rbt.Current_Directory>
/home/itssahil/PROJECTS/Mol_Feturizer/New_Systems/rnas/2tob

>  <Rbt.Executable>
rbdock ($Id: //depot/dev/client3/rdock/2013.1/src/exe/rbdock.cxx#4 $)

>  <Rbt.Library>
libRbt.so (2013.1, Build901 2013/11/27)

>  <Rbt.Parameter_File>
/export/apps/rDock/src/rDock_2013.1_src/data/scripts/dock_solv.prm

>  <Rbt.Receptor>
prm/blind_docking_20.prm

>  <SCORE>
28.1454

>  <SCORE.INTER>
17.4514

>  <SCORE.INTER.CONST>
1

>  <SCORE.INTER.POLAR>
-7.49619

>  <SCORE.INTER.ROT>
6

>  <SCORE.INTER.SOLV>
51.355

>  <SCORE.INTER.VDW>
11.9032

>  <SCORE.INTER.norm>
0.545357

>  <SCORE.INTRA>
9.47887

>  <SCORE.INTRA.DIHEDRAL>
17.1452

>  <SCORE.INTRA.DIHEDRAL.0>
18.4221

>  <SCORE.INTRA.POLAR>
1.29103

>  <SCORE.INTRA.POLAR.0>
-1.57101

>  <SCORE.INTRA.REPUL>
-0.674419

>  <SCORE.INTRA.REPUL.0>
0.730195

>  <SCORE.INTRA.SOLV>
1.95793

>  <SCORE.INTRA.SOLV.lig_0>
-127.221

>  <SCORE.INTRA.VDW>
-1.09011

>  <SCORE.INTRA.VDW.0>
10.8385

>  <SCORE.INTRA.norm>
0.296215

>  <SCORE.RESTR>
1.21507

>  <SCORE.RESTR.CAVITY>
1.21507

>  <SCORE.RESTR.norm>
0.0379708

>  <SCORE.SYSTEM>
0

>  <SCORE.SYSTEM.CONST>
0

>  <SCORE.SYSTEM.DIHEDRAL>
0

>  <SCORE.SYSTEM.SOLV>
0

>  <SCORE.SYSTEM.norm>
0

>  <SCORE.heavy>
32

>  <SCORE.norm>
0.879543

>  <RMSD>
6.781

$$$$
2tob cryst
 OpenBabel11021811463D
libRbt.so/2013.1/901 2013/11/27
 32 34  0  0  0  0  0  0  0  0999 V2000
   -3.5703    3.3353  -10.5926 C   0  0  2  0  0  0  0  0  0  0  0  0
   -3.5677    4.8237  -10.9266 C   0  0  1  0  0  0  0  0  0  0  0  0
   -2.9505    5.0200  -12.3116 C   0  0  2  0  0  0  0  0  0  0  0  0
   -1.5551    4.3855  -12.3828 C   0  0  1  0  0  0  0  0  0  0  0  0
   -1.6174    2.9287  -11.9110 C   0  0  1  0  0  0  0  0  0  0  0  0
   -0.2634    2.2466  -11.8033 C   0  0  0  0  0  0  0  0  0  0  0  0
   -4.9005    5.3280  -10.9155 O   0  0  0  0  0  0  0  0  0  0  0  0
   -2.8367    6.4215  -12.8260 N   0  3  0  0  0  0  0  0  0  0  0  0
   -1.0906    4.4400  -13.7258 O   0  0  0  0  0  0  0  0  0  0  0  0
   -2.2376    2.8596  -10.6115 O   0  0  0  0  0  0  0  0  0  0  0  0
   -0.4162    0.8427  -11.6204 O   0  0  0  0  0  0  0  0  0  0  0  0
   -3.7681    0.3985  -10.9661 C   0  0  2  0  0  0  0  0  0  0  0  0
   -4.1829   -0.9091  -10.2783 C   0  0  0  0  0  0  0  0  0  0  0  0
   -4.9861   -0.6613   -9.0043 C   0  0  1  0  0  0  0  0  0  0  0  0
   -6.2052    0.1786   -9.3597 C   0  0  2  0  0  0  0  0  0  0  0  0
   -5.7495    1.5466   -9.8738 C   0  0  1  0  0  0  0  0  0  0  0  0
   -4.9248    1.3909  -11.1636 C   0  0  1  0  0  0  0  0  0  0  0  0
   -3.1345    0.1171  -12.2983 N   0  3  0  0  0  0  0  0  0  0  0  0
   -5.3821   -1.9548   -8.3576 N   0  3  0  0  0  0  0  0  0  0  0  0
   -6.8887    2.3633  -10.1129 O   0  0  0  0  0  0  0  0  0  0  0  0
   -7.0562    0.3434   -8.2107 O   0  0  0  0  0  0  0  0  0  0  0  0
   -4.3593    2.6645  -11.5377 O   0  0  0  0  0  0  0  0  0  0  0  0
   -8.4219    0.3345   -8.5229 C   0  0  2  0  0  0  0  0  0  0  0  0
   -9.2113    1.0656   -7.4319 C   0  0  1  0  0  0  0  0  0  0  0  0
   -9.3147    0.2149   -6.1658 C   0  0  0  0  0  0  0  0  0  0  0  0
   -9.8699   -1.1518   -6.5332 C   0  0  1  0  0  0  0  0  0  0  0  0
   -8.9593   -1.8010   -7.5607 C   0  0  1  0  0  0  0  0  0  0  0  0
   -9.4595   -3.1760   -7.9649 C   0  0  0  0  0  0  0  0  0  0  0  0
   -8.5294    2.3584   -7.1045 N   0  3  0  0  0  0  0  0  0  0  0  0
   -8.7123   -4.1997   -7.1545 N   0  3  0  0  0  0  0  0  0  0  0  0
   -9.9626   -1.9740   -5.3784 O   0  0  0  0  0  0  0  0  0  0  0  0
   -8.9161   -0.9826   -8.7419 O   0  0  0  0  0  0  0  0  0  0  0  0
  1  2  1  0  0  0  0
  1 22  1  6  0  0  0
  1 10  1  0  0  0  0
  2  3  1  0  0  0  0
  2  7  1  6  0  0  0
  3  4  1  0  0  0  0
  3  8  1  1  0  0  0
  4  5  1  0  0  0  0
  4  9  1  6  0  0  0
  5  6  1  1  0  0  0
  5 10  1  0  0  0  0
  6 11  1  0  0  0  0
 12 13  1  0  0  0  0
 12 17  1  0  0  0  0
 12 18  1  6  0  0  0
 13 14  1  0  0  0  0
 14 15  1  0  0  0  0
 14 19  1  6  0  0  0
 15 16  1  0  0  0  0
 15 21  1  1  0  0  0
 16 17  1  0  0  0  0
 16 20  1  6  0  0  0
 17 22  1  1  0  0  0
 23 21  1  1  0  0  0
 23 24  1  0  0  0  0
 23 32  1  0  0  0  0
 24 25  1  0  0  0  0
 24 29  1  1  0  0  0
 25 26  1  0  0  0  0
 26 27  1  0  0  0  0
 26 31  1  1  0  0  0
 27 28  1  6  0  0  0
 27 32  1  0  0  0  0
 28 30  1  0  0  0  0
M  CHG  5   8   1  18   1  19   1  29   1  30   1
M  END
>  <CHROM.1>
-156.69161563,-58.14067543,-52.28856153,-179.83494857,-168.50074959,-75.54209947
-6.87303839,-157.52505247,-143.38407753,-162.13501301,-65.72084971,-156.67656048
71.74351001,176.57026885,-97.14207884,142.11978811,-5.39468756,1.20997739
-9.79999578,0.65538796,0.52188074,-0.18653587

>  <Name>
2tob cryst

>  <RI>
3.75586e+07

>  <Rbt.Current_Directory>
/home/itssahil/PROJECTS/Mol_Feturizer/New_Systems/rnas/2tob

>  <Rbt.Executable>
rbdock ($Id: //depot/dev/client3/rdock/2013.1/src/exe/rbdock.cxx#4 $)

>  <Rbt.Library>
libRbt.so (2013.1, Build901 2013/11/27)

>  <Rbt.Parameter_File>
/export/apps/rDock/src/rDock_2013.1_src/data/scripts/dock_solv.prm

>  <Rbt.Receptor>
prm/pocket_docking_8.prm

>  <SCORE>
-46.2401

>  <SCORE.INTER>
-32.8067

>  <SCORE.INTER.CONST>
1

>  <SCORE.INTER.POLAR>
-4.14343

>  <SCORE.INTER.ROT>
6

>  <SCORE.INTER.SOLV>
39.0218

>  <SCORE.INTER.VDW>
-28.667

>  <SCORE.INTER.norm>
-1.02521

>  <SCORE.INTRA>
-13.4334

>  <SCORE.INTRA.DIHEDRAL>
5.68347

>  <SCORE.INTRA.DIHEDRAL.0>
18.4221

>  <SCORE.INTRA.POLAR>
0.770858

>  <SCORE.INTRA.POLAR.0>
-1.57101

>  <SCORE.INTRA.REPUL>
-0.730195

>  <SCORE.INTRA.REPUL.0>
0.730195

>  <SCORE.INTRA.SOLV>
-2.30733

>  <SCORE.INTRA.SOLV.lig_0>
-127.221

>  <SCORE.INTRA.VDW>
-14.0915

>  <SCORE.INTRA.VDW.0>
10.8385

>  <SCORE.INTRA.norm>
-0.419795

>  <SCORE.RESTR>
0

>  <SCORE.RESTR.CAVITY>
0

>  <SCORE.RESTR.norm>
0

>  <SCORE.SYSTEM>
0

>  <SCORE.SYSTEM.CONST>
0

>  <SCORE.SYSTEM.DIHEDRAL>
0

>  <SCORE.SYSTEM.SOLV>
0

>  <SCORE.SYSTEM.norm>
0

>  <SCORE.heavy>
32

>  <SCORE.norm>
-1.445

>  <RMSD>
6.821

$$$$
2tob cryst
 OpenBabel11021811463D
libRbt.so/2013.1/901 2013/11/27
 32 34  0  0  0  0  0  0  0  0999 V2000
   -9.2714   -4.1175   -7.4359 C   0  0  2  0  0  0  0  0  0  0  0  0
   -8.9800   -5.3860   -6.6402 C   0  0  1  0  0  0  0  0  0  0  0  0
   -9.8049   -5.3643   -5.3531 C   0  0  2  0  0  0  0  0  0  0  0  0
   -9.5399   -4.0804   -4.5557 C   0  0  1  0  0  0  0  0  0  0  0  0
   -9.7289   -2.8554   -5.4572 C   0  0  1  0  0  0  0  0  0  0  0  0
   -9.3501   -1.5348   -4.8073 C   0  0  0  0  0  0  0  0  0  0  0  0
   -9.3193   -6.5345   -7.4126 O   0  0  0  0  0  0  0  0  0  0  0  0
   -9.6514   -6.5199   -4.4134 N   0  3  0  0  0  0  0  0  0  0  0  0
  -10.4459   -4.0204   -3.4613 O   0  0  0  0  0  0  0  0  0  0  0  0
   -8.9277   -2.9936   -6.6477 O   0  0  0  0  0  0  0  0  0  0  0  0
   -9.8248   -0.4358   -5.5785 O   0  0  0  0  0  0  0  0  0  0  0  0
  -12.2622   -2.3298   -7.6452 C   0  0  2  0  0  0  0  0  0  0  0  0
  -12.6938   -0.9366   -8.1225 C   0  0  0  0  0  0  0  0  0  0  0  0
  -11.5044   -0.0017   -8.3244 C   0  0  1  0  0  0  0  0  0  0  0  0
  -10.5485   -0.6469   -9.3184 C   0  0  2  0  0  0  0  0  0  0  0  0
   -9.9992   -1.9475   -8.7268 C   0  0  1  0  0  0  0  0  0  0  0  0
  -11.1380   -2.9543   -8.4866 C   0  0  1  0  0  0  0  0  0  0  0  0
  -13.4345   -3.2682   -7.6250 N   0  3  0  0  0  0  0  0  0  0  0  0
  -11.9550    1.3485   -8.7957 N   0  3  0  0  0  0  0  0  0  0  0  0
   -9.0340   -2.4979   -9.6141 O   0  0  0  0  0  0  0  0  0  0  0  0
   -9.4652    0.2480   -9.6297 O   0  0  0  0  0  0  0  0  0  0  0  0
  -10.6324   -4.1013   -7.7722 O   0  0  0  0  0  0  0  0  0  0  0  0
   -8.8101    0.7459   -8.4958 C   0  0  2  0  0  0  0  0  0  0  0  0
   -7.8593    1.8783   -8.8977 C   0  0  1  0  0  0  0  0  0  0  0  0
   -6.6137    1.3283   -9.5931 C   0  0  0  0  0  0  0  0  0  0  0  0
   -5.9840    0.2639   -8.7090 C   0  0  1  0  0  0  0  0  0  0  0  0
   -7.0002   -0.8343   -8.4486 C   0  0  1  0  0  0  0  0  0  0  0  0
   -6.4268   -1.9335   -7.5728 C   0  0  0  0  0  0  0  0  0  0  0  0
   -8.5674    2.8192   -9.8234 N   0  3  0  0  0  0  0  0  0  0  0  0
   -5.6384   -2.8654   -8.4521 N   0  3  0  0  0  0  0  0  0  0  0  0
   -4.8312   -0.2802   -9.3359 O   0  0  0  0  0  0  0  0  0  0  0  0
   -8.1381   -0.2773   -7.7691 O   0  0  0  0  0  0  0  0  0  0  0  0
  1  2  1  0  0  0  0
  1 22  1  1  0  0  0
  1 10  1  0  0  0  0
  2  3  1  0  0  0  0
  2  7  1  6  0  0  0
  3  4  1  0  0  0  0
  3  8  1  1  0  0  0
  4  5  1  0  0  0  0
  4  9  1  1  0  0  0
  5  6  1  1  0  0  0
  5 10  1  0  0  0  0
  6 11  1  0  0  0  0
 12 13  1  0  0  0  0
 12 17  1  0  0  0  0
 12 18  1  6  0  0  0
 13 14  1  0  0  0  0
 14 15  1  0  0  0  0
 14 19  1  6  0  0  0
 15 16  1  0  0  0  0
 15 21  1  1  0  0  0
 16 17  1  0  0  0  0
 16 20  1  6  0  0  0
 17 22  1  1  0  0  0
 23 21  1  6  0  0  0
 23 24  1  0  0  0  0
 23 32  1  0  0  0  0
 24 25  1  0  0  0  0
 24 29  1  6  0  0  0
 25 26  1  0  0  0  0
 26 27  1  0  0  0  0
 26 31  1  6  0  0  0
 27 28  1  1  0  0  0
 27 32  1  0  0  0  0
 28 30  1  0  0  0  0
M  CHG  5   8   1  18   1  19   1  29   1  30   1
M  END
>  <CHROM.1>
177.58344808,56.80961822,-62.33951581,-177.86282515,-167.05322817,-57.00311316
-165.24590086,-165.82933288,52.35892441,-46.68759840,-121.49543045,-169.38713713
-52.09456020,-52.05891834,-82.36808265,173.27893337,-9.28796918,-1.89505118
-7.59648219,-1.89646066,0.08263175,-0.51744250

>  <Name>
2tob cryst

>  <RI>
0

>  <Rbt.Current_Directory>
/home/itssahil/PROJECTS/Mol_Feturizer/New_Systems/rnas/2tob

>  <Rbt.Executable>
rbdock ($Id: //depot/dev/client3/rdock/2013.1/src/exe/rbdock.cxx#4 $)

>  <Rbt.Library>
libRbt.so (2013.1, Build901 2013/11/27)

>  <Rbt.Parameter_File>
/export/apps/rDock/src/rDock_2013.1_src/data/scripts/dock_solv.prm

>  <Rbt.Receptor>
prm/blind_docking_80.prm

>  <SCORE>
-35.2275

>  <SCORE.INTER>
-29.5014

>  <SCORE.INTER.CONST>
1

>  <SCORE.INTER.POLAR>
-7.49047

>  <SCORE.INTER.ROT>
6

>  <SCORE.INTER.SOLV>
46.3328

>  <SCORE.INTER.VDW>
-17.7436

>  <SCORE.INTER.norm>
-0.921918

>  <SCORE.INTRA>
-16.6085

>  <SCORE.INTRA.DIHEDRAL>
-5.45708

>  <SCORE.INTRA.DIHEDRAL.0>
18.4221

>  <SCORE.INTRA.POLAR>
0.161563

>  <SCORE.INTRA.POLAR.0>
-1.57101

>  <SCORE.INTRA.REPUL>
-0.332503

>  <SCORE.INTRA.REPUL.0>
0.730195

>  <SCORE.INTRA.SOLV>
-3.49041

>  <SCORE.INTRA.SOLV.lig_0>
-127.221

>  <SCORE.INTRA.VDW>
-11.0216

>  <SCORE.INTRA.VDW.0>
10.8385

>  <SCORE.INTRA.norm>
-0.519017

>  <SCORE.RESTR>
10.8825

>  <SCORE.RESTR.CAVITY>
10.8825

>  <SCORE.RESTR.norm>
0.340077

>  <SCORE.SYSTEM>
0

>  <SCORE.SYSTEM.CONST>
0

>  <SCORE.SYSTEM.DIHEDRAL>
0

>  <SCORE.SYSTEM.SOLV>
0

>  <SCORE.SYSTEM.norm>
0

>  <SCORE.heavy>
32

>  <SCORE.norm>
-1.10086

>  <RMSD>
6.862

$$$$
2tob cryst
 OpenBabel11021811463D
libRbt.so/2013.1/901 2013/11/27
 32 34  0  0  0  0  0  0  0  0999 V2000
  -11.3193   -0.9052   -7.4678 C   0  0  2  0  0  0  0  0  0  0  0  0
  -11.5739   -2.0274   -6.4664 C   0  0  1  0  0  0  0  0  0  0  0  0
  -11.8422   -3.3235   -7.2317 C   0  0  2  0  0  0  0  0  0  0  0  0
  -12.9903   -3.1393   -8.2329 C   0  0  1  0  0  0  0  0  0  0  0  0
  -12.7222   -1.9174   -9.1184 C   0  0  1  0  0  0  0  0  0  0  0  0
  -13.8667   -1.5563  -10.0510 C   0  0  0  0  0  0  0  0  0  0  0  0
  -10.4395   -2.1918   -5.6197 O   0  0  0  0  0  0  0  0  0  0  0  0
  -12.1352   -4.5530   -6.4290 N   0  3  0  0  0  0  0  0  0  0  0  0
  -13.0937   -4.3071   -9.0378 O   0  0  0  0  0  0  0  0  0  0  0  0
  -12.4581   -0.7634   -8.2958 O   0  0  0  0  0  0  0  0  0  0  0  0
  -14.8547   -0.7911   -9.3683 O   0  0  0  0  0  0  0  0  0  0  0  0
   -9.8464    1.1498   -8.4445 C   0  0  2  0  0  0  0  0  0  0  0  0
   -9.0711    2.2855   -9.1258 C   0  0  0  0  0  0  0  0  0  0  0  0
   -7.6054    1.9271   -9.3550 C   0  0  1  0  0  0  0  0  0  0  0  0
   -7.5458    0.6518  -10.1846 C   0  0  2  0  0  0  0  0  0  0  0  0
   -8.1692   -0.5007   -9.3932 C   0  0  1  0  0  0  0  0  0  0  0  0
   -9.6562   -0.2209   -9.1132 C   0  0  1  0  0  0  0  0  0  0  0  0
  -11.3132    1.4676   -8.3932 N   0  3  0  0  0  0  0  0  0  0  0  0
   -6.8750    3.0514  -10.0264 N   0  3  0  0  0  0  0  0  0  0  0  0
   -8.0252   -1.7092  -10.1286 O   0  0  0  0  0  0  0  0  0  0  0  0
   -6.1838    0.3349  -10.5249 O   0  0  0  0  0  0  0  0  0  0  0  0
  -10.1827   -1.2269   -8.2230 O   0  0  0  0  0  0  0  0  0  0  0  0
   -5.3175    0.3443   -9.4240 C   0  0  2  0  0  0  0  0  0  0  0  0
   -4.1272   -0.5836   -9.6886 C   0  0  1  0  0  0  0  0  0  0  0  0
   -4.5399   -2.0514   -9.5752 C   0  0  0  0  0  0  0  0  0  0  0  0
   -5.2207   -2.2708   -8.2339 C   0  0  1  0  0  0  0  0  0  0  0  0
   -6.4240   -1.3502   -8.1280 C   0  0  1  0  0  0  0  0  0  0  0  0
   -7.1517   -1.5272   -6.8078 C   0  0  0  0  0  0  0  0  0  0  0  0
   -3.5899   -0.3259  -11.0628 N   0  3  0  0  0  0  0  0  0  0  0  0
   -7.9148   -2.8223   -6.8670 N   0  3  0  0  0  0  0  0  0  0  0  0
   -5.6322   -3.6243   -8.1043 O   0  0  0  0  0  0  0  0  0  0  0  0
   -5.9853    0.0164   -8.2102 O   0  0  0  0  0  0  0  0  0  0  0  0
  1  2  1  0  0  0  0
  1 22  1  6  0  0  0
  1 10  1  0  0  0  0
  2  3  1  0  0  0  0
  2  7  1  1  0  0  0
  3  4  1  0  0  0  0
  3  8  1  1  0  0  0
  4  5  1  0  0  0  0
  4  9  1  6  0  0  0
  5  6  1  1  0  0  0
  5 10  1  0  0  0  0
  6 11  1  0  0  0  0
 12 13  1  0  0  0  0
 12 17  1  0  0  0  0
 12 18  1  6  0  0  0
 13 14  1  0  0  0  0
 14 15  1  0  0  0  0
 14 19  1  6  0  0  0
 15 16  1  0  0  0  0
 15 21  1  1  0  0  0
 16 17  1  0  0  0  0
 16 20  1  6  0  0  0
 17 22  1  1  0  0  0
 23 21  1  6  0  0  0
 23 24  1  0  0  0  0
 23 32  1  0  0  0  0
 24 25  1  0  0  0  0
 24 29  1  6  0  0  0
 25 26  1  0  0  0  0
 26 27  1  0  0  0  0
 26 31  1  6  0  0  0
 27 28  1  1  0  0  0
 27 32  1  0  0  0  0
 28 30  1  0  0  0  0
M  CHG  5   8   1  18   1  19   1  29   1  30   1
M  END
>  <CHROM.1>
-172.00635460,-178.55681154,-47.09048759,-60.13480611,82.12304634,57.29717295
55.55494294,19.35161957,50.29058868,-160.74923347,35.58198458,153.77772567
-3.04451417,-60.53317157,-74.43246153,-159.46762111,-9.01529612,-1.04741948
-8.63244737,2.83251019,-0.06445124,2.71413847

>  <Name>
2tob cryst

>  <RI>
0

>  <Rbt.Current_Directory>
/home/itssahil/PROJECTS/Mol_Feturizer/New_Systems/rnas/2tob

>  <Rbt.Executable>
rbdock ($Id: //depot/dev/client3/rdock/2013.1/src/exe/rbdock.cxx#4 $)

>  <Rbt.Library>
libRbt.so (2013.1, Build901 2013/11/27)

>  <Rbt.Parameter_File>
/export/apps/rDock/src/rDock_2013.1_src/data/scripts/dock_solv.prm

>  <Rbt.Receptor>
prm/blind_docking_40.prm

>  <SCORE>
28.1828

>  <SCORE.INTER>
11.8035

>  <SCORE.INTER.CONST>
1

>  <SCORE.INTER.POLAR>
-5.45467

>  <SCORE.INTER.ROT>
6

>  <SCORE.INTER.SOLV>
44.8485

>  <SCORE.INTER.VDW>
3.50172

>  <SCORE.INTER.norm>
0.368859

>  <SCORE.INTRA>
11.7721

>  <SCORE.INTRA.DIHEDRAL>
-0.321548

>  <SCORE.INTRA.DIHEDRAL.0>
18.4221

>  <SCORE.INTRA.POLAR>
-0.834039

>  <SCORE.INTRA.POLAR.0>
-1.57101

>  <SCORE.INTRA.REPUL>
-0.730195

>  <SCORE.INTRA.REPUL.0>
0.730195

>  <SCORE.INTRA.SOLV>
4.18251

>  <SCORE.INTRA.SOLV.lig_0>
-127.221

>  <SCORE.INTRA.VDW>
16.3283

>  <SCORE.INTRA.VDW.0>
10.8385

>  <SCORE.INTRA.norm>
0.367879

>  <SCORE.RESTR>
4.60718

>  <SCORE.RESTR.CAVITY>
4.60718

>  <SCORE.RESTR.norm>
0.143974

>  <SCORE.SYSTEM>
0

>  <SCORE.SYSTEM.CONST>
0

>  <SCORE.SYSTEM.DIHEDRAL>
0

>  <SCORE.SYSTEM.SOLV>
0

>  <SCORE.SYSTEM.norm>
0

>  <SCORE.heavy>
32

>  <SCORE.norm>
0.880712

>  <RMSD>
6.865

$$$$
2tob cryst
 OpenBabel11021811463D
libRbt.so/2013.1/901 2013/11/27
 32 34  0  0  0  0  0  0  0  0999 V2000
  -11.6718   -2.9673   -8.0173 C   0  0  2  0  0  0  0  0  0  0  0  0
  -12.4744   -2.9354   -6.7204 C   0  0  1  0  0  0  0  0  0  0  0  0
  -11.5794   -3.4020   -5.5720 C   0  0  2  0  0  0  0  0  0  0  0  0
  -10.9784   -4.7813   -5.8733 C   0  0  1  0  0  0  0  0  0  0  0  0
  -10.3005   -4.7685   -7.2477 C   0  0  1  0  0  0  0  0  0  0  0  0
   -9.7967   -6.1258   -7.7105 C   0  0  0  0  0  0  0  0  0  0  0  0
  -12.9368   -1.6117   -6.4658 O   0  0  0  0  0  0  0  0  0  0  0  0
  -12.1844   -3.4614   -4.2037 N   0  3  0  0  0  0  0  0  0  0  0  0
  -10.0259   -5.1004   -4.8667 O   0  0  0  0  0  0  0  0  0  0  0  0
  -11.2239   -4.2900   -8.2461 O   0  0  0  0  0  0  0  0  0  0  0  0
   -8.9040   -6.6880   -6.7542 O   0  0  0  0  0  0  0  0  0  0  0  0
  -11.1055    0.2156   -8.4177 C   0  0  2  0  0  0  0  0  0  0  0  0
  -10.7623    1.4586   -9.2498 C   0  0  0  0  0  0  0  0  0  0  0  0
   -9.2591    1.6124   -9.4640 C   0  0  1  0  0  0  0  0  0  0  0  0
   -8.7362    0.3479  -10.1315 C   0  0  2  0  0  0  0  0  0  0  0  0
   -8.9339   -0.8439   -9.1914 C   0  0  1  0  0  0  0  0  0  0  0  0
  -10.4307   -1.0719   -8.9166 C   0  0  1  0  0  0  0  0  0  0  0  0
  -12.5914    0.0019   -8.3749 N   0  3  0  0  0  0  0  0  0  0  0  0
   -8.9541    2.8302  -10.2838 N   0  3  0  0  0  0  0  0  0  0  0  0
   -8.3576   -2.0053   -9.7754 O   0  0  0  0  0  0  0  0  0  0  0  0
   -7.3419    0.4902  -10.4590 O   0  0  0  0  0  0  0  0  0  0  0  0
  -10.5915   -2.0816   -7.8985 O   0  0  0  0  0  0  0  0  0  0  0  0
   -6.5313    0.7470   -9.3456 C   0  0  2  0  0  0  0  0  0  0  0  0
   -5.1339    1.1759   -9.8054 C   0  0  1  0  0  0  0  0  0  0  0  0
   -4.3381   -0.0193  -10.3304 C   0  0  0  0  0  0  0  0  0  0  0  0
   -4.3434   -1.1167   -9.2785 C   0  0  1  0  0  0  0  0  0  0  0  0
   -5.7788   -1.5038   -8.9679 C   0  0  1  0  0  0  0  0  0  0  0  0
   -5.8502   -2.6038   -7.9243 C   0  0  0  0  0  0  0  0  0  0  0  0
   -5.2587    2.2016  -10.8898 N   0  3  0  0  0  0  0  0  0  0  0  0
   -7.2835   -2.7386   -7.4878 N   0  3  0  0  0  0  0  0  0  0  0  0
   -3.6248   -2.2503   -9.7437 O   0  0  0  0  0  0  0  0  0  0  0  0
   -6.4784   -0.3591   -8.4510 O   0  0  0  0  0  0  0  0  0  0  0  0
  1  2  1  0  0  0  0
  1 22  1  1  0  0  0
  1 10  1  0  0  0  0
  2  3  1  0  0  0  0
  2  7  1  1  0  0  0
  3  4  1  0  0  0  0
  3  8  1  1  0  0  0
  4  5  1  0  0  0  0
  4  9  1  1  0  0  0
  5  6  1  6  0  0  0
  5 10  1  0  0  0  0
  6 11  1  0  0  0  0
 12 13  1  0  0  0  0
 12 17  1  0  0  0  0
 12 18  1  6  0  0  0
 13 14  1  0  0  0  0
 14 15  1  0  0  0  0
 14 19  1  6  0  0  0
 15 16  1  0  0  0  0
 15 21  1  1  0  0  0
 16 17  1  0  0  0  0
 16 20  1  6  0  0  0
 17 22  1  1  0  0  0
 23 21  1  6  0  0  0
 23 24  1  0  0  0  0
 23 32  1  0  0  0  0
 24 25  1  0  0  0  0
 24 29  1  6  0  0  0
 25 26  1  0  0  0  0
 26 27  1  0  0  0  0
 26 31  1  6  0  0  0
 27 28  1  1  0  0  0
 27 32  1  0  0  0  0
 28 30  1  0  0  0  0
M  CHG  5   8   1  18   1  19   1  29   1  30   1
M  END
>  <CHROM.1>
-126.16429827,-62.39096315,66.80788648,-58.87128924,-56.08959134,-177.27735412
31.67703532,-71.78600050,59.09754293,-89.17626029,95.05123174,-168.04069339
-169.68043181,176.96226533,169.32858741,-60.33546004,-8.87312992,-1.63547221
-8.29391377,2.34337574,-0.24866882,2.70188309

>  <Name>
2tob cryst

>  <RI>
2.04895e+07

>  <Rbt.Current_Directory>
/home/itssahil/PROJECTS/Mol_Feturizer/New_Systems/rnas/2tob

>  <Rbt.Executable>
rbdock ($Id: //depot/dev/client3/rdock/2013.1/src/exe/rbdock.cxx#4 $)

>  <Rbt.Library>
libRbt.so (2013.1, Build901 2013/11/27)

>  <Rbt.Parameter_File>
/export/apps/rDock/src/rDock_2013.1_src/data/scripts/dock_solv.prm

>  <Rbt.Receptor>
prm/blind_docking_20.prm

>  <SCORE>
-15.1188

>  <SCORE.INTER>
-7.55806

>  <SCORE.INTER.CONST>
1

>  <SCORE.INTER.POLAR>
-5.17069

>  <SCORE.INTER.ROT>
6

>  <SCORE.INTER.SOLV>
41.11

>  <SCORE.INTER.VDW>
-9.1064

>  <SCORE.INTER.norm>
-0.236189

>  <SCORE.INTRA>
-10.3097

>  <SCORE.INTRA.DIHEDRAL>
0.33372

>  <SCORE.INTRA.DIHEDRAL.0>
18.4221

>  <SCORE.INTRA.POLAR>
0.675173

>  <SCORE.INTRA.POLAR.0>
-1.57101

>  <SCORE.INTRA.REPUL>
-0.730195

>  <SCORE.INTRA.REPUL.0>
0.730195

>  <SCORE.INTRA.SOLV>
4.10441

>  <SCORE.INTRA.SOLV.lig_0>
-127.221

>  <SCORE.INTRA.VDW>
-11.1734

>  <SCORE.INTRA.VDW.0>
10.8385

>  <SCORE.INTRA.norm>
-0.322178

>  <SCORE.RESTR>
2.74899

>  <SCORE.RESTR.CAVITY>
2.74899

>  <SCORE.RESTR.norm>
0.0859059

>  <SCORE.SYSTEM>
0

>  <SCORE.SYSTEM.CONST>
0

>  <SCORE.SYSTEM.DIHEDRAL>
0

>  <SCORE.SYSTEM.SOLV>
0

>  <SCORE.SYSTEM.norm>
0

>  <SCORE.heavy>
32

>  <SCORE.norm>
-0.472462

>  <RMSD>
6.926

$$$$
2tob cryst
 OpenBabel11021811463D
libRbt.so/2013.1/901 2013/11/27
 32 34  0  0  0  0  0  0  0  0999 V2000
   -4.2957    3.2014  -11.6767 C   0  0  2  0  0  0  0  0  0  0  0  0
   -3.1578    3.2017  -12.6927 C   0  0  1  0  0  0  0  0  0  0  0  0
   -1.8870    3.7133  -12.0137 C   0  0  2  0  0  0  0  0  0  0  0  0
   -2.1240    5.0887  -11.3761 C   0  0  1  0  0  0  0  0  0  0  0  0
   -3.3585    5.0400  -10.4691 C   0  0  1  0  0  0  0  0  0  0  0  0
   -3.7706    6.3873   -9.8989 C   0  0  0  0  0  0  0  0  0  0  0  0
   -2.9445    1.8819  -13.1861 O   0  0  0  0  0  0  0  0  0  0  0  0
   -0.6475    3.8093  -12.8480 N   0  3  0  0  0  0  0  0  0  0  0  0
   -0.9781    5.4491  -10.6150 O   0  0  0  0  0  0  0  0  0  0  0  0
   -4.4861    4.5209  -11.2021 O   0  0  0  0  0  0  0  0  0  0  0  0
   -4.0713    7.3086  -10.9422 O   0  0  0  0  0  0  0  0  0  0  0  0
   -3.6804   -0.0574  -10.4666 C   0  0  2  0  0  0  0  0  0  0  0  0
   -4.2885   -1.4030  -10.0487 C   0  0  0  0  0  0  0  0  0  0  0  0
   -5.1303   -1.2869   -8.7810 C   0  0  1  0  0  0  0  0  0  0  0  0
   -6.2172   -0.2476   -9.0186 C   0  0  2  0  0  0  0  0  0  0  0  0
   -5.5718    1.1205   -9.2533 C   0  0  1  0  0  0  0  0  0  0  0  0
   -4.6967    1.0943  -10.5187 C   0  0  1  0  0  0  0  0  0  0  0  0
   -3.0072   -0.1741  -11.8039 N   0  3  0  0  0  0  0  0  0  0  0  0
   -5.7157   -2.6138   -8.4002 N   0  3  0  0  0  0  0  0  0  0  0  0
   -6.5892    2.1062   -9.3781 O   0  0  0  0  0  0  0  0  0  0  0  0
   -7.1092   -0.1839   -7.8908 O   0  0  0  0  0  0  0  0  0  0  0  0
   -3.9620    2.3312  -10.6293 O   0  0  0  0  0  0  0  0  0  0  0  0
   -8.4598   -0.0978   -8.2526 C   0  0  2  0  0  0  0  0  0  0  0  0
   -9.2239    0.7393   -7.2214 C   0  0  1  0  0  0  0  0  0  0  0  0
   -9.4381   -0.0460   -5.9272 C   0  0  0  0  0  0  0  0  0  0  0  0
  -10.0891   -1.3788   -6.2602 C   0  0  1  0  0  0  0  0  0  0  0  0
   -9.1997   -2.1412   -7.2269 C   0  0  1  0  0  0  0  0  0  0  0  0
   -9.7953   -3.4882   -7.5943 C   0  0  0  0  0  0  0  0  0  0  0  0
   -8.4513    1.9868   -6.9205 N   0  3  0  0  0  0  0  0  0  0  0  0
   -8.9422   -4.5596   -6.9720 N   0  3  0  0  0  0  0  0  0  0  0  0
  -10.2865   -2.1412   -5.0780 O   0  0  0  0  0  0  0  0  0  0  0  0
   -9.0510   -1.3797   -8.4372 O   0  0  0  0  0  0  0  0  0  0  0  0
  1  2  1  0  0  0  0
  1 22  1  1  0  0  0
  1 10  1  0  0  0  0
  2  3  1  0  0  0  0
  2  7  1  1  0  0  0
  3  4  1  0  0  0  0
  3  8  1  6  0  0  0
  4  5  1  0  0  0  0
  4  9  1  1  0  0  0
  5  6  1  6  0  0  0
  5 10  1  0  0  0  0
  6 11  1  0  0  0  0
 12 13  1  0  0  0  0
 12 17  1  0  0  0  0
 12 18  1  6  0  0  0
 13 14  1  0  0  0  0
 14 15  1  0  0  0  0
 14 19  1  6  0  0  0
 15 16  1  0  0  0  0
 15 21  1  1  0  0  0
 16 17  1  0  0  0  0
 16 20  1  6  0  0  0
 17 22  1  1  0  0  0
 23 21  1  1  0  0  0
 23 24  1  0  0  0  0
 23 32  1  0  0  0  0
 24 25  1  0  0  0  0
 24 29  1  1  0  0  0
 25 26  1  0  0  0  0
 26 27  1  0  0  0  0
 26 31  1  1  0  0  0
 27 28  1  6  0  0  0
 27 32  1  0  0  0  0
 28 30  1  0  0  0  0
M  CHG  5   8   1  18   1  19   1  29   1  30   1
M  END
>  <CHROM.1>
-109.62941346,50.43578023,-177.19586501,77.17004022,59.60507061,64.61264239
63.13779688,-159.99012794,-137.26217931,175.89209335,126.79828448,-147.19707713
156.74285283,174.79895509,-110.67203960,-75.97641476,-5.62461924,1.18505760
-9.47824985,0.63843491,0.65695542,0.05517012

>  <Name>
2tob cryst

>  <RI>
3.75586e+07

>  <Rbt.Current_Directory>
/home/itssahil/PROJECTS/Mol_Feturizer/New_Systems/rnas/2tob

>  <Rbt.Executable>
rbdock ($Id: //depot/dev/client3/rdock/2013.1/src/exe/rbdock.cxx#4 $)

>  <Rbt.Library>
libRbt.so (2013.1, Build901 2013/11/27)

>  <Rbt.Parameter_File>
/export/apps/rDock/src/rDock_2013.1_src/data/scripts/dock_solv.prm

>  <Rbt.Receptor>
prm/pocket_docking_8.prm

>  <SCORE>
-43.0886

>  <SCORE.INTER>
-29.5624

>  <SCORE.INTER.CONST>
1

>  <SCORE.INTER.POLAR>
-4.7393

>  <SCORE.INTER.ROT>
6

>  <SCORE.INTER.SOLV>
37.9366

>  <SCORE.INTER.VDW>
-24.1561

>  <SCORE.INTER.norm>
-0.923826

>  <SCORE.INTRA>
-13.5262

>  <SCORE.INTRA.DIHEDRAL>
15.1157

>  <SCORE.INTRA.DIHEDRAL.0>
18.4221

>  <SCORE.INTRA.POLAR>
-0.341833

>  <SCORE.INTRA.POLAR.0>
-1.57101

>  <SCORE.INTRA.REPUL>
-0.730195

>  <SCORE.INTRA.REPUL.0>
0.730195

>  <SCORE.INTRA.SOLV>
-1.12942

>  <SCORE.INTRA.SOLV.lig_0>
-127.221

>  <SCORE.INTRA.VDW>
-15.7061

>  <SCORE.INTRA.VDW.0>
10.8385

>  <SCORE.INTRA.norm>
-0.422693

>  <SCORE.RESTR>
0

>  <SCORE.RESTR.CAVITY>
0

>  <SCORE.RESTR.norm>
0

>  <SCORE.SYSTEM>
0

>  <SCORE.SYSTEM.CONST>
0

>  <SCORE.SYSTEM.DIHEDRAL>
0

>  <SCORE.SYSTEM.SOLV>
0

>  <SCORE.SYSTEM.norm>
0

>  <SCORE.heavy>
32

>  <SCORE.norm>
-1.34652

>  <RMSD>
6.928

$$$$
2tob cryst
 OpenBabel11021811463D
libRbt.so/2013.1/901 2013/11/27
 32 34  0  0  0  0  0  0  0  0999 V2000
  -11.4163   -3.1256   -8.8681 C   0  0  2  0  0  0  0  0  0  0  0  0
  -12.9282   -3.1159   -8.6651 C   0  0  1  0  0  0  0  0  0  0  0  0
  -13.2274   -3.1563   -7.1662 C   0  0  2  0  0  0  0  0  0  0  0  0
  -12.5395   -4.3576   -6.5040 C   0  0  1  0  0  0  0  0  0  0  0  0
  -11.0487   -4.3688   -6.8591 C   0  0  1  0  0  0  0  0  0  0  0  0
  -10.2984   -5.5983   -6.3738 C   0  0  0  0  0  0  0  0  0  0  0  0
  -13.4894   -1.9381   -9.2384 O   0  0  0  0  0  0  0  0  0  0  0  0
  -14.6649   -3.1713   -6.7479 N   0  3  0  0  0  0  0  0  0  0  0  0
  -12.7007   -4.2631   -5.0942 O   0  0  0  0  0  0  0  0  0  0  0  0
  -10.8843   -4.3024   -8.2897 O   0  0  0  0  0  0  0  0  0  0  0  0
   -8.9814   -5.2556   -5.9542 O   0  0  0  0  0  0  0  0  0  0  0  0
  -11.1208    0.4132   -8.4336 C   0  0  2  0  0  0  0  0  0  0  0  0
  -10.6200    1.7217   -9.0597 C   0  0  0  0  0  0  0  0  0  0  0  0
   -9.1034    1.7367   -9.2294 C   0  0  1  0  0  0  0  0  0  0  0  0
   -8.7022    0.5377  -10.0776 C   0  0  2  0  0  0  0  0  0  0  0  0
   -9.0559   -0.7533   -9.3351 C   0  0  1  0  0  0  0  0  0  0  0  0
  -10.5761   -0.8510   -9.1169 C   0  0  1  0  0  0  0  0  0  0  0  0
  -12.6217    0.3636   -8.4422 N   0  3  0  0  0  0  0  0  0  0  0  0
   -8.6437    3.0230   -9.8477 N   0  3  0  0  0  0  0  0  0  0  0  0
   -8.5929   -1.8697  -10.0843 O   0  0  0  0  0  0  0  0  0  0  0  0
   -7.2917    0.5708  -10.3623 O   0  0  0  0  0  0  0  0  0  0  0  0
  -10.8756   -1.9792   -8.2688 O   0  0  0  0  0  0  0  0  0  0  0  0
   -6.4946    0.6924   -9.2167 C   0  0  2  0  0  0  0  0  0  0  0  0
   -5.0387    0.9499   -9.6190 C   0  0  1  0  0  0  0  0  0  0  0  0
   -4.3838   -0.3236  -10.1546 C   0  0  0  0  0  0  0  0  0  0  0  0
   -4.5661   -1.4381   -9.1371 C   0  0  1  0  0  0  0  0  0  0  0  0
   -6.0491   -1.6455   -8.8837 C   0  0  1  0  0  0  0  0  0  0  0  0
   -6.2969   -2.7539   -7.8766 C   0  0  0  0  0  0  0  0  0  0  0  0
   -4.9934    2.0110  -10.6753 N   0  3  0  0  0  0  0  0  0  0  0  0
   -7.3604   -3.6600   -8.4342 N   0  3  0  0  0  0  0  0  0  0  0  0
   -3.9821   -2.6423   -9.6134 O   0  0  0  0  0  0  0  0  0  0  0  0
   -6.6147   -0.4342   -8.3547 O   0  0  0  0  0  0  0  0  0  0  0  0
  1  2  1  0  0  0  0
  1 22  1  1  0  0  0
  1 10  1  0  0  0  0
  2  3  1  0  0  0  0
  2  7  1  1  0  0  0
  3  4  1  0  0  0  0
  3  8  1  6  0  0  0
  4  5  1  0  0  0  0
  4  9  1  1  0  0  0
  5  6  1  6  0  0  0
  5 10  1  0  0  0  0
  6 11  1  0  0  0  0
 12 13  1  0  0  0  0
 12 17  1  0  0  0  0
 12 18  1  6  0  0  0
 13 14  1  0  0  0  0
 14 15  1  0  0  0  0
 14 19  1  6  0  0  0
 15 16  1  0  0  0  0
 15 21  1  1  0  0  0
 16 17  1  0  0  0  0
 16 20  1  6  0  0  0
 17 22  1  1  0  0  0
 23 21  1  6  0  0  0
 23 24  1  0  0  0  0
 23 32  1  0  0  0  0
 24 25  1  0  0  0  0
 24 29  1  6  0  0  0
 25 26  1  0  0  0  0
 26 27  1  0  0  0  0
 26 31  1  6  0  0  0
 27 28  1  1  0  0  0
 27 32  1  0  0  0  0
 28 30  1  0  0  0  0
M  CHG  5   8   1  18   1  19   1  29   1  30   1
M  END
>  <CHROM.1>
-98.87497907,140.23696929,75.24728398,60.33049599,-143.32266317,-32.91260541
179.04304346,-142.87769680,53.31707447,-98.94523549,133.77935810,-170.77365198
-160.68855469,60.69791172,-132.44978390,168.83594056,-9.24454597,-1.54748949
-8.55990858,2.56137419,-0.13540775,2.73753951

>  <Name>
2tob cryst

>  <RI>
0

>  <Rbt.Current_Directory>
/home/itssahil/PROJECTS/Mol_Feturizer/New_Systems/rnas/2tob

>  <Rbt.Executable>
rbdock ($Id: //depot/dev/client3/rdock/2013.1/src/exe/rbdock.cxx#4 $)

>  <Rbt.Library>
libRbt.so (2013.1, Build901 2013/11/27)

>  <Rbt.Parameter_File>
/export/apps/rDock/src/rDock_2013.1_src/data/scripts/dock_solv.prm

>  <Rbt.Receptor>
prm/blind_docking_80.prm

>  <SCORE>
8.76864

>  <SCORE.INTER>
5.84741

>  <SCORE.INTER.CONST>
1

>  <SCORE.INTER.POLAR>
-6.45707

>  <SCORE.INTER.ROT>
6

>  <SCORE.INTER.SOLV>
44.8232

>  <SCORE.INTER.VDW>
2.88079

>  <SCORE.INTER.norm>
0.182732

>  <SCORE.INTRA>
-2.44852

>  <SCORE.INTRA.DIHEDRAL>
19.978

>  <SCORE.INTRA.DIHEDRAL.0>
18.4221

>  <SCORE.INTRA.POLAR>
0.739798

>  <SCORE.INTRA.POLAR.0>
-1.57101

>  <SCORE.INTRA.REPUL>
-0.730195

>  <SCORE.INTRA.REPUL.0>
0.730195

>  <SCORE.INTRA.SOLV>
3.44253

>  <SCORE.INTRA.SOLV.lig_0>
-127.221

>  <SCORE.INTRA.VDW>
-13.0231

>  <SCORE.INTRA.VDW.0>
10.8385

>  <SCORE.INTRA.norm>
-0.0765161

>  <SCORE.RESTR>
5.36975

>  <SCORE.RESTR.CAVITY>
5.36975

>  <SCORE.RESTR.norm>
0.167805

>  <SCORE.SYSTEM>
0

>  <SCORE.SYSTEM.CONST>
0

>  <SCORE.SYSTEM.DIHEDRAL>
0

>  <SCORE.SYSTEM.SOLV>
0

>  <SCORE.SYSTEM.norm>
0

>  <SCORE.heavy>
32

>  <SCORE.norm>
0.27402

>  <RMSD>
6.959

$$$$
2tob cryst
 OpenBabel11021811463D
libRbt.so/2013.1/901 2013/11/27
 32 34  0  0  0  0  0  0  0  0999 V2000
   -9.9238   -4.7735   -7.6074 C   0  0  2  0  0  0  0  0  0  0  0  0
   -9.6628   -6.1988   -7.1306 C   0  0  1  0  0  0  0  0  0  0  0  0
  -10.2806   -6.3785   -5.7436 C   0  0  2  0  0  0  0  0  0  0  0  0
   -9.7576   -5.3137   -4.7703 C   0  0  1  0  0  0  0  0  0  0  0  0
   -9.9386   -3.9172   -5.3750 C   0  0  1  0  0  0  0  0  0  0  0  0
   -9.3215   -2.7951   -4.5563 C   0  0  0  0  0  0  0  0  0  0  0  0
  -10.2398   -7.1308   -8.0412 O   0  0  0  0  0  0  0  0  0  0  0  0
  -10.1210   -7.7126   -5.0828 N   0  3  0  0  0  0  0  0  0  0  0  0
  -10.4793   -5.4096   -3.5488 O   0  0  0  0  0  0  0  0  0  0  0  0
   -9.3430   -3.8692   -6.6869 O   0  0  0  0  0  0  0  0  0  0  0  0
   -8.4002   -2.0435   -5.3399 O   0  0  0  0  0  0  0  0  0  0  0  0
  -13.1237   -2.9974   -7.8379 C   0  0  2  0  0  0  0  0  0  0  0  0
  -13.6031   -1.6214   -8.3196 C   0  0  0  0  0  0  0  0  0  0  0  0
  -12.5153   -0.5575   -8.2014 C   0  0  1  0  0  0  0  0  0  0  0  0
  -11.3011   -1.0204   -8.9947 C   0  0  2  0  0  0  0  0  0  0  0  0
  -10.7426   -2.3017   -8.3705 C   0  0  1  0  0  0  0  0  0  0  0  0
  -11.7811   -3.4349   -8.4443 C   0  0  1  0  0  0  0  0  0  0  0  0
  -14.1558   -4.0486   -8.1293 N   0  3  0  0  0  0  0  0  0  0  0  0
  -13.0095    0.7734   -8.6839 N   0  3  0  0  0  0  0  0  0  0  0  0
   -9.5531   -2.6783   -9.0526 O   0  0  0  0  0  0  0  0  0  0  0  0
  -10.2882    0.0020   -9.0087 O   0  0  0  0  0  0  0  0  0  0  0  0
  -11.3090   -4.5783   -7.7015 O   0  0  0  0  0  0  0  0  0  0  0  0
   -9.5262    0.0478   -7.8340 C   0  0  2  0  0  0  0  0  0  0  0  0
   -8.8746    1.4270   -7.6882 C   0  0  1  0  0  0  0  0  0  0  0  0
   -7.7068    1.5879   -8.6618 C   0  0  0  0  0  0  0  0  0  0  0  0
   -6.7505    0.4198   -8.4833 C   0  0  1  0  0  0  0  0  0  0  0  0
   -7.4977   -0.8794   -8.7286 C   0  0  1  0  0  0  0  0  0  0  0  0
   -6.5914   -2.0867   -8.5702 C   0  0  0  0  0  0  0  0  0  0  0  0
   -9.8936    2.4911   -7.9583 N   0  3  0  0  0  0  0  0  0  0  0  0
   -6.2676   -2.2370   -7.1088 N   0  3  0  0  0  0  0  0  0  0  0  0
   -5.6605    0.5311   -9.3875 O   0  0  0  0  0  0  0  0  0  0  0  0
   -8.5655   -1.0010   -7.7737 O   0  0  0  0  0  0  0  0  0  0  0  0
  1  2  1  0  0  0  0
  1 22  1  1  0  0  0
  1 10  1  0  0  0  0
  2  3  1  0  0  0  0
  2  7  1  6  0  0  0
  3  4  1  0  0  0  0
  3  8  1  1  0  0  0
  4  5  1  0  0  0  0
  4  9  1  1  0  0  0
  5  6  1  1  0  0  0
  5 10  1  0  0  0  0
  6 11  1  0  0  0  0
 12 13  1  0  0  0  0
 12 17  1  0  0  0  0
 12 18  1  6  0  0  0
 13 14  1  0  0  0  0
 14 15  1  0  0  0  0
 14 19  1  6  0  0  0
 15 16  1  0  0  0  0
 15 21  1  1  0  0  0
 16 17  1  0  0  0  0
 16 20  1  6  0  0  0
 17 22  1  1  0  0  0
 23 21  1  6  0  0  0
 23 24  1  0  0  0  0
 23 32  1  0  0  0  0
 24 25  1  0  0  0  0
 24 29  1  6  0  0  0
 25 26  1  0  0  0  0
 26 27  1  0  0  0  0
 26 31  1  6  0  0  0
 27 28  1  1  0  0  0
 27 32  1  0  0  0  0
 28 30  1  0  0  0  0
M  CHG  5   8   1  18   1  19   1  29   1  30   1
M  END
>  <CHROM.1>
-164.68809572,178.51498406,64.95869504,177.54405100,123.90534345,56.77642893
170.57783461,128.58006603,79.78331125,-46.05665805,-150.54731321,-158.43767025
-83.54698740,55.52523704,70.71658075,21.88367742,-9.86944875,-2.44122514
-7.45254567,-1.85877724,-0.16801170,-0.40583373

>  <Name>
2tob cryst

>  <RI>
0

>  <Rbt.Current_Directory>
/home/itssahil/PROJECTS/Mol_Feturizer/New_Systems/rnas/2tob

>  <Rbt.Executable>
rbdock ($Id: //depot/dev/client3/rdock/2013.1/src/exe/rbdock.cxx#4 $)

>  <Rbt.Library>
libRbt.so (2013.1, Build901 2013/11/27)

>  <Rbt.Parameter_File>
/export/apps/rDock/src/rDock_2013.1_src/data/scripts/dock_solv.prm

>  <Rbt.Receptor>
prm/pocket_docking_3.prm

>  <SCORE>
-46.7325

>  <SCORE.INTER>
-41.823

>  <SCORE.INTER.CONST>
1

>  <SCORE.INTER.POLAR>
-6.87167

>  <SCORE.INTER.ROT>
6

>  <SCORE.INTER.SOLV>
41.5286

>  <SCORE.INTER.VDW>
-26.4193

>  <SCORE.INTER.norm>
-1.30697

>  <SCORE.INTRA>
-5.42691

>  <SCORE.INTRA.DIHEDRAL>
4.31484

>  <SCORE.INTRA.DIHEDRAL.0>
18.4221

>  <SCORE.INTRA.POLAR>
-0.60912

>  <SCORE.INTRA.POLAR.0>
-1.57101

>  <SCORE.INTRA.REPUL>
0.150904

>  <SCORE.INTRA.REPUL.0>
0.730195

>  <SCORE.INTRA.SOLV>
0.123744

>  <SCORE.INTRA.SOLV.lig_0>
-127.221

>  <SCORE.INTRA.VDW>
-6.32972

>  <SCORE.INTRA.VDW.0>
10.8385

>  <SCORE.INTRA.norm>
-0.169591

>  <SCORE.RESTR>
0.517446

>  <SCORE.RESTR.CAVITY>
0.517446

>  <SCORE.RESTR.norm>
0.0161702

>  <SCORE.SYSTEM>
0

>  <SCORE.SYSTEM.CONST>
0

>  <SCORE.SYSTEM.DIHEDRAL>
0

>  <SCORE.SYSTEM.SOLV>
0

>  <SCORE.SYSTEM.norm>
0

>  <SCORE.heavy>
32

>  <SCORE.norm>
-1.46039

>  <RMSD>
6.968

$$$$
2tob cryst
 OpenBabel11021811463D
libRbt.so/2013.1/901 2013/11/27
 32 34  0  0  0  0  0  0  0  0999 V2000
   -8.9481   -2.9129   -7.3262 C   0  0  2  0  0  0  0  0  0  0  0  0
   -9.1722   -4.2286   -6.5875 C   0  0  1  0  0  0  0  0  0  0  0  0
  -10.2469   -4.0210   -5.5199 C   0  0  2  0  0  0  0  0  0  0  0  0
   -9.8722   -2.8631   -4.5854 C   0  0  1  0  0  0  0  0  0  0  0  0
   -9.5375   -1.6136   -5.4074 C   0  0  1  0  0  0  0  0  0  0  0  0
   -9.0120   -0.4465   -4.5877 C   0  0  0  0  0  0  0  0  0  0  0  0
   -9.5895   -5.2371   -7.5038 O   0  0  0  0  0  0  0  0  0  0  0  0
  -10.6070   -5.1950   -4.6633 N   0  3  0  0  0  0  0  0  0  0  0  0
  -10.9683   -2.5940   -3.7202 O   0  0  0  0  0  0  0  0  0  0  0  0
   -8.5364   -1.9297   -6.3955 O   0  0  0  0  0  0  0  0  0  0  0  0
   -9.9182   -0.1136   -3.5410 O   0  0  0  0  0  0  0  0  0  0  0  0
  -10.8151   -0.2336   -8.1308 C   0  0  2  0  0  0  0  0  0  0  0  0
  -10.6032    1.1236   -8.8150 C   0  0  0  0  0  0  0  0  0  0  0  0
   -9.1316    1.3950   -9.1151 C   0  0  1  0  0  0  0  0  0  0  0  0
   -8.5994    0.2598   -9.9788 C   0  0  2  0  0  0  0  0  0  0  0  0
   -8.6605   -1.0516   -9.1916 C   0  0  1  0  0  0  0  0  0  0  0  0
  -10.1171   -1.4037   -8.8418 C   0  0  1  0  0  0  0  0  0  0  0  0
  -12.2800   -0.5413   -8.0093 N   0  3  0  0  0  0  0  0  0  0  0  0
   -8.9555    2.7234   -9.7877 N   0  3  0  0  0  0  0  0  0  0  0  0
   -8.0738   -2.0921   -9.9631 O   0  0  0  0  0  0  0  0  0  0  0  0
   -7.2447    0.5274  -10.3846 O   0  0  0  0  0  0  0  0  0  0  0  0
  -10.1445   -2.5424   -7.9562 O   0  0  0  0  0  0  0  0  0  0  0  0
   -6.3702    0.7292   -9.3088 C   0  0  2  0  0  0  0  0  0  0  0  0
   -5.0024    1.1859   -9.8268 C   0  0  1  0  0  0  0  0  0  0  0  0
   -4.2383    0.0221  -10.4587 C   0  0  0  0  0  0  0  0  0  0  0  0
   -4.1816   -1.1281   -9.4664 C   0  0  1  0  0  0  0  0  0  0  0  0
   -5.5961   -1.5355   -9.0926 C   0  0  1  0  0  0  0  0  0  0  0  0
   -5.6059   -2.6881   -8.1049 C   0  0  0  0  0  0  0  0  0  0  0  0
   -5.1909    2.2658  -10.8476 N   0  3  0  0  0  0  0  0  0  0  0  0
   -6.2315   -2.2003   -6.8267 N   0  3  0  0  0  0  0  0  0  0  0  0
   -3.4911   -2.2339  -10.0308 O   0  0  0  0  0  0  0  0  0  0  0  0
   -6.2645   -0.4214   -8.4772 O   0  0  0  0  0  0  0  0  0  0  0  0
  1  2  1  0  0  0  0
  1 22  1  1  0  0  0
  1 10  1  0  0  0  0
  2  3  1  0  0  0  0
  2  7  1  6  0  0  0
  3  4  1  0  0  0  0
  3  8  1  1  0  0  0
  4  5  1  0  0  0  0
  4  9  1  1  0  0  0
  5  6  1  1  0  0  0
  5 10  1  0  0  0  0
  6 11  1  0  0  0  0
 12 13  1  0  0  0  0
 12 17  1  0  0  0  0
 12 18  1  6  0  0  0
 13 14  1  0  0  0  0
 14 15  1  0  0  0  0
 14 19  1  6  0  0  0
 15 16  1  0  0  0  0
 15 21  1  1  0  0  0
 16 17  1  0  0  0  0
 16 20  1  6  0  0  0
 17 22  1  1  0  0  0
 23 21  1  6  0  0  0
 23 24  1  0  0  0  0
 23 32  1  0  0  0  0
 24 25  1  0  0  0  0
 24 29  1  6  0  0  0
 25 26  1  0  0  0  0
 26 27  1  0  0  0  0
 26 31  1  6  0  0  0
 27 28  1  1  0  0  0
 27 32  1  0  0  0  0
 28 30  1  0  0  0  0
M  CHG  5   8   1  18   1  19   1  29   1  30   1
M  END
>  <CHROM.1>
-172.98617391,-179.76360829,-162.23411202,65.03999911,-54.91632064,57.51668443
54.52084435,-79.13849967,57.30172524,-153.60270289,-106.34623307,-172.62356296
-46.21222199,168.54568589,116.55799538,148.33189062,-8.24412232,-1.24088538
-7.86047962,-2.33666402,0.42791048,-0.57895644

>  <Name>
2tob cryst

>  <RI>
0

>  <Rbt.Current_Directory>
/home/itssahil/PROJECTS/Mol_Feturizer/New_Systems/rnas/2tob

>  <Rbt.Executable>
rbdock ($Id: //depot/dev/client3/rdock/2013.1/src/exe/rbdock.cxx#4 $)

>  <Rbt.Library>
libRbt.so (2013.1, Build901 2013/11/27)

>  <Rbt.Parameter_File>
/export/apps/rDock/src/rDock_2013.1_src/data/scripts/dock_solv.prm

>  <Rbt.Receptor>
prm/blind_docking_40.prm

>  <SCORE>
-6.6686

>  <SCORE.INTER>
-8.78084

>  <SCORE.INTER.CONST>
1

>  <SCORE.INTER.POLAR>
-5.56425

>  <SCORE.INTER.ROT>
6

>  <SCORE.INTER.SOLV>
43.1791

>  <SCORE.INTER.VDW>
-9.29942

>  <SCORE.INTER.norm>
-0.274401

>  <SCORE.INTRA>
-4.31561

>  <SCORE.INTRA.DIHEDRAL>
1.7011

>  <SCORE.INTRA.DIHEDRAL.0>
18.4221

>  <SCORE.INTRA.POLAR>
0.682118

>  <SCORE.INTRA.POLAR.0>
-1.57101

>  <SCORE.INTRA.REPUL>
-0.0749227

>  <SCORE.INTRA.REPUL.0>
0.730195

>  <SCORE.INTRA.SOLV>
1.1941

>  <SCORE.INTRA.SOLV.lig_0>
-127.221

>  <SCORE.INTRA.VDW>
-7.7078

>  <SCORE.INTRA.VDW.0>
10.8385

>  <SCORE.INTRA.norm>
-0.134863

>  <SCORE.RESTR>
6.42786

>  <SCORE.RESTR.CAVITY>
6.42786

>  <SCORE.RESTR.norm>
0.20087

>  <SCORE.SYSTEM>
0

>  <SCORE.SYSTEM.CONST>
0

>  <SCORE.SYSTEM.DIHEDRAL>
0

>  <SCORE.SYSTEM.SOLV>
0

>  <SCORE.SYSTEM.norm>
0

>  <SCORE.heavy>
32

>  <SCORE.norm>
-0.208394

>  <RMSD>
6.971

$$$$
2tob cryst
 OpenBabel11021811463D
libRbt.so/2013.1/901 2013/11/27
 32 34  0  0  0  0  0  0  0  0999 V2000
   -9.8030   -3.2300   -7.9736 C   0  0  2  0  0  0  0  0  0  0  0  0
  -10.6111   -4.4768   -7.6283 C   0  0  1  0  0  0  0  0  0  0  0  0
  -11.1336   -4.3483   -6.1972 C   0  0  2  0  0  0  0  0  0  0  0  0
   -9.9826   -4.0874   -5.2166 C   0  0  1  0  0  0  0  0  0  0  0  0
   -9.1420   -2.9003   -5.6995 C   0  0  1  0  0  0  0  0  0  0  0  0
   -7.8885   -2.6451   -4.8786 C   0  0  0  0  0  0  0  0  0  0  0  0
  -11.7046   -4.6145   -8.5317 O   0  0  0  0  0  0  0  0  0  0  0  0
  -11.9435   -5.4835   -5.6519 N   0  3  0  0  0  0  0  0  0  0  0  0
  -10.5243   -3.8062   -3.9322 O   0  0  0  0  0  0  0  0  0  0  0  0
   -8.7259   -3.1157   -7.0629 O   0  0  0  0  0  0  0  0  0  0  0  0
   -8.2232   -2.2166   -3.5625 O   0  0  0  0  0  0  0  0  0  0  0  0
  -11.1562    0.1969   -8.3644 C   0  0  2  0  0  0  0  0  0  0  0  0
  -10.8163    1.4558   -9.1735 C   0  0  0  0  0  0  0  0  0  0  0  0
   -9.3148    1.6075   -9.4011 C   0  0  1  0  0  0  0  0  0  0  0  0
   -8.8053    0.3551  -10.1011 C   0  0  2  0  0  0  0  0  0  0  0  0
   -8.9982   -0.8555   -9.1844 C   0  0  1  0  0  0  0  0  0  0  0  0
  -10.4930   -1.0827   -8.8980 C   0  0  1  0  0  0  0  0  0  0  0  0
  -12.6425   -0.0110   -8.3097 N   0  3  0  0  0  0  0  0  0  0  0  0
   -9.0132    2.8412  -10.1981 N   0  3  0  0  0  0  0  0  0  0  0  0
   -8.4339   -2.0068   -9.7994 O   0  0  0  0  0  0  0  0  0  0  0  0
   -7.4140    0.4982  -10.4409 O   0  0  0  0  0  0  0  0  0  0  0  0
  -10.6473   -2.1131   -7.8999 O   0  0  0  0  0  0  0  0  0  0  0  0
   -6.5973    0.7815   -9.3385 C   0  0  2  0  0  0  0  0  0  0  0  0
   -5.2878    1.4223   -9.8102 C   0  0  1  0  0  0  0  0  0  0  0  0
   -4.3668    0.3823  -10.4488 C   0  0  0  0  0  0  0  0  0  0  0  0
   -4.1858   -0.7769   -9.4822 C   0  0  1  0  0  0  0  0  0  0  0  0
   -5.5447   -1.3710   -9.1547 C   0  0  1  0  0  0  0  0  0  0  0  0
   -5.4292   -2.5409   -8.1945 C   0  0  0  0  0  0  0  0  0  0  0  0
   -5.5898    2.4957  -10.8103 N   0  3  0  0  0  0  0  0  0  0  0  0
   -6.5909   -3.4636   -8.4434 N   0  3  0  0  0  0  0  0  0  0  0  0
   -3.3468   -1.7705  -10.0540 O   0  0  0  0  0  0  0  0  0  0  0  0
   -6.3641   -0.3677   -8.5312 O   0  0  0  0  0  0  0  0  0  0  0  0
  1  2  1  0  0  0  0
  1 22  1  1  0  0  0
  1 10  1  0  0  0  0
  2  3  1  0  0  0  0
  2  7  1  6  0  0  0
  3  4  1  0  0  0  0
  3  8  1  1  0  0  0
  4  5  1  0  0  0  0
  4  9  1  1  0  0  0
  5  6  1  1  0  0  0
  5 10  1  0  0  0  0
  6 11  1  0  0  0  0
 12 13  1  0  0  0  0
 12 17  1  0  0  0  0
 12 18  1  6  0  0  0
 13 14  1  0  0  0  0
 14 15  1  0  0  0  0
 14 19  1  6  0  0  0
 15 16  1  0  0  0  0
 15 21  1  1  0  0  0
 16 17  1  0  0  0  0
 16 20  1  6  0  0  0
 17 22  1  1  0  0  0
 23 21  1  6  0  0  0
 23 24  1  0  0  0  0
 23 32  1  0  0  0  0
 24 25  1  0  0  0  0
 24 29  1  6  0  0  0
 25 26  1  0  0  0  0
 26 27  1  0  0  0  0
 26 31  1  6  0  0  0
 27 28  1  1  0  0  0
 27 32  1  0  0  0  0
 28 30  1  0  0  0  0
M  CHG  5   8   1  18   1  19   1  29   1  30   1
M  END
>  <CHROM.1>
-140.62664372,61.93684811,-173.34444067,-166.93933324,-66.92039166,-170.83896796
153.77118952,170.17920450,56.65095722,77.05059589,-161.47614255,-158.91421802
-35.80342411,-179.21493327,-152.09688590,52.56581674,-8.47204434,-1.43854856
-8.18375306,-2.24549065,0.11106561,-0.64594675

>  <Name>
2tob cryst

>  <RI>
0

>  <Rbt.Current_Directory>
/home/itssahil/PROJECTS/Mol_Feturizer/New_Systems/rnas/2tob

>  <Rbt.Executable>
rbdock ($Id: //depot/dev/client3/rdock/2013.1/src/exe/rbdock.cxx#4 $)

>  <Rbt.Library>
libRbt.so (2013.1, Build901 2013/11/27)

>  <Rbt.Parameter_File>
/export/apps/rDock/src/rDock_2013.1_src/data/scripts/dock_solv.prm

>  <Rbt.Receptor>
prm/blind_docking_40.prm

>  <SCORE>
1.02368

>  <SCORE.INTER>
3.13182

>  <SCORE.INTER.CONST>
1

>  <SCORE.INTER.POLAR>
-7.09267

>  <SCORE.INTER.ROT>
6

>  <SCORE.INTER.SOLV>
45.2161

>  <SCORE.INTER.VDW>
3.05809

>  <SCORE.INTER.norm>
0.0978694

>  <SCORE.INTRA>
-10.8847

>  <SCORE.INTRA.DIHEDRAL>
-1.11175

>  <SCORE.INTRA.DIHEDRAL.0>
18.4221

>  <SCORE.INTRA.POLAR>
-0.383865

>  <SCORE.INTRA.POLAR.0>
-1.57101

>  <SCORE.INTRA.REPUL>
-0.668685

>  <SCORE.INTRA.REPUL.0>
0.730195

>  <SCORE.INTRA.SOLV>
0.691477

>  <SCORE.INTRA.SOLV.lig_0>
-127.221

>  <SCORE.INTRA.VDW>
-6.02597

>  <SCORE.INTRA.VDW.0>
10.8385

>  <SCORE.INTRA.norm>
-0.340146

>  <SCORE.RESTR>
8.77653

>  <SCORE.RESTR.CAVITY>
8.77653

>  <SCORE.RESTR.norm>
0.274266

>  <SCORE.SYSTEM>
0

>  <SCORE.SYSTEM.CONST>
0

>  <SCORE.SYSTEM.DIHEDRAL>
0

>  <SCORE.SYSTEM.SOLV>
0

>  <SCORE.SYSTEM.norm>
0

>  <SCORE.heavy>
32

>  <SCORE.norm>
0.03199

>  <RMSD>
6.994

$$$$
2tob cryst
 OpenBabel11021811463D
libRbt.so/2013.1/901 2013/11/27
 32 34  0  0  0  0  0  0  0  0999 V2000
  -11.0783   -3.3478   -8.6756 C   0  0  2  0  0  0  0  0  0  0  0  0
  -12.5833   -3.4728   -8.4599 C   0  0  1  0  0  0  0  0  0  0  0  0
  -12.8703   -3.4765   -6.9582 C   0  0  2  0  0  0  0  0  0  0  0  0
  -12.0683   -4.5773   -6.2513 C   0  0  1  0  0  0  0  0  0  0  0  0
  -10.5848   -4.4625   -6.6186 C   0  0  1  0  0  0  0  0  0  0  0  0
   -9.7187   -5.5931   -6.0878 C   0  0  0  0  0  0  0  0  0  0  0  0
  -13.2566   -2.3795   -9.0781 O   0  0  0  0  0  0  0  0  0  0  0  0
  -14.2980   -3.6096   -6.5271 N   0  3  0  0  0  0  0  0  0  0  0  0
  -12.2312   -4.4376   -4.8455 O   0  0  0  0  0  0  0  0  0  0  0  0
  -10.4340   -4.4427   -8.0521 O   0  0  0  0  0  0  0  0  0  0  0  0
   -9.5934   -6.6319   -7.0536 O   0  0  0  0  0  0  0  0  0  0  0  0
  -11.0645    0.2257   -8.4210 C   0  0  2  0  0  0  0  0  0  0  0  0
  -10.6538    1.5338   -9.1104 C   0  0  0  0  0  0  0  0  0  0  0  0
   -9.1405    1.6521   -9.2690 C   0  0  1  0  0  0  0  0  0  0  0  0
   -8.6427    0.4441  -10.0507 C   0  0  2  0  0  0  0  0  0  0  0  0
   -8.9094   -0.8298   -9.2449 C   0  0  1  0  0  0  0  0  0  0  0  0
  -10.4206   -1.0282   -9.0336 C   0  0  1  0  0  0  0  0  0  0  0  0
  -12.5575    0.0650   -8.4387 N   0  3  0  0  0  0  0  0  0  0  0  0
   -8.7693    2.9354   -9.9498 N   0  3  0  0  0  0  0  0  0  0  0  0
   -8.3571   -1.9458   -9.9315 O   0  0  0  0  0  0  0  0  0  0  0  0
   -7.2353    0.5666  -10.3259 O   0  0  0  0  0  0  0  0  0  0  0  0
  -10.6463   -2.1305   -8.1304 O   0  0  0  0  0  0  0  0  0  0  0  0
   -6.4476    0.6584   -9.1711 C   0  0  2  0  0  0  0  0  0  0  0  0
   -4.9914    0.9430   -9.5540 C   0  0  1  0  0  0  0  0  0  0  0  0
   -4.3203   -0.3060  -10.1260 C   0  0  0  0  0  0  0  0  0  0  0  0
   -4.4987   -1.4549   -9.1466 C   0  0  1  0  0  0  0  0  0  0  0  0
   -5.9814   -1.6847   -8.9111 C   0  0  1  0  0  0  0  0  0  0  0  0
   -6.2254   -2.8276   -7.9424 C   0  0  0  0  0  0  0  0  0  0  0  0
   -4.9491    2.0383  -10.5749 N   0  3  0  0  0  0  0  0  0  0  0  0
   -6.6506   -2.2386   -6.6252 N   0  3  0  0  0  0  0  0  0  0  0  0
   -3.8995   -2.6372   -9.6576 O   0  0  0  0  0  0  0  0  0  0  0  0
   -6.5626   -0.4968   -8.3471 O   0  0  0  0  0  0  0  0  0  0  0  0
  1  2  1  0  0  0  0
  1 22  1  1  0  0  0
  1 10  1  0  0  0  0
  2  3  1  0  0  0  0
  2  7  1  6  0  0  0
  3  4  1  0  0  0  0
  3  8  1  6  0  0  0
  4  5  1  0  0  0  0
  4  9  1  1  0  0  0
  5  6  1  6  0  0  0
  5 10  1  0  0  0  0
  6 11  1  0  0  0  0
 12 13  1  0  0  0  0
 12 17  1  0  0  0  0
 12 18  1  6  0  0  0
 13 14  1  0  0  0  0
 14 15  1  0  0  0  0
 14 19  1  6  0  0  0
 15 16  1  0  0  0  0
 15 21  1  1  0  0  0
 16 17  1  0  0  0  0
 16 20  1  6  0  0  0
 17 22  1  1  0  0  0
 23 21  1  6  0  0  0
 23 24  1  0  0  0  0
 23 32  1  0  0  0  0
 24 25  1  0  0  0  0
 24 29  1  6  0  0  0
 25 26  1  0  0  0  0
 26 27  1  0  0  0  0
 26 31  1  6  0  0  0
 27 28  1  1  0  0  0
 27 32  1  0  0  0  0
 28 30  1  0  0  0  0
M  CHG  5   8   1  18   1  19   1  29   1  30   1
M  END
>  <CHROM.1>
-100.70645491,149.27382059,-47.72240180,-57.52091640,93.11763892,-173.96933784
155.67806357,-18.41651696,59.91748485,-167.52810229,134.57290299,-173.67147849
-166.16604729,-39.27789216,105.63611670,-84.27060235,-9.07141079,-1.67252030
-8.44520547,2.47872663,-0.12180615,2.72912044

>  <Name>
2tob cryst

>  <RI>
0

>  <Rbt.Current_Directory>
/home/itssahil/PROJECTS/Mol_Feturizer/New_Systems/rnas/2tob

>  <Rbt.Executable>
rbdock ($Id: //depot/dev/client3/rdock/2013.1/src/exe/rbdock.cxx#4 $)

>  <Rbt.Library>
libRbt.so (2013.1, Build901 2013/11/27)

>  <Rbt.Parameter_File>
/export/apps/rDock/src/rDock_2013.1_src/data/scripts/dock_solv.prm

>  <Rbt.Receptor>
prm/blind_docking_80.prm

>  <SCORE>
-9.25195

>  <SCORE.INTER>
-8.36574

>  <SCORE.INTER.CONST>
1

>  <SCORE.INTER.POLAR>
-6.6782

>  <SCORE.INTER.ROT>
6

>  <SCORE.INTER.SOLV>
44.7666

>  <SCORE.INTER.VDW>
-5.83867

>  <SCORE.INTER.norm>
-0.261429

>  <SCORE.INTRA>
-7.30776

>  <SCORE.INTRA.DIHEDRAL>
14.0816

>  <SCORE.INTRA.DIHEDRAL.0>
18.4221

>  <SCORE.INTRA.POLAR>
0.0682885

>  <SCORE.INTRA.POLAR.0>
-1.57101

>  <SCORE.INTRA.REPUL>
-0.730195

>  <SCORE.INTRA.REPUL.0>
0.730195

>  <SCORE.INTRA.SOLV>
-1.79488

>  <SCORE.INTRA.SOLV.lig_0>
-127.221

>  <SCORE.INTRA.VDW>
-10.0323

>  <SCORE.INTRA.VDW.0>
10.8385

>  <SCORE.INTRA.norm>
-0.228368

>  <SCORE.RESTR>
6.42156

>  <SCORE.RESTR.CAVITY>
6.42156

>  <SCORE.RESTR.norm>
0.200674

>  <SCORE.SYSTEM>
0

>  <SCORE.SYSTEM.CONST>
0

>  <SCORE.SYSTEM.DIHEDRAL>
0

>  <SCORE.SYSTEM.SOLV>
0

>  <SCORE.SYSTEM.norm>
0

>  <SCORE.heavy>
32

>  <SCORE.norm>
-0.289123

>  <RMSD>
6.996

$$$$
2tob cryst
 OpenBabel11021811463D
libRbt.so/2013.1/901 2013/11/27
 32 34  0  0  0  0  0  0  0  0999 V2000
  -10.7004   -3.3440   -8.4473 C   0  0  2  0  0  0  0  0  0  0  0  0
  -12.1930   -3.6543   -8.5010 C   0  0  1  0  0  0  0  0  0  0  0  0
  -12.7716   -3.5527   -7.0894 C   0  0  2  0  0  0  0  0  0  0  0  0
  -12.0038   -4.4586   -6.1177 C   0  0  1  0  0  0  0  0  0  0  0  0
  -10.5006   -4.1760   -6.2146 C   0  0  1  0  0  0  0  0  0  0  0  0
   -9.6318   -5.1195   -5.3990 C   0  0  0  0  0  0  0  0  0  0  0  0
  -12.8524   -2.7294   -9.3615 O   0  0  0  0  0  0  0  0  0  0  0  0
  -14.2310   -3.8395   -6.9177 N   0  3  0  0  0  0  0  0  0  0  0  0
  -12.4592   -4.2078   -4.7941 O   0  0  0  0  0  0  0  0  0  0  0  0
  -10.0701   -4.2740   -7.5869 O   0  0  0  0  0  0  0  0  0  0  0  0
   -9.3898   -6.3286   -6.1111 O   0  0  0  0  0  0  0  0  0  0  0  0
  -11.0437    0.2826   -8.4216 C   0  0  2  0  0  0  0  0  0  0  0  0
  -10.6962    1.5554   -9.2054 C   0  0  0  0  0  0  0  0  0  0  0  0
   -9.1917    1.7179   -9.4042 C   0  0  1  0  0  0  0  0  0  0  0  0
   -8.6636    0.4789  -10.1141 C   0  0  2  0  0  0  0  0  0  0  0  0
   -8.8663   -0.7466   -9.2195 C   0  0  1  0  0  0  0  0  0  0  0  0
  -10.3647   -0.9854   -8.9629 C   0  0  1  0  0  0  0  0  0  0  0  0
  -12.5297    0.0667   -8.3961 N   0  3  0  0  0  0  0  0  0  0  0  0
   -8.8825    2.9650  -10.1769 N   0  3  0  0  0  0  0  0  0  0  0  0
   -8.2854   -1.8856   -9.8419 O   0  0  0  0  0  0  0  0  0  0  0  0
   -7.2674    0.6339  -10.4272 O   0  0  0  0  0  0  0  0  0  0  0  0
  -10.5311   -2.0318   -7.9835 O   0  0  0  0  0  0  0  0  0  0  0  0
   -6.4588    0.8095   -9.2967 C   0  0  2  0  0  0  0  0  0  0  0  0
   -5.0225    1.1261   -9.7266 C   0  0  1  0  0  0  0  0  0  0  0  0
   -4.3189   -0.1248  -10.2535 C   0  0  0  0  0  0  0  0  0  0  0  0
   -4.4345   -1.2302   -9.2163 C   0  0  1  0  0  0  0  0  0  0  0  0
   -5.9024   -1.5003   -8.9357 C   0  0  1  0  0  0  0  0  0  0  0  0
   -6.0839   -2.6027   -7.9081 C   0  0  0  0  0  0  0  0  0  0  0  0
   -5.0419    2.1712  -10.7994 N   0  3  0  0  0  0  0  0  0  0  0  0
   -7.0486   -3.6100   -8.4717 N   0  3  0  0  0  0  0  0  0  0  0  0
   -3.8039   -2.4142   -9.6839 O   0  0  0  0  0  0  0  0  0  0  0  0
   -6.5141   -0.3076   -8.4160 O   0  0  0  0  0  0  0  0  0  0  0  0
  1  2  1  0  0  0  0
  1 22  1  1  0  0  0
  1 10  1  0  0  0  0
  2  3  1  0  0  0  0
  2  7  1  6  0  0  0
  3  4  1  0  0  0  0
  3  8  1  6  0  0  0
  4  5  1  0  0  0  0
  4  9  1  1  0  0  0
  5  6  1  1  0  0  0
  5 10  1  0  0  0  0
  6 11  1  0  0  0  0
 12 13  1  0  0  0  0
 12 17  1  0  0  0  0
 12 18  1  6  0  0  0
 13 14  1  0  0  0  0
 14 15  1  0  0  0  0
 14 19  1  6  0  0  0
 15 16  1  0  0  0  0
 15 21  1  1  0  0  0
 16 17  1  0  0  0  0
 16 20  1  6  0  0  0
 17 22  1  1  0  0  0
 23 21  1  6  0  0  0
 23 24  1  0  0  0  0
 23 32  1  0  0  0  0
 24 25  1  0  0  0  0
 24 29  1  6  0  0  0
 25 26  1  0  0  0  0
 26 27  1  0  0  0  0
 26 31  1  6  0  0  0
 27 28  1  1  0  0  0
 27 32  1  0  0  0  0
 28 30  1  0  0  0  0
M  CHG  5   8   1  18   1  19   1  29   1  30   1
M  END
>  <CHROM.1>
-95.94050332,159.25024627,-160.79592333,-59.08953901,82.91574569,173.12273898
147.93377377,39.72523455,60.93706572,-140.60256433,145.29514158,-173.51918618
-163.33156867,168.07371062,-128.94162687,-104.54118069,-9.01650077,-1.63402631
-8.48027109,-2.43181049,0.13312412,-0.45384609

>  <Name>
2tob cryst

>  <RI>
2.04895e+07

>  <Rbt.Current_Directory>
/home/itssahil/PROJECTS/Mol_Feturizer/New_Systems/rnas/2tob

>  <Rbt.Executable>
rbdock ($Id: //depot/dev/client3/rdock/2013.1/src/exe/rbdock.cxx#4 $)

>  <Rbt.Library>
libRbt.so (2013.1, Build901 2013/11/27)

>  <Rbt.Parameter_File>
/export/apps/rDock/src/rDock_2013.1_src/data/scripts/dock_solv.prm

>  <Rbt.Receptor>
prm/blind_docking_20.prm

>  <SCORE>
-19.1285

>  <SCORE.INTER>
-14.781

>  <SCORE.INTER.CONST>
1

>  <SCORE.INTER.POLAR>
-7.48956

>  <SCORE.INTER.ROT>
6

>  <SCORE.INTER.SOLV>
44.4231

>  <SCORE.INTER.VDW>
-7.2965

>  <SCORE.INTER.norm>
-0.461906

>  <SCORE.INTRA>
-7.9973

>  <SCORE.INTRA.DIHEDRAL>
13.3495

>  <SCORE.INTRA.DIHEDRAL.0>
18.4221

>  <SCORE.INTRA.POLAR>
-0.603591

>  <SCORE.INTRA.POLAR.0>
-1.57101

>  <SCORE.INTRA.REPUL>
-0.730195

>  <SCORE.INTRA.REPUL.0>
0.730195

>  <SCORE.INTRA.SOLV>
1.16057

>  <SCORE.INTRA.SOLV.lig_0>
-127.221

>  <SCORE.INTRA.VDW>
-9.54917

>  <SCORE.INTRA.VDW.0>
10.8385

>  <SCORE.INTRA.norm>
-0.249916

>  <SCORE.RESTR>
3.64978

>  <SCORE.RESTR.CAVITY>
3.64978

>  <SCORE.RESTR.norm>
0.114056

>  <SCORE.SYSTEM>
0

>  <SCORE.SYSTEM.CONST>
0

>  <SCORE.SYSTEM.DIHEDRAL>
0

>  <SCORE.SYSTEM.SOLV>
0

>  <SCORE.SYSTEM.norm>
0

>  <SCORE.heavy>
32

>  <SCORE.norm>
-0.597766

>  <RMSD>
7.009

$$$$
2tob cryst
 OpenBabel11021811463D
libRbt.so/2013.1/901 2013/11/27
 32 34  0  0  0  0  0  0  0  0999 V2000
  -10.6451   -3.4212   -8.3473 C   0  0  2  0  0  0  0  0  0  0  0  0
  -12.1131   -3.7840   -8.5478 C   0  0  1  0  0  0  0  0  0  0  0  0
  -12.8423   -3.6578   -7.2099 C   0  0  2  0  0  0  0  0  0  0  0  0
  -12.1554   -4.5058   -6.1311 C   0  0  1  0  0  0  0  0  0  0  0  0
  -10.6599   -4.1750   -6.0782 C   0  0  1  0  0  0  0  0  0  0  0  0
   -9.8548   -5.0620   -5.1427 C   0  0  0  0  0  0  0  0  0  0  0  0
  -12.7049   -2.9098   -9.5052 O   0  0  0  0  0  0  0  0  0  0  0  0
  -14.3023   -3.9889   -7.1837 N   0  3  0  0  0  0  0  0  0  0  0  0
  -12.7573   -4.2290   -4.8728 O   0  0  0  0  0  0  0  0  0  0  0  0
  -10.0822   -4.3015   -7.3929 O   0  0  0  0  0  0  0  0  0  0  0  0
   -8.6456   -4.4199   -4.7510 O   0  0  0  0  0  0  0  0  0  0  0  0
  -11.1037    0.2097   -8.3985 C   0  0  2  0  0  0  0  0  0  0  0  0
  -10.7706    1.4697   -9.2088 C   0  0  0  0  0  0  0  0  0  0  0  0
   -9.2683    1.6432   -9.4140 C   0  0  1  0  0  0  0  0  0  0  0  0
   -8.7289    0.3954  -10.0996 C   0  0  2  0  0  0  0  0  0  0  0  0
   -8.9175   -0.8135   -9.1798 C   0  0  1  0  0  0  0  0  0  0  0  0
  -10.4128   -1.0622   -8.9152 C   0  0  1  0  0  0  0  0  0  0  0  0
  -12.5874   -0.0207   -8.3656 N   0  3  0  0  0  0  0  0  0  0  0  0
   -8.9732    2.8775  -10.2127 N   0  3  0  0  0  0  0  0  0  0  0  0
   -8.3262   -1.9590   -9.7800 O   0  0  0  0  0  0  0  0  0  0  0  0
   -7.3349    0.5581  -10.4187 O   0  0  0  0  0  0  0  0  0  0  0  0
  -10.5668   -2.0899   -7.9143 O   0  0  0  0  0  0  0  0  0  0  0  0
   -6.5259    0.7637   -9.2936 C   0  0  2  0  0  0  0  0  0  0  0  0
   -5.1025    1.1226   -9.7330 C   0  0  1  0  0  0  0  0  0  0  0  0
   -4.3635   -0.1084  -10.2584 C   0  0  0  0  0  0  0  0  0  0  0  0
   -4.4391   -1.2121   -9.2158 C   0  0  1  0  0  0  0  0  0  0  0  0
   -5.8964   -1.5261   -8.9257 C   0  0  1  0  0  0  0  0  0  0  0  0
   -6.0381   -2.6289   -7.8922 C   0  0  0  0  0  0  0  0  0  0  0  0
   -5.1601    2.1618  -10.8102 N   0  3  0  0  0  0  0  0  0  0  0  0
   -7.1343   -3.5538   -8.3459 N   0  3  0  0  0  0  0  0  0  0  0  0
   -3.7748   -2.3781   -9.6818 O   0  0  0  0  0  0  0  0  0  0  0  0
   -6.5418   -0.3505   -8.4076 O   0  0  0  0  0  0  0  0  0  0  0  0
  1  2  1  0  0  0  0
  1 22  1  1  0  0  0
  1 10  1  0  0  0  0
  2  3  1  0  0  0  0
  2  7  1  6  0  0  0
  3  4  1  0  0  0  0
  3  8  1  6  0  0  0
  4  5  1  0  0  0  0
  4  9  1  1  0  0  0
  5  6  1  1  0  0  0
  5 10  1  0  0  0  0
  6 11  1  0  0  0  0
 12 13  1  0  0  0  0
 12 17  1  0  0  0  0
 12 18  1  6  0  0  0
 13 14  1  0  0  0  0
 14 15  1  0  0  0  0
 14 19  1  6  0  0  0
 15 16  1  0  0  0  0
 15 21  1  1  0  0  0
 16 17  1  0  0  0  0
 16 20  1  6  0  0  0
 17 22  1  1  0  0  0
 23 21  1  6  0  0  0
 23 24  1  0  0  0  0
 23 32  1  0  0  0  0
 24 25  1  0  0  0  0
 24 29  1  6  0  0  0
 25 26  1  0  0  0  0
 26 27  1  0  0  0  0
 26 31  1  6  0  0  0
 27 28  1  1  0  0  0
 27 32  1  0  0  0  0
 28 30  1  0  0  0  0
M  CHG  5   8   1  18   1  19   1  29   1  30   1
M  END
>  <CHROM.1>
-92.12676513,68.10246440,-171.27189950,175.54403212,-157.87262285,-164.11588516
138.61816443,-24.87143219,60.99215287,-86.96675725,148.94856155,-172.02794264
-42.66138581,170.08536437,-137.78591778,123.55927029,-9.04093750,-1.61605371
-8.42257598,-2.44871883,0.08548504,-0.53654665

>  <Name>
2tob cryst

>  <RI>
2.04895e+07

>  <Rbt.Current_Directory>
/home/itssahil/PROJECTS/Mol_Feturizer/New_Systems/rnas/2tob

>  <Rbt.Executable>
rbdock ($Id: //depot/dev/client3/rdock/2013.1/src/exe/rbdock.cxx#4 $)

>  <Rbt.Library>
libRbt.so (2013.1, Build901 2013/11/27)

>  <Rbt.Parameter_File>
/export/apps/rDock/src/rDock_2013.1_src/data/scripts/dock_solv.prm

>  <Rbt.Receptor>
prm/blind_docking_20.prm

>  <SCORE>
-14.3303

>  <SCORE.INTER>
-5.55322

>  <SCORE.INTER.CONST>
1

>  <SCORE.INTER.POLAR>
-4.92412

>  <SCORE.INTER.ROT>
6

>  <SCORE.INTER.SOLV>
43.7439

>  <SCORE.INTER.VDW>
-9.46973

>  <SCORE.INTER.norm>
-0.173538

>  <SCORE.INTRA>
-11.9444

>  <SCORE.INTRA.DIHEDRAL>
10.2476

>  <SCORE.INTRA.DIHEDRAL.0>
18.4221

>  <SCORE.INTRA.POLAR>
-0.921091

>  <SCORE.INTRA.POLAR.0>
-1.57101

>  <SCORE.INTRA.REPUL>
-0.730195

>  <SCORE.INTRA.REPUL.0>
0.730195

>  <SCORE.INTRA.SOLV>
0.720322

>  <SCORE.INTRA.SOLV.lig_0>
-127.221

>  <SCORE.INTRA.VDW>
-10.6457

>  <SCORE.INTRA.VDW.0>
10.8385

>  <SCORE.INTRA.norm>
-0.373263

>  <SCORE.RESTR>
3.16739

>  <SCORE.RESTR.CAVITY>
3.16739

>  <SCORE.RESTR.norm>
0.0989808

>  <SCORE.SYSTEM>
0

>  <SCORE.SYSTEM.CONST>
0

>  <SCORE.SYSTEM.DIHEDRAL>
0

>  <SCORE.SYSTEM.SOLV>
0

>  <SCORE.SYSTEM.norm>
0

>  <SCORE.heavy>
32

>  <SCORE.norm>
-0.447821

>  <RMSD>
7.013

$$$$
2tob cryst
 OpenBabel11021811463D
libRbt.so/2013.1/901 2013/11/27
 32 34  0  0  0  0  0  0  0  0999 V2000
  -11.5770   -2.5519   -7.2280 C   0  0  2  0  0  0  0  0  0  0  0  0
  -11.3674   -3.2877   -5.9083 C   0  0  1  0  0  0  0  0  0  0  0  0
  -10.6382   -4.6030   -6.1844 C   0  0  2  0  0  0  0  0  0  0  0  0
  -11.3946   -5.4390   -7.2252 C   0  0  1  0  0  0  0  0  0  0  0  0
  -11.6797   -4.5923   -8.4705 C   0  0  1  0  0  0  0  0  0  0  0  0
  -12.5525   -5.2786   -9.5084 C   0  0  0  0  0  0  0  0  0  0  0  0
  -10.5956   -2.4844   -5.0196 O   0  0  0  0  0  0  0  0  0  0  0  0
  -10.3480   -5.4917   -5.0149 N   0  3  0  0  0  0  0  0  0  0  0  0
  -10.6021   -6.5661   -7.5773 O   0  0  0  0  0  0  0  0  0  0  0  0
  -12.3436   -3.3700   -8.0916 O   0  0  0  0  0  0  0  0  0  0  0  0
  -11.9251   -6.4597   -9.9973 O   0  0  0  0  0  0  0  0  0  0  0  0
  -10.9523    0.0143   -8.2571 C   0  0  2  0  0  0  0  0  0  0  0  0
  -10.7007    1.2758   -9.0941 C   0  0  0  0  0  0  0  0  0  0  0  0
   -9.2175    1.4903   -9.3829 C   0  0  1  0  0  0  0  0  0  0  0  0
   -8.6804    0.2522  -10.0876 C   0  0  2  0  0  0  0  0  0  0  0  0
   -8.7833   -0.9532   -9.1496 C   0  0  1  0  0  0  0  0  0  0  0  0
  -10.2541   -1.2420   -8.8013 C   0  0  1  0  0  0  0  0  0  0  0  0
  -12.4246   -0.2580   -8.1410 N   0  3  0  0  0  0  0  0  0  0  0  0
   -9.0025    2.7251  -10.2059 N   0  3  0  0  0  0  0  0  0  0  0  0
   -8.1928   -2.0868   -9.7727 O   0  0  0  0  0  0  0  0  0  0  0  0
   -7.3113    0.4516  -10.4840 O   0  0  0  0  0  0  0  0  0  0  0  0
  -10.3232   -2.2645   -7.7857 O   0  0  0  0  0  0  0  0  0  0  0  0
   -6.4552    0.7303   -9.4107 C   0  0  2  0  0  0  0  0  0  0  0  0
   -5.0471    1.0359   -9.9321 C   0  0  1  0  0  0  0  0  0  0  0  0
   -4.3430   -0.2410  -10.3918 C   0  0  0  0  0  0  0  0  0  0  0  0
   -4.3877   -1.2621   -9.2666 C   0  0  1  0  0  0  0  0  0  0  0  0
   -5.8353   -1.5338   -8.8960 C   0  0  1  0  0  0  0  0  0  0  0  0
   -5.9464   -2.5537   -7.7773 C   0  0  0  0  0  0  0  0  0  0  0  0
   -5.1376    1.9919  -11.0816 N   0  3  0  0  0  0  0  0  0  0  0  0
   -7.1009   -3.4654   -8.0918 N   0  3  0  0  0  0  0  0  0  0  0  0
   -3.7551   -2.4687   -9.6691 O   0  0  0  0  0  0  0  0  0  0  0  0
   -6.4467   -0.3140   -8.4431 O   0  0  0  0  0  0  0  0  0  0  0  0
  1  2  1  0  0  0  0
  1 22  1  6  0  0  0
  1 10  1  0  0  0  0
  2  3  1  0  0  0  0
  2  7  1  1  0  0  0
  3  4  1  0  0  0  0
  3  8  1  1  0  0  0
  4  5  1  0  0  0  0
  4  9  1  6  0  0  0
  5  6  1  6  0  0  0
  5 10  1  0  0  0  0
  6 11  1  0  0  0  0
 12 13  1  0  0  0  0
 12 17  1  0  0  0  0
 12 18  1  6  0  0  0
 13 14  1  0  0  0  0
 14 15  1  0  0  0  0
 14 19  1  6  0  0  0
 15 16  1  0  0  0  0
 15 21  1  1  0  0  0
 16 17  1  0  0  0  0
 16 20  1  6  0  0  0
 17 22  1  1  0  0  0
 23 21  1  6  0  0  0
 23 24  1  0  0  0  0
 23 32  1  0  0  0  0
 24 25  1  0  0  0  0
 24 29  1  6  0  0  0
 25 26  1  0  0  0  0
 26 27  1  0  0  0  0
 26 31  1  6  0  0  0
 27 28  1  1  0  0  0
 27 32  1  0  0  0  0
 28 30  1  0  0  0  0
M  CHG  5   8   1  18   1  19   1  29   1  30   1
M  END
>  <CHROM.1>
-161.59814829,-173.22376447,65.20045705,-57.09849938,-61.36632860,-170.85848282
122.77197073,43.26067609,59.18693132,-87.84039397,51.45045892,-175.57327935
96.54458920,-36.92390635,-139.76340790,78.26305226,-8.91962614,-1.87897852
-8.57722635,2.35713695,-0.16485662,2.83858190

>  <Name>
2tob cryst

>  <RI>
2.04895e+07

>  <Rbt.Current_Directory>
/home/itssahil/PROJECTS/Mol_Feturizer/New_Systems/rnas/2tob

>  <Rbt.Executable>
rbdock ($Id: //depot/dev/client3/rdock/2013.1/src/exe/rbdock.cxx#4 $)

>  <Rbt.Library>
libRbt.so (2013.1, Build901 2013/11/27)

>  <Rbt.Parameter_File>
/export/apps/rDock/src/rDock_2013.1_src/data/scripts/dock_solv.prm

>  <Rbt.Receptor>
prm/blind_docking_20.prm

>  <SCORE>
-20.8128

>  <SCORE.INTER>
-18.0572

>  <SCORE.INTER.CONST>
1

>  <SCORE.INTER.POLAR>
-5.16274

>  <SCORE.INTER.ROT>
6

>  <SCORE.INTER.SOLV>
42.3164

>  <SCORE.INTER.VDW>
-16.5345

>  <SCORE.INTER.norm>
-0.564289

>  <SCORE.INTRA>
-5.06566

>  <SCORE.INTRA.DIHEDRAL>
1.32509

>  <SCORE.INTRA.DIHEDRAL.0>
18.4221

>  <SCORE.INTRA.POLAR>
0.0874707

>  <SCORE.INTRA.POLAR.0>
-1.57101

>  <SCORE.INTRA.REPUL>
-0.730195

>  <SCORE.INTRA.REPUL.0>
0.730195

>  <SCORE.INTRA.SOLV>
0.050295

>  <SCORE.INTRA.SOLV.lig_0>
-127.221

>  <SCORE.INTRA.VDW>
-2.39977

>  <SCORE.INTRA.VDW.0>
10.8385

>  <SCORE.INTRA.norm>
-0.158302

>  <SCORE.RESTR>
2.31009

>  <SCORE.RESTR.CAVITY>
2.31009

>  <SCORE.RESTR.norm>
0.0721902

>  <SCORE.SYSTEM>
0

>  <SCORE.SYSTEM.CONST>
0

>  <SCORE.SYSTEM.DIHEDRAL>
0

>  <SCORE.SYSTEM.SOLV>
0

>  <SCORE.SYSTEM.norm>
0

>  <SCORE.heavy>
32

>  <SCORE.norm>
-0.6504

>  <RMSD>
7.017

$$$$
2tob cryst
 OpenBabel11021811463D
libRbt.so/2013.1/901 2013/11/27
 32 34  0  0  0  0  0  0  0  0999 V2000
  -10.9160   -3.2379   -8.5008 C   0  0  2  0  0  0  0  0  0  0  0  0
  -12.4258   -3.3794   -8.3352 C   0  0  1  0  0  0  0  0  0  0  0  0
  -12.7725   -3.2853   -6.8490 C   0  0  2  0  0  0  0  0  0  0  0  0
  -11.9793   -4.3174   -6.0365 C   0  0  1  0  0  0  0  0  0  0  0  0
  -10.4846   -4.1970   -6.3534 C   0  0  1  0  0  0  0  0  0  0  0  0
   -9.6198   -5.2696   -5.7118 C   0  0  0  0  0  0  0  0  0  0  0  0
  -13.0939   -2.3460   -9.0538 O   0  0  0  0  0  0  0  0  0  0  0  0
  -14.2136   -3.4184   -6.4651 N   0  3  0  0  0  0  0  0  0  0  0  0
  -12.2007   -4.0843   -4.6513 O   0  0  0  0  0  0  0  0  0  0  0  0
  -10.2771   -4.2732   -7.7780 O   0  0  0  0  0  0  0  0  0  0  0  0
   -8.8624   -4.7316   -4.6326 O   0  0  0  0  0  0  0  0  0  0  0  0
  -11.0047    0.3532   -8.4194 C   0  0  2  0  0  0  0  0  0  0  0  0
  -10.6426    1.6330   -9.1850 C   0  0  0  0  0  0  0  0  0  0  0  0
   -9.1375    1.7726   -9.3962 C   0  0  1  0  0  0  0  0  0  0  0  0
   -8.6382    0.5370  -10.1324 C   0  0  2  0  0  0  0  0  0  0  0  0
   -8.8536   -0.6999   -9.2567 C   0  0  1  0  0  0  0  0  0  0  0  0
  -10.3534   -0.9170   -8.9890 C   0  0  1  0  0  0  0  0  0  0  0  0
  -12.4939    0.1627   -8.3826 N   0  3  0  0  0  0  0  0  0  0  0  0
   -8.8141    3.0273  -10.1508 N   0  3  0  0  0  0  0  0  0  0  0  0
   -8.2990   -1.8380   -9.9042 O   0  0  0  0  0  0  0  0  0  0  0  0
   -7.2426    0.6730  -10.4569 O   0  0  0  0  0  0  0  0  0  0  0  0
  -10.5285   -1.9769   -8.0258 O   0  0  0  0  0  0  0  0  0  0  0  0
   -6.4264    0.8706   -9.3356 C   0  0  2  0  0  0  0  0  0  0  0  0
   -4.9958    1.1911   -9.7816 C   0  0  1  0  0  0  0  0  0  0  0  0
   -4.2876   -0.0624  -10.2961 C   0  0  0  0  0  0  0  0  0  0  0  0
   -4.3869   -1.1535   -9.2422 C   0  0  1  0  0  0  0  0  0  0  0  0
   -5.8507   -1.4298   -8.9459 C   0  0  1  0  0  0  0  0  0  0  0  0
   -6.0161   -2.5184   -7.9011 C   0  0  0  0  0  0  0  0  0  0  0  0
   -5.0313    2.2204  -10.8692 N   0  3  0  0  0  0  0  0  0  0  0  0
   -7.1218   -3.4328   -8.3528 N   0  3  0  0  0  0  0  0  0  0  0  0
   -3.7517   -2.3396   -9.6978 O   0  0  0  0  0  0  0  0  0  0  0  0
   -6.4667   -0.2340   -8.4384 O   0  0  0  0  0  0  0  0  0  0  0  0
  1  2  1  0  0  0  0
  1 22  1  1  0  0  0
  1 10  1  0  0  0  0
  2  3  1  0  0  0  0
  2  7  1  6  0  0  0
  3  4  1  0  0  0  0
  3  8  1  6  0  0  0
  4  5  1  0  0  0  0
  4  9  1  1  0  0  0
  5  6  1  1  0  0  0
  5 10  1  0  0  0  0
  6 11  1  0  0  0  0
 12 13  1  0  0  0  0
 12 17  1  0  0  0  0
 12 18  1  6  0  0  0
 13 14  1  0  0  0  0
 14 15  1  0  0  0  0
 14 19  1  6  0  0  0
 15 16  1  0  0  0  0
 15 21  1  1  0  0  0
 16 17  1  0  0  0  0
 16 20  1  6  0  0  0
 17 22  1  1  0  0  0
 23 21  1  6  0  0  0
 23 24  1  0  0  0  0
 23 32  1  0  0  0  0
 24 25  1  0  0  0  0
 24 29  1  6  0  0  0
 25 26  1  0  0  0  0
 26 27  1  0  0  0  0
 26 31  1  6  0  0  0
 27 28  1  1  0  0  0
 27 32  1  0  0  0  0
 28 30  1  0  0  0  0
M  CHG  5   8   1  18   1  19   1  29   1  30   1
M  END
>  <CHROM.1>
-97.61388415,68.40533702,-146.99491679,173.27199435,-106.72187938,173.47555379
32.57735698,40.80547400,58.44193775,-100.52094647,136.26751565,-172.45765870
-37.46936222,170.30907230,-136.98164149,-159.18654026,-8.99422390,-1.48248353
-8.41245573,2.45167783,-0.12539805,2.61623798

>  <Name>
2tob cryst

>  <RI>
0

>  <Rbt.Current_Directory>
/home/itssahil/PROJECTS/Mol_Feturizer/New_Systems/rnas/2tob

>  <Rbt.Executable>
rbdock ($Id: //depot/dev/client3/rdock/2013.1/src/exe/rbdock.cxx#4 $)

>  <Rbt.Library>
libRbt.so (2013.1, Build901 2013/11/27)

>  <Rbt.Parameter_File>
/export/apps/rDock/src/rDock_2013.1_src/data/scripts/dock_solv.prm

>  <Rbt.Receptor>
prm/blind_docking_40.prm

>  <SCORE>
-5.83947

>  <SCORE.INTER>
-7.12959

>  <SCORE.INTER.CONST>
1

>  <SCORE.INTER.POLAR>
-6.34765

>  <SCORE.INTER.ROT>
6

>  <SCORE.INTER.SOLV>
43.0968

>  <SCORE.INTER.VDW>
-5.55982

>  <SCORE.INTER.norm>
-0.2228

>  <SCORE.INTRA>
-8.68395

>  <SCORE.INTRA.DIHEDRAL>
15.13

>  <SCORE.INTRA.DIHEDRAL.0>
18.4221

>  <SCORE.INTRA.POLAR>
-0.620392

>  <SCORE.INTRA.POLAR.0>
-1.57101

>  <SCORE.INTRA.REPUL>
-0.730195

>  <SCORE.INTRA.REPUL.0>
0.730195

>  <SCORE.INTRA.SOLV>
2.06348

>  <SCORE.INTRA.SOLV.lig_0>
-127.221

>  <SCORE.INTRA.VDW>
-11.5204

>  <SCORE.INTRA.VDW.0>
10.8385

>  <SCORE.INTRA.norm>
-0.271373

>  <SCORE.RESTR>
9.97406

>  <SCORE.RESTR.CAVITY>
9.97406

>  <SCORE.RESTR.norm>
0.311689

>  <SCORE.SYSTEM>
0

>  <SCORE.SYSTEM.CONST>
0

>  <SCORE.SYSTEM.DIHEDRAL>
0

>  <SCORE.SYSTEM.SOLV>
0

>  <SCORE.SYSTEM.norm>
0

>  <SCORE.heavy>
32

>  <SCORE.norm>
-0.182484

>  <RMSD>
7.018

$$$$
2tob cryst
 OpenBabel11021811463D
libRbt.so/2013.1/901 2013/11/27
 32 34  0  0  0  0  0  0  0  0999 V2000
  -11.3020   -2.6746   -7.2859 C   0  0  2  0  0  0  0  0  0  0  0  0
  -10.9283   -3.2759   -5.9347 C   0  0  1  0  0  0  0  0  0  0  0  0
  -10.1744   -4.5857   -6.1663 C   0  0  2  0  0  0  0  0  0  0  0  0
  -10.9951   -5.5408   -7.0431 C   0  0  1  0  0  0  0  0  0  0  0  0
  -11.4411   -4.8247   -8.3226 C   0  0  1  0  0  0  0  0  0  0  0  0
  -12.3838   -5.6345   -9.1977 C   0  0  0  0  0  0  0  0  0  0  0  0
  -10.1063   -2.3671   -5.2073 O   0  0  0  0  0  0  0  0  0  0  0  0
   -9.7292   -5.3506   -4.9586 N   0  3  0  0  0  0  0  0  0  0  0  0
  -10.1941   -6.6684   -7.3736 O   0  0  0  0  0  0  0  0  0  0  0  0
  -12.1157   -3.5955   -7.9875 O   0  0  0  0  0  0  0  0  0  0  0  0
  -11.7079   -6.7454   -9.7780 O   0  0  0  0  0  0  0  0  0  0  0  0
  -10.8505   -0.1083   -8.1950 C   0  0  2  0  0  0  0  0  0  0  0  0
  -10.6728    1.2453   -8.8959 C   0  0  0  0  0  0  0  0  0  0  0  0
   -9.2089    1.5479   -9.2038 C   0  0  1  0  0  0  0  0  0  0  0  0
   -8.6523    0.4155  -10.0557 C   0  0  2  0  0  0  0  0  0  0  0  0
   -8.6799   -0.8875   -9.2528 C   0  0  1  0  0  0  0  0  0  0  0  0
  -10.1268   -1.2698   -8.8943 C   0  0  1  0  0  0  0  0  0  0  0  0
  -12.3073   -0.4492   -8.0654 N   0  3  0  0  0  0  0  0  0  0  0  0
   -9.0664    2.8721   -9.8926 N   0  3  0  0  0  0  0  0  0  0  0  0
   -8.0709   -1.9229  -10.0138 O   0  0  0  0  0  0  0  0  0  0  0  0
   -7.3055    0.7103  -10.4688 O   0  0  0  0  0  0  0  0  0  0  0  0
  -10.1246   -2.3983   -7.9953 O   0  0  0  0  0  0  0  0  0  0  0  0
   -6.4372    0.9635   -9.3989 C   0  0  2  0  0  0  0  0  0  0  0  0
   -5.0246    1.2357   -9.9265 C   0  0  1  0  0  0  0  0  0  0  0  0
   -4.3551   -0.0568  -10.3944 C   0  0  0  0  0  0  0  0  0  0  0  0
   -4.4196   -1.0805   -9.2725 C   0  0  1  0  0  0  0  0  0  0  0  0
   -5.8716   -1.3172   -8.8953 C   0  0  1  0  0  0  0  0  0  0  0  0
   -6.0026   -2.3381   -7.7797 C   0  0  0  0  0  0  0  0  0  0  0  0
   -5.0969    2.1978  -11.0723 N   0  3  0  0  0  0  0  0  0  0  0  0
   -7.1048   -3.2927   -8.1494 N   0  3  0  0  0  0  0  0  0  0  0  0
   -3.8195   -2.3011   -9.6825 O   0  0  0  0  0  0  0  0  0  0  0  0
   -6.4500   -0.0841   -8.4350 O   0  0  0  0  0  0  0  0  0  0  0  0
  1  2  1  0  0  0  0
  1 22  1  6  0  0  0
  1 10  1  0  0  0  0
  2  3  1  0  0  0  0
  2  7  1  6  0  0  0
  3  4  1  0  0  0  0
  3  8  1  1  0  0  0
  4  5  1  0  0  0  0
  4  9  1  6  0  0  0
  5  6  1  1  0  0  0
  5 10  1  0  0  0  0
  6 11  1  0  0  0  0
 12 13  1  0  0  0  0
 12 17  1  0  0  0  0
 12 18  1  6  0  0  0
 13 14  1  0  0  0  0
 14 15  1  0  0  0  0
 14 19  1  6  0  0  0
 15 16  1  0  0  0  0
 15 21  1  1  0  0  0
 16 17  1  0  0  0  0
 16 20  1  6  0  0  0
 17 22  1  1  0  0  0
 23 21  1  6  0  0  0
 23 24  1  0  0  0  0
 23 32  1  0  0  0  0
 24 25  1  0  0  0  0
 24 29  1  6  0  0  0
 25 26  1  0  0  0  0
 26 27  1  0  0  0  0
 26 31  1  6  0  0  0
 27 28  1  1  0  0  0
 27 32  1  0  0  0  0
 28 30  1  0  0  0  0
M  CHG  5   8   1  18   1  19   1  29   1  30   1
M  END
>  <CHROM.1>
-148.10435730,66.74051921,-14.35143094,55.43210855,-68.71127251,-34.66841084
48.83600882,74.95132548,56.48361837,-139.12206856,42.36842388,178.73530565
-42.67208075,172.65754332,-134.92460631,-70.26407576,-8.77270242,-1.83905297
-8.53413190,2.28021646,-0.16710878,2.85226131

>  <Name>
2tob cryst

>  <RI>
2.04895e+07

>  <Rbt.Current_Directory>
/home/itssahil/PROJECTS/Mol_Feturizer/New_Systems/rnas/2tob

>  <Rbt.Executable>
rbdock ($Id: //depot/dev/client3/rdock/2013.1/src/exe/rbdock.cxx#4 $)

>  <Rbt.Library>
libRbt.so (2013.1, Build901 2013/11/27)

>  <Rbt.Parameter_File>
/export/apps/rDock/src/rDock_2013.1_src/data/scripts/dock_solv.prm

>  <Rbt.Receptor>
prm/blind_docking_20.prm

>  <SCORE>
-22.5814

>  <SCORE.INTER>
-27.9916

>  <SCORE.INTER.CONST>
1

>  <SCORE.INTER.POLAR>
-6.8687

>  <SCORE.INTER.ROT>
6

>  <SCORE.INTER.SOLV>
42.0912

>  <SCORE.INTER.VDW>
-17.3958

>  <SCORE.INTER.norm>
-0.874738

>  <SCORE.INTRA>
2.9032

>  <SCORE.INTRA.DIHEDRAL>
5.66368

>  <SCORE.INTRA.DIHEDRAL.0>
18.4221

>  <SCORE.INTRA.POLAR>
-0.298872

>  <SCORE.INTRA.POLAR.0>
-1.57101

>  <SCORE.INTRA.REPUL>
-0.730195

>  <SCORE.INTRA.REPUL.0>
0.730195

>  <SCORE.INTRA.SOLV>
1.36118

>  <SCORE.INTRA.SOLV.lig_0>
-127.221

>  <SCORE.INTRA.VDW>
4.05791

>  <SCORE.INTRA.VDW.0>
10.8385

>  <SCORE.INTRA.norm>
0.090725

>  <SCORE.RESTR>
2.50698

>  <SCORE.RESTR.CAVITY>
2.50698

>  <SCORE.RESTR.norm>
0.0783431

>  <SCORE.SYSTEM>
0

>  <SCORE.SYSTEM.CONST>
0

>  <SCORE.SYSTEM.DIHEDRAL>
0

>  <SCORE.SYSTEM.SOLV>
0

>  <SCORE.SYSTEM.norm>
0

>  <SCORE.heavy>
32

>  <SCORE.norm>
-0.70567

>  <RMSD>
7.029

$$$$
2tob cryst
 OpenBabel11021811463D
libRbt.so/2013.1/901 2013/11/27
 32 34  0  0  0  0  0  0  0  0999 V2000
   -2.8052    2.8048  -10.7434 C   0  0  2  0  0  0  0  0  0  0  0  0
   -2.4295    4.2358  -10.3717 C   0  0  1  0  0  0  0  0  0  0  0  0
   -2.7074    5.1478  -11.5670 C   0  0  2  0  0  0  0  0  0  0  0  0
   -1.9814    4.6420  -12.8206 C   0  0  1  0  0  0  0  0  0  0  0  0
   -2.3087    3.1632  -13.0547 C   0  0  1  0  0  0  0  0  0  0  0  0
   -1.5274    2.5205  -14.1891 C   0  0  0  0  0  0  0  0  0  0  0  0
   -3.1946    4.6644   -9.2484 O   0  0  0  0  0  0  0  0  0  0  0  0
   -2.3885    6.6029  -11.4159 N   0  3  0  0  0  0  0  0  0  0  0  0
   -2.3994    5.4134  -13.9398 O   0  0  0  0  0  0  0  0  0  0  0  0
   -2.0338    2.4044  -11.8602 O   0  0  0  0  0  0  0  0  0  0  0  0
   -0.1317    2.5195  -13.9063 O   0  0  0  0  0  0  0  0  0  0  0  0
   -3.8493    0.3912  -10.7451 C   0  0  2  0  0  0  0  0  0  0  0  0
   -4.4013   -0.9294  -10.1915 C   0  0  0  0  0  0  0  0  0  0  0  0
   -5.1334   -0.7383   -8.8661 C   0  0  1  0  0  0  0  0  0  0  0  0
   -6.2505    0.2747   -9.0751 C   0  0  2  0  0  0  0  0  0  0  0  0
   -5.6461    1.6299   -9.4511 C   0  0  1  0  0  0  0  0  0  0  0  0
   -4.8817    1.5290  -10.7829 C   0  0  1  0  0  0  0  0  0  0  0  0
   -3.2911    0.1936  -12.1252 N   0  3  0  0  0  0  0  0  0  0  0  0
   -5.6662   -2.0424   -8.3526 N   0  3  0  0  0  0  0  0  0  0  0  0
   -6.6835    2.5973   -9.5505 O   0  0  0  0  0  0  0  0  0  0  0  0
   -7.0438    0.4041   -7.8811 O   0  0  0  0  0  0  0  0  0  0  0  0
   -4.1759    2.7619  -11.0349 O   0  0  0  0  0  0  0  0  0  0  0  0
   -8.3958    0.0915   -8.0736 C   0  0  2  0  0  0  0  0  0  0  0  0
   -9.2714    1.0138   -7.2188 C   0  0  1  0  0  0  0  0  0  0  0  0
   -9.2077    0.6185   -5.7433 C   0  0  0  0  0  0  0  0  0  0  0  0
   -9.5392   -0.8594   -5.6133 C   0  0  1  0  0  0  0  0  0  0  0  0
   -8.5560   -1.6665   -6.4431 C   0  0  1  0  0  0  0  0  0  0  0  0
   -8.8326   -3.1561   -6.3493 C   0  0  0  0  0  0  0  0  0  0  0  0
   -8.8037    2.4285   -7.3722 N   0  3  0  0  0  0  0  0  0  0  0  0
   -8.3097   -3.6440   -5.0258 N   0  3  0  0  0  0  0  0  0  0  0  0
   -9.4719   -1.2629   -4.2529 O   0  0  0  0  0  0  0  0  0  0  0  0
   -8.6720   -1.2825   -7.8237 O   0  0  0  0  0  0  0  0  0  0  0  0
  1  2  1  0  0  0  0
  1 22  1  6  0  0  0
  1 10  1  0  0  0  0
  2  3  1  0  0  0  0
  2  7  1  1  0  0  0
  3  4  1  0  0  0  0
  3  8  1  1  0  0  0
  4  5  1  0  0  0  0
  4  9  1  6  0  0  0
  5  6  1  6  0  0  0
  5 10  1  0  0  0  0
  6 11  1  0  0  0  0
 12 13  1  0  0  0  0
 12 17  1  0  0  0  0
 12 18  1  6  0  0  0
 13 14  1  0  0  0  0
 14 15  1  0  0  0  0
 14 19  1  6  0  0  0
 15 16  1  0  0  0  0
 15 21  1  1  0  0  0
 16 17  1  0  0  0  0
 16 20  1  6  0  0  0
 17 22  1  1  0  0  0
 23 21  1  1  0  0  0
 23 24  1  0  0  0  0
 23 32  1  0  0  0  0
 24 25  1  0  0  0  0
 24 29  1  1  0  0  0
 25 26  1  0  0  0  0
 26 27  1  0  0  0  0
 26 31  1  1  0  0  0
 27 28  1  6  0  0  0
 27 32  1  0  0  0  0
 28 30  1  0  0  0  0
M  CHG  5   8   1  18   1  19   1  29   1  30   1
M  END
>  <CHROM.1>
-150.64016664,178.02202761,-175.34537981,-62.24483154,63.06733997,56.06906533
-25.38797742,-61.15799269,-120.73140081,-75.88671796,-21.23532996,-143.82515377
105.34547429,63.03268687,-77.06727850,168.25996605,-5.30054850,1.34544152
-9.52997355,-0.53579660,-0.74448765,3.10933002

>  <Name>
2tob cryst

>  <RI>
2.10184e+07

>  <Rbt.Current_Directory>
/home/itssahil/PROJECTS/Mol_Feturizer/New_Systems/rnas/2tob

>  <Rbt.Executable>
rbdock ($Id: //depot/dev/client3/rdock/2013.1/src/exe/rbdock.cxx#4 $)

>  <Rbt.Library>
libRbt.so (2013.1, Build901 2013/11/27)

>  <Rbt.Parameter_File>
/export/apps/rDock/src/rDock_2013.1_src/data/scripts/dock_solv.prm

>  <Rbt.Receptor>
prm/pocket_docking_7.prm

>  <SCORE>
-56.998

>  <SCORE.INTER>
-42.3127

>  <SCORE.INTER.CONST>
1

>  <SCORE.INTER.POLAR>
-4.85256

>  <SCORE.INTER.ROT>
6

>  <SCORE.INTER.SOLV>
38.7954

>  <SCORE.INTER.VDW>
-32.5651

>  <SCORE.INTER.norm>
-1.32227

>  <SCORE.INTRA>
-14.6853

>  <SCORE.INTRA.DIHEDRAL>
10.2941

>  <SCORE.INTRA.DIHEDRAL.0>
18.4221

>  <SCORE.INTRA.POLAR>
-1.38663

>  <SCORE.INTRA.POLAR.0>
-1.57101

>  <SCORE.INTRA.REPUL>
-0.730195

>  <SCORE.INTRA.REPUL.0>
0.730195

>  <SCORE.INTRA.SOLV>
0.0844743

>  <SCORE.INTRA.SOLV.lig_0>
-127.221

>  <SCORE.INTRA.VDW>
-11.509

>  <SCORE.INTRA.VDW.0>
10.8385

>  <SCORE.INTRA.norm>
-0.458914

>  <SCORE.RESTR>
0

>  <SCORE.RESTR.CAVITY>
0

>  <SCORE.RESTR.norm>
0

>  <SCORE.SYSTEM>
0

>  <SCORE.SYSTEM.CONST>
0

>  <SCORE.SYSTEM.DIHEDRAL>
0

>  <SCORE.SYSTEM.SOLV>
0

>  <SCORE.SYSTEM.norm>
0

>  <SCORE.heavy>
32

>  <SCORE.norm>
-1.78119

>  <RMSD>
7.029

$$$$
2tob cryst
 OpenBabel11021811463D
libRbt.so/2013.1/901 2013/11/27
 32 34  0  0  0  0  0  0  0  0999 V2000
   -9.1865   -2.6978   -7.0689 C   0  0  2  0  0  0  0  0  0  0  0  0
   -8.6091   -4.0990   -7.2420 C   0  0  1  0  0  0  0  0  0  0  0  0
   -9.6937   -5.1261   -6.9157 C   0  0  2  0  0  0  0  0  0  0  0  0
  -10.2727   -4.8832   -5.5156 C   0  0  1  0  0  0  0  0  0  0  0  0
  -10.7132   -3.4219   -5.3771 C   0  0  1  0  0  0  0  0  0  0  0  0
  -11.1691   -3.0347   -3.9798 C   0  0  0  0  0  0  0  0  0  0  0  0
   -8.1604   -4.2791   -8.5826 O   0  0  0  0  0  0  0  0  0  0  0  0
   -9.3252   -6.5744   -7.0077 N   0  3  0  0  0  0  0  0  0  0  0  0
  -11.3867   -5.7453   -5.3201 O   0  0  0  0  0  0  0  0  0  0  0  0
   -9.6252   -2.5453   -5.7321 O   0  0  0  0  0  0  0  0  0  0  0  0
  -11.7651   -1.7414   -3.9813 O   0  0  0  0  0  0  0  0  0  0  0  0
  -10.9172   -0.2294   -8.1861 C   0  0  2  0  0  0  0  0  0  0  0  0
  -10.6932    1.1196   -8.8825 C   0  0  0  0  0  0  0  0  0  0  0  0
   -9.2162    1.3890   -9.1569 C   0  0  1  0  0  0  0  0  0  0  0  0
   -8.6660    0.2440   -9.9961 C   0  0  2  0  0  0  0  0  0  0  0  0
   -8.7413   -1.0577   -9.1943 C   0  0  1  0  0  0  0  0  0  0  0  0
  -10.2042   -1.4072   -8.8690 C   0  0  1  0  0  0  0  0  0  0  0  0
  -12.3839   -0.5374   -8.0897 N   0  3  0  0  0  0  0  0  0  0  0  0
   -9.0281    2.7094   -9.8420 N   0  3  0  0  0  0  0  0  0  0  0  0
   -8.1385   -2.1068   -9.9414 O   0  0  0  0  0  0  0  0  0  0  0  0
   -7.3038    0.5083  -10.3783 O   0  0  0  0  0  0  0  0  0  0  0  0
  -10.2480   -2.5352   -7.9703 O   0  0  0  0  0  0  0  0  0  0  0  0
   -6.4486    0.7132   -9.2877 C   0  0  2  0  0  0  0  0  0  0  0  0
   -5.0665    1.1512   -9.7835 C   0  0  1  0  0  0  0  0  0  0  0  0
   -4.3017   -0.0266  -10.3879 C   0  0  0  0  0  0  0  0  0  0  0  0
   -4.2756   -1.1667   -9.3827 C   0  0  1  0  0  0  0  0  0  0  0  0
   -5.7012   -1.5565   -9.0326 C   0  0  1  0  0  0  0  0  0  0  0  0
   -5.7416   -2.6983   -8.0333 C   0  0  0  0  0  0  0  0  0  0  0  0
   -5.2243    2.2218  -10.8190 N   0  3  0  0  0  0  0  0  0  0  0  0
   -6.3630   -2.1836   -6.7636 N   0  3  0  0  0  0  0  0  0  0  0  0
   -3.5852   -2.2850   -9.9218 O   0  0  0  0  0  0  0  0  0  0  0  0
   -6.3706   -0.4295   -8.4421 O   0  0  0  0  0  0  0  0  0  0  0  0
  1  2  1  0  0  0  0
  1 22  1  6  0  0  0
  1 10  1  0  0  0  0
  2  3  1  0  0  0  0
  2  7  1  6  0  0  0
  3  4  1  0  0  0  0
  3  8  1  1  0  0  0
  4  5  1  0  0  0  0
  4  9  1  6  0  0  0
  5  6  1  1  0  0  0
  5 10  1  0  0  0  0
  6 11  1  0  0  0  0
 12 13  1  0  0  0  0
 12 17  1  0  0  0  0
 12 18  1  6  0  0  0
 13 14  1  0  0  0  0
 14 15  1  0  0  0  0
 14 19  1  6  0  0  0
 15 16  1  0  0  0  0
 15 21  1  1  0  0  0
 16 17  1  0  0  0  0
 16 20  1  6  0  0  0
 17 22  1  1  0  0  0
 23 21  1  6  0  0  0
 23 24  1  0  0  0  0
 23 32  1  0  0  0  0
 24 25  1  0  0  0  0
 24 29  1  6  0  0  0
 25 26  1  0  0  0  0
 26 27  1  0  0  0  0
 26 31  1  6  0  0  0
 27 28  1  1  0  0  0
 27 32  1  0  0  0  0
 28 30  1  0  0  0  0
M  CHG  5   8   1  18   1  19   1  29   1  30   1
M  END
>  <CHROM.1>
-125.49349225,-170.39553036,-53.00368440,-174.31450774,-170.39170006,-173.37541050
56.74240191,40.23690584,57.80525278,-161.42901671,-90.69220090,-173.24382174
91.31010042,169.07093994,115.47691532,27.11566202,-8.40352672,-1.65854714
-8.08408977,-2.29580951,0.37145776,-0.44254851

>  <Name>
2tob cryst

>  <RI>
2.04895e+07

>  <Rbt.Current_Directory>
/home/itssahil/PROJECTS/Mol_Feturizer/New_Systems/rnas/2tob

>  <Rbt.Executable>
rbdock ($Id: //depot/dev/client3/rdock/2013.1/src/exe/rbdock.cxx#4 $)

>  <Rbt.Library>
libRbt.so (2013.1, Build901 2013/11/27)

>  <Rbt.Parameter_File>
/export/apps/rDock/src/rDock_2013.1_src/data/scripts/dock_solv.prm

>  <Rbt.Receptor>
prm/blind_docking_20.prm

>  <SCORE>
-25.1219

>  <SCORE.INTER>
-21.3228

>  <SCORE.INTER.CONST>
1

>  <SCORE.INTER.POLAR>
-7.38389

>  <SCORE.INTER.ROT>
6

>  <SCORE.INTER.SOLV>
48.3867

>  <SCORE.INTER.VDW>
-13.3312

>  <SCORE.INTER.norm>
-0.666338

>  <SCORE.INTRA>
-7.95196

>  <SCORE.INTRA.DIHEDRAL>
6.34236

>  <SCORE.INTRA.DIHEDRAL.0>
18.4221

>  <SCORE.INTRA.POLAR>
0.0857171

>  <SCORE.INTRA.POLAR.0>
-1.57101

>  <SCORE.INTRA.REPUL>
-0.730195

>  <SCORE.INTRA.REPUL.0>
0.730195

>  <SCORE.INTRA.SOLV>
0.282013

>  <SCORE.INTRA.SOLV.lig_0>
-127.221

>  <SCORE.INTRA.VDW>
-7.90461

>  <SCORE.INTRA.VDW.0>
10.8385

>  <SCORE.INTRA.norm>
-0.248499

>  <SCORE.RESTR>
4.15286

>  <SCORE.RESTR.CAVITY>
4.15286

>  <SCORE.RESTR.norm>
0.129777

>  <SCORE.SYSTEM>
0

>  <SCORE.SYSTEM.CONST>
0

>  <SCORE.SYSTEM.DIHEDRAL>
0

>  <SCORE.SYSTEM.SOLV>
0

>  <SCORE.SYSTEM.norm>
0

>  <SCORE.heavy>
32

>  <SCORE.norm>
-0.78506

>  <RMSD>
7.042

$$$$
2tob cryst
 OpenBabel11021811463D
libRbt.so/2013.1/901 2013/11/27
 32 34  0  0  0  0  0  0  0  0999 V2000
  -11.2802   -3.2193   -8.8166 C   0  0  2  0  0  0  0  0  0  0  0  0
  -12.7762   -3.1763   -8.5211 C   0  0  1  0  0  0  0  0  0  0  0  0
  -12.9834   -3.2056   -7.0065 C   0  0  2  0  0  0  0  0  0  0  0  0
  -12.2820   -4.4194   -6.3824 C   0  0  1  0  0  0  0  0  0  0  0  0
  -10.8164   -4.4640   -6.8284 C   0  0  1  0  0  0  0  0  0  0  0  0
  -10.0641   -5.7079   -6.3846 C   0  0  0  0  0  0  0  0  0  0  0  0
  -13.3463   -1.9885   -9.0641 O   0  0  0  0  0  0  0  0  0  0  0  0
  -14.3925   -3.1882   -6.5006 N   0  3  0  0  0  0  0  0  0  0  0  0
  -12.3541   -4.3171   -4.9659 O   0  0  0  0  0  0  0  0  0  0  0  0
  -10.7389   -4.4055   -8.2667 O   0  0  0  0  0  0  0  0  0  0  0  0
   -8.8949   -5.9016   -7.1740 O   0  0  0  0  0  0  0  0  0  0  0  0
  -11.0311    0.2967   -8.4121 C   0  0  2  0  0  0  0  0  0  0  0  0
  -10.6083    1.6244   -9.0550 C   0  0  0  0  0  0  0  0  0  0  0  0
   -9.1004    1.7034   -9.2776 C   0  0  1  0  0  0  0  0  0  0  0  0
   -8.6788    0.5213  -10.1396 C   0  0  2  0  0  0  0  0  0  0  0  0
   -8.9515   -0.7826   -9.3855 C   0  0  1  0  0  0  0  0  0  0  0  0
  -10.4575   -0.9442   -9.1144 C   0  0  1  0  0  0  0  0  0  0  0  0
  -12.5280    0.1836   -8.3683 N   0  3  0  0  0  0  0  0  0  0  0  0
   -8.7174    3.0072   -9.9113 N   0  3  0  0  0  0  0  0  0  0  0  0
   -8.4681   -1.8793  -10.1507 O   0  0  0  0  0  0  0  0  0  0  0  0
   -7.2818    0.6137  -10.4735 O   0  0  0  0  0  0  0  0  0  0  0  0
  -10.6793   -2.0831   -8.2566 O   0  0  0  0  0  0  0  0  0  0  0  0
   -6.4572    0.8389   -9.3635 C   0  0  2  0  0  0  0  0  0  0  0  0
   -5.0378    1.1806   -9.8287 C   0  0  1  0  0  0  0  0  0  0  0  0
   -4.3121   -0.0654  -10.3371 C   0  0  0  0  0  0  0  0  0  0  0  0
   -4.3798   -1.1461   -9.2701 C   0  0  1  0  0  0  0  0  0  0  0  0
   -5.8349   -1.4459   -8.9546 C   0  0  1  0  0  0  0  0  0  0  0  0
   -5.9688   -2.5255   -7.8960 C   0  0  0  0  0  0  0  0  0  0  0  0
   -5.1040    2.1968  -10.9272 N   0  3  0  0  0  0  0  0  0  0  0  0
   -7.3822   -2.5001   -7.3816 N   0  3  0  0  0  0  0  0  0  0  0  0
   -3.7276   -2.3254   -9.7195 O   0  0  0  0  0  0  0  0  0  0  0  0
   -6.4674   -0.2560   -8.4537 O   0  0  0  0  0  0  0  0  0  0  0  0
  1  2  1  0  0  0  0
  1 22  1  1  0  0  0
  1 10  1  0  0  0  0
  2  3  1  0  0  0  0
  2  7  1  1  0  0  0
  3  4  1  0  0  0  0
  3  8  1  6  0  0  0
  4  5  1  0  0  0  0
  4  9  1  1  0  0  0
  5  6  1  6  0  0  0
  5 10  1  0  0  0  0
  6 11  1  0  0  0  0
 12 13  1  0  0  0  0
 12 17  1  0  0  0  0
 12 18  1  6  0  0  0
 13 14  1  0  0  0  0
 14 15  1  0  0  0  0
 14 19  1  6  0  0  0
 15 16  1  0  0  0  0
 15 21  1  1  0  0  0
 16 17  1  0  0  0  0
 16 20  1  6  0  0  0
 17 22  1  1  0  0  0
 23 21  1  6  0  0  0
 23 24  1  0  0  0  0
 23 32  1  0  0  0  0
 24 25  1  0  0  0  0
 24 29  1  6  0  0  0
 25 26  1  0  0  0  0
 26 27  1  0  0  0  0
 26 31  1  6  0  0  0
 27 28  1  1  0  0  0
 27 32  1  0  0  0  0
 28 30  1  0  0  0  0
M  CHG  5   8   1  18   1  19   1  29   1  30   1
M  END
>  <CHROM.1>
-96.42933618,-177.53307294,-171.45361174,-58.40955741,160.73539277,-66.10417336
40.03759148,32.40270353,50.22683721,-162.94375465,129.31032784,-169.56952318
-38.36191259,170.41604695,165.00645820,73.45508542,-9.11918475,-1.50874444
-8.57225915,-2.51456801,0.14698316,-0.39808136

>  <Name>
2tob cryst

>  <RI>
0

>  <Rbt.Current_Directory>
/home/itssahil/PROJECTS/Mol_Feturizer/New_Systems/rnas/2tob

>  <Rbt.Executable>
rbdock ($Id: //depot/dev/client3/rdock/2013.1/src/exe/rbdock.cxx#4 $)

>  <Rbt.Library>
libRbt.so (2013.1, Build901 2013/11/27)

>  <Rbt.Parameter_File>
/export/apps/rDock/src/rDock_2013.1_src/data/scripts/dock_solv.prm

>  <Rbt.Receptor>
prm/blind_docking_80.prm

>  <SCORE>
-5.33404

>  <SCORE.INTER>
0.470355

>  <SCORE.INTER.CONST>
1

>  <SCORE.INTER.POLAR>
-6.54822

>  <SCORE.INTER.ROT>
6

>  <SCORE.INTER.SOLV>
40.2433

>  <SCORE.INTER.VDW>
1.12655

>  <SCORE.INTER.norm>
0.0146986

>  <SCORE.INTRA>
-10.8903

>  <SCORE.INTRA.DIHEDRAL>
2.4163

>  <SCORE.INTRA.DIHEDRAL.0>
18.4221

>  <SCORE.INTRA.POLAR>
0.601747

>  <SCORE.INTRA.POLAR.0>
-1.57101

>  <SCORE.INTRA.REPUL>
-0.730195

>  <SCORE.INTRA.REPUL.0>
0.730195

>  <SCORE.INTRA.SOLV>
4.17109

>  <SCORE.INTRA.SOLV.lig_0>
-127.221

>  <SCORE.INTRA.VDW>
-12.579

>  <SCORE.INTRA.VDW.0>
10.8385

>  <SCORE.INTRA.norm>
-0.340323

>  <SCORE.RESTR>
5.08595

>  <SCORE.RESTR.CAVITY>
5.08595

>  <SCORE.RESTR.norm>
0.158936

>  <SCORE.SYSTEM>
0

>  <SCORE.SYSTEM.CONST>
0

>  <SCORE.SYSTEM.DIHEDRAL>
0

>  <SCORE.SYSTEM.SOLV>
0

>  <SCORE.SYSTEM.norm>
0

>  <SCORE.heavy>
32

>  <SCORE.norm>
-0.166689

>  <RMSD>
7.046

$$$$
2tob cryst
 OpenBabel11021811463D
libRbt.so/2013.1/901 2013/11/27
 32 34  0  0  0  0  0  0  0  0999 V2000
   -2.7108    2.7599  -10.6118 C   0  0  2  0  0  0  0  0  0  0  0  0
   -2.3269    4.1889  -10.2410 C   0  0  1  0  0  0  0  0  0  0  0  0
   -2.5349    5.0899  -11.4586 C   0  0  2  0  0  0  0  0  0  0  0  0
   -1.7625    4.5556  -12.6721 C   0  0  1  0  0  0  0  0  0  0  0  0
   -2.1051    3.0796  -12.9026 C   0  0  1  0  0  0  0  0  0  0  0  0
   -1.2852    2.4091  -13.9927 C   0  0  0  0  0  0  0  0  0  0  0  0
   -3.1338    4.6451   -9.1586 O   0  0  0  0  0  0  0  0  0  0  0  0
   -2.1973    6.5412  -11.3111 N   0  3  0  0  0  0  0  0  0  0  0  0
   -2.1163    5.3194  -13.8182 O   0  0  0  0  0  0  0  0  0  0  0  0
   -1.8974    2.3319  -11.6878 O   0  0  0  0  0  0  0  0  0  0  0  0
    0.0679    2.2449  -13.5808 O   0  0  0  0  0  0  0  0  0  0  0  0
   -3.8046    0.3570  -10.6827 C   0  0  2  0  0  0  0  0  0  0  0  0
   -4.3951   -0.9515  -10.1401 C   0  0  0  0  0  0  0  0  0  0  0  0
   -5.1336   -0.7476   -8.8201 C   0  0  1  0  0  0  0  0  0  0  0  0
   -6.2225    0.2949   -9.0339 C   0  0  2  0  0  0  0  0  0  0  0  0
   -5.5801    1.6357   -9.3983 C   0  0  1  0  0  0  0  0  0  0  0  0
   -4.8071    1.5211  -10.7239 C   0  0  1  0  0  0  0  0  0  0  0  0
   -3.2396    0.1513  -12.0588 N   0  3  0  0  0  0  0  0  0  0  0  0
   -5.7041   -2.0398   -8.3173 N   0  3  0  0  0  0  0  0  0  0  0  0
   -6.5915    2.6299   -9.5021 O   0  0  0  0  0  0  0  0  0  0  0  0
   -7.0225    0.4392   -7.8462 O   0  0  0  0  0  0  0  0  0  0  0  0
   -4.0676    2.7366  -10.9640 O   0  0  0  0  0  0  0  0  0  0  0  0
   -8.2621   -0.2083   -7.9271 C   0  0  2  0  0  0  0  0  0  0  0  0
   -9.3775    0.7422   -7.4795 C   0  0  1  0  0  0  0  0  0  0  0  0
   -9.3706    0.9200   -5.9610 C   0  0  0  0  0  0  0  0  0  0  0  0
   -9.4119   -0.4499   -5.3032 C   0  0  1  0  0  0  0  0  0  0  0  0
   -8.2167   -1.2634   -5.7684 C   0  0  1  0  0  0  0  0  0  0  0  0
   -8.1988   -2.6448   -5.1394 C   0  0  0  0  0  0  0  0  0  0  0  0
   -9.1886    2.0761   -8.1342 N   0  3  0  0  0  0  0  0  0  0  0  0
   -9.3697   -3.4182   -5.6815 N   0  3  0  0  0  0  0  0  0  0  0  0
   -9.3894   -0.3196   -3.8888 O   0  0  0  0  0  0  0  0  0  0  0  0
   -8.2810   -1.4292   -7.1951 O   0  0  0  0  0  0  0  0  0  0  0  0
  1  2  1  0  0  0  0
  1 22  1  6  0  0  0
  1 10  1  0  0  0  0
  2  3  1  0  0  0  0
  2  7  1  1  0  0  0
  3  4  1  0  0  0  0
  3  8  1  1  0  0  0
  4  5  1  0  0  0  0
  4  9  1  6  0  0  0
  5  6  1  6  0  0  0
  5 10  1  0  0  0  0
  6 11  1  0  0  0  0
 12 13  1  0  0  0  0
 12 17  1  0  0  0  0
 12 18  1  6  0  0  0
 13 14  1  0  0  0  0
 14 15  1  0  0  0  0
 14 19  1  6  0  0  0
 15 16  1  0  0  0  0
 15 21  1  1  0  0  0
 16 17  1  0  0  0  0
 16 20  1  6  0  0  0
 17 22  1  1  0  0  0
 23 21  1  1  0  0  0
 23 24  1  0  0  0  0
 23 32  1  0  0  0  0
 24 25  1  0  0  0  0
 24 29  1  6  0  0  0
 25 26  1  0  0  0  0
 26 27  1  0  0  0  0
 26 31  1  1  0  0  0
 27 28  1  1  0  0  0
 27 32  1  0  0  0  0
 28 30  1  0  0  0  0
M  CHG  5   8   1  18   1  19   1  29   1  30   1
M  END
>  <CHROM.1>
-150.38911832,-39.45799135,66.12691563,-61.44179446,69.97034817,51.43035260
-23.10690695,78.36481031,-102.43882409,-81.90155115,-23.69015347,-131.57137746
-35.54314649,68.21099675,67.28980607,-58.61226100,-5.24031452,1.36555760
-9.42702045,0.49170404,0.73040614,-0.02316847

>  <Name>
2tob cryst

>  <RI>
3.75586e+07

>  <Rbt.Current_Directory>
/home/itssahil/PROJECTS/Mol_Feturizer/New_Systems/rnas/2tob

>  <Rbt.Executable>
rbdock ($Id: //depot/dev/client3/rdock/2013.1/src/exe/rbdock.cxx#4 $)

>  <Rbt.Library>
libRbt.so (2013.1, Build901 2013/11/27)

>  <Rbt.Parameter_File>
/export/apps/rDock/src/rDock_2013.1_src/data/scripts/dock_solv.prm

>  <Rbt.Receptor>
prm/pocket_docking_8.prm

>  <SCORE>
-51.732

>  <SCORE.INTER>
-38.5172

>  <SCORE.INTER.CONST>
1

>  <SCORE.INTER.POLAR>
-5.1078

>  <SCORE.INTER.ROT>
6

>  <SCORE.INTER.SOLV>
32.4385

>  <SCORE.INTER.VDW>
-27.065

>  <SCORE.INTER.norm>
-1.20366

>  <SCORE.INTRA>
-13.2205

>  <SCORE.INTRA.DIHEDRAL>
12.0312

>  <SCORE.INTRA.DIHEDRAL.0>
18.4221

>  <SCORE.INTRA.POLAR>
-1.23047

>  <SCORE.INTRA.POLAR.0>
-1.57101

>  <SCORE.INTRA.REPUL>
-0.730195

>  <SCORE.INTRA.REPUL.0>
0.730195

>  <SCORE.INTRA.SOLV>
0.246784

>  <SCORE.INTRA.SOLV.lig_0>
-127.221

>  <SCORE.INTRA.VDW>
-11.5249

>  <SCORE.INTRA.VDW.0>
10.8385

>  <SCORE.INTRA.norm>
-0.413141

>  <SCORE.RESTR>
0.00568452

>  <SCORE.RESTR.CAVITY>
0.00568452

>  <SCORE.RESTR.norm>
0.000177641

>  <SCORE.SYSTEM>
0

>  <SCORE.SYSTEM.CONST>
0

>  <SCORE.SYSTEM.DIHEDRAL>
0

>  <SCORE.SYSTEM.SOLV>
0

>  <SCORE.SYSTEM.norm>
0

>  <SCORE.heavy>
32

>  <SCORE.norm>
-1.61663

>  <RMSD>
7.084

$$$$
2tob cryst
 OpenBabel11021811463D
libRbt.so/2013.1/901 2013/11/27
 32 34  0  0  0  0  0  0  0  0999 V2000
  -11.6899   -2.3904   -7.5263 C   0  0  2  0  0  0  0  0  0  0  0  0
  -11.5589   -3.3767   -6.3699 C   0  0  1  0  0  0  0  0  0  0  0  0
  -10.9458   -4.6758   -6.8934 C   0  0  2  0  0  0  0  0  0  0  0  0
  -11.7627   -5.2312   -8.0677 C   0  0  1  0  0  0  0  0  0  0  0  0
  -11.9598   -4.1437   -9.1295 C   0  0  1  0  0  0  0  0  0  0  0  0
  -12.8795   -4.5428  -10.2718 C   0  0  0  0  0  0  0  0  0  0  0  0
  -10.7281   -2.8261   -5.3514 O   0  0  0  0  0  0  0  0  0  0  0  0
  -10.7465   -5.7906   -5.9140 N   0  3  0  0  0  0  0  0  0  0  0  0
  -11.0692   -6.3376   -8.6309 O   0  0  0  0  0  0  0  0  0  0  0  0
  -12.5171   -2.9606   -8.5229 O   0  0  0  0  0  0  0  0  0  0  0  0
  -12.5212   -5.8206  -10.7882 O   0  0  0  0  0  0  0  0  0  0  0  0
  -10.9643    0.2021   -8.3944 C   0  0  2  0  0  0  0  0  0  0  0  0
  -10.6486    1.5010   -9.1482 C   0  0  0  0  0  0  0  0  0  0  0  0
   -9.1501    1.6919   -9.3665 C   0  0  1  0  0  0  0  0  0  0  0  0
   -8.6154    0.4810  -10.1187 C   0  0  2  0  0  0  0  0  0  0  0  0
   -8.7852   -0.7715   -9.2552 C   0  0  1  0  0  0  0  0  0  0  0  0
  -10.2754   -1.0401   -8.9813 C   0  0  1  0  0  0  0  0  0  0  0  0
  -12.4462   -0.0372   -8.3512 N   0  3  0  0  0  0  0  0  0  0  0  0
   -8.8722    2.9643  -10.1093 N   0  3  0  0  0  0  0  0  0  0  0  0
   -8.1977   -1.8839   -9.9180 O   0  0  0  0  0  0  0  0  0  0  0  0
   -7.2269    0.6658  -10.4497 O   0  0  0  0  0  0  0  0  0  0  0  0
  -10.4102   -2.1153   -8.0287 O   0  0  0  0  0  0  0  0  0  0  0  0
   -6.4078    0.8585   -9.3296 C   0  0  2  0  0  0  0  0  0  0  0  0
   -4.9785    1.1811   -9.7778 C   0  0  1  0  0  0  0  0  0  0  0  0
   -4.2714   -0.0699  -10.2997 C   0  0  0  0  0  0  0  0  0  0  0  0
   -4.3679   -1.1657   -9.2505 C   0  0  1  0  0  0  0  0  0  0  0  0
   -5.8309   -1.4435   -8.9517 C   0  0  1  0  0  0  0  0  0  0  0  0
   -5.9935   -2.5369   -7.9114 C   0  0  0  0  0  0  0  0  0  0  0  0
   -5.0168    2.2154  -10.8606 N   0  3  0  0  0  0  0  0  0  0  0  0
   -7.0433   -3.4953   -8.4037 N   0  3  0  0  0  0  0  0  0  0  0  0
   -3.7337   -2.3497   -9.7130 O   0  0  0  0  0  0  0  0  0  0  0  0
   -6.4457   -0.2501   -8.4373 O   0  0  0  0  0  0  0  0  0  0  0  0
  1  2  1  0  0  0  0
  1 22  1  6  0  0  0
  1 10  1  0  0  0  0
  2  3  1  0  0  0  0
  2  7  1  1  0  0  0
  3  4  1  0  0  0  0
  3  8  1  1  0  0  0
  4  5  1  0  0  0  0
  4  9  1  6  0  0  0
  5  6  1  6  0  0  0
  5 10  1  0  0  0  0
  6 11  1  0  0  0  0
 12 13  1  0  0  0  0
 12 17  1  0  0  0  0
 12 18  1  6  0  0  0
 13 14  1  0  0  0  0
 14 15  1  0  0  0  0
 14 19  1  6  0  0  0
 15 16  1  0  0  0  0
 15 21  1  1  0  0  0
 16 17  1  0  0  0  0
 16 20  1  6  0  0  0
 17 22  1  1  0  0  0
 23 21  1  6  0  0  0
 23 24  1  0  0  0  0
 23 32  1  0  0  0  0
 24 25  1  0  0  0  0
 24 29  1  6  0  0  0
 25 26  1  0  0  0  0
 26 27  1  0  0  0  0
 26 31  1  6  0  0  0
 27 28  1  1  0  0  0
 27 32  1  0  0  0  0
 28 30  1  0  0  0  0
M  CHG  5   8   1  18   1  19   1  29   1  30   1
M  END
>  <CHROM.1>
-169.99153940,-49.26847736,-166.28451628,67.25645221,-48.46293367,57.56833755
-90.32015823,-75.27219236,59.32623223,-117.07658033,50.76790283,-174.52793201
-159.86564153,168.98278430,-133.65680405,46.98481925,-9.00643549,-1.71754702
-8.83113023,2.42257658,-0.09244847,2.90642505

>  <Name>
2tob cryst

>  <RI>
0

>  <Rbt.Current_Directory>
/home/itssahil/PROJECTS/Mol_Feturizer/New_Systems/rnas/2tob

>  <Rbt.Executable>
rbdock ($Id: //depot/dev/client3/rdock/2013.1/src/exe/rbdock.cxx#4 $)

>  <Rbt.Library>
libRbt.so (2013.1, Build901 2013/11/27)

>  <Rbt.Parameter_File>
/export/apps/rDock/src/rDock_2013.1_src/data/scripts/dock_solv.prm

>  <Rbt.Receptor>
prm/blind_docking_80.prm

>  <SCORE>
-9.74566

>  <SCORE.INTER>
-13.4723

>  <SCORE.INTER.CONST>
1

>  <SCORE.INTER.POLAR>
-6.45883

>  <SCORE.INTER.ROT>
6

>  <SCORE.INTER.SOLV>
44.1763

>  <SCORE.INTER.VDW>
-9.77754

>  <SCORE.INTER.norm>
-0.421009

>  <SCORE.INTRA>
-2.00444

>  <SCORE.INTRA.DIHEDRAL>
0.583779

>  <SCORE.INTRA.DIHEDRAL.0>
18.4221

>  <SCORE.INTRA.POLAR>
0.101487

>  <SCORE.INTRA.POLAR.0>
-1.57101

>  <SCORE.INTRA.REPUL>
-0.730195

>  <SCORE.INTRA.REPUL.0>
0.730195

>  <SCORE.INTRA.SOLV>
-0.31081

>  <SCORE.INTRA.SOLV.lig_0>
-127.221

>  <SCORE.INTRA.VDW>
1.165

>  <SCORE.INTRA.VDW.0>
10.8385

>  <SCORE.INTRA.norm>
-0.0626386

>  <SCORE.RESTR>
5.73107

>  <SCORE.RESTR.CAVITY>
5.73107

>  <SCORE.RESTR.norm>
0.179096

>  <SCORE.SYSTEM>
0

>  <SCORE.SYSTEM.CONST>
0

>  <SCORE.SYSTEM.DIHEDRAL>
0

>  <SCORE.SYSTEM.SOLV>
0

>  <SCORE.SYSTEM.norm>
0

>  <SCORE.heavy>
32

>  <SCORE.norm>
-0.304552

>  <RMSD>
7.087

$$$$
2tob cryst
 OpenBabel11021811463D
libRbt.so/2013.1/901 2013/11/27
 32 34  0  0  0  0  0  0  0  0999 V2000
  -10.5848   -3.5382   -8.2771 C   0  0  2  0  0  0  0  0  0  0  0  0
  -12.0487   -3.8666   -8.5529 C   0  0  1  0  0  0  0  0  0  0  0  0
  -12.8421   -3.7235   -7.2538 C   0  0  2  0  0  0  0  0  0  0  0  0
  -12.2313   -4.5873   -6.1424 C   0  0  1  0  0  0  0  0  0  0  0  0
  -10.7331   -4.2915   -6.0126 C   0  0  1  0  0  0  0  0  0  0  0  0
   -9.9977   -5.1970   -5.0383 C   0  0  0  0  0  0  0  0  0  0  0  0
  -12.5701   -2.9789   -9.5381 O   0  0  0  0  0  0  0  0  0  0  0  0
  -14.3088   -4.0204   -7.3027 N   0  3  0  0  0  0  0  0  0  0  0  0
  -12.8900   -4.2966   -4.9161 O   0  0  0  0  0  0  0  0  0  0  0  0
  -10.0921   -4.4314   -7.2963 O   0  0  0  0  0  0  0  0  0  0  0  0
   -9.7145   -6.4590   -5.6342 O   0  0  0  0  0  0  0  0  0  0  0  0
  -11.0844    0.0849   -8.2907 C   0  0  2  0  0  0  0  0  0  0  0  0
  -10.7983    1.3539   -9.1050 C   0  0  0  0  0  0  0  0  0  0  0  0
   -9.3067    1.5504   -9.3621 C   0  0  1  0  0  0  0  0  0  0  0  0
   -8.7741    0.3142  -10.0735 C   0  0  2  0  0  0  0  0  0  0  0  0
   -8.9126   -0.9022   -9.1546 C   0  0  1  0  0  0  0  0  0  0  0  0
  -10.3940   -1.1740   -8.8389 C   0  0  1  0  0  0  0  0  0  0  0  0
  -12.5624   -0.1672   -8.2069 N   0  3  0  0  0  0  0  0  0  0  0  0
   -9.0578    2.7930  -10.1634 N   0  3  0  0  0  0  0  0  0  0  0  0
   -8.3266   -2.0358   -9.7819 O   0  0  0  0  0  0  0  0  0  0  0  0
   -7.3947    0.4989  -10.4406 O   0  0  0  0  0  0  0  0  0  0  0  0
  -10.4977   -2.2092   -7.8391 O   0  0  0  0  0  0  0  0  0  0  0  0
   -6.5603    0.7778   -9.3503 C   0  0  2  0  0  0  0  0  0  0  0  0
   -5.1760    1.2057   -9.8488 C   0  0  1  0  0  0  0  0  0  0  0  0
   -4.3861    0.0059  -10.3724 C   0  0  0  0  0  0  0  0  0  0  0  0
   -4.3619   -1.0741   -9.3029 C   0  0  1  0  0  0  0  0  0  0  0  0
   -5.7878   -1.4629   -8.9534 C   0  0  1  0  0  0  0  0  0  0  0  0
   -5.8299   -2.5460   -7.8907 C   0  0  0  0  0  0  0  0  0  0  0  0
   -5.3307    2.2130  -10.9466 N   0  3  0  0  0  0  0  0  0  0  0  0
   -7.2677   -2.7655   -7.5066 N   0  3  0  0  0  0  0  0  0  0  0  0
   -3.6482   -2.2118   -9.7659 O   0  0  0  0  0  0  0  0  0  0  0  0
   -6.4813   -0.3133   -8.4393 O   0  0  0  0  0  0  0  0  0  0  0  0
  1  2  1  0  0  0  0
  1 22  1  1  0  0  0
  1 10  1  0  0  0  0
  2  3  1  0  0  0  0
  2  7  1  6  0  0  0
  3  4  1  0  0  0  0
  3  8  1  6  0  0  0
  4  5  1  0  0  0  0
  4  9  1  1  0  0  0
  5  6  1  1  0  0  0
  5 10  1  0  0  0  0
  6 11  1  0  0  0  0
 12 13  1  0  0  0  0
 12 17  1  0  0  0  0
 12 18  1  6  0  0  0
 13 14  1  0  0  0  0
 14 15  1  0  0  0  0
 14 19  1  6  0  0  0
 15 16  1  0  0  0  0
 15 21  1  1  0  0  0
 16 17  1  0  0  0  0
 16 20  1  6  0  0  0
 17 22  1  1  0  0  0
 23 21  1  6  0  0  0
 23 24  1  0  0  0  0
 23 32  1  0  0  0  0
 24 25  1  0  0  0  0
 24 29  1  6  0  0  0
 25 26  1  0  0  0  0
 26 27  1  0  0  0  0
 26 31  1  6  0  0  0
 27 28  1  1  0  0  0
 27 32  1  0  0  0  0
 28 30  1  0  0  0  0
M  CHG  5   8   1  18   1  19   1  29   1  30   1
M  END
>  <CHROM.1>
-86.46357521,174.00189491,59.87696514,-57.02588436,79.25079358,-60.91754091
-125.43032741,93.06214716,57.92972939,-89.32433840,148.36252800,-169.86001891
48.63158941,175.47793561,174.24516918,-62.90878734,-9.09250240,-1.69501568
-8.42252726,-2.41439426,0.09884920,-0.49561136

>  <Name>
2tob cryst

>  <RI>
2.04895e+07

>  <Rbt.Current_Directory>
/home/itssahil/PROJECTS/Mol_Feturizer/New_Systems/rnas/2tob

>  <Rbt.Executable>
rbdock ($Id: //depot/dev/client3/rdock/2013.1/src/exe/rbdock.cxx#4 $)

>  <Rbt.Library>
libRbt.so (2013.1, Build901 2013/11/27)

>  <Rbt.Parameter_File>
/export/apps/rDock/src/rDock_2013.1_src/data/scripts/dock_solv.prm

>  <Rbt.Receptor>
prm/blind_docking_20.prm

>  <SCORE>
-14.0378

>  <SCORE.INTER>
-2.99885

>  <SCORE.INTER.CONST>
1

>  <SCORE.INTER.POLAR>
-3.66264

>  <SCORE.INTER.ROT>
6

>  <SCORE.INTER.SOLV>
39.3548

>  <SCORE.INTER.VDW>
-10.5087

>  <SCORE.INTER.norm>
-0.093714

>  <SCORE.INTRA>
-15.2507

>  <SCORE.INTRA.DIHEDRAL>
0.13902

>  <SCORE.INTRA.DIHEDRAL.0>
18.4221

>  <SCORE.INTRA.POLAR>
-0.313912

>  <SCORE.INTRA.POLAR.0>
-1.57101

>  <SCORE.INTRA.REPUL>
-0.695824

>  <SCORE.INTRA.REPUL.0>
0.730195

>  <SCORE.INTRA.SOLV>
3.50346

>  <SCORE.INTRA.SOLV.lig_0>
-127.221

>  <SCORE.INTRA.VDW>
-12.5255

>  <SCORE.INTRA.VDW.0>
10.8385

>  <SCORE.INTRA.norm>
-0.476583

>  <SCORE.RESTR>
4.21172

>  <SCORE.RESTR.CAVITY>
4.21172

>  <SCORE.RESTR.norm>
0.131616

>  <SCORE.SYSTEM>
0

>  <SCORE.SYSTEM.CONST>
0

>  <SCORE.SYSTEM.DIHEDRAL>
0

>  <SCORE.SYSTEM.SOLV>
0

>  <SCORE.SYSTEM.norm>
0

>  <SCORE.heavy>
32

>  <SCORE.norm>
-0.438681

>  <RMSD>
7.097

$$$$
2tob cryst
 OpenBabel11021811463D
libRbt.so/2013.1/901 2013/11/27
 32 34  0  0  0  0  0  0  0  0999 V2000
  -11.0420   -2.2968   -6.8882 C   0  0  2  0  0  0  0  0  0  0  0  0
  -10.4720   -3.0515   -5.6913 C   0  0  1  0  0  0  0  0  0  0  0  0
  -10.2198   -4.5043   -6.0956 C   0  0  2  0  0  0  0  0  0  0  0  0
  -11.4960   -5.1445   -6.6577 C   0  0  1  0  0  0  0  0  0  0  0  0
  -12.0786   -4.2636   -7.7682 C   0  0  1  0  0  0  0  0  0  0  0  0
  -13.4249   -4.7306   -8.2970 C   0  0  0  0  0  0  0  0  0  0  0  0
   -9.2515   -2.4479   -5.2707 O   0  0  0  0  0  0  0  0  0  0  0  0
   -9.6726   -5.4278   -5.0518 N   0  3  0  0  0  0  0  0  0  0  0  0
  -11.1786   -6.4301   -7.1760 O   0  0  0  0  0  0  0  0  0  0  0  0
  -12.2506   -2.9158   -7.2864 O   0  0  0  0  0  0  0  0  0  0  0  0
  -13.3022   -5.9864   -8.9570 O   0  0  0  0  0  0  0  0  0  0  0  0
  -10.8188   -0.0364   -8.2035 C   0  0  2  0  0  0  0  0  0  0  0  0
  -10.6379    1.2919   -8.9505 C   0  0  0  0  0  0  0  0  0  0  0  0
   -9.1732    1.5808   -9.2676 C   0  0  1  0  0  0  0  0  0  0  0  0
   -8.6183    0.4185  -10.0795 C   0  0  2  0  0  0  0  0  0  0  0  0
   -8.6491   -0.8559   -9.2322 C   0  0  1  0  0  0  0  0  0  0  0  0
  -10.0969   -1.2228   -8.8618 C   0  0  1  0  0  0  0  0  0  0  0  0
  -12.2763   -0.3697   -8.0632 N   0  3  0  0  0  0  0  0  0  0  0  0
   -9.0275    2.8801  -10.0016 N   0  3  0  0  0  0  0  0  0  0  0  0
   -8.0416   -1.9181   -9.9565 O   0  0  0  0  0  0  0  0  0  0  0  0
   -7.2706    0.6963  -10.5015 O   0  0  0  0  0  0  0  0  0  0  0  0
  -10.0977   -2.3196   -7.9243 O   0  0  0  0  0  0  0  0  0  0  0  0
   -6.3961    0.9561   -9.4384 C   0  0  2  0  0  0  0  0  0  0  0  0
   -4.9832    1.2091   -9.9749 C   0  0  1  0  0  0  0  0  0  0  0  0
   -4.3266   -0.0951  -10.4282 C   0  0  0  0  0  0  0  0  0  0  0  0
   -4.3955   -1.1034   -9.2926 C   0  0  1  0  0  0  0  0  0  0  0  0
   -5.8481   -1.3225   -8.9068 C   0  0  1  0  0  0  0  0  0  0  0  0
   -5.9833   -2.3274   -7.7772 C   0  0  0  0  0  0  0  0  0  0  0  0
   -5.0518    2.1565  -11.1331 N   0  3  0  0  0  0  0  0  0  0  0  0
   -7.0886   -3.2832   -8.1346 N   0  3  0  0  0  0  0  0  0  0  0  0
   -3.8075   -2.3344   -9.6886 O   0  0  0  0  0  0  0  0  0  0  0  0
   -6.4140   -0.0785   -8.4607 O   0  0  0  0  0  0  0  0  0  0  0  0
  1  2  1  0  0  0  0
  1 22  1  6  0  0  0
  1 10  1  0  0  0  0
  2  3  1  0  0  0  0
  2  7  1  6  0  0  0
  3  4  1  0  0  0  0
  3  8  1  1  0  0  0
  4  5  1  0  0  0  0
  4  9  1  6  0  0  0
  5  6  1  1  0  0  0
  5 10  1  0  0  0  0
  6 11  1  0  0  0  0
 12 13  1  0  0  0  0
 12 17  1  0  0  0  0
 12 18  1  6  0  0  0
 13 14  1  0  0  0  0
 14 15  1  0  0  0  0
 14 19  1  6  0  0  0
 15 16  1  0  0  0  0
 15 21  1  1  0  0  0
 16 17  1  0  0  0  0
 16 20  1  6  0  0  0
 17 22  1  1  0  0  0
 23 21  1  6  0  0  0
 23 24  1  0  0  0  0
 23 32  1  0  0  0  0
 24 25  1  0  0  0  0
 24 29  1  6  0  0  0
 25 26  1  0  0  0  0
 26 27  1  0  0  0  0
 26 31  1  6  0  0  0
 27 28  1  1  0  0  0
 27 32  1  0  0  0  0
 28 30  1  0  0  0  0
M  CHG  5   8   1  18   1  19   1  29   1  30   1
M  END
>  <CHROM.1>
-151.51556918,-177.73505752,37.68963607,-46.36174149,-65.68972176,56.82769222
137.63734038,-161.62096295,57.78372279,-125.38629294,20.03710778,178.73707777
-168.63014149,173.76839577,-134.53137004,50.92306234,-8.85937841,-1.71022908
-8.41811032,2.35737376,-0.10462385,2.73218199

>  <Name>
2tob cryst

>  <RI>
2.04895e+07

>  <Rbt.Current_Directory>
/home/itssahil/PROJECTS/Mol_Feturizer/New_Systems/rnas/2tob

>  <Rbt.Executable>
rbdock ($Id: //depot/dev/client3/rdock/2013.1/src/exe/rbdock.cxx#4 $)

>  <Rbt.Library>
libRbt.so (2013.1, Build901 2013/11/27)

>  <Rbt.Parameter_File>
/export/apps/rDock/src/rDock_2013.1_src/data/scripts/dock_solv.prm

>  <Rbt.Receptor>
prm/blind_docking_20.prm

>  <SCORE>
-18.4

>  <SCORE.INTER>
-20.6487

>  <SCORE.INTER.CONST>
1

>  <SCORE.INTER.POLAR>
-5.56887

>  <SCORE.INTER.ROT>
6

>  <SCORE.INTER.SOLV>
40.7426

>  <SCORE.INTER.VDW>
-16.3837

>  <SCORE.INTER.norm>
-0.64527

>  <SCORE.INTRA>
-0.200388

>  <SCORE.INTRA.DIHEDRAL>
8.53482

>  <SCORE.INTRA.DIHEDRAL.0>
18.4221

>  <SCORE.INTRA.POLAR>
-0.752683

>  <SCORE.INTRA.POLAR.0>
-1.57101

>  <SCORE.INTRA.REPUL>
-0.730195

>  <SCORE.INTRA.REPUL.0>
0.730195

>  <SCORE.INTRA.SOLV>
2.98874

>  <SCORE.INTRA.SOLV.lig_0>
-127.221

>  <SCORE.INTRA.VDW>
0.247931

>  <SCORE.INTRA.VDW.0>
10.8385

>  <SCORE.INTRA.norm>
-0.00626212

>  <SCORE.RESTR>
2.44906

>  <SCORE.RESTR.CAVITY>
2.44906

>  <SCORE.RESTR.norm>
0.0765331

>  <SCORE.SYSTEM>
0

>  <SCORE.SYSTEM.CONST>
0

>  <SCORE.SYSTEM.DIHEDRAL>
0

>  <SCORE.SYSTEM.SOLV>
0

>  <SCORE.SYSTEM.norm>
0

>  <SCORE.heavy>
32

>  <SCORE.norm>
-0.575

>  <RMSD>
7.097

$$$$
2tob cryst
 OpenBabel11021811463D
libRbt.so/2013.1/901 2013/11/27
 32 34  0  0  0  0  0  0  0  0999 V2000
   -9.0080   -2.8490   -7.7213 C   0  0  2  0  0  0  0  0  0  0  0  0
   -9.2637   -4.1569   -6.9790 C   0  0  1  0  0  0  0  0  0  0  0  0
  -10.3255   -3.9182   -5.9052 C   0  0  2  0  0  0  0  0  0  0  0  0
   -9.9131   -2.7697   -4.9748 C   0  0  1  0  0  0  0  0  0  0  0  0
   -9.5493   -1.5312   -5.8010 C   0  0  1  0  0  0  0  0  0  0  0  0
   -8.9867   -0.3779   -4.9864 C   0  0  0  0  0  0  0  0  0  0  0  0
   -9.7144   -5.1549   -7.8911 O   0  0  0  0  0  0  0  0  0  0  0  0
  -10.7125   -5.0806   -5.0444 N   0  3  0  0  0  0  0  0  0  0  0  0
  -10.9960   -2.4693   -4.1033 O   0  0  0  0  0  0  0  0  0  0  0  0
   -8.5635   -1.8762   -6.7947 O   0  0  0  0  0  0  0  0  0  0  0  0
   -8.9511    0.8180   -5.7586 O   0  0  0  0  0  0  0  0  0  0  0  0
  -10.8491   -0.1455   -8.0415 C   0  0  2  0  0  0  0  0  0  0  0  0
  -10.6658    1.3153   -8.4745 C   0  0  0  0  0  0  0  0  0  0  0  0
   -9.2140    1.6376   -8.8175 C   0  0  1  0  0  0  0  0  0  0  0  0
   -8.7545    0.6830   -9.9110 C   0  0  2  0  0  0  0  0  0  0  0  0
   -8.7799   -0.7520   -9.3786 C   0  0  1  0  0  0  0  0  0  0  0  0
  -10.2145   -1.1628   -9.0029 C   0  0  1  0  0  0  0  0  0  0  0  0
  -12.3065   -0.4702   -7.8808 N   0  3  0  0  0  0  0  0  0  0  0  0
   -9.0660    3.0680   -9.2420 N   0  3  0  0  0  0  0  0  0  0  0  0
   -8.2588   -1.6307  -10.3677 O   0  0  0  0  0  0  0  0  0  0  0  0
   -7.4264    1.0213  -10.3503 O   0  0  0  0  0  0  0  0  0  0  0  0
  -10.1977   -2.4466   -8.3444 O   0  0  0  0  0  0  0  0  0  0  0  0
   -6.5214    1.2073   -9.2972 C   0  0  2  0  0  0  0  0  0  0  0  0
   -5.2771    1.9451   -9.8026 C   0  0  1  0  0  0  0  0  0  0  0  0
   -4.3903    1.0188  -10.6351 C   0  0  0  0  0  0  0  0  0  0  0  0
   -4.0923   -0.2353   -9.8294 C   0  0  1  0  0  0  0  0  0  0  0  0
   -5.3999   -0.9121   -9.4570 C   0  0  1  0  0  0  0  0  0  0  0  0
   -5.1675   -2.1785   -8.6531 C   0  0  0  0  0  0  0  0  0  0  0  0
   -5.6963    3.1134  -10.6411 N   0  3  0  0  0  0  0  0  0  0  0  0
   -6.1077   -2.1635   -7.4789 N   0  3  0  0  0  0  0  0  0  0  0  0
   -3.2822   -1.1260  -10.5833 O   0  0  0  0  0  0  0  0  0  0  0  0
   -6.1860   -0.0168   -8.6524 O   0  0  0  0  0  0  0  0  0  0  0  0
  1  2  1  0  0  0  0
  1 22  1  1  0  0  0
  1 10  1  0  0  0  0
  2  3  1  0  0  0  0
  2  7  1  6  0  0  0
  3  4  1  0  0  0  0
  3  8  1  1  0  0  0
  4  5  1  0  0  0  0
  4  9  1  1  0  0  0
  5  6  1  1  0  0  0
  5 10  1  0  0  0  0
  6 11  1  0  0  0  0
 12 13  1  0  0  0  0
 12 17  1  0  0  0  0
 12 18  1  6  0  0  0
 13 14  1  0  0  0  0
 14 15  1  0  0  0  0
 14 19  1  6  0  0  0
 15 16  1  0  0  0  0
 15 21  1  1  0  0  0
 16 17  1  0  0  0  0
 16 20  1  6  0  0  0
 17 22  1  1  0  0  0
 23 21  1  6  0  0  0
 23 24  1  0  0  0  0
 23 32  1  0  0  0  0
 24 25  1  0  0  0  0
 24 29  1  6  0  0  0
 25 26  1  0  0  0  0
 26 27  1  0  0  0  0
 26 31  1  6  0  0  0
 27 28  1  1  0  0  0
 27 32  1  0  0  0  0
 28 30  1  0  0  0  0
M  CHG  5   8   1  18   1  19   1  29   1  30   1
M  END
>  <CHROM.1>
174.34825872,71.56268890,-167.11562719,75.41978408,-167.18446033,64.36350436
-48.77794094,61.21813995,48.66416917,-53.28352832,-98.07299262,-163.64654640
101.39864013,-64.03210642,133.72211623,-80.70703381,-8.26241885,-0.87560601
-8.14120729,-2.35545004,0.42150317,-0.40576723

>  <Name>
2tob cryst

>  <RI>
0

>  <Rbt.Current_Directory>
/home/itssahil/PROJECTS/Mol_Feturizer/New_Systems/rnas/2tob

>  <Rbt.Executable>
rbdock ($Id: //depot/dev/client3/rdock/2013.1/src/exe/rbdock.cxx#4 $)

>  <Rbt.Library>
libRbt.so (2013.1, Build901 2013/11/27)

>  <Rbt.Parameter_File>
/export/apps/rDock/src/rDock_2013.1_src/data/scripts/dock_solv.prm

>  <Rbt.Receptor>
prm/blind_docking_40.prm

>  <SCORE>
32.5751

>  <SCORE.INTER>
34.4122

>  <SCORE.INTER.CONST>
1

>  <SCORE.INTER.POLAR>
-6.5533

>  <SCORE.INTER.ROT>
6

>  <SCORE.INTER.SOLV>
45.4253

>  <SCORE.INTER.VDW>
22.0441

>  <SCORE.INTER.norm>
1.07538

>  <SCORE.INTRA>
-6.81279

>  <SCORE.INTRA.DIHEDRAL>
0.658158

>  <SCORE.INTRA.DIHEDRAL.0>
18.4221

>  <SCORE.INTRA.POLAR>
0.759107

>  <SCORE.INTRA.POLAR.0>
-1.57101

>  <SCORE.INTRA.REPUL>
0.0262217

>  <SCORE.INTRA.REPUL.0>
0.730195

>  <SCORE.INTRA.SOLV>
2.23181

>  <SCORE.INTRA.SOLV.lig_0>
-127.221

>  <SCORE.INTRA.VDW>
-10.9699

>  <SCORE.INTRA.VDW.0>
10.8385

>  <SCORE.INTRA.norm>
-0.2129

>  <SCORE.RESTR>
4.97572

>  <SCORE.RESTR.CAVITY>
4.97572

>  <SCORE.RESTR.norm>
0.155491

>  <SCORE.SYSTEM>
0

>  <SCORE.SYSTEM.CONST>
0

>  <SCORE.SYSTEM.DIHEDRAL>
0

>  <SCORE.SYSTEM.SOLV>
0

>  <SCORE.SYSTEM.norm>
0

>  <SCORE.heavy>
32

>  <SCORE.norm>
1.01797

>  <RMSD>
7.142

$$$$
2tob cryst
 OpenBabel11021811463D
libRbt.so/2013.1/901 2013/11/27
 32 34  0  0  0  0  0  0  0  0999 V2000
  -11.0269   -2.8313   -7.1111 C   0  0  2  0  0  0  0  0  0  0  0  0
  -10.5996   -3.8416   -6.0510 C   0  0  1  0  0  0  0  0  0  0  0  0
  -10.1386   -5.1235   -6.7452 C   0  0  2  0  0  0  0  0  0  0  0  0
  -11.2289   -5.6601   -7.6820 C   0  0  1  0  0  0  0  0  0  0  0  0
  -11.6961   -4.5513   -8.6314 C   0  0  1  0  0  0  0  0  0  0  0  0
  -12.8781   -4.9332   -9.5073 C   0  0  0  0  0  0  0  0  0  0  0  0
   -9.5359   -3.3063   -5.2683 O   0  0  0  0  0  0  0  0  0  0  0  0
   -9.6904   -6.2578   -5.8766 N   0  3  0  0  0  0  0  0  0  0  0  0
  -10.7010   -6.7477   -8.4307 O   0  0  0  0  0  0  0  0  0  0  0  0
  -12.0814   -3.3867   -7.8741 O   0  0  0  0  0  0  0  0  0  0  0  0
  -12.9037   -4.1476  -10.6947 O   0  0  0  0  0  0  0  0  0  0  0  0
  -10.7367   -0.2680   -8.0213 C   0  0  2  0  0  0  0  0  0  0  0  0
  -10.6420    1.1088   -8.6925 C   0  0  0  0  0  0  0  0  0  0  0  0
   -9.2067    1.4731   -9.0620 C   0  0  1  0  0  0  0  0  0  0  0  0
   -8.6525    0.3842   -9.9704 C   0  0  2  0  0  0  0  0  0  0  0  0
   -8.5943   -0.9391   -9.2032 C   0  0  1  0  0  0  0  0  0  0  0  0
  -10.0072   -1.3837   -8.7862 C   0  0  1  0  0  0  0  0  0  0  0  0
  -12.1723   -0.6657   -7.8311 N   0  3  0  0  0  0  0  0  0  0  0  0
   -9.1454    2.8188   -9.7202 N   0  3  0  0  0  0  0  0  0  0  0  0
   -7.9867   -1.9313  -10.0207 O   0  0  0  0  0  0  0  0  0  0  0  0
   -7.3389    0.7391  -10.4396 O   0  0  0  0  0  0  0  0  0  0  0  0
   -9.9208   -2.5341   -7.9196 O   0  0  0  0  0  0  0  0  0  0  0  0
   -6.4287    0.9964   -9.4061 C   0  0  2  0  0  0  0  0  0  0  0  0
   -5.0604    1.3573   -9.9939 C   0  0  1  0  0  0  0  0  0  0  0  0
   -4.3554    0.1175  -10.5447 C   0  0  0  0  0  0  0  0  0  0  0  0
   -4.3119   -0.9480   -9.4614 C   0  0  1  0  0  0  0  0  0  0  0  0
   -5.7291   -1.2701   -9.0204 C   0  0  1  0  0  0  0  0  0  0  0  0
   -5.7522   -2.3359   -7.9399 C   0  0  0  0  0  0  0  0  0  0  0  0
   -5.2388    2.3554  -11.0964 N   0  3  0  0  0  0  0  0  0  0  0  0
   -6.8410   -3.3174   -8.2776 N   0  3  0  0  0  0  0  0  0  0  0  0
   -3.6765   -2.1216   -9.9482 O   0  0  0  0  0  0  0  0  0  0  0  0
   -6.3407   -0.0847   -8.4841 O   0  0  0  0  0  0  0  0  0  0  0  0
  1  2  1  0  0  0  0
  1 22  1  6  0  0  0
  1 10  1  0  0  0  0
  2  3  1  0  0  0  0
  2  7  1  6  0  0  0
  3  4  1  0  0  0  0
  3  8  1  1  0  0  0
  4  5  1  0  0  0  0
  4  9  1  6  0  0  0
  5  6  1  1  0  0  0
  5 10  1  0  0  0  0
  6 11  1  0  0  0  0
 12 13  1  0  0  0  0
 12 17  1  0  0  0  0
 12 18  1  6  0  0  0
 13 14  1  0  0  0  0
 14 15  1  0  0  0  0
 14 19  1  6  0  0  0
 15 16  1  0  0  0  0
 15 21  1  1  0  0  0
 16 17  1  0  0  0  0
 16 20  1  6  0  0  0
 17 22  1  1  0  0  0
 23 21  1  6  0  0  0
 23 24  1  0  0  0  0
 23 32  1  0  0  0  0
 24 25  1  0  0  0  0
 24 29  1  6  0  0  0
 25 26  1  0  0  0  0
 26 27  1  0  0  0  0
 26 31  1  6  0  0  0
 27 28  1  1  0  0  0
 27 32  1  0  0  0  0
 28 30  1  0  0  0  0
M  CHG  5   8   1  18   1  19   1  29   1  30   1
M  END
>  <CHROM.1>
-166.01149497,63.53833092,52.08252551,83.47980873,-155.44120050,-60.51394475
-69.99133900,-47.23313366,56.49554597,-145.36976035,39.14773090,179.69518575
-44.16840174,175.79818094,-135.86607468,48.44098705,-8.77651274,-1.82154892
-8.68285422,2.33456454,-0.07199917,2.81559358

>  <Name>
2tob cryst

>  <RI>
0

>  <Rbt.Current_Directory>
/home/itssahil/PROJECTS/Mol_Feturizer/New_Systems/rnas/2tob

>  <Rbt.Executable>
rbdock ($Id: //depot/dev/client3/rdock/2013.1/src/exe/rbdock.cxx#4 $)

>  <Rbt.Library>
libRbt.so (2013.1, Build901 2013/11/27)

>  <Rbt.Parameter_File>
/export/apps/rDock/src/rDock_2013.1_src/data/scripts/dock_solv.prm

>  <Rbt.Receptor>
prm/blind_docking_100.prm

>  <SCORE>
-17.2819

>  <SCORE.INTER>
-20.4903

>  <SCORE.INTER.CONST>
1

>  <SCORE.INTER.POLAR>
-6.0068

>  <SCORE.INTER.ROT>
6

>  <SCORE.INTER.SOLV>
45.0218

>  <SCORE.INTER.VDW>
-16.2448

>  <SCORE.INTER.norm>
-0.640322

>  <SCORE.INTRA>
-1.65371

>  <SCORE.INTRA.DIHEDRAL>
-0.268629

>  <SCORE.INTRA.DIHEDRAL.0>
18.4221

>  <SCORE.INTRA.POLAR>
-0.574754

>  <SCORE.INTRA.POLAR.0>
-1.57101

>  <SCORE.INTRA.REPUL>
-0.730195

>  <SCORE.INTRA.REPUL.0>
0.730195

>  <SCORE.INTRA.SOLV>
0.96265

>  <SCORE.INTRA.SOLV.lig_0>
-127.221

>  <SCORE.INTRA.VDW>
3.60442

>  <SCORE.INTRA.VDW.0>
10.8385

>  <SCORE.INTRA.norm>
-0.0516783

>  <SCORE.RESTR>
4.86214

>  <SCORE.RESTR.CAVITY>
4.86214

>  <SCORE.RESTR.norm>
0.151942

>  <SCORE.SYSTEM>
0

>  <SCORE.SYSTEM.CONST>
0

>  <SCORE.SYSTEM.DIHEDRAL>
0

>  <SCORE.SYSTEM.SOLV>
0

>  <SCORE.SYSTEM.norm>
0

>  <SCORE.heavy>
32

>  <SCORE.norm>
-0.540058

>  <RMSD>
7.157

$$$$
2tob cryst
 OpenBabel11021811463D
libRbt.so/2013.1/901 2013/11/27
 32 34  0  0  0  0  0  0  0  0999 V2000
   -8.3926   -2.6802   -7.7056 C   0  0  2  0  0  0  0  0  0  0  0  0
   -8.2401   -4.1902   -7.5518 C   0  0  1  0  0  0  0  0  0  0  0  0
   -9.5001   -4.7511   -6.8919 C   0  0  2  0  0  0  0  0  0  0  0  0
   -9.7853   -4.0373   -5.5638 C   0  0  1  0  0  0  0  0  0  0  0  0
   -9.7963   -2.5196   -5.7766 C   0  0  1  0  0  0  0  0  0  0  0  0
   -9.9262   -1.7085   -4.4978 C   0  0  0  0  0  0  0  0  0  0  0  0
   -8.0538   -4.7939   -8.8292 O   0  0  0  0  0  0  0  0  0  0  0  0
   -9.5476   -6.2249   -6.6323 N   0  3  0  0  0  0  0  0  0  0  0  0
  -11.0483   -4.4661   -5.0704 O   0  0  0  0  0  0  0  0  0  0  0  0
   -8.5773   -2.1060   -6.4255 O   0  0  0  0  0  0  0  0  0  0  0  0
   -8.6667   -1.5872   -3.8445 O   0  0  0  0  0  0  0  0  0  0  0  0
  -10.4079   -0.4021   -7.5955 C   0  0  2  0  0  0  0  0  0  0  0  0
  -10.5057    1.1277   -7.6692 C   0  0  0  0  0  0  0  0  0  0  0  0
   -9.1875    1.7704   -8.0917 C   0  0  1  0  0  0  0  0  0  0  0  0
   -8.7755    1.1849   -9.4354 C   0  0  2  0  0  0  0  0  0  0  0  0
   -8.5113   -0.3147   -9.2785 C   0  0  1  0  0  0  0  0  0  0  0  0
   -9.7949   -1.0467   -8.8487 C   0  0  1  0  0  0  0  0  0  0  0  0
  -11.7600   -1.0069   -7.3481 N   0  3  0  0  0  0  0  0  0  0  0  0
   -9.3142    3.2629   -8.1607 N   0  3  0  0  0  0  0  0  0  0  0  0
   -8.0334   -0.8403  -10.5104 O   0  0  0  0  0  0  0  0  0  0  0  0
   -7.5957    1.8430   -9.9317 O   0  0  0  0  0  0  0  0  0  0  0  0
   -9.4910   -2.4225   -8.5380 O   0  0  0  0  0  0  0  0  0  0  0  0
   -6.5643    1.9252   -8.9872 C   0  0  2  0  0  0  0  0  0  0  0  0
   -5.2402    2.2484   -9.6874 C   0  0  1  0  0  0  0  0  0  0  0  0
   -4.7004    1.0267  -10.4315 C   0  0  0  0  0  0  0  0  0  0  0  0
   -4.6308   -0.1473   -9.4683 C   0  0  1  0  0  0  0  0  0  0  0  0
   -6.0156   -0.4129   -8.9040 C   0  0  1  0  0  0  0  0  0  0  0  0
   -6.0124   -1.5822   -7.9360 C   0  0  0  0  0  0  0  0  0  0  0  0
   -5.4509    3.3670  -10.6610 N   0  3  0  0  0  0  0  0  0  0  0  0
   -5.5553   -2.8045   -8.6842 N   0  3  0  0  0  0  0  0  0  0  0  0
   -4.1480   -1.3051  -10.1348 O   0  0  0  0  0  0  0  0  0  0  0  0
   -6.4688    0.7497   -8.1900 O   0  0  0  0  0  0  0  0  0  0  0  0
  1  2  1  0  0  0  0
  1 22  1  6  0  0  0
  1 10  1  0  0  0  0
  2  3  1  0  0  0  0
  2  7  1  6  0  0  0
  3  4  1  0  0  0  0
  3  8  1  1  0  0  0
  4  5  1  0  0  0  0
  4  9  1  6  0  0  0
  5  6  1  1  0  0  0
  5 10  1  0  0  0  0
  6 11  1  0  0  0  0
 12 13  1  0  0  0  0
 12 17  1  0  0  0  0
 12 18  1  6  0  0  0
 13 14  1  0  0  0  0
 14 15  1  0  0  0  0
 14 19  1  6  0  0  0
 15 16  1  0  0  0  0
 15 21  1  1  0  0  0
 16 17  1  0  0  0  0
 16 20  1  6  0  0  0
 17 22  1  1  0  0  0
 23 21  1  6  0  0  0
 23 24  1  0  0  0  0
 23 32  1  0  0  0  0
 24 25  1  0  0  0  0
 24 29  1  6  0  0  0
 25 26  1  0  0  0  0
 26 27  1  0  0  0  0
 26 31  1  6  0  0  0
 27 28  1  1  0  0  0
 27 32  1  0  0  0  0
 28 30  1  0  0  0  0
M  CHG  5   8   1  18   1  19   1  29   1  30   1
M  END
>  <CHROM.1>
-178.32440645,-162.37570929,177.58218472,-54.28584687,81.05349830,172.63930471
72.30077091,142.97312513,49.53415850,52.57405597,-73.49264783,163.45666664
-24.97319392,-31.39487467,-60.57068308,-85.57883532,-8.11711662,-1.05830381
-8.04224505,-2.17977548,0.54515075,-0.23974837

>  <Name>
2tob cryst

>  <RI>
0

>  <Rbt.Current_Directory>
/home/itssahil/PROJECTS/Mol_Feturizer/New_Systems/rnas/2tob

>  <Rbt.Executable>
rbdock ($Id: //depot/dev/client3/rdock/2013.1/src/exe/rbdock.cxx#4 $)

>  <Rbt.Library>
libRbt.so (2013.1, Build901 2013/11/27)

>  <Rbt.Parameter_File>
/export/apps/rDock/src/rDock_2013.1_src/data/scripts/dock_solv.prm

>  <Rbt.Receptor>
prm/blind_docking_40.prm

>  <SCORE>
17.963

>  <SCORE.INTER>
12.3858

>  <SCORE.INTER.CONST>
1

>  <SCORE.INTER.POLAR>
-5.30317

>  <SCORE.INTER.ROT>
6

>  <SCORE.INTER.SOLV>
48.3309

>  <SCORE.INTER.VDW>
2.22415

>  <SCORE.INTER.norm>
0.387056

>  <SCORE.INTRA>
0.32827

>  <SCORE.INTRA.DIHEDRAL>
-2.17737

>  <SCORE.INTRA.DIHEDRAL.0>
18.4221

>  <SCORE.INTRA.POLAR>
-0.0669603

>  <SCORE.INTRA.POLAR.0>
-1.57101

>  <SCORE.INTRA.REPUL>
-0.709141

>  <SCORE.INTRA.REPUL.0>
0.730195

>  <SCORE.INTRA.SOLV>
2.08656

>  <SCORE.INTRA.SOLV.lig_0>
-127.221

>  <SCORE.INTRA.VDW>
4.14704

>  <SCORE.INTRA.VDW.0>
10.8385

>  <SCORE.INTRA.norm>
0.0102584

>  <SCORE.RESTR>
5.24891

>  <SCORE.RESTR.CAVITY>
5.24891

>  <SCORE.RESTR.norm>
0.164028

>  <SCORE.SYSTEM>
0

>  <SCORE.SYSTEM.CONST>
0

>  <SCORE.SYSTEM.DIHEDRAL>
0

>  <SCORE.SYSTEM.SOLV>
0

>  <SCORE.SYSTEM.norm>
0

>  <SCORE.heavy>
32

>  <SCORE.norm>
0.561343

>  <RMSD>
7.157

$$$$
2tob cryst
 OpenBabel11021811463D
libRbt.so/2013.1/901 2013/11/27
 32 34  0  0  0  0  0  0  0  0999 V2000
   -9.9453   -1.6997   -8.4452 C   0  0  2  0  0  0  0  0  0  0  0  0
  -11.4627   -1.8354   -8.3679 C   0  0  1  0  0  0  0  0  0  0  0  0
  -11.8989   -1.6990   -6.9089 C   0  0  2  0  0  0  0  0  0  0  0  0
  -11.1591   -2.7081   -6.0207 C   0  0  1  0  0  0  0  0  0  0  0  0
   -9.6477   -2.5978   -6.2493 C   0  0  1  0  0  0  0  0  0  0  0  0
   -8.8261   -3.6525   -5.5263 C   0  0  0  0  0  0  0  0  0  0  0  0
  -12.0833   -0.8222   -9.1548 O   0  0  0  0  0  0  0  0  0  0  0  0
  -13.3610   -1.8200   -6.6097 N   0  3  0  0  0  0  0  0  0  0  0  0
  -11.4638   -2.4357   -4.6587 O   0  0  0  0  0  0  0  0  0  0  0  0
   -9.3541   -2.7146   -7.6559 O   0  0  0  0  0  0  0  0  0  0  0  0
   -9.0836   -4.9481   -6.0580 O   0  0  0  0  0  0  0  0  0  0  0  0
   -9.1974    1.9342   -8.2838 C   0  0  2  0  0  0  0  0  0  0  0  0
   -8.4991    3.0346   -9.0941 C   0  0  0  0  0  0  0  0  0  0  0  0
   -7.1043    2.6172   -9.5518 C   0  0  1  0  0  0  0  0  0  0  0  0
   -7.2281    1.3361  -10.3652 C   0  0  2  0  0  0  0  0  0  0  0  0
   -7.7594    0.2135   -9.4705 C   0  0  1  0  0  0  0  0  0  0  0  0
   -9.1700    0.5536   -8.9583 C   0  0  1  0  0  0  0  0  0  0  0  0
  -10.6235    2.3103   -8.0009 N   0  3  0  0  0  0  0  0  0  0  0  0
   -6.4491    3.7080  -10.3449 N   0  3  0  0  0  0  0  0  0  0  0  0
   -7.7822   -1.0037  -10.2053 O   0  0  0  0  0  0  0  0  0  0  0  0
   -5.9518    0.9636  -10.9165 O   0  0  0  0  0  0  0  0  0  0  0  0
   -9.5844   -0.4261   -7.9834 O   0  0  0  0  0  0  0  0  0  0  0  0
   -4.9081    1.0042   -9.9828 C   0  0  2  0  0  0  0  0  0  0  0  0
   -3.5709    0.7411  -10.6832 C   0  0  1  0  0  0  0  0  0  0  0  0
   -3.4236   -0.7365  -11.0476 C   0  0  0  0  0  0  0  0  0  0  0  0
   -3.6564   -1.5776   -9.8029 C   0  0  1  0  0  0  0  0  0  0  0  0
   -5.0401   -1.2811   -9.2514 C   0  0  1  0  0  0  0  0  0  0  0  0
   -5.3351   -2.0980   -8.0064 C   0  0  0  0  0  0  0  0  0  0  0  0
   -3.4895    1.5680  -11.9294 N   0  3  0  0  0  0  0  0  0  0  0  0
   -6.6088   -2.8627   -8.2425 N   0  3  0  0  0  0  0  0  0  0  0  0
   -3.5431   -2.9595  -10.1122 O   0  0  0  0  0  0  0  0  0  0  0  0
   -5.1221    0.1096   -8.8963 O   0  0  0  0  0  0  0  0  0  0  0  0
  1  2  1  0  0  0  0
  1 22  1  1  0  0  0
  1 10  1  0  0  0  0
  2  3  1  0  0  0  0
  2  7  1  6  0  0  0
  3  4  1  0  0  0  0
  3  8  1  6  0  0  0
  4  5  1  0  0  0  0
  4  9  1  1  0  0  0
  5  6  1  1  0  0  0
  5 10  1  0  0  0  0
  6 11  1  0  0  0  0
 12 13  1  0  0  0  0
 12 17  1  0  0  0  0
 12 18  1  6  0  0  0
 13 14  1  0  0  0  0
 14 15  1  0  0  0  0
 14 19  1  6  0  0  0
 15 16  1  0  0  0  0
 15 21  1  1  0  0  0
 16 17  1  0  0  0  0
 16 20  1  6  0  0  0
 17 22  1  1  0  0  0
 23 21  1  6  0  0  0
 23 24  1  0  0  0  0
 23 32  1  0  0  0  0
 24 25  1  0  0  0  0
 24 29  1  6  0  0  0
 25 26  1  0  0  0  0
 26 27  1  0  0  0  0
 26 31  1  6  0  0  0
 27 28  1  1  0  0  0
 27 32  1  0  0  0  0
 28 30  1  0  0  0  0
M  CHG  5   8   1  18   1  19   1  29   1  30   1
M  END
>  <CHROM.1>
-105.97656726,59.03587521,-156.70963063,-10.52383114,66.84102605,-56.91718080
99.21263758,-16.15394259,47.51570984,-61.76631790,164.94523864,-173.99458127
52.46650094,65.90950805,-124.52789652,174.30691914,-7.91833923,-0.64050110
-8.64936585,2.61802946,-0.34825918,2.71955803

>  <Name>
2tob cryst

>  <RI>
0

>  <Rbt.Current_Directory>
/home/itssahil/PROJECTS/Mol_Feturizer/New_Systems/rnas/2tob

>  <Rbt.Executable>
rbdock ($Id: //depot/dev/client3/rdock/2013.1/src/exe/rbdock.cxx#4 $)

>  <Rbt.Library>
libRbt.so (2013.1, Build901 2013/11/27)

>  <Rbt.Parameter_File>
/export/apps/rDock/src/rDock_2013.1_src/data/scripts/dock_solv.prm

>  <Rbt.Receptor>
prm/blind_docking_40.prm

>  <SCORE>
70.3525

>  <SCORE.INTER>
74.4084

>  <SCORE.INTER.CONST>
1

>  <SCORE.INTER.POLAR>
-6.00834

>  <SCORE.INTER.ROT>
6

>  <SCORE.INTER.SOLV>
47.7763

>  <SCORE.INTER.VDW>
46.108

>  <SCORE.INTER.norm>
2.32526

>  <SCORE.INTRA>
-8.99539

>  <SCORE.INTRA.DIHEDRAL>
9.24783

>  <SCORE.INTRA.DIHEDRAL.0>
18.4221

>  <SCORE.INTRA.POLAR>
0.72809

>  <SCORE.INTRA.POLAR.0>
-1.57101

>  <SCORE.INTRA.REPUL>
-0.723479

>  <SCORE.INTRA.REPUL.0>
0.730195

>  <SCORE.INTRA.SOLV>
0.423318

>  <SCORE.INTRA.SOLV.lig_0>
-127.221

>  <SCORE.INTRA.VDW>
-12.6891

>  <SCORE.INTRA.VDW.0>
10.8385

>  <SCORE.INTRA.norm>
-0.281106

>  <SCORE.RESTR>
4.93942

>  <SCORE.RESTR.CAVITY>
4.93942

>  <SCORE.RESTR.norm>
0.154357

>  <SCORE.SYSTEM>
0

>  <SCORE.SYSTEM.CONST>
0

>  <SCORE.SYSTEM.DIHEDRAL>
0

>  <SCORE.SYSTEM.SOLV>
0

>  <SCORE.SYSTEM.norm>
0

>  <SCORE.heavy>
32

>  <SCORE.norm>
2.19851

>  <RMSD>
7.164

$$$$
2tob cryst
 OpenBabel11021811463D
libRbt.so/2013.1/901 2013/11/27
 32 34  0  0  0  0  0  0  0  0999 V2000
  -10.0277   -3.0085   -7.6141 C   0  0  2  0  0  0  0  0  0  0  0  0
   -8.8238   -3.5780   -8.3579 C   0  0  1  0  0  0  0  0  0  0  0  0
   -7.5813   -2.7701   -7.9821 C   0  0  2  0  0  0  0  0  0  0  0  0
   -7.8004   -1.2750   -8.2488 C   0  0  1  0  0  0  0  0  0  0  0  0
   -9.0953   -0.8071   -7.5756 C   0  0  1  0  0  0  0  0  0  0  0  0
   -9.4856    0.6264   -7.8963 C   0  0  0  0  0  0  0  0  0  0  0  0
   -8.6358   -4.9460   -8.0056 O   0  0  0  0  0  0  0  0  0  0  0  0
   -6.2843   -3.1582   -8.6217 N   0  3  0  0  0  0  0  0  0  0  0  0
   -6.6947   -0.5461   -7.7307 O   0  0  0  0  0  0  0  0  0  0  0  0
  -10.1917   -1.6513   -7.9798 O   0  0  0  0  0  0  0  0  0  0  0  0
   -9.2970    0.9056   -9.2799 O   0  0  0  0  0  0  0  0  0  0  0  0
  -11.6691   -2.1646   -5.0553 C   0  0  2  0  0  0  0  0  0  0  0  0
  -12.1398   -1.2396   -3.9249 C   0  0  0  0  0  0  0  0  0  0  0  0
  -11.2416   -1.3292   -2.6942 C   0  0  1  0  0  0  0  0  0  0  0  0
   -9.8163   -0.9963   -3.1135 C   0  0  2  0  0  0  0  0  0  0  0  0
   -9.3184   -2.0485   -4.1076 C   0  0  1  0  0  0  0  0  0  0  0  0
  -10.1743   -2.0304   -5.3863 C   0  0  1  0  0  0  0  0  0  0  0  0
  -12.4683   -1.9229   -6.3035 N   0  3  0  0  0  0  0  0  0  0  0  0
  -11.7215   -0.4118   -1.6097 N   0  3  0  0  0  0  0  0  0  0  0  0
   -7.9559   -1.7912   -4.4230 O   0  0  0  0  0  0  0  0  0  0  0  0
   -8.9495   -0.9553   -1.9653 O   0  0  0  0  0  0  0  0  0  0  0  0
   -9.8057   -3.1369   -6.2358 O   0  0  0  0  0  0  0  0  0  0  0  0
   -7.5896   -1.0441   -2.2901 C   0  0  2  0  0  0  0  0  0  0  0  0
   -6.8821   -1.9946   -1.3184 C   0  0  1  0  0  0  0  0  0  0  0  0
   -6.6937   -1.3399    0.0503 C   0  0  0  0  0  0  0  0  0  0  0  0
   -5.9995   -0.0002   -0.1344 C   0  0  1  0  0  0  0  0  0  0  0  0
   -6.8362    0.8734   -1.0529 C   0  0  1  0  0  0  0  0  0  0  0  0
   -6.1958    2.2320   -1.2723 C   0  0  0  0  0  0  0  0  0  0  0  0
   -7.6947   -3.2431   -1.1616 N   0  3  0  0  0  0  0  0  0  0  0  0
   -6.2063    2.5184   -2.7490 N   0  3  0  0  0  0  0  0  0  0  0  0
   -5.8245    0.6426    1.1202 O   0  0  0  0  0  0  0  0  0  0  0  0
   -6.9615    0.2327   -2.3338 O   0  0  0  0  0  0  0  0  0  0  0  0
  1  2  1  0  0  0  0
  1 22  1  1  0  0  0
  1 10  1  0  0  0  0
  2  3  1  0  0  0  0
  2  7  1  1  0  0  0
  3  4  1  0  0  0  0
  3  8  1  6  0  0  0
  4  5  1  0  0  0  0
  4  9  1  1  0  0  0
  5  6  1  6  0  0  0
  5 10  1  0  0  0  0
  6 11  1  0  0  0  0
 12 13  1  0  0  0  0
 12 17  1  0  0  0  0
 12 18  1  6  0  0  0
 13 14  1  0  0  0  0
 14 15  1  0  0  0  0
 14 19  1  1  0  0  0
 15 16  1  0  0  0  0
 15 21  1  1  0  0  0
 16 17  1  0  0  0  0
 16 20  1  6  0  0  0
 17 22  1  6  0  0  0
 23 21  1  1  0  0  0
 23 24  1  0  0  0  0
 23 32  1  0  0  0  0
 24 25  1  0  0  0  0
 24 29  1  1  0  0  0
 25 26  1  0  0  0  0
 26 27  1  0  0  0  0
 26 31  1  1  0  0  0
 27 28  1  6  0  0  0
 27 32  1  0  0  0  0
 28 30  1  0  0  0  0
M  CHG  5   8   1  18   1  19   1  29   1  30   1
M  END
>  <CHROM.1>
138.30929027,-168.93517530,-100.32274513,-75.54956063,42.71540678,-177.83733469
-56.22868071,-48.64031489,162.44743914,-179.59539683,84.63477367,-136.98994041
64.27314218,64.97571549,132.12376684,35.40605367,-8.60440596,-1.22100854
-4.56113357,1.86429827,-0.35932985,-1.75429087

>  <Name>
2tob cryst

>  <RI>
0

>  <Rbt.Current_Directory>
/home/itssahil/PROJECTS/Mol_Feturizer/New_Systems/rnas/2tob

>  <Rbt.Executable>
rbdock ($Id: //depot/dev/client3/rdock/2013.1/src/exe/rbdock.cxx#4 $)

>  <Rbt.Library>
libRbt.so (2013.1, Build901 2013/11/27)

>  <Rbt.Parameter_File>
/export/apps/rDock/src/rDock_2013.1_src/data/scripts/dock_solv.prm

>  <Rbt.Receptor>
prm/blind_docking_40.prm

>  <SCORE>
-7.64899

>  <SCORE.INTER>
-24.2734

>  <SCORE.INTER.CONST>
1

>  <SCORE.INTER.POLAR>
-5.30578

>  <SCORE.INTER.ROT>
6

>  <SCORE.INTER.SOLV>
39.1221

>  <SCORE.INTER.VDW>
-19.137

>  <SCORE.INTER.norm>
-0.758544

>  <SCORE.INTRA>
1.58903

>  <SCORE.INTRA.DIHEDRAL>
9.17297

>  <SCORE.INTRA.DIHEDRAL.0>
18.4221

>  <SCORE.INTRA.POLAR>
1.45991

>  <SCORE.INTRA.POLAR.0>
-1.57101

>  <SCORE.INTRA.REPUL>
-0.730195

>  <SCORE.INTRA.REPUL.0>
0.730195

>  <SCORE.INTRA.SOLV>
-4.87154

>  <SCORE.INTRA.SOLV.lig_0>
-127.221

>  <SCORE.INTRA.VDW>
-1.8744

>  <SCORE.INTRA.VDW.0>
10.8385

>  <SCORE.INTRA.norm>
0.0496573

>  <SCORE.RESTR>
15.0354

>  <SCORE.RESTR.CAVITY>
15.0354

>  <SCORE.RESTR.norm>
0.469855

>  <SCORE.SYSTEM>
0

>  <SCORE.SYSTEM.CONST>
0

>  <SCORE.SYSTEM.DIHEDRAL>
0

>  <SCORE.SYSTEM.SOLV>
0

>  <SCORE.SYSTEM.norm>
0

>  <SCORE.heavy>
32

>  <SCORE.norm>
-0.239031

>  <RMSD>
7.175

$$$$
2tob cryst
 OpenBabel11021811463D
libRbt.so/2013.1/901 2013/11/27
 32 34  0  0  0  0  0  0  0  0999 V2000
  -11.0190   -2.3558   -7.5390 C   0  0  2  0  0  0  0  0  0  0  0  0
  -10.2577   -3.5602   -6.9942 C   0  0  1  0  0  0  0  0  0  0  0  0
  -10.6517   -4.8003   -7.7971 C   0  0  2  0  0  0  0  0  0  0  0  0
  -12.1736   -4.9966   -7.7877 C   0  0  1  0  0  0  0  0  0  0  0  0
  -12.8712   -3.7037   -8.2244 C   0  0  1  0  0  0  0  0  0  0  0  0
  -14.3865   -3.7407   -8.1121 C   0  0  0  0  0  0  0  0  0  0  0  0
   -8.8541   -3.3396   -7.1032 O   0  0  0  0  0  0  0  0  0  0  0  0
  -10.0254   -6.1037   -7.4088 N   0  3  0  0  0  0  0  0  0  0  0  0
  -12.5090   -6.0525   -8.6792 O   0  0  0  0  0  0  0  0  0  0  0  0
  -12.4078   -2.6002   -7.4208 O   0  0  0  0  0  0  0  0  0  0  0  0
  -14.9563   -2.5061   -8.5350 O   0  0  0  0  0  0  0  0  0  0  0  0
  -11.1642    0.1263   -8.3172 C   0  0  2  0  0  0  0  0  0  0  0  0
  -10.8335    1.6106   -8.5235 C   0  0  0  0  0  0  0  0  0  0  0  0
   -9.3350    1.8508   -8.6855 C   0  0  1  0  0  0  0  0  0  0  0  0
   -8.8372    1.0133   -9.8555 C   0  0  2  0  0  0  0  0  0  0  0  0
   -9.0194   -0.4720   -9.5333 C   0  0  1  0  0  0  0  0  0  0  0  0
  -10.5104   -0.8054   -9.3499 C   0  0  1  0  0  0  0  0  0  0  0  0
  -12.6500   -0.0917   -8.3358 N   0  3  0  0  0  0  0  0  0  0  0  0
   -9.0424    3.3069   -8.8909 N   0  3  0  0  0  0  0  0  0  0  0  0
   -8.4655   -1.2535  -10.5842 O   0  0  0  0  0  0  0  0  0  0  0  0
   -7.4505    1.2925  -10.1214 O   0  0  0  0  0  0  0  0  0  0  0  0
  -10.6526   -2.1616   -8.8784 O   0  0  0  0  0  0  0  0  0  0  0  0
   -6.6360    1.2027   -8.9851 C   0  0  2  0  0  0  0  0  0  0  0  0
   -5.1711    1.4280   -9.3740 C   0  0  1  0  0  0  0  0  0  0  0  0
   -4.6010    0.2069  -10.0962 C   0  0  0  0  0  0  0  0  0  0  0  0
   -4.8410   -1.0281   -9.2430 C   0  0  1  0  0  0  0  0  0  0  0  0
   -6.3314   -1.1811   -8.9939 C   0  0  1  0  0  0  0  0  0  0  0  0
   -6.6366   -2.4046   -8.1490 C   0  0  0  0  0  0  0  0  0  0  0  0
   -5.0714    2.6238  -10.2706 N   0  3  0  0  0  0  0  0  0  0  0  0
   -6.5005   -2.0167   -6.7020 N   0  3  0  0  0  0  0  0  0  0  0  0
   -4.3367   -2.1848   -9.8955 O   0  0  0  0  0  0  0  0  0  0  0  0
   -6.8163   -0.0259   -8.2888 O   0  0  0  0  0  0  0  0  0  0  0  0
  1  2  1  0  0  0  0
  1 22  1  6  0  0  0
  1 10  1  0  0  0  0
  2  3  1  0  0  0  0
  2  7  1  6  0  0  0
  3  4  1  0  0  0  0
  3  8  1  1  0  0  0
  4  5  1  0  0  0  0
  4  9  1  6  0  0  0
  5  6  1  1  0  0  0
  5 10  1  0  0  0  0
  6 11  1  0  0  0  0
 12 13  1  0  0  0  0
 12 17  1  0  0  0  0
 12 18  1  6  0  0  0
 13 14  1  0  0  0  0
 14 15  1  0  0  0  0
 14 19  1  6  0  0  0
 15 16  1  0  0  0  0
 15 21  1  1  0  0  0
 16 17  1  0  0  0  0
 16 20  1  6  0  0  0
 17 22  1  1  0  0  0
 23 21  1  6  0  0  0
 23 24  1  0  0  0  0
 23 32  1  0  0  0  0
 24 25  1  0  0  0  0
 24 29  1  6  0  0  0
 25 26  1  0  0  0  0
 26 27  1  0  0  0  0
 26 31  1  6  0  0  0
 27 28  1  1  0  0  0
 27 32  1  0  0  0  0
 28 30  1  0  0  0  0
M  CHG  5   8   1  18   1  19   1  29   1  30   1
M  END
>  <CHROM.1>
-142.01386760,-178.88355333,135.70163543,88.14739871,179.98561120,82.07433370
-62.79405385,-60.00237022,51.30291954,-37.68135083,-14.61977274,176.49703855
70.42069573,150.89234715,85.36559293,48.33401707,-9.22221799,-1.35882427
-8.64669925,2.50472914,-0.07327267,2.93258426

>  <Name>
2tob cryst

>  <RI>
2.04895e+07

>  <Rbt.Current_Directory>
/home/itssahil/PROJECTS/Mol_Feturizer/New_Systems/rnas/2tob

>  <Rbt.Executable>
rbdock ($Id: //depot/dev/client3/rdock/2013.1/src/exe/rbdock.cxx#4 $)

>  <Rbt.Library>
libRbt.so (2013.1, Build901 2013/11/27)

>  <Rbt.Parameter_File>
/export/apps/rDock/src/rDock_2013.1_src/data/scripts/dock_solv.prm

>  <Rbt.Receptor>
prm/blind_docking_20.prm

>  <SCORE>
24.1211

>  <SCORE.INTER>
24.6259

>  <SCORE.INTER.CONST>
1

>  <SCORE.INTER.POLAR>
-7.35541

>  <SCORE.INTER.ROT>
6

>  <SCORE.INTER.SOLV>
50.351

>  <SCORE.INTER.VDW>
16.5517

>  <SCORE.INTER.norm>
0.769559

>  <SCORE.INTRA>
-2.15427

>  <SCORE.INTRA.DIHEDRAL>
10.054

>  <SCORE.INTRA.DIHEDRAL.0>
18.4221

>  <SCORE.INTRA.POLAR>
0.486968

>  <SCORE.INTRA.POLAR.0>
-1.57101

>  <SCORE.INTRA.REPUL>
-0.716143

>  <SCORE.INTRA.REPUL.0>
0.730195

>  <SCORE.INTRA.SOLV>
0.630519

>  <SCORE.INTRA.SOLV.lig_0>
-127.221

>  <SCORE.INTRA.VDW>
-5.57148

>  <SCORE.INTRA.VDW.0>
10.8385

>  <SCORE.INTRA.norm>
-0.0673208

>  <SCORE.RESTR>
1.64946

>  <SCORE.RESTR.CAVITY>
1.64946

>  <SCORE.RESTR.norm>
0.0515456

>  <SCORE.SYSTEM>
0

>  <SCORE.SYSTEM.CONST>
0

>  <SCORE.SYSTEM.DIHEDRAL>
0

>  <SCORE.SYSTEM.SOLV>
0

>  <SCORE.SYSTEM.norm>
0

>  <SCORE.heavy>
32

>  <SCORE.norm>
0.753784

>  <RMSD>
7.184

$$$$
2tob cryst
 OpenBabel11021811463D
libRbt.so/2013.1/901 2013/11/27
 32 34  0  0  0  0  0  0  0  0999 V2000
  -11.1980   -2.2058   -7.8215 C   0  0  2  0  0  0  0  0  0  0  0  0
  -10.8869   -3.6911   -7.6671 C   0  0  1  0  0  0  0  0  0  0  0  0
  -11.9018   -4.4972   -8.4782 C   0  0  2  0  0  0  0  0  0  0  0  0
  -13.3366   -4.1379   -8.0699 C   0  0  1  0  0  0  0  0  0  0  0  0
  -13.5331   -2.6191   -8.1279 C   0  0  1  0  0  0  0  0  0  0  0  0
  -14.8769   -2.1406   -7.6033 C   0  0  0  0  0  0  0  0  0  0  0  0
   -9.5685   -3.9641   -8.1342 O   0  0  0  0  0  0  0  0  0  0  0  0
  -11.7832   -5.9895   -8.4476 N   0  3  0  0  0  0  0  0  0  0  0  0
  -14.2441   -4.7777   -8.9584 O   0  0  0  0  0  0  0  0  0  0  0  0
  -12.5107   -1.9618   -7.3527 O   0  0  0  0  0  0  0  0  0  0  0  0
  -15.8975   -2.3276   -8.5785 O   0  0  0  0  0  0  0  0  0  0  0  0
  -11.2551    0.4014   -8.3570 C   0  0  2  0  0  0  0  0  0  0  0  0
  -10.7137    1.8367   -8.3994 C   0  0  0  0  0  0  0  0  0  0  0  0
   -9.1951    1.8765   -8.5467 C   0  0  1  0  0  0  0  0  0  0  0  0
   -8.8138    1.1123   -9.8071 C   0  0  2  0  0  0  0  0  0  0  0  0
   -9.2092   -0.3583   -9.6510 C   0  0  1  0  0  0  0  0  0  0  0  0
  -10.7339   -0.4932   -9.4928 C   0  0  1  0  0  0  0  0  0  0  0  0
  -12.7566    0.4017   -8.3868 N   0  3  0  0  0  0  0  0  0  0  0  0
   -8.6955    3.2895   -8.5911 N   0  3  0  0  0  0  0  0  0  0  0  0
   -8.7652   -1.0887  -10.7873 O   0  0  0  0  0  0  0  0  0  0  0  0
   -7.3995    1.2181  -10.0524 O   0  0  0  0  0  0  0  0  0  0  0  0
  -11.0723   -1.8591   -9.1742 O   0  0  0  0  0  0  0  0  0  0  0  0
   -6.6216    1.0845   -8.8949 C   0  0  2  0  0  0  0  0  0  0  0  0
   -5.1338    1.1041   -9.2611 C   0  0  1  0  0  0  0  0  0  0  0  0
   -4.7110   -0.2139   -9.9103 C   0  0  0  0  0  0  0  0  0  0  0  0
   -5.1192   -1.3641   -9.0040 C   0  0  1  0  0  0  0  0  0  0  0  0
   -6.6208   -1.3159   -8.7816 C   0  0  1  0  0  0  0  0  0  0  0  0
   -7.0921   -2.4469   -7.8856 C   0  0  0  0  0  0  0  0  0  0  0  0
   -4.8690    2.2308  -10.2119 N   0  3  0  0  0  0  0  0  0  0  0  0
   -7.3032   -3.6638   -8.7444 N   0  3  0  0  0  0  0  0  0  0  0  0
   -4.7547   -2.6066   -9.5881 O   0  0  0  0  0  0  0  0  0  0  0  0
   -6.9671   -0.0747   -8.1442 O   0  0  0  0  0  0  0  0  0  0  0  0
  1  2  1  0  0  0  0
  1 22  1  6  0  0  0
  1 10  1  0  0  0  0
  2  3  1  0  0  0  0
  2  7  1  6  0  0  0
  3  4  1  0  0  0  0
  3  8  1  1  0  0  0
  4  5  1  0  0  0  0
  4  9  1  6  0  0  0
  5  6  1  1  0  0  0
  5 10  1  0  0  0  0
  6 11  1  0  0  0  0
 12 13  1  0  0  0  0
 12 17  1  0  0  0  0
 12 18  1  6  0  0  0
 13 14  1  0  0  0  0
 14 15  1  0  0  0  0
 14 19  1  6  0  0  0
 15 16  1  0  0  0  0
 15 21  1  1  0  0  0
 16 17  1  0  0  0  0
 16 20  1  6  0  0  0
 17 22  1  1  0  0  0
 23 21  1  6  0  0  0
 23 24  1  0  0  0  0
 23 32  1  0  0  0  0
 24 25  1  0  0  0  0
 24 29  1  6  0  0  0
 25 26  1  0  0  0  0
 26 27  1  0  0  0  0
 26 31  1  6  0  0  0
 27 28  1  1  0  0  0
 27 32  1  0  0  0  0
 28 30  1  0  0  0  0
M  CHG  5   8   1  18   1  19   1  29   1  30   1
M  END
>  <CHROM.1>
-153.08552578,179.22527987,63.04153115,-61.48146631,-79.23464847,40.61565434
93.95728661,-40.61914542,42.22070937,-39.40150745,-27.76201791,175.76364704
75.71137609,103.42805266,-84.48653150,-82.09723723,-9.62528196,-1.26360037
-8.80158762,-2.66990420,0.11903188,-0.06505036

>  <Name>
2tob cryst

>  <RI>
0

>  <Rbt.Current_Directory>
/home/itssahil/PROJECTS/Mol_Feturizer/New_Systems/rnas/2tob

>  <Rbt.Executable>
rbdock ($Id: //depot/dev/client3/rdock/2013.1/src/exe/rbdock.cxx#4 $)

>  <Rbt.Library>
libRbt.so (2013.1, Build901 2013/11/27)

>  <Rbt.Parameter_File>
/export/apps/rDock/src/rDock_2013.1_src/data/scripts/dock_solv.prm

>  <Rbt.Receptor>
prm/blind_docking_40.prm

>  <SCORE>
12.5886

>  <SCORE.INTER>
11.3792

>  <SCORE.INTER.CONST>
1

>  <SCORE.INTER.POLAR>
-9.65704

>  <SCORE.INTER.ROT>
6

>  <SCORE.INTER.SOLV>
48.9768

>  <SCORE.INTER.VDW>
15.8507

>  <SCORE.INTER.norm>
0.355599

>  <SCORE.INTRA>
-6.51962

>  <SCORE.INTRA.DIHEDRAL>
7.64808

>  <SCORE.INTRA.DIHEDRAL.0>
18.4221

>  <SCORE.INTRA.POLAR>
-0.409551

>  <SCORE.INTRA.POLAR.0>
-1.57101

>  <SCORE.INTRA.REPUL>
-0.730195

>  <SCORE.INTRA.REPUL.0>
0.730195

>  <SCORE.INTRA.SOLV>
3.36716

>  <SCORE.INTRA.SOLV.lig_0>
-127.221

>  <SCORE.INTRA.VDW>
-6.98379

>  <SCORE.INTRA.VDW.0>
10.8385

>  <SCORE.INTRA.norm>
-0.203738

>  <SCORE.RESTR>
7.72902

>  <SCORE.RESTR.CAVITY>
7.72902

>  <SCORE.RESTR.norm>
0.241532

>  <SCORE.SYSTEM>
0

>  <SCORE.SYSTEM.CONST>
0

>  <SCORE.SYSTEM.DIHEDRAL>
0

>  <SCORE.SYSTEM.SOLV>
0

>  <SCORE.SYSTEM.norm>
0

>  <SCORE.heavy>
32

>  <SCORE.norm>
0.393393

>  <RMSD>
7.184

$$$$
2tob cryst
 OpenBabel11021811463D
libRbt.so/2013.1/901 2013/11/27
 32 34  0  0  0  0  0  0  0  0999 V2000
   -9.7418   -1.8656   -8.4082 C   0  0  2  0  0  0  0  0  0  0  0  0
  -11.2434   -1.9166   -8.6717 C   0  0  1  0  0  0  0  0  0  0  0  0
  -11.9859   -1.6182   -7.3688 C   0  0  2  0  0  0  0  0  0  0  0  0
  -11.5384   -2.5729   -6.2540 C   0  0  1  0  0  0  0  0  0  0  0  0
  -10.0104   -2.5614   -6.1364 C   0  0  1  0  0  0  0  0  0  0  0  0
   -9.4496   -3.5814   -5.1590 C   0  0  0  0  0  0  0  0  0  0  0  0
  -11.5976   -0.9542   -9.6612 O   0  0  0  0  0  0  0  0  0  0  0  0
  -13.4826   -1.6361   -7.4058 N   0  3  0  0  0  0  0  0  0  0  0  0
  -12.1216   -2.1553   -5.0260 O   0  0  0  0  0  0  0  0  0  0  0  0
   -9.4170   -2.8280   -7.4229 O   0  0  0  0  0  0  0  0  0  0  0  0
   -9.5138   -4.8951   -5.7048 O   0  0  0  0  0  0  0  0  0  0  0  0
   -9.3570    1.8091   -8.3480 C   0  0  2  0  0  0  0  0  0  0  0  0
   -8.8412    2.9731   -9.2047 C   0  0  0  0  0  0  0  0  0  0  0  0
   -7.4155    2.7398   -9.6970 C   0  0  1  0  0  0  0  0  0  0  0  0
   -7.3835    1.4327  -10.4769 C   0  0  2  0  0  0  0  0  0  0  0  0
   -7.7286    0.2718   -9.5406 C   0  0  1  0  0  0  0  0  0  0  0  0
   -9.1577    0.4278   -8.9917 C   0  0  1  0  0  0  0  0  0  0  0  0
  -10.8129    1.9924   -8.0286 N   0  3  0  0  0  0  0  0  0  0  0  0
   -6.9406    3.8890  -10.5349 N   0  3  0  0  0  0  0  0  0  0  0  0
   -7.6033   -0.9561  -10.2466 O   0  0  0  0  0  0  0  0  0  0  0  0
   -6.0841    1.2250  -11.0598 O   0  0  0  0  0  0  0  0  0  0  0  0
   -9.4045   -0.5732   -7.9822 O   0  0  0  0  0  0  0  0  0  0  0  0
   -5.0401    1.2762  -10.1269 C   0  0  2  0  0  0  0  0  0  0  0  0
   -3.7206    0.8811  -10.7984 C   0  0  1  0  0  0  0  0  0  0  0  0
   -3.6609   -0.6263  -11.0467 C   0  0  0  0  0  0  0  0  0  0  0  0
   -3.9435   -1.3533   -9.7419 C   0  0  1  0  0  0  0  0  0  0  0  0
   -5.3074   -0.9339   -9.2217 C   0  0  1  0  0  0  0  0  0  0  0  0
   -5.6505   -1.6330   -7.9188 C   0  0  0  0  0  0  0  0  0  0  0  0
   -3.5900    1.6029  -12.1044 N   0  3  0  0  0  0  0  0  0  0  0  0
   -5.8061   -3.1015   -8.2056 N   0  3  0  0  0  0  0  0  0  0  0  0
   -3.9121   -2.7592   -9.9429 O   0  0  0  0  0  0  0  0  0  0  0  0
   -5.3070    0.4826   -8.9756 O   0  0  0  0  0  0  0  0  0  0  0  0
  1  2  1  0  0  0  0
  1 22  1  1  0  0  0
  1 10  1  0  0  0  0
  2  3  1  0  0  0  0
  2  7  1  6  0  0  0
  3  4  1  0  0  0  0
  3  8  1  6  0  0  0
  4  5  1  0  0  0  0
  4  9  1  1  0  0  0
  5  6  1  1  0  0  0
  5 10  1  0  0  0  0
  6 11  1  0  0  0  0
 12 13  1  0  0  0  0
 12 17  1  0  0  0  0
 12 18  1  6  0  0  0
 13 14  1  0  0  0  0
 14 15  1  0  0  0  0
 14 19  1  6  0  0  0
 15 16  1  0  0  0  0
 15 21  1  1  0  0  0
 16 17  1  0  0  0  0
 16 20  1  6  0  0  0
 17 22  1  1  0  0  0
 23 21  1  6  0  0  0
 23 24  1  0  0  0  0
 23 32  1  0  0  0  0
 24 25  1  0  0  0  0
 24 29  1  6  0  0  0
 25 26  1  0  0  0  0
 26 27  1  0  0  0  0
 26 31  1  6  0  0  0
 27 28  1  1  0  0  0
 27 32  1  0  0  0  0
 28 30  1  0  0  0  0
M  CHG  5   8   1  18   1  19   1  29   1  30   1
M  END
>  <CHROM.1>
-84.57215097,179.91897192,-169.77689872,72.02247610,74.46664967,70.99571685
-56.62518352,100.89543401,54.73419890,-179.79083855,158.15044682,173.26021842
50.82229424,58.85289906,-66.21141924,72.81743790,-8.05086305,-0.57698765
-8.73220181,-2.57313306,0.31566315,-0.45998258

>  <Name>
2tob cryst

>  <RI>
0

>  <Rbt.Current_Directory>
/home/itssahil/PROJECTS/Mol_Feturizer/New_Systems/rnas/2tob

>  <Rbt.Executable>
rbdock ($Id: //depot/dev/client3/rdock/2013.1/src/exe/rbdock.cxx#4 $)

>  <Rbt.Library>
libRbt.so (2013.1, Build901 2013/11/27)

>  <Rbt.Parameter_File>
/export/apps/rDock/src/rDock_2013.1_src/data/scripts/dock_solv.prm

>  <Rbt.Receptor>
prm/blind_docking_40.prm

>  <SCORE>
43.3416

>  <SCORE.INTER>
50.3238

>  <SCORE.INTER.CONST>
1

>  <SCORE.INTER.POLAR>
-4.17847

>  <SCORE.INTER.ROT>
6

>  <SCORE.INTER.SOLV>
53.3892

>  <SCORE.INTER.VDW>
22.0811

>  <SCORE.INTER.norm>
1.57262

>  <SCORE.INTRA>
-11.4159

>  <SCORE.INTRA.DIHEDRAL>
-7.35705

>  <SCORE.INTRA.DIHEDRAL.0>
18.4221

>  <SCORE.INTRA.POLAR>
1.20493

>  <SCORE.INTRA.POLAR.0>
-1.57101

>  <SCORE.INTRA.REPUL>
-0.724827

>  <SCORE.INTRA.REPUL.0>
0.730195

>  <SCORE.INTRA.SOLV>
-1.77363

>  <SCORE.INTRA.SOLV.lig_0>
-127.221

>  <SCORE.INTRA.VDW>
-7.32322

>  <SCORE.INTRA.VDW.0>
10.8385

>  <SCORE.INTRA.norm>
-0.356748

>  <SCORE.RESTR>
4.43366

>  <SCORE.RESTR.CAVITY>
4.43366

>  <SCORE.RESTR.norm>
0.138552

>  <SCORE.SYSTEM>
0

>  <SCORE.SYSTEM.CONST>
0

>  <SCORE.SYSTEM.DIHEDRAL>
0

>  <SCORE.SYSTEM.SOLV>
0

>  <SCORE.SYSTEM.norm>
0

>  <SCORE.heavy>
32

>  <SCORE.norm>
1.35442

>  <RMSD>
7.187

$$$$
2tob cryst
 OpenBabel11021811463D
libRbt.so/2013.1/901 2013/11/27
 32 34  0  0  0  0  0  0  0  0999 V2000
  -10.6631   -2.4224   -6.7846 C   0  0  2  0  0  0  0  0  0  0  0  0
  -10.3414   -3.6665   -5.9625 C   0  0  1  0  0  0  0  0  0  0  0  0
  -10.0811   -4.8353   -6.9132 C   0  0  2  0  0  0  0  0  0  0  0  0
  -11.2645   -5.0359   -7.8693 C   0  0  1  0  0  0  0  0  0  0  0  0
  -11.6086   -3.7126   -8.5617 C   0  0  1  0  0  0  0  0  0  0  0  0
  -12.8598   -3.7633   -9.4233 C   0  0  0  0  0  0  0  0  0  0  0  0
   -9.1897   -3.4335   -5.1562 O   0  0  0  0  0  0  0  0  0  0  0  0
   -9.7619   -6.1651   -6.3036 N   0  3  0  0  0  0  0  0  0  0  0  0
  -10.9135   -6.0135   -8.8405 O   0  0  0  0  0  0  0  0  0  0  0  0
  -11.8077   -2.6799   -7.5758 O   0  0  0  0  0  0  0  0  0  0  0  0
  -13.4800   -2.4833   -9.4920 O   0  0  0  0  0  0  0  0  0  0  0  0
  -10.3073    0.1676   -7.7749 C   0  0  2  0  0  0  0  0  0  0  0  0
  -10.2273    1.4933   -8.5438 C   0  0  0  0  0  0  0  0  0  0  0  0
   -8.8175    1.7813   -9.0523 C   0  0  1  0  0  0  0  0  0  0  0  0
   -8.3738    0.6163   -9.9263 C   0  0  2  0  0  0  0  0  0  0  0  0
   -8.2918   -0.6552   -9.0779 C   0  0  1  0  0  0  0  0  0  0  0  0
   -9.6779   -1.0210   -8.5186 C   0  0  1  0  0  0  0  0  0  0  0  0
  -11.7334   -0.1654   -7.4424 N   0  3  0  0  0  0  0  0  0  0  0  0
   -8.7706    3.0781   -9.8035 N   0  3  0  0  0  0  0  0  0  0  0  0
   -7.7845   -1.7198   -9.8725 O   0  0  0  0  0  0  0  0  0  0  0  0
   -7.0937    0.8928  -10.5234 O   0  0  0  0  0  0  0  0  0  0  0  0
   -9.5543   -2.1145   -7.5855 O   0  0  0  0  0  0  0  0  0  0  0  0
   -6.0843    1.1458   -9.5854 C   0  0  2  0  0  0  0  0  0  0  0  0
   -4.7441    1.3429  -10.3017 C   0  0  1  0  0  0  0  0  0  0  0  0
   -4.1884    0.0097  -10.8029 C   0  0  0  0  0  0  0  0  0  0  0  0
   -4.1421   -0.9730   -9.6439 C   0  0  1  0  0  0  0  0  0  0  0  0
   -5.5398   -1.1380   -9.0730 C   0  0  1  0  0  0  0  0  0  0  0  0
   -5.5600   -2.1154   -7.9118 C   0  0  0  0  0  0  0  0  0  0  0  0
   -4.9313    2.2688  -11.4642 N   0  3  0  0  0  0  0  0  0  0  0  0
   -6.6851   -3.0872   -8.1410 N   0  3  0  0  0  0  0  0  0  0  0  0
   -3.6451   -2.2298  -10.0815 O   0  0  0  0  0  0  0  0  0  0  0  0
   -6.0083    0.1320   -8.5889 O   0  0  0  0  0  0  0  0  0  0  0  0
  1  2  1  0  0  0  0
  1 22  1  6  0  0  0
  1 10  1  0  0  0  0
  2  3  1  0  0  0  0
  2  7  1  6  0  0  0
  3  4  1  0  0  0  0
  3  8  1  1  0  0  0
  4  5  1  0  0  0  0
  4  9  1  6  0  0  0
  5  6  1  1  0  0  0
  5 10  1  0  0  0  0
  6 11  1  0  0  0  0
 12 13  1  0  0  0  0
 12 17  1  0  0  0  0
 12 18  1  6  0  0  0
 13 14  1  0  0  0  0
 14 15  1  0  0  0  0
 14 19  1  6  0  0  0
 15 16  1  0  0  0  0
 15 21  1  1  0  0  0
 16 17  1  0  0  0  0
 16 20  1  6  0  0  0
 17 22  1  1  0  0  0
 23 21  1  6  0  0  0
 23 24  1  0  0  0  0
 23 32  1  0  0  0  0
 24 25  1  0  0  0  0
 24 29  1  6  0  0  0
 25 26  1  0  0  0  0
 26 27  1  0  0  0  0
 26 31  1  6  0  0  0
 27 28  1  1  0  0  0
 27 32  1  0  0  0  0
 28 30  1  0  0  0  0
M  CHG  5   8   1  18   1  19   1  29   1  30   1
M  END
>  <CHROM.1>
175.71630544,-175.87506049,-171.41597705,80.53837616,151.59900233,66.95015671
106.77188447,-173.70065867,58.27093917,-115.92136765,46.85938620,176.50339428
-43.62972109,67.67242710,-131.61427502,50.57074713,-8.57648424,-1.48698472
-8.64929227,2.40684467,-0.14999601,2.80657512

>  <Name>
2tob cryst

>  <RI>
0

>  <Rbt.Current_Directory>
/home/itssahil/PROJECTS/Mol_Feturizer/New_Systems/rnas/2tob

>  <Rbt.Executable>
rbdock ($Id: //depot/dev/client3/rdock/2013.1/src/exe/rbdock.cxx#4 $)

>  <Rbt.Library>
libRbt.so (2013.1, Build901 2013/11/27)

>  <Rbt.Parameter_File>
/export/apps/rDock/src/rDock_2013.1_src/data/scripts/dock_solv.prm

>  <Rbt.Receptor>
prm/blind_docking_40.prm

>  <SCORE>
20.0987

>  <SCORE.INTER>
15.0616

>  <SCORE.INTER.CONST>
1

>  <SCORE.INTER.POLAR>
-4.01553

>  <SCORE.INTER.ROT>
6

>  <SCORE.INTER.SOLV>
45.0102

>  <SCORE.INTER.VDW>
0.822754

>  <SCORE.INTER.norm>
0.470674

>  <SCORE.INTRA>
-2.47464

>  <SCORE.INTRA.DIHEDRAL>
3.78473

>  <SCORE.INTRA.DIHEDRAL.0>
18.4221

>  <SCORE.INTRA.POLAR>
-0.236928

>  <SCORE.INTRA.POLAR.0>
-1.57101

>  <SCORE.INTRA.REPUL>
-0.730195

>  <SCORE.INTRA.REPUL.0>
0.730195

>  <SCORE.INTRA.SOLV>
3.34024

>  <SCORE.INTRA.SOLV.lig_0>
-127.221

>  <SCORE.INTRA.VDW>
-1.58059

>  <SCORE.INTRA.VDW.0>
10.8385

>  <SCORE.INTRA.norm>
-0.0773324

>  <SCORE.RESTR>
7.51178

>  <SCORE.RESTR.CAVITY>
7.51178

>  <SCORE.RESTR.norm>
0.234743

>  <SCORE.SYSTEM>
0

>  <SCORE.SYSTEM.CONST>
0

>  <SCORE.SYSTEM.DIHEDRAL>
0

>  <SCORE.SYSTEM.SOLV>
0

>  <SCORE.SYSTEM.norm>
0

>  <SCORE.heavy>
32

>  <SCORE.norm>
0.628084

>  <RMSD>
7.189

$$$$
2tob cryst
 OpenBabel11021811463D
libRbt.so/2013.1/901 2013/11/27
 32 34  0  0  0  0  0  0  0  0999 V2000
   -9.5730   -2.6106   -6.9449 C   0  0  2  0  0  0  0  0  0  0  0  0
   -9.2838   -4.0568   -6.5552 C   0  0  1  0  0  0  0  0  0  0  0  0
  -10.6097   -4.7850   -6.3330 C   0  0  2  0  0  0  0  0  0  0  0  0
  -11.4731   -4.0457   -5.3022 C   0  0  1  0  0  0  0  0  0  0  0  0
  -11.6115   -2.5711   -5.6959 C   0  0  1  0  0  0  0  0  0  0  0  0
  -12.3275   -1.7123   -4.6663 C   0  0  0  0  0  0  0  0  0  0  0  0
   -8.5453   -4.7019   -7.5892 O   0  0  0  0  0  0  0  0  0  0  0  0
  -10.5485   -6.2238   -5.9231 N   0  3  0  0  0  0  0  0  0  0  0  0
  -12.7566   -4.6558   -5.2516 O   0  0  0  0  0  0  0  0  0  0  0  0
  -10.3069   -1.9939   -5.9040 O   0  0  0  0  0  0  0  0  0  0  0  0
  -13.4725   -1.0864   -5.2364 O   0  0  0  0  0  0  0  0  0  0  0  0
  -10.9883   -0.2960   -8.1376 C   0  0  2  0  0  0  0  0  0  0  0  0
  -10.7893    1.1125   -8.7134 C   0  0  0  0  0  0  0  0  0  0  0  0
   -9.3206    1.4194   -8.9928 C   0  0  1  0  0  0  0  0  0  0  0  0
   -8.7800    0.3601   -9.9434 C   0  0  2  0  0  0  0  0  0  0  0  0
   -8.8284   -1.0095   -9.2614 C   0  0  1  0  0  0  0  0  0  0  0  0
  -10.2813   -1.4006   -8.9389 C   0  0  1  0  0  0  0  0  0  0  0  0
  -12.4503   -0.6251   -8.0392 N   0  3  0  0  0  0  0  0  0  0  0  0
   -9.1571    2.7979   -9.5593 N   0  3  0  0  0  0  0  0  0  0  0  0
   -8.2340   -1.9810  -10.1127 O   0  0  0  0  0  0  0  0  0  0  0  0
   -7.4283    0.6705  -10.3282 O   0  0  0  0  0  0  0  0  0  0  0  0
  -10.2974   -2.6055   -8.1453 O   0  0  0  0  0  0  0  0  0  0  0  0
   -6.5791    0.9069   -9.2393 C   0  0  2  0  0  0  0  0  0  0  0  0
   -5.2498    1.4893   -9.7311 C   0  0  1  0  0  0  0  0  0  0  0  0
   -4.3905    0.4123  -10.3937 C   0  0  0  0  0  0  0  0  0  0  0  0
   -4.2464   -0.7615   -9.4385 C   0  0  1  0  0  0  0  0  0  0  0  0
   -5.6255   -1.2938   -9.0898 C   0  0  1  0  0  0  0  0  0  0  0  0
   -5.5474   -2.4751   -8.1398 C   0  0  0  0  0  0  0  0  0  0  0  0
   -5.5194    2.5833  -10.7181 N   0  3  0  0  0  0  0  0  0  0  0  0
   -6.7366   -3.3594   -8.3982 N   0  3  0  0  0  0  0  0  0  0  0  0
   -3.4656   -1.7888  -10.0325 O   0  0  0  0  0  0  0  0  0  0  0  0
   -6.3853   -0.2580   -8.4443 O   0  0  0  0  0  0  0  0  0  0  0  0
  1  2  1  0  0  0  0
  1 22  1  6  0  0  0
  1 10  1  0  0  0  0
  2  3  1  0  0  0  0
  2  7  1  6  0  0  0
  3  4  1  0  0  0  0
  3  8  1  1  0  0  0
  4  5  1  0  0  0  0
  4  9  1  6  0  0  0
  5  6  1  1  0  0  0
  5 10  1  0  0  0  0
  6 11  1  0  0  0  0
 12 13  1  0  0  0  0
 12 17  1  0  0  0  0
 12 18  1  6  0  0  0
 13 14  1  0  0  0  0
 14 15  1  0  0  0  0
 14 19  1  6  0  0  0
 15 16  1  0  0  0  0
 15 21  1  1  0  0  0
 16 17  1  0  0  0  0
 16 20  1  6  0  0  0
 17 22  1  1  0  0  0
 23 21  1  6  0  0  0
 23 24  1  0  0  0  0
 23 32  1  0  0  0  0
 24 25  1  0  0  0  0
 24 29  1  6  0  0  0
 25 26  1  0  0  0  0
 26 27  1  0  0  0  0
 26 31  1  6  0  0  0
 27 28  1  1  0  0  0
 27 32  1  0  0  0  0
 28 30  1  0  0  0  0
M  CHG  5   8   1  18   1  19   1  29   1  30   1
M  END
>  <CHROM.1>
-158.75086879,-50.10596405,-166.56586757,-54.37983188,-122.03902660,178.19151649
153.55542304,72.97886292,52.18493853,-154.49574186,-65.36621476,-169.08641964
80.99012061,-179.51413198,-150.62728368,-50.19145757,-8.80026250,-1.42258797
-8.10291712,-2.47545067,0.36209545,-0.38636873

>  <Name>
2tob cryst

>  <RI>
2.04895e+07

>  <Rbt.Current_Directory>
/home/itssahil/PROJECTS/Mol_Feturizer/New_Systems/rnas/2tob

>  <Rbt.Executable>
rbdock ($Id: //depot/dev/client3/rdock/2013.1/src/exe/rbdock.cxx#4 $)

>  <Rbt.Library>
libRbt.so (2013.1, Build901 2013/11/27)

>  <Rbt.Parameter_File>
/export/apps/rDock/src/rDock_2013.1_src/data/scripts/dock_solv.prm

>  <Rbt.Receptor>
prm/blind_docking_20.prm

>  <SCORE>
-18.0803

>  <SCORE.INTER>
-12.3751

>  <SCORE.INTER.CONST>
1

>  <SCORE.INTER.POLAR>
-6.42658

>  <SCORE.INTER.ROT>
6

>  <SCORE.INTER.SOLV>
41.945

>  <SCORE.INTER.VDW>
-8.40978

>  <SCORE.INTER.norm>
-0.386721

>  <SCORE.INTRA>
-10.0925

>  <SCORE.INTRA.DIHEDRAL>
-0.537924

>  <SCORE.INTRA.DIHEDRAL.0>
18.4221

>  <SCORE.INTRA.POLAR>
0.345327

>  <SCORE.INTRA.POLAR.0>
-1.57101

>  <SCORE.INTRA.REPUL>
-0.61515

>  <SCORE.INTRA.REPUL.0>
0.730195

>  <SCORE.INTRA.SOLV>
6.39798

>  <SCORE.INTRA.SOLV.lig_0>
-127.221

>  <SCORE.INTRA.VDW>
-11.1209

>  <SCORE.INTRA.VDW.0>
10.8385

>  <SCORE.INTRA.norm>
-0.315389

>  <SCORE.RESTR>
4.38725

>  <SCORE.RESTR.CAVITY>
4.38725

>  <SCORE.RESTR.norm>
0.137102

>  <SCORE.SYSTEM>
0

>  <SCORE.SYSTEM.CONST>
0

>  <SCORE.SYSTEM.DIHEDRAL>
0

>  <SCORE.SYSTEM.SOLV>
0

>  <SCORE.SYSTEM.norm>
0

>  <SCORE.heavy>
32

>  <SCORE.norm>
-0.565009

>  <RMSD>
7.233

$$$$
2tob cryst
 OpenBabel11021811463D
libRbt.so/2013.1/901 2013/11/27
 32 34  0  0  0  0  0  0  0  0999 V2000
  -12.6791   -5.6466   -6.3540 C   0  0  2  0  0  0  0  0  0  0  0  0
  -12.1492   -6.3731   -5.1218 C   0  0  1  0  0  0  0  0  0  0  0  0
  -10.7259   -6.8550   -5.4042 C   0  0  2  0  0  0  0  0  0  0  0  0
  -10.6821   -7.7149   -6.6743 C   0  0  1  0  0  0  0  0  0  0  0  0
  -11.3468   -6.9680   -7.8359 C   0  0  1  0  0  0  0  0  0  0  0  0
  -11.4883   -7.7872   -9.1083 C   0  0  0  0  0  0  0  0  0  0  0  0
  -12.1483   -5.4938   -4.0004 O   0  0  0  0  0  0  0  0  0  0  0  0
  -10.0244   -7.6132   -4.3204 N   0  3  0  0  0  0  0  0  0  0  0  0
   -9.3258   -7.9985   -6.9940 O   0  0  0  0  0  0  0  0  0  0  0  0
  -12.6685   -6.5395   -7.4518 O   0  0  0  0  0  0  0  0  0  0  0  0
  -12.3977   -8.8663   -8.9179 O   0  0  0  0  0  0  0  0  0  0  0  0
  -13.5244   -2.8104   -6.9147 C   0  0  2  0  0  0  0  0  0  0  0  0
  -13.9405   -1.5412   -7.6704 C   0  0  0  0  0  0  0  0  0  0  0  0
  -12.7526   -0.6291   -7.9643 C   0  0  1  0  0  0  0  0  0  0  0  0
  -11.7215   -1.4218   -8.7557 C   0  0  2  0  0  0  0  0  0  0  0  0
  -11.1971   -2.5758   -7.8974 C   0  0  1  0  0  0  0  0  0  0  0  0
  -12.3362   -3.5501   -7.5493 C   0  0  1  0  0  0  0  0  0  0  0  0
  -14.6826   -3.7592   -6.7970 N   0  3  0  0  0  0  0  0  0  0  0  0
  -13.1875    0.5984   -8.7074 N   0  3  0  0  0  0  0  0  0  0  0  0
  -10.1653   -3.2554   -8.6013 O   0  0  0  0  0  0  0  0  0  0  0  0
  -10.6312   -0.5718   -9.1564 O   0  0  0  0  0  0  0  0  0  0  0  0
  -11.8660   -4.5317   -6.6021 O   0  0  0  0  0  0  0  0  0  0  0  0
   -9.8225   -0.1619   -8.0884 C   0  0  2  0  0  0  0  0  0  0  0  0
   -8.9777    1.0459   -8.5074 C   0  0  1  0  0  0  0  0  0  0  0  0
   -7.8401    0.6238   -9.4376 C   0  0  0  0  0  0  0  0  0  0  0  0
   -7.0512   -0.4950   -8.7768 C   0  0  1  0  0  0  0  0  0  0  0  0
   -7.9835   -1.6575   -8.4833 C   0  0  1  0  0  0  0  0  0  0  0  0
   -7.2504   -2.8127   -7.8258 C   0  0  0  0  0  0  0  0  0  0  0  0
   -9.8470    2.0428   -9.2103 N   0  3  0  0  0  0  0  0  0  0  0  0
   -7.5448   -4.0597   -8.6141 N   0  3  0  0  0  0  0  0  0  0  0  0
   -5.9948   -0.9222   -9.6250 O   0  0  0  0  0  0  0  0  0  0  0  0
   -9.0174   -1.2222   -7.5843 O   0  0  0  0  0  0  0  0  0  0  0  0
  1  2  1  0  0  0  0
  1 22  1  6  0  0  0
  1 10  1  0  0  0  0
  2  3  1  0  0  0  0
  2  7  1  1  0  0  0
  3  4  1  0  0  0  0
  3  8  1  1  0  0  0
  4  5  1  0  0  0  0
  4  9  1  6  0  0  0
  5  6  1  6  0  0  0
  5 10  1  0  0  0  0
  6 11  1  0  0  0  0
 12 13  1  0  0  0  0
 12 17  1  0  0  0  0
 12 18  1  6  0  0  0
 13 14  1  0  0  0  0
 14 15  1  0  0  0  0
 14 19  1  6  0  0  0
 15 16  1  0  0  0  0
 15 21  1  1  0  0  0
 16 17  1  0  0  0  0
 16 20  1  6  0  0  0
 17 22  1  1  0  0  0
 23 21  1  6  0  0  0
 23 24  1  0  0  0  0
 23 32  1  0  0  0  0
 24 25  1  0  0  0  0
 24 29  1  6  0  0  0
 25 26  1  0  0  0  0
 26 27  1  0  0  0  0
 26 31  1  6  0  0  0
 27 28  1  1  0  0  0
 27 32  1  0  0  0  0
 28 30  1  0  0  0  0
M  CHG  5   8   1  18   1  19   1  29   1  30   1
M  END
>  <CHROM.1>
-167.60539851,66.04959299,-174.06212095,75.32324988,66.43120495,58.14875466
-145.83769541,-126.08259973,69.78025178,-57.44134263,70.32386759,-162.72696494
151.75185253,167.06493507,-127.58834070,84.26261433,-10.71088871,-3.45869659
-7.65656296,1.89220736,-0.18481519,2.89067726

>  <Name>
2tob cryst

>  <RI>
2.9538e+07

>  <Rbt.Current_Directory>
/home/itssahil/PROJECTS/Mol_Feturizer/New_Systems/rnas/2tob

>  <Rbt.Executable>
rbdock ($Id: //depot/dev/client3/rdock/2013.1/src/exe/rbdock.cxx#4 $)

>  <Rbt.Library>
libRbt.so (2013.1, Build901 2013/11/27)

>  <Rbt.Parameter_File>
/export/apps/rDock/src/rDock_2013.1_src/data/scripts/dock_solv.prm

>  <Rbt.Receptor>
prm/pocket_docking_2.prm

>  <SCORE>
-47.5954

>  <SCORE.INTER>
-39.2906

>  <SCORE.INTER.CONST>
1

>  <SCORE.INTER.POLAR>
-7.68065

>  <SCORE.INTER.ROT>
6

>  <SCORE.INTER.SOLV>
37.3172

>  <SCORE.INTER.VDW>
-20.6306

>  <SCORE.INTER.norm>
-1.22783

>  <SCORE.INTRA>
-12.5801

>  <SCORE.INTRA.DIHEDRAL>
0.816076

>  <SCORE.INTRA.DIHEDRAL.0>
18.4221

>  <SCORE.INTRA.POLAR>
0.552408

>  <SCORE.INTRA.POLAR.0>
-1.57101

>  <SCORE.INTRA.REPUL>
-0.730195

>  <SCORE.INTRA.REPUL.0>
0.730195

>  <SCORE.INTRA.SOLV>
-2.36094

>  <SCORE.INTRA.SOLV.lig_0>
-127.221

>  <SCORE.INTRA.VDW>
-10.0349

>  <SCORE.INTRA.VDW.0>
10.8385

>  <SCORE.INTRA.norm>
-0.393129

>  <SCORE.RESTR>
4.27531

>  <SCORE.RESTR.CAVITY>
4.27531

>  <SCORE.RESTR.norm>
0.133603

>  <SCORE.SYSTEM>
0

>  <SCORE.SYSTEM.CONST>
0

>  <SCORE.SYSTEM.DIHEDRAL>
0

>  <SCORE.SYSTEM.SOLV>
0

>  <SCORE.SYSTEM.norm>
0

>  <SCORE.heavy>
32

>  <SCORE.norm>
-1.48736

>  <RMSD>
7.254

$$$$
2tob cryst
 OpenBabel11021811463D
libRbt.so/2013.1/901 2013/11/27
 32 34  0  0  0  0  0  0  0  0999 V2000
  -10.9433   -1.8368   -6.8973 C   0  0  2  0  0  0  0  0  0  0  0  0
  -10.5109   -2.9564   -5.9557 C   0  0  1  0  0  0  0  0  0  0  0  0
  -11.0679   -4.2827   -6.4737 C   0  0  2  0  0  0  0  0  0  0  0  0
  -12.5896   -4.2030   -6.6541 C   0  0  1  0  0  0  0  0  0  0  0  0
  -12.9531   -2.9810   -7.5046 C   0  0  1  0  0  0  0  0  0  0  0  0
  -14.4461   -2.7234   -7.6256 C   0  0  0  0  0  0  0  0  0  0  0  0
   -9.0886   -3.0201   -5.8949 O   0  0  0  0  0  0  0  0  0  0  0  0
  -10.7709   -5.5157   -5.6779 N   0  3  0  0  0  0  0  0  0  0  0  0
  -13.0420   -5.3898   -7.2938 O   0  0  0  0  0  0  0  0  0  0  0  0
  -12.3571   -1.7956   -6.9407 O   0  0  0  0  0  0  0  0  0  0  0  0
  -14.8066   -1.5132   -6.9675 O   0  0  0  0  0  0  0  0  0  0  0  0
  -10.9253    0.2533   -8.4260 C   0  0  2  0  0  0  0  0  0  0  0  0
  -10.5838    1.5831   -9.1118 C   0  0  0  0  0  0  0  0  0  0  0  0
   -9.0806    1.7638   -9.3039 C   0  0  1  0  0  0  0  0  0  0  0  0
   -8.5530    0.5839  -10.1085 C   0  0  2  0  0  0  0  0  0  0  0  0
   -8.7492   -0.7067   -9.3093 C   0  0  1  0  0  0  0  0  0  0  0  0
  -10.2460   -0.9680   -9.0653 C   0  0  1  0  0  0  0  0  0  0  0  0
  -12.4107    0.0325   -8.4109 N   0  3  0  0  0  0  0  0  0  0  0  0
   -8.7773    3.0671   -9.9804 N   0  3  0  0  0  0  0  0  0  0  0  0
   -8.1687   -1.7935  -10.0192 O   0  0  0  0  0  0  0  0  0  0  0  0
   -7.1584    0.7657  -10.4147 O   0  0  0  0  0  0  0  0  0  0  0  0
  -10.4060   -2.0865   -8.1680 O   0  0  0  0  0  0  0  0  0  0  0  0
   -6.3492    0.8861   -9.2775 C   0  0  2  0  0  0  0  0  0  0  0  0
   -4.9123    1.2195   -9.6924 C   0  0  1  0  0  0  0  0  0  0  0  0
   -4.2117   -0.0069  -10.2779 C   0  0  0  0  0  0  0  0  0  0  0  0
   -4.3294   -1.1595   -9.2938 C   0  0  1  0  0  0  0  0  0  0  0  0
   -5.7979   -1.4393   -9.0257 C   0  0  1  0  0  0  0  0  0  0  0  0
   -5.9816   -2.5884   -8.0510 C   0  0  0  0  0  0  0  0  0  0  0  0
   -4.9297    2.3140  -10.7149 N   0  3  0  0  0  0  0  0  0  0  0  0
   -6.6149   -2.0415   -6.8010 N   0  3  0  0  0  0  0  0  0  0  0  0
   -3.7015   -2.3216   -9.8168 O   0  0  0  0  0  0  0  0  0  0  0  0
   -6.4068   -0.2710   -8.4502 O   0  0  0  0  0  0  0  0  0  0  0  0
  1  2  1  0  0  0  0
  1 22  1  6  0  0  0
  1 10  1  0  0  0  0
  2  3  1  0  0  0  0
  2  7  1  6  0  0  0
  3  4  1  0  0  0  0
  3  8  1  1  0  0  0
  4  5  1  0  0  0  0
  4  9  1  6  0  0  0
  5  6  1  1  0  0  0
  5 10  1  0  0  0  0
  6 11  1  0  0  0  0
 12 13  1  0  0  0  0
 12 17  1  0  0  0  0
 12 18  1  6  0  0  0
 13 14  1  0  0  0  0
 14 15  1  0  0  0  0
 14 19  1  6  0  0  0
 15 16  1  0  0  0  0
 15 21  1  1  0  0  0
 16 17  1  0  0  0  0
 16 20  1  6  0  0  0
 17 22  1  1  0  0  0
 23 21  1  6  0  0  0
 23 24  1  0  0  0  0
 23 32  1  0  0  0  0
 24 25  1  0  0  0  0
 24 29  1  6  0  0  0
 25 26  1  0  0  0  0
 26 27  1  0  0  0  0
 26 31  1  6  0  0  0
 27 28  1  1  0  0  0
 27 32  1  0  0  0  0
 28 30  1  0  0  0  0
M  CHG  5   8   1  18   1  19   1  29   1  30   1
M  END
>  <CHROM.1>
-157.16038213,179.65893394,-54.63390693,178.27125525,113.13377128,171.23528570
31.97591316,158.80239108,59.60225632,-167.26746398,-8.08381305,-174.18953186
77.52450309,163.90651379,114.93169426,17.78666192,-9.10488181,-1.24606644
-8.34857065,2.59390285,-0.14117375,2.68515831

>  <Name>
2tob cryst

>  <RI>
0

>  <Rbt.Current_Directory>
/home/itssahil/PROJECTS/Mol_Feturizer/New_Systems/rnas/2tob

>  <Rbt.Executable>
rbdock ($Id: //depot/dev/client3/rdock/2013.1/src/exe/rbdock.cxx#4 $)

>  <Rbt.Library>
libRbt.so (2013.1, Build901 2013/11/27)

>  <Rbt.Parameter_File>
/export/apps/rDock/src/rDock_2013.1_src/data/scripts/dock_solv.prm

>  <Rbt.Receptor>
prm/blind_docking_100.prm

>  <SCORE>
-5.13014

>  <SCORE.INTER>
-10.4501

>  <SCORE.INTER.CONST>
1

>  <SCORE.INTER.POLAR>
-6.27352

>  <SCORE.INTER.ROT>
6

>  <SCORE.INTER.SOLV>
42.3487

>  <SCORE.INTER.VDW>
-7.77123

>  <SCORE.INTER.norm>
-0.326565

>  <SCORE.INTRA>
-0.525792

>  <SCORE.INTRA.DIHEDRAL>
9.98325

>  <SCORE.INTRA.DIHEDRAL.0>
18.4221

>  <SCORE.INTRA.POLAR>
-0.329626

>  <SCORE.INTRA.POLAR.0>
-1.57101

>  <SCORE.INTRA.REPUL>
-0.730195

>  <SCORE.INTRA.REPUL.0>
0.730195

>  <SCORE.INTRA.SOLV>
3.70912

>  <SCORE.INTRA.SOLV.lig_0>
-127.221

>  <SCORE.INTRA.VDW>
-2.60027

>  <SCORE.INTRA.VDW.0>
10.8385

>  <SCORE.INTRA.norm>
-0.016431

>  <SCORE.RESTR>
5.84573

>  <SCORE.RESTR.CAVITY>
5.84573

>  <SCORE.RESTR.norm>
0.182679

>  <SCORE.SYSTEM>
0

>  <SCORE.SYSTEM.CONST>
0

>  <SCORE.SYSTEM.DIHEDRAL>
0

>  <SCORE.SYSTEM.SOLV>
0

>  <SCORE.SYSTEM.norm>
0

>  <SCORE.heavy>
32

>  <SCORE.norm>
-0.160317

>  <RMSD>
7.262

$$$$
2tob cryst
 OpenBabel11021811463D
libRbt.so/2013.1/901 2013/11/27
 32 34  0  0  0  0  0  0  0  0999 V2000
  -12.3968   -1.4106   -8.1370 C   0  0  2  0  0  0  0  0  0  0  0  0
  -13.7958   -1.4590   -8.7432 C   0  0  1  0  0  0  0  0  0  0  0  0
  -14.5582   -2.6376   -8.1371 C   0  0  2  0  0  0  0  0  0  0  0  0
  -13.7778   -3.9459   -8.3210 C   0  0  1  0  0  0  0  0  0  0  0  0
  -12.3445   -3.7780   -7.8048 C   0  0  1  0  0  0  0  0  0  0  0  0
  -11.4391   -4.9694   -8.0709 C   0  0  0  0  0  0  0  0  0  0  0  0
  -14.4878   -0.2436   -8.4697 O   0  0  0  0  0  0  0  0  0  0  0  0
  -15.9576   -2.8750   -8.6138 N   0  3  0  0  0  0  0  0  0  0  0  0
  -14.4339   -4.9810   -7.5996 O   0  0  0  0  0  0  0  0  0  0  0  0
  -11.7324   -2.6274   -8.4211 O   0  0  0  0  0  0  0  0  0  0  0  0
  -10.1610   -4.7782   -7.4729 O   0  0  0  0  0  0  0  0  0  0  0  0
  -11.2916   -2.7543   -5.3641 C   0  0  2  0  0  0  0  0  0  0  0  0
   -9.9448   -3.1382   -4.7366 C   0  0  0  0  0  0  0  0  0  0  0  0
   -8.7708   -2.8482   -5.6676 C   0  0  1  0  0  0  0  0  0  0  0  0
   -8.8005   -1.3706   -6.0336 C   0  0  2  0  0  0  0  0  0  0  0  0
  -10.0790   -1.0653   -6.8181 C   0  0  1  0  0  0  0  0  0  0  0  0
  -11.3214   -1.3342   -5.9509 C   0  0  1  0  0  0  0  0  0  0  0  0
  -12.4004   -2.8903   -4.3604 N   0  3  0  0  0  0  0  0  0  0  0  0
   -7.4693   -3.2273   -5.0270 N   0  3  0  0  0  0  0  0  0  0  0  0
  -10.0586    0.2917   -7.2425 O   0  0  0  0  0  0  0  0  0  0  0  0
   -7.6461   -1.0225   -6.8195 O   0  0  0  0  0  0  0  0  0  0  0  0
  -12.5134   -1.2098   -6.7544 O   0  0  0  0  0  0  0  0  0  0  0  0
   -7.7513   -1.4036   -8.1635 C   0  0  2  0  0  0  0  0  0  0  0  0
   -6.3632   -1.7329   -8.7227 C   0  0  1  0  0  0  0  0  0  0  0  0
   -5.5524   -0.4593   -8.9639 C   0  0  0  0  0  0  0  0  0  0  0  0
   -6.3681    0.4893   -9.8275 C   0  0  1  0  0  0  0  0  0  0  0  0
   -7.6815    0.7959   -9.1292 C   0  0  1  0  0  0  0  0  0  0  0  0
   -8.5412    1.7464   -9.9427 C   0  0  0  0  0  0  0  0  0  0  0  0
   -5.6304   -2.6093   -7.7540 N   0  3  0  0  0  0  0  0  0  0  0  0
   -8.2431    3.1488   -9.4872 N   0  3  0  0  0  0  0  0  0  0  0  0
   -5.6477    1.6921  -10.0563 O   0  0  0  0  0  0  0  0  0  0  0  0
   -8.4207   -0.4242   -8.9505 O   0  0  0  0  0  0  0  0  0  0  0  0
  1  2  1  0  0  0  0
  1 22  1  1  0  0  0
  1 10  1  0  0  0  0
  2  3  1  0  0  0  0
  2  7  1  1  0  0  0
  3  4  1  0  0  0  0
  3  8  1  6  0  0  0
  4  5  1  0  0  0  0
  4  9  1  1  0  0  0
  5  6  1  6  0  0  0
  5 10  1  0  0  0  0
  6 11  1  0  0  0  0
 12 13  1  0  0  0  0
 12 17  1  0  0  0  0
 12 18  1  1  0  0  0
 13 14  1  0  0  0  0
 14 15  1  0  0  0  0
 14 19  1  1  0  0  0
 15 16  1  0  0  0  0
 15 21  1  6  0  0  0
 16 17  1  0  0  0  0
 16 20  1  1  0  0  0
 17 22  1  6  0  0  0
 23 21  1  1  0  0  0
 23 24  1  0  0  0  0
 23 32  1  0  0  0  0
 24 25  1  0  0  0  0
 24 29  1  1  0  0  0
 25 26  1  0  0  0  0
 26 27  1  0  0  0  0
 26 31  1  1  0  0  0
 27 28  1  6  0  0  0
 27 32  1  0  0  0  0
 28 30  1  0  0  0  0
M  CHG  5   8   1  18   1  19   1  29   1  30   1
M  END
>  <CHROM.1>
170.77014505,-125.12123029,-176.95942992,75.43835252,-175.51584912,79.35890632
69.36681550,53.91750709,78.50144369,94.72470509,-96.70755319,-148.87270132
56.22120617,-55.85390817,-92.70408013,82.56230460,-10.18652729,-1.64914240
-7.66638956,2.69285409,0.13560236,2.50622035

>  <Name>
2tob cryst

>  <RI>
0

>  <Rbt.Current_Directory>
/home/itssahil/PROJECTS/Mol_Feturizer/New_Systems/rnas/2tob

>  <Rbt.Executable>
rbdock ($Id: //depot/dev/client3/rdock/2013.1/src/exe/rbdock.cxx#4 $)

>  <Rbt.Library>
libRbt.so (2013.1, Build901 2013/11/27)

>  <Rbt.Parameter_File>
/export/apps/rDock/src/rDock_2013.1_src/data/scripts/dock_solv.prm

>  <Rbt.Receptor>
prm/blind_docking_80.prm

>  <SCORE>
-26.4142

>  <SCORE.INTER>
-29.1758

>  <SCORE.INTER.CONST>
1

>  <SCORE.INTER.POLAR>
-5.57963

>  <SCORE.INTER.ROT>
6

>  <SCORE.INTER.SOLV>
45.7909

>  <SCORE.INTER.VDW>
-23.7154

>  <SCORE.INTER.norm>
-0.911744

>  <SCORE.INTRA>
-3.61873

>  <SCORE.INTRA.DIHEDRAL>
11.3279

>  <SCORE.INTRA.DIHEDRAL.0>
18.4221

>  <SCORE.INTRA.POLAR>
0.971288

>  <SCORE.INTRA.POLAR.0>
-1.57101

>  <SCORE.INTRA.REPUL>
-0.550062

>  <SCORE.INTRA.REPUL.0>
0.730195

>  <SCORE.INTRA.SOLV>
-1.75966

>  <SCORE.INTRA.SOLV.lig_0>
-127.221

>  <SCORE.INTRA.VDW>
-8.95493

>  <SCORE.INTRA.VDW.0>
10.8385

>  <SCORE.INTRA.norm>
-0.113085

>  <SCORE.RESTR>
6.38036

>  <SCORE.RESTR.CAVITY>
6.38036

>  <SCORE.RESTR.norm>
0.199386

>  <SCORE.SYSTEM>
0

>  <SCORE.SYSTEM.CONST>
0

>  <SCORE.SYSTEM.DIHEDRAL>
0

>  <SCORE.SYSTEM.SOLV>
0

>  <SCORE.SYSTEM.norm>
0

>  <SCORE.heavy>
32

>  <SCORE.norm>
-0.825443

>  <RMSD>
7.296

$$$$
2tob cryst
 OpenBabel11021811463D
libRbt.so/2013.1/901 2013/11/27
 32 34  0  0  0  0  0  0  0  0999 V2000
  -12.3508   -1.6892   -8.3101 C   0  0  2  0  0  0  0  0  0  0  0  0
  -13.7400   -1.7740   -8.9347 C   0  0  1  0  0  0  0  0  0  0  0  0
  -14.5620   -2.8160   -8.1757 C   0  0  2  0  0  0  0  0  0  0  0  0
  -13.8347   -4.1668   -8.1416 C   0  0  1  0  0  0  0  0  0  0  0  0
  -12.4048   -3.9788   -7.6232 C   0  0  1  0  0  0  0  0  0  0  0  0
  -11.5463   -5.2315   -7.6849 C   0  0  0  0  0  0  0  0  0  0  0  0
  -14.3844   -0.5050   -8.8642 O   0  0  0  0  0  0  0  0  0  0  0  0
  -15.9617   -3.0679   -8.6439 N   0  3  0  0  0  0  0  0  0  0  0  0
  -14.5465   -5.0537   -7.2878 O   0  0  0  0  0  0  0  0  0  0  0  0
  -11.7339   -2.9601   -8.3915 O   0  0  0  0  0  0  0  0  0  0  0  0
  -11.7080   -5.8957   -8.9341 O   0  0  0  0  0  0  0  0  0  0  0  0
  -11.3083   -2.8057   -5.5300 C   0  0  2  0  0  0  0  0  0  0  0  0
   -9.9877   -3.1731   -4.8400 C   0  0  0  0  0  0  0  0  0  0  0  0
   -8.7751   -2.8687   -5.7154 C   0  0  1  0  0  0  0  0  0  0  0  0
   -8.8058   -1.3916   -6.0833 C   0  0  2  0  0  0  0  0  0  0  0  0
  -10.0499   -1.1020   -6.9268 C   0  0  1  0  0  0  0  0  0  0  0  0
  -11.3281   -1.3861   -6.1184 C   0  0  1  0  0  0  0  0  0  0  0  0
  -12.4610   -2.9553   -4.5791 N   0  3  0  0  0  0  0  0  0  0  0  0
   -7.5004   -3.2318   -5.0144 N   0  3  0  0  0  0  0  0  0  0  0  0
  -10.0264    0.2552   -7.3505 O   0  0  0  0  0  0  0  0  0  0  0  0
   -7.6203   -1.0294   -6.8146 O   0  0  0  0  0  0  0  0  0  0  0  0
  -12.4826   -1.2763   -6.9767 O   0  0  0  0  0  0  0  0  0  0  0  0
   -7.7061   -1.3026   -8.1859 C   0  0  2  0  0  0  0  0  0  0  0  0
   -6.3291   -1.7040   -8.7252 C   0  0  1  0  0  0  0  0  0  0  0  0
   -5.4109   -0.4875   -8.8453 C   0  0  0  0  0  0  0  0  0  0  0  0
   -6.1159    0.5848   -9.6602 C   0  0  1  0  0  0  0  0  0  0  0  0
   -7.4254    0.9474   -8.9818 C   0  0  1  0  0  0  0  0  0  0  0  0
   -8.1758    2.0217   -9.7479 C   0  0  0  0  0  0  0  0  0  0  0  0
   -5.7048   -2.7054   -7.8027 N   0  3  0  0  0  0  0  0  0  0  0  0
   -9.6315    1.6432   -9.7748 N   0  3  0  0  0  0  0  0  0  0  0  0
   -5.2938    1.7375   -9.7762 O   0  0  0  0  0  0  0  0  0  0  0  0
   -8.2658   -0.2172   -8.9176 O   0  0  0  0  0  0  0  0  0  0  0  0
  1  2  1  0  0  0  0
  1 22  1  1  0  0  0
  1 10  1  0  0  0  0
  2  3  1  0  0  0  0
  2  7  1  1  0  0  0
  3  4  1  0  0  0  0
  3  8  1  6  0  0  0
  4  5  1  0  0  0  0
  4  9  1  1  0  0  0
  5  6  1  6  0  0  0
  5 10  1  0  0  0  0
  6 11  1  0  0  0  0
 12 13  1  0  0  0  0
 12 17  1  0  0  0  0
 12 18  1  1  0  0  0
 13 14  1  0  0  0  0
 14 15  1  0  0  0  0
 14 19  1  1  0  0  0
 15 16  1  0  0  0  0
 15 21  1  6  0  0  0
 16 17  1  0  0  0  0
 16 20  1  1  0  0  0
 17 22  1  6  0  0  0
 23 21  1  1  0  0  0
 23 24  1  0  0  0  0
 23 32  1  0  0  0  0
 24 25  1  0  0  0  0
 24 29  1  1  0  0  0
 25 26  1  0  0  0  0
 26 27  1  0  0  0  0
 26 31  1  1  0  0  0
 27 28  1  6  0  0  0
 27 32  1  0  0  0  0
 28 30  1  0  0  0  0
M  CHG  5   8   1  18   1  19   1  29   1  30   1
M  END
>  <CHROM.1>
167.77406981,-60.28870168,-47.66481163,80.46598598,44.56136801,-71.08348701
-170.99057800,-70.23888712,83.92874433,23.11336082,-86.35138827,-146.29447248
-71.27775787,172.26488932,137.54293890,139.20907664,-10.25457229,-1.80529278
-7.73496793,2.70030537,0.18040213,2.50902946

>  <Name>
2tob cryst

>  <RI>
2.04895e+07

>  <Rbt.Current_Directory>
/home/itssahil/PROJECTS/Mol_Feturizer/New_Systems/rnas/2tob

>  <Rbt.Executable>
rbdock ($Id: //depot/dev/client3/rdock/2013.1/src/exe/rbdock.cxx#4 $)

>  <Rbt.Library>
libRbt.so (2013.1, Build901 2013/11/27)

>  <Rbt.Parameter_File>
/export/apps/rDock/src/rDock_2013.1_src/data/scripts/dock_solv.prm

>  <Rbt.Receptor>
prm/blind_docking_20.prm

>  <SCORE>
-28.1638

>  <SCORE.INTER>
-27.1856

>  <SCORE.INTER.CONST>
1

>  <SCORE.INTER.POLAR>
-5.80502

>  <SCORE.INTER.ROT>
6

>  <SCORE.INTER.SOLV>
41.4634

>  <SCORE.INTER.VDW>
-20.1948

>  <SCORE.INTER.norm>
-0.849551

>  <SCORE.INTRA>
-3.95396

>  <SCORE.INTRA.DIHEDRAL>
8.62361

>  <SCORE.INTRA.DIHEDRAL.0>
18.4221

>  <SCORE.INTRA.POLAR>
0.215401

>  <SCORE.INTRA.POLAR.0>
-1.57101

>  <SCORE.INTRA.REPUL>
-0.730195

>  <SCORE.INTRA.REPUL.0>
0.730195

>  <SCORE.INTRA.SOLV>
0.48317

>  <SCORE.INTRA.SOLV.lig_0>
-127.221

>  <SCORE.INTRA.VDW>
-5.58874

>  <SCORE.INTRA.VDW.0>
10.8385

>  <SCORE.INTRA.norm>
-0.123561

>  <SCORE.RESTR>
2.97579

>  <SCORE.RESTR.CAVITY>
2.97579

>  <SCORE.RESTR.norm>
0.0929934

>  <SCORE.SYSTEM>
0

>  <SCORE.SYSTEM.CONST>
0

>  <SCORE.SYSTEM.DIHEDRAL>
0

>  <SCORE.SYSTEM.SOLV>
0

>  <SCORE.SYSTEM.norm>
0

>  <SCORE.heavy>
32

>  <SCORE.norm>
-0.880119

>  <RMSD>
7.325

$$$$
2tob cryst
 OpenBabel11021811463D
libRbt.so/2013.1/901 2013/11/27
 32 34  0  0  0  0  0  0  0  0999 V2000
   -9.9451   -0.3560   -7.5069 C   0  0  2  0  0  0  0  0  0  0  0  0
   -9.1643   -0.9213   -6.3246 C   0  0  1  0  0  0  0  0  0  0  0  0
   -8.9988   -2.4293   -6.5153 C   0  0  2  0  0  0  0  0  0  0  0  0
  -10.3606   -3.1074   -6.7159 C   0  0  1  0  0  0  0  0  0  0  0  0
  -11.1370   -2.4028   -7.8338 C   0  0  1  0  0  0  0  0  0  0  0  0
  -12.5606   -2.9022   -8.0187 C   0  0  0  0  0  0  0  0  0  0  0  0
   -7.8840   -0.3008   -6.2444 O   0  0  0  0  0  0  0  0  0  0  0  0
   -8.2699   -3.1856   -5.4483 N   0  3  0  0  0  0  0  0  0  0  0  0
  -10.1516   -4.4719   -7.0575 O   0  0  0  0  0  0  0  0  0  0  0  0
  -11.2097   -0.9884   -7.5649 O   0  0  0  0  0  0  0  0  0  0  0  0
  -12.9254   -2.8949   -9.3952 O   0  0  0  0  0  0  0  0  0  0  0  0
   -8.8963    1.8023   -8.5643 C   0  0  2  0  0  0  0  0  0  0  0  0
   -8.2264    3.0460   -9.1639 C   0  0  0  0  0  0  0  0  0  0  0  0
   -6.8157    2.7549   -9.6685 C   0  0  1  0  0  0  0  0  0  0  0  0
   -6.8931    1.6302  -10.6918 C   0  0  2  0  0  0  0  0  0  0  0  0
   -7.3961    0.3550  -10.0107 C   0  0  1  0  0  0  0  0  0  0  0  0
   -8.8206    0.5600   -9.4660 C   0  0  1  0  0  0  0  0  0  0  0  0
  -10.3356    2.0819   -8.2395 N   0  3  0  0  0  0  0  0  0  0  0  0
   -6.1888    3.9849  -10.2534 N   0  3  0  0  0  0  0  0  0  0  0  0
   -7.3752   -0.7174  -10.9442 O   0  0  0  0  0  0  0  0  0  0  0  0
   -5.6016    1.3960  -11.2823 O   0  0  0  0  0  0  0  0  0  0  0  0
   -9.2117   -0.5848   -8.6797 O   0  0  0  0  0  0  0  0  0  0  0  0
   -4.5590    1.3630  -10.3471 C   0  0  2  0  0  0  0  0  0  0  0  0
   -3.2845    0.8244  -11.0056 C   0  0  1  0  0  0  0  0  0  0  0  0
   -3.3749   -0.6865  -11.2218 C   0  0  0  0  0  0  0  0  0  0  0  0
   -3.7301   -1.3537   -9.9029 C   0  0  1  0  0  0  0  0  0  0  0  0
   -5.0461   -0.7897   -9.3964 C   0  0  1  0  0  0  0  0  0  0  0  0
   -5.4588   -1.4232   -8.0802 C   0  0  0  0  0  0  0  0  0  0  0  0
   -3.0809    1.5014  -12.3261 N   0  3  0  0  0  0  0  0  0  0  0  0
   -5.9325   -2.8222   -8.3654 N   0  3  0  0  0  0  0  0  0  0  0  0
   -3.8385   -2.7598  -10.0741 O   0  0  0  0  0  0  0  0  0  0  0  0
   -4.9050    0.6246   -9.1802 O   0  0  0  0  0  0  0  0  0  0  0  0
  1  2  1  0  0  0  0
  1 22  1  6  0  0  0
  1 10  1  0  0  0  0
  2  3  1  0  0  0  0
  2  7  1  6  0  0  0
  3  4  1  0  0  0  0
  3  8  1  1  0  0  0
  4  5  1  0  0  0  0
  4  9  1  6  0  0  0
  5  6  1  1  0  0  0
  5 10  1  0  0  0  0
  6 11  1  0  0  0  0
 12 13  1  0  0  0  0
 12 17  1  0  0  0  0
 12 18  1  6  0  0  0
 13 14  1  0  0  0  0
 14 15  1  0  0  0  0
 14 19  1  6  0  0  0
 15 16  1  0  0  0  0
 15 21  1  1  0  0  0
 16 17  1  0  0  0  0
 16 20  1  6  0  0  0
 17 22  1  1  0  0  0
 23 21  1  6  0  0  0
 23 24  1  0  0  0  0
 23 32  1  0  0  0  0
 24 25  1  0  0  0  0
 24 29  1  6  0  0  0
 25 26  1  0  0  0  0
 26 27  1  0  0  0  0
 26 31  1  6  0  0  0
 27 28  1  1  0  0  0
 27 32  1  0  0  0  0
 28 30  1  0  0  0  0
M  CHG  5   8   1  18   1  19   1  29   1  30   1
M  END
>  <CHROM.1>
-120.73374470,67.75026347,38.12409314,-167.90073420,-144.18652444,73.12474467
79.13485980,-14.17044291,44.92684783,-95.05764128,19.42153508,168.19197228
178.22032439,-36.45681342,-73.55045762,-68.33024163,-7.56086863,-0.44602922
-8.92735429,2.57517427,-0.31320718,2.79018344

>  <Name>
2tob cryst

>  <RI>
0

>  <Rbt.Current_Directory>
/home/itssahil/PROJECTS/Mol_Feturizer/New_Systems/rnas/2tob

>  <Rbt.Executable>
rbdock ($Id: //depot/dev/client3/rdock/2013.1/src/exe/rbdock.cxx#4 $)

>  <Rbt.Library>
libRbt.so (2013.1, Build901 2013/11/27)

>  <Rbt.Parameter_File>
/export/apps/rDock/src/rDock_2013.1_src/data/scripts/dock_solv.prm

>  <Rbt.Receptor>
prm/blind_docking_60.prm

>  <SCORE>
98.2805

>  <SCORE.INTER>
81.5902

>  <SCORE.INTER.CONST>
1

>  <SCORE.INTER.POLAR>
-6.57763

>  <SCORE.INTER.ROT>
6

>  <SCORE.INTER.SOLV>
49.943

>  <SCORE.INTER.VDW>
52.0713

>  <SCORE.INTER.norm>
2.54969

>  <SCORE.INTRA>
9.50622

>  <SCORE.INTRA.DIHEDRAL>
14.1517

>  <SCORE.INTRA.DIHEDRAL.0>
18.4221

>  <SCORE.INTRA.POLAR>
0.677165

>  <SCORE.INTRA.POLAR.0>
-1.57101

>  <SCORE.INTRA.REPUL>
-0.571918

>  <SCORE.INTRA.REPUL.0>
0.730195

>  <SCORE.INTRA.SOLV>
0.207832

>  <SCORE.INTRA.SOLV.lig_0>
-127.221

>  <SCORE.INTRA.VDW>
2.88371

>  <SCORE.INTRA.VDW.0>
10.8385

>  <SCORE.INTRA.norm>
0.297069

>  <SCORE.RESTR>
7.18411

>  <SCORE.RESTR.CAVITY>
7.18411

>  <SCORE.RESTR.norm>
0.224503

>  <SCORE.SYSTEM>
0

>  <SCORE.SYSTEM.CONST>
0

>  <SCORE.SYSTEM.DIHEDRAL>
0

>  <SCORE.SYSTEM.SOLV>
0

>  <SCORE.SYSTEM.norm>
0

>  <SCORE.heavy>
32

>  <SCORE.norm>
3.07127

>  <RMSD>
7.328

$$$$
2tob cryst
 OpenBabel11021811463D
libRbt.so/2013.1/901 2013/11/27
 32 34  0  0  0  0  0  0  0  0999 V2000
  -10.6776   -5.3795   -7.0962 C   0  0  2  0  0  0  0  0  0  0  0  0
  -10.8530   -6.6293   -7.9531 C   0  0  1  0  0  0  0  0  0  0  0  0
  -11.7615   -7.6129   -7.2150 C   0  0  2  0  0  0  0  0  0  0  0  0
  -11.2143   -7.9165   -5.8140 C   0  0  1  0  0  0  0  0  0  0  0  0
  -10.9437   -6.6085   -5.0625 C   0  0  1  0  0  0  0  0  0  0  0  0
  -10.2626   -6.7890   -3.7158 C   0  0  0  0  0  0  0  0  0  0  0  0
  -11.4336   -6.2827   -9.2075 O   0  0  0  0  0  0  0  0  0  0  0  0
  -12.0495   -8.9224   -7.8815 N   0  3  0  0  0  0  0  0  0  0  0  0
  -12.1693   -8.6944   -5.1033 O   0  0  0  0  0  0  0  0  0  0  0  0
  -10.1016   -5.7504   -5.8580 O   0  0  0  0  0  0  0  0  0  0  0  0
  -10.2334   -5.5619   -2.9940 O   0  0  0  0  0  0  0  0  0  0  0  0
  -13.6128   -3.0924   -7.2727 C   0  0  2  0  0  0  0  0  0  0  0  0
  -13.9787   -1.7576   -7.9357 C   0  0  0  0  0  0  0  0  0  0  0  0
  -12.8080   -0.7784   -7.9460 C   0  0  1  0  0  0  0  0  0  0  0  0
  -11.6353   -1.4379   -8.6586 C   0  0  2  0  0  0  0  0  0  0  0  0
  -11.1829   -2.6669   -7.8660 C   0  0  1  0  0  0  0  0  0  0  0  0
  -12.3100   -3.7126   -7.8020 C   0  0  1  0  0  0  0  0  0  0  0  0
  -14.7268   -4.0862   -7.4352 N   0  3  0  0  0  0  0  0  0  0  0  0
  -13.1922    0.5129   -8.6040 N   0  3  0  0  0  0  0  0  0  0  0  0
  -10.0278   -3.2244   -8.4798 O   0  0  0  0  0  0  0  0  0  0  0  0
  -10.5426   -0.5112   -8.7954 O   0  0  0  0  0  0  0  0  0  0  0  0
  -11.9326   -4.7827   -6.9108 O   0  0  0  0  0  0  0  0  0  0  0  0
   -9.8183   -0.3248   -7.6108 C   0  0  2  0  0  0  0  0  0  0  0  0
   -9.0837    1.0192   -7.6544 C   0  0  1  0  0  0  0  0  0  0  0  0
   -7.8765    0.9548   -8.5904 C   0  0  0  0  0  0  0  0  0  0  0  0
   -7.0044   -0.2245   -8.1911 C   0  0  1  0  0  0  0  0  0  0  0  0
   -7.8259   -1.4999   -8.2624 C   0  0  1  0  0  0  0  0  0  0  0  0
   -7.0055   -2.7181   -7.8789 C   0  0  0  0  0  0  0  0  0  0  0  0
  -10.0221    2.0853   -8.1304 N   0  3  0  0  0  0  0  0  0  0  0  0
   -7.4670   -3.8745   -8.7232 N   0  3  0  0  0  0  0  0  0  0  0  0
   -5.8804   -0.3223   -9.0544 O   0  0  0  0  0  0  0  0  0  0  0  0
   -8.9301   -1.4056   -7.3466 O   0  0  0  0  0  0  0  0  0  0  0  0
  1  2  1  0  0  0  0
  1 22  1  1  0  0  0
  1 10  1  0  0  0  0
  2  3  1  0  0  0  0
  2  7  1  6  0  0  0
  3  4  1  0  0  0  0
  3  8  1  6  0  0  0
  4  5  1  0  0  0  0
  4  9  1  1  0  0  0
  5  6  1  1  0  0  0
  5 10  1  0  0  0  0
  6 11  1  0  0  0  0
 12 13  1  0  0  0  0
 12 17  1  0  0  0  0
 12 18  1  6  0  0  0
 13 14  1  0  0  0  0
 14 15  1  0  0  0  0
 14 19  1  6  0  0  0
 15 16  1  0  0  0  0
 15 21  1  1  0  0  0
 16 17  1  0  0  0  0
 16 20  1  6  0  0  0
 17 22  1  1  0  0  0
 23 21  1  6  0  0  0
 23 24  1  0  0  0  0
 23 32  1  0  0  0  0
 24 25  1  0  0  0  0
 24 29  1  6  0  0  0
 25 26  1  0  0  0  0
 26 27  1  0  0  0  0
 26 31  1  6  0  0  0
 27 28  1  1  0  0  0
 27 32  1  0  0  0  0
 28 30  1  0  0  0  0
M  CHG  5   8   1  18   1  19   1  29   1  30   1
M  END
>  <CHROM.1>
-95.53387276,-66.51167243,73.12026569,-59.13131255,-170.99579175,64.18146013
64.13021261,122.35349947,76.92167458,-58.30946037,-171.70122161,-157.33048225
174.03271425,174.62081380,-144.95949125,87.59394611,-10.58959158,-3.40158746
-7.41762431,-1.89440352,-0.04345056,-0.31108799

>  <Name>
2tob cryst

>  <RI>
0

>  <Rbt.Current_Directory>
/home/itssahil/PROJECTS/Mol_Feturizer/New_Systems/rnas/2tob

>  <Rbt.Executable>
rbdock ($Id: //depot/dev/client3/rdock/2013.1/src/exe/rbdock.cxx#4 $)

>  <Rbt.Library>
libRbt.so (2013.1, Build901 2013/11/27)

>  <Rbt.Parameter_File>
/export/apps/rDock/src/rDock_2013.1_src/data/scripts/dock_solv.prm

>  <Rbt.Receptor>
prm/pocket_docking_6.prm

>  <SCORE>
-58.151

>  <SCORE.INTER>
-45.4162

>  <SCORE.INTER.CONST>
1

>  <SCORE.INTER.POLAR>
-7.19006

>  <SCORE.INTER.ROT>
6

>  <SCORE.INTER.SOLV>
36.4923

>  <SCORE.INTER.VDW>
-26.0747

>  <SCORE.INTER.norm>
-1.41926

>  <SCORE.INTRA>
-13.2096

>  <SCORE.INTRA.DIHEDRAL>
0.0503593

>  <SCORE.INTRA.DIHEDRAL.0>
18.4221

>  <SCORE.INTRA.POLAR>
0.402225

>  <SCORE.INTRA.POLAR.0>
-1.57101

>  <SCORE.INTRA.REPUL>
-0.730195

>  <SCORE.INTRA.REPUL.0>
0.730195

>  <SCORE.INTRA.SOLV>
-3.43751

>  <SCORE.INTRA.SOLV.lig_0>
-127.221

>  <SCORE.INTRA.VDW>
-9.23265

>  <SCORE.INTRA.VDW.0>
10.8385

>  <SCORE.INTRA.norm>
-0.412801

>  <SCORE.RESTR>
0.474841

>  <SCORE.RESTR.CAVITY>
0.474841

>  <SCORE.RESTR.norm>
0.0148388

>  <SCORE.SYSTEM>
0

>  <SCORE.SYSTEM.CONST>
0

>  <SCORE.SYSTEM.DIHEDRAL>
0

>  <SCORE.SYSTEM.SOLV>
0

>  <SCORE.SYSTEM.norm>
0

>  <SCORE.heavy>
32

>  <SCORE.norm>
-1.81722

>  <RMSD>
7.345

$$$$
2tob cryst
 OpenBabel11021811463D
libRbt.so/2013.1/901 2013/11/27
 32 34  0  0  0  0  0  0  0  0999 V2000
  -12.0376   -1.5192   -6.2313 C   0  0  2  0  0  0  0  0  0  0  0  0
  -13.5136   -1.4503   -5.8521 C   0  0  1  0  0  0  0  0  0  0  0  0
  -14.2209   -2.6970   -6.3842 C   0  0  2  0  0  0  0  0  0  0  0  0
  -13.9947   -2.8510   -7.8941 C   0  0  1  0  0  0  0  0  0  0  0  0
  -12.4963   -2.7823   -8.2090 C   0  0  1  0  0  0  0  0  0  0  0  0
  -12.1675   -2.7787   -9.6929 C   0  0  0  0  0  0  0  0  0  0  0  0
  -13.6502   -1.3847   -4.4351 O   0  0  0  0  0  0  0  0  0  0  0  0
  -15.6919   -2.8182   -6.1328 N   0  3  0  0  0  0  0  0  0  0  0  0
  -14.5208   -4.1032   -8.3150 O   0  0  0  0  0  0  0  0  0  0  0  0
  -11.9296   -1.5847   -7.6407 O   0  0  0  0  0  0  0  0  0  0  0  0
  -12.5797   -3.9959  -10.3063 O   0  0  0  0  0  0  0  0  0  0  0  0
  -10.0069   -4.1882   -6.7698 C   0  0  2  0  0  0  0  0  0  0  0  0
   -8.6208   -4.4388   -7.3789 C   0  0  0  0  0  0  0  0  0  0  0  0
   -8.0558   -3.1948   -8.0590 C   0  0  1  0  0  0  0  0  0  0  0  0
   -8.0066   -2.0678   -7.0366 C   0  0  2  0  0  0  0  0  0  0  0  0
   -9.4291   -1.7244   -6.5873 C   0  0  1  0  0  0  0  0  0  0  0  0
  -10.0804   -2.9310   -5.8889 C   0  0  1  0  0  0  0  0  0  0  0  0
  -10.4526   -5.3746   -5.9642 N   0  3  0  0  0  0  0  0  0  0  0  0
   -6.7003   -3.4672   -8.6392 N   0  3  0  0  0  0  0  0  0  0  0  0
   -9.3887   -0.6084   -5.7072 O   0  0  0  0  0  0  0  0  0  0  0  0
   -7.3739   -0.9039   -7.5992 O   0  0  0  0  0  0  0  0  0  0  0  0
  -11.4716   -2.6513   -5.6282 O   0  0  0  0  0  0  0  0  0  0  0  0
   -7.6209   -0.7424   -8.9687 C   0  0  2  0  0  0  0  0  0  0  0  0
   -6.5569    0.1708   -9.5867 C   0  0  1  0  0  0  0  0  0  0  0  0
   -6.7896    1.6296   -9.1926 C   0  0  0  0  0  0  0  0  0  0  0  0
   -8.2204    2.0115   -9.5357 C   0  0  1  0  0  0  0  0  0  0  0  0
   -9.1742    1.0838   -8.8034 C   0  0  1  0  0  0  0  0  0  0  0  0
  -10.6241    1.4197   -9.1020 C   0  0  0  0  0  0  0  0  0  0  0  0
   -5.1998   -0.2572   -9.1189 N   0  3  0  0  0  0  0  0  0  0  0  0
  -11.3336    0.1424   -9.4596 N   0  3  0  0  0  0  0  0  0  0  0  0
   -8.4742    3.3593   -9.1655 O   0  0  0  0  0  0  0  0  0  0  0  0
   -8.9389   -0.2699   -9.2264 O   0  0  0  0  0  0  0  0  0  0  0  0
  1  2  1  0  0  0  0
  1 22  1  1  0  0  0
  1 10  1  0  0  0  0
  2  3  1  0  0  0  0
  2  7  1  1  0  0  0
  3  4  1  0  0  0  0
  3  8  1  6  0  0  0
  4  5  1  0  0  0  0
  4  9  1  1  0  0  0
  5  6  1  6  0  0  0
  5 10  1  0  0  0  0
  6 11  1  0  0  0  0
 12 13  1  0  0  0  0
 12 17  1  0  0  0  0
 12 18  1  1  0  0  0
 13 14  1  0  0  0  0
 14 15  1  0  0  0  0
 14 19  1  1  0  0  0
 15 16  1  0  0  0  0
 15 21  1  6  0  0  0
 16 17  1  0  0  0  0
 16 20  1  1  0  0  0
 17 22  1  6  0  0  0
 23 21  1  1  0  0  0
 23 24  1  0  0  0  0
 23 32  1  0  0  0  0
 24 25  1  0  0  0  0
 24 29  1  1  0  0  0
 25 26  1  0  0  0  0
 26 27  1  0  0  0  0
 26 31  1  1  0  0  0
 27 28  1  6  0  0  0
 27 32  1  0  0  0  0
 28 30  1  0  0  0  0
M  CHG  5   8   1  18   1  19   1  29   1  30   1
M  END
>  <CHROM.1>
178.23803499,67.44872225,-55.14139034,-49.84043938,-63.52909485,68.20886335
55.43183782,-167.12369030,33.54181237,66.56272586,-110.10437571,-159.75836451
73.60053872,163.23643628,131.53461333,-28.89652635,-10.32018006,-1.60611122
-7.76480848,2.58793106,-0.14934201,2.82228268

>  <Name>
2tob cryst

>  <RI>
0

>  <Rbt.Current_Directory>
/home/itssahil/PROJECTS/Mol_Feturizer/New_Systems/rnas/2tob

>  <Rbt.Executable>
rbdock ($Id: //depot/dev/client3/rdock/2013.1/src/exe/rbdock.cxx#4 $)

>  <Rbt.Library>
libRbt.so (2013.1, Build901 2013/11/27)

>  <Rbt.Parameter_File>
/export/apps/rDock/src/rDock_2013.1_src/data/scripts/dock_solv.prm

>  <Rbt.Receptor>
prm/blind_docking_100.prm

>  <SCORE>
-48.666

>  <SCORE.INTER>
-42.9163

>  <SCORE.INTER.CONST>
1

>  <SCORE.INTER.POLAR>
-6.69726

>  <SCORE.INTER.ROT>
6

>  <SCORE.INTER.SOLV>
38.5051

>  <SCORE.INTER.VDW>
-26.7217

>  <SCORE.INTER.norm>
-1.34114

>  <SCORE.INTRA>
-11.149

>  <SCORE.INTRA.DIHEDRAL>
3.57656

>  <SCORE.INTRA.DIHEDRAL.0>
18.4221

>  <SCORE.INTRA.POLAR>
-0.163425

>  <SCORE.INTRA.POLAR.0>
-1.57101

>  <SCORE.INTRA.REPUL>
-0.55773

>  <SCORE.INTRA.REPUL.0>
0.730195

>  <SCORE.INTRA.SOLV>
0.370461

>  <SCORE.INTRA.SOLV.lig_0>
-127.221

>  <SCORE.INTRA.VDW>
-9.77822

>  <SCORE.INTRA.VDW.0>
10.8385

>  <SCORE.INTRA.norm>
-0.348407

>  <SCORE.RESTR>
5.39936

>  <SCORE.RESTR.CAVITY>
5.39936

>  <SCORE.RESTR.norm>
0.16873

>  <SCORE.SYSTEM>
0

>  <SCORE.SYSTEM.CONST>
0

>  <SCORE.SYSTEM.DIHEDRAL>
0

>  <SCORE.SYSTEM.SOLV>
0

>  <SCORE.SYSTEM.norm>
0

>  <SCORE.heavy>
32

>  <SCORE.norm>
-1.52081

>  <RMSD>
7.357

$$$$
2tob cryst
 OpenBabel11021811463D
libRbt.so/2013.1/901 2013/11/27
 32 34  0  0  0  0  0  0  0  0999 V2000
  -13.3135   -6.4673   -6.5717 C   0  0  2  0  0  0  0  0  0  0  0  0
  -12.5439   -7.3664   -5.6092 C   0  0  1  0  0  0  0  0  0  0  0  0
  -11.1012   -7.4966   -6.0986 C   0  0  2  0  0  0  0  0  0  0  0  0
  -11.0593   -7.9941   -7.5495 C   0  0  1  0  0  0  0  0  0  0  0  0
  -11.9566   -7.1175   -8.4300 C   0  0  1  0  0  0  0  0  0  0  0  0
  -12.1033   -7.6092   -9.8607 C   0  0  0  0  0  0  0  0  0  0  0  0
  -12.5612   -6.8057   -4.2992 O   0  0  0  0  0  0  0  0  0  0  0  0
  -10.1743   -8.3581   -5.2983 N   0  3  0  0  0  0  0  0  0  0  0  0
   -9.7180   -7.9385   -8.0187 O   0  0  0  0  0  0  0  0  0  0  0  0
  -13.2801   -7.0447   -7.8632 O   0  0  0  0  0  0  0  0  0  0  0  0
  -12.8666   -6.6910  -10.6365 O   0  0  0  0  0  0  0  0  0  0  0  0
  -14.3754   -3.5605   -7.1977 C   0  0  2  0  0  0  0  0  0  0  0  0
  -14.7241   -2.3455   -8.0679 C   0  0  0  0  0  0  0  0  0  0  0  0
  -13.5381   -1.4006   -8.2413 C   0  0  1  0  0  0  0  0  0  0  0  0
  -12.3802   -2.1866   -8.8409 C   0  0  2  0  0  0  0  0  0  0  0  0
  -11.9427   -3.2776   -7.8602 C   0  0  1  0  0  0  0  0  0  0  0  0
  -13.0858   -4.2801   -7.6232 C   0  0  1  0  0  0  0  0  0  0  0  0
  -15.5061   -4.5489   -7.1926 N   0  3  0  0  0  0  0  0  0  0  0  0
  -13.9057   -0.2273   -9.0995 N   0  3  0  0  0  0  0  0  0  0  0  0
  -10.8002   -3.9467   -8.3789 O   0  0  0  0  0  0  0  0  0  0  0  0
  -11.2739   -1.3127   -9.1302 O   0  0  0  0  0  0  0  0  0  0  0  0
  -12.7201   -5.1970   -6.5709 O   0  0  0  0  0  0  0  0  0  0  0  0
  -10.6126   -0.8525   -7.9841 C   0  0  2  0  0  0  0  0  0  0  0  0
   -9.9124    0.4770   -8.2842 C   0  0  1  0  0  0  0  0  0  0  0  0
   -8.6603    0.2583   -9.1339 C   0  0  0  0  0  0  0  0  0  0  0  0
   -7.7776   -0.7768   -8.4553 C   0  0  1  0  0  0  0  0  0  0  0  0
   -8.5609   -2.0669   -8.2856 C   0  0  1  0  0  0  0  0  0  0  0  0
   -7.7282   -3.1452   -7.6163 C   0  0  0  0  0  0  0  0  0  0  0  0
  -10.8545    1.3828   -9.0162 N   0  3  0  0  0  0  0  0  0  0  0  0
   -7.6559   -2.8323   -6.1467 N   0  3  0  0  0  0  0  0  0  0  0  0
   -6.6112   -1.0156   -9.2302 O   0  0  0  0  0  0  0  0  0  0  0  0
   -9.7101   -1.8196   -7.4579 O   0  0  0  0  0  0  0  0  0  0  0  0
  1  2  1  0  0  0  0
  1 22  1  6  0  0  0
  1 10  1  0  0  0  0
  2  3  1  0  0  0  0
  2  7  1  1  0  0  0
  3  4  1  0  0  0  0
  3  8  1  1  0  0  0
  4  5  1  0  0  0  0
  4  9  1  6  0  0  0
  5  6  1  6  0  0  0
  5 10  1  0  0  0  0
  6 11  1  0  0  0  0
 12 13  1  0  0  0  0
 12 17  1  0  0  0  0
 12 18  1  6  0  0  0
 13 14  1  0  0  0  0
 14 15  1  0  0  0  0
 14 19  1  6  0  0  0
 15 16  1  0  0  0  0
 15 21  1  1  0  0  0
 16 17  1  0  0  0  0
 16 20  1  6  0  0  0
 17 22  1  1  0  0  0
 23 21  1  6  0  0  0
 23 24  1  0  0  0  0
 23 32  1  0  0  0  0
 24 25  1  0  0  0  0
 24 29  1  6  0  0  0
 25 26  1  0  0  0  0
 26 27  1  0  0  0  0
 26 31  1  6  0  0  0
 27 28  1  1  0  0  0
 27 32  1  0  0  0  0
 28 30  1  0  0  0  0
M  CHG  5   8   1  18   1  19   1  29   1  30   1
M  END
>  <CHROM.1>
166.12156333,64.89995284,-0.89258986,175.88742645,-175.64173205,-59.60291597
-161.45860329,-43.10052833,71.53871684,179.24882833,84.87688454,-155.03233513
-169.79228111,63.80126607,76.47320806,75.20027944,-11.33028788,-3.87461142
-7.81095164,1.93888068,0.06693553,2.88714693

>  <Name>
2tob cryst

>  <RI>
3.75586e+07

>  <Rbt.Current_Directory>
/home/itssahil/PROJECTS/Mol_Feturizer/New_Systems/rnas/2tob

>  <Rbt.Executable>
rbdock ($Id: //depot/dev/client3/rdock/2013.1/src/exe/rbdock.cxx#4 $)

>  <Rbt.Library>
libRbt.so (2013.1, Build901 2013/11/27)

>  <Rbt.Parameter_File>
/export/apps/rDock/src/rDock_2013.1_src/data/scripts/dock_solv.prm

>  <Rbt.Receptor>
prm/pocket_docking_8.prm

>  <SCORE>
-45.789

>  <SCORE.INTER>
-30.9577

>  <SCORE.INTER.CONST>
1

>  <SCORE.INTER.POLAR>
-5.01937

>  <SCORE.INTER.ROT>
6

>  <SCORE.INTER.SOLV>
32.3695

>  <SCORE.INTER.VDW>
-22.2971

>  <SCORE.INTER.norm>
-0.967429

>  <SCORE.INTRA>
-14.8313

>  <SCORE.INTRA.DIHEDRAL>
-4.4331

>  <SCORE.INTRA.DIHEDRAL.0>
18.4221

>  <SCORE.INTRA.POLAR>
1.48504

>  <SCORE.INTRA.POLAR.0>
-1.57101

>  <SCORE.INTRA.REPUL>
-0.730195

>  <SCORE.INTRA.REPUL.0>
0.730195

>  <SCORE.INTRA.SOLV>
-2.97628

>  <SCORE.INTRA.SOLV.lig_0>
-127.221

>  <SCORE.INTRA.VDW>
-12.5248

>  <SCORE.INTRA.VDW.0>
10.8385

>  <SCORE.INTRA.norm>
-0.463477

>  <SCORE.RESTR>
0

>  <SCORE.RESTR.CAVITY>
0

>  <SCORE.RESTR.norm>
0

>  <SCORE.SYSTEM>
0

>  <SCORE.SYSTEM.CONST>
0

>  <SCORE.SYSTEM.DIHEDRAL>
0

>  <SCORE.SYSTEM.SOLV>
0

>  <SCORE.SYSTEM.norm>
0

>  <SCORE.heavy>
32

>  <SCORE.norm>
-1.43091

>  <RMSD>
7.368

$$$$
2tob cryst
 OpenBabel11021811463D
libRbt.so/2013.1/901 2013/11/27
 32 34  0  0  0  0  0  0  0  0999 V2000
  -12.6186   -5.7863   -5.2194 C   0  0  2  0  0  0  0  0  0  0  0  0
  -11.6881   -6.5457   -4.2789 C   0  0  1  0  0  0  0  0  0  0  0  0
  -10.3962   -6.8820   -5.0245 C   0  0  2  0  0  0  0  0  0  0  0  0
  -10.6965   -7.6470   -6.3203 C   0  0  1  0  0  0  0  0  0  0  0  0
  -11.7341   -6.8837   -7.1508 C   0  0  1  0  0  0  0  0  0  0  0  0
  -12.2133   -7.6241   -8.3886 C   0  0  0  0  0  0  0  0  0  0  0  0
  -11.3928   -5.7476   -3.1359 O   0  0  0  0  0  0  0  0  0  0  0  0
   -9.3471   -7.6480   -4.2799 N   0  3  0  0  0  0  0  0  0  0  0  0
   -9.4920   -7.7894   -7.0627 O   0  0  0  0  0  0  0  0  0  0  0  0
  -12.8947   -6.5986   -6.3447 O   0  0  0  0  0  0  0  0  0  0  0  0
  -13.1704   -6.8494   -9.1038 O   0  0  0  0  0  0  0  0  0  0  0  0
  -13.7411   -3.1884   -6.4892 C   0  0  2  0  0  0  0  0  0  0  0  0
  -14.1791   -2.2141   -7.5910 C   0  0  0  0  0  0  0  0  0  0  0  0
  -13.0419   -1.3000   -8.0385 C   0  0  1  0  0  0  0  0  0  0  0  0
  -11.8826   -2.1683   -8.5076 C   0  0  2  0  0  0  0  0  0  0  0  0
  -11.3556   -2.9941   -7.3313 C   0  0  1  0  0  0  0  0  0  0  0  0
  -12.4448   -3.9486   -6.8113 C   0  0  1  0  0  0  0  0  0  0  0  0
  -14.8293   -4.1817   -6.1986 N   0  3  0  0  0  0  0  0  0  0  0  0
  -13.4966   -0.3641   -9.1181 N   0  3  0  0  0  0  0  0  0  0  0  0
  -10.2127   -3.7307   -7.7474 O   0  0  0  0  0  0  0  0  0  0  0  0
  -10.8273   -1.3519   -9.0475 O   0  0  0  0  0  0  0  0  0  0  0  0
  -11.9933   -4.5908   -5.6007 O   0  0  0  0  0  0  0  0  0  0  0  0
  -10.1546   -0.5975   -8.0775 C   0  0  2  0  0  0  0  0  0  0  0  0
   -9.6456    0.7099   -8.6938 C   0  0  1  0  0  0  0  0  0  0  0  0
   -8.4343    0.4580   -9.5920 C   0  0  0  0  0  0  0  0  0  0  0  0
   -7.3878   -0.3141   -8.8049 C   0  0  1  0  0  0  0  0  0  0  0  0
   -7.9925   -1.6188   -8.3162 C   0  0  1  0  0  0  0  0  0  0  0  0
   -6.9906   -2.4402   -7.5252 C   0  0  0  0  0  0  0  0  0  0  0  0
  -10.7385    1.3387   -9.5023 N   0  3  0  0  0  0  0  0  0  0  0  0
   -5.9494   -2.9521   -8.4827 N   0  3  0  0  0  0  0  0  0  0  0  0
   -6.2540   -0.5793   -9.6186 O   0  0  0  0  0  0  0  0  0  0  0  0
   -9.1068   -1.3325   -7.4542 O   0  0  0  0  0  0  0  0  0  0  0  0
  1  2  1  0  0  0  0
  1 22  1  6  0  0  0
  1 10  1  0  0  0  0
  2  3  1  0  0  0  0
  2  7  1  1  0  0  0
  3  4  1  0  0  0  0
  3  8  1  1  0  0  0
  4  5  1  0  0  0  0
  4  9  1  6  0  0  0
  5  6  1  6  0  0  0
  5 10  1  0  0  0  0
  6 11  1  0  0  0  0
 12 13  1  0  0  0  0
 12 17  1  0  0  0  0
 12 18  1  6  0  0  0
 13 14  1  0  0  0  0
 14 15  1  0  0  0  0
 14 19  1  6  0  0  0
 15 16  1  0  0  0  0
 15 21  1  1  0  0  0
 16 17  1  0  0  0  0
 16 20  1  6  0  0  0
 17 22  1  1  0  0  0
 23 21  1  6  0  0  0
 23 24  1  0  0  0  0
 23 32  1  0  0  0  0
 24 25  1  0  0  0  0
 24 29  1  6  0  0  0
 25 26  1  0  0  0  0
 26 27  1  0  0  0  0
 26 31  1  6  0  0  0
 27 28  1  1  0  0  0
 27 32  1  0  0  0  0
 28 30  1  0  0  0  0
M  CHG  5   8   1  18   1  19   1  29   1  30   1
M  END
>  <CHROM.1>
158.68158736,-59.75157770,-151.93872519,61.22818894,-179.89829822,63.84297990
-121.84065093,-44.23060104,69.97710857,85.67818458,79.32689351,-149.45027618
179.19406476,59.49012633,-69.98388646,55.49058149,-10.79546142,-3.55714174
-7.35208022,1.96015786,-0.04798589,2.70379883

>  <Name>
2tob cryst

>  <RI>
0

>  <Rbt.Current_Directory>
/home/itssahil/PROJECTS/Mol_Feturizer/New_Systems/rnas/2tob

>  <Rbt.Executable>
rbdock ($Id: //depot/dev/client3/rdock/2013.1/src/exe/rbdock.cxx#4 $)

>  <Rbt.Library>
libRbt.so (2013.1, Build901 2013/11/27)

>  <Rbt.Parameter_File>
/export/apps/rDock/src/rDock_2013.1_src/data/scripts/dock_solv.prm

>  <Rbt.Receptor>
prm/pocket_docking_5.prm

>  <SCORE>
-54.0519

>  <SCORE.INTER>
-38.024

>  <SCORE.INTER.CONST>
1

>  <SCORE.INTER.POLAR>
-5.21699

>  <SCORE.INTER.ROT>
6

>  <SCORE.INTER.SOLV>
33.7753

>  <SCORE.INTER.VDW>
-26.8178

>  <SCORE.INTER.norm>
-1.18825

>  <SCORE.INTRA>
-16.0279

>  <SCORE.INTRA.DIHEDRAL>
-1.48432

>  <SCORE.INTRA.DIHEDRAL.0>
18.4221

>  <SCORE.INTRA.POLAR>
-0.515052

>  <SCORE.INTRA.POLAR.0>
-1.57101

>  <SCORE.INTRA.REPUL>
-0.730195

>  <SCORE.INTRA.REPUL.0>
0.730195

>  <SCORE.INTRA.SOLV>
-0.594918

>  <SCORE.INTRA.SOLV.lig_0>
-127.221

>  <SCORE.INTRA.VDW>
-9.58612

>  <SCORE.INTRA.VDW.0>
10.8385

>  <SCORE.INTRA.norm>
-0.500872

>  <SCORE.RESTR>
0

>  <SCORE.RESTR.CAVITY>
0

>  <SCORE.RESTR.norm>
0

>  <SCORE.SYSTEM>
0

>  <SCORE.SYSTEM.CONST>
0

>  <SCORE.SYSTEM.DIHEDRAL>
0

>  <SCORE.SYSTEM.SOLV>
0

>  <SCORE.SYSTEM.norm>
0

>  <SCORE.heavy>
32

>  <SCORE.norm>
-1.68912

>  <RMSD>
7.372

$$$$
2tob cryst
 OpenBabel11021811463D
libRbt.so/2013.1/901 2013/11/27
 32 34  0  0  0  0  0  0  0  0999 V2000
  -10.2726   -4.4513   -6.8708 C   0  0  2  0  0  0  0  0  0  0  0  0
   -9.6582   -5.7974   -6.5001 C   0  0  1  0  0  0  0  0  0  0  0  0
  -10.7811   -6.7795   -6.1650 C   0  0  2  0  0  0  0  0  0  0  0  0
  -11.6936   -6.2130   -5.0691 C   0  0  1  0  0  0  0  0  0  0  0  0
  -12.1673   -4.8078   -5.4565 C   0  0  1  0  0  0  0  0  0  0  0  0
  -12.9611   -4.0939   -4.3747 C   0  0  0  0  0  0  0  0  0  0  0  0
   -8.8873   -6.2978   -7.5892 O   0  0  0  0  0  0  0  0  0  0  0  0
  -10.3889   -8.1652   -5.7552 N   0  3  0  0  0  0  0  0  0  0  0  0
  -12.8136   -7.0745   -4.9091 O   0  0  0  0  0  0  0  0  0  0  0  0
  -11.0326   -3.9777   -5.7751 O   0  0  0  0  0  0  0  0  0  0  0  0
  -13.4067   -2.8204   -4.8300 O   0  0  0  0  0  0  0  0  0  0  0  0
  -12.9013   -3.0472   -8.0033 C   0  0  2  0  0  0  0  0  0  0  0  0
  -13.3989   -1.6479   -8.3898 C   0  0  0  0  0  0  0  0  0  0  0  0
  -12.3134   -0.5863   -8.2347 C   0  0  1  0  0  0  0  0  0  0  0  0
  -11.1171   -0.9935   -9.0839 C   0  0  2  0  0  0  0  0  0  0  0  0
  -10.5374   -2.3065   -8.5516 C   0  0  1  0  0  0  0  0  0  0  0  0
  -11.5721   -3.4395   -8.6677 C   0  0  1  0  0  0  0  0  0  0  0  0
  -13.9355   -4.0854   -8.3319 N   0  3  0  0  0  0  0  0  0  0  0  0
  -12.8254    0.7681   -8.6243 N   0  3  0  0  0  0  0  0  0  0  0  0
   -9.3635   -2.6344   -9.2840 O   0  0  0  0  0  0  0  0  0  0  0  0
  -10.1096    0.0340   -9.0615 O   0  0  0  0  0  0  0  0  0  0  0  0
  -11.0765   -4.6224   -8.0066 O   0  0  0  0  0  0  0  0  0  0  0  0
   -9.4059    0.0982   -7.8518 C   0  0  2  0  0  0  0  0  0  0  0  0
   -8.8414    1.5086   -7.6508 C   0  0  1  0  0  0  0  0  0  0  0  0
   -7.6415    1.7550   -8.5657 C   0  0  0  0  0  0  0  0  0  0  0  0
   -6.6291    0.6391   -8.3637 C   0  0  1  0  0  0  0  0  0  0  0  0
   -7.2890   -0.6948   -8.6672 C   0  0  1  0  0  0  0  0  0  0  0  0
   -6.3234   -1.8523   -8.4884 C   0  0  0  0  0  0  0  0  0  0  0  0
   -9.9061    2.5191   -7.9490 N   0  3  0  0  0  0  0  0  0  0  0  0
   -7.1308   -3.1120   -8.3325 N   0  3  0  0  0  0  0  0  0  0  0  0
   -5.5072    0.8301   -9.2139 O   0  0  0  0  0  0  0  0  0  0  0  0
   -8.3906   -0.8960   -7.7656 O   0  0  0  0  0  0  0  0  0  0  0  0
  1  2  1  0  0  0  0
  1 22  1  6  0  0  0
  1 10  1  0  0  0  0
  2  3  1  0  0  0  0
  2  7  1  6  0  0  0
  3  4  1  0  0  0  0
  3  8  1  1  0  0  0
  4  5  1  0  0  0  0
  4  9  1  6  0  0  0
  5  6  1  1  0  0  0
  5 10  1  0  0  0  0
  6 11  1  0  0  0  0
 12 13  1  0  0  0  0
 12 17  1  0  0  0  0
 12 18  1  6  0  0  0
 13 14  1  0  0  0  0
 14 15  1  0  0  0  0
 14 19  1  6  0  0  0
 15 16  1  0  0  0  0
 15 21  1  1  0  0  0
 16 17  1  0  0  0  0
 16 20  1  6  0  0  0
 17 22  1  1  0  0  0
 23 21  1  6  0  0  0
 23 24  1  0  0  0  0
 23 32  1  0  0  0  0
 24 25  1  0  0  0  0
 24 29  1  6  0  0  0
 25 26  1  0  0  0  0
 26 27  1  0  0  0  0
 26 31  1  6  0  0  0
 27 28  1  1  0  0  0
 27 32  1  0  0  0  0
 28 30  1  0  0  0  0
M  CHG  5   8   1  18   1  19   1  29   1  30   1
M  END
>  <CHROM.1>
-169.54831540,66.67209671,42.57996796,-177.63914401,-177.76392701,-50.71838597
54.95460747,5.64756182,73.88121333,-52.66268543,-87.96792007,-154.96027465
162.63614701,54.17817585,160.62511333,-128.02094419,-10.32509405,-2.58927647
-7.51458814,-2.05073050,0.16761112,-0.30095255

>  <Name>
2tob cryst

>  <RI>
0

>  <Rbt.Current_Directory>
/home/itssahil/PROJECTS/Mol_Feturizer/New_Systems/rnas/2tob

>  <Rbt.Executable>
rbdock ($Id: //depot/dev/client3/rdock/2013.1/src/exe/rbdock.cxx#4 $)

>  <Rbt.Library>
libRbt.so (2013.1, Build901 2013/11/27)

>  <Rbt.Parameter_File>
/export/apps/rDock/src/rDock_2013.1_src/data/scripts/dock_solv.prm

>  <Rbt.Receptor>
prm/pocket_docking_3.prm

>  <SCORE>
-58.8132

>  <SCORE.INTER>
-47.7197

>  <SCORE.INTER.CONST>
1

>  <SCORE.INTER.POLAR>
-8.45844

>  <SCORE.INTER.ROT>
6

>  <SCORE.INTER.SOLV>
39.2464

>  <SCORE.INTER.VDW>
-24.3005

>  <SCORE.INTER.norm>
-1.49124

>  <SCORE.INTRA>
-12.5337

>  <SCORE.INTRA.DIHEDRAL>
-0.180887

>  <SCORE.INTRA.DIHEDRAL.0>
18.4221

>  <SCORE.INTRA.POLAR>
0.309479

>  <SCORE.INTRA.POLAR.0>
-1.57101

>  <SCORE.INTRA.REPUL>
-0.723025

>  <SCORE.INTRA.REPUL.0>
0.730195

>  <SCORE.INTRA.SOLV>
1.88429

>  <SCORE.INTRA.SOLV.lig_0>
-127.221

>  <SCORE.INTRA.VDW>
-10.8225

>  <SCORE.INTRA.VDW.0>
10.8385

>  <SCORE.INTRA.norm>
-0.391677

>  <SCORE.RESTR>
1.44019

>  <SCORE.RESTR.CAVITY>
1.44019

>  <SCORE.RESTR.norm>
0.0450061

>  <SCORE.SYSTEM>
0

>  <SCORE.SYSTEM.CONST>
0

>  <SCORE.SYSTEM.DIHEDRAL>
0

>  <SCORE.SYSTEM.SOLV>
0

>  <SCORE.SYSTEM.norm>
0

>  <SCORE.heavy>
32

>  <SCORE.norm>
-1.83791

>  <RMSD>
7.385

$$$$
2tob cryst
 OpenBabel11021811463D
libRbt.so/2013.1/901 2013/11/27
 32 34  0  0  0  0  0  0  0  0999 V2000
   -8.6841   -2.5082   -7.2102 C   0  0  2  0  0  0  0  0  0  0  0  0
   -8.2350   -3.9634   -7.2981 C   0  0  1  0  0  0  0  0  0  0  0  0
   -9.3313   -4.8565   -6.7166 C   0  0  2  0  0  0  0  0  0  0  0  0
   -9.6891   -4.4231   -5.2888 C   0  0  1  0  0  0  0  0  0  0  0  0
  -10.0037   -2.9234   -5.2600 C   0  0  1  0  0  0  0  0  0  0  0  0
  -10.2305   -2.3574   -3.8677 C   0  0  0  0  0  0  0  0  0  0  0  0
   -7.9931   -4.3175   -8.6571 O   0  0  0  0  0  0  0  0  0  0  0  0
   -9.0804   -6.3324   -6.6916 N   0  3  0  0  0  0  0  0  0  0  0  0
  -10.8214   -5.1637   -4.8510 O   0  0  0  0  0  0  0  0  0  0  0  0
   -8.9186   -2.1826   -5.8532 O   0  0  0  0  0  0  0  0  0  0  0  0
   -8.9902   -2.0976   -3.2181 O   0  0  0  0  0  0  0  0  0  0  0  0
  -10.6652   -0.0884   -8.1367 C   0  0  2  0  0  0  0  0  0  0  0  0
  -10.5616    1.2745   -8.8343 C   0  0  0  0  0  0  0  0  0  0  0  0
   -9.1211    1.6334   -9.1885 C   0  0  1  0  0  0  0  0  0  0  0  0
   -8.5512    0.5271  -10.0656 C   0  0  2  0  0  0  0  0  0  0  0  0
   -8.5035   -0.7801   -9.2706 C   0  0  1  0  0  0  0  0  0  0  0  0
   -9.9223   -1.2184   -8.8670 C   0  0  1  0  0  0  0  0  0  0  0  0
  -12.1031   -0.4845   -7.9611 N   0  3  0  0  0  0  0  0  0  0  0  0
   -9.0511    2.9656   -9.8731 N   0  3  0  0  0  0  0  0  0  0  0  0
   -7.8818   -1.7879  -10.0579 O   0  0  0  0  0  0  0  0  0  0  0  0
   -7.2309    0.8745  -10.5211 O   0  0  0  0  0  0  0  0  0  0  0  0
   -9.8481   -2.3506   -7.9757 O   0  0  0  0  0  0  0  0  0  0  0  0
   -6.3107    1.0516   -9.4796 C   0  0  2  0  0  0  0  0  0  0  0  0
   -5.2007    2.0111   -9.9217 C   0  0  1  0  0  0  0  0  0  0  0  0
   -4.2381    1.3266  -10.8925 C   0  0  0  0  0  0  0  0  0  0  0  0
   -3.7385    0.0355  -10.2645 C   0  0  1  0  0  0  0  0  0  0  0  0
   -4.9255   -0.8563   -9.9446 C   0  0  1  0  0  0  0  0  0  0  0  0
   -4.4892   -2.1683   -9.3181 C   0  0  0  0  0  0  0  0  0  0  0  0
   -5.8104    3.2051  -10.5897 N   0  3  0  0  0  0  0  0  0  0  0  0
   -5.6450   -2.7114   -8.5231 N   0  3  0  0  0  0  0  0  0  0  0  0
   -2.8530   -0.6344  -11.1505 O   0  0  0  0  0  0  0  0  0  0  0  0
   -5.7856   -0.1849   -9.0084 O   0  0  0  0  0  0  0  0  0  0  0  0
  1  2  1  0  0  0  0
  1 22  1  6  0  0  0
  1 10  1  0  0  0  0
  2  3  1  0  0  0  0
  2  7  1  6  0  0  0
  3  4  1  0  0  0  0
  3  8  1  1  0  0  0
  4  5  1  0  0  0  0
  4  9  1  6  0  0  0
  5  6  1  1  0  0  0
  5 10  1  0  0  0  0
  6 11  1  0  0  0  0
 12 13  1  0  0  0  0
 12 17  1  0  0  0  0
 12 18  1  6  0  0  0
 13 14  1  0  0  0  0
 14 15  1  0  0  0  0
 14 19  1  6  0  0  0
 15 16  1  0  0  0  0
 15 21  1  1  0  0  0
 16 17  1  0  0  0  0
 16 20  1  6  0  0  0
 17 22  1  1  0  0  0
 23 21  1  6  0  0  0
 23 24  1  0  0  0  0
 23 32  1  0  0  0  0
 24 25  1  0  0  0  0
 24 29  1  6  0  0  0
 25 26  1  0  0  0  0
 26 27  1  0  0  0  0
 26 31  1  6  0  0  0
 27 28  1  1  0  0  0
 27 32  1  0  0  0  0
 28 30  1  0  0  0  0
M  CHG  5   8   1  18   1  19   1  29   1  30   1
M  END
>  <CHROM.1>
-133.69043123,-70.06144272,90.64343092,-177.05744328,80.64586363,68.94366180
-55.84666613,-64.46159254,61.22347494,-168.16602728,-95.47119061,-153.42316687
-27.92985057,-75.32758612,156.36734085,87.96229074,-7.95855846,-1.26329632
-8.26642455,-2.20745831,0.42126152,-0.47667452

>  <Name>
2tob cryst

>  <RI>
2.04895e+07

>  <Rbt.Current_Directory>
/home/itssahil/PROJECTS/Mol_Feturizer/New_Systems/rnas/2tob

>  <Rbt.Executable>
rbdock ($Id: //depot/dev/client3/rdock/2013.1/src/exe/rbdock.cxx#4 $)

>  <Rbt.Library>
libRbt.so (2013.1, Build901 2013/11/27)

>  <Rbt.Parameter_File>
/export/apps/rDock/src/rDock_2013.1_src/data/scripts/dock_solv.prm

>  <Rbt.Receptor>
prm/blind_docking_20.prm

>  <SCORE>
-12.9631

>  <SCORE.INTER>
-6.74411

>  <SCORE.INTER.CONST>
1

>  <SCORE.INTER.POLAR>
-6.6936

>  <SCORE.INTER.ROT>
6

>  <SCORE.INTER.SOLV>
48.7626

>  <SCORE.INTER.VDW>
-6.03828

>  <SCORE.INTER.norm>
-0.210753

>  <SCORE.INTRA>
-9.06899

>  <SCORE.INTRA.DIHEDRAL>
6.98417

>  <SCORE.INTRA.DIHEDRAL.0>
18.4221

>  <SCORE.INTRA.POLAR>
-0.0510867

>  <SCORE.INTRA.POLAR.0>
-1.57101

>  <SCORE.INTRA.REPUL>
-0.730195

>  <SCORE.INTRA.REPUL.0>
0.730195

>  <SCORE.INTRA.SOLV>
3.29335

>  <SCORE.INTRA.SOLV.lig_0>
-127.221

>  <SCORE.INTRA.VDW>
-10.3831

>  <SCORE.INTRA.VDW.0>
10.8385

>  <SCORE.INTRA.norm>
-0.283406

>  <SCORE.RESTR>
2.84995

>  <SCORE.RESTR.CAVITY>
2.84995

>  <SCORE.RESTR.norm>
0.089061

>  <SCORE.SYSTEM>
0

>  <SCORE.SYSTEM.CONST>
0

>  <SCORE.SYSTEM.DIHEDRAL>
0

>  <SCORE.SYSTEM.SOLV>
0

>  <SCORE.SYSTEM.norm>
0

>  <SCORE.heavy>
32

>  <SCORE.norm>
-0.405098

>  <RMSD>
7.388

$$$$
2tob cryst
 OpenBabel11021811463D
libRbt.so/2013.1/901 2013/11/27
 32 34  0  0  0  0  0  0  0  0999 V2000
   -8.2714   -2.3859   -6.9981 C   0  0  2  0  0  0  0  0  0  0  0  0
   -8.2444   -3.6783   -6.1882 C   0  0  1  0  0  0  0  0  0  0  0  0
   -9.3623   -3.6339   -5.1462 C   0  0  2  0  0  0  0  0  0  0  0  0
   -9.2475   -2.3760   -4.2749 C   0  0  1  0  0  0  0  0  0  0  0  0
   -9.1512   -1.1306   -5.1630 C   0  0  1  0  0  0  0  0  0  0  0  0
   -8.8879    0.1604   -4.4054 C   0  0  0  0  0  0  0  0  0  0  0  0
   -8.4312   -4.7977   -7.0502 O   0  0  0  0  0  0  0  0  0  0  0  0
   -9.4995   -4.8087   -4.2281 N   0  3  0  0  0  0  0  0  0  0  0  0
  -10.3942   -2.2866   -3.4387 O   0  0  0  0  0  0  0  0  0  0  0  0
   -8.0854   -1.2916   -6.1204 O   0  0  0  0  0  0  0  0  0  0  0  0
   -9.3175    0.0505   -3.0522 O   0  0  0  0  0  0  0  0  0  0  0  0
  -10.4828   -0.1421   -8.1149 C   0  0  2  0  0  0  0  0  0  0  0  0
  -10.4688    1.1256   -8.9797 C   0  0  0  0  0  0  0  0  0  0  0  0
   -9.0532    1.5445   -9.3667 C   0  0  1  0  0  0  0  0  0  0  0  0
   -8.3887    0.3823  -10.0917 C   0  0  2  0  0  0  0  0  0  0  0  0
   -8.2575   -0.8065   -9.1363 C   0  0  1  0  0  0  0  0  0  0  0  0
   -9.6465   -1.2960   -8.6901 C   0  0  1  0  0  0  0  0  0  0  0  0
  -11.8902   -0.6200   -7.9003 N   0  3  0  0  0  0  0  0  0  0  0  0
   -9.0706    2.7808  -10.2149 N   0  3  0  0  0  0  0  0  0  0  0  0
   -7.5501   -1.8560   -9.7845 O   0  0  0  0  0  0  0  0  0  0  0  0
   -7.0902    0.7679  -10.5785 O   0  0  0  0  0  0  0  0  0  0  0  0
   -9.5035   -2.2975   -7.6614 O   0  0  0  0  0  0  0  0  0  0  0  0
   -6.1463    0.9548   -9.5603 C   0  0  2  0  0  0  0  0  0  0  0  0
   -5.0780    1.9542  -10.0164 C   0  0  1  0  0  0  0  0  0  0  0  0
   -4.1239    1.3152  -11.0258 C   0  0  0  0  0  0  0  0  0  0  0  0
   -3.5688    0.0292  -10.4350 C   0  0  1  0  0  0  0  0  0  0  0  0
   -4.7196   -0.9029  -10.0977 C   0  0  1  0  0  0  0  0  0  0  0  0
   -4.2273   -2.2116   -9.5070 C   0  0  0  0  0  0  0  0  0  0  0  0
   -5.7413    3.1407  -10.6457 N   0  3  0  0  0  0  0  0  0  0  0  0
   -5.3403   -2.7977   -8.6820 N   0  3  0  0  0  0  0  0  0  0  0  0
   -2.6898   -0.5991  -11.3573 O   0  0  0  0  0  0  0  0  0  0  0  0
   -5.5718   -0.2732   -9.1260 O   0  0  0  0  0  0  0  0  0  0  0  0
  1  2  1  0  0  0  0
  1 22  1  1  0  0  0
  1 10  1  0  0  0  0
  2  3  1  0  0  0  0
  2  7  1  6  0  0  0
  3  4  1  0  0  0  0
  3  8  1  1  0  0  0
  4  5  1  0  0  0  0
  4  9  1  1  0  0  0
  5  6  1  1  0  0  0
  5 10  1  0  0  0  0
  6 11  1  0  0  0  0
 12 13  1  0  0  0  0
 12 17  1  0  0  0  0
 12 18  1  6  0  0  0
 13 14  1  0  0  0  0
 14 15  1  0  0  0  0
 14 19  1  6  0  0  0
 15 16  1  0  0  0  0
 15 21  1  1  0  0  0
 16 17  1  0  0  0  0
 16 20  1  6  0  0  0
 17 22  1  1  0  0  0
 23 21  1  6  0  0  0
 23 24  1  0  0  0  0
 23 32  1  0  0  0  0
 24 25  1  0  0  0  0
 24 29  1  6  0  0  0
 25 26  1  0  0  0  0
 26 27  1  0  0  0  0
 26 31  1  6  0  0  0
 27 28  1  1  0  0  0
 27 32  1  0  0  0  0
 28 30  1  0  0  0  0
M  CHG  5   8   1  18   1  19   1  29   1  30   1
M  END
>  <CHROM.1>
-167.89523516,47.73324881,-94.58479428,-176.52349305,-23.79489846,103.02610540
64.41149807,-66.19492428,70.04868738,-120.15123889,-104.05676424,-153.03546101
83.37878044,-157.03556690,155.99136191,-141.89078116,-7.74800988,-0.83603470
-8.00963653,-2.29153852,0.51505073,-0.64989193

>  <Name>
2tob cryst

>  <RI>
0

>  <Rbt.Current_Directory>
/home/itssahil/PROJECTS/Mol_Feturizer/New_Systems/rnas/2tob

>  <Rbt.Executable>
rbdock ($Id: //depot/dev/client3/rdock/2013.1/src/exe/rbdock.cxx#4 $)

>  <Rbt.Library>
libRbt.so (2013.1, Build901 2013/11/27)

>  <Rbt.Parameter_File>
/export/apps/rDock/src/rDock_2013.1_src/data/scripts/dock_solv.prm

>  <Rbt.Receptor>
prm/blind_docking_40.prm

>  <SCORE>
-2.61301

>  <SCORE.INTER>
-6.19509

>  <SCORE.INTER.CONST>
1

>  <SCORE.INTER.POLAR>
-5.45279

>  <SCORE.INTER.ROT>
6

>  <SCORE.INTER.SOLV>
47.2073

>  <SCORE.INTER.VDW>
-9.28986

>  <SCORE.INTER.norm>
-0.193597

>  <SCORE.INTRA>
-0.228813

>  <SCORE.INTRA.DIHEDRAL>
19.4242

>  <SCORE.INTRA.DIHEDRAL.0>
18.4221

>  <SCORE.INTRA.POLAR>
0.0533948

>  <SCORE.INTRA.POLAR.0>
-1.57101

>  <SCORE.INTRA.REPUL>
-0.547593

>  <SCORE.INTRA.REPUL.0>
0.730195

>  <SCORE.INTRA.SOLV>
0.838463

>  <SCORE.INTRA.SOLV.lig_0>
-127.221

>  <SCORE.INTRA.VDW>
-7.80372

>  <SCORE.INTRA.VDW.0>
10.8385

>  <SCORE.INTRA.norm>
-0.00715039

>  <SCORE.RESTR>
3.8109

>  <SCORE.RESTR.CAVITY>
3.8109

>  <SCORE.RESTR.norm>
0.11909

>  <SCORE.SYSTEM>
0

>  <SCORE.SYSTEM.CONST>
0

>  <SCORE.SYSTEM.DIHEDRAL>
0

>  <SCORE.SYSTEM.SOLV>
0

>  <SCORE.SYSTEM.norm>
0

>  <SCORE.heavy>
32

>  <SCORE.norm>
-0.0816565

>  <RMSD>
7.391

$$$$
2tob cryst
 OpenBabel11021811463D
libRbt.so/2013.1/901 2013/11/27
 32 34  0  0  0  0  0  0  0  0999 V2000
  -14.6511   -6.6025   -7.9188 C   0  0  2  0  0  0  0  0  0  0  0  0
  -14.4307   -7.7888   -6.9854 C   0  0  1  0  0  0  0  0  0  0  0  0
  -12.9418   -8.1357   -6.9675 C   0  0  2  0  0  0  0  0  0  0  0  0
  -12.4217   -8.3849   -8.3894 C   0  0  1  0  0  0  0  0  0  0  0  0
  -12.7930   -7.2071   -9.2970 C   0  0  1  0  0  0  0  0  0  0  0  0
  -12.4526   -7.4146  -10.7636 C   0  0  0  0  0  0  0  0  0  0  0  0
  -14.8665   -7.4606   -5.6689 O   0  0  0  0  0  0  0  0  0  0  0  0
  -12.5110   -9.2920   -6.1193 N   0  3  0  0  0  0  0  0  0  0  0  0
  -11.0082   -8.5349   -8.3450 O   0  0  0  0  0  0  0  0  0  0  0  0
  -14.2098   -6.9532   -9.2168 O   0  0  0  0  0  0  0  0  0  0  0  0
  -11.0520   -7.6047  -10.9369 O   0  0  0  0  0  0  0  0  0  0  0  0
  -14.9590   -3.3590   -7.8377 C   0  0  2  0  0  0  0  0  0  0  0  0
  -14.8058   -1.9474   -8.4200 C   0  0  0  0  0  0  0  0  0  0  0  0
  -13.4058   -1.3811   -8.1996 C   0  0  1  0  0  0  0  0  0  0  0  0
  -12.3965   -2.3386   -8.8180 C   0  0  2  0  0  0  0  0  0  0  0  0
  -12.4550   -3.6826   -8.0876 C   0  0  1  0  0  0  0  0  0  0  0  0
  -13.8417   -4.3281   -8.2555 C   0  0  1  0  0  0  0  0  0  0  0  0
  -16.2852   -3.9488   -8.2233 N   0  3  0  0  0  0  0  0  0  0  0  0
  -13.2837   -0.0053   -8.7831 N   0  3  0  0  0  0  0  0  0  0  0  0
  -11.4458   -4.5425   -8.6016 O   0  0  0  0  0  0  0  0  0  0  0  0
  -11.0676   -1.7920   -8.7369 O   0  0  0  0  0  0  0  0  0  0  0  0
  -13.9372   -5.5025   -7.4227 O   0  0  0  0  0  0  0  0  0  0  0  0
  -10.8552   -1.0107   -7.5936 C   0  0  2  0  0  0  0  0  0  0  0  0
   -9.4641   -0.3705   -7.6501 C   0  0  1  0  0  0  0  0  0  0  0  0
   -8.3731   -1.4024   -7.3632 C   0  0  0  0  0  0  0  0  0  0  0  0
   -8.6887   -2.1031   -6.0516 C   0  0  1  0  0  0  0  0  0  0  0  0
  -10.0550   -2.7588   -6.1519 C   0  0  1  0  0  0  0  0  0  0  0  0
  -10.4257   -3.4824   -4.8700 C   0  0  0  0  0  0  0  0  0  0  0  0
   -9.2415    0.2195   -9.0088 N   0  3  0  0  0  0  0  0  0  0  0  0
  -10.7081   -2.4467   -3.8161 N   0  3  0  0  0  0  0  0  0  0  0  0
   -7.7003   -3.0822   -5.7643 O   0  0  0  0  0  0  0  0  0  0  0  0
  -11.0499   -1.7494   -6.3923 O   0  0  0  0  0  0  0  0  0  0  0  0
  1  2  1  0  0  0  0
  1 22  1  1  0  0  0
  1 10  1  0  0  0  0
  2  3  1  0  0  0  0
  2  7  1  1  0  0  0
  3  4  1  0  0  0  0
  3  8  1  1  0  0  0
  4  5  1  0  0  0  0
  4  9  1  1  0  0  0
  5  6  1  6  0  0  0
  5 10  1  0  0  0  0
  6 11  1  0  0  0  0
 12 13  1  0  0  0  0
 12 17  1  0  0  0  0
 12 18  1  6  0  0  0
 13 14  1  0  0  0  0
 14 15  1  0  0  0  0
 14 19  1  6  0  0  0
 15 16  1  0  0  0  0
 15 21  1  1  0  0  0
 16 17  1  0  0  0  0
 16 20  1  6  0  0  0
 17 22  1  1  0  0  0
 23 21  1  6  0  0  0
 23 24  1  0  0  0  0
 23 32  1  0  0  0  0
 24 25  1  0  0  0  0
 24 29  1  6  0  0  0
 25 26  1  0  0  0  0
 26 27  1  0  0  0  0
 26 31  1  6  0  0  0
 27 28  1  1  0  0  0
 27 32  1  0  0  0  0
 28 30  1  0  0  0  0
M  CHG  5   8   1  18   1  19   1  29   1  30   1
M  END
>  <CHROM.1>
170.93514058,-55.60881611,-167.89664713,64.37178365,-60.78589267,-179.56446231
64.97759514,138.75445318,32.94985201,-44.49952284,95.21939454,-174.99429884
77.65339522,177.55884737,70.90830522,173.87807491,-12.09817677,-4.28300048
-7.70086787,2.06160518,0.37178730,3.08318862

>  <Name>
2tob cryst

>  <RI>
0

>  <Rbt.Current_Directory>
/home/itssahil/PROJECTS/Mol_Feturizer/New_Systems/rnas/2tob

>  <Rbt.Executable>
rbdock ($Id: //depot/dev/client3/rdock/2013.1/src/exe/rbdock.cxx#4 $)

>  <Rbt.Library>
libRbt.so (2013.1, Build901 2013/11/27)

>  <Rbt.Parameter_File>
/export/apps/rDock/src/rDock_2013.1_src/data/scripts/dock_solv.prm

>  <Rbt.Receptor>
prm/pocket_docking_5.prm

>  <SCORE>
-44.258

>  <SCORE.INTER>
-29.3199

>  <SCORE.INTER.CONST>
1

>  <SCORE.INTER.POLAR>
-4.39871

>  <SCORE.INTER.ROT>
6

>  <SCORE.INTER.SOLV>
20.7458

>  <SCORE.INTER.VDW>
-19.3995

>  <SCORE.INTER.norm>
-0.916248

>  <SCORE.INTRA>
-14.938

>  <SCORE.INTRA.DIHEDRAL>
-4.30007

>  <SCORE.INTRA.DIHEDRAL.0>
18.4221

>  <SCORE.INTRA.POLAR>
1.35357

>  <SCORE.INTRA.POLAR.0>
-1.57101

>  <SCORE.INTRA.REPUL>
-0.730195

>  <SCORE.INTRA.REPUL.0>
0.730195

>  <SCORE.INTRA.SOLV>
-4.50749

>  <SCORE.INTRA.SOLV.lig_0>
-127.221

>  <SCORE.INTRA.VDW>
-11.4854

>  <SCORE.INTRA.VDW.0>
10.8385

>  <SCORE.INTRA.norm>
-0.466814

>  <SCORE.RESTR>
0

>  <SCORE.RESTR.CAVITY>
0

>  <SCORE.RESTR.norm>
0

>  <SCORE.SYSTEM>
0

>  <SCORE.SYSTEM.CONST>
0

>  <SCORE.SYSTEM.DIHEDRAL>
0

>  <SCORE.SYSTEM.SOLV>
0

>  <SCORE.SYSTEM.norm>
0

>  <SCORE.heavy>
32

>  <SCORE.norm>
-1.38306

>  <RMSD>
7.406

$$$$
2tob cryst
 OpenBabel11021811463D
libRbt.so/2013.1/901 2013/11/27
 32 34  0  0  0  0  0  0  0  0999 V2000
  -10.5447   -4.3648   -6.5523 C   0  0  2  0  0  0  0  0  0  0  0  0
   -9.7766   -5.6455   -6.2414 C   0  0  1  0  0  0  0  0  0  0  0  0
  -10.7656   -6.8084   -6.1560 C   0  0  2  0  0  0  0  0  0  0  0  0
  -11.8737   -6.5097   -5.1374 C   0  0  1  0  0  0  0  0  0  0  0  0
  -12.5109   -5.1492   -5.4405 C   0  0  1  0  0  0  0  0  0  0  0  0
  -13.5236   -4.6872   -4.4055 C   0  0  0  0  0  0  0  0  0  0  0  0
   -8.8185   -5.8999   -7.2651 O   0  0  0  0  0  0  0  0  0  0  0  0
  -10.2139   -8.1639   -5.8394 N   0  3  0  0  0  0  0  0  0  0  0  0
  -12.8584   -7.5329   -5.2122 O   0  0  0  0  0  0  0  0  0  0  0  0
  -11.4888   -4.1359   -5.5233 O   0  0  0  0  0  0  0  0  0  0  0  0
  -14.2038   -3.5174   -4.8490 O   0  0  0  0  0  0  0  0  0  0  0  0
  -12.6951   -2.6477   -7.6087 C   0  0  2  0  0  0  0  0  0  0  0  0
  -13.0433   -1.2183   -8.0454 C   0  0  0  0  0  0  0  0  0  0  0  0
  -11.8000   -0.3527   -8.2309 C   0  0  1  0  0  0  0  0  0  0  0  0
  -10.8910   -1.0278   -9.2486 C   0  0  2  0  0  0  0  0  0  0  0  0
  -10.4191   -2.3751   -8.6961 C   0  0  1  0  0  0  0  0  0  0  0  0
  -11.6160   -3.3166   -8.4746 C   0  0  1  0  0  0  0  0  0  0  0  0
  -13.9225   -3.5130   -7.6049 N   0  3  0  0  0  0  0  0  0  0  0  0
  -12.1697    1.0348   -8.6626 N   0  3  0  0  0  0  0  0  0  0  0  0
   -9.4943   -2.9591   -9.6048 O   0  0  0  0  0  0  0  0  0  0  0  0
   -9.7567   -0.1926   -9.5438 O   0  0  0  0  0  0  0  0  0  0  0  0
  -11.1775   -4.5113   -7.7948 O   0  0  0  0  0  0  0  0  0  0  0  0
   -9.1171    0.3033   -8.4003 C   0  0  2  0  0  0  0  0  0  0  0  0
   -8.2149    1.4831   -8.7773 C   0  0  1  0  0  0  0  0  0  0  0  0
   -6.9513    1.0017   -9.4908 C   0  0  0  0  0  0  0  0  0  0  0  0
   -6.2747   -0.0577   -8.6359 C   0  0  1  0  0  0  0  0  0  0  0  0
   -7.2443   -1.2025   -8.3992 C   0  0  1  0  0  0  0  0  0  0  0  0
   -6.6225   -2.2988   -7.5531 C   0  0  0  0  0  0  0  0  0  0  0  0
   -8.9650    2.4171   -9.6767 N   0  3  0  0  0  0  0  0  0  0  0  0
   -5.7621   -3.1468   -8.4495 N   0  3  0  0  0  0  0  0  0  0  0  0
   -5.1038   -0.5388   -9.2804 O   0  0  0  0  0  0  0  0  0  0  0  0
   -8.4007   -0.7093   -7.7018 O   0  0  0  0  0  0  0  0  0  0  0  0
  1  2  1  0  0  0  0
  1 22  1  6  0  0  0
  1 10  1  0  0  0  0
  2  3  1  0  0  0  0
  2  7  1  6  0  0  0
  3  4  1  0  0  0  0
  3  8  1  1  0  0  0
  4  5  1  0  0  0  0
  4  9  1  6  0  0  0
  5  6  1  1  0  0  0
  5 10  1  0  0  0  0
  6 11  1  0  0  0  0
 12 13  1  0  0  0  0
 12 17  1  0  0  0  0
 12 18  1  6  0  0  0
 13 14  1  0  0  0  0
 14 15  1  0  0  0  0
 14 19  1  6  0  0  0
 15 16  1  0  0  0  0
 15 21  1  1  0  0  0
 16 17  1  0  0  0  0
 16 20  1  6  0  0  0
 17 22  1  1  0  0  0
 23 21  1  6  0  0  0
 23 24  1  0  0  0  0
 23 32  1  0  0  0  0
 24 25  1  0  0  0  0
 24 29  1  6  0  0  0
 25 26  1  0  0  0  0
 26 27  1  0  0  0  0
 26 31  1  6  0  0  0
 27 28  1  1  0  0  0
 27 32  1  0  0  0  0
 28 30  1  0  0  0  0
M  CHG  5   8   1  18   1  19   1  29   1  30   1
M  END
>  <CHROM.1>
-161.61012405,-69.33760399,41.32171030,-179.45636908,-171.79907800,175.37817442
-82.58808238,-63.32397964,48.49770253,57.51603924,-63.71597990,-163.20709198
74.32499750,58.58762340,-80.39043756,165.18996559,-10.19210144,-2.71850580
-7.58613992,-2.14229073,0.18972157,-0.38127421

>  <Name>
2tob cryst

>  <RI>
0

>  <Rbt.Current_Directory>
/home/itssahil/PROJECTS/Mol_Feturizer/New_Systems/rnas/2tob

>  <Rbt.Executable>
rbdock ($Id: //depot/dev/client3/rdock/2013.1/src/exe/rbdock.cxx#4 $)

>  <Rbt.Library>
libRbt.so (2013.1, Build901 2013/11/27)

>  <Rbt.Parameter_File>
/export/apps/rDock/src/rDock_2013.1_src/data/scripts/dock_solv.prm

>  <Rbt.Receptor>
prm/pocket_docking_3.prm

>  <SCORE>
-38.8113

>  <SCORE.INTER>
-17.0469

>  <SCORE.INTER.CONST>
1

>  <SCORE.INTER.POLAR>
-6.81956

>  <SCORE.INTER.ROT>
6

>  <SCORE.INTER.SOLV>
43.4743

>  <SCORE.INTER.VDW>
-10.7242

>  <SCORE.INTER.norm>
-0.532715

>  <SCORE.INTRA>
-22.613

>  <SCORE.INTRA.DIHEDRAL>
-9.60724

>  <SCORE.INTRA.DIHEDRAL.0>
18.4221

>  <SCORE.INTRA.POLAR>
-0.380477

>  <SCORE.INTRA.POLAR.0>
-1.57101

>  <SCORE.INTRA.REPUL>
-0.730195

>  <SCORE.INTRA.REPUL.0>
0.730195

>  <SCORE.INTRA.SOLV>
0.0580039

>  <SCORE.INTRA.SOLV.lig_0>
-127.221

>  <SCORE.INTRA.VDW>
-12.8938

>  <SCORE.INTRA.VDW.0>
10.8385

>  <SCORE.INTRA.norm>
-0.706657

>  <SCORE.RESTR>
0.848567

>  <SCORE.RESTR.CAVITY>
0.848567

>  <SCORE.RESTR.norm>
0.0265177

>  <SCORE.SYSTEM>
0

>  <SCORE.SYSTEM.CONST>
0

>  <SCORE.SYSTEM.DIHEDRAL>
0

>  <SCORE.SYSTEM.SOLV>
0

>  <SCORE.SYSTEM.norm>
0

>  <SCORE.heavy>
32

>  <SCORE.norm>
-1.21285

>  <RMSD>
7.416

$$$$
2tob cryst
 OpenBabel11021811463D
libRbt.so/2013.1/901 2013/11/27
 32 34  0  0  0  0  0  0  0  0999 V2000
   -2.5059    2.7961  -11.0844 C   0  0  2  0  0  0  0  0  0  0  0  0
   -2.3913    4.2887  -10.7911 C   0  0  1  0  0  0  0  0  0  0  0  0
   -2.4142    5.0569  -12.1128 C   0  0  2  0  0  0  0  0  0  0  0  0
   -1.3220    4.5450  -13.0613 C   0  0  1  0  0  0  0  0  0  0  0  0
   -1.4240    3.0225  -13.2046 C   0  0  1  0  0  0  0  0  0  0  0  0
   -0.2987    2.3922  -14.0086 C   0  0  0  0  0  0  0  0  0  0  0  0
   -3.4770    4.7086   -9.9690 O   0  0  0  0  0  0  0  0  0  0  0  0
   -2.2948    6.5480  -12.0485 N   0  3  0  0  0  0  0  0  0  0  0  0
   -1.4862    5.1629  -14.3316 O   0  0  0  0  0  0  0  0  0  0  0  0
   -1.4188    2.4054  -11.9018 O   0  0  0  0  0  0  0  0  0  0  0  0
   -0.4550    0.9785  -14.0772 O   0  0  0  0  0  0  0  0  0  0  0  0
   -3.4770    0.2670  -11.0154 C   0  0  2  0  0  0  0  0  0  0  0  0
   -4.1008   -0.9391  -10.3003 C   0  0  0  0  0  0  0  0  0  0  0  0
   -4.9408   -0.5245   -9.0954 C   0  0  1  0  0  0  0  0  0  0  0  0
   -6.0154    0.4448   -9.5684 C   0  0  2  0  0  0  0  0  0  0  0  0
   -5.3539    1.7145  -10.1102 C   0  0  1  0  0  0  0  0  0  0  0  0
   -4.4796    1.3875  -11.3335 C   0  0  1  0  0  0  0  0  0  0  0  0
   -2.8058   -0.1623  -12.2883 N   0  3  0  0  0  0  0  0  0  0  0  0
   -5.5416   -1.7211   -8.4207 N   0  3  0  0  0  0  0  0  0  0  0  0
   -6.3595    2.6567  -10.4609 O   0  0  0  0  0  0  0  0  0  0  0  0
   -6.9060    0.7768   -8.4876 O   0  0  0  0  0  0  0  0  0  0  0  0
   -3.7303    2.5571  -11.7242 O   0  0  0  0  0  0  0  0  0  0  0  0
   -8.2207    0.3392   -8.6944 C   0  0  2  0  0  0  0  0  0  0  0  0
   -9.2068    1.3528   -8.1043 C   0  0  1  0  0  0  0  0  0  0  0  0
   -9.2317    1.2695   -6.5779 C   0  0  0  0  0  0  0  0  0  0  0  0
   -9.4903   -0.1708   -6.1661 C   0  0  1  0  0  0  0  0  0  0  0  0
   -8.4053   -1.0594   -6.7490 C   0  0  1  0  0  0  0  0  0  0  0  0
   -8.6060   -2.5146   -6.3667 C   0  0  0  0  0  0  0  0  0  0  0  0
   -8.8073    2.7360   -8.5174 N   0  3  0  0  0  0  0  0  0  0  0  0
   -7.9772   -2.7322   -5.0175 N   0  3  0  0  0  0  0  0  0  0  0  0
   -9.5026   -0.2851   -4.7502 O   0  0  0  0  0  0  0  0  0  0  0  0
   -8.4390   -0.9715   -8.1836 O   0  0  0  0  0  0  0  0  0  0  0  0
  1  2  1  0  0  0  0
  1 22  1  6  0  0  0
  1 10  1  0  0  0  0
  2  3  1  0  0  0  0
  2  7  1  1  0  0  0
  3  4  1  0  0  0  0
  3  8  1  1  0  0  0
  4  5  1  0  0  0  0
  4  9  1  6  0  0  0
  5  6  1  6  0  0  0
  5 10  1  0  0  0  0
  6 11  1  0  0  0  0
 12 13  1  0  0  0  0
 12 17  1  0  0  0  0
 12 18  1  6  0  0  0
 13 14  1  0  0  0  0
 14 15  1  0  0  0  0
 14 19  1  6  0  0  0
 15 16  1  0  0  0  0
 15 21  1  1  0  0  0
 16 17  1  0  0  0  0
 16 20  1  6  0  0  0
 17 22  1  1  0  0  0
 23 21  1  1  0  0  0
 23 24  1  0  0  0  0
 23 32  1  0  0  0  0
 24 25  1  0  0  0  0
 24 29  1  1  0  0  0
 25 26  1  0  0  0  0
 26 27  1  0  0  0  0
 26 31  1  1  0  0  0
 27 28  1  6  0  0  0
 27 32  1  0  0  0  0
 28 30  1  0  0  0  0
M  CHG  5   8   1  18   1  19   1  29   1  30   1
M  END
>  <CHROM.1>
-138.83096758,-85.38352968,-177.35309796,-46.21097876,179.08932419,61.73171921
-167.19063709,174.68023710,-115.50469045,171.52847045,-35.51826582,-144.76097588
110.43217166,-43.83053334,-85.10666317,-88.18281821,-5.02819098,1.46229933
-9.95593078,-0.53433426,-0.66358535,2.97818183

>  <Name>
2tob cryst

>  <RI>
3.75586e+07

>  <Rbt.Current_Directory>
/home/itssahil/PROJECTS/Mol_Feturizer/New_Systems/rnas/2tob

>  <Rbt.Executable>
rbdock ($Id: //depot/dev/client3/rdock/2013.1/src/exe/rbdock.cxx#4 $)

>  <Rbt.Library>
libRbt.so (2013.1, Build901 2013/11/27)

>  <Rbt.Parameter_File>
/export/apps/rDock/src/rDock_2013.1_src/data/scripts/dock_solv.prm

>  <Rbt.Receptor>
prm/pocket_docking_8.prm

>  <SCORE>
-52.5896

>  <SCORE.INTER>
-41.3127

>  <SCORE.INTER.CONST>
1

>  <SCORE.INTER.POLAR>
-5.1142

>  <SCORE.INTER.ROT>
6

>  <SCORE.INTER.SOLV>
38.2213

>  <SCORE.INTER.VDW>
-30.8349

>  <SCORE.INTER.norm>
-1.29102

>  <SCORE.INTRA>
-11.2769

>  <SCORE.INTRA.DIHEDRAL>
14.1817

>  <SCORE.INTRA.DIHEDRAL.0>
18.4221

>  <SCORE.INTRA.POLAR>
-0.385416

>  <SCORE.INTRA.POLAR.0>
-1.57101

>  <SCORE.INTRA.REPUL>
-0.721829

>  <SCORE.INTRA.REPUL.0>
0.730195

>  <SCORE.INTRA.SOLV>
0.119009

>  <SCORE.INTRA.SOLV.lig_0>
-127.221

>  <SCORE.INTRA.VDW>
-13.5077

>  <SCORE.INTRA.VDW.0>
10.8385

>  <SCORE.INTRA.norm>
-0.352403

>  <SCORE.RESTR>
0

>  <SCORE.RESTR.CAVITY>
0

>  <SCORE.RESTR.norm>
0

>  <SCORE.SYSTEM>
0

>  <SCORE.SYSTEM.CONST>
0

>  <SCORE.SYSTEM.DIHEDRAL>
0

>  <SCORE.SYSTEM.SOLV>
0

>  <SCORE.SYSTEM.norm>
0

>  <SCORE.heavy>
32

>  <SCORE.norm>
-1.64342

>  <RMSD>
7.419

$$$$
2tob cryst
 OpenBabel11021811463D
libRbt.so/2013.1/901 2013/11/27
 32 34  0  0  0  0  0  0  0  0999 V2000
  -11.8993   -5.0264   -6.7650 C   0  0  2  0  0  0  0  0  0  0  0  0
  -11.0616   -6.3000   -6.7093 C   0  0  1  0  0  0  0  0  0  0  0  0
  -11.9980   -7.5070   -6.6467 C   0  0  2  0  0  0  0  0  0  0  0  0
  -12.9764   -7.3792   -5.4716 C   0  0  1  0  0  0  0  0  0  0  0  0
  -13.6856   -6.0217   -5.5258 C   0  0  1  0  0  0  0  0  0  0  0  0
  -14.5721   -5.7296   -4.3262 C   0  0  0  0  0  0  0  0  0  0  0  0
  -10.2337   -6.3898   -7.8657 O   0  0  0  0  0  0  0  0  0  0  0  0
  -11.3720   -8.8649   -6.5682 N   0  3  0  0  0  0  0  0  0  0  0  0
  -13.9329   -8.4286   -5.5502 O   0  0  0  0  0  0  0  0  0  0  0  0
  -12.7118   -4.9619   -5.6082 O   0  0  0  0  0  0  0  0  0  0  0  0
  -15.6797   -6.6237   -4.2848 O   0  0  0  0  0  0  0  0  0  0  0  0
  -14.0675   -3.0864   -7.7973 C   0  0  2  0  0  0  0  0  0  0  0  0
  -14.2628   -1.6160   -8.1907 C   0  0  0  0  0  0  0  0  0  0  0  0
  -12.9469   -0.8431   -8.2060 C   0  0  1  0  0  0  0  0  0  0  0  0
  -11.9899   -1.5411   -9.1626 C   0  0  2  0  0  0  0  0  0  0  0  0
  -11.6776   -2.9446   -8.6374 C   0  0  1  0  0  0  0  0  0  0  0  0
  -12.9569   -3.7984   -8.5857 C   0  0  1  0  0  0  0  0  0  0  0  0
  -15.3489   -3.8521   -7.9610 N   0  3  0  0  0  0  0  0  0  0  0  0
  -13.1672    0.5871   -8.5989 N   0  3  0  0  0  0  0  0  0  0  0  0
  -10.7096   -3.5581   -9.4792 O   0  0  0  0  0  0  0  0  0  0  0  0
  -10.7729   -0.7849   -9.2993 O   0  0  0  0  0  0  0  0  0  0  0  0
  -12.6798   -5.0531   -7.9294 O   0  0  0  0  0  0  0  0  0  0  0  0
  -10.2128   -0.4038   -8.0731 C   0  0  2  0  0  0  0  0  0  0  0  0
   -8.9634    0.4502   -8.3132 C   0  0  1  0  0  0  0  0  0  0  0  0
   -7.7910   -0.4120   -8.7818 C   0  0  0  0  0  0  0  0  0  0  0  0
   -7.5918   -1.5524   -7.7965 C   0  0  1  0  0  0  0  0  0  0  0  0
   -8.8722   -2.3644   -7.7072 C   0  0  1  0  0  0  0  0  0  0  0  0
   -8.7340   -3.5257   -6.7395 C   0  0  0  0  0  0  0  0  0  0  0  0
   -9.2604    1.4875   -9.3521 N   0  3  0  0  0  0  0  0  0  0  0  0
   -8.2010   -2.9874   -5.4398 N   0  3  0  0  0  0  0  0  0  0  0  0
   -6.5180   -2.3836   -8.2135 O   0  0  0  0  0  0  0  0  0  0  0  0
   -9.9374   -1.5218   -7.2358 O   0  0  0  0  0  0  0  0  0  0  0  0
  1  2  1  0  0  0  0
  1 22  1  6  0  0  0
  1 10  1  0  0  0  0
  2  3  1  0  0  0  0
  2  7  1  6  0  0  0
  3  4  1  0  0  0  0
  3  8  1  1  0  0  0
  4  5  1  0  0  0  0
  4  9  1  6  0  0  0
  5  6  1  1  0  0  0
  5 10  1  0  0  0  0
  6 11  1  0  0  0  0
 12 13  1  0  0  0  0
 12 17  1  0  0  0  0
 12 18  1  6  0  0  0
 13 14  1  0  0  0  0
 14 15  1  0  0  0  0
 14 19  1  6  0  0  0
 15 16  1  0  0  0  0
 15 21  1  1  0  0  0
 16 17  1  0  0  0  0
 16 20  1  6  0  0  0
 17 22  1  1  0  0  0
 23 21  1  6  0  0  0
 23 24  1  0  0  0  0
 23 32  1  0  0  0  0
 24 25  1  0  0  0  0
 24 29  1  6  0  0  0
 25 26  1  0  0  0  0
 26 27  1  0  0  0  0
 26 31  1  6  0  0  0
 27 28  1  1  0  0  0
 27 32  1  0  0  0  0
 28 30  1  0  0  0  0
M  CHG  5   8   1  18   1  19   1  29   1  30   1
M  END
>  <CHROM.1>
-146.52071513,74.19567440,-165.19065839,67.45949521,-66.17436870,56.28947823
178.44718746,-120.91519913,49.09460037,-177.32879122,-77.84762288,-177.28880914
-64.00009895,170.37394939,51.20813080,148.06429680,-11.45785301,-3.56439773
-7.39214277,-2.11653629,0.02419563,-0.38087369

>  <Name>
2tob cryst

>  <RI>
0

>  <Rbt.Current_Directory>
/home/itssahil/PROJECTS/Mol_Feturizer/New_Systems/rnas/2tob

>  <Rbt.Executable>
rbdock ($Id: //depot/dev/client3/rdock/2013.1/src/exe/rbdock.cxx#4 $)

>  <Rbt.Library>
libRbt.so (2013.1, Build901 2013/11/27)

>  <Rbt.Parameter_File>
/export/apps/rDock/src/rDock_2013.1_src/data/scripts/dock_solv.prm

>  <Rbt.Receptor>
prm/pocket_docking_3.prm

>  <SCORE>
-40.5583

>  <SCORE.INTER>
-24.2752

>  <SCORE.INTER.CONST>
1

>  <SCORE.INTER.POLAR>
-6.71249

>  <SCORE.INTER.ROT>
6

>  <SCORE.INTER.SOLV>
30.3379

>  <SCORE.INTER.VDW>
-11.5211

>  <SCORE.INTER.norm>
-0.758599

>  <SCORE.INTRA>
-16.5332

>  <SCORE.INTRA.DIHEDRAL>
-3.56835

>  <SCORE.INTRA.DIHEDRAL.0>
18.4221

>  <SCORE.INTRA.POLAR>
0.844868

>  <SCORE.INTRA.POLAR.0>
-1.57101

>  <SCORE.INTRA.REPUL>
-0.730195

>  <SCORE.INTRA.REPUL.0>
0.730195

>  <SCORE.INTRA.SOLV>
-3.62858

>  <SCORE.INTRA.SOLV.lig_0>
-127.221

>  <SCORE.INTRA.VDW>
-12.1563

>  <SCORE.INTRA.VDW.0>
10.8385

>  <SCORE.INTRA.norm>
-0.516663

>  <SCORE.RESTR>
0.250055

>  <SCORE.RESTR.CAVITY>
0.250055

>  <SCORE.RESTR.norm>
0.00781423

>  <SCORE.SYSTEM>
0

>  <SCORE.SYSTEM.CONST>
0

>  <SCORE.SYSTEM.DIHEDRAL>
0

>  <SCORE.SYSTEM.SOLV>
0

>  <SCORE.SYSTEM.norm>
0

>  <SCORE.heavy>
32

>  <SCORE.norm>
-1.26745

>  <RMSD>
7.432

$$$$
2tob cryst
 OpenBabel11021811463D
libRbt.so/2013.1/901 2013/11/27
 32 34  0  0  0  0  0  0  0  0999 V2000
  -12.4538   -5.9452   -7.3886 C   0  0  2  0  0  0  0  0  0  0  0  0
  -12.9507   -7.3053   -6.9086 C   0  0  1  0  0  0  0  0  0  0  0  0
  -13.0389   -7.2906   -5.3823 C   0  0  2  0  0  0  0  0  0  0  0  0
  -11.6948   -6.8882   -4.7612 C   0  0  1  0  0  0  0  0  0  0  0  0
  -11.2000   -5.5791   -5.3859 C   0  0  1  0  0  0  0  0  0  0  0  0
   -9.8054   -5.1634   -4.9472 C   0  0  0  0  0  0  0  0  0  0  0  0
  -14.2340   -7.5793   -7.4644 O   0  0  0  0  0  0  0  0  0  0  0  0
  -13.4932   -8.5454   -4.7034 N   0  3  0  0  0  0  0  0  0  0  0  0
  -11.8648   -6.7216   -3.3592 O   0  0  0  0  0  0  0  0  0  0  0  0
  -11.1809   -5.6971   -6.8225 O   0  0  0  0  0  0  0  0  0  0  0  0
   -9.2129   -4.2895   -5.9027 O   0  0  0  0  0  0  0  0  0  0  0  0
  -14.5949   -2.8958   -7.2122 C   0  0  2  0  0  0  0  0  0  0  0  0
  -14.6756   -1.5075   -7.8613 C   0  0  0  0  0  0  0  0  0  0  0  0
  -13.3005   -0.8656   -8.0236 C   0  0  1  0  0  0  0  0  0  0  0  0
  -12.4262   -1.8022   -8.8461 C   0  0  2  0  0  0  0  0  0  0  0  0
  -12.2206   -3.1115   -8.0802 C   0  0  1  0  0  0  0  0  0  0  0  0
  -13.5651   -3.8294   -7.8679 C   0  0  1  0  0  0  0  0  0  0  0  0
  -15.9390   -3.5654   -7.2276 N   0  3  0  0  0  0  0  0  0  0  0  0
  -13.4094    0.4854   -8.6647 N   0  3  0  0  0  0  0  0  0  0  0  0
  -11.3257   -3.9458   -8.8050 O   0  0  0  0  0  0  0  0  0  0  0  0
  -11.1538   -1.1899   -9.1242 O   0  0  0  0  0  0  0  0  0  0  0  0
  -13.3791   -4.9664   -6.9994 O   0  0  0  0  0  0  0  0  0  0  0  0
  -10.4694   -0.7791   -7.9728 C   0  0  2  0  0  0  0  0  0  0  0  0
   -9.7507    0.5478   -8.2386 C   0  0  1  0  0  0  0  0  0  0  0  0
   -8.5140    0.3367   -9.1124 C   0  0  0  0  0  0  0  0  0  0  0  0
   -7.6401   -0.7350   -8.4808 C   0  0  1  0  0  0  0  0  0  0  0  0
   -8.4430   -2.0168   -8.3428 C   0  0  1  0  0  0  0  0  0  0  0  0
   -7.6200   -3.1305   -7.7212 C   0  0  0  0  0  0  0  0  0  0  0  0
  -10.6868    1.4930   -8.9270 N   0  3  0  0  0  0  0  0  0  0  0  0
   -6.3685   -3.2964   -8.5392 N   0  3  0  0  0  0  0  0  0  0  0  0
   -6.4884   -0.9672   -9.2793 O   0  0  0  0  0  0  0  0  0  0  0  0
   -9.5766   -1.7780   -7.4914 O   0  0  0  0  0  0  0  0  0  0  0  0
  1  2  1  0  0  0  0
  1 22  1  1  0  0  0
  1 10  1  0  0  0  0
  2  3  1  0  0  0  0
  2  7  1  6  0  0  0
  3  4  1  0  0  0  0
  3  8  1  1  0  0  0
  4  5  1  0  0  0  0
  4  9  1  1  0  0  0
  5  6  1  1  0  0  0
  5 10  1  0  0  0  0
  6 11  1  0  0  0  0
 12 13  1  0  0  0  0
 12 17  1  0  0  0  0
 12 18  1  6  0  0  0
 13 14  1  0  0  0  0
 14 15  1  0  0  0  0
 14 19  1  6  0  0  0
 15 16  1  0  0  0  0
 15 21  1  1  0  0  0
 16 17  1  0  0  0  0
 16 20  1  6  0  0  0
 17 22  1  1  0  0  0
 23 21  1  6  0  0  0
 23 24  1  0  0  0  0
 23 32  1  0  0  0  0
 24 25  1  0  0  0  0
 24 29  1  6  0  0  0
 25 26  1  0  0  0  0
 26 27  1  0  0  0  0
 26 31  1  6  0  0  0
 27 28  1  1  0  0  0
 27 32  1  0  0  0  0
 28 30  1  0  0  0  0
M  CHG  5   8   1  18   1  19   1  29   1  30   1
M  END
>  <CHROM.1>
-146.76001153,176.99721642,60.46297010,-61.35157594,157.27511265,63.93587996
-57.29968780,-4.86717997,55.78456918,63.64685237,-178.74898505,-142.15601350
-50.03679499,62.52728183,-54.70582040,40.79271996,-11.32319655,-3.40406063
-7.37105867,-2.10028345,-0.01622317,-0.45103561

>  <Name>
2tob cryst

>  <RI>
0

>  <Rbt.Current_Directory>
/home/itssahil/PROJECTS/Mol_Feturizer/New_Systems/rnas/2tob

>  <Rbt.Executable>
rbdock ($Id: //depot/dev/client3/rdock/2013.1/src/exe/rbdock.cxx#4 $)

>  <Rbt.Library>
libRbt.so (2013.1, Build901 2013/11/27)

>  <Rbt.Parameter_File>
/export/apps/rDock/src/rDock_2013.1_src/data/scripts/dock_solv.prm

>  <Rbt.Receptor>
prm/pocket_docking_3.prm

>  <SCORE>
-49.0866

>  <SCORE.INTER>
-36.9604

>  <SCORE.INTER.CONST>
1

>  <SCORE.INTER.POLAR>
-6.61534

>  <SCORE.INTER.ROT>
6

>  <SCORE.INTER.SOLV>
32.9826

>  <SCORE.INTER.VDW>
-21.1833

>  <SCORE.INTER.norm>
-1.15501

>  <SCORE.INTRA>
-12.167

>  <SCORE.INTRA.DIHEDRAL>
-2.36521

>  <SCORE.INTRA.DIHEDRAL.0>
18.4221

>  <SCORE.INTRA.POLAR>
0.388441

>  <SCORE.INTRA.POLAR.0>
-1.57101

>  <SCORE.INTRA.REPUL>
-0.730195

>  <SCORE.INTRA.REPUL.0>
0.730195

>  <SCORE.INTRA.SOLV>
1.73147

>  <SCORE.INTRA.SOLV.lig_0>
-127.221

>  <SCORE.INTRA.VDW>
-9.51986

>  <SCORE.INTRA.VDW.0>
10.8385

>  <SCORE.INTRA.norm>
-0.380219

>  <SCORE.RESTR>
0.04085

>  <SCORE.RESTR.CAVITY>
0.04085

>  <SCORE.RESTR.norm>
0.00127656

>  <SCORE.SYSTEM>
0

>  <SCORE.SYSTEM.CONST>
0

>  <SCORE.SYSTEM.DIHEDRAL>
0

>  <SCORE.SYSTEM.SOLV>
0

>  <SCORE.SYSTEM.norm>
0

>  <SCORE.heavy>
32

>  <SCORE.norm>
-1.53396

>  <RMSD>
7.437

$$$$
2tob cryst
 OpenBabel11021811463D
libRbt.so/2013.1/901 2013/11/27
 32 34  0  0  0  0  0  0  0  0999 V2000
  -14.5652   -5.6896   -8.4933 C   0  0  2  0  0  0  0  0  0  0  0  0
  -15.6882   -6.3722   -7.7187 C   0  0  1  0  0  0  0  0  0  0  0  0
  -15.1432   -6.8485   -6.3719 C   0  0  2  0  0  0  0  0  0  0  0  0
  -13.9146   -7.7469   -6.5664 C   0  0  1  0  0  0  0  0  0  0  0  0
  -12.8870   -7.0430   -7.4594 C   0  0  1  0  0  0  0  0  0  0  0  0
  -11.6916   -7.9027   -7.8367 C   0  0  0  0  0  0  0  0  0  0  0  0
  -16.7617   -5.4586   -7.5100 O   0  0  0  0  0  0  0  0  0  0  0  0
  -16.0877   -7.5657   -5.4579 N   0  3  0  0  0  0  0  0  0  0  0  0
  -13.3407   -8.0268   -5.2957 O   0  0  0  0  0  0  0  0  0  0  0  0
  -13.5130   -6.6160   -8.6858 O   0  0  0  0  0  0  0  0  0  0  0  0
  -10.9593   -8.2889   -6.6781 O   0  0  0  0  0  0  0  0  0  0  0  0
  -14.7498   -2.2510   -7.9222 C   0  0  2  0  0  0  0  0  0  0  0  0
  -14.3591   -0.8394   -8.3802 C   0  0  0  0  0  0  0  0  0  0  0  0
  -12.8709   -0.5614   -8.1871 C   0  0  1  0  0  0  0  0  0  0  0  0
  -12.0813   -1.6191   -8.9459 C   0  0  2  0  0  0  0  0  0  0  0  0
  -12.3609   -2.9966   -8.3396 C   0  0  1  0  0  0  0  0  0  0  0  0
  -13.8488   -3.3597   -8.4886 C   0  0  1  0  0  0  0  0  0  0  0  0
  -16.1762   -2.5487   -8.2859 N   0  3  0  0  0  0  0  0  0  0  0  0
  -12.5173    0.8210   -8.6478 N   0  3  0  0  0  0  0  0  0  0  0  0
  -11.5493   -3.9692   -8.9856 O   0  0  0  0  0  0  0  0  0  0  0  0
  -10.6718   -1.3335   -8.8890 O   0  0  0  0  0  0  0  0  0  0  0  0
  -14.1294   -4.5749   -7.7630 O   0  0  0  0  0  0  0  0  0  0  0  0
  -10.1587   -1.3167   -7.5855 C   0  0  2  0  0  0  0  0  0  0  0  0
   -8.8398   -0.5373   -7.5539 C   0  0  1  0  0  0  0  0  0  0  0  0
   -7.7063   -1.3512   -8.1786 C   0  0  0  0  0  0  0  0  0  0  0  0
   -7.6469   -2.7129   -7.5055 C   0  0  1  0  0  0  0  0  0  0  0  0
   -8.9848   -3.4117   -7.6734 C   0  0  1  0  0  0  0  0  0  0  0  0
   -8.9865   -4.7841   -7.0249 C   0  0  0  0  0  0  0  0  0  0  0  0
   -9.0009    0.7464   -8.3087 N   0  3  0  0  0  0  0  0  0  0  0  0
   -9.0371   -4.5940   -5.5335 N   0  3  0  0  0  0  0  0  0  0  0  0
   -6.6123   -3.5014   -8.0764 O   0  0  0  0  0  0  0  0  0  0  0  0
  -10.0131   -2.6264   -7.0468 O   0  0  0  0  0  0  0  0  0  0  0  0
  1  2  1  0  0  0  0
  1 22  1  1  0  0  0
  1 10  1  0  0  0  0
  2  3  1  0  0  0  0
  2  7  1  1  0  0  0
  3  4  1  0  0  0  0
  3  8  1  6  0  0  0
  4  5  1  0  0  0  0
  4  9  1  1  0  0  0
  5  6  1  6  0  0  0
  5 10  1  0  0  0  0
  6 11  1  0  0  0  0
 12 13  1  0  0  0  0
 12 17  1  0  0  0  0
 12 18  1  6  0  0  0
 13 14  1  0  0  0  0
 14 15  1  0  0  0  0
 14 19  1  6  0  0  0
 15 16  1  0  0  0  0
 15 21  1  1  0  0  0
 16 17  1  0  0  0  0
 16 20  1  6  0  0  0
 17 22  1  1  0  0  0
 23 21  1  6  0  0  0
 23 24  1  0  0  0  0
 23 32  1  0  0  0  0
 24 25  1  0  0  0  0
 24 29  1  6  0  0  0
 25 26  1  0  0  0  0
 26 27  1  0  0  0  0
 26 31  1  6  0  0  0
 27 28  1  1  0  0  0
 27 32  1  0  0  0  0
 28 30  1  0  0  0  0
M  CHG  5   8   1  18   1  19   1  29   1  30   1
M  END
>  <CHROM.1>
-138.34682355,178.30771517,-47.84835231,-167.25815158,-61.94385956,175.58683787
74.55910250,-80.55530781,60.62707827,-177.55174197,121.48015508,-159.73023411
-169.88618528,-62.92550874,73.38986215,-38.80188694,-12.08902559,-3.92875554
-7.64778064,2.35357063,0.07498886,2.87834388

>  <Name>
2tob cryst

>  <RI>
3.75586e+07

>  <Rbt.Current_Directory>
/home/itssahil/PROJECTS/Mol_Feturizer/New_Systems/rnas/2tob

>  <Rbt.Executable>
rbdock ($Id: //depot/dev/client3/rdock/2013.1/src/exe/rbdock.cxx#4 $)

>  <Rbt.Library>
libRbt.so (2013.1, Build901 2013/11/27)

>  <Rbt.Parameter_File>
/export/apps/rDock/src/rDock_2013.1_src/data/scripts/dock_solv.prm

>  <Rbt.Receptor>
prm/pocket_docking_8.prm

>  <SCORE>
-54.0895

>  <SCORE.INTER>
-34.5484

>  <SCORE.INTER.CONST>
1

>  <SCORE.INTER.POLAR>
-6.08062

>  <SCORE.INTER.ROT>
6

>  <SCORE.INTER.SOLV>
27.2041

>  <SCORE.INTER.VDW>
-19.4316

>  <SCORE.INTER.norm>
-1.07964

>  <SCORE.INTRA>
-19.8945

>  <SCORE.INTRA.DIHEDRAL>
1.0565

>  <SCORE.INTRA.DIHEDRAL.0>
18.4221

>  <SCORE.INTRA.POLAR>
-0.425244

>  <SCORE.INTRA.POLAR.0>
-1.57101

>  <SCORE.INTRA.REPUL>
-0.730195

>  <SCORE.INTRA.REPUL.0>
0.730195

>  <SCORE.INTRA.SOLV>
-1.87513

>  <SCORE.INTRA.SOLV.lig_0>
-127.221

>  <SCORE.INTRA.VDW>
-14.3884

>  <SCORE.INTRA.VDW.0>
10.8385

>  <SCORE.INTRA.norm>
-0.621704

>  <SCORE.RESTR>
0.353505

>  <SCORE.RESTR.CAVITY>
0.353505

>  <SCORE.RESTR.norm>
0.011047

>  <SCORE.SYSTEM>
0

>  <SCORE.SYSTEM.CONST>
0

>  <SCORE.SYSTEM.DIHEDRAL>
0

>  <SCORE.SYSTEM.SOLV>
0

>  <SCORE.SYSTEM.norm>
0

>  <SCORE.heavy>
32

>  <SCORE.norm>
-1.6903

>  <RMSD>
7.448

$$$$
2tob cryst
 OpenBabel11021811463D
libRbt.so/2013.1/901 2013/11/27
 32 34  0  0  0  0  0  0  0  0999 V2000
  -10.6477   -4.2161   -6.6841 C   0  0  2  0  0  0  0  0  0  0  0  0
   -9.4931   -5.2092   -6.5973 C   0  0  1  0  0  0  0  0  0  0  0  0
  -10.0511   -6.6288   -6.7024 C   0  0  2  0  0  0  0  0  0  0  0  0
  -11.1330   -6.8705   -5.6413 C   0  0  1  0  0  0  0  0  0  0  0  0
  -12.1889   -5.7617   -5.7078 C   0  0  1  0  0  0  0  0  0  0  0  0
  -13.2318   -5.8228   -4.6038 C   0  0  0  0  0  0  0  0  0  0  0  0
   -8.5675   -4.9741   -7.6551 O   0  0  0  0  0  0  0  0  0  0  0  0
   -9.0769   -7.7629   -6.6213 N   0  3  0  0  0  0  0  0  0  0  0  0
  -11.7414   -8.1334   -5.8809 O   0  0  0  0  0  0  0  0  0  0  0  0
  -11.5515   -4.4713   -5.6256 O   0  0  0  0  0  0  0  0  0  0  0  0
  -14.4007   -6.5042   -5.0479 O   0  0  0  0  0  0  0  0  0  0  0  0
  -12.9628   -2.6445   -7.9862 C   0  0  2  0  0  0  0  0  0  0  0  0
  -13.3433   -1.2231   -8.4220 C   0  0  0  0  0  0  0  0  0  0  0  0
  -12.1739   -0.2499   -8.3002 C   0  0  1  0  0  0  0  0  0  0  0  0
  -11.0152   -0.7834   -9.1312 C   0  0  2  0  0  0  0  0  0  0  0  0
  -10.5458   -2.1205   -8.5523 C   0  0  1  0  0  0  0  0  0  0  0  0
  -11.6704   -3.1677   -8.6326 C   0  0  1  0  0  0  0  0  0  0  0  0
  -14.0790   -3.6047   -8.2820 N   0  3  0  0  0  0  0  0  0  0  0  0
  -12.5725    1.1278   -8.7376 N   0  3  0  0  0  0  0  0  0  0  0  0
   -9.4028   -2.5691   -9.2694 O   0  0  0  0  0  0  0  0  0  0  0  0
   -9.9264    0.1578   -9.1410 O   0  0  0  0  0  0  0  0  0  0  0  0
  -11.2742   -4.3639   -7.9297 O   0  0  0  0  0  0  0  0  0  0  0  0
   -9.1968    0.1785   -7.9452 C   0  0  2  0  0  0  0  0  0  0  0  0
   -8.7169    1.6038   -7.6514 C   0  0  1  0  0  0  0  0  0  0  0  0
   -7.5591    1.9935   -8.5707 C   0  0  0  0  0  0  0  0  0  0  0  0
   -6.4737    0.9334   -8.4744 C   0  0  1  0  0  0  0  0  0  0  0  0
   -7.0563   -0.4144   -8.8626 C   0  0  1  0  0  0  0  0  0  0  0  0
   -6.0156   -1.5171   -8.7915 C   0  0  0  0  0  0  0  0  0  0  0  0
   -9.8504    2.5626   -7.8504 N   0  3  0  0  0  0  0  0  0  0  0  0
   -6.1159   -2.1651   -7.4376 N   0  3  0  0  0  0  0  0  0  0  0  0
   -5.3886    1.2583   -9.3317 O   0  0  0  0  0  0  0  0  0  0  0  0
   -8.1192   -0.7517   -7.9553 O   0  0  0  0  0  0  0  0  0  0  0  0
  1  2  1  0  0  0  0
  1 22  1  6  0  0  0
  1 10  1  0  0  0  0
  2  3  1  0  0  0  0
  2  7  1  6  0  0  0
  3  4  1  0  0  0  0
  3  8  1  1  0  0  0
  4  5  1  0  0  0  0
  4  9  1  6  0  0  0
  5  6  1  1  0  0  0
  5 10  1  0  0  0  0
  6 11  1  0  0  0  0
 12 13  1  0  0  0  0
 12 17  1  0  0  0  0
 12 18  1  6  0  0  0
 13 14  1  0  0  0  0
 14 15  1  0  0  0  0
 14 19  1  6  0  0  0
 15 16  1  0  0  0  0
 15 21  1  1  0  0  0
 16 17  1  0  0  0  0
 16 20  1  6  0  0  0
 17 22  1  1  0  0  0
 23 21  1  6  0  0  0
 23 24  1  0  0  0  0
 23 32  1  0  0  0  0
 24 25  1  0  0  0  0
 24 29  1  6  0  0  0
 25 26  1  0  0  0  0
 26 27  1  0  0  0  0
 26 31  1  6  0  0  0
 27 28  1  1  0  0  0
 27 32  1  0  0  0  0
 28 30  1  0  0  0  0
M  CHG  5   8   1  18   1  19   1  29   1  30   1
M  END
>  <CHROM.1>
-138.33867611,-75.73018997,165.60029181,178.36005966,-95.80752193,57.99542646
-63.22528071,120.73536255,75.57402712,73.95018777,-77.76591441,-145.20740348
164.51453746,-174.20289635,94.11281527,-38.80616372,-10.16990515,-2.59984586
-7.62490336,-2.05478677,0.06368040,-0.30715533

>  <Name>
2tob cryst

>  <RI>
2.9538e+07

>  <Rbt.Current_Directory>
/home/itssahil/PROJECTS/Mol_Feturizer/New_Systems/rnas/2tob

>  <Rbt.Executable>
rbdock ($Id: //depot/dev/client3/rdock/2013.1/src/exe/rbdock.cxx#4 $)

>  <Rbt.Library>
libRbt.so (2013.1, Build901 2013/11/27)

>  <Rbt.Parameter_File>
/export/apps/rDock/src/rDock_2013.1_src/data/scripts/dock_solv.prm

>  <Rbt.Receptor>
prm/pocket_docking_2.prm

>  <SCORE>
-41.1839

>  <SCORE.INTER>
-35.8226

>  <SCORE.INTER.CONST>
1

>  <SCORE.INTER.POLAR>
-7.36328

>  <SCORE.INTER.ROT>
6

>  <SCORE.INTER.SOLV>
50.1849

>  <SCORE.INTER.VDW>
-23.6658

>  <SCORE.INTER.norm>
-1.11945

>  <SCORE.INTRA>
-6.03033

>  <SCORE.INTRA.DIHEDRAL>
8.96596

>  <SCORE.INTRA.DIHEDRAL.0>
18.4221

>  <SCORE.INTRA.POLAR>
0.948388

>  <SCORE.INTRA.POLAR.0>
-1.57101

>  <SCORE.INTRA.REPUL>
-0.728329

>  <SCORE.INTRA.REPUL.0>
0.730195

>  <SCORE.INTRA.SOLV>
-0.396606

>  <SCORE.INTRA.SOLV.lig_0>
-127.221

>  <SCORE.INTRA.VDW>
-9.89788

>  <SCORE.INTRA.VDW.0>
10.8385

>  <SCORE.INTRA.norm>
-0.188448

>  <SCORE.RESTR>
0.668992

>  <SCORE.RESTR.CAVITY>
0.668992

>  <SCORE.RESTR.norm>
0.020906

>  <SCORE.SYSTEM>
0

>  <SCORE.SYSTEM.CONST>
0

>  <SCORE.SYSTEM.DIHEDRAL>
0

>  <SCORE.SYSTEM.SOLV>
0

>  <SCORE.SYSTEM.norm>
0

>  <SCORE.heavy>
32

>  <SCORE.norm>
-1.287

>  <RMSD>
7.474

$$$$
2tob cryst
 OpenBabel11021811463D
libRbt.so/2013.1/901 2013/11/27
 32 34  0  0  0  0  0  0  0  0999 V2000
  -10.6756   -4.3203   -6.3016 C   0  0  2  0  0  0  0  0  0  0  0  0
   -9.6049   -5.3998   -6.1782 C   0  0  1  0  0  0  0  0  0  0  0  0
  -10.2828   -6.7700   -6.1534 C   0  0  2  0  0  0  0  0  0  0  0  0
  -11.3365   -6.8383   -5.0400 C   0  0  1  0  0  0  0  0  0  0  0  0
  -12.2984   -5.6508   -5.1556 C   0  0  1  0  0  0  0  0  0  0  0  0
  -13.2965   -5.5397   -4.0147 C   0  0  0  0  0  0  0  0  0  0  0  0
   -8.7072   -5.3245   -7.2824 O   0  0  0  0  0  0  0  0  0  0  0  0
   -9.4037   -7.9745   -6.0185 N   0  3  0  0  0  0  0  0  0  0  0  0
  -12.0571   -8.0584   -5.1597 O   0  0  0  0  0  0  0  0  0  0  0  0
  -11.5532   -4.4174   -5.1958 O   0  0  0  0  0  0  0  0  0  0  0  0
  -14.2305   -6.6140   -4.0519 O   0  0  0  0  0  0  0  0  0  0  0  0
  -12.9248   -2.6836   -7.7349 C   0  0  2  0  0  0  0  0  0  0  0  0
  -13.1938   -1.2744   -8.2797 C   0  0  0  0  0  0  0  0  0  0  0  0
  -11.9624   -0.3771   -8.1920 C   0  0  1  0  0  0  0  0  0  0  0  0
  -10.8242   -1.0466   -8.9498 C   0  0  2  0  0  0  0  0  0  0  0  0
  -10.4639   -2.3677   -8.2656 C   0  0  1  0  0  0  0  0  0  0  0  0
  -11.6570   -3.3388   -8.3053 C   0  0  1  0  0  0  0  0  0  0  0  0
  -14.0981   -3.5840   -7.9954 N   0  3  0  0  0  0  0  0  0  0  0  0
  -12.2526    0.9897   -8.7359 N   0  3  0  0  0  0  0  0  0  0  0  0
   -9.3382   -2.9435   -8.9161 O   0  0  0  0  0  0  0  0  0  0  0  0
   -9.6721   -0.1850   -8.9935 O   0  0  0  0  0  0  0  0  0  0  0  0
  -11.3628   -4.5058   -7.5095 O   0  0  0  0  0  0  0  0  0  0  0  0
   -8.9531   -0.1544   -7.7915 C   0  0  2  0  0  0  0  0  0  0  0  0
   -8.4200    1.2597   -7.5383 C   0  0  1  0  0  0  0  0  0  0  0  0
   -7.2394    1.5738   -8.4575 C   0  0  0  0  0  0  0  0  0  0  0  0
   -6.1977    0.4757   -8.3163 C   0  0  1  0  0  0  0  0  0  0  0  0
   -6.8295   -0.8601   -8.6674 C   0  0  1  0  0  0  0  0  0  0  0  0
   -5.8339   -1.9999   -8.5505 C   0  0  0  0  0  0  0  0  0  0  0  0
   -9.5128    2.2553   -7.7794 N   0  3  0  0  0  0  0  0  0  0  0  0
   -6.6045   -3.2918   -8.5420 N   0  3  0  0  0  0  0  0  0  0  0  0
   -5.0928    0.7299   -9.1722 O   0  0  0  0  0  0  0  0  0  0  0  0
   -7.9131   -1.1261   -7.7608 O   0  0  0  0  0  0  0  0  0  0  0  0
  1  2  1  0  0  0  0
  1 22  1  6  0  0  0
  1 10  1  0  0  0  0
  2  3  1  0  0  0  0
  2  7  1  6  0  0  0
  3  4  1  0  0  0  0
  3  8  1  1  0  0  0
  4  5  1  0  0  0  0
  4  9  1  6  0  0  0
  5  6  1  1  0  0  0
  5 10  1  0  0  0  0
  6 11  1  0  0  0  0
 12 13  1  0  0  0  0
 12 17  1  0  0  0  0
 12 18  1  6  0  0  0
 13 14  1  0  0  0  0
 14 15  1  0  0  0  0
 14 19  1  6  0  0  0
 15 16  1  0  0  0  0
 15 21  1  1  0  0  0
 16 17  1  0  0  0  0
 16 20  1  6  0  0  0
 17 22  1  1  0  0  0
 23 21  1  6  0  0  0
 23 24  1  0  0  0  0
 23 32  1  0  0  0  0
 24 25  1  0  0  0  0
 24 29  1  6  0  0  0
 25 26  1  0  0  0  0
 26 27  1  0  0  0  0
 26 31  1  6  0  0  0
 27 28  1  1  0  0  0
 27 32  1  0  0  0  0
 28 30  1  0  0  0  0
M  CHG  5   8   1  18   1  19   1  29   1  30   1
M  END
>  <CHROM.1>
-136.80210877,36.11658647,77.86715723,144.54451587,-68.09436257,74.33852241
54.67614676,75.22979200,77.06787605,20.39086525,-82.05497286,-143.16658447
-71.09541032,-57.51694783,164.82193992,101.90220808,-10.12020042,-2.82822367
-7.34849559,-2.09595310,0.13322141,-0.35635831

>  <Name>
2tob cryst

>  <RI>
0

>  <Rbt.Current_Directory>
/home/itssahil/PROJECTS/Mol_Feturizer/New_Systems/rnas/2tob

>  <Rbt.Executable>
rbdock ($Id: //depot/dev/client3/rdock/2013.1/src/exe/rbdock.cxx#4 $)

>  <Rbt.Library>
libRbt.so (2013.1, Build901 2013/11/27)

>  <Rbt.Parameter_File>
/export/apps/rDock/src/rDock_2013.1_src/data/scripts/dock_solv.prm

>  <Rbt.Receptor>
prm/pocket_docking_3.prm

>  <SCORE>
-40.905

>  <SCORE.INTER>
-33.9862

>  <SCORE.INTER.CONST>
1

>  <SCORE.INTER.POLAR>
-7.17992

>  <SCORE.INTER.ROT>
6

>  <SCORE.INTER.SOLV>
42.2985

>  <SCORE.INTER.VDW>
-20.4239

>  <SCORE.INTER.norm>
-1.06207

>  <SCORE.INTRA>
-7.42208

>  <SCORE.INTRA.DIHEDRAL>
14.8182

>  <SCORE.INTRA.DIHEDRAL.0>
18.4221

>  <SCORE.INTRA.POLAR>
-0.616584

>  <SCORE.INTRA.POLAR.0>
-1.57101

>  <SCORE.INTRA.REPUL>
-0.730195

>  <SCORE.INTRA.REPUL.0>
0.730195

>  <SCORE.INTRA.SOLV>
1.90175

>  <SCORE.INTRA.SOLV.lig_0>
-127.221

>  <SCORE.INTRA.VDW>
-10.0347

>  <SCORE.INTRA.VDW.0>
10.8385

>  <SCORE.INTRA.norm>
-0.23194

>  <SCORE.RESTR>
0.503246

>  <SCORE.RESTR.CAVITY>
0.503246

>  <SCORE.RESTR.norm>
0.0157264

>  <SCORE.SYSTEM>
0

>  <SCORE.SYSTEM.CONST>
0

>  <SCORE.SYSTEM.DIHEDRAL>
0

>  <SCORE.SYSTEM.SOLV>
0

>  <SCORE.SYSTEM.norm>
0

>  <SCORE.heavy>
32

>  <SCORE.norm>
-1.27828

>  <RMSD>
7.484

$$$$
2tob cryst
 OpenBabel11021811463D
libRbt.so/2013.1/901 2013/11/27
 32 34  0  0  0  0  0  0  0  0999 V2000
  -12.6212   -2.6174   -6.5762 C   0  0  2  0  0  0  0  0  0  0  0  0
  -14.0005   -2.3245   -5.9943 C   0  0  1  0  0  0  0  0  0  0  0  0
  -14.6480   -3.6418   -5.5664 C   0  0  2  0  0  0  0  0  0  0  0  0
  -14.6871   -4.6362   -6.7343 C   0  0  1  0  0  0  0  0  0  0  0  0
  -13.2896   -4.7799   -7.3470 C   0  0  1  0  0  0  0  0  0  0  0  0
  -13.2416   -5.6317   -8.6049 C   0  0  0  0  0  0  0  0  0  0  0  0
  -13.8811   -1.4569   -4.8701 O   0  0  0  0  0  0  0  0  0  0  0  0
  -16.0245   -3.5779   -4.9807 N   0  3  0  0  0  0  0  0  0  0  0  0
  -15.1367   -5.8967   -6.2534 O   0  0  0  0  0  0  0  0  0  0  0  0
  -12.7672   -3.4803   -7.6882 O   0  0  0  0  0  0  0  0  0  0  0  0
  -14.4903   -5.5973   -9.2883 O   0  0  0  0  0  0  0  0  0  0  0  0
  -10.1665   -4.5095   -6.7409 C   0  0  2  0  0  0  0  0  0  0  0  0
   -8.7483   -4.5670   -7.3244 C   0  0  0  0  0  0  0  0  0  0  0  0
   -8.3251   -3.2380   -7.9442 C   0  0  1  0  0  0  0  0  0  0  0  0
   -8.4336   -2.1545   -6.8801 C   0  0  2  0  0  0  0  0  0  0  0  0
   -9.8960   -2.0032   -6.4539 C   0  0  1  0  0  0  0  0  0  0  0  0
  -10.4099   -3.3062   -5.8165 C   0  0  1  0  0  0  0  0  0  0  0  0
  -10.4809   -5.7719   -5.9907 N   0  3  0  0  0  0  0  0  0  0  0  0
   -6.9352   -3.3218   -8.5003 N   0  3  0  0  0  0  0  0  0  0  0  0
  -10.0092   -0.9260   -5.5326 O   0  0  0  0  0  0  0  0  0  0  0  0
   -7.9358   -0.9015   -7.3838 O   0  0  0  0  0  0  0  0  0  0  0  0
  -11.8298   -3.2068   -5.5802 O   0  0  0  0  0  0  0  0  0  0  0  0
   -8.1511   -0.7279   -8.7571 C   0  0  2  0  0  0  0  0  0  0  0  0
   -7.9682    0.7467   -9.1316 C   0  0  1  0  0  0  0  0  0  0  0  0
   -9.1571    1.5843   -8.6599 C   0  0  0  0  0  0  0  0  0  0  0  0
  -10.4402    0.9585   -9.1823 C   0  0  1  0  0  0  0  0  0  0  0  0
  -10.5392   -0.4713   -8.6798 C   0  0  1  0  0  0  0  0  0  0  0  0
  -11.8071   -1.1503   -9.1650 C   0  0  0  0  0  0  0  0  0  0  0  0
   -6.7140    1.2695   -8.5011 N   0  3  0  0  0  0  0  0  0  0  0  0
  -12.9802   -0.3278   -8.7064 N   0  3  0  0  0  0  0  0  0  0  0  0
  -11.5672    1.7054   -8.7462 O   0  0  0  0  0  0  0  0  0  0  0  0
   -9.4187   -1.2262   -9.1711 O   0  0  0  0  0  0  0  0  0  0  0  0
  1  2  1  0  0  0  0
  1 22  1  1  0  0  0
  1 10  1  0  0  0  0
  2  3  1  0  0  0  0
  2  7  1  1  0  0  0
  3  4  1  0  0  0  0
  3  8  1  6  0  0  0
  4  5  1  0  0  0  0
  4  9  1  1  0  0  0
  5  6  1  6  0  0  0
  5 10  1  0  0  0  0
  6 11  1  0  0  0  0
 12 13  1  0  0  0  0
 12 17  1  0  0  0  0
 12 18  1  1  0  0  0
 13 14  1  0  0  0  0
 14 15  1  0  0  0  0
 14 19  1  1  0  0  0
 15 16  1  0  0  0  0
 15 21  1  6  0  0  0
 16 17  1  0  0  0  0
 16 20  1  1  0  0  0
 17 22  1  6  0  0  0
 23 21  1  1  0  0  0
 23 24  1  0  0  0  0
 23 32  1  0  0  0  0
 24 25  1  0  0  0  0
 24 29  1  1  0  0  0
 25 26  1  0  0  0  0
 26 27  1  0  0  0  0
 26 31  1  1  0  0  0
 27 28  1  6  0  0  0
 27 32  1  0  0  0  0
 28 30  1  0  0  0  0
M  CHG  5   8   1  18   1  19   1  29   1  30   1
M  END
>  <CHROM.1>
-166.99147868,-48.16125984,-165.89355373,-177.86550461,27.27962186,71.55071110
69.08725350,-160.25982370,32.42475417,-53.38811471,-79.50537777,163.97368419
-39.16993480,-59.71474727,-57.29629459,-166.03796529,-11.18145698,-2.35048211
-7.38158703,2.47800119,-0.15394871,2.92096777

>  <Name>
2tob cryst

>  <RI>
0

>  <Rbt.Current_Directory>
/home/itssahil/PROJECTS/Mol_Feturizer/New_Systems/rnas/2tob

>  <Rbt.Executable>
rbdock ($Id: //depot/dev/client3/rdock/2013.1/src/exe/rbdock.cxx#4 $)

>  <Rbt.Library>
libRbt.so (2013.1, Build901 2013/11/27)

>  <Rbt.Parameter_File>
/export/apps/rDock/src/rDock_2013.1_src/data/scripts/dock_solv.prm

>  <Rbt.Receptor>
prm/pocket_docking_5.prm

>  <SCORE>
-51.5215

>  <SCORE.INTER>
-42.4086

>  <SCORE.INTER.CONST>
1

>  <SCORE.INTER.POLAR>
-6.5774

>  <SCORE.INTER.ROT>
6

>  <SCORE.INTER.SOLV>
30.3574

>  <SCORE.INTER.VDW>
-24.0668

>  <SCORE.INTER.norm>
-1.32527

>  <SCORE.INTRA>
-9.11292

>  <SCORE.INTRA.DIHEDRAL>
-3.84494

>  <SCORE.INTRA.DIHEDRAL.0>
18.4221

>  <SCORE.INTRA.POLAR>
1.20274

>  <SCORE.INTRA.POLAR.0>
-1.57101

>  <SCORE.INTRA.REPUL>
-0.730195

>  <SCORE.INTRA.REPUL.0>
0.730195

>  <SCORE.INTRA.SOLV>
-0.509669

>  <SCORE.INTRA.SOLV.lig_0>
-127.221

>  <SCORE.INTRA.VDW>
-7.37398

>  <SCORE.INTRA.VDW.0>
10.8385

>  <SCORE.INTRA.norm>
-0.284779

>  <SCORE.RESTR>
0

>  <SCORE.RESTR.CAVITY>
0

>  <SCORE.RESTR.norm>
0

>  <SCORE.SYSTEM>
0

>  <SCORE.SYSTEM.CONST>
0

>  <SCORE.SYSTEM.DIHEDRAL>
0

>  <SCORE.SYSTEM.SOLV>
0

>  <SCORE.SYSTEM.norm>
0

>  <SCORE.heavy>
32

>  <SCORE.norm>
-1.61005

>  <RMSD>
7.488

$$$$
2tob cryst
 OpenBabel11021811463D
libRbt.so/2013.1/901 2013/11/27
 32 34  0  0  0  0  0  0  0  0999 V2000
  -12.5673   -5.2715   -5.8074 C   0  0  2  0  0  0  0  0  0  0  0  0
  -12.8400   -6.2751   -4.6914 C   0  0  1  0  0  0  0  0  0  0  0  0
  -14.0718   -5.8220   -3.9072 C   0  0  2  0  0  0  0  0  0  0  0  0
  -13.8959   -4.3864   -3.3949 C   0  0  1  0  0  0  0  0  0  0  0  0
  -13.4985   -3.4625   -4.5514 C   0  0  1  0  0  0  0  0  0  0  0  0
  -13.1567   -2.0427   -4.1300 C   0  0  0  0  0  0  0  0  0  0  0  0
  -13.0676   -7.5687   -5.2441 O   0  0  0  0  0  0  0  0  0  0  0  0
  -14.5030   -6.6661   -2.7481 N   0  3  0  0  0  0  0  0  0  0  0  0
  -15.1211   -3.9463   -2.8228 O   0  0  0  0  0  0  0  0  0  0  0  0
  -12.3463   -3.9972   -5.2332 O   0  0  0  0  0  0  0  0  0  0  0  0
  -14.3393   -1.2857   -3.8932 O   0  0  0  0  0  0  0  0  0  0  0  0
  -14.7393   -3.1207   -7.0327 C   0  0  2  0  0  0  0  0  0  0  0  0
  -14.7190   -1.7751   -7.7703 C   0  0  0  0  0  0  0  0  0  0  0  0
  -13.3017   -1.2403   -7.9560 C   0  0  1  0  0  0  0  0  0  0  0  0
  -12.4872   -2.2856   -8.7056 C   0  0  2  0  0  0  0  0  0  0  0  0
  -12.3784   -3.5535   -7.8549 C   0  0  1  0  0  0  0  0  0  0  0  0
  -13.7708   -4.1628   -7.6141 C   0  0  1  0  0  0  0  0  0  0  0  0
  -16.1261   -3.6968   -7.0221 N   0  3  0  0  0  0  0  0  0  0  0  0
  -13.3121    0.0707   -8.6836 N   0  3  0  0  0  0  0  0  0  0  0  0
  -11.5372   -4.4919   -8.5134 O   0  0  0  0  0  0  0  0  0  0  0  0
  -11.1734   -1.7806   -9.0063 O   0  0  0  0  0  0  0  0  0  0  0  0
  -13.6707   -5.2513   -6.6723 O   0  0  0  0  0  0  0  0  0  0  0  0
  -10.6810   -0.8964   -8.0376 C   0  0  2  0  0  0  0  0  0  0  0  0
   -9.6130    0.0123   -8.6554 C   0  0  1  0  0  0  0  0  0  0  0  0
   -8.3064   -0.7495   -8.8785 C   0  0  0  0  0  0  0  0  0  0  0  0
   -7.8906   -1.4096   -7.5738 C   0  0  1  0  0  0  0  0  0  0  0  0
   -8.9982   -2.3391   -7.1091 C   0  0  1  0  0  0  0  0  0  0  0  0
   -8.6385   -3.0348   -5.8089 C   0  0  0  0  0  0  0  0  0  0  0  0
  -10.1066    0.5419   -9.9667 N   0  3  0  0  0  0  0  0  0  0  0  0
   -9.3052   -4.3833   -5.8028 N   0  3  0  0  0  0  0  0  0  0  0  0
   -6.6860   -2.1412   -7.7522 O   0  0  0  0  0  0  0  0  0  0  0  0
  -10.1958   -1.5760   -6.8846 O   0  0  0  0  0  0  0  0  0  0  0  0
  1  2  1  0  0  0  0
  1 22  1  6  0  0  0
  1 10  1  0  0  0  0
  2  3  1  0  0  0  0
  2  7  1  6  0  0  0
  3  4  1  0  0  0  0
  3  8  1  1  0  0  0
  4  5  1  0  0  0  0
  4  9  1  6  0  0  0
  5  6  1  1  0  0  0
  5 10  1  0  0  0  0
  6 11  1  0  0  0  0
 12 13  1  0  0  0  0
 12 17  1  0  0  0  0
 12 18  1  6  0  0  0
 13 14  1  0  0  0  0
 14 15  1  0  0  0  0
 14 19  1  6  0  0  0
 15 16  1  0  0  0  0
 15 21  1  1  0  0  0
 16 17  1  0  0  0  0
 16 20  1  6  0  0  0
 17 22  1  1  0  0  0
 23 21  1  6  0  0  0
 23 24  1  0  0  0  0
 23 32  1  0  0  0  0
 24 25  1  0  0  0  0
 24 29  1  6  0  0  0
 25 26  1  0  0  0  0
 26 27  1  0  0  0  0
 26 31  1  6  0  0  0
 27 28  1  1  0  0  0
 27 32  1  0  0  0  0
 28 30  1  0  0  0  0
M  CHG  5   8   1  18   1  19   1  29   1  30   1
M  END
>  <CHROM.1>
165.80513200,-178.96149700,-32.52728865,-44.26559809,-78.68501335,-160.82412730
56.93936982,-119.92789355,32.45020106,-174.72042908,-98.76067942,-156.82584960
59.06139976,-174.24899411,-149.16492579,-89.10007401,-12.11339146,-3.08326831
-6.53688898,-2.27798760,0.10361101,-0.70028675

>  <Name>
2tob cryst

>  <RI>
2.10184e+07

>  <Rbt.Current_Directory>
/home/itssahil/PROJECTS/Mol_Feturizer/New_Systems/rnas/2tob

>  <Rbt.Executable>
rbdock ($Id: //depot/dev/client3/rdock/2013.1/src/exe/rbdock.cxx#4 $)

>  <Rbt.Library>
libRbt.so (2013.1, Build901 2013/11/27)

>  <Rbt.Parameter_File>
/export/apps/rDock/src/rDock_2013.1_src/data/scripts/dock_solv.prm

>  <Rbt.Receptor>
prm/pocket_docking_7.prm

>  <SCORE>
-39.7692

>  <SCORE.INTER>
-33.007

>  <SCORE.INTER.CONST>
1

>  <SCORE.INTER.POLAR>
-5.20228

>  <SCORE.INTER.ROT>
6

>  <SCORE.INTER.SOLV>
25.0815

>  <SCORE.INTER.VDW>
-20.6242

>  <SCORE.INTER.norm>
-1.03147

>  <SCORE.INTRA>
-6.76223

>  <SCORE.INTRA.DIHEDRAL>
7.25395

>  <SCORE.INTRA.DIHEDRAL.0>
18.4221

>  <SCORE.INTRA.POLAR>
0.404342

>  <SCORE.INTRA.POLAR.0>
-1.57101

>  <SCORE.INTRA.REPUL>
-0.437939

>  <SCORE.INTRA.REPUL.0>
0.730195

>  <SCORE.INTRA.SOLV>
-0.132558

>  <SCORE.INTRA.SOLV.lig_0>
-127.221

>  <SCORE.INTRA.VDW>
-9.50799

>  <SCORE.INTRA.VDW.0>
10.8385

>  <SCORE.INTRA.norm>
-0.21132

>  <SCORE.RESTR>
0

>  <SCORE.RESTR.CAVITY>
0

>  <SCORE.RESTR.norm>
0

>  <SCORE.SYSTEM>
0

>  <SCORE.SYSTEM.CONST>
0

>  <SCORE.SYSTEM.DIHEDRAL>
0

>  <SCORE.SYSTEM.SOLV>
0

>  <SCORE.SYSTEM.norm>
0

>  <SCORE.heavy>
32

>  <SCORE.norm>
-1.24279

>  <RMSD>
7.500

$$$$
2tob cryst
 OpenBabel11021811463D
libRbt.so/2013.1/901 2013/11/27
 32 34  0  0  0  0  0  0  0  0999 V2000
  -11.3198   -4.5260   -6.2628 C   0  0  2  0  0  0  0  0  0  0  0  0
  -10.0998   -5.3667   -5.8995 C   0  0  1  0  0  0  0  0  0  0  0  0
  -10.4183   -6.8398   -6.1571 C   0  0  2  0  0  0  0  0  0  0  0  0
  -11.6866   -7.2643   -5.4048 C   0  0  1  0  0  0  0  0  0  0  0  0
  -12.8324   -6.2972   -5.7223 C   0  0  1  0  0  0  0  0  0  0  0  0
  -14.0982   -6.5396   -4.9166 C   0  0  0  0  0  0  0  0  0  0  0  0
   -8.9814   -4.9689   -6.6880 O   0  0  0  0  0  0  0  0  0  0  0  0
   -9.3511   -7.8429   -5.8462 N   0  3  0  0  0  0  0  0  0  0  0  0
  -12.0411   -8.5825   -5.8034 O   0  0  0  0  0  0  0  0  0  0  0  0
  -12.4148   -4.9410   -5.4683 O   0  0  0  0  0  0  0  0  0  0  0  0
  -14.9273   -7.5062   -5.5539 O   0  0  0  0  0  0  0  0  0  0  0  0
  -13.3628   -3.0705   -7.8048 C   0  0  2  0  0  0  0  0  0  0  0  0
  -13.7962   -1.6833   -8.2975 C   0  0  0  0  0  0  0  0  0  0  0  0
  -12.6846   -0.6472   -8.1552 C   0  0  1  0  0  0  0  0  0  0  0  0
  -11.4650   -1.1415   -8.9209 C   0  0  2  0  0  0  0  0  0  0  0  0
  -10.9535   -2.4361   -8.2841 C   0  0  1  0  0  0  0  0  0  0  0  0
  -12.0185   -3.5426   -8.3809 C   0  0  1  0  0  0  0  0  0  0  0  0
  -14.4145   -4.0954   -8.1191 N   0  3  0  0  0  0  0  0  0  0  0  0
  -13.1337    0.6954   -8.6489 N   0  3  0  0  0  0  0  0  0  0  0  0
   -9.7589   -2.8434   -8.9392 O   0  0  0  0  0  0  0  0  0  0  0  0
  -10.4264   -0.1452   -8.9125 O   0  0  0  0  0  0  0  0  0  0  0  0
  -11.5925   -4.6970   -7.6274 O   0  0  0  0  0  0  0  0  0  0  0  0
   -9.7018   -0.1057   -7.7142 C   0  0  2  0  0  0  0  0  0  0  0  0
   -8.9581    1.2290   -7.5979 C   0  0  1  0  0  0  0  0  0  0  0  0
   -7.7506    1.2679   -8.5350 C   0  0  0  0  0  0  0  0  0  0  0  0
   -6.8868    0.0436   -8.2785 C   0  0  1  0  0  0  0  0  0  0  0  0
   -7.7168   -1.2087   -8.5006 C   0  0  1  0  0  0  0  0  0  0  0  0
   -6.9050   -2.4694   -8.2644 C   0  0  0  0  0  0  0  0  0  0  0  0
   -9.8889    2.3503   -7.9441 N   0  3  0  0  0  0  0  0  0  0  0  0
   -5.4756   -2.0648   -8.0276 N   0  3  0  0  0  0  0  0  0  0  0  0
   -5.7628    0.0413   -9.1472 O   0  0  0  0  0  0  0  0  0  0  0  0
   -8.8211   -1.2162   -7.5801 O   0  0  0  0  0  0  0  0  0  0  0  0
  1  2  1  0  0  0  0
  1 22  1  6  0  0  0
  1 10  1  0  0  0  0
  2  3  1  0  0  0  0
  2  7  1  6  0  0  0
  3  4  1  0  0  0  0
  3  8  1  1  0  0  0
  4  5  1  0  0  0  0
  4  9  1  6  0  0  0
  5  6  1  1  0  0  0
  5 10  1  0  0  0  0
  6 11  1  0  0  0  0
 12 13  1  0  0  0  0
 12 17  1  0  0  0  0
 12 18  1  6  0  0  0
 13 14  1  0  0  0  0
 14 15  1  0  0  0  0
 14 19  1  6  0  0  0
 15 16  1  0  0  0  0
 15 21  1  1  0  0  0
 16 17  1  0  0  0  0
 16 20  1  6  0  0  0
 17 22  1  1  0  0  0
 23 21  1  6  0  0  0
 23 24  1  0  0  0  0
 23 32  1  0  0  0  0
 24 25  1  0  0  0  0
 24 29  1  6  0  0  0
 25 26  1  0  0  0  0
 26 27  1  0  0  0  0
 26 31  1  6  0  0  0
 27 28  1  1  0  0  0
 27 32  1  0  0  0  0
 28 30  1  0  0  0  0
M  CHG  5   8   1  18   1  19   1  29   1  30   1
M  END
>  <CHROM.1>
-141.10671161,68.99514809,-147.23427573,164.34952192,-86.83232862,64.30738663
-178.99683376,129.02505120,78.96869753,178.05657356,-63.39268349,-161.52671052
163.95839924,54.87213790,-6.14513109,71.67111783,-10.59674473,-3.03952733
-7.42144552,-2.09484882,0.01519015,-0.33924389

>  <Name>
2tob cryst

>  <RI>
2.9538e+07

>  <Rbt.Current_Directory>
/home/itssahil/PROJECTS/Mol_Feturizer/New_Systems/rnas/2tob

>  <Rbt.Executable>
rbdock ($Id: //depot/dev/client3/rdock/2013.1/src/exe/rbdock.cxx#4 $)

>  <Rbt.Library>
libRbt.so (2013.1, Build901 2013/11/27)

>  <Rbt.Parameter_File>
/export/apps/rDock/src/rDock_2013.1_src/data/scripts/dock_solv.prm

>  <Rbt.Receptor>
prm/pocket_docking_2.prm

>  <SCORE>
-45.9079

>  <SCORE.INTER>
-42.5259

>  <SCORE.INTER.CONST>
1

>  <SCORE.INTER.POLAR>
-6.96427

>  <SCORE.INTER.ROT>
6

>  <SCORE.INTER.SOLV>
44.8495

>  <SCORE.INTER.VDW>
-27.6862

>  <SCORE.INTER.norm>
-1.32894

>  <SCORE.INTRA>
-4.05763

>  <SCORE.INTRA.DIHEDRAL>
5.65572

>  <SCORE.INTRA.DIHEDRAL.0>
18.4221

>  <SCORE.INTRA.POLAR>
0.543062

>  <SCORE.INTRA.POLAR.0>
-1.57101

>  <SCORE.INTRA.REPUL>
-0.689502

>  <SCORE.INTRA.REPUL.0>
0.730195

>  <SCORE.INTRA.SOLV>
-0.999481

>  <SCORE.INTRA.SOLV.lig_0>
-127.221

>  <SCORE.INTRA.VDW>
-4.78466

>  <SCORE.INTRA.VDW.0>
10.8385

>  <SCORE.INTRA.norm>
-0.126801

>  <SCORE.RESTR>
0.675608

>  <SCORE.RESTR.CAVITY>
0.675608

>  <SCORE.RESTR.norm>
0.0211127

>  <SCORE.SYSTEM>
0

>  <SCORE.SYSTEM.CONST>
0

>  <SCORE.SYSTEM.DIHEDRAL>
0

>  <SCORE.SYSTEM.SOLV>
0

>  <SCORE.SYSTEM.norm>
0

>  <SCORE.heavy>
32

>  <SCORE.norm>
-1.43462

>  <RMSD>
7.504

$$$$
2tob cryst
 OpenBabel11021811463D
libRbt.so/2013.1/901 2013/11/27
 32 34  0  0  0  0  0  0  0  0999 V2000
  -11.9267   -4.9647   -6.3535 C   0  0  2  0  0  0  0  0  0  0  0  0
  -10.6471   -5.6057   -5.8253 C   0  0  1  0  0  0  0  0  0  0  0  0
  -10.5934   -7.0613   -6.2900 C   0  0  2  0  0  0  0  0  0  0  0  0
  -11.8616   -7.8162   -5.8701 C   0  0  1  0  0  0  0  0  0  0  0  0
  -13.1053   -7.0449   -6.3254 C   0  0  1  0  0  0  0  0  0  0  0  0
  -14.4196   -7.6298   -5.8349 C   0  0  0  0  0  0  0  0  0  0  0  0
   -9.5102   -4.8996   -6.3148 O   0  0  0  0  0  0  0  0  0  0  0  0
   -9.4162   -7.8813   -5.8614 N   0  3  0  0  0  0  0  0  0  0  0  0
  -11.8487   -9.1081   -6.4642 O   0  0  0  0  0  0  0  0  0  0  0  0
  -13.0386   -5.6840   -5.8548 O   0  0  0  0  0  0  0  0  0  0  0  0
  -14.4696   -7.6411   -4.4119 O   0  0  0  0  0  0  0  0  0  0  0  0
  -13.5393   -3.2272   -7.8024 C   0  0  2  0  0  0  0  0  0  0  0  0
  -13.8873   -1.7989   -8.2428 C   0  0  0  0  0  0  0  0  0  0  0  0
  -12.6913   -0.8562   -8.1410 C   0  0  1  0  0  0  0  0  0  0  0  0
  -11.5570   -1.4252   -8.9822 C   0  0  2  0  0  0  0  0  0  0  0  0
  -11.1162   -2.7707   -8.4004 C   0  0  1  0  0  0  0  0  0  0  0  0
  -12.2689   -3.7883   -8.4607 C   0  0  1  0  0  0  0  0  0  0  0  0
  -14.6839   -4.1592   -8.0790 N   0  3  0  0  0  0  0  0  0  0  0  0
  -13.0586    0.5289   -8.5824 N   0  3  0  0  0  0  0  0  0  0  0  0
   -9.9940   -3.2537   -9.1280 O   0  0  0  0  0  0  0  0  0  0  0  0
  -10.4440   -0.5132   -9.0108 O   0  0  0  0  0  0  0  0  0  0  0  0
  -11.8960   -4.9902   -7.7549 O   0  0  0  0  0  0  0  0  0  0  0  0
   -9.7497   -0.4428   -7.7960 C   0  0  2  0  0  0  0  0  0  0  0  0
   -9.1184    0.9441   -7.6353 C   0  0  1  0  0  0  0  0  0  0  0  0
   -7.8990    1.1007   -8.5442 C   0  0  0  0  0  0  0  0  0  0  0  0
   -6.9449   -0.0560   -8.2940 C   0  0  1  0  0  0  0  0  0  0  0  0
   -7.6667   -1.3654   -8.5606 C   0  0  1  0  0  0  0  0  0  0  0  0
   -6.7610   -2.5621   -8.3327 C   0  0  0  0  0  0  0  0  0  0  0  0
  -10.1291    1.9949   -7.9788 N   0  3  0  0  0  0  0  0  0  0  0  0
   -7.5849   -3.8088   -8.5058 N   0  3  0  0  0  0  0  0  0  0  0  0
   -5.8067    0.0513   -9.1372 O   0  0  0  0  0  0  0  0  0  0  0  0
   -8.7855   -1.4820   -7.6654 O   0  0  0  0  0  0  0  0  0  0  0  0
  1  2  1  0  0  0  0
  1 22  1  6  0  0  0
  1 10  1  0  0  0  0
  2  3  1  0  0  0  0
  2  7  1  6  0  0  0
  3  4  1  0  0  0  0
  3  8  1  1  0  0  0
  4  5  1  0  0  0  0
  4  9  1  6  0  0  0
  5  6  1  1  0  0  0
  5 10  1  0  0  0  0
  6 11  1  0  0  0  0
 12 13  1  0  0  0  0
 12 17  1  0  0  0  0
 12 18  1  6  0  0  0
 13 14  1  0  0  0  0
 14 15  1  0  0  0  0
 14 19  1  6  0  0  0
 15 16  1  0  0  0  0
 15 21  1  1  0  0  0
 16 17  1  0  0  0  0
 16 20  1  6  0  0  0
 17 22  1  1  0  0  0
 23 21  1  6  0  0  0
 23 24  1  0  0  0  0
 23 32  1  0  0  0  0
 24 25  1  0  0  0  0
 24 29  1  6  0  0  0
 25 26  1  0  0  0  0
 26 27  1  0  0  0  0
 26 31  1  6  0  0  0
 27 28  1  1  0  0  0
 27 32  1  0  0  0  0
 28 30  1  0  0  0  0
M  CHG  5   8   1  18   1  19   1  29   1  30   1
M  END
>  <CHROM.1>
-134.45767140,177.13433653,-156.53755135,50.32205593,60.50990795,-175.92260417
-58.06388633,-109.44050360,71.82517171,-157.39835096,-44.73307430,-151.01856287
65.30152712,64.66773714,175.32177572,156.67258915,-10.81567268,-3.38361309
-7.51017446,2.05187922,-0.04265776,2.83280859

>  <Name>
2tob cryst

>  <RI>
0

>  <Rbt.Current_Directory>
/home/itssahil/PROJECTS/Mol_Feturizer/New_Systems/rnas/2tob

>  <Rbt.Executable>
rbdock ($Id: //depot/dev/client3/rdock/2013.1/src/exe/rbdock.cxx#4 $)

>  <Rbt.Library>
libRbt.so (2013.1, Build901 2013/11/27)

>  <Rbt.Parameter_File>
/export/apps/rDock/src/rDock_2013.1_src/data/scripts/dock_solv.prm

>  <Rbt.Receptor>
prm/pocket_docking_3.prm

>  <SCORE>
-48.5429

>  <SCORE.INTER>
-39.4297

>  <SCORE.INTER.CONST>
1

>  <SCORE.INTER.POLAR>
-8.22348

>  <SCORE.INTER.ROT>
6

>  <SCORE.INTER.SOLV>
38.8966

>  <SCORE.INTER.VDW>
-19.4404

>  <SCORE.INTER.norm>
-1.23218

>  <SCORE.INTRA>
-9.32911

>  <SCORE.INTRA.DIHEDRAL>
1.85911

>  <SCORE.INTRA.DIHEDRAL.0>
18.4221

>  <SCORE.INTRA.POLAR>
-0.325762

>  <SCORE.INTRA.POLAR.0>
-1.57101

>  <SCORE.INTRA.REPUL>
0.0397736

>  <SCORE.INTRA.REPUL.0>
0.730195

>  <SCORE.INTRA.SOLV>
3.57148

>  <SCORE.INTRA.SOLV.lig_0>
-127.221

>  <SCORE.INTRA.VDW>
-11.1357

>  <SCORE.INTRA.VDW.0>
10.8385

>  <SCORE.INTRA.norm>
-0.291535

>  <SCORE.RESTR>
0.215975

>  <SCORE.RESTR.CAVITY>
0.215975

>  <SCORE.RESTR.norm>
0.00674921

>  <SCORE.SYSTEM>
0

>  <SCORE.SYSTEM.CONST>
0

>  <SCORE.SYSTEM.DIHEDRAL>
0

>  <SCORE.SYSTEM.SOLV>
0

>  <SCORE.SYSTEM.norm>
0

>  <SCORE.heavy>
32

>  <SCORE.norm>
-1.51696

>  <RMSD>
7.511

$$$$
2tob cryst
 OpenBabel11021811463D
libRbt.so/2013.1/901 2013/11/27
 32 34  0  0  0  0  0  0  0  0999 V2000
  -11.8104   -6.1185   -7.0401 C   0  0  2  0  0  0  0  0  0  0  0  0
  -11.7724   -7.0899   -8.2156 C   0  0  1  0  0  0  0  0  0  0  0  0
  -12.9430   -8.0656   -8.0906 C   0  0  2  0  0  0  0  0  0  0  0  0
  -12.9238   -8.7702   -6.7277 C   0  0  1  0  0  0  0  0  0  0  0  0
  -12.8328   -7.7331   -5.6030 C   0  0  1  0  0  0  0  0  0  0  0  0
  -12.6610   -8.3277   -4.2148 C   0  0  0  0  0  0  0  0  0  0  0  0
  -11.8695   -6.3732   -9.4435 O   0  0  0  0  0  0  0  0  0  0  0  0
  -13.0790   -9.1213   -9.1436 N   0  3  0  0  0  0  0  0  0  0  0  0
  -14.1143   -9.5349   -6.5858 O   0  0  0  0  0  0  0  0  0  0  0  0
  -11.7139   -6.8541   -5.8351 O   0  0  0  0  0  0  0  0  0  0  0  0
  -11.4661   -9.0983   -4.1378 O   0  0  0  0  0  0  0  0  0  0  0  0
  -14.3310   -3.4466   -7.6161 C   0  0  2  0  0  0  0  0  0  0  0  0
  -14.3747   -2.0470   -8.2441 C   0  0  0  0  0  0  0  0  0  0  0  0
  -13.0856   -1.2662   -8.0036 C   0  0  1  0  0  0  0  0  0  0  0  0
  -11.9217   -2.0765   -8.5576 C   0  0  2  0  0  0  0  0  0  0  0  0
  -11.7999   -3.3902   -7.7814 C   0  0  1  0  0  0  0  0  0  0  0  0
  -13.0657   -4.2455   -7.9662 C   0  0  1  0  0  0  0  0  0  0  0  0
  -15.5380   -4.2444   -8.0186 N   0  3  0  0  0  0  0  0  0  0  0  0
  -13.1544    0.0933   -8.6323 N   0  3  0  0  0  0  0  0  0  0  0  0
  -10.6546   -4.1007   -8.2346 O   0  0  0  0  0  0  0  0  0  0  0  0
  -10.6950   -1.3303   -8.4576 O   0  0  0  0  0  0  0  0  0  0  0  0
  -13.0096   -5.3942   -7.0949 O   0  0  0  0  0  0  0  0  0  0  0  0
  -10.4060   -0.9051   -7.1544 C   0  0  2  0  0  0  0  0  0  0  0  0
   -9.4106    0.2592   -7.1941 C   0  0  1  0  0  0  0  0  0  0  0  0
   -8.0037   -0.2331   -7.5346 C   0  0  0  0  0  0  0  0  0  0  0  0
   -7.6255   -1.3498   -6.5750 C   0  0  1  0  0  0  0  0  0  0  0  0
   -8.6440   -2.4709   -6.6871 C   0  0  1  0  0  0  0  0  0  0  0  0
   -8.3164   -3.6222   -5.7537 C   0  0  0  0  0  0  0  0  0  0  0  0
   -9.8486    1.2549   -8.2238 N   0  3  0  0  0  0  0  0  0  0  0  0
   -9.2732   -4.7455   -6.0467 N   0  3  0  0  0  0  0  0  0  0  0  0
   -6.3273   -1.8415   -6.8764 O   0  0  0  0  0  0  0  0  0  0  0  0
   -9.9434   -1.9698   -6.3304 O   0  0  0  0  0  0  0  0  0  0  0  0
  1  2  1  0  0  0  0
  1 22  1  1  0  0  0
  1 10  1  0  0  0  0
  2  3  1  0  0  0  0
  2  7  1  6  0  0  0
  3  4  1  0  0  0  0
  3  8  1  6  0  0  0
  4  5  1  0  0  0  0
  4  9  1  1  0  0  0
  5  6  1  1  0  0  0
  5 10  1  0  0  0  0
  6 11  1  0  0  0  0
 12 13  1  0  0  0  0
 12 17  1  0  0  0  0
 12 18  1  6  0  0  0
 13 14  1  0  0  0  0
 14 15  1  0  0  0  0
 14 19  1  6  0  0  0
 15 16  1  0  0  0  0
 15 21  1  1  0  0  0
 16 17  1  0  0  0  0
 16 20  1  6  0  0  0
 17 22  1  1  0  0  0
 23 21  1  6  0  0  0
 23 24  1  0  0  0  0
 23 32  1  0  0  0  0
 24 25  1  0  0  0  0
 24 29  1  6  0  0  0
 25 26  1  0  0  0  0
 26 27  1  0  0  0  0
 26 31  1  6  0  0  0
 27 28  1  1  0  0  0
 27 32  1  0  0  0  0
 28 30  1  0  0  0  0
M  CHG  5   8   1  18   1  19   1  29   1  30   1
M  END
>  <CHROM.1>
-82.63888110,48.45052869,-176.24381340,-58.57093425,60.17739505,178.49241272
52.94413359,27.03678888,55.90348773,33.43136672,-167.14386703,-159.94435368
-49.32240416,-56.12242265,-173.38391107,-77.62120637,-11.45765811,-4.22607358
-7.26536600,-2.01953219,-0.36843635,-0.28073864

>  <Name>
2tob cryst

>  <RI>
0

>  <Rbt.Current_Directory>
/home/itssahil/PROJECTS/Mol_Feturizer/New_Systems/rnas/2tob

>  <Rbt.Executable>
rbdock ($Id: //depot/dev/client3/rdock/2013.1/src/exe/rbdock.cxx#4 $)

>  <Rbt.Library>
libRbt.so (2013.1, Build901 2013/11/27)

>  <Rbt.Parameter_File>
/export/apps/rDock/src/rDock_2013.1_src/data/scripts/dock_solv.prm

>  <Rbt.Receptor>
prm/pocket_docking_3.prm

>  <SCORE>
-42.9088

>  <SCORE.INTER>
-24.4379

>  <SCORE.INTER.CONST>
1

>  <SCORE.INTER.POLAR>
-3.88802

>  <SCORE.INTER.ROT>
6

>  <SCORE.INTER.SOLV>
22.5615

>  <SCORE.INTER.VDW>
-18.4524

>  <SCORE.INTER.norm>
-0.763685

>  <SCORE.INTRA>
-18.5304

>  <SCORE.INTRA.DIHEDRAL>
-6.25134

>  <SCORE.INTRA.DIHEDRAL.0>
18.4221

>  <SCORE.INTRA.POLAR>
-0.0546055

>  <SCORE.INTRA.POLAR.0>
-1.57101

>  <SCORE.INTRA.REPUL>
-0.730195

>  <SCORE.INTRA.REPUL.0>
0.730195

>  <SCORE.INTRA.SOLV>
0.812182

>  <SCORE.INTRA.SOLV.lig_0>
-127.221

>  <SCORE.INTRA.VDW>
-11.9741

>  <SCORE.INTRA.VDW.0>
10.8385

>  <SCORE.INTRA.norm>
-0.579074

>  <SCORE.RESTR>
0.0595188

>  <SCORE.RESTR.CAVITY>
0.0595188

>  <SCORE.RESTR.norm>
0.00185996

>  <SCORE.SYSTEM>
0

>  <SCORE.SYSTEM.CONST>
0

>  <SCORE.SYSTEM.DIHEDRAL>
0

>  <SCORE.SYSTEM.SOLV>
0

>  <SCORE.SYSTEM.norm>
0

>  <SCORE.heavy>
32

>  <SCORE.norm>
-1.3409

>  <RMSD>
7.528

$$$$
2tob cryst
 OpenBabel11021811463D
libRbt.so/2013.1/901 2013/11/27
 32 34  0  0  0  0  0  0  0  0999 V2000
  -11.5226   -4.6019   -6.1601 C   0  0  2  0  0  0  0  0  0  0  0  0
  -10.5402   -5.6970   -5.7569 C   0  0  1  0  0  0  0  0  0  0  0  0
  -11.2184   -7.0572   -5.9231 C   0  0  2  0  0  0  0  0  0  0  0  0
  -12.5348   -7.1111   -5.1364 C   0  0  1  0  0  0  0  0  0  0  0  0
  -13.4131   -5.9096   -5.5021 C   0  0  1  0  0  0  0  0  0  0  0  0
  -14.6810   -5.7850   -4.6731 C   0  0  0  0  0  0  0  0  0  0  0  0
   -9.3764   -5.6338   -6.5768 O   0  0  0  0  0  0  0  0  0  0  0  0
  -10.4253   -8.2745   -5.5613 N   0  3  0  0  0  0  0  0  0  0  0  0
  -13.2130   -8.3205   -5.4524 O   0  0  0  0  0  0  0  0  0  0  0  0
  -12.6678   -4.6872   -5.3332 O   0  0  0  0  0  0  0  0  0  0  0  0
  -14.3829   -5.3337   -3.3558 O   0  0  0  0  0  0  0  0  0  0  0  0
  -13.5340   -3.0552   -7.7260 C   0  0  2  0  0  0  0  0  0  0  0  0
  -13.8810   -1.6488   -8.2325 C   0  0  0  0  0  0  0  0  0  0  0  0
  -12.7164   -0.6750   -8.0747 C   0  0  1  0  0  0  0  0  0  0  0  0
  -11.5128   -1.2402   -8.8162 C   0  0  2  0  0  0  0  0  0  0  0  0
  -11.0851   -2.5577   -8.1646 C   0  0  1  0  0  0  0  0  0  0  0  0
  -12.2079   -3.6040   -8.2757 C   0  0  1  0  0  0  0  0  0  0  0  0
  -14.6352   -4.0220   -8.0547 N   0  3  0  0  0  0  0  0  0  0  0  0
  -13.0817    0.6877   -8.5823 N   0  3  0  0  0  0  0  0  0  0  0  0
   -9.9035   -3.0339   -8.7963 O   0  0  0  0  0  0  0  0  0  0  0  0
  -10.4208   -0.3028   -8.7934 O   0  0  0  0  0  0  0  0  0  0  0  0
  -11.8600   -4.7762   -7.5097 O   0  0  0  0  0  0  0  0  0  0  0  0
   -9.7573   -0.2501   -7.5607 C   0  0  2  0  0  0  0  0  0  0  0  0
   -9.0349    1.0933   -7.4141 C   0  0  1  0  0  0  0  0  0  0  0  0
   -7.7828    1.1415   -8.2901 C   0  0  0  0  0  0  0  0  0  0  0  0
   -6.9195   -0.0719   -7.9849 C   0  0  1  0  0  0  0  0  0  0  0  0
   -7.7238   -1.3344   -8.2419 C   0  0  1  0  0  0  0  0  0  0  0  0
   -6.9111   -2.5849   -7.9594 C   0  0  0  0  0  0  0  0  0  0  0  0
   -9.9594    2.2027   -7.8117 N   0  3  0  0  0  0  0  0  0  0  0  0
   -7.7039   -3.7721   -8.4336 N   0  3  0  0  0  0  0  0  0  0  0  0
   -5.7537   -0.0655   -8.7965 O   0  0  0  0  0  0  0  0  0  0  0  0
   -8.8724   -1.3501   -7.3775 O   0  0  0  0  0  0  0  0  0  0  0  0
  1  2  1  0  0  0  0
  1 22  1  6  0  0  0
  1 10  1  0  0  0  0
  2  3  1  0  0  0  0
  2  7  1  6  0  0  0
  3  4  1  0  0  0  0
  3  8  1  1  0  0  0
  4  5  1  0  0  0  0
  4  9  1  6  0  0  0
  5  6  1  1  0  0  0
  5 10  1  0  0  0  0
  6 11  1  0  0  0  0
 12 13  1  0  0  0  0
 12 17  1  0  0  0  0
 12 18  1  6  0  0  0
 13 14  1  0  0  0  0
 14 15  1  0  0  0  0
 14 19  1  6  0  0  0
 15 16  1  0  0  0  0
 15 21  1  1  0  0  0
 16 17  1  0  0  0  0
 16 20  1  6  0  0  0
 17 22  1  1  0  0  0
 23 21  1  6  0  0  0
 23 24  1  0  0  0  0
 23 32  1  0  0  0  0
 24 25  1  0  0  0  0
 24 29  1  6  0  0  0
 25 26  1  0  0  0  0
 26 27  1  0  0  0  0
 26 31  1  6  0  0  0
 27 28  1  1  0  0  0
 27 32  1  0  0  0  0
 28 30  1  0  0  0  0
M  CHG  5   8   1  18   1  19   1  29   1  30   1
M  END
>  <CHROM.1>
-150.55133428,163.03837920,-90.14861189,-61.25458986,73.70307516,-55.81181661
-53.93921733,9.04373451,76.03033674,-49.74258433,-67.22660399,-157.10830253
171.14738470,-53.63286016,-171.60139714,-98.00513455,-10.90964749,-3.08306406
-7.20157004,-2.11311982,0.10624521,-0.34611216

>  <Name>
2tob cryst

>  <RI>
3.35201e+07

>  <Rbt.Current_Directory>
/home/itssahil/PROJECTS/Mol_Feturizer/New_Systems/rnas/2tob

>  <Rbt.Executable>
rbdock ($Id: //depot/dev/client3/rdock/2013.1/src/exe/rbdock.cxx#4 $)

>  <Rbt.Library>
libRbt.so (2013.1, Build901 2013/11/27)

>  <Rbt.Parameter_File>
/export/apps/rDock/src/rDock_2013.1_src/data/scripts/dock_solv.prm

>  <Rbt.Receptor>
prm/pocket_docking_4.prm

>  <SCORE>
-53.8944

>  <SCORE.INTER>
-42.7115

>  <SCORE.INTER.CONST>
1

>  <SCORE.INTER.POLAR>
-7.21567

>  <SCORE.INTER.ROT>
6

>  <SCORE.INTER.SOLV>
37.7458

>  <SCORE.INTER.VDW>
-24.604

>  <SCORE.INTER.norm>
-1.33473

>  <SCORE.INTRA>
-11.2706

>  <SCORE.INTRA.DIHEDRAL>
-0.00263539

>  <SCORE.INTRA.DIHEDRAL.0>
18.4221

>  <SCORE.INTRA.POLAR>
-0.128689

>  <SCORE.INTRA.POLAR.0>
-1.57101

>  <SCORE.INTRA.REPUL>
-0.576958

>  <SCORE.INTRA.REPUL.0>
0.730195

>  <SCORE.INTRA.SOLV>
1.9134

>  <SCORE.INTRA.SOLV.lig_0>
-127.221

>  <SCORE.INTRA.VDW>
-8.90369

>  <SCORE.INTRA.VDW.0>
10.8385

>  <SCORE.INTRA.norm>
-0.352208

>  <SCORE.RESTR>
0.0877061

>  <SCORE.RESTR.CAVITY>
0.0877061

>  <SCORE.RESTR.norm>
0.00274081

>  <SCORE.SYSTEM>
0

>  <SCORE.SYSTEM.CONST>
0

>  <SCORE.SYSTEM.DIHEDRAL>
0

>  <SCORE.SYSTEM.SOLV>
0

>  <SCORE.SYSTEM.norm>
0

>  <SCORE.heavy>
32

>  <SCORE.norm>
-1.6842

>  <RMSD>
7.540

$$$$
2tob cryst
 OpenBabel11021811463D
libRbt.so/2013.1/901 2013/11/27
 32 34  0  0  0  0  0  0  0  0999 V2000
  -11.6083   -4.5090   -5.9905 C   0  0  2  0  0  0  0  0  0  0  0  0
  -11.4250   -5.8388   -5.2659 C   0  0  1  0  0  0  0  0  0  0  0  0
  -12.8012   -6.4145   -4.9306 C   0  0  2  0  0  0  0  0  0  0  0  0
  -13.6361   -5.4047   -4.1319 C   0  0  1  0  0  0  0  0  0  0  0  0
  -13.6670   -4.0572   -4.8614 C   0  0  1  0  0  0  0  0  0  0  0  0
  -14.3468   -2.9405   -4.0862 C   0  0  0  0  0  0  0  0  0  0  0  0
  -10.7083   -6.7505   -6.0941 O   0  0  0  0  0  0  0  0  0  0  0  0
  -12.8454   -7.7187   -4.1966 N   0  3  0  0  0  0  0  0  0  0  0  0
  -14.9584   -5.9083   -3.9893 O   0  0  0  0  0  0  0  0  0  0  0  0
  -12.3225   -3.6236   -5.1488 O   0  0  0  0  0  0  0  0  0  0  0  0
  -14.3333   -1.7262   -4.8298 O   0  0  0  0  0  0  0  0  0  0  0  0
  -13.8613   -2.9426   -7.5735 C   0  0  2  0  0  0  0  0  0  0  0  0
  -14.1087   -1.5610   -8.1940 C   0  0  0  0  0  0  0  0  0  0  0  0
  -12.8883   -0.6514   -8.0821 C   0  0  1  0  0  0  0  0  0  0  0  0
  -11.7082   -1.3451   -8.7486 C   0  0  2  0  0  0  0  0  0  0  0  0
  -11.3776   -2.6319   -7.9882 C   0  0  1  0  0  0  0  0  0  0  0  0
  -12.5618   -3.6128   -8.0469 C   0  0  1  0  0  0  0  0  0  0  0  0
  -15.0145   -3.8626   -7.8546 N   0  3  0  0  0  0  0  0  0  0  0  0
  -13.1567    0.6878   -8.7009 N   0  3  0  0  0  0  0  0  0  0  0  0
  -10.2161   -3.2273   -8.5525 O   0  0  0  0  0  0  0  0  0  0  0  0
  -10.5600   -0.4776   -8.7703 O   0  0  0  0  0  0  0  0  0  0  0  0
  -12.3037   -4.7411   -7.1855 O   0  0  0  0  0  0  0  0  0  0  0  0
   -9.9156   -0.3749   -7.5306 C   0  0  2  0  0  0  0  0  0  0  0  0
   -9.1737    0.9626   -7.4375 C   0  0  1  0  0  0  0  0  0  0  0  0
   -7.9070    0.9483   -8.2936 C   0  0  0  0  0  0  0  0  0  0  0  0
   -7.0688   -0.2621   -7.9151 C   0  0  1  0  0  0  0  0  0  0  0  0
   -7.8894   -1.5229   -8.1238 C   0  0  1  0  0  0  0  0  0  0  0  0
   -7.1020   -2.7706   -7.7670 C   0  0  0  0  0  0  0  0  0  0  0  0
  -10.0733    2.0655   -7.9042 N   0  3  0  0  0  0  0  0  0  0  0  0
   -7.4788   -3.8531   -8.7413 N   0  3  0  0  0  0  0  0  0  0  0  0
   -5.8901   -0.3136   -8.7063 O   0  0  0  0  0  0  0  0  0  0  0  0
   -9.0519   -1.4783   -7.2791 O   0  0  0  0  0  0  0  0  0  0  0  0
  1  2  1  0  0  0  0
  1 22  1  6  0  0  0
  1 10  1  0  0  0  0
  2  3  1  0  0  0  0
  2  7  1  6  0  0  0
  3  4  1  0  0  0  0
  3  8  1  1  0  0  0
  4  5  1  0  0  0  0
  4  9  1  6  0  0  0
  5  6  1  1  0  0  0
  5 10  1  0  0  0  0
  6 11  1  0  0  0  0
 12 13  1  0  0  0  0
 12 17  1  0  0  0  0
 12 18  1  6  0  0  0
 13 14  1  0  0  0  0
 14 15  1  0  0  0  0
 14 19  1  6  0  0  0
 15 16  1  0  0  0  0
 15 21  1  1  0  0  0
 16 17  1  0  0  0  0
 16 20  1  6  0  0  0
 17 22  1  1  0  0  0
 23 21  1  6  0  0  0
 23 24  1  0  0  0  0
 23 32  1  0  0  0  0
 24 25  1  0  0  0  0
 24 29  1  6  0  0  0
 25 26  1  0  0  0  0
 26 27  1  0  0  0  0
 26 31  1  6  0  0  0
 27 28  1  1  0  0  0
 27 32  1  0  0  0  0
 28 30  1  0  0  0  0
M  CHG  5   8   1  18   1  19   1  29   1  30   1
M  END
>  <CHROM.1>
-178.70711058,60.57252630,-177.45489788,-57.51732062,179.98500299,-64.43555073
-66.40808859,-113.51649873,76.29516557,179.79784660,-85.92982006,-154.10103728
-64.60871809,177.84009269,-143.17990384,-32.08693964,-11.31370665,-2.70639554
-6.97313904,-2.29446161,0.20549768,-0.38652755

>  <Name>
2tob cryst

>  <RI>
2.10184e+07

>  <Rbt.Current_Directory>
/home/itssahil/PROJECTS/Mol_Feturizer/New_Systems/rnas/2tob

>  <Rbt.Executable>
rbdock ($Id: //depot/dev/client3/rdock/2013.1/src/exe/rbdock.cxx#4 $)

>  <Rbt.Library>
libRbt.so (2013.1, Build901 2013/11/27)

>  <Rbt.Parameter_File>
/export/apps/rDock/src/rDock_2013.1_src/data/scripts/dock_solv.prm

>  <Rbt.Receptor>
prm/pocket_docking_7.prm

>  <SCORE>
-56.4397

>  <SCORE.INTER>
-41.7006

>  <SCORE.INTER.CONST>
1

>  <SCORE.INTER.POLAR>
-7.20298

>  <SCORE.INTER.ROT>
6

>  <SCORE.INTER.SOLV>
37.1528

>  <SCORE.INTER.VDW>
-23.7747

>  <SCORE.INTER.norm>
-1.30314

>  <SCORE.INTRA>
-14.8737

>  <SCORE.INTRA.DIHEDRAL>
-2.36928

>  <SCORE.INTRA.DIHEDRAL.0>
18.4221

>  <SCORE.INTRA.POLAR>
0.438271

>  <SCORE.INTRA.POLAR.0>
-1.57101

>  <SCORE.INTRA.REPUL>
-0.684771

>  <SCORE.INTRA.REPUL.0>
0.730195

>  <SCORE.INTRA.SOLV>
-1.46301

>  <SCORE.INTRA.SOLV.lig_0>
-127.221

>  <SCORE.INTRA.VDW>
-11.0238

>  <SCORE.INTRA.VDW.0>
10.8385

>  <SCORE.INTRA.norm>
-0.464803

>  <SCORE.RESTR>
0.134556

>  <SCORE.RESTR.CAVITY>
0.134556

>  <SCORE.RESTR.norm>
0.00420487

>  <SCORE.SYSTEM>
0

>  <SCORE.SYSTEM.CONST>
0

>  <SCORE.SYSTEM.DIHEDRAL>
0

>  <SCORE.SYSTEM.SOLV>
0

>  <SCORE.SYSTEM.norm>
0

>  <SCORE.heavy>
32

>  <SCORE.norm>
-1.76374

>  <RMSD>
7.590

$$$$
2tob cryst
 OpenBabel11021811463D
libRbt.so/2013.1/901 2013/11/27
 32 34  0  0  0  0  0  0  0  0999 V2000
  -11.6190   -1.7429   -8.7583 C   0  0  2  0  0  0  0  0  0  0  0  0
  -12.9892   -1.0806   -8.8633 C   0  0  1  0  0  0  0  0  0  0  0  0
  -13.9859   -1.8652   -8.0096 C   0  0  2  0  0  0  0  0  0  0  0  0
  -14.0017   -3.3462   -8.4108 C   0  0  1  0  0  0  0  0  0  0  0  0
  -12.5750   -3.9059   -8.4049 C   0  0  1  0  0  0  0  0  0  0  0  0
  -12.4577   -5.3281   -8.9278 C   0  0  0  0  0  0  0  0  0  0  0  0
  -12.9157    0.2668   -8.4049 O   0  0  0  0  0  0  0  0  0  0  0  0
  -15.4047   -1.3874   -7.9879 N   0  3  0  0  0  0  0  0  0  0  0  0
  -14.8081   -4.0667   -7.4872 O   0  0  0  0  0  0  0  0  0  0  0  0
  -11.7194   -3.0776   -9.2175 O   0  0  0  0  0  0  0  0  0  0  0  0
  -11.1410   -5.8335   -8.7313 O   0  0  0  0  0  0  0  0  0  0  0  0
   -9.6393   -3.5304   -7.5598 C   0  0  2  0  0  0  0  0  0  0  0  0
   -8.1708   -3.9747   -7.5912 C   0  0  0  0  0  0  0  0  0  0  0  0
   -7.2881   -2.9958   -8.3606 C   0  0  1  0  0  0  0  0  0  0  0  0
   -7.4280   -1.6196   -7.7246 C   0  0  2  0  0  0  0  0  0  0  0  0
   -8.8715   -1.1328   -7.8749 C   0  0  1  0  0  0  0  0  0  0  0  0
   -9.8372   -2.0690   -7.1273 C   0  0  1  0  0  0  0  0  0  0  0  0
  -10.4413   -4.4197   -6.6535 N   0  3  0  0  0  0  0  0  0  0  0  0
   -5.8598   -3.4518   -8.3699 N   0  3  0  0  0  0  0  0  0  0  0  0
   -8.9775    0.1914   -7.3677 O   0  0  0  0  0  0  0  0  0  0  0  0
   -6.5264   -0.6840   -8.3436 O   0  0  0  0  0  0  0  0  0  0  0  0
  -11.2006   -1.6990   -7.4209 O   0  0  0  0  0  0  0  0  0  0  0  0
   -6.7795   -0.4848   -9.7071 C   0  0  2  0  0  0  0  0  0  0  0  0
   -5.5087    0.0083  -10.4071 C   0  0  1  0  0  0  0  0  0  0  0  0
   -5.2263    1.4714  -10.0650 C   0  0  0  0  0  0  0  0  0  0  0  0
   -6.4676    2.2967  -10.3631 C   0  0  1  0  0  0  0  0  0  0  0  0
   -7.6331    1.7563   -9.5531 C   0  0  1  0  0  0  0  0  0  0  0  0
   -8.9051    2.5456   -9.8041 C   0  0  0  0  0  0  0  0  0  0  0  0
   -4.3454   -0.8328   -9.9794 N   0  3  0  0  0  0  0  0  0  0  0  0
  -10.0653    1.5899   -9.7444 N   0  3  0  0  0  0  0  0  0  0  0  0
   -6.2429    3.6615  -10.0393 O   0  0  0  0  0  0  0  0  0  0  0  0
   -7.8800    0.3907   -9.9285 O   0  0  0  0  0  0  0  0  0  0  0  0
  1  2  1  0  0  0  0
  1 22  1  1  0  0  0
  1 10  1  0  0  0  0
  2  3  1  0  0  0  0
  2  7  1  1  0  0  0
  3  4  1  0  0  0  0
  3  8  1  6  0  0  0
  4  5  1  0  0  0  0
  4  9  1  1  0  0  0
  5  6  1  6  0  0  0
  5 10  1  0  0  0  0
  6 11  1  0  0  0  0
 12 13  1  0  0  0  0
 12 17  1  0  0  0  0
 12 18  1  1  0  0  0
 13 14  1  0  0  0  0
 14 15  1  0  0  0  0
 14 19  1  1  0  0  0
 15 16  1  0  0  0  0
 15 21  1  6  0  0  0
 16 17  1  0  0  0  0
 16 20  1  1  0  0  0
 17 22  1  6  0  0  0
 23 21  1  1  0  0  0
 23 24  1  0  0  0  0
 23 32  1  0  0  0  0
 24 25  1  0  0  0  0
 24 29  1  1  0  0  0
 25 26  1  0  0  0  0
 26 27  1  0  0  0  0
 26 31  1  1  0  0  0
 27 28  1  6  0  0  0
 27 32  1  0  0  0  0
 28 30  1  0  0  0  0
M  CHG  5   8   1  18   1  19   1  29   1  30   1
M  END
>  <CHROM.1>
-169.90087093,81.89828485,-30.30893789,67.46034145,-172.53450365,-66.79968435
159.46310325,35.23668059,62.19672916,-46.01131626,-61.26830619,-156.27687840
84.95246217,157.88414105,145.10434928,-51.83336792,-9.61430598,-1.38573589
-8.65193855,2.57772162,-0.07988815,2.90377351

>  <Name>
2tob cryst

>  <RI>
2.04895e+07

>  <Rbt.Current_Directory>
/home/itssahil/PROJECTS/Mol_Feturizer/New_Systems/rnas/2tob

>  <Rbt.Executable>
rbdock ($Id: //depot/dev/client3/rdock/2013.1/src/exe/rbdock.cxx#4 $)

>  <Rbt.Library>
libRbt.so (2013.1, Build901 2013/11/27)

>  <Rbt.Parameter_File>
/export/apps/rDock/src/rDock_2013.1_src/data/scripts/dock_solv.prm

>  <Rbt.Receptor>
prm/blind_docking_20.prm

>  <SCORE>
-29.8708

>  <SCORE.INTER>
-17.6898

>  <SCORE.INTER.CONST>
1

>  <SCORE.INTER.POLAR>
-6.39496

>  <SCORE.INTER.ROT>
6

>  <SCORE.INTER.SOLV>
46.9964

>  <SCORE.INTER.VDW>
-13.7422

>  <SCORE.INTER.norm>
-0.552808

>  <SCORE.INTRA>
-13.8166

>  <SCORE.INTRA.DIHEDRAL>
-0.650455

>  <SCORE.INTRA.DIHEDRAL.0>
18.4221

>  <SCORE.INTRA.POLAR>
-0.265263

>  <SCORE.INTRA.POLAR.0>
-1.57101

>  <SCORE.INTRA.REPUL>
-0.730195

>  <SCORE.INTRA.REPUL.0>
0.730195

>  <SCORE.INTRA.SOLV>
6.68883

>  <SCORE.INTRA.SOLV.lig_0>
-127.221

>  <SCORE.INTRA.VDW>
-12.2829

>  <SCORE.INTRA.VDW.0>
10.8385

>  <SCORE.INTRA.norm>
-0.431768

>  <SCORE.RESTR>
1.63566

>  <SCORE.RESTR.CAVITY>
1.63566

>  <SCORE.RESTR.norm>
0.0511143

>  <SCORE.SYSTEM>
0

>  <SCORE.SYSTEM.CONST>
0

>  <SCORE.SYSTEM.DIHEDRAL>
0

>  <SCORE.SYSTEM.SOLV>
0

>  <SCORE.SYSTEM.norm>
0

>  <SCORE.heavy>
32

>  <SCORE.norm>
-0.933461

>  <RMSD>
7.635

$$$$
2tob cryst
 OpenBabel11021811463D
libRbt.so/2013.1/901 2013/11/27
 32 34  0  0  0  0  0  0  0  0999 V2000
   -3.0212    3.6378  -12.4109 C   0  0  2  0  0  0  0  0  0  0  0  0
   -1.6276    4.1359  -12.0412 C   0  0  1  0  0  0  0  0  0  0  0  0
   -1.7620    5.3130  -11.0748 C   0  0  2  0  0  0  0  0  0  0  0  0
   -2.6540    6.4101  -11.6707 C   0  0  1  0  0  0  0  0  0  0  0  0
   -3.9850    5.8085  -12.1349 C   0  0  1  0  0  0  0  0  0  0  0  0
   -4.8886    6.7818  -12.8741 C   0  0  0  0  0  0  0  0  0  0  0  0
   -0.8828    3.0881  -11.4263 O   0  0  0  0  0  0  0  0  0  0  0  0
   -0.5009    5.9647  -10.5987 N   0  3  0  0  0  0  0  0  0  0  0  0
   -2.8907    7.4024  -10.6800 O   0  0  0  0  0  0  0  0  0  0  0  0
   -3.7394    4.6955  -13.0175 O   0  0  0  0  0  0  0  0  0  0  0  0
   -4.2954    7.1912  -14.1022 O   0  0  0  0  0  0  0  0  0  0  0  0
   -3.0218    0.8708  -11.2748 C   0  0  2  0  0  0  0  0  0  0  0  0
   -3.4160   -0.5806  -10.9698 C   0  0  0  0  0  0  0  0  0  0  0  0
   -4.2566   -0.6958   -9.7012 C   0  0  1  0  0  0  0  0  0  0  0  0
   -5.4901    0.1825   -9.8598 C   0  0  2  0  0  0  0  0  0  0  0  0
   -5.0611    1.6470   -9.9802 C   0  0  1  0  0  0  0  0  0  0  0  0
   -4.2011    1.8556  -11.2391 C   0  0  1  0  0  0  0  0  0  0  0  0
   -2.3483    0.9654  -12.6138 N   0  3  0  0  0  0  0  0  0  0  0  0
   -4.6314   -2.1223   -9.4315 N   0  3  0  0  0  0  0  0  0  0  0  0
   -6.2168    2.4739  -10.0303 O   0  0  0  0  0  0  0  0  0  0  0  0
   -6.3732    0.0194   -8.7351 O   0  0  0  0  0  0  0  0  0  0  0  0
   -3.6631    3.1944  -11.2460 O   0  0  0  0  0  0  0  0  0  0  0  0
   -7.7073   -0.2013   -9.1014 C   0  0  2  0  0  0  0  0  0  0  0  0
   -8.6422    0.5310   -8.1331 C   0  0  1  0  0  0  0  0  0  0  0  0
   -8.7087   -0.1876   -6.7853 C   0  0  0  0  0  0  0  0  0  0  0  0
   -9.0662   -1.6463   -7.0205 C   0  0  1  0  0  0  0  0  0  0  0  0
   -8.0249   -2.2753   -7.9299 C   0  0  1  0  0  0  0  0  0  0  0  0
   -8.3248   -3.7389   -8.1984 C   0  0  0  0  0  0  0  0  0  0  0  0
   -8.1476    1.9293   -7.9239 N   0  3  0  0  0  0  0  0  0  0  0  0
   -8.7659   -4.3684   -6.9053 N   0  3  0  0  0  0  0  0  0  0  0  0
   -9.1193   -2.3472   -5.7860 O   0  0  0  0  0  0  0  0  0  0  0  0
   -8.0189   -1.5874   -9.1922 O   0  0  0  0  0  0  0  0  0  0  0  0
  1  2  1  0  0  0  0
  1 22  1  1  0  0  0
  1 10  1  0  0  0  0
  2  3  1  0  0  0  0
  2  7  1  1  0  0  0
  3  4  1  0  0  0  0
  3  8  1  6  0  0  0
  4  5  1  0  0  0  0
  4  9  1  1  0  0  0
  5  6  1  6  0  0  0
  5 10  1  0  0  0  0
  6 11  1  0  0  0  0
 12 13  1  0  0  0  0
 12 17  1  0  0  0  0
 12 18  1  6  0  0  0
 13 14  1  0  0  0  0
 14 15  1  0  0  0  0
 14 19  1  6  0  0  0
 15 16  1  0  0  0  0
 15 21  1  1  0  0  0
 16 17  1  0  0  0  0
 16 20  1  6  0  0  0
 17 22  1  1  0  0  0
 23 21  1  1  0  0  0
 23 24  1  0  0  0  0
 23 32  1  0  0  0  0
 24 25  1  0  0  0  0
 24 29  1  1  0  0  0
 25 26  1  0  0  0  0
 26 27  1  0  0  0  0
 26 31  1  1  0  0  0
 27 28  1  6  0  0  0
 27 32  1  0  0  0  0
 28 30  1  0  0  0  0
M  CHG  5   8   1  18   1  19   1  29   1  30   1
M  END
>  <CHROM.1>
-126.04824451,-64.91671560,-47.09079234,-55.88752010,64.97528898,-171.90768986
84.42806300,-16.14372704,-131.41792034,-65.81643603,68.19345947,-141.87166360
156.87035701,62.94264401,-41.98273798,83.36912899,-5.10226830,1.71305994
-10.11622473,-0.92772593,-0.47039088,2.93415954

>  <Name>
2tob cryst

>  <RI>
2.10184e+07

>  <Rbt.Current_Directory>
/home/itssahil/PROJECTS/Mol_Feturizer/New_Systems/rnas/2tob

>  <Rbt.Executable>
rbdock ($Id: //depot/dev/client3/rdock/2013.1/src/exe/rbdock.cxx#4 $)

>  <Rbt.Library>
libRbt.so (2013.1, Build901 2013/11/27)

>  <Rbt.Parameter_File>
/export/apps/rDock/src/rDock_2013.1_src/data/scripts/dock_solv.prm

>  <Rbt.Receptor>
prm/pocket_docking_7.prm

>  <SCORE>
-42.6969

>  <SCORE.INTER>
-33.268

>  <SCORE.INTER.CONST>
1

>  <SCORE.INTER.POLAR>
-4.93073

>  <SCORE.INTER.ROT>
6

>  <SCORE.INTER.SOLV>
33.2229

>  <SCORE.INTER.VDW>
-24.4172

>  <SCORE.INTER.norm>
-1.03962

>  <SCORE.INTRA>
-9.45577

>  <SCORE.INTRA.DIHEDRAL>
9.57332

>  <SCORE.INTRA.DIHEDRAL.0>
18.4221

>  <SCORE.INTRA.POLAR>
-0.0606157

>  <SCORE.INTRA.POLAR.0>
-1.57101

>  <SCORE.INTRA.REPUL>
-0.730195

>  <SCORE.INTRA.REPUL.0>
0.730195

>  <SCORE.INTRA.SOLV>
0.238794

>  <SCORE.INTRA.SOLV.lig_0>
-127.221

>  <SCORE.INTRA.VDW>
-10.5048

>  <SCORE.INTRA.VDW.0>
10.8385

>  <SCORE.INTRA.norm>
-0.295493

>  <SCORE.RESTR>
0.0268086

>  <SCORE.RESTR.CAVITY>
0.0268086

>  <SCORE.RESTR.norm>
0.000837769

>  <SCORE.SYSTEM>
0

>  <SCORE.SYSTEM.CONST>
0

>  <SCORE.SYSTEM.DIHEDRAL>
0

>  <SCORE.SYSTEM.SOLV>
0

>  <SCORE.SYSTEM.norm>
0

>  <SCORE.heavy>
32

>  <SCORE.norm>
-1.33428

>  <RMSD>
7.658

$$$$
2tob cryst
 OpenBabel11021811463D
libRbt.so/2013.1/901 2013/11/27
 32 34  0  0  0  0  0  0  0  0999 V2000
  -11.1845   -1.3527   -8.9756 C   0  0  2  0  0  0  0  0  0  0  0  0
  -12.5345   -0.6638   -9.1485 C   0  0  1  0  0  0  0  0  0  0  0  0
  -13.5736   -1.3872   -8.2914 C   0  0  2  0  0  0  0  0  0  0  0  0
  -13.6146   -2.8835   -8.6292 C   0  0  1  0  0  0  0  0  0  0  0  0
  -12.2027   -3.4755   -8.5580 C   0  0  1  0  0  0  0  0  0  0  0  0
  -12.1058   -4.9215   -9.0161 C   0  0  0  0  0  0  0  0  0  0  0  0
  -12.4408    0.7000   -8.7462 O   0  0  0  0  0  0  0  0  0  0  0  0
  -14.9804   -0.8760   -8.3313 N   0  3  0  0  0  0  0  0  0  0  0  0
  -14.4640   -3.5442   -7.6995 O   0  0  0  0  0  0  0  0  0  0  0  0
  -11.3047   -2.7035   -9.3800 O   0  0  0  0  0  0  0  0  0  0  0  0
  -10.9078   -5.5252   -8.5386 O   0  0  0  0  0  0  0  0  0  0  0  0
   -9.3476   -3.1822   -7.5924 C   0  0  2  0  0  0  0  0  0  0  0  0
   -7.9069   -3.7094   -7.5541 C   0  0  0  0  0  0  0  0  0  0  0  0
   -6.9534   -2.8430   -8.3722 C   0  0  1  0  0  0  0  0  0  0  0  0
   -7.0264   -1.4167   -7.8445 C   0  0  2  0  0  0  0  0  0  0  0  0
   -8.4359   -0.8625   -8.0667 C   0  0  1  0  0  0  0  0  0  0  0  0
   -9.4694   -1.6833   -7.2754 C   0  0  1  0  0  0  0  0  0  0  0  0
  -10.2182   -3.9535   -6.6425 N   0  3  0  0  0  0  0  0  0  0  0  0
   -5.5540   -3.3780   -8.3119 N   0  3  0  0  0  0  0  0  0  0  0  0
   -8.4753    0.5003   -7.6626 O   0  0  0  0  0  0  0  0  0  0  0  0
   -6.0595   -0.5831   -8.5091 O   0  0  0  0  0  0  0  0  0  0  0  0
  -10.8027   -1.2606   -7.6297 O   0  0  0  0  0  0  0  0  0  0  0  0
   -6.3992   -0.2839   -9.8350 C   0  0  2  0  0  0  0  0  0  0  0  0
   -5.1444    0.1184  -10.6170 C   0  0  1  0  0  0  0  0  0  0  0  0
   -4.6848    1.5247  -10.2315 C   0  0  0  0  0  0  0  0  0  0  0  0
   -5.8535    2.4850  -10.3829 C   0  0  1  0  0  0  0  0  0  0  0  0
   -7.0001    2.0190   -9.5025 C   0  0  1  0  0  0  0  0  0  0  0  0
   -8.1991    2.9440   -9.6062 C   0  0  0  0  0  0  0  0  0  0  0  0
   -4.0442   -0.8570  -10.3307 N   0  3  0  0  0  0  0  0  0  0  0  0
   -9.4247    2.0960   -9.8109 N   0  3  0  0  0  0  0  0  0  0  0  0
   -5.4629    3.8004  -10.0152 O   0  0  0  0  0  0  0  0  0  0  0  0
   -7.4169    0.7079   -9.9198 O   0  0  0  0  0  0  0  0  0  0  0  0
  1  2  1  0  0  0  0
  1 22  1  1  0  0  0
  1 10  1  0  0  0  0
  2  3  1  0  0  0  0
  2  7  1  1  0  0  0
  3  4  1  0  0  0  0
  3  8  1  6  0  0  0
  4  5  1  0  0  0  0
  4  9  1  1  0  0  0
  5  6  1  6  0  0  0
  5 10  1  0  0  0  0
  6 11  1  0  0  0  0
 12 13  1  0  0  0  0
 12 17  1  0  0  0  0
 12 18  1  1  0  0  0
 13 14  1  0  0  0  0
 14 15  1  0  0  0  0
 14 19  1  1  0  0  0
 15 16  1  0  0  0  0
 15 21  1  6  0  0  0
 16 17  1  0  0  0  0
 16 20  1  1  0  0  0
 17 22  1  6  0  0  0
 23 21  1  1  0  0  0
 23 24  1  0  0  0  0
 23 32  1  0  0  0  0
 24 25  1  0  0  0  0
 24 29  1  1  0  0  0
 25 26  1  0  0  0  0
 26 27  1  0  0  0  0
 26 31  1  1  0  0  0
 27 28  1  6  0  0  0
 27 32  1  0  0  0  0
 28 30  1  0  0  0  0
M  CHG  5   8   1  18   1  19   1  29   1  30   1
M  END
>  <CHROM.1>
-171.54095580,-172.27044960,102.50753520,-174.98843194,-161.55148408,-72.36710498
46.15400705,36.20393975,72.68870044,-47.88837847,-62.75435156,-158.46228739
-34.66510569,68.32112756,132.30551797,-176.72936233,-9.18361058,-1.07895314
-8.77152670,2.60666206,-0.07331655,2.90020899

>  <Name>
2tob cryst

>  <RI>
0

>  <Rbt.Current_Directory>
/home/itssahil/PROJECTS/Mol_Feturizer/New_Systems/rnas/2tob

>  <Rbt.Executable>
rbdock ($Id: //depot/dev/client3/rdock/2013.1/src/exe/rbdock.cxx#4 $)

>  <Rbt.Library>
libRbt.so (2013.1, Build901 2013/11/27)

>  <Rbt.Parameter_File>
/export/apps/rDock/src/rDock_2013.1_src/data/scripts/dock_solv.prm

>  <Rbt.Receptor>
prm/blind_docking_80.prm

>  <SCORE>
-16.1683

>  <SCORE.INTER>
-7.73449

>  <SCORE.INTER.CONST>
1

>  <SCORE.INTER.POLAR>
-5.19394

>  <SCORE.INTER.ROT>
6

>  <SCORE.INTER.SOLV>
49.8799

>  <SCORE.INTER.VDW>
-12.0698

>  <SCORE.INTER.norm>
-0.241703

>  <SCORE.INTRA>
-11.3319

>  <SCORE.INTRA.DIHEDRAL>
-1.1008

>  <SCORE.INTRA.DIHEDRAL.0>
18.4221

>  <SCORE.INTRA.POLAR>
-0.297582

>  <SCORE.INTRA.POLAR.0>
-1.57101

>  <SCORE.INTRA.REPUL>
-0.730195

>  <SCORE.INTRA.REPUL.0>
0.730195

>  <SCORE.INTRA.SOLV>
5.35431

>  <SCORE.INTRA.SOLV.lig_0>
-127.221

>  <SCORE.INTRA.VDW>
-8.79592

>  <SCORE.INTRA.VDW.0>
10.8385

>  <SCORE.INTRA.norm>
-0.354122

>  <SCORE.RESTR>
2.89815

>  <SCORE.RESTR.CAVITY>
2.89815

>  <SCORE.RESTR.norm>
0.0905671

>  <SCORE.SYSTEM>
0

>  <SCORE.SYSTEM.CONST>
0

>  <SCORE.SYSTEM.DIHEDRAL>
0

>  <SCORE.SYSTEM.SOLV>
0

>  <SCORE.SYSTEM.norm>
0

>  <SCORE.heavy>
32

>  <SCORE.norm>
-0.505258

>  <RMSD>
7.679

$$$$
2tob cryst
 OpenBabel11021811463D
libRbt.so/2013.1/901 2013/11/27
 32 34  0  0  0  0  0  0  0  0999 V2000
   -9.8834   -2.2638   -6.3256 C   0  0  2  0  0  0  0  0  0  0  0  0
   -9.5191   -3.5882   -5.6620 C   0  0  1  0  0  0  0  0  0  0  0  0
   -9.4600   -4.6790   -6.7317 C   0  0  2  0  0  0  0  0  0  0  0  0
  -10.7750   -4.7432   -7.5199 C   0  0  1  0  0  0  0  0  0  0  0  0
  -11.1389   -3.3505   -8.0460 C   0  0  1  0  0  0  0  0  0  0  0  0
  -12.4993   -3.2709   -8.7191 C   0  0  0  0  0  0  0  0  0  0  0  0
   -8.2546   -3.4772   -5.0143 O   0  0  0  0  0  0  0  0  0  0  0  0
   -9.1327   -6.0698   -6.2841 N   0  3  0  0  0  0  0  0  0  0  0  0
  -10.6184   -5.6459   -8.6075 O   0  0  0  0  0  0  0  0  0  0  0  0
  -11.1401   -2.4008   -6.9615 O   0  0  0  0  0  0  0  0  0  0  0  0
  -13.2285   -2.1389   -8.2559 O   0  0  0  0  0  0  0  0  0  0  0  0
   -9.8513    0.2601   -7.4826 C   0  0  2  0  0  0  0  0  0  0  0  0
   -9.9459    1.5479   -8.3118 C   0  0  0  0  0  0  0  0  0  0  0  0
   -8.6068    1.9329   -8.9346 C   0  0  1  0  0  0  0  0  0  0  0  0
   -8.1207    0.7693   -9.7878 C   0  0  2  0  0  0  0  0  0  0  0  0
   -7.8646   -0.4464   -8.8936 C   0  0  1  0  0  0  0  0  0  0  0  0
   -9.1695   -0.9042   -8.2185 C   0  0  1  0  0  0  0  0  0  0  0  0
  -11.2147   -0.1799   -7.0321 N   0  3  0  0  0  0  0  0  0  0  0  0
   -8.7304    3.1899   -9.7425 N   0  3  0  0  0  0  0  0  0  0  0  0
   -7.3189   -1.5005   -9.6766 O   0  0  0  0  0  0  0  0  0  0  0  0
   -6.9156    1.1271  -10.4887 O   0  0  0  0  0  0  0  0  0  0  0  0
   -8.8825   -1.9350   -7.2507 O   0  0  0  0  0  0  0  0  0  0  0  0
   -5.8092    1.2940   -9.6457 C   0  0  2  0  0  0  0  0  0  0  0  0
   -4.7984    2.2460  -10.2938 C   0  0  1  0  0  0  0  0  0  0  0  0
   -4.0484    1.5568  -11.4340 C   0  0  0  0  0  0  0  0  0  0  0  0
   -3.4469    0.2600  -10.9168 C   0  0  1  0  0  0  0  0  0  0  0  0
   -4.5565   -0.6234  -10.3735 C   0  0  1  0  0  0  0  0  0  0  0  0
   -4.0177   -1.9405   -9.8455 C   0  0  0  0  0  0  0  0  0  0  0  0
   -5.5163    3.4467  -10.8289 N   0  3  0  0  0  0  0  0  0  0  0  0
   -5.0602   -2.5415   -8.9428 N   0  3  0  0  0  0  0  0  0  0  0  0
   -2.7560   -0.4143  -11.9589 O   0  0  0  0  0  0  0  0  0  0  0  0
   -5.2127    0.0521   -9.2872 O   0  0  0  0  0  0  0  0  0  0  0  0
  1  2  1  0  0  0  0
  1 22  1  6  0  0  0
  1 10  1  0  0  0  0
  2  3  1  0  0  0  0
  2  7  1  6  0  0  0
  3  4  1  0  0  0  0
  3  8  1  1  0  0  0
  4  5  1  0  0  0  0
  4  9  1  6  0  0  0
  5  6  1  1  0  0  0
  5 10  1  0  0  0  0
  6 11  1  0  0  0  0
 12 13  1  0  0  0  0
 12 17  1  0  0  0  0
 12 18  1  6  0  0  0
 13 14  1  0  0  0  0
 14 15  1  0  0  0  0
 14 19  1  6  0  0  0
 15 16  1  0  0  0  0
 15 21  1  1  0  0  0
 16 17  1  0  0  0  0
 16 20  1  6  0  0  0
 17 22  1  1  0  0  0
 23 21  1  6  0  0  0
 23 24  1  0  0  0  0
 23 32  1  0  0  0  0
 24 25  1  0  0  0  0
 24 29  1  6  0  0  0
 25 26  1  0  0  0  0
 26 27  1  0  0  0  0
 26 31  1  6  0  0  0
 27 28  1  1  0  0  0
 27 32  1  0  0  0  0
 28 30  1  0  0  0  0
M  CHG  5   8   1  18   1  19   1  29   1  30   1
M  END
>  <CHROM.1>
165.29643801,65.12456068,-25.33094421,-47.61911457,133.45349382,-56.77247014
-129.59999636,154.53029760,68.46407584,-154.17354741,44.51930714,-154.29163348
-26.11617212,-46.67436728,161.71741217,-139.56069306,-8.05870558,-1.10260938
-8.66883742,2.40610730,-0.32101642,2.83793250

>  <Name>
2tob cryst

>  <RI>
0

>  <Rbt.Current_Directory>
/home/itssahil/PROJECTS/Mol_Feturizer/New_Systems/rnas/2tob

>  <Rbt.Executable>
rbdock ($Id: //depot/dev/client3/rdock/2013.1/src/exe/rbdock.cxx#4 $)

>  <Rbt.Library>
libRbt.so (2013.1, Build901 2013/11/27)

>  <Rbt.Parameter_File>
/export/apps/rDock/src/rDock_2013.1_src/data/scripts/dock_solv.prm

>  <Rbt.Receptor>
prm/blind_docking_40.prm

>  <SCORE>
15.6363

>  <SCORE.INTER>
7.76114

>  <SCORE.INTER.CONST>
1

>  <SCORE.INTER.POLAR>
-5.2642

>  <SCORE.INTER.ROT>
6

>  <SCORE.INTER.SOLV>
46.9967

>  <SCORE.INTER.VDW>
-0.544152

>  <SCORE.INTER.norm>
0.242536

>  <SCORE.INTRA>
3.00582

>  <SCORE.INTRA.DIHEDRAL>
9.03346

>  <SCORE.INTRA.DIHEDRAL.0>
18.4221

>  <SCORE.INTRA.POLAR>
0.447592

>  <SCORE.INTRA.POLAR.0>
-1.57101

>  <SCORE.INTRA.REPUL>
-0.730195

>  <SCORE.INTRA.REPUL.0>
0.730195

>  <SCORE.INTRA.SOLV>
5.0478

>  <SCORE.INTRA.SOLV.lig_0>
-127.221

>  <SCORE.INTRA.VDW>
-1.90565

>  <SCORE.INTRA.VDW.0>
10.8385

>  <SCORE.INTRA.norm>
0.0939318

>  <SCORE.RESTR>
4.86936

>  <SCORE.RESTR.CAVITY>
4.86936

>  <SCORE.RESTR.norm>
0.152167

>  <SCORE.SYSTEM>
0

>  <SCORE.SYSTEM.CONST>
0

>  <SCORE.SYSTEM.DIHEDRAL>
0

>  <SCORE.SYSTEM.SOLV>
0

>  <SCORE.SYSTEM.norm>
0

>  <SCORE.heavy>
32

>  <SCORE.norm>
0.488635

>  <RMSD>
7.692

$$$$
2tob cryst
 OpenBabel11021811463D
libRbt.so/2013.1/901 2013/11/27
 32 34  0  0  0  0  0  0  0  0999 V2000
  -11.9251   -5.1864   -5.9590 C   0  0  2  0  0  0  0  0  0  0  0  0
  -10.7008   -6.0298   -5.6170 C   0  0  1  0  0  0  0  0  0  0  0  0
  -11.0523   -7.5075   -5.7913 C   0  0  2  0  0  0  0  0  0  0  0  0
  -12.2881   -7.8770   -4.9601 C   0  0  1  0  0  0  0  0  0  0  0  0
  -13.4343   -6.9066   -5.2657 C   0  0  1  0  0  0  0  0  0  0  0  0
  -14.6624   -7.0918   -4.3897 C   0  0  0  0  0  0  0  0  0  0  0  0
   -9.6168   -5.6861   -6.4759 O   0  0  0  0  0  0  0  0  0  0  0  0
   -9.9855   -8.5130   -5.4868 N   0  3  0  0  0  0  0  0  0  0  0  0
  -12.6804   -9.2058   -5.2805 O   0  0  0  0  0  0  0  0  0  0  0  0
  -12.9856   -5.5473   -5.0944 O   0  0  0  0  0  0  0  0  0  0  0  0
  -15.2866   -8.3448   -4.6503 O   0  0  0  0  0  0  0  0  0  0  0  0
  -13.8710   -3.6167   -7.3804 C   0  0  2  0  0  0  0  0  0  0  0  0
  -14.2317   -2.2329   -7.9371 C   0  0  0  0  0  0  0  0  0  0  0  0
  -13.0129   -1.3215   -8.0517 C   0  0  1  0  0  0  0  0  0  0  0  0
  -11.9780   -2.0101   -8.9307 C   0  0  2  0  0  0  0  0  0  0  0  0
  -11.5094   -3.2996   -8.2518 C   0  0  1  0  0  0  0  0  0  0  0  0
  -12.6827   -4.2824   -8.0921 C   0  0  1  0  0  0  0  0  0  0  0  0
  -15.0556   -4.5376   -7.4447 N   0  3  0  0  0  0  0  0  0  0  0  0
  -13.3938    0.0199   -8.6030 N   0  3  0  0  0  0  0  0  0  0  0  0
  -10.4737   -3.8904   -9.0265 O   0  0  0  0  0  0  0  0  0  0  0  0
  -10.8550   -1.1404   -9.1632 O   0  0  0  0  0  0  0  0  0  0  0  0
  -12.2666   -5.4141   -7.2996 O   0  0  0  0  0  0  0  0  0  0  0  0
  -10.2457   -0.6898   -7.9849 C   0  0  2  0  0  0  0  0  0  0  0  0
   -9.6818    0.7194   -8.1951 C   0  0  1  0  0  0  0  0  0  0  0  0
   -8.4122    0.6812   -9.0461 C   0  0  0  0  0  0  0  0  0  0  0  0
   -7.4316   -0.3013   -8.4264 C   0  0  1  0  0  0  0  0  0  0  0  0
   -8.0819   -1.6714   -8.3446 C   0  0  1  0  0  0  0  0  0  0  0  0
   -7.1466   -2.7012   -7.7372 C   0  0  0  0  0  0  0  0  0  0  0  0
  -10.7084    1.5708   -8.8767 N   0  3  0  0  0  0  0  0  0  0  0  0
   -7.7874   -3.2294   -6.4829 N   0  3  0  0  0  0  0  0  0  0  0  0
   -6.2455   -0.3727   -9.2048 O   0  0  0  0  0  0  0  0  0  0  0  0
   -9.2519   -1.5932   -7.5128 O   0  0  0  0  0  0  0  0  0  0  0  0
  1  2  1  0  0  0  0
  1 22  1  6  0  0  0
  1 10  1  0  0  0  0
  2  3  1  0  0  0  0
  2  7  1  6  0  0  0
  3  4  1  0  0  0  0
  3  8  1  1  0  0  0
  4  5  1  0  0  0  0
  4  9  1  6  0  0  0
  5  6  1  1  0  0  0
  5 10  1  0  0  0  0
  6 11  1  0  0  0  0
 12 13  1  0  0  0  0
 12 17  1  0  0  0  0
 12 18  1  6  0  0  0
 13 14  1  0  0  0  0
 14 15  1  0  0  0  0
 14 19  1  6  0  0  0
 15 16  1  0  0  0  0
 15 21  1  1  0  0  0
 16 17  1  0  0  0  0
 16 20  1  6  0  0  0
 17 22  1  1  0  0  0
 23 21  1  6  0  0  0
 23 24  1  0  0  0  0
 23 32  1  0  0  0  0
 24 25  1  0  0  0  0
 24 29  1  6  0  0  0
 25 26  1  0  0  0  0
 26 27  1  0  0  0  0
 26 31  1  6  0  0  0
 27 28  1  1  0  0  0
 27 32  1  0  0  0  0
 28 30  1  0  0  0  0
M  CHG  5   8   1  18   1  19   1  29   1  30   1
M  END
>  <CHROM.1>
-139.68172592,171.85507908,-22.98417071,69.12223462,-66.49536956,56.91776079
-45.88772131,128.66607532,56.46086331,57.66092179,-56.08175283,-147.74836962
-40.54809732,-41.11416873,119.09618958,-28.87787147,-11.20884614,-3.69929271
-7.21416957,-2.03191744,0.00927926,-0.42516036

>  <Name>
2tob cryst

>  <RI>
0

>  <Rbt.Current_Directory>
/home/itssahil/PROJECTS/Mol_Feturizer/New_Systems/rnas/2tob

>  <Rbt.Executable>
rbdock ($Id: //depot/dev/client3/rdock/2013.1/src/exe/rbdock.cxx#4 $)

>  <Rbt.Library>
libRbt.so (2013.1, Build901 2013/11/27)

>  <Rbt.Parameter_File>
/export/apps/rDock/src/rDock_2013.1_src/data/scripts/dock_solv.prm

>  <Rbt.Receptor>
prm/pocket_docking_3.prm

>  <SCORE>
-29.9764

>  <SCORE.INTER>
-18.2976

>  <SCORE.INTER.CONST>
1

>  <SCORE.INTER.POLAR>
-6.06169

>  <SCORE.INTER.ROT>
6

>  <SCORE.INTER.SOLV>
30.1541

>  <SCORE.INTER.VDW>
-9.6441

>  <SCORE.INTER.norm>
-0.571799

>  <SCORE.INTRA>
-11.6789

>  <SCORE.INTRA.DIHEDRAL>
8.16845

>  <SCORE.INTRA.DIHEDRAL.0>
18.4221

>  <SCORE.INTRA.POLAR>
-0.458226

>  <SCORE.INTRA.POLAR.0>
-1.57101

>  <SCORE.INTRA.REPUL>
-0.665453

>  <SCORE.INTRA.REPUL.0>
0.730195

>  <SCORE.INTRA.SOLV>
2.9956

>  <SCORE.INTRA.SOLV.lig_0>
-127.221

>  <SCORE.INTRA.VDW>
-12.3756

>  <SCORE.INTRA.VDW.0>
10.8385

>  <SCORE.INTRA.norm>
-0.364964

>  <SCORE.RESTR>
0

>  <SCORE.RESTR.CAVITY>
0

>  <SCORE.RESTR.norm>
0

>  <SCORE.SYSTEM>
0

>  <SCORE.SYSTEM.CONST>
0

>  <SCORE.SYSTEM.DIHEDRAL>
0

>  <SCORE.SYSTEM.SOLV>
0

>  <SCORE.SYSTEM.norm>
0

>  <SCORE.heavy>
32

>  <SCORE.norm>
-0.936763

>  <RMSD>
7.723

$$$$
2tob cryst
 OpenBabel11021811463D
libRbt.so/2013.1/901 2013/11/27
 32 34  0  0  0  0  0  0  0  0999 V2000
  -10.8244   -1.3874   -6.6648 C   0  0  2  0  0  0  0  0  0  0  0  0
  -11.4846   -2.0083   -5.4378 C   0  0  1  0  0  0  0  0  0  0  0  0
  -12.4923   -3.0625   -5.8970 C   0  0  2  0  0  0  0  0  0  0  0  0
  -13.5021   -2.4603   -6.8829 C   0  0  1  0  0  0  0  0  0  0  0  0
  -12.7625   -1.7449   -8.0188 C   0  0  1  0  0  0  0  0  0  0  0  0
  -13.6676   -0.9870   -8.9761 C   0  0  0  0  0  0  0  0  0  0  0  0
  -10.4975   -2.6128   -4.6066 O   0  0  0  0  0  0  0  0  0  0  0  0
  -13.2683   -3.7847   -4.8396 N   0  3  0  0  0  0  0  0  0  0  0  0
  -14.3096   -3.5040   -7.4129 O   0  0  0  0  0  0  0  0  0  0  0  0
  -11.8245   -0.7961   -7.4728 O   0  0  0  0  0  0  0  0  0  0  0  0
  -13.4470    0.4164   -8.8784 O   0  0  0  0  0  0  0  0  0  0  0  0
   -8.1993   -3.6662   -8.0129 C   0  0  2  0  0  0  0  0  0  0  0  0
   -6.6864   -3.6724   -8.2697 C   0  0  0  0  0  0  0  0  0  0  0  0
   -6.2034   -2.3712   -8.9044 C   0  0  1  0  0  0  0  0  0  0  0  0
   -6.5973   -1.2164   -7.9937 C   0  0  2  0  0  0  0  0  0  0  0  0
   -8.1233   -1.1323   -7.9079 C   0  0  1  0  0  0  0  0  0  0  0  0
   -8.6997   -2.4125   -7.2780 C   0  0  1  0  0  0  0  0  0  0  0  0
   -8.6083   -4.8834   -7.2342 N   0  3  0  0  0  0  0  0  0  0  0  0
   -4.7228   -2.4034   -9.1383 N   0  3  0  0  0  0  0  0  0  0  0  0
   -8.4899    0.0045   -7.1364 O   0  0  0  0  0  0  0  0  0  0  0  0
   -6.0635    0.0237   -8.4924 O   0  0  0  0  0  0  0  0  0  0  0  0
  -10.1399   -2.3923   -7.3629 O   0  0  0  0  0  0  0  0  0  0  0  0
   -6.4240    0.2922   -9.8192 C   0  0  2  0  0  0  0  0  0  0  0  0
   -5.9994    1.7150  -10.1976 C   0  0  1  0  0  0  0  0  0  0  0  0
   -6.9190    2.7520   -9.5522 C   0  0  0  0  0  0  0  0  0  0  0  0
   -8.3610    2.4151   -9.8955 C   0  0  1  0  0  0  0  0  0  0  0  0
   -8.6777    1.0142   -9.4017 C   0  0  1  0  0  0  0  0  0  0  0  0
  -10.1107    0.6205   -9.7111 C   0  0  0  0  0  0  0  0  0  0  0  0
   -4.5916    1.9526   -9.7445 N   0  3  0  0  0  0  0  0  0  0  0  0
  -11.0107    1.3461   -8.7486 N   0  3  0  0  0  0  0  0  0  0  0  0
   -9.2437    3.3524   -9.2953 O   0  0  0  0  0  0  0  0  0  0  0  0
   -7.8105    0.0725  -10.0559 O   0  0  0  0  0  0  0  0  0  0  0  0
  1  2  1  0  0  0  0
  1 22  1  6  0  0  0
  1 10  1  0  0  0  0
  2  3  1  0  0  0  0
  2  7  1  1  0  0  0
  3  4  1  0  0  0  0
  3  8  1  1  0  0  0
  4  5  1  0  0  0  0
  4  9  1  6  0  0  0
  5  6  1  6  0  0  0
  5 10  1  0  0  0  0
  6 11  1  0  0  0  0
 12 13  1  0  0  0  0
 12 17  1  0  0  0  0
 12 18  1  1  0  0  0
 13 14  1  0  0  0  0
 14 15  1  0  0  0  0
 14 19  1  1  0  0  0
 15 16  1  0  0  0  0
 15 21  1  6  0  0  0
 16 17  1  0  0  0  0
 16 20  1  1  0  0  0
 17 22  1  6  0  0  0
 23 21  1  1  0  0  0
 23 24  1  0  0  0  0
 23 32  1  0  0  0  0
 24 25  1  0  0  0  0
 24 29  1  1  0  0  0
 25 26  1  0  0  0  0
 26 27  1  0  0  0  0
 26 31  1  1  0  0  0
 27 28  1  6  0  0  0
 27 32  1  0  0  0  0
 28 30  1  0  0  0  0
M  CHG  5   8   1  18   1  19   1  29   1  30   1
M  END
>  <CHROM.1>
-105.87906033,179.21910461,179.67884386,70.50509263,113.32956615,-31.56598732
-162.65584065,94.84102263,54.90732447,-58.83380137,174.94660305,171.40131210
134.81596397,-50.84485086,-75.14693068,-90.04824175,-9.39416966,-0.95132189
-8.06928504,2.56540267,-0.17022140,2.69119513

>  <Name>
2tob cryst

>  <RI>
0

>  <Rbt.Current_Directory>
/home/itssahil/PROJECTS/Mol_Feturizer/New_Systems/rnas/2tob

>  <Rbt.Executable>
rbdock ($Id: //depot/dev/client3/rdock/2013.1/src/exe/rbdock.cxx#4 $)

>  <Rbt.Library>
libRbt.so (2013.1, Build901 2013/11/27)

>  <Rbt.Parameter_File>
/export/apps/rDock/src/rDock_2013.1_src/data/scripts/dock_solv.prm

>  <Rbt.Receptor>
prm/blind_docking_80.prm

>  <SCORE>
3.28091

>  <SCORE.INTER>
2.62897

>  <SCORE.INTER.CONST>
1

>  <SCORE.INTER.POLAR>
-4.51936

>  <SCORE.INTER.ROT>
6

>  <SCORE.INTER.SOLV>
44.9152

>  <SCORE.INTER.VDW>
-5.75457

>  <SCORE.INTER.norm>
0.0821552

>  <SCORE.INTRA>
-3.24814

>  <SCORE.INTRA.DIHEDRAL>
6.6232

>  <SCORE.INTRA.DIHEDRAL.0>
18.4221

>  <SCORE.INTRA.POLAR>
-0.258915

>  <SCORE.INTRA.POLAR.0>
-1.57101

>  <SCORE.INTRA.REPUL>
-0.58597

>  <SCORE.INTRA.REPUL.0>
0.730195

>  <SCORE.INTRA.SOLV>
2.88437

>  <SCORE.INTRA.SOLV.lig_0>
-127.221

>  <SCORE.INTRA.VDW>
-4.19176

>  <SCORE.INTRA.VDW.0>
10.8385

>  <SCORE.INTRA.norm>
-0.101504

>  <SCORE.RESTR>
3.90009

>  <SCORE.RESTR.CAVITY>
3.90009

>  <SCORE.RESTR.norm>
0.121878

>  <SCORE.SYSTEM>
0

>  <SCORE.SYSTEM.CONST>
0

>  <SCORE.SYSTEM.DIHEDRAL>
0

>  <SCORE.SYSTEM.SOLV>
0

>  <SCORE.SYSTEM.norm>
0

>  <SCORE.heavy>
32

>  <SCORE.norm>
0.102529

>  <RMSD>
7.752

$$$$
2tob cryst
 OpenBabel11021811463D
libRbt.so/2013.1/901 2013/11/27
 32 34  0  0  0  0  0  0  0  0999 V2000
   -3.7979    3.7056  -12.2618 C   0  0  2  0  0  0  0  0  0  0  0  0
   -2.7825    4.2452  -13.2643 C   0  0  1  0  0  0  0  0  0  0  0  0
   -1.5405    4.7162  -12.5071 C   0  0  2  0  0  0  0  0  0  0  0  0
   -1.9153    5.7357  -11.4232 C   0  0  1  0  0  0  0  0  0  0  0  0
   -3.0295    5.1706  -10.5354 C   0  0  1  0  0  0  0  0  0  0  0  0
   -3.5791    6.1557   -9.5167 C   0  0  0  0  0  0  0  0  0  0  0  0
   -2.4247    3.2250  -14.1927 O   0  0  0  0  0  0  0  0  0  0  0  0
   -0.4210    5.3017  -13.3107 N   0  3  0  0  0  0  0  0  0  0  0  0
   -0.7650    6.0173  -10.6359 O   0  0  0  0  0  0  0  0  0  0  0  0
   -4.1350    4.7358  -11.3521 O   0  0  0  0  0  0  0  0  0  0  0  0
   -4.6796    6.8811  -10.0557 O   0  0  0  0  0  0  0  0  0  0  0  0
   -3.1613    0.2608  -11.0562 C   0  0  2  0  0  0  0  0  0  0  0  0
   -3.9008   -0.9535  -10.4785 C   0  0  0  0  0  0  0  0  0  0  0  0
   -4.7930   -0.5780   -9.2985 C   0  0  1  0  0  0  0  0  0  0  0  0
   -5.7751    0.4905   -9.7587 C   0  0  2  0  0  0  0  0  0  0  0  0
   -5.0058    1.7527  -10.1566 C   0  0  1  0  0  0  0  0  0  0  0  0
   -4.0731    1.4636  -11.3459 C   0  0  1  0  0  0  0  0  0  0  0  0
   -2.4335   -0.1135  -12.3153 N   0  3  0  0  0  0  0  0  0  0  0  0
   -5.5064   -1.7813   -8.7588 N   0  3  0  0  0  0  0  0  0  0  0  0
   -5.9289    2.7806  -10.4931 O   0  0  0  0  0  0  0  0  0  0  0  0
   -6.7144    0.7964   -8.7120 O   0  0  0  0  0  0  0  0  0  0  0  0
   -3.2322    2.6091  -11.5960 O   0  0  0  0  0  0  0  0  0  0  0  0
   -7.9374    0.1267   -8.8474 C   0  0  2  0  0  0  0  0  0  0  0  0
   -9.0946    1.1239   -8.7268 C   0  0  1  0  0  0  0  0  0  0  0  0
   -9.2932    1.5611   -7.2753 C   0  0  0  0  0  0  0  0  0  0  0  0
   -9.4365    0.3249   -6.4023 C   0  0  1  0  0  0  0  0  0  0  0  0
   -8.1967   -0.5393   -6.5530 C   0  0  1  0  0  0  0  0  0  0  0  0
   -8.2777   -1.7910   -5.6980 C   0  0  0  0  0  0  0  0  0  0  0  0
   -8.8057    2.3274   -9.5705 N   0  3  0  0  0  0  0  0  0  0  0  0
   -8.2385   -2.9836   -6.6141 N   0  3  0  0  0  0  0  0  0  0  0  0
   -9.6060    0.6976   -5.0421 O   0  0  0  0  0  0  0  0  0  0  0  0
   -8.0674   -0.9497   -7.9248 O   0  0  0  0  0  0  0  0  0  0  0  0
  1  2  1  0  0  0  0
  1 22  1  1  0  0  0
  1 10  1  0  0  0  0
  2  3  1  0  0  0  0
  2  7  1  6  0  0  0
  3  4  1  0  0  0  0
  3  8  1  6  0  0  0
  4  5  1  0  0  0  0
  4  9  1  1  0  0  0
  5  6  1  1  0  0  0
  5 10  1  0  0  0  0
  6 11  1  0  0  0  0
 12 13  1  0  0  0  0
 12 17  1  0  0  0  0
 12 18  1  6  0  0  0
 13 14  1  0  0  0  0
 14 15  1  0  0  0  0
 14 19  1  6  0  0  0
 15 16  1  0  0  0  0
 15 21  1  1  0  0  0
 16 17  1  0  0  0  0
 16 20  1  6  0  0  0
 17 22  1  1  0  0  0
 23 21  1  1  0  0  0
 23 24  1  0  0  0  0
 23 32  1  0  0  0  0
 24 25  1  0  0  0  0
 24 29  1  6  0  0  0
 25 26  1  0  0  0  0
 26 27  1  0  0  0  0
 26 31  1  1  0  0  0
 27 28  1  1  0  0  0
 27 32  1  0  0  0  0
 28 30  1  0  0  0  0
M  CHG  5   8   1  18   1  19   1  29   1  30   1
M  END
>  <CHROM.1>
-139.10251808,69.45434466,-172.78760499,-56.57438782,90.54447500,-52.84335623
-51.29662795,-113.53753977,-97.85919631,-56.84103298,161.38965216,-129.86368141
71.48947350,176.49816673,118.26312316,3.14642883,-5.19446808,1.96198286,-9.87903482
0.57438916,0.68697609,0.01784889

>  <Name>
2tob cryst

>  <RI>
2.10184e+07

>  <Rbt.Current_Directory>
/home/itssahil/PROJECTS/Mol_Feturizer/New_Systems/rnas/2tob

>  <Rbt.Executable>
rbdock ($Id: //depot/dev/client3/rdock/2013.1/src/exe/rbdock.cxx#4 $)

>  <Rbt.Library>
libRbt.so (2013.1, Build901 2013/11/27)

>  <Rbt.Parameter_File>
/export/apps/rDock/src/rDock_2013.1_src/data/scripts/dock_solv.prm

>  <Rbt.Receptor>
prm/pocket_docking_7.prm

>  <SCORE>
-44.7344

>  <SCORE.INTER>
-36.1599

>  <SCORE.INTER.CONST>
1

>  <SCORE.INTER.POLAR>
-5.09405

>  <SCORE.INTER.ROT>
6

>  <SCORE.INTER.SOLV>
36.0005

>  <SCORE.INTER.VDW>
-26.7266

>  <SCORE.INTER.norm>
-1.13

>  <SCORE.INTRA>
-9.45152

>  <SCORE.INTRA.DIHEDRAL>
17.0611

>  <SCORE.INTRA.DIHEDRAL.0>
18.4221

>  <SCORE.INTRA.POLAR>
-0.202969

>  <SCORE.INTRA.POLAR.0>
-1.57101

>  <SCORE.INTRA.REPUL>
-0.689017

>  <SCORE.INTRA.REPUL.0>
0.730195

>  <SCORE.INTRA.SOLV>
-1.4846

>  <SCORE.INTRA.SOLV.lig_0>
-127.221

>  <SCORE.INTRA.VDW>
-13.1046

>  <SCORE.INTRA.VDW.0>
10.8385

>  <SCORE.INTRA.norm>
-0.29536

>  <SCORE.RESTR>
0.877011

>  <SCORE.RESTR.CAVITY>
0.877011

>  <SCORE.RESTR.norm>
0.0274066

>  <SCORE.SYSTEM>
0

>  <SCORE.SYSTEM.CONST>
0

>  <SCORE.SYSTEM.DIHEDRAL>
0

>  <SCORE.SYSTEM.SOLV>
0

>  <SCORE.SYSTEM.norm>
0

>  <SCORE.heavy>
32

>  <SCORE.norm>
-1.39795

>  <RMSD>
7.758

$$$$
2tob cryst
 OpenBabel11021811463D
libRbt.so/2013.1/901 2013/11/27
 32 34  0  0  0  0  0  0  0  0999 V2000
  -10.8273   -5.6435   -6.3209 C   0  0  2  0  0  0  0  0  0  0  0  0
  -10.7534   -7.0963   -6.7804 C   0  0  1  0  0  0  0  0  0  0  0  0
  -10.6916   -7.1306   -8.3077 C   0  0  2  0  0  0  0  0  0  0  0  0
  -11.8728   -6.3660   -8.9197 C   0  0  1  0  0  0  0  0  0  0  0  0
  -11.9569   -4.9604   -8.3146 C   0  0  1  0  0  0  0  0  0  0  0  0
  -13.1793   -4.1656   -8.7438 C   0  0  0  0  0  0  0  0  0  0  0  0
   -9.5945   -7.7214   -6.2355 O   0  0  0  0  0  0  0  0  0  0  0  0
  -10.6315   -8.4733   -8.9676 N   0  3  0  0  0  0  0  0  0  0  0  0
  -11.6866   -6.2768  -10.3267 O   0  0  0  0  0  0  0  0  0  0  0  0
  -11.9840   -5.0462   -6.8758 O   0  0  0  0  0  0  0  0  0  0  0  0
  -13.0563   -3.7378  -10.0964 O   0  0  0  0  0  0  0  0  0  0  0  0
   -9.9186   -2.9638   -5.4443 C   0  0  2  0  0  0  0  0  0  0  0  0
   -9.6889   -1.4490   -5.3560 C   0  0  0  0  0  0  0  0  0  0  0  0
   -8.3660   -1.0281   -5.9901 C   0  0  1  0  0  0  0  0  0  0  0  0
   -8.3555   -1.4978   -7.4383 C   0  0  2  0  0  0  0  0  0  0  0  0
   -8.4038   -3.0273   -7.4786 C   0  0  1  0  0  0  0  0  0  0  0  0
   -9.7118   -3.5426   -6.8529 C   0  0  1  0  0  0  0  0  0  0  0  0
  -11.2988   -3.3176   -4.9699 N   0  3  0  0  0  0  0  0  0  0  0  0
   -8.1711    0.4554   -5.8944 N   0  3  0  0  0  0  0  0  0  0  0  0
   -8.2958   -3.4667   -8.8267 O   0  0  0  0  0  0  0  0  0  0  0  0
   -7.1756   -1.0248   -8.1133 O   0  0  0  0  0  0  0  0  0  0  0  0
   -9.6656   -4.9803   -6.7407 O   0  0  0  0  0  0  0  0  0  0  0  0
   -7.3888   -0.7266   -9.4654 C   0  0  2  0  0  0  0  0  0  0  0  0
   -6.3120    0.2441   -9.9616 C   0  0  1  0  0  0  0  0  0  0  0  0
   -6.5584    1.6560   -9.4291 C   0  0  0  0  0  0  0  0  0  0  0  0
   -7.9812    2.0703   -9.7679 C   0  0  1  0  0  0  0  0  0  0  0  0
   -8.9506    1.0736   -9.1566 C   0  0  1  0  0  0  0  0  0  0  0  0
  -10.3934    1.4377   -9.4564 C   0  0  0  0  0  0  0  0  0  0  0  0
   -4.9659   -0.2285   -9.5053 N   0  3  0  0  0  0  0  0  0  0  0  0
  -11.2682    0.3185   -8.9613 N   0  3  0  0  0  0  0  0  0  0  0  0
   -8.2477    3.3740   -9.2707 O   0  0  0  0  0  0  0  0  0  0  0  0
   -8.7012   -0.2307   -9.7074 O   0  0  0  0  0  0  0  0  0  0  0  0
  1  2  1  0  0  0  0
  1 22  1  6  0  0  0
  1 10  1  0  0  0  0
  2  3  1  0  0  0  0
  2  7  1  1  0  0  0
  3  4  1  0  0  0  0
  3  8  1  6  0  0  0
  4  5  1  0  0  0  0
  4  9  1  6  0  0  0
  5  6  1  6  0  0  0
  5 10  1  0  0  0  0
  6 11  1  0  0  0  0
 12 13  1  0  0  0  0
 12 17  1  0  0  0  0
 12 18  1  6  0  0  0
 13 14  1  0  0  0  0
 14 15  1  0  0  0  0
 14 19  1  6  0  0  0
 15 16  1  0  0  0  0
 15 21  1  1  0  0  0
 16 17  1  0  0  0  0
 16 20  1  6  0  0  0
 17 22  1  1  0  0  0
 23 21  1  1  0  0  0
 23 24  1  0  0  0  0
 23 32  1  0  0  0  0
 24 25  1  0  0  0  0
 24 29  1  1  0  0  0
 25 26  1  0  0  0  0
 26 27  1  0  0  0  0
 26 31  1  1  0  0  0
 27 28  1  6  0  0  0
 27 32  1  0  0  0  0
 28 30  1  0  0  0  0
M  CHG  5   8   1  18   1  19   1  29   1  30   1
M  END
>  <CHROM.1>
158.18675903,179.16242190,6.62937597,-12.67048183,-72.85804522,-56.16383764
-8.31681395,-176.84066002,-145.94770615,-77.49926559,65.23640759,158.15303790
-41.94067488,175.57270597,173.27379762,82.13015350,-9.57699755,-2.62529070
-8.07203985,-2.16198400,-0.73013371,-0.57301865

>  <Name>
2tob cryst

>  <RI>
2.04895e+07

>  <Rbt.Current_Directory>
/home/itssahil/PROJECTS/Mol_Feturizer/New_Systems/rnas/2tob

>  <Rbt.Executable>
rbdock ($Id: //depot/dev/client3/rdock/2013.1/src/exe/rbdock.cxx#4 $)

>  <Rbt.Library>
libRbt.so (2013.1, Build901 2013/11/27)

>  <Rbt.Parameter_File>
/export/apps/rDock/src/rDock_2013.1_src/data/scripts/dock_solv.prm

>  <Rbt.Receptor>
prm/blind_docking_20.prm

>  <SCORE>
-43.6825

>  <SCORE.INTER>
-39.5114

>  <SCORE.INTER.CONST>
1

>  <SCORE.INTER.POLAR>
-5.80727

>  <SCORE.INTER.ROT>
6

>  <SCORE.INTER.SOLV>
40.4149

>  <SCORE.INTER.VDW>
-28.055

>  <SCORE.INTER.norm>
-1.23473

>  <SCORE.INTRA>
-11.3756

>  <SCORE.INTRA.DIHEDRAL>
7.76026

>  <SCORE.INTRA.DIHEDRAL.0>
18.4221

>  <SCORE.INTRA.POLAR>
0.292511

>  <SCORE.INTRA.POLAR.0>
-1.57101

>  <SCORE.INTRA.REPUL>
-0.730195

>  <SCORE.INTRA.REPUL.0>
0.730195

>  <SCORE.INTRA.SOLV>
-2.9839

>  <SCORE.INTRA.SOLV.lig_0>
-127.221

>  <SCORE.INTRA.VDW>
-11.1073

>  <SCORE.INTRA.VDW.0>
10.8385

>  <SCORE.INTRA.norm>
-0.355486

>  <SCORE.RESTR>
7.20446

>  <SCORE.RESTR.CAVITY>
7.20446

>  <SCORE.RESTR.norm>
0.225139

>  <SCORE.SYSTEM>
0

>  <SCORE.SYSTEM.CONST>
0

>  <SCORE.SYSTEM.DIHEDRAL>
0

>  <SCORE.SYSTEM.SOLV>
0

>  <SCORE.SYSTEM.norm>
0

>  <SCORE.heavy>
32

>  <SCORE.norm>
-1.36508

>  <RMSD>
7.759

$$$$
2tob cryst
 OpenBabel11021811463D
libRbt.so/2013.1/901 2013/11/27
 32 34  0  0  0  0  0  0  0  0999 V2000
   -3.3067    2.9298  -12.9057 C   0  0  2  0  0  0  0  0  0  0  0  0
   -1.9825    2.5767  -13.5756 C   0  0  1  0  0  0  0  0  0  0  0  0
   -0.8404    3.2122  -12.7823 C   0  0  2  0  0  0  0  0  0  0  0  0
   -1.0541    4.7244  -12.6329 C   0  0  1  0  0  0  0  0  0  0  0  0
   -2.4537    5.0029  -12.0739 C   0  0  1  0  0  0  0  0  0  0  0  0
   -2.8257    6.4757  -12.0215 C   0  0  0  0  0  0  0  0  0  0  0  0
   -1.8169    1.1618  -13.6123 O   0  0  0  0  0  0  0  0  0  0  0  0
    0.5536    3.0002  -13.2858 N   0  3  0  0  0  0  0  0  0  0  0  0
   -0.0680    5.2457  -11.7509 O   0  0  0  0  0  0  0  0  0  0  0  0
   -3.4460    4.3378  -12.8808 O   0  0  0  0  0  0  0  0  0  0  0  0
   -1.8073    7.2330  -11.3758 O   0  0  0  0  0  0  0  0  0  0  0  0
   -3.1052    0.0968  -10.9234 C   0  0  2  0  0  0  0  0  0  0  0  0
   -3.7994   -1.1439  -10.3455 C   0  0  0  0  0  0  0  0  0  0  0  0
   -4.8304   -0.7841   -9.2792 C   0  0  1  0  0  0  0  0  0  0  0  0
   -5.8440    0.1718   -9.8929 C   0  0  2  0  0  0  0  0  0  0  0  0
   -5.1418    1.4720  -10.2923 C   0  0  1  0  0  0  0  0  0  0  0  0
   -4.0765    1.2012  -11.3692 C   0  0  1  0  0  0  0  0  0  0  0  0
   -2.2297   -0.2798  -12.0839 N   0  3  0  0  0  0  0  0  0  0  0  0
   -5.4958   -2.0136   -8.7372 N   0  3  0  0  0  0  0  0  0  0  0  0
   -6.1059    2.3991  -10.7751 O   0  0  0  0  0  0  0  0  0  0  0  0
   -6.9031    0.4513   -8.9592 O   0  0  0  0  0  0  0  0  0  0  0  0
   -3.3086    2.3992  -11.6079 O   0  0  0  0  0  0  0  0  0  0  0  0
   -8.0898   -0.2383   -9.2397 C   0  0  2  0  0  0  0  0  0  0  0  0
   -9.2971    0.6507   -8.9234 C   0  0  1  0  0  0  0  0  0  0  0  0
   -9.5132    0.7662   -7.4143 C   0  0  0  0  0  0  0  0  0  0  0  0
   -9.5885   -0.6300   -6.8179 C   0  0  1  0  0  0  0  0  0  0  0  0
   -8.3057   -1.3785   -7.1353 C   0  0  1  0  0  0  0  0  0  0  0  0
   -8.3180   -2.7828   -6.5592 C   0  0  0  0  0  0  0  0  0  0  0  0
   -9.0747    2.0164   -9.4969 N   0  3  0  0  0  0  0  0  0  0  0  0
   -8.6120   -2.6795   -5.0875 N   0  3  0  0  0  0  0  0  0  0  0  0
   -9.7724   -0.5571   -5.4111 O   0  0  0  0  0  0  0  0  0  0  0  0
   -8.1600   -1.4880   -8.5614 O   0  0  0  0  0  0  0  0  0  0  0  0
  1  2  1  0  0  0  0
  1 22  1  1  0  0  0
  1 10  1  0  0  0  0
  2  3  1  0  0  0  0
  2  7  1  1  0  0  0
  3  4  1  0  0  0  0
  3  8  1  6  0  0  0
  4  5  1  0  0  0  0
  4  9  1  1  0  0  0
  5  6  1  6  0  0  0
  5 10  1  0  0  0  0
  6 11  1  0  0  0  0
 12 13  1  0  0  0  0
 12 17  1  0  0  0  0
 12 18  1  6  0  0  0
 13 14  1  0  0  0  0
 14 15  1  0  0  0  0
 14 19  1  6  0  0  0
 15 16  1  0  0  0  0
 15 21  1  1  0  0  0
 16 17  1  0  0  0  0
 16 20  1  6  0  0  0
 17 22  1  1  0  0  0
 23 21  1  1  0  0  0
 23 24  1  0  0  0  0
 23 32  1  0  0  0  0
 24 25  1  0  0  0  0
 24 29  1  1  0  0  0
 25 26  1  0  0  0  0
 26 27  1  0  0  0  0
 26 31  1  1  0  0  0
 27 28  1  1  0  0  0
 27 32  1  0  0  0  0
 28 30  1  0  0  0  0
M  CHG  5   8   1  18   1  19   1  29   1  30   1
M  END
>  <CHROM.1>
-103.30031754,161.13448572,-67.66891410,-61.77107795,-50.83063487,175.80839909
-155.83890708,120.91566901,-103.20197049,-176.12215058,118.05109862,-143.21534364
-161.00468095,-63.28935503,-54.11990617,-51.70913347,-4.93039382,1.37660413
-10.23337394,0.61342817,0.56119834,-0.16503888

>  <Name>
2tob cryst

>  <RI>
3.75586e+07

>  <Rbt.Current_Directory>
/home/itssahil/PROJECTS/Mol_Feturizer/New_Systems/rnas/2tob

>  <Rbt.Executable>
rbdock ($Id: //depot/dev/client3/rdock/2013.1/src/exe/rbdock.cxx#4 $)

>  <Rbt.Library>
libRbt.so (2013.1, Build901 2013/11/27)

>  <Rbt.Parameter_File>
/export/apps/rDock/src/rDock_2013.1_src/data/scripts/dock_solv.prm

>  <Rbt.Receptor>
prm/pocket_docking_8.prm

>  <SCORE>
-23.4619

>  <SCORE.INTER>
-21.2117

>  <SCORE.INTER.CONST>
1

>  <SCORE.INTER.POLAR>
-1.8921

>  <SCORE.INTER.ROT>
6

>  <SCORE.INTER.SOLV>
28.9357

>  <SCORE.INTER.VDW>
-25.0794

>  <SCORE.INTER.norm>
-0.662866

>  <SCORE.INTRA>
-2.25019

>  <SCORE.INTRA.DIHEDRAL>
13.7312

>  <SCORE.INTRA.DIHEDRAL.0>
18.4221

>  <SCORE.INTRA.POLAR>
0.0970907

>  <SCORE.INTRA.POLAR.0>
-1.57101

>  <SCORE.INTRA.REPUL>
-0.730195

>  <SCORE.INTRA.REPUL.0>
0.730195

>  <SCORE.INTRA.SOLV>
3.60096

>  <SCORE.INTRA.SOLV.lig_0>
-127.221

>  <SCORE.INTRA.VDW>
-7.59538

>  <SCORE.INTRA.VDW.0>
10.8385

>  <SCORE.INTRA.norm>
-0.0703184

>  <SCORE.RESTR>
0

>  <SCORE.RESTR.CAVITY>
0

>  <SCORE.RESTR.norm>
0

>  <SCORE.SYSTEM>
0

>  <SCORE.SYSTEM.CONST>
0

>  <SCORE.SYSTEM.DIHEDRAL>
0

>  <SCORE.SYSTEM.SOLV>
0

>  <SCORE.SYSTEM.norm>
0

>  <SCORE.heavy>
32

>  <SCORE.norm>
-0.733185

>  <RMSD>
7.761

$$$$
2tob cryst
 OpenBabel11021811463D
libRbt.so/2013.1/901 2013/11/27
 32 34  0  0  0  0  0  0  0  0999 V2000
  -11.6388   -5.2476   -7.5732 C   0  0  2  0  0  0  0  0  0  0  0  0
  -12.6929   -5.7703   -8.5441 C   0  0  1  0  0  0  0  0  0  0  0  0
  -13.8454   -4.7678   -8.6114 C   0  0  2  0  0  0  0  0  0  0  0  0
  -14.4056   -4.4844   -7.2113 C   0  0  1  0  0  0  0  0  0  0  0  0
  -13.2688   -4.0892   -6.2624 C   0  0  1  0  0  0  0  0  0  0  0  0
  -13.6917   -3.9266   -4.8116 C   0  0  0  0  0  0  0  0  0  0  0  0
  -12.1222   -5.9384   -9.8390 O   0  0  0  0  0  0  0  0  0  0  0  0
  -15.0018   -5.1019   -9.5020 N   0  3  0  0  0  0  0  0  0  0  0  0
  -15.3534   -3.4278   -7.2977 O   0  0  0  0  0  0  0  0  0  0  0  0
  -12.2302   -5.0883   -6.2975 O   0  0  0  0  0  0  0  0  0  0  0  0
  -14.7750   -4.7964   -4.4989 O   0  0  0  0  0  0  0  0  0  0  0  0
   -8.7948   -4.4614   -8.3514 C   0  0  2  0  0  0  0  0  0  0  0  0
   -7.3593   -3.9343   -8.2225 C   0  0  0  0  0  0  0  0  0  0  0  0
   -7.2579   -2.4488   -8.5577 C   0  0  1  0  0  0  0  0  0  0  0  0
   -8.2041   -1.6833   -7.6430 C   0  0  2  0  0  0  0  0  0  0  0  0
   -9.6462   -2.1088   -7.9303 C   0  0  1  0  0  0  0  0  0  0  0  0
   -9.8397   -3.6036   -7.6205 C   0  0  1  0  0  0  0  0  0  0  0  0
   -8.8863   -5.8738   -7.8494 N   0  3  0  0  0  0  0  0  0  0  0  0
   -5.8471   -1.9606   -8.4179 N   0  3  0  0  0  0  0  0  0  0  0  0
  -10.5344   -1.3238   -7.1448 O   0  0  0  0  0  0  0  0  0  0  0  0
   -8.0606   -0.2651   -7.8421 O   0  0  0  0  0  0  0  0  0  0  0  0
  -11.1477   -4.0272   -8.0581 O   0  0  0  0  0  0  0  0  0  0  0  0
   -8.3056    0.1402   -9.1606 C   0  0  2  0  0  0  0  0  0  0  0  0
   -8.2964    1.6701   -9.2464 C   0  0  1  0  0  0  0  0  0  0  0  0
   -9.5698    2.2613   -8.6411 C   0  0  0  0  0  0  0  0  0  0  0  0
  -10.7767    1.6036   -9.2903 C   0  0  1  0  0  0  0  0  0  0  0  0
  -10.7067    0.1026   -9.0691 C   0  0  1  0  0  0  0  0  0  0  0  0
  -11.8921   -0.6124   -9.6918 C   0  0  0  0  0  0  0  0  0  0  0  0
   -7.1055    2.2036   -8.5110 N   0  3  0  0  0  0  0  0  0  0  0  0
  -12.8065   -1.0516   -8.5809 N   0  3  0  0  0  0  0  0  0  0  0  0
  -11.9785    2.1202   -8.7363 O   0  0  0  0  0  0  0  0  0  0  0  0
   -9.5109   -0.4122   -9.6790 O   0  0  0  0  0  0  0  0  0  0  0  0
  1  2  1  0  0  0  0
  1 22  1  6  0  0  0
  1 10  1  0  0  0  0
  2  3  1  0  0  0  0
  2  7  1  6  0  0  0
  3  4  1  0  0  0  0
  3  8  1  6  0  0  0
  4  5  1  0  0  0  0
  4  9  1  6  0  0  0
  5  6  1  1  0  0  0
  5 10  1  0  0  0  0
  6 11  1  0  0  0  0
 12 13  1  0  0  0  0
 12 17  1  0  0  0  0
 12 18  1  1  0  0  0
 13 14  1  0  0  0  0
 14 15  1  0  0  0  0
 14 19  1  1  0  0  0
 15 16  1  0  0  0  0
 15 21  1  6  0  0  0
 16 17  1  0  0  0  0
 16 20  1  1  0  0  0
 17 22  1  6  0  0  0
 23 21  1  1  0  0  0
 23 24  1  0  0  0  0
 23 32  1  0  0  0  0
 24 25  1  0  0  0  0
 24 29  1  1  0  0  0
 25 26  1  0  0  0  0
 26 27  1  0  0  0  0
 26 31  1  1  0  0  0
 27 28  1  6  0  0  0
 27 32  1  0  0  0  0
 28 30  1  0  0  0  0
M  CHG  5   8   1  18   1  19   1  29   1  30   1
M  END
>  <CHROM.1>
-156.93157524,67.04041727,-37.98968623,70.10246953,30.64369613,84.08020276
97.24431678,-24.44146997,58.37057139,23.40377011,74.29427506,173.26055483
32.19272830,-66.80744939,-106.68384564,95.14271537,-10.83507944,-2.39454839
-8.07107439,-2.33538649,0.11013777,-0.15798416

>  <Name>
2tob cryst

>  <RI>
2.04895e+07

>  <Rbt.Current_Directory>
/home/itssahil/PROJECTS/Mol_Feturizer/New_Systems/rnas/2tob

>  <Rbt.Executable>
rbdock ($Id: //depot/dev/client3/rdock/2013.1/src/exe/rbdock.cxx#4 $)

>  <Rbt.Library>
libRbt.so (2013.1, Build901 2013/11/27)

>  <Rbt.Parameter_File>
/export/apps/rDock/src/rDock_2013.1_src/data/scripts/dock_solv.prm

>  <Rbt.Receptor>
prm/blind_docking_20.prm

>  <SCORE>
52.0275

>  <SCORE.INTER>
41.7249

>  <SCORE.INTER.CONST>
1

>  <SCORE.INTER.POLAR>
-2.57755

>  <SCORE.INTER.ROT>
6

>  <SCORE.INTER.SOLV>
41.4244

>  <SCORE.INTER.VDW>
15.0003

>  <SCORE.INTER.norm>
1.3039

>  <SCORE.INTRA>
0.936622

>  <SCORE.INTRA.DIHEDRAL>
10.3902

>  <SCORE.INTRA.DIHEDRAL.0>
18.4221

>  <SCORE.INTRA.POLAR>
0.557483

>  <SCORE.INTRA.POLAR.0>
-1.57101

>  <SCORE.INTRA.REPUL>
-0.694342

>  <SCORE.INTRA.REPUL.0>
0.730195

>  <SCORE.INTRA.SOLV>
1.1306

>  <SCORE.INTRA.SOLV.lig_0>
-127.221

>  <SCORE.INTRA.VDW>
-3.24753

>  <SCORE.INTRA.VDW.0>
10.8385

>  <SCORE.INTRA.norm>
0.0292694

>  <SCORE.RESTR>
9.36597

>  <SCORE.RESTR.CAVITY>
9.36597

>  <SCORE.RESTR.norm>
0.292687

>  <SCORE.SYSTEM>
0

>  <SCORE.SYSTEM.CONST>
0

>  <SCORE.SYSTEM.DIHEDRAL>
0

>  <SCORE.SYSTEM.SOLV>
0

>  <SCORE.SYSTEM.norm>
0

>  <SCORE.heavy>
32

>  <SCORE.norm>
1.62586

>  <RMSD>
7.770

$$$$
2tob cryst
 OpenBabel11021811463D
libRbt.so/2013.1/901 2013/11/27
 32 34  0  0  0  0  0  0  0  0999 V2000
  -12.2305   -5.3328   -8.4126 C   0  0  2  0  0  0  0  0  0  0  0  0
  -13.3708   -6.2915   -8.7410 C   0  0  1  0  0  0  0  0  0  0  0  0
  -13.4751   -7.3368   -7.6301 C   0  0  2  0  0  0  0  0  0  0  0  0
  -12.1320   -8.0490   -7.4220 C   0  0  1  0  0  0  0  0  0  0  0  0
  -11.0164   -7.0166   -7.2260 C   0  0  1  0  0  0  0  0  0  0  0  0
   -9.6189   -7.6100   -7.1556 C   0  0  0  0  0  0  0  0  0  0  0  0
  -14.5969   -5.5729   -8.8453 O   0  0  0  0  0  0  0  0  0  0  0  0
  -14.5292   -8.3910   -7.7689 N   0  3  0  0  0  0  0  0  0  0  0  0
  -12.2248   -8.8850   -6.2754 O   0  0  0  0  0  0  0  0  0  0  0  0
  -11.0268   -6.0702   -8.3134 O   0  0  0  0  0  0  0  0  0  0  0  0
   -9.4849   -8.4578   -6.0193 O   0  0  0  0  0  0  0  0  0  0  0  0
  -12.5794   -2.8114   -5.6865 C   0  0  2  0  0  0  0  0  0  0  0  0
  -11.9387   -1.4890   -5.2439 C   0  0  0  0  0  0  0  0  0  0  0  0
  -10.4167   -1.5201   -5.3537 C   0  0  1  0  0  0  0  0  0  0  0  0
  -10.0447   -1.8518   -6.7923 C   0  0  2  0  0  0  0  0  0  0  0  0
  -10.5464   -3.2561   -7.1378 C   0  0  1  0  0  0  0  0  0  0  0  0
  -12.0815   -3.3177   -7.0495 C   0  0  1  0  0  0  0  0  0  0  0  0
  -14.0752   -2.6854   -5.7303 N   0  3  0  0  0  0  0  0  0  0  0  0
   -9.8191   -0.2149   -4.9208 N   0  3  0  0  0  0  0  0  0  0  0  0
  -10.1140   -3.6020   -8.4476 O   0  0  0  0  0  0  0  0  0  0  0  0
   -8.6187   -1.7804   -6.9736 O   0  0  0  0  0  0  0  0  0  0  0  0
  -12.5248   -4.6817   -7.2064 O   0  0  0  0  0  0  0  0  0  0  0  0
   -8.2307   -1.7084   -8.3179 C   0  0  2  0  0  0  0  0  0  0  0  0
   -6.7194   -1.4740   -8.4129 C   0  0  1  0  0  0  0  0  0  0  0  0
   -6.3639   -0.0320   -8.0497 C   0  0  0  0  0  0  0  0  0  0  0  0
   -7.2000    0.9117   -8.8989 C   0  0  1  0  0  0  0  0  0  0  0  0
   -8.6726    0.6293   -8.6568 C   0  0  1  0  0  0  0  0  0  0  0  0
   -9.5621    1.5471   -9.4756 C   0  0  0  0  0  0  0  0  0  0  0  0
   -6.0103   -2.4077   -7.4807 N   0  3  0  0  0  0  0  0  0  0  0  0
  -10.9936    1.1793   -9.1952 N   0  3  0  0  0  0  0  0  0  0  0  0
   -6.9049    2.2624   -8.5729 O   0  0  0  0  0  0  0  0  0  0  0  0
   -8.9657   -0.7253   -9.0389 O   0  0  0  0  0  0  0  0  0  0  0  0
  1  2  1  0  0  0  0
  1 22  1  1  0  0  0
  1 10  1  0  0  0  0
  2  3  1  0  0  0  0
  2  7  1  1  0  0  0
  3  4  1  0  0  0  0
  3  8  1  6  0  0  0
  4  5  1  0  0  0  0
  4  9  1  1  0  0  0
  5  6  1  6  0  0  0
  5 10  1  0  0  0  0
  6 11  1  0  0  0  0
 12 13  1  0  0  0  0
 12 17  1  0  0  0  0
 12 18  1  6  0  0  0
 13 14  1  0  0  0  0
 14 15  1  0  0  0  0
 14 19  1  6  0  0  0
 15 16  1  0  0  0  0
 15 21  1  1  0  0  0
 16 17  1  0  0  0  0
 16 20  1  6  0  0  0
 17 22  1  1  0  0  0
 23 21  1  1  0  0  0
 23 24  1  0  0  0  0
 23 32  1  0  0  0  0
 24 25  1  0  0  0  0
 24 29  1  1  0  0  0
 25 26  1  0  0  0  0
 26 27  1  0  0  0  0
 26 31  1  1  0  0  0
 27 28  1  6  0  0  0
 27 32  1  0  0  0  0
 28 30  1  0  0  0  0
M  CHG  5   8   1  18   1  19   1  29   1  30   1
M  END
>  <CHROM.1>
-146.40921441,63.44647550,60.27621403,-177.62914493,-63.70300117,-178.65927177
65.58568880,48.32566049,-163.45825046,-52.24912132,177.32716018,173.52745527
-172.45037603,62.09958062,178.86849888,-47.83299190,-10.51771231,-3.33198989
-7.50789659,2.10349881,-0.08265599,3.08563665

>  <Name>
2tob cryst

>  <RI>
0

>  <Rbt.Current_Directory>
/home/itssahil/PROJECTS/Mol_Feturizer/New_Systems/rnas/2tob

>  <Rbt.Executable>
rbdock ($Id: //depot/dev/client3/rdock/2013.1/src/exe/rbdock.cxx#4 $)

>  <Rbt.Library>
libRbt.so (2013.1, Build901 2013/11/27)

>  <Rbt.Parameter_File>
/export/apps/rDock/src/rDock_2013.1_src/data/scripts/dock_solv.prm

>  <Rbt.Receptor>
prm/pocket_docking_3.prm

>  <SCORE>
-52.7461

>  <SCORE.INTER>
-30.3702

>  <SCORE.INTER.CONST>
1

>  <SCORE.INTER.POLAR>
-5.11354

>  <SCORE.INTER.ROT>
6

>  <SCORE.INTER.SOLV>
36.5076

>  <SCORE.INTER.VDW>
-22.9709

>  <SCORE.INTER.norm>
-0.949068

>  <SCORE.INTRA>
-24.6393

>  <SCORE.INTRA.DIHEDRAL>
-11.0607

>  <SCORE.INTRA.DIHEDRAL.0>
18.4221

>  <SCORE.INTRA.POLAR>
0.851617

>  <SCORE.INTRA.POLAR.0>
-1.57101

>  <SCORE.INTRA.REPUL>
-0.730195

>  <SCORE.INTRA.REPUL.0>
0.730195

>  <SCORE.INTRA.SOLV>
-9.90077

>  <SCORE.INTRA.SOLV.lig_0>
-127.221

>  <SCORE.INTRA.VDW>
-13.4031

>  <SCORE.INTRA.VDW.0>
10.8385

>  <SCORE.INTRA.norm>
-0.769978

>  <SCORE.RESTR>
2.26338

>  <SCORE.RESTR.CAVITY>
2.26338

>  <SCORE.RESTR.norm>
0.0707306

>  <SCORE.SYSTEM>
0

>  <SCORE.SYSTEM.CONST>
0

>  <SCORE.SYSTEM.DIHEDRAL>
0

>  <SCORE.SYSTEM.SOLV>
0

>  <SCORE.SYSTEM.norm>
0

>  <SCORE.heavy>
32

>  <SCORE.norm>
-1.64832

>  <RMSD>
7.770

$$$$
2tob cryst
 OpenBabel11021811463D
libRbt.so/2013.1/901 2013/11/27
 32 34  0  0  0  0  0  0  0  0999 V2000
   -8.6691   -4.4079   -3.4800 C   0  0  2  0  0  0  0  0  0  0  0  0
   -8.6465   -5.5541   -2.4737 C   0  0  1  0  0  0  0  0  0  0  0  0
   -9.8038   -5.3739   -1.4909 C   0  0  2  0  0  0  0  0  0  0  0  0
   -9.7477   -3.9909   -0.8284 C   0  0  1  0  0  0  0  0  0  0  0  0
   -9.6431   -2.9005   -1.9002 C   0  0  1  0  0  0  0  0  0  0  0  0
   -9.4352   -1.4990   -1.3499 C   0  0  0  0  0  0  0  0  0  0  0  0
   -8.7777   -6.8007   -3.1516 O   0  0  0  0  0  0  0  0  0  0  0  0
   -9.9517   -6.3911   -0.4022 N   0  3  0  0  0  0  0  0  0  0  0  0
  -10.9269   -3.7998   -0.0568 O   0  0  0  0  0  0  0  0  0  0  0  0
   -8.5388   -3.1836   -2.7825 O   0  0  0  0  0  0  0  0  0  0  0  0
   -9.4024   -0.5408   -2.4027 O   0  0  0  0  0  0  0  0  0  0  0  0
  -11.2776   -4.1642   -6.1302 C   0  0  2  0  0  0  0  0  0  0  0  0
  -11.6061   -3.3198   -7.3688 C   0  0  0  0  0  0  0  0  0  0  0  0
  -11.4273   -1.8259   -7.1126 C   0  0  1  0  0  0  0  0  0  0  0  0
   -9.9964   -1.5846   -6.6519 C   0  0  2  0  0  0  0  0  0  0  0  0
   -9.7633   -2.2978   -5.3176 C   0  0  1  0  0  0  0  0  0  0  0  0
   -9.9271   -3.8189   -5.4830 C   0  0  1  0  0  0  0  0  0  0  0  0
  -11.2961   -5.6274   -6.4679 N   0  3  0  0  0  0  0  0  0  0  0  0
  -11.7493   -1.0270   -8.3399 N   0  3  0  0  0  0  0  0  0  0  0  0
   -8.4589   -1.9916   -4.8413 O   0  0  0  0  0  0  0  0  0  0  0  0
   -9.7444   -0.1750   -6.5069 O   0  0  0  0  0  0  0  0  0  0  0  0
   -9.8767   -4.4583   -4.1906 O   0  0  0  0  0  0  0  0  0  0  0  0
   -8.3813    0.1467   -6.4710 C   0  0  2  0  0  0  0  0  0  0  0  0
   -8.1234    1.4170   -7.2882 C   0  0  1  0  0  0  0  0  0  0  0  0
   -8.1968    1.1291   -8.7880 C   0  0  0  0  0  0  0  0  0  0  0  0
   -7.2660   -0.0274   -9.1150 C   0  0  1  0  0  0  0  0  0  0  0  0
   -7.6735   -1.2423   -8.2998 C   0  0  1  0  0  0  0  0  0  0  0  0
   -6.7815   -2.4363   -8.5876 C   0  0  0  0  0  0  0  0  0  0  0  0
   -9.1441    2.4542   -6.9334 N   0  3  0  0  0  0  0  0  0  0  0  0
   -5.3724   -2.0652   -8.2140 N   0  3  0  0  0  0  0  0  0  0  0  0
   -7.3240   -0.3314  -10.5014 O   0  0  0  0  0  0  0  0  0  0  0  0
   -7.5610   -0.9348   -6.9000 O   0  0  0  0  0  0  0  0  0  0  0  0
  1  2  1  0  0  0  0
  1 22  1  1  0  0  0
  1 10  1  0  0  0  0
  2  3  1  0  0  0  0
  2  7  1  6  0  0  0
  3  4  1  0  0  0  0
  3  8  1  1  0  0  0
  4  5  1  0  0  0  0
  4  9  1  6  0  0  0
  5  6  1  1  0  0  0
  5 10  1  0  0  0  0
  6 11  1  0  0  0  0
 12 13  1  0  0  0  0
 12 17  1  0  0  0  0
 12 18  1  6  0  0  0
 13 14  1  0  0  0  0
 14 15  1  0  0  0  0
 14 19  1  6  0  0  0
 15 16  1  0  0  0  0
 15 21  1  1  0  0  0
 16 17  1  0  0  0  0
 16 20  1  6  0  0  0
 17 22  1  1  0  0  0
 23 21  1  6  0  0  0
 23 24  1  0  0  0  0
 23 32  1  0  0  0  0
 24 25  1  0  0  0  0
 24 29  1  1  0  0  0
 25 26  1  0  0  0  0
 26 27  1  0  0  0  0
 26 31  1  6  0  0  0
 27 28  1  6  0  0  0
 27 32  1  0  0  0  0
 28 30  1  0  0  0  0
M  CHG  5   8   1  18   1  19   1  29   1  30   1
M  END
>  <CHROM.1>
-157.70957069,58.89961654,66.76618897,-60.87091611,-177.65691625,-49.47941600
-55.52105181,45.78107010,-162.41954597,-50.93737510,172.82241666,139.11729973
-34.95073676,-46.64147309,60.89269168,-66.11819578,-9.19704417,-2.40206806
-5.30325807,2.60150873,1.34644966,1.16343709

>  <Name>
2tob cryst

>  <RI>
2.10184e+07

>  <Rbt.Current_Directory>
/home/itssahil/PROJECTS/Mol_Feturizer/New_Systems/rnas/2tob

>  <Rbt.Executable>
rbdock ($Id: //depot/dev/client3/rdock/2013.1/src/exe/rbdock.cxx#4 $)

>  <Rbt.Library>
libRbt.so (2013.1, Build901 2013/11/27)

>  <Rbt.Parameter_File>
/export/apps/rDock/src/rDock_2013.1_src/data/scripts/dock_solv.prm

>  <Rbt.Receptor>
prm/pocket_docking_7.prm

>  <SCORE>
-44.3332

>  <SCORE.INTER>
-23.9289

>  <SCORE.INTER.CONST>
1

>  <SCORE.INTER.POLAR>
-3.94208

>  <SCORE.INTER.ROT>
6

>  <SCORE.INTER.SOLV>
32.8844

>  <SCORE.INTER.VDW>
-21.3738

>  <SCORE.INTER.norm>
-0.747778

>  <SCORE.INTRA>
-20.4044

>  <SCORE.INTRA.DIHEDRAL>
-5.05307

>  <SCORE.INTRA.DIHEDRAL.0>
18.4221

>  <SCORE.INTRA.POLAR>
-0.0838375

>  <SCORE.INTRA.POLAR.0>
-1.57101

>  <SCORE.INTRA.REPUL>
-0.730195

>  <SCORE.INTRA.REPUL.0>
0.730195

>  <SCORE.INTRA.SOLV>
-7.12502

>  <SCORE.INTRA.SOLV.lig_0>
-127.221

>  <SCORE.INTRA.VDW>
-10.3793

>  <SCORE.INTRA.VDW.0>
10.8385

>  <SCORE.INTRA.norm>
-0.637636

>  <SCORE.RESTR>
0

>  <SCORE.RESTR.CAVITY>
0

>  <SCORE.RESTR.norm>
0

>  <SCORE.SYSTEM>
0

>  <SCORE.SYSTEM.CONST>
0

>  <SCORE.SYSTEM.DIHEDRAL>
0

>  <SCORE.SYSTEM.SOLV>
0

>  <SCORE.SYSTEM.norm>
0

>  <SCORE.heavy>
32

>  <SCORE.norm>
-1.38541

>  <RMSD>
7.772

$$$$
2tob cryst
 OpenBabel11021811463D
libRbt.so/2013.1/901 2013/11/27
 32 34  0  0  0  0  0  0  0  0999 V2000
  -12.6358   -4.9479   -5.4321 C   0  0  2  0  0  0  0  0  0  0  0  0
  -12.4372   -6.2568   -4.6744 C   0  0  1  0  0  0  0  0  0  0  0  0
  -13.8040   -6.8891   -4.4102 C   0  0  2  0  0  0  0  0  0  0  0  0
  -14.7288   -5.9061   -3.6800 C   0  0  1  0  0  0  0  0  0  0  0  0
  -14.7759   -4.5726   -4.4340 C   0  0  1  0  0  0  0  0  0  0  0  0
  -15.5494   -3.4762   -3.7200 C   0  0  0  0  0  0  0  0  0  0  0  0
  -11.6329   -7.1476   -5.4427 O   0  0  0  0  0  0  0  0  0  0  0  0
  -13.8339   -8.1827   -3.6569 N   0  3  0  0  0  0  0  0  0  0  0  0
  -16.0336   -6.4669   -3.6062 O   0  0  0  0  0  0  0  0  0  0  0  0
  -13.4373   -4.0830   -4.6496 O   0  0  0  0  0  0  0  0  0  0  0  0
  -14.9160   -3.1251   -2.4940 O   0  0  0  0  0  0  0  0  0  0  0  0
  -14.4295   -3.1960   -7.1913 C   0  0  2  0  0  0  0  0  0  0  0  0
  -14.4301   -1.8657   -7.9564 C   0  0  0  0  0  0  0  0  0  0  0  0
  -13.0459   -1.2241   -7.9991 C   0  0  1  0  0  0  0  0  0  0  0  0
  -12.0756   -2.2145   -8.6279 C   0  0  2  0  0  0  0  0  0  0  0  0
  -11.9657   -3.4554   -7.7383 C   0  0  1  0  0  0  0  0  0  0  0  0
  -13.3256   -4.1683   -7.6361 C   0  0  1  0  0  0  0  0  0  0  0  0
  -15.7609   -3.8793   -7.3181 N   0  3  0  0  0  0  0  0  0  0  0  0
  -13.0754    0.0695   -8.7567 N   0  3  0  0  0  0  0  0  0  0  0  0
  -10.9871   -4.3357   -8.2763 O   0  0  0  0  0  0  0  0  0  0  0  0
  -10.7789   -1.6129   -8.7955 O   0  0  0  0  0  0  0  0  0  0  0  0
  -13.2481   -5.2293   -6.6615 O   0  0  0  0  0  0  0  0  0  0  0  0
  -10.3620   -0.8688   -7.6841 C   0  0  2  0  0  0  0  0  0  0  0  0
   -9.1868    0.0348   -8.0722 C   0  0  1  0  0  0  0  0  0  0  0  0
   -7.9008   -0.7763   -8.2334 C   0  0  0  0  0  0  0  0  0  0  0  0
   -7.6729   -1.5961   -6.9737 C   0  0  1  0  0  0  0  0  0  0  0  0
   -8.8704   -2.5014   -6.7435 C   0  0  1  0  0  0  0  0  0  0  0  0
   -8.6993   -3.3528   -5.4985 C   0  0  0  0  0  0  0  0  0  0  0  0
   -9.4974    0.7305   -9.3618 N   0  3  0  0  0  0  0  0  0  0  0  0
   -8.7926   -2.4485   -4.3000 N   0  3  0  0  0  0  0  0  0  0  0  0
   -6.4920   -2.3757   -7.0987 O   0  0  0  0  0  0  0  0  0  0  0  0
  -10.0483   -1.6959   -6.5687 O   0  0  0  0  0  0  0  0  0  0  0  0
  1  2  1  0  0  0  0
  1 22  1  6  0  0  0
  1 10  1  0  0  0  0
  2  3  1  0  0  0  0
  2  7  1  6  0  0  0
  3  4  1  0  0  0  0
  3  8  1  1  0  0  0
  4  5  1  0  0  0  0
  4  9  1  6  0  0  0
  5  6  1  1  0  0  0
  5 10  1  0  0  0  0
  6 11  1  0  0  0  0
 12 13  1  0  0  0  0
 12 17  1  0  0  0  0
 12 18  1  6  0  0  0
 13 14  1  0  0  0  0
 14 15  1  0  0  0  0
 14 19  1  6  0  0  0
 15 16  1  0  0  0  0
 15 21  1  1  0  0  0
 16 17  1  0  0  0  0
 16 20  1  6  0  0  0
 17 22  1  1  0  0  0
 23 21  1  6  0  0  0
 23 24  1  0  0  0  0
 23 32  1  0  0  0  0
 24 25  1  0  0  0  0
 24 29  1  6  0  0  0
 25 26  1  0  0  0  0
 26 27  1  0  0  0  0
 26 31  1  6  0  0  0
 27 28  1  1  0  0  0
 27 32  1  0  0  0  0
 28 30  1  0  0  0  0
M  CHG  5   8   1  18   1  19   1  29   1  30   1
M  END
>  <CHROM.1>
-169.71612622,65.55387318,-57.10333146,-59.00983377,64.29015008,61.78684990
178.64298912,16.20296263,43.54319952,-43.86312049,-75.43170747,-164.54969788
178.63444240,73.60950355,69.93949394,-173.49752129,-12.01249870,-3.35884226
-6.34947328,-2.31656892,-0.04967505,-0.69645956

>  <Name>
2tob cryst

>  <RI>
3.75586e+07

>  <Rbt.Current_Directory>
/home/itssahil/PROJECTS/Mol_Feturizer/New_Systems/rnas/2tob

>  <Rbt.Executable>
rbdock ($Id: //depot/dev/client3/rdock/2013.1/src/exe/rbdock.cxx#4 $)

>  <Rbt.Library>
libRbt.so (2013.1, Build901 2013/11/27)

>  <Rbt.Parameter_File>
/export/apps/rDock/src/rDock_2013.1_src/data/scripts/dock_solv.prm

>  <Rbt.Receptor>
prm/pocket_docking_8.prm

>  <SCORE>
-38.0655

>  <SCORE.INTER>
-20.8212

>  <SCORE.INTER.CONST>
1

>  <SCORE.INTER.POLAR>
-2.99937

>  <SCORE.INTER.ROT>
6

>  <SCORE.INTER.SOLV>
19.4171

>  <SCORE.INTER.VDW>
-17.9553

>  <SCORE.INTER.norm>
-0.650661

>  <SCORE.INTRA>
-17.2443

>  <SCORE.INTRA.DIHEDRAL>
-8.42935

>  <SCORE.INTRA.DIHEDRAL.0>
18.4221

>  <SCORE.INTRA.POLAR>
1.56739

>  <SCORE.INTRA.POLAR.0>
-1.57101

>  <SCORE.INTRA.REPUL>
-0.730195

>  <SCORE.INTRA.REPUL.0>
0.730195

>  <SCORE.INTRA.SOLV>
-3.06773

>  <SCORE.INTRA.SOLV.lig_0>
-127.221

>  <SCORE.INTRA.VDW>
-13.1739

>  <SCORE.INTRA.VDW.0>
10.8385

>  <SCORE.INTRA.norm>
-0.538886

>  <SCORE.RESTR>
0

>  <SCORE.RESTR.CAVITY>
0

>  <SCORE.RESTR.norm>
0

>  <SCORE.SYSTEM>
0

>  <SCORE.SYSTEM.CONST>
0

>  <SCORE.SYSTEM.DIHEDRAL>
0

>  <SCORE.SYSTEM.SOLV>
0

>  <SCORE.SYSTEM.norm>
0

>  <SCORE.heavy>
32

>  <SCORE.norm>
-1.18955

>  <RMSD>
7.834

$$$$
2tob cryst
 OpenBabel11021811463D
libRbt.so/2013.1/901 2013/11/27
 32 34  0  0  0  0  0  0  0  0999 V2000
   -2.9956    3.4329  -12.5369 C   0  0  2  0  0  0  0  0  0  0  0  0
   -1.5433    3.8368  -12.3032 C   0  0  1  0  0  0  0  0  0  0  0  0
   -1.5125    5.1034  -11.4475 C   0  0  2  0  0  0  0  0  0  0  0  0
   -2.3503    6.2172  -12.0896 C   0  0  1  0  0  0  0  0  0  0  0  0
   -3.7554    5.6966  -12.4110 C   0  0  1  0  0  0  0  0  0  0  0  0
   -4.6249    6.6755  -13.1829 C   0  0  0  0  0  0  0  0  0  0  0  0
   -0.8464    2.7868  -11.6379 O   0  0  0  0  0  0  0  0  0  0  0  0
   -0.1718    5.6809  -11.1145 N   0  3  0  0  0  0  0  0  0  0  0  0
   -2.4346    7.3117  -11.1856 O   0  0  0  0  0  0  0  0  0  0  0  0
   -3.6646    4.4912  -13.1966 O   0  0  0  0  0  0  0  0  0  0  0  0
   -4.1058    6.8919  -14.4912 O   0  0  0  0  0  0  0  0  0  0  0  0
   -3.2714    0.7829  -11.0086 C   0  0  2  0  0  0  0  0  0  0  0  0
   -3.8713   -0.5531  -10.5498 C   0  0  0  0  0  0  0  0  0  0  0  0
   -4.7646   -0.3934   -9.3227 C   0  0  1  0  0  0  0  0  0  0  0  0
   -5.8598    0.6116   -9.6523 C   0  0  2  0  0  0  0  0  0  0  0  0
   -5.2303    1.9795   -9.9278 C   0  0  1  0  0  0  0  0  0  0  0  0
   -4.3054    1.9104  -11.1557 C   0  0  1  0  0  0  0  0  0  0  0  0
   -2.5438    0.6159  -12.3116 N   0  3  0  0  0  0  0  0  0  0  0  0
   -5.3406   -1.7119   -8.9010 N   0  3  0  0  0  0  0  0  0  0  0  0
   -6.2594    2.9377  -10.1395 O   0  0  0  0  0  0  0  0  0  0  0  0
   -6.7967    0.7114   -8.5642 O   0  0  0  0  0  0  0  0  0  0  0  0
   -3.5892    3.1549  -11.2976 O   0  0  0  0  0  0  0  0  0  0  0  0
   -8.0865    0.2784   -8.8980 C   0  0  2  0  0  0  0  0  0  0  0  0
   -9.1241    1.2764   -8.3731 C   0  0  1  0  0  0  0  0  0  0  0  0
   -9.2844    1.1551   -6.8574 C   0  0  0  0  0  0  0  0  0  0  0  0
   -9.5746   -0.2952   -6.5060 C   0  0  1  0  0  0  0  0  0  0  0  0
   -8.4396   -1.1684   -7.0119 C   0  0  1  0  0  0  0  0  0  0  0  0
   -8.6695   -2.6328   -6.6851 C   0  0  0  0  0  0  0  0  0  0  0  0
   -8.6932    2.6697   -8.7147 N   0  3  0  0  0  0  0  0  0  0  0  0
   -7.7740   -3.4537   -7.5723 N   0  3  0  0  0  0  0  0  0  0  0  0
   -9.7125   -0.4447   -5.1001 O   0  0  0  0  0  0  0  0  0  0  0  0
   -8.3458   -1.0448   -8.4412 O   0  0  0  0  0  0  0  0  0  0  0  0
  1  2  1  0  0  0  0
  1 22  1  1  0  0  0
  1 10  1  0  0  0  0
  2  3  1  0  0  0  0
  2  7  1  1  0  0  0
  3  4  1  0  0  0  0
  3  8  1  6  0  0  0
  4  5  1  0  0  0  0
  4  9  1  1  0  0  0
  5  6  1  6  0  0  0
  5 10  1  0  0  0  0
  6 11  1  0  0  0  0
 12 13  1  0  0  0  0
 12 17  1  0  0  0  0
 12 18  1  6  0  0  0
 13 14  1  0  0  0  0
 14 15  1  0  0  0  0
 14 19  1  6  0  0  0
 15 16  1  0  0  0  0
 15 21  1  1  0  0  0
 16 17  1  0  0  0  0
 16 20  1  6  0  0  0
 17 22  1  1  0  0  0
 23 21  1  1  0  0  0
 23 24  1  0  0  0  0
 23 32  1  0  0  0  0
 24 25  1  0  0  0  0
 24 29  1  1  0  0  0
 25 26  1  0  0  0  0
 26 27  1  0  0  0  0
 26 31  1  1  0  0  0
 27 28  1  6  0  0  0
 27 32  1  0  0  0  0
 28 30  1  0  0  0  0
M  CHG  5   8   1  18   1  19   1  29   1  30   1
M  END
>  <CHROM.1>
-129.80929036,-175.67129035,-151.85736665,176.78052977,66.47624951,62.29384342
-33.12867078,-119.64972792,-115.53704061,-72.85022032,76.30308866,-134.94439426
-116.01431433,-176.54361085,162.07405832,-38.28608522,-5.21498658,2.02760588
-10.09014886,-0.83253840,-0.46550752,2.84280704

>  <Name>
2tob cryst

>  <RI>
3.75586e+07

>  <Rbt.Current_Directory>
/home/itssahil/PROJECTS/Mol_Feturizer/New_Systems/rnas/2tob

>  <Rbt.Executable>
rbdock ($Id: //depot/dev/client3/rdock/2013.1/src/exe/rbdock.cxx#4 $)

>  <Rbt.Library>
libRbt.so (2013.1, Build901 2013/11/27)

>  <Rbt.Parameter_File>
/export/apps/rDock/src/rDock_2013.1_src/data/scripts/dock_solv.prm

>  <Rbt.Receptor>
prm/pocket_docking_8.prm

>  <SCORE>
-50.4764

>  <SCORE.INTER>
-37.9916

>  <SCORE.INTER.CONST>
1

>  <SCORE.INTER.POLAR>
-5.4725

>  <SCORE.INTER.ROT>
6

>  <SCORE.INTER.SOLV>
34.5612

>  <SCORE.INTER.VDW>
-26.2064

>  <SCORE.INTER.norm>
-1.18724

>  <SCORE.INTRA>
-12.5036

>  <SCORE.INTRA.DIHEDRAL>
16.3488

>  <SCORE.INTRA.DIHEDRAL.0>
18.4221

>  <SCORE.INTRA.POLAR>
-1.71171

>  <SCORE.INTRA.POLAR.0>
-1.57101

>  <SCORE.INTRA.REPUL>
-0.709556

>  <SCORE.INTRA.REPUL.0>
0.730195

>  <SCORE.INTRA.SOLV>
2.8387

>  <SCORE.INTRA.SOLV.lig_0>
-127.221

>  <SCORE.INTRA.VDW>
-12.7298

>  <SCORE.INTRA.VDW.0>
10.8385

>  <SCORE.INTRA.norm>
-0.390738

>  <SCORE.RESTR>
0.0187803

>  <SCORE.RESTR.CAVITY>
0.0187803

>  <SCORE.RESTR.norm>
0.000586886

>  <SCORE.SYSTEM>
0

>  <SCORE.SYSTEM.CONST>
0

>  <SCORE.SYSTEM.DIHEDRAL>
0

>  <SCORE.SYSTEM.SOLV>
0

>  <SCORE.SYSTEM.norm>
0

>  <SCORE.heavy>
32

>  <SCORE.norm>
-1.57739

>  <RMSD>
7.838

$$$$
2tob cryst
 OpenBabel11021811463D
libRbt.so/2013.1/901 2013/11/27
 32 34  0  0  0  0  0  0  0  0999 V2000
   -3.5679    3.6743  -12.5230 C   0  0  2  0  0  0  0  0  0  0  0  0
   -2.3344    4.1266  -13.2983 C   0  0  1  0  0  0  0  0  0  0  0  0
   -1.3546    4.7883  -12.3288 C   0  0  2  0  0  0  0  0  0  0  0  0
   -2.0334    5.9297  -11.5600 C   0  0  1  0  0  0  0  0  0  0  0  0
   -3.3305    5.4285  -10.9157 C   0  0  1  0  0  0  0  0  0  0  0  0
   -4.1593    6.5144  -10.2492 C   0  0  0  0  0  0  0  0  0  0  0  0
   -1.7138    3.0064  -13.9234 O   0  0  0  0  0  0  0  0  0  0  0  0
   -0.0756    5.3225  -12.8950 N   0  3  0  0  0  0  0  0  0  0  0  0
   -1.1451    6.4028  -10.5553 O   0  0  0  0  0  0  0  0  0  0  0  0
   -4.1638    4.8030  -11.9119 O   0  0  0  0  0  0  0  0  0  0  0  0
   -4.4177    7.5825  -11.1548 O   0  0  0  0  0  0  0  0  0  0  0  0
   -3.1720    0.3729  -11.0594 C   0  0  2  0  0  0  0  0  0  0  0  0
   -3.9440   -0.8263  -10.4928 C   0  0  0  0  0  0  0  0  0  0  0  0
   -4.8140   -0.4407   -9.2995 C   0  0  1  0  0  0  0  0  0  0  0  0
   -5.7662    0.6644   -9.7353 C   0  0  2  0  0  0  0  0  0  0  0  0
   -4.9614    1.9078  -10.1218 C   0  0  1  0  0  0  0  0  0  0  0  0
   -4.0482    1.6075  -11.3234 C   0  0  1  0  0  0  0  0  0  0  0  0
   -2.4669   -0.0051  -12.3303 N   0  3  0  0  0  0  0  0  0  0  0  0
   -5.5599   -1.6292   -8.7710 N   0  3  0  0  0  0  0  0  0  0  0  0
   -5.8549    2.9688  -10.4350 O   0  0  0  0  0  0  0  0  0  0  0  0
   -6.6866    0.9837   -8.6759 O   0  0  0  0  0  0  0  0  0  0  0  0
   -3.1743    2.7300  -11.5644 O   0  0  0  0  0  0  0  0  0  0  0  0
   -7.9700    0.4588   -8.8754 C   0  0  2  0  0  0  0  0  0  0  0  0
   -9.0247    1.4660   -8.4051 C   0  0  1  0  0  0  0  0  0  0  0  0
   -9.0914    1.5182   -6.8785 C   0  0  0  0  0  0  0  0  0  0  0  0
   -9.2874    0.1086   -6.3443 C   0  0  1  0  0  0  0  0  0  0  0  0
   -8.1407   -0.7683   -6.8163 C   0  0  1  0  0  0  0  0  0  0  0  0
   -8.2773   -2.1923   -6.3085 C   0  0  0  0  0  0  0  0  0  0  0  0
   -8.6850    2.8264   -8.9319 N   0  3  0  0  0  0  0  0  0  0  0  0
   -9.5046   -2.7945   -6.9362 N   0  3  0  0  0  0  0  0  0  0  0  0
   -9.3366    0.1208   -4.9246 O   0  0  0  0  0  0  0  0  0  0  0  0
   -8.1355   -0.8110   -8.2533 O   0  0  0  0  0  0  0  0  0  0  0  0
  1  2  1  0  0  0  0
  1 22  1  1  0  0  0
  1 10  1  0  0  0  0
  2  3  1  0  0  0  0
  2  7  1  1  0  0  0
  3  4  1  0  0  0  0
  3  8  1  6  0  0  0
  4  5  1  0  0  0  0
  4  9  1  1  0  0  0
  5  6  1  6  0  0  0
  5 10  1  0  0  0  0
  6 11  1  0  0  0  0
 12 13  1  0  0  0  0
 12 17  1  0  0  0  0
 12 18  1  6  0  0  0
 13 14  1  0  0  0  0
 14 15  1  0  0  0  0
 14 19  1  6  0  0  0
 15 16  1  0  0  0  0
 15 21  1  1  0  0  0
 16 17  1  0  0  0  0
 16 20  1  6  0  0  0
 17 22  1  1  0  0  0
 23 21  1  1  0  0  0
 23 24  1  0  0  0  0
 23 32  1  0  0  0  0
 24 25  1  0  0  0  0
 24 29  1  1  0  0  0
 25 26  1  0  0  0  0
 26 27  1  0  0  0  0
 26 31  1  1  0  0  0
 27 28  1  1  0  0  0
 27 32  1  0  0  0  0
 28 30  1  0  0  0  0
M  CHG  5   8   1  18   1  19   1  29   1  30   1
M  END
>  <CHROM.1>
-141.53361872,-76.32617026,-52.17399206,-62.99947142,53.55666793,56.21584243
-58.98024889,-110.09498256,-103.62191311,-179.53944123,143.34087547,-141.64491163
-132.44540292,-58.49085730,65.27545230,169.89436442,-5.18180856,2.07315849
-9.93843962,-0.61419915,-0.65535847,3.12096931

>  <Name>
2tob cryst

>  <RI>
2.10184e+07

>  <Rbt.Current_Directory>
/home/itssahil/PROJECTS/Mol_Feturizer/New_Systems/rnas/2tob

>  <Rbt.Executable>
rbdock ($Id: //depot/dev/client3/rdock/2013.1/src/exe/rbdock.cxx#4 $)

>  <Rbt.Library>
libRbt.so (2013.1, Build901 2013/11/27)

>  <Rbt.Parameter_File>
/export/apps/rDock/src/rDock_2013.1_src/data/scripts/dock_solv.prm

>  <Rbt.Receptor>
prm/pocket_docking_7.prm

>  <SCORE>
-47.1999

>  <SCORE.INTER>
-31.4268

>  <SCORE.INTER.CONST>
1

>  <SCORE.INTER.POLAR>
-3.26297

>  <SCORE.INTER.ROT>
6

>  <SCORE.INTER.SOLV>
32.6489

>  <SCORE.INTER.VDW>
-28.5576

>  <SCORE.INTER.norm>
-0.982088

>  <SCORE.INTRA>
-16.7433

>  <SCORE.INTRA.DIHEDRAL>
11.3181

>  <SCORE.INTRA.DIHEDRAL.0>
18.4221

>  <SCORE.INTRA.POLAR>
-0.987574

>  <SCORE.INTRA.POLAR.0>
-1.57101

>  <SCORE.INTRA.REPUL>
-0.730195

>  <SCORE.INTRA.REPUL.0>
0.730195

>  <SCORE.INTRA.SOLV>
-2.11124

>  <SCORE.INTRA.SOLV.lig_0>
-127.221

>  <SCORE.INTRA.VDW>
-14.338

>  <SCORE.INTRA.VDW.0>
10.8385

>  <SCORE.INTRA.norm>
-0.523228

>  <SCORE.RESTR>
0.970243

>  <SCORE.RESTR.CAVITY>
0.970243

>  <SCORE.RESTR.norm>
0.0303201

>  <SCORE.SYSTEM>
0

>  <SCORE.SYSTEM.CONST>
0

>  <SCORE.SYSTEM.DIHEDRAL>
0

>  <SCORE.SYSTEM.SOLV>
0

>  <SCORE.SYSTEM.norm>
0

>  <SCORE.heavy>
32

>  <SCORE.norm>
-1.475

>  <RMSD>
7.856

$$$$
2tob cryst
 OpenBabel11021811463D
libRbt.so/2013.1/901 2013/11/27
 32 34  0  0  0  0  0  0  0  0999 V2000
  -12.7196   -7.3124   -7.6842 C   0  0  2  0  0  0  0  0  0  0  0  0
  -11.5460   -7.7069   -8.5754 C   0  0  1  0  0  0  0  0  0  0  0  0
  -11.9770   -8.8615   -9.4803 C   0  0  2  0  0  0  0  0  0  0  0  0
  -12.5219  -10.0318   -8.6509 C   0  0  1  0  0  0  0  0  0  0  0  0
  -13.6070   -9.5326   -7.6905 C   0  0  1  0  0  0  0  0  0  0  0  0
  -14.1147  -10.5843   -6.7177 C   0  0  0  0  0  0  0  0  0  0  0  0
  -11.1419   -6.5950   -9.3698 O   0  0  0  0  0  0  0  0  0  0  0  0
  -10.9585   -9.4147  -10.4282 N   0  3  0  0  0  0  0  0  0  0  0  0
  -13.0657  -11.0080   -9.5304 O   0  0  0  0  0  0  0  0  0  0  0  0
  -13.1018   -8.4322   -6.9081 O   0  0  0  0  0  0  0  0  0  0  0  0
  -14.8941  -11.5658   -7.3936 O   0  0  0  0  0  0  0  0  0  0  0  0
  -14.8786   -5.4434   -6.9061 C   0  0  2  0  0  0  0  0  0  0  0  0
  -15.1679   -4.0082   -6.4458 C   0  0  0  0  0  0  0  0  0  0  0  0
  -13.9649   -3.0882   -6.6346 C   0  0  1  0  0  0  0  0  0  0  0  0
  -13.5608   -3.1194   -8.1022 C   0  0  2  0  0  0  0  0  0  0  0  0
  -13.1057   -4.5323   -8.4758 C   0  0  1  0  0  0  0  0  0  0  0  0
  -14.2631   -5.5331   -8.3114 C   0  0  1  0  0  0  0  0  0  0  0  0
  -16.1299   -6.2730   -6.8682 N   0  3  0  0  0  0  0  0  0  0  0  0
  -14.2779   -1.6933   -6.1825 N   0  3  0  0  0  0  0  0  0  0  0  0
  -12.6374   -4.5369   -9.8184 O   0  0  0  0  0  0  0  0  0  0  0  0
  -12.5010   -2.1786   -8.3534 O   0  0  0  0  0  0  0  0  0  0  0  0
  -13.7752   -6.8781   -8.4983 O   0  0  0  0  0  0  0  0  0  0  0  0
  -11.6455   -1.9974   -7.2589 C   0  0  2  0  0  0  0  0  0  0  0  0
  -10.4201   -1.1815   -7.6839 C   0  0  1  0  0  0  0  0  0  0  0  0
   -9.4597   -2.0284   -8.5194 C   0  0  0  0  0  0  0  0  0  0  0  0
   -9.1322   -3.3015   -7.7560 C   0  0  1  0  0  0  0  0  0  0  0  0
  -10.4189   -4.0537   -7.4638 C   0  0  1  0  0  0  0  0  0  0  0  0
  -10.1561   -5.3420   -6.7054 C   0  0  0  0  0  0  0  0  0  0  0  0
  -10.8633    0.0018   -8.4882 N   0  3  0  0  0  0  0  0  0  0  0  0
   -9.7103   -4.9808   -5.3148 N   0  3  0  0  0  0  0  0  0  0  0  0
   -8.2531   -4.1200   -8.5146 O   0  0  0  0  0  0  0  0  0  0  0  0
  -11.2761   -3.2318   -6.6535 O   0  0  0  0  0  0  0  0  0  0  0  0
  1  2  1  0  0  0  0
  1 22  1  6  0  0  0
  1 10  1  0  0  0  0
  2  3  1  0  0  0  0
  2  7  1  6  0  0  0
  3  4  1  0  0  0  0
  3  8  1  1  0  0  0
  4  5  1  0  0  0  0
  4  9  1  6  0  0  0
  5  6  1  1  0  0  0
  5 10  1  0  0  0  0
  6 11  1  0  0  0  0
 12 13  1  0  0  0  0
 12 17  1  0  0  0  0
 12 18  1  6  0  0  0
 13 14  1  0  0  0  0
 14 15  1  0  0  0  0
 14 19  1  6  0  0  0
 15 16  1  0  0  0  0
 15 21  1  1  0  0  0
 16 17  1  0  0  0  0
 16 20  1  6  0  0  0
 17 22  1  1  0  0  0
 23 21  1  6  0  0  0
 23 24  1  0  0  0  0
 23 32  1  0  0  0  0
 24 25  1  0  0  0  0
 24 29  1  6  0  0  0
 25 26  1  0  0  0  0
 26 27  1  0  0  0  0
 26 31  1  6  0  0  0
 27 28  1  1  0  0  0
 27 32  1  0  0  0  0
 28 30  1  0  0  0  0
M  CHG  5   8   1  18   1  19   1  29   1  30   1
M  END
>  <CHROM.1>
-120.66841331,175.20352650,36.22368726,-172.91424401,-70.72060946,-174.09278140
-175.28435922,173.55601387,31.45102520,-66.12391936,-64.97438227,170.14375834
-53.43787784,59.19766861,69.70288009,137.12346856,-12.34558293,-5.60562685
-7.87119684,-1.86336625,0.29467566,0.16900770

>  <Name>
2tob cryst

>  <RI>
3.35201e+07

>  <Rbt.Current_Directory>
/home/itssahil/PROJECTS/Mol_Feturizer/New_Systems/rnas/2tob

>  <Rbt.Executable>
rbdock ($Id: //depot/dev/client3/rdock/2013.1/src/exe/rbdock.cxx#4 $)

>  <Rbt.Library>
libRbt.so (2013.1, Build901 2013/11/27)

>  <Rbt.Parameter_File>
/export/apps/rDock/src/rDock_2013.1_src/data/scripts/dock_solv.prm

>  <Rbt.Receptor>
prm/pocket_docking_4.prm

>  <SCORE>
-37.5687

>  <SCORE.INTER>
-23.7512

>  <SCORE.INTER.CONST>
1

>  <SCORE.INTER.POLAR>
-4.07753

>  <SCORE.INTER.ROT>
6

>  <SCORE.INTER.SOLV>
19.8291

>  <SCORE.INTER.VDW>
-16.452

>  <SCORE.INTER.norm>
-0.742224

>  <SCORE.INTRA>
-13.8185

>  <SCORE.INTRA.DIHEDRAL>
-1.26913

>  <SCORE.INTRA.DIHEDRAL.0>
18.4221

>  <SCORE.INTRA.POLAR>
0.549392

>  <SCORE.INTRA.POLAR.0>
-1.57101

>  <SCORE.INTRA.REPUL>
-0.724955

>  <SCORE.INTRA.REPUL.0>
0.730195

>  <SCORE.INTRA.SOLV>
-4.36879

>  <SCORE.INTRA.SOLV.lig_0>
-127.221

>  <SCORE.INTRA.VDW>
-9.2427

>  <SCORE.INTRA.VDW.0>
10.8385

>  <SCORE.INTRA.norm>
-0.431828

>  <SCORE.RESTR>
0.000913324

>  <SCORE.RESTR.CAVITY>
0.000913324

>  <SCORE.RESTR.norm>
2.85414e-05

>  <SCORE.SYSTEM>
0

>  <SCORE.SYSTEM.CONST>
0

>  <SCORE.SYSTEM.DIHEDRAL>
0

>  <SCORE.SYSTEM.SOLV>
0

>  <SCORE.SYSTEM.norm>
0

>  <SCORE.heavy>
32

>  <SCORE.norm>
-1.17402

>  <RMSD>
7.858

$$$$
2tob cryst
 OpenBabel11021811463D
libRbt.so/2013.1/901 2013/11/27
 32 34  0  0  0  0  0  0  0  0999 V2000
  -12.0889   -5.0281   -8.0011 C   0  0  2  0  0  0  0  0  0  0  0  0
  -12.8987   -5.9882   -8.8668 C   0  0  1  0  0  0  0  0  0  0  0  0
  -14.2558   -6.2283   -8.2047 C   0  0  2  0  0  0  0  0  0  0  0  0
  -14.0803   -6.7216   -6.7623 C   0  0  1  0  0  0  0  0  0  0  0  0
  -13.1524   -5.7743   -5.9939 C   0  0  1  0  0  0  0  0  0  0  0  0
  -12.7933   -6.2474   -4.5948 C   0  0  0  0  0  0  0  0  0  0  0  0
  -13.0861   -5.4332  -10.1659 O   0  0  0  0  0  0  0  0  0  0  0  0
  -15.2042   -7.1625   -8.8899 N   0  3  0  0  0  0  0  0  0  0  0  0
  -15.3541   -6.7687   -6.1317 O   0  0  0  0  0  0  0  0  0  0  0  0
  -11.9183   -5.6011   -6.7185 O   0  0  0  0  0  0  0  0  0  0  0  0
  -12.0590   -5.2481   -3.8948 O   0  0  0  0  0  0  0  0  0  0  0  0
  -12.4210   -2.6247   -5.8517 C   0  0  2  0  0  0  0  0  0  0  0  0
  -11.5298   -1.6682   -5.0479 C   0  0  0  0  0  0  0  0  0  0  0  0
  -10.0455   -1.8971   -5.3195 C   0  0  1  0  0  0  0  0  0  0  0  0
   -9.8006   -1.7441   -6.8144 C   0  0  2  0  0  0  0  0  0  0  0  0
  -10.5663   -2.8328   -7.5705 C   0  0  1  0  0  0  0  0  0  0  0  0
  -12.0815   -2.6793   -7.3496 C   0  0  1  0  0  0  0  0  0  0  0  0
  -13.8685   -2.2574   -5.6932 N   0  3  0  0  0  0  0  0  0  0  0  0
   -9.2003   -0.9461   -4.5263 N   0  3  0  0  0  0  0  0  0  0  0  0
  -10.2595   -2.7486   -8.9564 O   0  0  0  0  0  0  0  0  0  0  0  0
   -8.3946   -1.8379   -7.1072 O   0  0  0  0  0  0  0  0  0  0  0  0
  -12.7747   -3.8078   -7.9220 O   0  0  0  0  0  0  0  0  0  0  0  0
   -8.0958   -1.6703   -8.4656 C   0  0  2  0  0  0  0  0  0  0  0  0
   -6.5996   -1.3889   -8.6398 C   0  0  1  0  0  0  0  0  0  0  0  0
   -6.2552    0.0364   -8.2067 C   0  0  0  0  0  0  0  0  0  0  0  0
   -7.1662    1.0087   -8.9386 C   0  0  1  0  0  0  0  0  0  0  0  0
   -8.6130    0.6712   -8.6234 C   0  0  1  0  0  0  0  0  0  0  0  0
   -9.5747    1.6143   -9.3233 C   0  0  0  0  0  0  0  0  0  0  0  0
   -5.8103   -2.3600   -7.8168 N   0  3  0  0  0  0  0  0  0  0  0  0
  -10.9716    1.1000   -9.1062 N   0  3  0  0  0  0  0  0  0  0  0  0
   -6.8822    2.3436   -8.5446 O   0  0  0  0  0  0  0  0  0  0  0  0
   -8.8984   -0.6640   -9.0737 O   0  0  0  0  0  0  0  0  0  0  0  0
  1  2  1  0  0  0  0
  1 22  1  1  0  0  0
  1 10  1  0  0  0  0
  2  3  1  0  0  0  0
  2  7  1  6  0  0  0
  3  4  1  0  0  0  0
  3  8  1  6  0  0  0
  4  5  1  0  0  0  0
  4  9  1  1  0  0  0
  5  6  1  1  0  0  0
  5 10  1  0  0  0  0
  6 11  1  0  0  0  0
 12 13  1  0  0  0  0
 12 17  1  0  0  0  0
 12 18  1  6  0  0  0
 13 14  1  0  0  0  0
 14 15  1  0  0  0  0
 14 19  1  1  0  0  0
 15 16  1  0  0  0  0
 15 21  1  1  0  0  0
 16 17  1  0  0  0  0
 16 20  1  6  0  0  0
 17 22  1  1  0  0  0
 23 21  1  1  0  0  0
 23 24  1  0  0  0  0
 23 32  1  0  0  0  0
 24 25  1  0  0  0  0
 24 29  1  1  0  0  0
 25 26  1  0  0  0  0
 26 27  1  0  0  0  0
 26 31  1  1  0  0  0
 27 28  1  6  0  0  0
 27 32  1  0  0  0  0
 28 30  1  0  0  0  0
M  CHG  5   8   1  18   1  19   1  29   1  30   1
M  END
>  <CHROM.1>
-169.30376792,-70.30053715,63.82121978,-63.20975156,-173.35560039,63.30189084
-179.00291385,-178.76542529,-178.42977790,93.66917288,-93.38921306,164.08005888
31.46799835,-53.25302473,172.58746291,79.14825841,-10.86072127,-2.83018729
-7.40507290,2.96571505,0.78587788,1.61205881

>  <Name>
2tob cryst

>  <RI>
3.35201e+07

>  <Rbt.Current_Directory>
/home/itssahil/PROJECTS/Mol_Feturizer/New_Systems/rnas/2tob

>  <Rbt.Executable>
rbdock ($Id: //depot/dev/client3/rdock/2013.1/src/exe/rbdock.cxx#4 $)

>  <Rbt.Library>
libRbt.so (2013.1, Build901 2013/11/27)

>  <Rbt.Parameter_File>
/export/apps/rDock/src/rDock_2013.1_src/data/scripts/dock_solv.prm

>  <Rbt.Receptor>
prm/pocket_docking_4.prm

>  <SCORE>
-44.652

>  <SCORE.INTER>
-30.4467

>  <SCORE.INTER.CONST>
1

>  <SCORE.INTER.POLAR>
-4.52441

>  <SCORE.INTER.ROT>
6

>  <SCORE.INTER.SOLV>
33.046

>  <SCORE.INTER.VDW>
-23.8318

>  <SCORE.INTER.norm>
-0.951459

>  <SCORE.INTRA>
-14.3389

>  <SCORE.INTRA.DIHEDRAL>
-4.24286

>  <SCORE.INTRA.DIHEDRAL.0>
18.4221

>  <SCORE.INTRA.POLAR>
1.3922

>  <SCORE.INTRA.POLAR.0>
-1.57101

>  <SCORE.INTRA.REPUL>
-0.730195

>  <SCORE.INTRA.REPUL.0>
0.730195

>  <SCORE.INTRA.SOLV>
-8.08097

>  <SCORE.INTRA.SOLV.lig_0>
-127.221

>  <SCORE.INTRA.VDW>
-9.25948

>  <SCORE.INTRA.VDW.0>
10.8385

>  <SCORE.INTRA.norm>
-0.448091

>  <SCORE.RESTR>
0.133612

>  <SCORE.RESTR.CAVITY>
0.133612

>  <SCORE.RESTR.norm>
0.00417538

>  <SCORE.SYSTEM>
0

>  <SCORE.SYSTEM.CONST>
0

>  <SCORE.SYSTEM.DIHEDRAL>
0

>  <SCORE.SYSTEM.SOLV>
0

>  <SCORE.SYSTEM.norm>
0

>  <SCORE.heavy>
32

>  <SCORE.norm>
-1.39537

>  <RMSD>
7.859

$$$$
2tob cryst
 OpenBabel11021811463D
libRbt.so/2013.1/901 2013/11/27
 32 34  0  0  0  0  0  0  0  0999 V2000
  -13.1144   -4.8096   -7.9264 C   0  0  2  0  0  0  0  0  0  0  0  0
  -14.5240   -5.3089   -8.2273 C   0  0  1  0  0  0  0  0  0  0  0  0
  -14.9322   -6.3181   -7.1537 C   0  0  2  0  0  0  0  0  0  0  0  0
  -13.9027   -7.4511   -7.0491 C   0  0  1  0  0  0  0  0  0  0  0  0
  -12.4965   -6.8668   -6.8760 C   0  0  1  0  0  0  0  0  0  0  0  0
  -11.3810   -7.8988   -6.9071 C   0  0  0  0  0  0  0  0  0  0  0  0
  -15.4373   -4.2150   -8.2347 O   0  0  0  0  0  0  0  0  0  0  0  0
  -16.2858   -6.9468   -7.2740 N   0  3  0  0  0  0  0  0  0  0  0  0
  -14.2277   -8.2694   -5.9324 O   0  0  0  0  0  0  0  0  0  0  0  0
  -12.2287   -5.9133   -7.9235 O   0  0  0  0  0  0  0  0  0  0  0  0
  -11.5354   -8.7787   -8.0161 O   0  0  0  0  0  0  0  0  0  0  0  0
  -12.3748   -2.5557   -5.0500 C   0  0  2  0  0  0  0  0  0  0  0  0
  -11.3195   -1.5140   -4.6547 C   0  0  0  0  0  0  0  0  0  0  0  0
   -9.9133   -1.9266   -5.0810 C   0  0  1  0  0  0  0  0  0  0  0  0
   -9.9150   -2.1573   -6.5859 C   0  0  2  0  0  0  0  0  0  0  0  0
  -10.8447   -3.3261   -6.9216 C   0  0  1  0  0  0  0  0  0  0  0  0
  -12.2931   -2.9959   -6.5202 C   0  0  1  0  0  0  0  0  0  0  0  0
  -13.7573   -2.0394   -4.7719 N   0  3  0  0  0  0  0  0  0  0  0  0
   -8.9052   -0.8889   -4.6874 N   0  3  0  0  0  0  0  0  0  0  0  0
  -10.7702   -3.6024   -8.3145 O   0  0  0  0  0  0  0  0  0  0  0  0
   -8.5833   -2.4376   -7.0545 O   0  0  0  0  0  0  0  0  0  0  0  0
  -13.1226   -4.1654   -6.6812 O   0  0  0  0  0  0  0  0  0  0  0  0
   -8.4206   -2.2270   -8.4299 C   0  0  2  0  0  0  0  0  0  0  0  0
   -6.9316   -2.0880   -8.7639 C   0  0  1  0  0  0  0  0  0  0  0  0
   -6.3924   -0.7302   -8.3130 C   0  0  0  0  0  0  0  0  0  0  0  0
   -7.2707    0.3670   -8.8923 C   0  0  1  0  0  0  0  0  0  0  0  0
   -8.7014    0.1597   -8.4266 C   0  0  1  0  0  0  0  0  0  0  0  0
   -9.6293    1.2312   -8.9695 C   0  0  0  0  0  0  0  0  0  0  0  0
   -6.1633   -3.1768   -8.0800 N   0  3  0  0  0  0  0  0  0  0  0  0
  -11.0456    0.7642   -8.7716 N   0  3  0  0  0  0  0  0  0  0  0  0
   -6.8053    1.6433   -8.4770 O   0  0  0  0  0  0  0  0  0  0  0  0
   -9.1745   -1.1136   -8.8975 O   0  0  0  0  0  0  0  0  0  0  0  0
  1  2  1  0  0  0  0
  1 22  1  1  0  0  0
  1 10  1  0  0  0  0
  2  3  1  0  0  0  0
  2  7  1  1  0  0  0
  3  4  1  0  0  0  0
  3  8  1  6  0  0  0
  4  5  1  0  0  0  0
  4  9  1  1  0  0  0
  5  6  1  6  0  0  0
  5 10  1  0  0  0  0
  6 11  1  0  0  0  0
 12 13  1  0  0  0  0
 12 17  1  0  0  0  0
 12 18  1  6  0  0  0
 13 14  1  0  0  0  0
 14 15  1  0  0  0  0
 14 19  1  6  0  0  0
 15 16  1  0  0  0  0
 15 21  1  1  0  0  0
 16 17  1  0  0  0  0
 16 20  1  6  0  0  0
 17 22  1  1  0  0  0
 23 21  1  1  0  0  0
 23 24  1  0  0  0  0
 23 32  1  0  0  0  0
 24 25  1  0  0  0  0
 24 29  1  1  0  0  0
 25 26  1  0  0  0  0
 26 27  1  0  0  0  0
 26 31  1  1  0  0  0
 27 28  1  6  0  0  0
 27 32  1  0  0  0  0
 28 30  1  0  0  0  0
M  CHG  5   8   1  18   1  19   1  29   1  30   1
M  END
>  <CHROM.1>
-143.01429689,-57.97595423,-55.23823028,177.42649066,47.99889791,-172.33124795
-57.01112094,-172.13100330,-160.13500856,77.78611402,-174.86042850,161.25870231
-169.36799906,63.57365277,165.43415824,-39.88553101,-11.03283145,-3.31712375
-7.30825704,2.36585310,-0.27980440,-3.01421573

>  <Name>
2tob cryst

>  <RI>
0

>  <Rbt.Current_Directory>
/home/itssahil/PROJECTS/Mol_Feturizer/New_Systems/rnas/2tob

>  <Rbt.Executable>
rbdock ($Id: //depot/dev/client3/rdock/2013.1/src/exe/rbdock.cxx#4 $)

>  <Rbt.Library>
libRbt.so (2013.1, Build901 2013/11/27)

>  <Rbt.Parameter_File>
/export/apps/rDock/src/rDock_2013.1_src/data/scripts/dock_solv.prm

>  <Rbt.Receptor>
prm/pocket_docking_6.prm

>  <SCORE>
-53.4224

>  <SCORE.INTER>
-33.9391

>  <SCORE.INTER.CONST>
1

>  <SCORE.INTER.POLAR>
-5.27513

>  <SCORE.INTER.ROT>
6

>  <SCORE.INTER.SOLV>
31.5487

>  <SCORE.INTER.VDW>
-23.1585

>  <SCORE.INTER.norm>
-1.0606

>  <SCORE.INTRA>
-19.4833

>  <SCORE.INTRA.DIHEDRAL>
-5.3507

>  <SCORE.INTRA.DIHEDRAL.0>
18.4221

>  <SCORE.INTRA.POLAR>
1.23099

>  <SCORE.INTRA.POLAR.0>
-1.57101

>  <SCORE.INTRA.REPUL>
-0.730195

>  <SCORE.INTRA.REPUL.0>
0.730195

>  <SCORE.INTRA.SOLV>
-8.85371

>  <SCORE.INTRA.SOLV.lig_0>
-127.221

>  <SCORE.INTRA.VDW>
-12.9155

>  <SCORE.INTRA.VDW.0>
10.8385

>  <SCORE.INTRA.norm>
-0.608853

>  <SCORE.RESTR>
0

>  <SCORE.RESTR.CAVITY>
0

>  <SCORE.RESTR.norm>
0

>  <SCORE.SYSTEM>
0

>  <SCORE.SYSTEM.CONST>
0

>  <SCORE.SYSTEM.DIHEDRAL>
0

>  <SCORE.SYSTEM.SOLV>
0

>  <SCORE.SYSTEM.norm>
0

>  <SCORE.heavy>
32

>  <SCORE.norm>
-1.66945

>  <RMSD>
7.864

$$$$
2tob cryst
 OpenBabel11021811463D
libRbt.so/2013.1/901 2013/11/27
 32 34  0  0  0  0  0  0  0  0999 V2000
  -11.0268   -1.1900   -9.0405 C   0  0  2  0  0  0  0  0  0  0  0  0
  -12.3724   -0.5031   -9.2517 C   0  0  1  0  0  0  0  0  0  0  0  0
  -13.4215   -1.1875   -8.3750 C   0  0  2  0  0  0  0  0  0  0  0  0
  -13.4664   -2.6958   -8.6533 C   0  0  1  0  0  0  0  0  0  0  0  0
  -12.0578   -3.2902   -8.5470 C   0  0  1  0  0  0  0  0  0  0  0  0
  -11.9636   -4.7537   -8.9463 C   0  0  0  0  0  0  0  0  0  0  0  0
  -12.2759    0.8754   -8.9033 O   0  0  0  0  0  0  0  0  0  0  0  0
  -14.8256   -0.6725   -8.4468 N   0  3  0  0  0  0  0  0  0  0  0  0
  -14.3261   -3.3154   -7.7050 O   0  0  0  0  0  0  0  0  0  0  0  0
  -11.1497   -2.5553   -9.3917 O   0  0  0  0  0  0  0  0  0  0  0  0
  -12.6114   -4.9814  -10.1938 O   0  0  0  0  0  0  0  0  0  0  0  0
   -9.1478   -2.9238   -7.5898 C   0  0  2  0  0  0  0  0  0  0  0  0
   -7.6932   -3.4091   -7.5281 C   0  0  0  0  0  0  0  0  0  0  0  0
   -6.7600   -2.5436   -8.3703 C   0  0  1  0  0  0  0  0  0  0  0  0
   -6.8752   -1.1034   -7.8900 C   0  0  2  0  0  0  0  0  0  0  0  0
   -8.2984   -0.5963   -8.1362 C   0  0  1  0  0  0  0  0  0  0  0  0
   -9.3127   -1.4193   -7.3227 C   0  0  1  0  0  0  0  0  0  0  0  0
  -10.0015   -3.6876   -6.6187 N   0  3  0  0  0  0  0  0  0  0  0  0
   -5.3466   -3.0370   -8.2866 N   0  3  0  0  0  0  0  0  0  0  0  0
   -8.3778    0.7774   -7.7773 O   0  0  0  0  0  0  0  0  0  0  0  0
   -5.9285   -0.2653   -8.5777 O   0  0  0  0  0  0  0  0  0  0  0  0
  -10.6554   -1.0459   -7.6963 O   0  0  0  0  0  0  0  0  0  0  0  0
   -6.2003   -0.1227   -9.9446 C   0  0  2  0  0  0  0  0  0  0  0  0
   -4.8883   -0.0146  -10.7289 C   0  0  1  0  0  0  0  0  0  0  0  0
   -4.2436    1.3579  -10.5336 C   0  0  0  0  0  0  0  0  0  0  0  0
   -5.2640    2.4346  -10.8658 C   0  0  1  0  0  0  0  0  0  0  0  0
   -6.4793    2.2640   -9.9711 C   0  0  1  0  0  0  0  0  0  0  0  0
   -7.5356    3.3174  -10.2522 C   0  0  0  0  0  0  0  0  0  0  0  0
   -3.9402   -1.0769  -10.2637 N   0  3  0  0  0  0  0  0  0  0  0  0
   -8.8683    2.7653   -9.8256 N   0  3  0  0  0  0  0  0  0  0  0  0
   -4.6999    3.7247  -10.6776 O   0  0  0  0  0  0  0  0  0  0  0  0
   -7.0680    0.9743  -10.2099 O   0  0  0  0  0  0  0  0  0  0  0  0
  1  2  1  0  0  0  0
  1 22  1  1  0  0  0
  1 10  1  0  0  0  0
  2  3  1  0  0  0  0
  2  7  1  1  0  0  0
  3  4  1  0  0  0  0
  3  8  1  6  0  0  0
  4  5  1  0  0  0  0
  4  9  1  1  0  0  0
  5  6  1  6  0  0  0
  5 10  1  0  0  0  0
  6 11  1  0  0  0  0
 12 13  1  0  0  0  0
 12 17  1  0  0  0  0
 12 18  1  1  0  0  0
 13 14  1  0  0  0  0
 14 15  1  0  0  0  0
 14 19  1  1  0  0  0
 15 16  1  0  0  0  0
 15 21  1  6  0  0  0
 16 17  1  0  0  0  0
 16 20  1  1  0  0  0
 17 22  1  6  0  0  0
 23 21  1  1  0  0  0
 23 24  1  0  0  0  0
 23 32  1  0  0  0  0
 24 25  1  0  0  0  0
 24 29  1  1  0  0  0
 25 26  1  0  0  0  0
 26 27  1  0  0  0  0
 26 31  1  1  0  0  0
 27 28  1  6  0  0  0
 27 32  1  0  0  0  0
 28 30  1  0  0  0  0
M  CHG  5   8   1  18   1  19   1  29   1  30   1
M  END
>  <CHROM.1>
-169.58954496,-58.25916629,-142.81872578,64.96831556,48.55366430,-175.81040555
-74.14588242,21.24794364,66.96999894,-165.89304363,-62.88254660,-145.78053741
-34.24232029,-57.42232519,155.31645331,167.89072088,-9.00618813,-0.87121011
-8.94408051,2.63232900,-0.06243231,2.87770140

>  <Name>
2tob cryst

>  <RI>
0

>  <Rbt.Current_Directory>
/home/itssahil/PROJECTS/Mol_Feturizer/New_Systems/rnas/2tob

>  <Rbt.Executable>
rbdock ($Id: //depot/dev/client3/rdock/2013.1/src/exe/rbdock.cxx#4 $)

>  <Rbt.Library>
libRbt.so (2013.1, Build901 2013/11/27)

>  <Rbt.Parameter_File>
/export/apps/rDock/src/rDock_2013.1_src/data/scripts/dock_solv.prm

>  <Rbt.Receptor>
prm/blind_docking_100.prm

>  <SCORE>
-23.8755

>  <SCORE.INTER>
-14.215

>  <SCORE.INTER.CONST>
1

>  <SCORE.INTER.POLAR>
-5.84454

>  <SCORE.INTER.ROT>
6

>  <SCORE.INTER.SOLV>
50.2569

>  <SCORE.INTER.VDW>
-14.3472

>  <SCORE.INTER.norm>
-0.44422

>  <SCORE.INTRA>
-11.8877

>  <SCORE.INTRA.DIHEDRAL>
-2.36244

>  <SCORE.INTRA.DIHEDRAL.0>
18.4221

>  <SCORE.INTRA.POLAR>
0.507727

>  <SCORE.INTRA.POLAR.0>
-1.57101

>  <SCORE.INTRA.REPUL>
-0.730195

>  <SCORE.INTRA.REPUL.0>
0.730195

>  <SCORE.INTRA.SOLV>
3.55049

>  <SCORE.INTRA.SOLV.lig_0>
-127.221

>  <SCORE.INTRA.VDW>
-10.5571

>  <SCORE.INTRA.VDW.0>
10.8385

>  <SCORE.INTRA.norm>
-0.371492

>  <SCORE.RESTR>
2.22729

>  <SCORE.RESTR.CAVITY>
2.22729

>  <SCORE.RESTR.norm>
0.0696029

>  <SCORE.SYSTEM>
0

>  <SCORE.SYSTEM.CONST>
0

>  <SCORE.SYSTEM.DIHEDRAL>
0

>  <SCORE.SYSTEM.SOLV>
0

>  <SCORE.SYSTEM.norm>
0

>  <SCORE.heavy>
32

>  <SCORE.norm>
-0.746109

>  <RMSD>
7.871

$$$$
2tob cryst
 OpenBabel11021811463D
libRbt.so/2013.1/901 2013/11/27
 32 34  0  0  0  0  0  0  0  0999 V2000
  -12.5519   -1.5526   -8.6906 C   0  0  2  0  0  0  0  0  0  0  0  0
  -14.0572   -1.4866   -8.9290 C   0  0  1  0  0  0  0  0  0  0  0  0
  -14.7405   -2.5631   -8.0852 C   0  0  2  0  0  0  0  0  0  0  0  0
  -14.1454   -3.9467   -8.3784 C   0  0  1  0  0  0  0  0  0  0  0  0
  -12.6196   -3.9003   -8.2425 C   0  0  1  0  0  0  0  0  0  0  0  0
  -11.9147   -5.1829   -8.6529 C   0  0  0  0  0  0  0  0  0  0  0  0
  -14.5523   -0.2007   -8.5655 O   0  0  0  0  0  0  0  0  0  0  0  0
  -16.2296   -2.6804   -8.1872 N   0  3  0  0  0  0  0  0  0  0  0  0
  -14.6851   -4.8866   -7.4577 O   0  0  0  0  0  0  0  0  0  0  0  0
  -12.0862   -2.8375   -9.0575 O   0  0  0  0  0  0  0  0  0  0  0  0
  -10.5738   -5.1998   -8.1739 O   0  0  0  0  0  0  0  0  0  0  0  0
  -10.4309   -2.5194   -6.4363 C   0  0  2  0  0  0  0  0  0  0  0  0
   -8.9102   -2.5984   -6.2458 C   0  0  0  0  0  0  0  0  0  0  0  0
   -8.1486   -2.0799   -7.4626 C   0  0  1  0  0  0  0  0  0  0  0  0
   -8.5908   -0.6483   -7.7329 C   0  0  2  0  0  0  0  0  0  0  0  0
  -10.0776   -0.6340   -8.0969 C   0  0  1  0  0  0  0  0  0  0  0  0
  -10.9261   -1.1474   -6.9203 C   0  0  1  0  0  0  0  0  0  0  0  0
  -11.1423   -2.8724   -5.1616 N   0  3  0  0  0  0  0  0  0  0  0  0
   -6.6673   -2.1636   -7.2463 N   0  3  0  0  0  0  0  0  0  0  0  0
  -10.4652    0.6895   -8.4433 O   0  0  0  0  0  0  0  0  0  0  0  0
   -7.8169   -0.0750   -8.8024 O   0  0  0  0  0  0  0  0  0  0  0  0
  -12.3001   -1.2918   -7.3363 O   0  0  0  0  0  0  0  0  0  0  0  0
   -6.6839    0.6201   -8.3600 C   0  0  2  0  0  0  0  0  0  0  0  0
   -6.7425    2.0737   -8.8411 C   0  0  1  0  0  0  0  0  0  0  0  0
   -6.4355    2.1699  -10.3358 C   0  0  0  0  0  0  0  0  0  0  0  0
   -5.1156    1.4692  -10.6149 C   0  0  1  0  0  0  0  0  0  0  0  0
   -5.2133    0.0221  -10.1642 C   0  0  1  0  0  0  0  0  0  0  0  0
   -3.9232   -0.7347  -10.4227 C   0  0  0  0  0  0  0  0  0  0  0  0
   -8.1083    2.6306   -8.5802 N   0  3  0  0  0  0  0  0  0  0  0  0
   -4.0932   -2.1358   -9.9022 N   0  3  0  0  0  0  0  0  0  0  0  0
   -4.8094    1.5263  -12.0009 O   0  0  0  0  0  0  0  0  0  0  0  0
   -5.4731   -0.0188   -8.7508 O   0  0  0  0  0  0  0  0  0  0  0  0
  1  2  1  0  0  0  0
  1 22  1  1  0  0  0
  1 10  1  0  0  0  0
  2  3  1  0  0  0  0
  2  7  1  1  0  0  0
  3  4  1  0  0  0  0
  3  8  1  6  0  0  0
  4  5  1  0  0  0  0
  4  9  1  1  0  0  0
  5  6  1  6  0  0  0
  5 10  1  0  0  0  0
  6 11  1  0  0  0  0
 12 13  1  0  0  0  0
 12 17  1  0  0  0  0
 12 18  1  1  0  0  0
 13 14  1  0  0  0  0
 14 15  1  0  0  0  0
 14 19  1  1  0  0  0
 15 16  1  0  0  0  0
 15 21  1  6  0  0  0
 16 17  1  0  0  0  0
 16 20  1  1  0  0  0
 17 22  1  6  0  0  0
 23 21  1  6  0  0  0
 23 24  1  0  0  0  0
 23 32  1  0  0  0  0
 24 25  1  0  0  0  0
 24 29  1  6  0  0  0
 25 26  1  0  0  0  0
 26 27  1  0  0  0  0
 26 31  1  6  0  0  0
 27 28  1  1  0  0  0
 27 32  1  0  0  0  0
 28 30  1  0  0  0  0
M  CHG  5   8   1  18   1  19   1  29   1  30   1
M  END
>  <CHROM.1>
-172.80042836,53.83885743,-58.15006245,-178.52550720,-164.45137950,-176.74272243
-54.36763124,75.49343211,-92.41192982,-97.25515869,-93.52950801,-121.84641587
-159.35431717,173.94688362,177.95432755,110.12885587,-9.70777811,-1.33493523
-8.44235970,2.69740522,-0.09079458,2.84876421

>  <Name>
2tob cryst

>  <RI>
0

>  <Rbt.Current_Directory>
/home/itssahil/PROJECTS/Mol_Feturizer/New_Systems/rnas/2tob

>  <Rbt.Executable>
rbdock ($Id: //depot/dev/client3/rdock/2013.1/src/exe/rbdock.cxx#4 $)

>  <Rbt.Library>
libRbt.so (2013.1, Build901 2013/11/27)

>  <Rbt.Parameter_File>
/export/apps/rDock/src/rDock_2013.1_src/data/scripts/dock_solv.prm

>  <Rbt.Receptor>
prm/blind_docking_40.prm

>  <SCORE>
-43.4373

>  <SCORE.INTER>
-37.3675

>  <SCORE.INTER.CONST>
1

>  <SCORE.INTER.POLAR>
-4.55913

>  <SCORE.INTER.ROT>
6

>  <SCORE.INTER.SOLV>
43.186

>  <SCORE.INTER.VDW>
-31.7099

>  <SCORE.INTER.norm>
-1.16773

>  <SCORE.INTRA>
-14.3165

>  <SCORE.INTRA.DIHEDRAL>
8.54267

>  <SCORE.INTRA.DIHEDRAL.0>
18.4221

>  <SCORE.INTRA.POLAR>
-0.717627

>  <SCORE.INTRA.POLAR.0>
-1.57101

>  <SCORE.INTRA.REPUL>
-0.434984

>  <SCORE.INTRA.REPUL.0>
0.730195

>  <SCORE.INTRA.SOLV>
-2.1968

>  <SCORE.INTRA.SOLV.lig_0>
-127.221

>  <SCORE.INTRA.VDW>
-12.8745

>  <SCORE.INTRA.VDW.0>
10.8385

>  <SCORE.INTRA.norm>
-0.447389

>  <SCORE.RESTR>
8.24663

>  <SCORE.RESTR.CAVITY>
8.24663

>  <SCORE.RESTR.norm>
0.257707

>  <SCORE.SYSTEM>
0

>  <SCORE.SYSTEM.CONST>
0

>  <SCORE.SYSTEM.DIHEDRAL>
0

>  <SCORE.SYSTEM.SOLV>
0

>  <SCORE.SYSTEM.norm>
0

>  <SCORE.heavy>
32

>  <SCORE.norm>
-1.35742

>  <RMSD>
7.892

$$$$
2tob cryst
 OpenBabel11021811463D
libRbt.so/2013.1/901 2013/11/27
 32 34  0  0  0  0  0  0  0  0999 V2000
  -14.3655   -6.0976   -7.1832 C   0  0  2  0  0  0  0  0  0  0  0  0
  -14.1865   -7.2646   -6.2172 C   0  0  1  0  0  0  0  0  0  0  0  0
  -12.6951   -7.5745   -6.0851 C   0  0  2  0  0  0  0  0  0  0  0  0
  -12.0664   -7.8312   -7.4611 C   0  0  1  0  0  0  0  0  0  0  0  0
  -12.3977   -6.6759   -8.4122 C   0  0  1  0  0  0  0  0  0  0  0  0
  -11.9458   -6.8960   -9.8465 C   0  0  0  0  0  0  0  0  0  0  0  0
  -14.7253   -6.9285   -4.9415 O   0  0  0  0  0  0  0  0  0  0  0  0
  -12.3007   -8.7076   -5.1893 N   0  3  0  0  0  0  0  0  0  0  0  0
  -10.6569   -7.9457   -7.3112 O   0  0  0  0  0  0  0  0  0  0  0  0
  -13.8221   -6.4559   -8.4397 O   0  0  0  0  0  0  0  0  0  0  0  0
  -12.5491   -8.0637  -10.3946 O   0  0  0  0  0  0  0  0  0  0  0  0
  -14.3287   -2.9050   -7.7300 C   0  0  2  0  0  0  0  0  0  0  0  0
  -13.8544   -1.6294   -8.4393 C   0  0  0  0  0  0  0  0  0  0  0  0
  -12.5602   -1.0842   -7.8418 C   0  0  1  0  0  0  0  0  0  0  0  0
  -11.5000   -2.1746   -7.9139 C   0  0  2  0  0  0  0  0  0  0  0  0
  -11.9284   -3.3603   -7.0456 C   0  0  1  0  0  0  0  0  0  0  0  0
  -13.2353   -3.9743   -7.5774 C   0  0  1  0  0  0  0  0  0  0  0  0
  -15.5009   -3.5061   -8.4511 N   0  3  0  0  0  0  0  0  0  0  0  0
  -12.1181    0.1572   -8.5571 N   0  3  0  0  0  0  0  0  0  0  0  0
  -10.8937   -4.3357   -7.0366 O   0  0  0  0  0  0  0  0  0  0  0  0
  -10.2279   -1.6714   -7.4666 O   0  0  0  0  0  0  0  0  0  0  0  0
  -13.7160   -4.9734   -6.6541 O   0  0  0  0  0  0  0  0  0  0  0  0
   -9.1610   -2.0350   -8.2985 C   0  0  2  0  0  0  0  0  0  0  0  0
   -7.9021   -2.2737   -7.4583 C   0  0  1  0  0  0  0  0  0  0  0  0
   -7.3058   -0.9514   -6.9752 C   0  0  0  0  0  0  0  0  0  0  0  0
   -7.0977   -0.0371   -8.1716 C   0  0  1  0  0  0  0  0  0  0  0  0
   -8.4282    0.1810   -8.8708 C   0  0  1  0  0  0  0  0  0  0  0  0
   -8.2864    1.0940  -10.0752 C   0  0  0  0  0  0  0  0  0  0  0  0
   -8.2469   -3.1228   -6.2735 N   0  3  0  0  0  0  0  0  0  0  0  0
   -8.4761    2.5117   -9.6093 N   0  3  0  0  0  0  0  0  0  0  0  0
   -6.5593    1.2091   -7.7532 O   0  0  0  0  0  0  0  0  0  0  0  0
   -8.9352   -1.0826   -9.3324 O   0  0  0  0  0  0  0  0  0  0  0  0
  1  2  1  0  0  0  0
  1 22  1  1  0  0  0
  1 10  1  0  0  0  0
  2  3  1  0  0  0  0
  2  7  1  1  0  0  0
  3  4  1  0  0  0  0
  3  8  1  1  0  0  0
  4  5  1  0  0  0  0
  4  9  1  1  0  0  0
  5  6  1  6  0  0  0
  5 10  1  0  0  0  0
  6 11  1  0  0  0  0
 12 13  1  0  0  0  0
 12 17  1  0  0  0  0
 12 18  1  6  0  0  0
 13 14  1  0  0  0  0
 14 15  1  0  0  0  0
 14 19  1  6  0  0  0
 15 16  1  0  0  0  0
 15 21  1  1  0  0  0
 16 17  1  0  0  0  0
 16 20  1  6  0  0  0
 17 22  1  1  0  0  0
 23 21  1  1  0  0  0
 23 24  1  0  0  0  0
 23 32  1  0  0  0  0
 24 25  1  0  0  0  0
 24 29  1  1  0  0  0
 25 26  1  0  0  0  0
 26 27  1  0  0  0  0
 26 31  1  1  0  0  0
 27 28  1  6  0  0  0
 27 32  1  0  0  0  0
 28 30  1  0  0  0  0
M  CHG  5   8   1  18   1  19   1  29   1  30   1
M  END
>  <CHROM.1>
153.01140096,57.90788135,179.11893079,81.94301205,59.32514237,63.44265717
-177.94998611,114.46581538,-134.74061894,177.24928229,93.17360327,-145.00186663
37.54665213,171.09575492,-89.27541756,27.93839235,-11.30822166,-3.58822699
-7.77451919,2.15857387,0.09384062,2.89942706

>  <Name>
2tob cryst

>  <RI>
3.35201e+07

>  <Rbt.Current_Directory>
/home/itssahil/PROJECTS/Mol_Feturizer/New_Systems/rnas/2tob

>  <Rbt.Executable>
rbdock ($Id: //depot/dev/client3/rdock/2013.1/src/exe/rbdock.cxx#4 $)

>  <Rbt.Library>
libRbt.so (2013.1, Build901 2013/11/27)

>  <Rbt.Parameter_File>
/export/apps/rDock/src/rDock_2013.1_src/data/scripts/dock_solv.prm

>  <Rbt.Receptor>
prm/pocket_docking_4.prm

>  <SCORE>
-45.894

>  <SCORE.INTER>
-32.8533

>  <SCORE.INTER.CONST>
1

>  <SCORE.INTER.POLAR>
-5.79803

>  <SCORE.INTER.ROT>
6

>  <SCORE.INTER.SOLV>
28.5056

>  <SCORE.INTER.VDW>
-19.6773

>  <SCORE.INTER.norm>
-1.02667

>  <SCORE.INTRA>
-13.0407

>  <SCORE.INTRA.DIHEDRAL>
11.437

>  <SCORE.INTRA.DIHEDRAL.0>
18.4221

>  <SCORE.INTRA.POLAR>
0.3962

>  <SCORE.INTRA.POLAR.0>
-1.57101

>  <SCORE.INTRA.REPUL>
-0.730195

>  <SCORE.INTRA.REPUL.0>
0.730195

>  <SCORE.INTRA.SOLV>
-3.55472

>  <SCORE.INTRA.SOLV.lig_0>
-127.221

>  <SCORE.INTRA.VDW>
-14.6779

>  <SCORE.INTRA.VDW.0>
10.8385

>  <SCORE.INTRA.norm>
-0.407522

>  <SCORE.RESTR>
0

>  <SCORE.RESTR.CAVITY>
0

>  <SCORE.RESTR.norm>
0

>  <SCORE.SYSTEM>
0

>  <SCORE.SYSTEM.CONST>
0

>  <SCORE.SYSTEM.DIHEDRAL>
0

>  <SCORE.SYSTEM.SOLV>
0

>  <SCORE.SYSTEM.norm>
0

>  <SCORE.heavy>
32

>  <SCORE.norm>
-1.43419

>  <RMSD>
7.906

$$$$
2tob cryst
 OpenBabel11021811463D
libRbt.so/2013.1/901 2013/11/27
 32 34  0  0  0  0  0  0  0  0999 V2000
  -12.6463   -3.8233   -7.7352 C   0  0  2  0  0  0  0  0  0  0  0  0
  -12.2245   -2.9987   -8.9473 C   0  0  1  0  0  0  0  0  0  0  0  0
  -12.8052   -1.5905   -8.8154 C   0  0  2  0  0  0  0  0  0  0  0  0
  -14.3268   -1.6426   -8.6238 C   0  0  1  0  0  0  0  0  0  0  0  0
  -14.6775   -2.5897   -7.4710 C   0  0  1  0  0  0  0  0  0  0  0  0
  -16.1672   -2.8287   -7.2876 C   0  0  0  0  0  0  0  0  0  0  0  0
  -10.8029   -2.9305   -9.0197 O   0  0  0  0  0  0  0  0  0  0  0  0
  -12.5215   -0.6190   -9.9188 N   0  3  0  0  0  0  0  0  0  0  0  0
  -14.8017   -0.3334   -8.3363 O   0  0  0  0  0  0  0  0  0  0  0  0
  -14.0596   -3.8743   -7.6857 O   0  0  0  0  0  0  0  0  0  0  0  0
  -16.8220   -2.9369   -8.5475 O   0  0  0  0  0  0  0  0  0  0  0  0
  -10.0355   -4.4013   -6.8543 C   0  0  2  0  0  0  0  0  0  0  0  0
   -8.5240   -4.3075   -7.1029 C   0  0  0  0  0  0  0  0  0  0  0  0
   -8.1679   -3.1876   -8.0766 C   0  0  1  0  0  0  0  0  0  0  0  0
   -8.7120   -1.8776   -7.5234 C   0  0  2  0  0  0  0  0  0  0  0  0
  -10.2399   -1.9462   -7.4607 C   0  0  1  0  0  0  0  0  0  0  0  0
  -10.6911   -3.0579   -6.4972 C   0  0  1  0  0  0  0  0  0  0  0  0
  -10.3316   -5.3927   -5.7658 N   0  3  0  0  0  0  0  0  0  0  0  0
   -6.6864   -3.1158   -8.2959 N   0  3  0  0  0  0  0  0  0  0  0  0
  -10.7509   -0.6889   -7.0362 O   0  0  0  0  0  0  0  0  0  0  0  0
   -8.3025   -0.7726   -8.3496 O   0  0  0  0  0  0  0  0  0  0  0  0
  -12.1218   -3.2250   -6.5808 O   0  0  0  0  0  0  0  0  0  0  0  0
   -7.2752   -0.0053   -7.7852 C   0  0  2  0  0  0  0  0  0  0  0  0
   -7.5464    1.4842   -8.0215 C   0  0  1  0  0  0  0  0  0  0  0  0
   -7.2734    1.8676   -9.4762 C   0  0  0  0  0  0  0  0  0  0  0  0
   -5.8704    1.4179   -9.8505 C   0  0  1  0  0  0  0  0  0  0  0  0
   -5.7554   -0.0825   -9.6450 C   0  0  1  0  0  0  0  0  0  0  0  0
   -4.3735   -0.5945  -10.0087 C   0  0  0  0  0  0  0  0  0  0  0  0
   -8.9745    1.7900   -7.6893 N   0  3  0  0  0  0  0  0  0  0  0  0
   -4.0400   -0.0946  -11.3878 N   0  3  0  0  0  0  0  0  0  0  0  0
   -5.5915    1.7452  -11.2045 O   0  0  0  0  0  0  0  0  0  0  0  0
   -5.9903   -0.3919   -8.2609 O   0  0  0  0  0  0  0  0  0  0  0  0
  1  2  1  0  0  0  0
  1 22  1  1  0  0  0
  1 10  1  0  0  0  0
  2  3  1  0  0  0  0
  2  7  1  1  0  0  0
  3  4  1  0  0  0  0
  3  8  1  6  0  0  0
  4  5  1  0  0  0  0
  4  9  1  1  0  0  0
  5  6  1  6  0  0  0
  5 10  1  0  0  0  0
  6 11  1  0  0  0  0
 12 13  1  0  0  0  0
 12 17  1  0  0  0  0
 12 18  1  1  0  0  0
 13 14  1  0  0  0  0
 14 15  1  0  0  0  0
 14 19  1  1  0  0  0
 15 16  1  0  0  0  0
 15 21  1  6  0  0  0
 16 17  1  0  0  0  0
 16 20  1  1  0  0  0
 17 22  1  6  0  0  0
 23 21  1  6  0  0  0
 23 24  1  0  0  0  0
 23 32  1  0  0  0  0
 24 25  1  0  0  0  0
 24 29  1  6  0  0  0
 25 26  1  0  0  0  0
 26 27  1  0  0  0  0
 26 31  1  6  0  0  0
 27 28  1  1  0  0  0
 27 32  1  0  0  0  0
 28 30  1  0  0  0  0
M  CHG  5   8   1  18   1  19   1  29   1  30   1
M  END
>  <CHROM.1>
-58.24627128,-176.04982857,82.05562948,67.78650664,39.17201749,51.21516908
-47.79036424,-127.29313669,-104.57373707,-65.18614947,-49.22295057,-138.80552241
-31.48633234,71.42142315,-51.50635313,-4.07128667,-9.97830737,-1.57161667
-8.31747290,-2.73790321,0.02971448,-0.45435436

>  <Name>
2tob cryst

>  <RI>
2.04895e+07

>  <Rbt.Current_Directory>
/home/itssahil/PROJECTS/Mol_Feturizer/New_Systems/rnas/2tob

>  <Rbt.Executable>
rbdock ($Id: //depot/dev/client3/rdock/2013.1/src/exe/rbdock.cxx#4 $)

>  <Rbt.Library>
libRbt.so (2013.1, Build901 2013/11/27)

>  <Rbt.Parameter_File>
/export/apps/rDock/src/rDock_2013.1_src/data/scripts/dock_solv.prm

>  <Rbt.Receptor>
prm/blind_docking_20.prm

>  <SCORE>
-26.6821

>  <SCORE.INTER>
-37.8841

>  <SCORE.INTER.CONST>
1

>  <SCORE.INTER.POLAR>
-4.97323

>  <SCORE.INTER.ROT>
6

>  <SCORE.INTER.SOLV>
40.3127

>  <SCORE.INTER.VDW>
-29.7162

>  <SCORE.INTER.norm>
-1.18388

>  <SCORE.INTRA>
8.37095

>  <SCORE.INTRA.DIHEDRAL>
7.15471

>  <SCORE.INTRA.DIHEDRAL.0>
18.4221

>  <SCORE.INTRA.POLAR>
-0.794034

>  <SCORE.INTRA.POLAR.0>
-1.57101

>  <SCORE.INTRA.REPUL>
-0.727574

>  <SCORE.INTRA.REPUL.0>
0.730195

>  <SCORE.INTRA.SOLV>
2.36836

>  <SCORE.INTRA.SOLV.lig_0>
-127.221

>  <SCORE.INTRA.VDW>
9.94701

>  <SCORE.INTRA.VDW.0>
10.8385

>  <SCORE.INTRA.norm>
0.261592

>  <SCORE.RESTR>
2.83108

>  <SCORE.RESTR.CAVITY>
2.83108

>  <SCORE.RESTR.norm>
0.0884714

>  <SCORE.SYSTEM>
0

>  <SCORE.SYSTEM.CONST>
0

>  <SCORE.SYSTEM.DIHEDRAL>
0

>  <SCORE.SYSTEM.SOLV>
0

>  <SCORE.SYSTEM.norm>
0

>  <SCORE.heavy>
32

>  <SCORE.norm>
-0.833815

>  <RMSD>
7.908

$$$$
2tob cryst
 OpenBabel11021811463D
libRbt.so/2013.1/901 2013/11/27
 32 34  0  0  0  0  0  0  0  0999 V2000
  -12.1467   -1.4645   -6.4295 C   0  0  2  0  0  0  0  0  0  0  0  0
  -13.5981   -1.5897   -5.9769 C   0  0  1  0  0  0  0  0  0  0  0  0
  -14.1053   -2.9907   -6.3199 C   0  0  2  0  0  0  0  0  0  0  0  0
  -13.9129   -3.2913   -7.8122 C   0  0  1  0  0  0  0  0  0  0  0  0
  -12.4602   -3.0199   -8.2183 C   0  0  1  0  0  0  0  0  0  0  0  0
  -12.1922   -3.1465   -9.7090 C   0  0  0  0  0  0  0  0  0  0  0  0
  -13.6908   -1.3726   -4.5715 O   0  0  0  0  0  0  0  0  0  0  0  0
  -15.5246   -3.3169   -5.9722 N   0  3  0  0  0  0  0  0  0  0  0  0
  -14.2366   -4.6547   -8.0546 O   0  0  0  0  0  0  0  0  0  0  0  0
  -12.0819   -1.6854   -7.8258 O   0  0  0  0  0  0  0  0  0  0  0  0
  -12.4289   -4.4779  -10.1553 O   0  0  0  0  0  0  0  0  0  0  0  0
   -9.5753   -3.8606   -6.4053 C   0  0  2  0  0  0  0  0  0  0  0  0
   -8.1616   -3.9781   -6.9910 C   0  0  0  0  0  0  0  0  0  0  0  0
   -7.8987   -2.9384   -8.0769 C   0  0  1  0  0  0  0  0  0  0  0  0
   -8.1305   -1.5550   -7.4848 C   0  0  2  0  0  0  0  0  0  0  0  0
   -9.5994   -1.4143   -7.0777 C   0  0  1  0  0  0  0  0  0  0  0  0
   -9.9554   -2.4333   -5.9810 C   0  0  1  0  0  0  0  0  0  0  0  0
   -9.7376   -4.7786   -5.2280 N   0  3  0  0  0  0  0  0  0  0  0  0
   -6.5100   -3.0731   -8.6261 N   0  3  0  0  0  0  0  0  0  0  0  0
   -9.8355   -0.0904   -6.6156 O   0  0  0  0  0  0  0  0  0  0  0  0
   -7.7842   -0.5340   -8.4383 O   0  0  0  0  0  0  0  0  0  0  0  0
  -11.3765   -2.4065   -5.7329 O   0  0  0  0  0  0  0  0  0  0  0  0
   -6.6983    0.2560   -8.0393 C   0  0  2  0  0  0  0  0  0  0  0  0
   -6.9859    1.7301   -8.3432 C   0  0  1  0  0  0  0  0  0  0  0  0
   -6.8694    2.0145   -9.8409 C   0  0  0  0  0  0  0  0  0  0  0  0
   -5.5171    1.5244  -10.3329 C   0  0  1  0  0  0  0  0  0  0  0  0
   -5.3881    0.0393  -10.0421 C   0  0  1  0  0  0  0  0  0  0  0  0
   -4.0560   -0.5120  -10.5172 C   0  0  0  0  0  0  0  0  0  0  0  0
   -8.3684    2.0741   -7.8808 N   0  3  0  0  0  0  0  0  0  0  0  0
   -3.8550   -1.8587   -9.8775 N   0  3  0  0  0  0  0  0  0  0  0  0
   -5.3841    1.7592  -11.7276 O   0  0  0  0  0  0  0  0  0  0  0  0
   -5.4741   -0.1763   -8.6234 O   0  0  0  0  0  0  0  0  0  0  0  0
  1  2  1  0  0  0  0
  1 22  1  1  0  0  0
  1 10  1  0  0  0  0
  2  3  1  0  0  0  0
  2  7  1  1  0  0  0
  3  4  1  0  0  0  0
  3  8  1  6  0  0  0
  4  5  1  0  0  0  0
  4  9  1  1  0  0  0
  5  6  1  6  0  0  0
  5 10  1  0  0  0  0
  6 11  1  0  0  0  0
 12 13  1  0  0  0  0
 12 17  1  0  0  0  0
 12 18  1  1  0  0  0
 13 14  1  0  0  0  0
 14 15  1  0  0  0  0
 14 19  1  1  0  0  0
 15 16  1  0  0  0  0
 15 21  1  6  0  0  0
 16 17  1  0  0  0  0
 16 20  1  1  0  0  0
 17 22  1  6  0  0  0
 23 21  1  6  0  0  0
 23 24  1  0  0  0  0
 23 32  1  0  0  0  0
 24 25  1  0  0  0  0
 24 29  1  6  0  0  0
 25 26  1  0  0  0  0
 26 27  1  0  0  0  0
 26 31  1  6  0  0  0
 27 28  1  1  0  0  0
 27 32  1  0  0  0  0
 28 30  1  0  0  0  0
M  CHG  5   8   1  18   1  19   1  29   1  30   1
M  END
>  <CHROM.1>
-178.16780778,178.06870296,-57.28719739,65.65889605,-62.98033566,-65.48219758
-125.44698468,92.32520432,-115.19240532,150.59287613,-124.68294083,-137.22792692
136.88211801,175.77199986,165.06391246,-33.61385623,-9.50795032,-1.62610937
-7.90264863,2.76571325,-0.36973472,-3.11805037

>  <Name>
2tob cryst

>  <RI>
0

>  <Rbt.Current_Directory>
/home/itssahil/PROJECTS/Mol_Feturizer/New_Systems/rnas/2tob

>  <Rbt.Executable>
rbdock ($Id: //depot/dev/client3/rdock/2013.1/src/exe/rbdock.cxx#4 $)

>  <Rbt.Library>
libRbt.so (2013.1, Build901 2013/11/27)

>  <Rbt.Parameter_File>
/export/apps/rDock/src/rDock_2013.1_src/data/scripts/dock_solv.prm

>  <Rbt.Receptor>
prm/blind_docking_100.prm

>  <SCORE>
-36.1934

>  <SCORE.INTER>
-39.3223

>  <SCORE.INTER.CONST>
1

>  <SCORE.INTER.POLAR>
-5.07106

>  <SCORE.INTER.ROT>
6

>  <SCORE.INTER.SOLV>
37.4108

>  <SCORE.INTER.VDW>
-29.3816

>  <SCORE.INTER.norm>
-1.22882

>  <SCORE.INTRA>
-3.38983

>  <SCORE.INTRA.DIHEDRAL>
16.2176

>  <SCORE.INTRA.DIHEDRAL.0>
18.4221

>  <SCORE.INTRA.POLAR>
-0.319761

>  <SCORE.INTRA.POLAR.0>
-1.57101

>  <SCORE.INTRA.REPUL>
-0.730195

>  <SCORE.INTRA.REPUL.0>
0.730195

>  <SCORE.INTRA.SOLV>
0.23107

>  <SCORE.INTRA.SOLV.lig_0>
-127.221

>  <SCORE.INTRA.VDW>
-6.87599

>  <SCORE.INTRA.VDW.0>
10.8385

>  <SCORE.INTRA.norm>
-0.105932

>  <SCORE.RESTR>
6.51871

>  <SCORE.RESTR.CAVITY>
6.51871

>  <SCORE.RESTR.norm>
0.20371

>  <SCORE.SYSTEM>
0

>  <SCORE.SYSTEM.CONST>
0

>  <SCORE.SYSTEM.DIHEDRAL>
0

>  <SCORE.SYSTEM.SOLV>
0

>  <SCORE.SYSTEM.norm>
0

>  <SCORE.heavy>
32

>  <SCORE.norm>
-1.13104

>  <RMSD>
7.909

$$$$
2tob cryst
 OpenBabel11021811463D
libRbt.so/2013.1/901 2013/11/27
 32 34  0  0  0  0  0  0  0  0999 V2000
  -14.6512   -4.3109   -8.2684 C   0  0  2  0  0  0  0  0  0  0  0  0
  -15.9985   -5.0086   -8.4264 C   0  0  1  0  0  0  0  0  0  0  0  0
  -15.9554   -6.3441   -7.6831 C   0  0  2  0  0  0  0  0  0  0  0  0
  -14.7756   -7.1992   -8.1640 C   0  0  1  0  0  0  0  0  0  0  0  0
  -13.4777   -6.3871   -8.0956 C   0  0  1  0  0  0  0  0  0  0  0  0
  -12.2666   -7.0904   -8.6860 C   0  0  0  0  0  0  0  0  0  0  0  0
  -17.0363   -4.1912   -7.8919 O   0  0  0  0  0  0  0  0  0  0  0  0
  -17.1826   -7.2007   -7.7280 N   0  3  0  0  0  0  0  0  0  0  0  0
  -14.6707   -8.3501   -7.3353 O   0  0  0  0  0  0  0  0  0  0  0  0
  -13.6394   -5.1424   -8.8047 O   0  0  0  0  0  0  0  0  0  0  0  0
  -11.0767   -6.3510   -8.4308 O   0  0  0  0  0  0  0  0  0  0  0  0
  -13.7603   -2.6849   -5.0453 C   0  0  2  0  0  0  0  0  0  0  0  0
  -12.7126   -1.7291   -4.4590 C   0  0  0  0  0  0  0  0  0  0  0  0
  -11.2900   -2.1261   -4.8436 C   0  0  1  0  0  0  0  0  0  0  0  0
  -11.1971   -2.1717   -6.3625 C   0  0  2  0  0  0  0  0  0  0  0  0
  -12.1261   -3.2644   -6.8975 C   0  0  1  0  0  0  0  0  0  0  0  0
  -13.5908   -2.9450   -6.5505 C   0  0  1  0  0  0  0  0  0  0  0  0
  -15.1475   -2.1677   -4.7933 N   0  3  0  0  0  0  0  0  0  0  0  0
  -10.2894   -1.1726   -4.2624 N   0  3  0  0  0  0  0  0  0  0  0  0
  -11.9655   -3.3712   -8.3064 O   0  0  0  0  0  0  0  0  0  0  0  0
   -9.8434   -2.4302   -6.7774 O   0  0  0  0  0  0  0  0  0  0  0  0
  -14.4313   -4.0625   -6.9062 O   0  0  0  0  0  0  0  0  0  0  0  0
   -9.6614   -2.3545   -8.1644 C   0  0  2  0  0  0  0  0  0  0  0  0
   -8.1892   -2.5996   -8.5116 C   0  0  1  0  0  0  0  0  0  0  0  0
   -7.3317   -1.3850   -8.1550 C   0  0  0  0  0  0  0  0  0  0  0  0
   -7.9323   -0.1487   -8.8044 C   0  0  1  0  0  0  0  0  0  0  0  0
   -9.3617    0.0247   -8.3213 C   0  0  1  0  0  0  0  0  0  0  0  0
  -10.0160    1.2505   -8.9324 C   0  0  0  0  0  0  0  0  0  0  0  0
   -7.6914   -3.7946   -7.7581 N   0  3  0  0  0  0  0  0  0  0  0  0
  -11.5071    1.0871   -8.8195 N   0  3  0  0  0  0  0  0  0  0  0  0
   -7.1665    1.0023   -8.4777 O   0  0  0  0  0  0  0  0  0  0  0  0
  -10.1353   -1.1252   -8.7037 O   0  0  0  0  0  0  0  0  0  0  0  0
  1  2  1  0  0  0  0
  1 22  1  1  0  0  0
  1 10  1  0  0  0  0
  2  3  1  0  0  0  0
  2  7  1  1  0  0  0
  3  4  1  0  0  0  0
  3  8  1  6  0  0  0
  4  5  1  0  0  0  0
  4  9  1  1  0  0  0
  5  6  1  6  0  0  0
  5 10  1  0  0  0  0
  6 11  1  0  0  0  0
 12 13  1  0  0  0  0
 12 17  1  0  0  0  0
 12 18  1  6  0  0  0
 13 14  1  0  0  0  0
 14 15  1  0  0  0  0
 14 19  1  6  0  0  0
 15 16  1  0  0  0  0
 15 21  1  1  0  0  0
 16 17  1  0  0  0  0
 16 20  1  6  0  0  0
 17 22  1  1  0  0  0
 23 21  1  1  0  0  0
 23 24  1  0  0  0  0
 23 32  1  0  0  0  0
 24 25  1  0  0  0  0
 24 29  1  1  0  0  0
 25 26  1  0  0  0  0
 26 27  1  0  0  0  0
 26 31  1  1  0  0  0
 27 28  1  6  0  0  0
 27 32  1  0  0  0  0
 28 30  1  0  0  0  0
M  CHG  5   8   1  18   1  19   1  29   1  30   1
M  END
>  <CHROM.1>
-152.77220219,61.51511829,-178.89134470,-177.33332384,-172.48708483,60.78119482
70.07790651,-159.85672192,-174.05503043,-63.70662112,167.26791872,178.26718260
-6.75063182,-59.30136451,159.95083450,-31.05311107,-12.07949653,-3.24786042
-7.47630543,2.51381969,-0.34051717,-2.75473714

>  <Name>
2tob cryst

>  <RI>
0

>  <Rbt.Current_Directory>
/home/itssahil/PROJECTS/Mol_Feturizer/New_Systems/rnas/2tob

>  <Rbt.Executable>
rbdock ($Id: //depot/dev/client3/rdock/2013.1/src/exe/rbdock.cxx#4 $)

>  <Rbt.Library>
libRbt.so (2013.1, Build901 2013/11/27)

>  <Rbt.Parameter_File>
/export/apps/rDock/src/rDock_2013.1_src/data/scripts/dock_solv.prm

>  <Rbt.Receptor>
prm/pocket_docking_6.prm

>  <SCORE>
-45.7185

>  <SCORE.INTER>
-26.6831

>  <SCORE.INTER.CONST>
1

>  <SCORE.INTER.POLAR>
-3.95868

>  <SCORE.INTER.ROT>
6

>  <SCORE.INTER.SOLV>
27.0761

>  <SCORE.INTER.VDW>
-21.2186

>  <SCORE.INTER.norm>
-0.833848

>  <SCORE.INTRA>
-19.0353

>  <SCORE.INTRA.DIHEDRAL>
-6.1671

>  <SCORE.INTRA.DIHEDRAL.0>
18.4221

>  <SCORE.INTRA.POLAR>
1.00324

>  <SCORE.INTRA.POLAR.0>
-1.57101

>  <SCORE.INTRA.REPUL>
-0.730195

>  <SCORE.INTRA.REPUL.0>
0.730195

>  <SCORE.INTRA.SOLV>
-9.25512

>  <SCORE.INTRA.SOLV.lig_0>
-127.221

>  <SCORE.INTRA.VDW>
-11.0842

>  <SCORE.INTRA.VDW.0>
10.8385

>  <SCORE.INTRA.norm>
-0.594853

>  <SCORE.RESTR>
0

>  <SCORE.RESTR.CAVITY>
0

>  <SCORE.RESTR.norm>
0

>  <SCORE.SYSTEM>
0

>  <SCORE.SYSTEM.CONST>
0

>  <SCORE.SYSTEM.DIHEDRAL>
0

>  <SCORE.SYSTEM.SOLV>
0

>  <SCORE.SYSTEM.norm>
0

>  <SCORE.heavy>
32

>  <SCORE.norm>
-1.4287

>  <RMSD>
7.911

$$$$
2tob cryst
 OpenBabel11021811463D
libRbt.so/2013.1/901 2013/11/27
 32 34  0  0  0  0  0  0  0  0999 V2000
  -12.4921   -1.3222   -6.2922 C   0  0  2  0  0  0  0  0  0  0  0  0
  -13.8626   -1.4340   -5.6317 C   0  0  1  0  0  0  0  0  0  0  0  0
  -14.7452   -2.3556   -6.4740 C   0  0  2  0  0  0  0  0  0  0  0  0
  -14.8160   -1.8665   -7.9267 C   0  0  1  0  0  0  0  0  0  0  0  0
  -13.4017   -1.6560   -8.4781 C   0  0  1  0  0  0  0  0  0  0  0  0
  -13.3557   -1.0332   -9.8638 C   0  0  0  0  0  0  0  0  0  0  0  0
  -13.7277   -1.9639   -4.3157 O   0  0  0  0  0  0  0  0  0  0  0  0
  -16.1484   -2.5873   -6.0059 N   0  3  0  0  0  0  0  0  0  0  0  0
  -15.5008   -2.8373   -8.7084 O   0  0  0  0  0  0  0  0  0  0  0  0
  -12.6537   -0.7957   -7.5957 O   0  0  0  0  0  0  0  0  0  0  0  0
  -12.0468   -0.5594  -10.1634 O   0  0  0  0  0  0  0  0  0  0  0  0
  -10.0937   -4.0838   -6.8859 C   0  0  2  0  0  0  0  0  0  0  0  0
   -8.6208   -4.2278   -7.2918 C   0  0  0  0  0  0  0  0  0  0  0  0
   -8.1732   -3.1208   -8.2423 C   0  0  1  0  0  0  0  0  0  0  0  0
   -8.4248   -1.7782   -7.5698 C   0  0  2  0  0  0  0  0  0  0  0  0
   -9.9278   -1.5941   -7.3455 C   0  0  1  0  0  0  0  0  0  0  0  0
  -10.4681   -2.6766   -6.3945 C   0  0  1  0  0  0  0  0  0  0  0  0
  -10.4488   -5.0821   -5.8218 N   0  3  0  0  0  0  0  0  0  0  0  0
   -6.7305   -3.2835   -8.6169 N   0  3  0  0  0  0  0  0  0  0  0  0
  -10.1688   -0.3003   -6.8069 O   0  0  0  0  0  0  0  0  0  0  0  0
   -7.9132   -0.7045   -8.3803 O   0  0  0  0  0  0  0  0  0  0  0  0
  -11.9072   -2.5958   -6.3308 O   0  0  0  0  0  0  0  0  0  0  0  0
   -6.7963   -0.0687   -7.8226 C   0  0  2  0  0  0  0  0  0  0  0  0
   -7.0152    1.4477   -7.8025 C   0  0  1  0  0  0  0  0  0  0  0  0
   -6.8738    2.0413   -9.2044 C   0  0  0  0  0  0  0  0  0  0  0  0
   -5.5408    1.6073   -9.7923 C   0  0  1  0  0  0  0  0  0  0  0  0
   -5.4808    0.0901   -9.8274 C   0  0  1  0  0  0  0  0  0  0  0  0
   -4.1708   -0.4064  -10.4119 C   0  0  0  0  0  0  0  0  0  0  0  0
   -8.3847    1.7470   -7.2747 N   0  3  0  0  0  0  0  0  0  0  0  0
   -3.9243   -1.7950   -9.8884 N   0  3  0  0  0  0  0  0  0  0  0  0
   -5.3861    2.1296  -11.1043 O   0  0  0  0  0  0  0  0  0  0  0  0
   -5.5879   -0.4208   -8.4879 O   0  0  0  0  0  0  0  0  0  0  0  0
  1  2  1  0  0  0  0
  1 22  1  6  0  0  0
  1 10  1  0  0  0  0
  2  3  1  0  0  0  0
  2  7  1  1  0  0  0
  3  4  1  0  0  0  0
  3  8  1  1  0  0  0
  4  5  1  0  0  0  0
  4  9  1  6  0  0  0
  5  6  1  6  0  0  0
  5 10  1  0  0  0  0
  6 11  1  0  0  0  0
 12 13  1  0  0  0  0
 12 17  1  0  0  0  0
 12 18  1  1  0  0  0
 13 14  1  0  0  0  0
 14 15  1  0  0  0  0
 14 19  1  1  0  0  0
 15 16  1  0  0  0  0
 15 21  1  6  0  0  0
 16 17  1  0  0  0  0
 16 20  1  1  0  0  0
 17 22  1  6  0  0  0
 23 21  1  6  0  0  0
 23 24  1  0  0  0  0
 23 32  1  0  0  0  0
 24 25  1  0  0  0  0
 24 29  1  6  0  0  0
 25 26  1  0  0  0  0
 26 27  1  0  0  0  0
 26 31  1  6  0  0  0
 27 28  1  1  0  0  0
 27 32  1  0  0  0  0
 28 30  1  0  0  0  0
M  CHG  5   8   1  18   1  19   1  29   1  30   1
M  END
>  <CHROM.1>
-155.41680226,64.20748777,77.68671014,-168.68401624,165.16037032,-43.08731937
-177.20751433,-155.94683961,-110.78319368,-66.44580948,-161.65548361,-129.15134908
-34.48277995,-43.28118418,155.84048458,-25.93401643,-9.85087534,-1.30327616
-7.89741512,2.77386503,-0.14791371,2.67486990

>  <Name>
2tob cryst

>  <RI>
0

>  <Rbt.Current_Directory>
/home/itssahil/PROJECTS/Mol_Feturizer/New_Systems/rnas/2tob

>  <Rbt.Executable>
rbdock ($Id: //depot/dev/client3/rdock/2013.1/src/exe/rbdock.cxx#4 $)

>  <Rbt.Library>
libRbt.so (2013.1, Build901 2013/11/27)

>  <Rbt.Parameter_File>
/export/apps/rDock/src/rDock_2013.1_src/data/scripts/dock_solv.prm

>  <Rbt.Receptor>
prm/blind_docking_40.prm

>  <SCORE>
-39.8415

>  <SCORE.INTER>
-35.3402

>  <SCORE.INTER.CONST>
1

>  <SCORE.INTER.POLAR>
-4.62583

>  <SCORE.INTER.ROT>
6

>  <SCORE.INTER.SOLV>
39.3442

>  <SCORE.INTER.VDW>
-28.8554

>  <SCORE.INTER.norm>
-1.10438

>  <SCORE.INTRA>
-12.5686

>  <SCORE.INTRA.DIHEDRAL>
10.9842

>  <SCORE.INTRA.DIHEDRAL.0>
18.4221

>  <SCORE.INTRA.POLAR>
-0.475691

>  <SCORE.INTRA.POLAR.0>
-1.57101

>  <SCORE.INTRA.REPUL>
-0.717017

>  <SCORE.INTRA.REPUL.0>
0.730195

>  <SCORE.INTRA.SOLV>
-1.81981

>  <SCORE.INTRA.SOLV.lig_0>
-127.221

>  <SCORE.INTRA.VDW>
-11.9483

>  <SCORE.INTRA.VDW.0>
10.8385

>  <SCORE.INTRA.norm>
-0.392769

>  <SCORE.RESTR>
8.06728

>  <SCORE.RESTR.CAVITY>
8.06728

>  <SCORE.RESTR.norm>
0.252102

>  <SCORE.SYSTEM>
0

>  <SCORE.SYSTEM.CONST>
0

>  <SCORE.SYSTEM.DIHEDRAL>
0

>  <SCORE.SYSTEM.SOLV>
0

>  <SCORE.SYSTEM.norm>
0

>  <SCORE.heavy>
32

>  <SCORE.norm>
-1.24505

>  <RMSD>
7.938

$$$$
2tob cryst
 OpenBabel11021811463D
libRbt.so/2013.1/901 2013/11/27
 32 34  0  0  0  0  0  0  0  0999 V2000
  -13.1560   -5.9198   -6.1914 C   0  0  2  0  0  0  0  0  0  0  0  0
  -14.1401   -6.5736   -5.2264 C   0  0  1  0  0  0  0  0  0  0  0  0
  -14.0217   -5.8942   -3.8617 C   0  0  2  0  0  0  0  0  0  0  0  0
  -12.5728   -5.9289   -3.3579 C   0  0  1  0  0  0  0  0  0  0  0  0
  -11.6311   -5.3741   -4.4323 C   0  0  1  0  0  0  0  0  0  0  0  0
  -10.1542   -5.4961   -4.0946 C   0  0  0  0  0  0  0  0  0  0  0  0
  -15.4699   -6.4379   -5.7202 O   0  0  0  0  0  0  0  0  0  0  0  0
  -14.8966   -6.4022   -2.7579 N   0  3  0  0  0  0  0  0  0  0  0  0
  -12.4753   -5.1436   -2.1764 O   0  0  0  0  0  0  0  0  0  0  0  0
  -11.8454   -6.0670   -5.6782 O   0  0  0  0  0  0  0  0  0  0  0  0
   -9.6954   -6.8282   -4.3016 O   0  0  0  0  0  0  0  0  0  0  0  0
  -13.8807   -2.6837   -7.7851 C   0  0  2  0  0  0  0  0  0  0  0  0
  -13.2756   -1.6439   -8.7379 C   0  0  0  0  0  0  0  0  0  0  0  0
  -11.9008   -1.1689   -8.2757 C   0  0  1  0  0  0  0  0  0  0  0  0
  -10.9913   -2.3827   -8.1444 C   0  0  2  0  0  0  0  0  0  0  0  0
  -11.5333   -3.3103   -7.0540 C   0  0  1  0  0  0  0  0  0  0  0  0
  -12.9269   -3.8378   -7.4381 C   0  0  1  0  0  0  0  0  0  0  0  0
  -15.1463   -3.2532   -8.3588 N   0  3  0  0  0  0  0  0  0  0  0  0
  -11.3323   -0.1592   -9.2274 N   0  3  0  0  0  0  0  0  0  0  0  0
  -10.6313   -4.3934   -6.8656 O   0  0  0  0  0  0  0  0  0  0  0  0
   -9.6495   -1.9747   -7.8210 O   0  0  0  0  0  0  0  0  0  0  0  0
  -13.4951   -4.5665   -6.3299 O   0  0  0  0  0  0  0  0  0  0  0  0
   -8.8059   -1.8984   -8.9369 C   0  0  2  0  0  0  0  0  0  0  0  0
   -7.3566   -2.1610   -8.5142 C   0  0  1  0  0  0  0  0  0  0  0  0
   -6.7750   -0.9580   -7.7714 C   0  0  0  0  0  0  0  0  0  0  0  0
   -6.9647    0.2870   -8.6228 C   0  0  1  0  0  0  0  0  0  0  0  0
   -8.4445    0.4772   -8.9066 C   0  0  1  0  0  0  0  0  0  0  0  0
   -8.6999    1.7122   -9.7514 C   0  0  0  0  0  0  0  0  0  0  0  0
   -7.3072   -3.3636   -7.6226 N   0  3  0  0  0  0  0  0  0  0  0  0
   -8.8896    2.8802   -8.8225 N   0  3  0  0  0  0  0  0  0  0  0  0
   -6.4487    1.4278   -7.9516 O   0  0  0  0  0  0  0  0  0  0  0  0
   -8.9398   -0.6622   -9.6300 O   0  0  0  0  0  0  0  0  0  0  0  0
  1  2  1  0  0  0  0
  1 22  1  1  0  0  0
  1 10  1  0  0  0  0
  2  3  1  0  0  0  0
  2  7  1  6  0  0  0
  3  4  1  0  0  0  0
  3  8  1  1  0  0  0
  4  5  1  0  0  0  0
  4  9  1  1  0  0  0
  5  6  1  1  0  0  0
  5 10  1  0  0  0  0
  6 11  1  0  0  0  0
 12 13  1  0  0  0  0
 12 17  1  0  0  0  0
 12 18  1  6  0  0  0
 13 14  1  0  0  0  0
 14 15  1  0  0  0  0
 14 19  1  6  0  0  0
 15 16  1  0  0  0  0
 15 21  1  1  0  0  0
 16 17  1  0  0  0  0
 16 20  1  6  0  0  0
 17 22  1  1  0  0  0
 23 21  1  1  0  0  0
 23 24  1  0  0  0  0
 23 32  1  0  0  0  0
 24 25  1  0  0  0  0
 24 29  1  1  0  0  0
 25 26  1  0  0  0  0
 26 27  1  0  0  0  0
 26 31  1  1  0  0  0
 27 28  1  6  0  0  0
 27 32  1  0  0  0  0
 28 30  1  0  0  0  0
M  CHG  5   8   1  18   1  19   1  29   1  30   1
M  END
>  <CHROM.1>
-164.43596502,-66.76250544,-51.68874455,68.37570392,77.41952281,165.83037964
167.36251288,15.14076304,-97.23633168,-57.33187045,153.60026517,-151.72203304
80.01617082,168.35381173,-89.37268153,78.04440287,-11.04982838,-3.05525862
-6.86146675,2.18203607,0.16868915,2.42268238

>  <Name>
2tob cryst

>  <RI>
0

>  <Rbt.Current_Directory>
/home/itssahil/PROJECTS/Mol_Feturizer/New_Systems/rnas/2tob

>  <Rbt.Executable>
rbdock ($Id: //depot/dev/client3/rdock/2013.1/src/exe/rbdock.cxx#4 $)

>  <Rbt.Library>
libRbt.so (2013.1, Build901 2013/11/27)

>  <Rbt.Parameter_File>
/export/apps/rDock/src/rDock_2013.1_src/data/scripts/dock_solv.prm

>  <Rbt.Receptor>
prm/pocket_docking_5.prm

>  <SCORE>
-48.3034

>  <SCORE.INTER>
-37.118

>  <SCORE.INTER.CONST>
1

>  <SCORE.INTER.POLAR>
-6.71533

>  <SCORE.INTER.ROT>
6

>  <SCORE.INTER.SOLV>
30.8418

>  <SCORE.INTER.VDW>
-20.2415

>  <SCORE.INTER.norm>
-1.15994

>  <SCORE.INTRA>
-11.1854

>  <SCORE.INTRA.DIHEDRAL>
5.0021

>  <SCORE.INTRA.DIHEDRAL.0>
18.4221

>  <SCORE.INTRA.POLAR>
0.676203

>  <SCORE.INTRA.POLAR.0>
-1.57101

>  <SCORE.INTRA.REPUL>
-0.730195

>  <SCORE.INTRA.REPUL.0>
0.730195

>  <SCORE.INTRA.SOLV>
-0.742318

>  <SCORE.INTRA.SOLV.lig_0>
-127.221

>  <SCORE.INTRA.VDW>
-11.9634

>  <SCORE.INTRA.VDW.0>
10.8385

>  <SCORE.INTRA.norm>
-0.349544

>  <SCORE.RESTR>
0

>  <SCORE.RESTR.CAVITY>
0

>  <SCORE.RESTR.norm>
0

>  <SCORE.SYSTEM>
0

>  <SCORE.SYSTEM.CONST>
0

>  <SCORE.SYSTEM.DIHEDRAL>
0

>  <SCORE.SYSTEM.SOLV>
0

>  <SCORE.SYSTEM.norm>
0

>  <SCORE.heavy>
32

>  <SCORE.norm>
-1.50948

>  <RMSD>
7.949

$$$$
2tob cryst
 OpenBabel11021811463D
libRbt.so/2013.1/901 2013/11/27
 32 34  0  0  0  0  0  0  0  0999 V2000
  -11.1023   -2.2172   -8.4568 C   0  0  2  0  0  0  0  0  0  0  0  0
  -12.4836   -2.1324   -7.8153 C   0  0  1  0  0  0  0  0  0  0  0  0
  -12.3529   -2.4130   -6.3180 C   0  0  2  0  0  0  0  0  0  0  0  0
  -11.6578   -3.7588   -6.0728 C   0  0  1  0  0  0  0  0  0  0  0  0
  -10.3392   -3.8169   -6.8519 C   0  0  1  0  0  0  0  0  0  0  0  0
   -9.6376   -5.1640   -6.7964 C   0  0  0  0  0  0  0  0  0  0  0  0
  -13.0362   -0.8345   -8.0175 O   0  0  0  0  0  0  0  0  0  0  0  0
  -13.6062   -2.3956   -5.4989 N   0  3  0  0  0  0  0  0  0  0  0  0
  -11.4043   -3.9013   -4.6808 O   0  0  0  0  0  0  0  0  0  0  0  0
  -10.5760   -3.5129   -8.2410 O   0  0  0  0  0  0  0  0  0  0  0  0
   -8.6037   -5.2376   -7.7727 O   0  0  0  0  0  0  0  0  0  0  0  0
   -9.7896    1.0856   -8.3063 C   0  0  2  0  0  0  0  0  0  0  0  0
   -8.8498    2.1079   -8.9595 C   0  0  0  0  0  0  0  0  0  0  0  0
   -7.3868    1.6808   -8.8786 C   0  0  1  0  0  0  0  0  0  0  0  0
   -7.2475    0.3143   -9.5354 C   0  0  2  0  0  0  0  0  0  0  0  0
   -8.0581   -0.7161   -8.7453 C   0  0  1  0  0  0  0  0  0  0  0  0
   -9.5550   -0.3602   -8.7715 C   0  0  1  0  0  0  0  0  0  0  0  0
  -11.2245    1.4513   -8.5566 N   0  3  0  0  0  0  0  0  0  0  0  0
   -6.4934    2.6943   -9.5289 N   0  3  0  0  0  0  0  0  0  0  0  0
   -7.8490   -2.0076   -9.3023 O   0  0  0  0  0  0  0  0  0  0  0  0
   -5.8647   -0.0819   -9.5866 O   0  0  0  0  0  0  0  0  0  0  0  0
  -10.2804   -1.2364   -7.8839 O   0  0  0  0  0  0  0  0  0  0  0  0
   -5.5617   -0.9082  -10.6765 C   0  0  2  0  0  0  0  0  0  0  0  0
   -4.7396   -2.1125  -10.2056 C   0  0  1  0  0  0  0  0  0  0  0  0
   -3.3006   -1.7046   -9.8886 C   0  0  0  0  0  0  0  0  0  0  0  0
   -2.7175   -0.9776  -11.0896 C   0  0  1  0  0  0  0  0  0  0  0  0
   -3.5770    0.2340  -11.4057 C   0  0  1  0  0  0  0  0  0  0  0  0
   -3.0407    1.0074  -12.5966 C   0  0  0  0  0  0  0  0  0  0  0  0
   -5.3694   -2.6971   -8.9787 N   0  3  0  0  0  0  0  0  0  0  0  0
   -1.6928    1.5612  -12.2230 N   0  3  0  0  0  0  0  0  0  0  0  0
   -1.3837   -0.5695  -10.8202 O   0  0  0  0  0  0  0  0  0  0  0  0
   -4.9100   -0.1995  -11.7252 O   0  0  0  0  0  0  0  0  0  0  0  0
  1  2  1  0  0  0  0
  1 22  1  1  0  0  0
  1 10  1  0  0  0  0
  2  3  1  0  0  0  0
  2  7  1  1  0  0  0
  3  4  1  0  0  0  0
  3  8  1  6  0  0  0
  4  5  1  0  0  0  0
  4  9  1  1  0  0  0
  5  6  1  6  0  0  0
  5 10  1  0  0  0  0
  6 11  1  0  0  0  0
 12 13  1  0  0  0  0
 12 17  1  0  0  0  0
 12 18  1  6  0  0  0
 13 14  1  0  0  0  0
 14 15  1  0  0  0  0
 14 19  1  6  0  0  0
 15 16  1  0  0  0  0
 15 21  1  1  0  0  0
 16 17  1  0  0  0  0
 16 20  1  6  0  0  0
 17 22  1  1  0  0  0
 23 21  1  1  0  0  0
 23 24  1  0  0  0  0
 23 32  1  0  0  0  0
 24 25  1  0  0  0  0
 24 29  1  1  0  0  0
 25 26  1  0  0  0  0
 26 27  1  0  0  0  0
 26 31  1  1  0  0  0
 27 28  1  6  0  0  0
 27 32  1  0  0  0  0
 28 30  1  0  0  0  0
M  CHG  5   8   1  18   1  19   1  29   1  30   1
M  END
>  <CHROM.1>
-129.31420098,74.96505563,61.47461250,172.16194699,166.66169692,-63.12440003
-75.35647627,-132.41528512,-150.16522108,-173.01565964,130.68397648,-132.73339292
-38.22882412,63.64212543,-64.56247573,163.99406226,-7.92670236,-1.15744108
-8.86985644,2.72917015,-0.37251000,2.83423414

>  <Name>
2tob cryst

>  <RI>
0

>  <Rbt.Current_Directory>
/home/itssahil/PROJECTS/Mol_Feturizer/New_Systems/rnas/2tob

>  <Rbt.Executable>
rbdock ($Id: //depot/dev/client3/rdock/2013.1/src/exe/rbdock.cxx#4 $)

>  <Rbt.Library>
libRbt.so (2013.1, Build901 2013/11/27)

>  <Rbt.Parameter_File>
/export/apps/rDock/src/rDock_2013.1_src/data/scripts/dock_solv.prm

>  <Rbt.Receptor>
prm/blind_docking_100.prm

>  <SCORE>
65.5449

>  <SCORE.INTER>
77.7969

>  <SCORE.INTER.CONST>
1

>  <SCORE.INTER.POLAR>
-5.73354

>  <SCORE.INTER.ROT>
6

>  <SCORE.INTER.SOLV>
41.1242

>  <SCORE.INTER.VDW>
49.6683

>  <SCORE.INTER.norm>
2.43115

>  <SCORE.INTRA>
-15.3515

>  <SCORE.INTRA.DIHEDRAL>
12.8731

>  <SCORE.INTRA.DIHEDRAL.0>
18.4221

>  <SCORE.INTRA.POLAR>
-0.817623

>  <SCORE.INTRA.POLAR.0>
-1.57101

>  <SCORE.INTRA.REPUL>
-0.730195

>  <SCORE.INTRA.REPUL.0>
0.730195

>  <SCORE.INTRA.SOLV>
-1.90361

>  <SCORE.INTRA.SOLV.lig_0>
-127.221

>  <SCORE.INTRA.VDW>
-14.4053

>  <SCORE.INTRA.VDW.0>
10.8385

>  <SCORE.INTRA.norm>
-0.479734

>  <SCORE.RESTR>
3.09957

>  <SCORE.RESTR.CAVITY>
3.09957

>  <SCORE.RESTR.norm>
0.0968614

>  <SCORE.SYSTEM>
0

>  <SCORE.SYSTEM.CONST>
0

>  <SCORE.SYSTEM.DIHEDRAL>
0

>  <SCORE.SYSTEM.SOLV>
0

>  <SCORE.SYSTEM.norm>
0

>  <SCORE.heavy>
32

>  <SCORE.norm>
2.04828

>  <RMSD>
7.954

$$$$
2tob cryst
 OpenBabel11021811463D
libRbt.so/2013.1/901 2013/11/27
 32 34  0  0  0  0  0  0  0  0999 V2000
  -14.3575   -4.1757   -8.4002 C   0  0  2  0  0  0  0  0  0  0  0  0
  -15.6559   -4.9743   -8.4577 C   0  0  1  0  0  0  0  0  0  0  0  0
  -15.4042   -6.3715   -7.8901 C   0  0  2  0  0  0  0  0  0  0  0  0
  -14.2434   -7.0577   -8.6224 C   0  0  1  0  0  0  0  0  0  0  0  0
  -13.0154   -6.1409   -8.6328 C   0  0  1  0  0  0  0  0  0  0  0  0
  -11.8511   -6.6623   -9.4590 C   0  0  0  0  0  0  0  0  0  0  0  0
  -16.6659   -4.3179   -7.6962 O   0  0  0  0  0  0  0  0  0  0  0  0
  -16.5557   -7.3283   -7.8713 N   0  3  0  0  0  0  0  0  0  0  0  0
  -13.9326   -8.2756   -7.9572 O   0  0  0  0  0  0  0  0  0  0  0  0
  -13.3723   -4.8481   -9.1616 O   0  0  0  0  0  0  0  0  0  0  0  0
  -11.3834   -7.9061   -8.9473 O   0  0  0  0  0  0  0  0  0  0  0  0
  -13.3555   -2.6817   -5.1741 C   0  0  2  0  0  0  0  0  0  0  0  0
  -12.3592   -1.6797   -4.5754 C   0  0  0  0  0  0  0  0  0  0  0  0
  -10.9199   -1.9843   -4.9815 C   0  0  1  0  0  0  0  0  0  0  0  0
  -10.8400   -1.9906   -6.5019 C   0  0  2  0  0  0  0  0  0  0  0  0
  -11.7093   -3.1235   -7.0534 C   0  0  1  0  0  0  0  0  0  0  0  0
  -13.1865   -2.8979   -6.6863 C   0  0  1  0  0  0  0  0  0  0  0  0
  -14.7677   -2.2520   -4.8980 N   0  3  0  0  0  0  0  0  0  0  0  0
   -9.9705   -0.9873   -4.3876 N   0  3  0  0  0  0  0  0  0  0  0  0
  -11.5571   -3.1893   -8.4657 O   0  0  0  0  0  0  0  0  0  0  0  0
   -9.4778   -2.1604   -6.9345 O   0  0  0  0  0  0  0  0  0  0  0  0
  -13.9641   -4.0543   -7.0599 O   0  0  0  0  0  0  0  0  0  0  0  0
   -9.2688   -1.8000   -8.2721 C   0  0  2  0  0  0  0  0  0  0  0  0
   -7.8134   -2.0748   -8.6651 C   0  0  1  0  0  0  0  0  0  0  0  0
   -6.8742   -1.0347   -8.0538 C   0  0  0  0  0  0  0  0  0  0  0  0
   -7.3713    0.3547   -8.4188 C   0  0  1  0  0  0  0  0  0  0  0  0
   -8.7914    0.5270   -7.9086 C   0  0  1  0  0  0  0  0  0  0  0  0
   -9.3434    1.9020   -8.2386 C   0  0  0  0  0  0  0  0  0  0  0  0
   -7.4174   -3.4388   -8.1895 N   0  3  0  0  0  0  0  0  0  0  0  0
   -8.9899    2.2149   -9.6669 N   0  3  0  0  0  0  0  0  0  0  0  0
   -6.5277    1.3463   -7.8503 O   0  0  0  0  0  0  0  0  0  0  0  0
   -9.6418   -0.4508   -8.5312 O   0  0  0  0  0  0  0  0  0  0  0  0
  1  2  1  0  0  0  0
  1 22  1  1  0  0  0
  1 10  1  0  0  0  0
  2  3  1  0  0  0  0
  2  7  1  1  0  0  0
  3  4  1  0  0  0  0
  3  8  1  6  0  0  0
  4  5  1  0  0  0  0
  4  9  1  1  0  0  0
  5  6  1  6  0  0  0
  5 10  1  0  0  0  0
  6 11  1  0  0  0  0
 12 13  1  0  0  0  0
 12 17  1  0  0  0  0
 12 18  1  6  0  0  0
 13 14  1  0  0  0  0
 14 15  1  0  0  0  0
 14 19  1  1  0  0  0
 15 16  1  0  0  0  0
 15 21  1  1  0  0  0
 16 17  1  0  0  0  0
 16 20  1  6  0  0  0
 17 22  1  1  0  0  0
 23 21  1  1  0  0  0
 23 24  1  0  0  0  0
 23 32  1  0  0  0  0
 24 25  1  0  0  0  0
 24 29  1  1  0  0  0
 25 26  1  0  0  0  0
 26 27  1  0  0  0  0
 26 31  1  1  0  0  0
 27 28  1  6  0  0  0
 27 32  1  0  0  0  0
 28 30  1  0  0  0  0
M  CHG  5   8   1  18   1  19   1  29   1  30   1
M  END
>  <CHROM.1>
-151.87052301,-74.94884805,-55.28355264,-59.18062414,-61.32739932,-60.42184080
169.65174324,-147.25258395,-162.78562165,172.56823532,157.67042674,-177.30839541
142.53800044,169.89909488,44.57022690,173.74803046,-11.58673011,-3.06401736
-7.61417731,2.47157579,-0.41469186,-2.66059684

>  <Name>
2tob cryst

>  <RI>
3.75586e+07

>  <Rbt.Current_Directory>
/home/itssahil/PROJECTS/Mol_Feturizer/New_Systems/rnas/2tob

>  <Rbt.Executable>
rbdock ($Id: //depot/dev/client3/rdock/2013.1/src/exe/rbdock.cxx#4 $)

>  <Rbt.Library>
libRbt.so (2013.1, Build901 2013/11/27)

>  <Rbt.Parameter_File>
/export/apps/rDock/src/rDock_2013.1_src/data/scripts/dock_solv.prm

>  <Rbt.Receptor>
prm/pocket_docking_8.prm

>  <SCORE>
-54.2849

>  <SCORE.INTER>
-36.5894

>  <SCORE.INTER.CONST>
1

>  <SCORE.INTER.POLAR>
-5.28665

>  <SCORE.INTER.ROT>
6

>  <SCORE.INTER.SOLV>
26.5012

>  <SCORE.INTER.VDW>
-23.2045

>  <SCORE.INTER.norm>
-1.14342

>  <SCORE.INTRA>
-17.6955

>  <SCORE.INTRA.DIHEDRAL>
-3.77898

>  <SCORE.INTRA.DIHEDRAL.0>
18.4221

>  <SCORE.INTRA.POLAR>
0.709231

>  <SCORE.INTRA.POLAR.0>
-1.57101

>  <SCORE.INTRA.REPUL>
-0.6975

>  <SCORE.INTRA.REPUL.0>
0.730195

>  <SCORE.INTRA.SOLV>
-6.2615

>  <SCORE.INTRA.SOLV.lig_0>
-127.221

>  <SCORE.INTRA.VDW>
-11.5991

>  <SCORE.INTRA.VDW.0>
10.8385

>  <SCORE.INTRA.norm>
-0.552984

>  <SCORE.RESTR>
0

>  <SCORE.RESTR.CAVITY>
0

>  <SCORE.RESTR.norm>
0

>  <SCORE.SYSTEM>
0

>  <SCORE.SYSTEM.CONST>
0

>  <SCORE.SYSTEM.DIHEDRAL>
0

>  <SCORE.SYSTEM.SOLV>
0

>  <SCORE.SYSTEM.norm>
0

>  <SCORE.heavy>
32

>  <SCORE.norm>
-1.6964

>  <RMSD>
7.956

$$$$
2tob cryst
 OpenBabel11021811463D
libRbt.so/2013.1/901 2013/11/27
 32 34  0  0  0  0  0  0  0  0999 V2000
  -12.5923   -1.6310   -8.9429 C   0  0  2  0  0  0  0  0  0  0  0  0
  -14.0993   -1.3968   -8.9779 C   0  0  1  0  0  0  0  0  0  0  0  0
  -14.7855   -2.4539   -8.1123 C   0  0  2  0  0  0  0  0  0  0  0  0
  -14.3863   -3.8673   -8.5567 C   0  0  1  0  0  0  0  0  0  0  0  0
  -12.8595   -3.9850   -8.6196 C   0  0  1  0  0  0  0  0  0  0  0  0
  -12.3555   -5.3011   -9.1888 C   0  0  0  0  0  0  0  0  0  0  0  0
  -14.4019   -0.0954   -8.4824 O   0  0  0  0  0  0  0  0  0  0  0  0
  -16.2796   -2.4127   -8.0245 N   0  3  0  0  0  0  0  0  0  0  0  0
  -14.9064   -4.8087   -7.6263 O   0  0  0  0  0  0  0  0  0  0  0  0
  -12.3190   -2.9283   -9.4378 O   0  0  0  0  0  0  0  0  0  0  0  0
  -11.5540   -5.9917   -8.2358 O   0  0  0  0  0  0  0  0  0  0  0  0
  -10.4308   -3.1755   -7.4555 C   0  0  2  0  0  0  0  0  0  0  0  0
   -8.9313   -3.4991   -7.5003 C   0  0  0  0  0  0  0  0  0  0  0  0
   -8.1922   -2.6659   -8.5437 C   0  0  1  0  0  0  0  0  0  0  0  0
   -8.4233   -1.1930   -8.2352 C   0  0  2  0  0  0  0  0  0  0  0  0
   -9.9126   -0.8697   -8.3785 C   0  0  1  0  0  0  0  0  0  0  0  0
  -10.7397   -1.6730   -7.3594 C   0  0  1  0  0  0  0  0  0  0  0  0
  -11.0901   -3.8830   -6.3066 N   0  3  0  0  0  0  0  0  0  0  0  0
   -6.7303   -2.9986   -8.5612 N   0  3  0  0  0  0  0  0  0  0  0  0
  -10.1127    0.5249   -8.1855 O   0  0  0  0  0  0  0  0  0  0  0  0
   -7.6523   -0.3645   -9.1244 O   0  0  0  0  0  0  0  0  0  0  0  0
  -12.1468   -1.4906   -7.6209 O   0  0  0  0  0  0  0  0  0  0  0  0
   -6.5660    0.2626   -8.5004 C   0  0  2  0  0  0  0  0  0  0  0  0
   -6.6262    1.7743   -8.7434 C   0  0  1  0  0  0  0  0  0  0  0  0
   -6.2256    2.1157  -10.1789 C   0  0  0  0  0  0  0  0  0  0  0  0
   -4.8750    1.4852  -10.4779 C   0  0  1  0  0  0  0  0  0  0  0  0
   -4.9691   -0.0169  -10.2743 C   0  0  1  0  0  0  0  0  0  0  0  0
   -3.6482   -0.7064  -10.5641 C   0  0  0  0  0  0  0  0  0  0  0  0
   -8.0182    2.2654   -8.4886 N   0  3  0  0  0  0  0  0  0  0  0  0
   -3.6935   -2.0772   -9.9462 N   0  3  0  0  0  0  0  0  0  0  0  0
   -4.4814    1.7704  -11.8127 O   0  0  0  0  0  0  0  0  0  0  0  0
   -5.3186   -0.2900   -8.9067 O   0  0  0  0  0  0  0  0  0  0  0  0
  1  2  1  0  0  0  0
  1 22  1  1  0  0  0
  1 10  1  0  0  0  0
  2  3  1  0  0  0  0
  2  7  1  1  0  0  0
  3  4  1  0  0  0  0
  3  8  1  6  0  0  0
  4  5  1  0  0  0  0
  4  9  1  1  0  0  0
  5  6  1  6  0  0  0
  5 10  1  0  0  0  0
  6 11  1  0  0  0  0
 12 13  1  0  0  0  0
 12 17  1  0  0  0  0
 12 18  1  1  0  0  0
 13 14  1  0  0  0  0
 14 15  1  0  0  0  0
 14 19  1  1  0  0  0
 15 16  1  0  0  0  0
 15 21  1  6  0  0  0
 16 17  1  0  0  0  0
 16 20  1  1  0  0  0
 17 22  1  6  0  0  0
 23 21  1  6  0  0  0
 23 24  1  0  0  0  0
 23 32  1  0  0  0  0
 24 25  1  0  0  0  0
 24 29  1  6  0  0  0
 25 26  1  0  0  0  0
 26 27  1  0  0  0  0
 26 31  1  6  0  0  0
 27 28  1  1  0  0  0
 27 32  1  0  0  0  0
 28 30  1  0  0  0  0
M  CHG  5   8   1  18   1  19   1  29   1  30   1
M  END
>  <CHROM.1>
179.98355544,53.45092531,-50.97786367,-52.84247526,-119.85094813,91.62298424
49.02508963,94.65275008,-108.05047450,-154.02768283,-73.59964457,-126.19018918
93.66926223,-81.10381134,162.74882690,73.56254746,-9.68676477,-1.56650179
-8.71845352,2.72579158,-0.13835799,2.99526357

>  <Name>
2tob cryst

>  <RI>
0

>  <Rbt.Current_Directory>
/home/itssahil/PROJECTS/Mol_Feturizer/New_Systems/rnas/2tob

>  <Rbt.Executable>
rbdock ($Id: //depot/dev/client3/rdock/2013.1/src/exe/rbdock.cxx#4 $)

>  <Rbt.Library>
libRbt.so (2013.1, Build901 2013/11/27)

>  <Rbt.Parameter_File>
/export/apps/rDock/src/rDock_2013.1_src/data/scripts/dock_solv.prm

>  <Rbt.Receptor>
prm/blind_docking_80.prm

>  <SCORE>
-56.432

>  <SCORE.INTER>
-51.2117

>  <SCORE.INTER.CONST>
1

>  <SCORE.INTER.POLAR>
-5.87347

>  <SCORE.INTER.ROT>
6

>  <SCORE.INTER.SOLV>
40.1999

>  <SCORE.INTER.VDW>
-35.5629

>  <SCORE.INTER.norm>
-1.60037

>  <SCORE.INTRA>
-11.0006

>  <SCORE.INTRA.DIHEDRAL>
16.7717

>  <SCORE.INTRA.DIHEDRAL.0>
18.4221

>  <SCORE.INTRA.POLAR>
-1.26118

>  <SCORE.INTRA.POLAR.0>
-1.57101

>  <SCORE.INTRA.REPUL>
-0.730195

>  <SCORE.INTRA.REPUL.0>
0.730195

>  <SCORE.INTRA.SOLV>
3.20325

>  <SCORE.INTRA.SOLV.lig_0>
-127.221

>  <SCORE.INTRA.VDW>
-13.0491

>  <SCORE.INTRA.VDW.0>
10.8385

>  <SCORE.INTRA.norm>
-0.34377

>  <SCORE.RESTR>
5.78041

>  <SCORE.RESTR.CAVITY>
5.78041

>  <SCORE.RESTR.norm>
0.180638

>  <SCORE.SYSTEM>
0

>  <SCORE.SYSTEM.CONST>
0

>  <SCORE.SYSTEM.DIHEDRAL>
0

>  <SCORE.SYSTEM.SOLV>
0

>  <SCORE.SYSTEM.norm>
0

>  <SCORE.heavy>
32

>  <SCORE.norm>
-1.7635

>  <RMSD>
7.958

$$$$
2tob cryst
 OpenBabel11021811463D
libRbt.so/2013.1/901 2013/11/27
 32 34  0  0  0  0  0  0  0  0999 V2000
  -14.4034   -5.9614   -7.5595 C   0  0  2  0  0  0  0  0  0  0  0  0
  -14.7994   -6.9329   -6.4521 C   0  0  1  0  0  0  0  0  0  0  0  0
  -13.5318   -7.5245   -5.8348 C   0  0  2  0  0  0  0  0  0  0  0  0
  -12.6487   -8.1683   -6.9119 C   0  0  1  0  0  0  0  0  0  0  0  0
  -12.4011   -7.1726   -8.0504 C   0  0  1  0  0  0  0  0  0  0  0  0
  -11.6569   -7.7547   -9.2410 C   0  0  0  0  0  0  0  0  0  0  0  0
  -15.5515   -6.2513   -5.4518 O   0  0  0  0  0  0  0  0  0  0  0  0
  -13.7004   -8.5230   -4.7320 N   0  3  0  0  0  0  0  0  0  0  0  0
  -11.4109   -8.5518   -6.3263 O   0  0  0  0  0  0  0  0  0  0  0  0
  -13.6579   -6.6615   -8.5376 O   0  0  0  0  0  0  0  0  0  0  0  0
  -10.4832   -8.4416   -8.8186 O   0  0  0  0  0  0  0  0  0  0  0  0
  -14.1105   -2.6916   -7.7835 C   0  0  2  0  0  0  0  0  0  0  0  0
  -13.5624   -1.4105   -8.4265 C   0  0  0  0  0  0  0  0  0  0  0  0
  -12.1462   -1.0896   -7.9569 C   0  0  1  0  0  0  0  0  0  0  0  0
  -11.2533   -2.2823   -8.2705 C   0  0  2  0  0  0  0  0  0  0  0  0
  -11.7255   -3.4974   -7.4682 C   0  0  1  0  0  0  0  0  0  0  0  0
  -13.1554   -3.8919   -7.8777 C   0  0  1  0  0  0  0  0  0  0  0  0
  -15.4287   -3.0684   -8.3964 N   0  3  0  0  0  0  0  0  0  0  0  0
  -11.6349    0.1622   -8.6049 N   0  3  0  0  0  0  0  0  0  0  0  0
  -10.8331   -4.5826   -7.6875 O   0  0  0  0  0  0  0  0  0  0  0  0
   -9.8823   -1.9838   -7.9501 O   0  0  0  0  0  0  0  0  0  0  0  0
  -13.6483   -4.9228   -6.9967 O   0  0  0  0  0  0  0  0  0  0  0  0
   -9.0261   -2.0408   -9.0575 C   0  0  2  0  0  0  0  0  0  0  0  0
   -7.6841   -2.6569   -8.6483 C   0  0  1  0  0  0  0  0  0  0  0  0
   -6.8516   -1.6670   -7.8330 C   0  0  0  0  0  0  0  0  0  0  0  0
   -6.7340   -0.3647   -8.6083 C   0  0  1  0  0  0  0  0  0  0  0  0
   -8.1247    0.1801   -8.8834 C   0  0  1  0  0  0  0  0  0  0  0  0
   -8.0733    1.4876   -9.6527 C   0  0  0  0  0  0  0  0  0  0  0  0
   -7.9291   -3.8878   -7.8307 N   0  3  0  0  0  0  0  0  0  0  0  0
   -9.4819    1.9932   -9.8057 N   0  3  0  0  0  0  0  0  0  0  0  0
   -5.9787    0.5841   -7.8684 O   0  0  0  0  0  0  0  0  0  0  0  0
   -8.8588   -0.7691   -9.6752 O   0  0  0  0  0  0  0  0  0  0  0  0
  1  2  1  0  0  0  0
  1 22  1  1  0  0  0
  1 10  1  0  0  0  0
  2  3  1  0  0  0  0
  2  7  1  1  0  0  0
  3  4  1  0  0  0  0
  3  8  1  1  0  0  0
  4  5  1  0  0  0  0
  4  9  1  1  0  0  0
  5  6  1  6  0  0  0
  5 10  1  0  0  0  0
  6 11  1  0  0  0  0
 12 13  1  0  0  0  0
 12 17  1  0  0  0  0
 12 18  1  6  0  0  0
 13 14  1  0  0  0  0
 14 15  1  0  0  0  0
 14 19  1  6  0  0  0
 15 16  1  0  0  0  0
 15 21  1  1  0  0  0
 16 17  1  0  0  0  0
 16 20  1  6  0  0  0
 17 22  1  1  0  0  0
 23 21  1  1  0  0  0
 23 24  1  0  0  0  0
 23 32  1  0  0  0  0
 24 25  1  0  0  0  0
 24 29  1  1  0  0  0
 25 26  1  0  0  0  0
 26 27  1  0  0  0  0
 26 31  1  1  0  0  0
 27 28  1  6  0  0  0
 27 32  1  0  0  0  0
 28 30  1  0  0  0  0
M  CHG  5   8   1  18   1  19   1  29   1  30   1
M  END
>  <CHROM.1>
179.36781883,174.73795879,-58.41380630,176.65819418,-50.00458599,179.17953996
72.55399768,-128.24070137,-118.77706347,-62.69781463,98.49338941,-141.47525165
109.60520173,175.28347287,-176.59189556,156.44091613,-11.25800446,-3.71693407
-7.90307734,2.18805934,-0.10193071,2.94157055

>  <Name>
2tob cryst

>  <RI>
0

>  <Rbt.Current_Directory>
/home/itssahil/PROJECTS/Mol_Feturizer/New_Systems/rnas/2tob

>  <Rbt.Executable>
rbdock ($Id: //depot/dev/client3/rdock/2013.1/src/exe/rbdock.cxx#4 $)

>  <Rbt.Library>
libRbt.so (2013.1, Build901 2013/11/27)

>  <Rbt.Parameter_File>
/export/apps/rDock/src/rDock_2013.1_src/data/scripts/dock_solv.prm

>  <Rbt.Receptor>
prm/pocket_docking_5.prm

>  <SCORE>
-53.2701

>  <SCORE.INTER>
-37.7862

>  <SCORE.INTER.CONST>
1

>  <SCORE.INTER.POLAR>
-7.72006

>  <SCORE.INTER.ROT>
6

>  <SCORE.INTER.SOLV>
32.511

>  <SCORE.INTER.VDW>
-17.8943

>  <SCORE.INTER.norm>
-1.18082

>  <SCORE.INTRA>
-15.4839

>  <SCORE.INTRA.DIHEDRAL>
8.25399

>  <SCORE.INTRA.DIHEDRAL.0>
18.4221

>  <SCORE.INTRA.POLAR>
-0.622195

>  <SCORE.INTRA.POLAR.0>
-1.57101

>  <SCORE.INTRA.REPUL>
-0.730195

>  <SCORE.INTRA.REPUL.0>
0.730195

>  <SCORE.INTRA.SOLV>
1.27897

>  <SCORE.INTRA.SOLV.lig_0>
-127.221

>  <SCORE.INTRA.VDW>
-14.484

>  <SCORE.INTRA.VDW.0>
10.8385

>  <SCORE.INTRA.norm>
-0.483873

>  <SCORE.RESTR>
0

>  <SCORE.RESTR.CAVITY>
0

>  <SCORE.RESTR.norm>
0

>  <SCORE.SYSTEM>
0

>  <SCORE.SYSTEM.CONST>
0

>  <SCORE.SYSTEM.DIHEDRAL>
0

>  <SCORE.SYSTEM.SOLV>
0

>  <SCORE.SYSTEM.norm>
0

>  <SCORE.heavy>
32

>  <SCORE.norm>
-1.66469

>  <RMSD>
7.961

$$$$
2tob cryst
 OpenBabel11021811463D
libRbt.so/2013.1/901 2013/11/27
 32 34  0  0  0  0  0  0  0  0999 V2000
  -11.5612   -5.8601   -7.5900 C   0  0  2  0  0  0  0  0  0  0  0  0
  -12.5832   -5.5045   -8.6652 C   0  0  1  0  0  0  0  0  0  0  0  0
  -13.9671   -5.9640   -8.2052 C   0  0  2  0  0  0  0  0  0  0  0  0
  -13.9583   -7.4578   -7.8548 C   0  0  1  0  0  0  0  0  0  0  0  0
  -12.8242   -7.7579   -6.8685 C   0  0  1  0  0  0  0  0  0  0  0  0
  -12.6323   -9.2347   -6.5649 C   0  0  0  0  0  0  0  0  0  0  0  0
  -12.5897   -4.0965   -8.8849 O   0  0  0  0  0  0  0  0  0  0  0  0
  -15.1190   -5.7235   -9.1310 N   0  3  0  0  0  0  0  0  0  0  0  0
  -15.2093   -7.8037   -7.2738 O   0  0  0  0  0  0  0  0  0  0  0  0
  -11.5755   -7.2609   -7.3902 O   0  0  0  0  0  0  0  0  0  0  0  0
  -13.4574   -9.6400   -5.4774 O   0  0  0  0  0  0  0  0  0  0  0  0
  -11.9823   -3.2723   -4.9378 C   0  0  2  0  0  0  0  0  0  0  0  0
  -11.4674   -1.8620   -4.6201 C   0  0  0  0  0  0  0  0  0  0  0  0
   -9.9858   -1.7009   -4.9493 C   0  0  1  0  0  0  0  0  0  0  0  0
   -9.7800   -2.0383   -6.4196 C   0  0  2  0  0  0  0  0  0  0  0  0
  -10.1339   -3.5081   -6.6598 C   0  0  1  0  0  0  0  0  0  0  0  0
  -11.6191   -3.7635   -6.3481 C   0  0  1  0  0  0  0  0  0  0  0  0
  -13.4726   -3.3420   -4.7663 N   0  3  0  0  0  0  0  0  0  0  0  0
   -9.5123   -0.3136   -4.6346 N   0  3  0  0  0  0  0  0  0  0  0  0
   -9.8488   -3.8466   -8.0111 O   0  0  0  0  0  0  0  0  0  0  0  0
   -8.4163   -1.7909   -6.8076 O   0  0  0  0  0  0  0  0  0  0  0  0
  -11.8944   -5.1784   -6.4110 O   0  0  0  0  0  0  0  0  0  0  0  0
   -8.2190   -1.8115   -8.1945 C   0  0  2  0  0  0  0  0  0  0  0  0
   -6.7357   -1.5972   -8.5136 C   0  0  1  0  0  0  0  0  0  0  0  0
   -6.3338   -0.1375   -8.3005 C   0  0  0  0  0  0  0  0  0  0  0  0
   -7.2804    0.7552   -9.0866 C   0  0  1  0  0  0  0  0  0  0  0  0
   -8.7048    0.5024   -8.6242 C   0  0  1  0  0  0  0  0  0  0  0  0
   -9.7000    1.3718   -9.3711 C   0  0  0  0  0  0  0  0  0  0  0  0
   -5.9034   -2.4734   -7.6286 N   0  3  0  0  0  0  0  0  0  0  0  0
  -11.0846    0.9591   -8.9524 N   0  3  0  0  0  0  0  0  0  0  0  0
   -6.9434    2.1219   -8.8956 O   0  0  0  0  0  0  0  0  0  0  0  0
   -9.0475   -0.8719   -8.8707 O   0  0  0  0  0  0  0  0  0  0  0  0
  1  2  1  0  0  0  0
  1 22  1  1  0  0  0
  1 10  1  0  0  0  0
  2  3  1  0  0  0  0
  2  7  1  1  0  0  0
  3  4  1  0  0  0  0
  3  8  1  6  0  0  0
  4  5  1  0  0  0  0
  4  9  1  1  0  0  0
  5  6  1  6  0  0  0
  5 10  1  0  0  0  0
  6 11  1  0  0  0  0
 12 13  1  0  0  0  0
 12 17  1  0  0  0  0
 12 18  1  6  0  0  0
 13 14  1  0  0  0  0
 14 15  1  0  0  0  0
 14 19  1  6  0  0  0
 15 16  1  0  0  0  0
 15 21  1  1  0  0  0
 16 17  1  0  0  0  0
 16 20  1  6  0  0  0
 17 22  1  1  0  0  0
 23 21  1  1  0  0  0
 23 24  1  0  0  0  0
 23 32  1  0  0  0  0
 24 25  1  0  0  0  0
 24 29  1  1  0  0  0
 25 26  1  0  0  0  0
 26 27  1  0  0  0  0
 26 31  1  1  0  0  0
 27 28  1  6  0  0  0
 27 32  1  0  0  0  0
 28 30  1  0  0  0  0
M  CHG  5   8   1  18   1  19   1  29   1  30   1
M  END
>  <CHROM.1>
-74.77424396,-79.75122351,-159.69216285,66.85511932,-88.09489616,-179.23081720
56.62099633,135.80733523,-167.49312067,-76.82926909,-176.28188101,-177.69092860
86.08450076,-63.25653869,174.37668925,76.00532196,-10.77382833,-3.38256056
-7.34011244,-2.22343299,-0.18947996,-0.28241710

>  <Name>
2tob cryst

>  <RI>
0

>  <Rbt.Current_Directory>
/home/itssahil/PROJECTS/Mol_Feturizer/New_Systems/rnas/2tob

>  <Rbt.Executable>
rbdock ($Id: //depot/dev/client3/rdock/2013.1/src/exe/rbdock.cxx#4 $)

>  <Rbt.Library>
libRbt.so (2013.1, Build901 2013/11/27)

>  <Rbt.Parameter_File>
/export/apps/rDock/src/rDock_2013.1_src/data/scripts/dock_solv.prm

>  <Rbt.Receptor>
prm/pocket_docking_6.prm

>  <SCORE>
-52.9247

>  <SCORE.INTER>
-34.2741

>  <SCORE.INTER.CONST>
1

>  <SCORE.INTER.POLAR>
-4.98729

>  <SCORE.INTER.ROT>
6

>  <SCORE.INTER.SOLV>
33.1885

>  <SCORE.INTER.VDW>
-24.8879

>  <SCORE.INTER.norm>
-1.07106

>  <SCORE.INTRA>
-18.6506

>  <SCORE.INTRA.DIHEDRAL>
-4.54437

>  <SCORE.INTRA.DIHEDRAL.0>
18.4221

>  <SCORE.INTRA.POLAR>
0.673112

>  <SCORE.INTRA.POLAR.0>
-1.57101

>  <SCORE.INTRA.REPUL>
-0.730195

>  <SCORE.INTRA.REPUL.0>
0.730195

>  <SCORE.INTRA.SOLV>
-8.69042

>  <SCORE.INTRA.SOLV.lig_0>
-127.221

>  <SCORE.INTRA.VDW>
-10.6708

>  <SCORE.INTRA.VDW.0>
10.8385

>  <SCORE.INTRA.norm>
-0.582831

>  <SCORE.RESTR>
0

>  <SCORE.RESTR.CAVITY>
0

>  <SCORE.RESTR.norm>
0

>  <SCORE.SYSTEM>
0

>  <SCORE.SYSTEM.CONST>
0

>  <SCORE.SYSTEM.DIHEDRAL>
0

>  <SCORE.SYSTEM.SOLV>
0

>  <SCORE.SYSTEM.norm>
0

>  <SCORE.heavy>
32

>  <SCORE.norm>
-1.6539

>  <RMSD>
7.961

$$$$
2tob cryst
 OpenBabel11021811463D
libRbt.so/2013.1/901 2013/11/27
 32 34  0  0  0  0  0  0  0  0999 V2000
  -12.0662   -1.6795   -8.9983 C   0  0  2  0  0  0  0  0  0  0  0  0
  -13.5699   -1.4926   -9.1740 C   0  0  1  0  0  0  0  0  0  0  0  0
  -14.3016   -2.4269   -8.2100 C   0  0  2  0  0  0  0  0  0  0  0  0
  -13.8493   -3.8797   -8.4080 C   0  0  1  0  0  0  0  0  0  0  0  0
  -12.3204   -3.9655   -8.3450 C   0  0  1  0  0  0  0  0  0  0  0  0
  -11.7558   -5.3380   -8.6732 C   0  0  0  0  0  0  0  0  0  0  0  0
  -13.9280   -0.1403   -8.9021 O   0  0  0  0  0  0  0  0  0  0  0  0
  -15.7986   -2.4121   -8.2348 N   0  3  0  0  0  0  0  0  0  0  0  0
  -14.4219   -4.6856   -7.3858 O   0  0  0  0  0  0  0  0  0  0  0  0
  -11.7374   -3.0283   -9.2723 O   0  0  0  0  0  0  0  0  0  0  0  0
  -10.3999   -5.4425   -8.2511 O   0  0  0  0  0  0  0  0  0  0  0  0
   -9.9345   -2.8101   -7.0243 C   0  0  2  0  0  0  0  0  0  0  0  0
   -8.4205   -3.0386   -6.9211 C   0  0  0  0  0  0  0  0  0  0  0  0
   -7.6655   -2.4474   -8.1084 C   0  0  1  0  0  0  0  0  0  0  0  0
   -7.9883   -0.9619   -8.1926 C   0  0  2  0  0  0  0  0  0  0  0  0
   -9.4814   -0.7800   -8.4771 C   0  0  1  0  0  0  0  0  0  0  0  0
  -10.3241   -1.3541   -7.3247 C   0  0  1  0  0  0  0  0  0  0  0  0
  -10.6225   -3.2484   -5.7634 N   0  3  0  0  0  0  0  0  0  0  0  0
   -6.1900   -2.6803   -7.9780 N   0  3  0  0  0  0  0  0  0  0  0  0
   -9.7626    0.6029   -8.6518 O   0  0  0  0  0  0  0  0  0  0  0  0
   -7.2101   -0.3347   -9.2282 O   0  0  0  0  0  0  0  0  0  0  0  0
  -11.7213   -1.3326   -7.6843 O   0  0  0  0  0  0  0  0  0  0  0  0
   -6.1336    0.4165   -8.7390 C   0  0  2  0  0  0  0  0  0  0  0  0
   -6.2669    1.8747   -9.1904 C   0  0  1  0  0  0  0  0  0  0  0  0
   -5.9258    2.0235  -10.6733 C   0  0  0  0  0  0  0  0  0  0  0  0
   -4.5589    1.4097  -10.9296 C   0  0  1  0  0  0  0  0  0  0  0  0
   -4.5812   -0.0506  -10.5129 C   0  0  1  0  0  0  0  0  0  0  0  0
   -3.2411   -0.7227  -10.7507 C   0  0  0  0  0  0  0  0  0  0  0  0
   -7.6705    2.3428   -8.9566 N   0  3  0  0  0  0  0  0  0  0  0  0
   -3.2773   -2.0771  -10.0970 N   0  3  0  0  0  0  0  0  0  0  0  0
   -4.2192    1.5169  -12.3048 O   0  0  0  0  0  0  0  0  0  0  0  0
   -4.8763   -0.1396   -9.1087 O   0  0  0  0  0  0  0  0  0  0  0  0
  1  2  1  0  0  0  0
  1 22  1  1  0  0  0
  1 10  1  0  0  0  0
  2  3  1  0  0  0  0
  2  7  1  1  0  0  0
  3  4  1  0  0  0  0
  3  8  1  6  0  0  0
  4  5  1  0  0  0  0
  4  9  1  1  0  0  0
  5  6  1  6  0  0  0
  5 10  1  0  0  0  0
  6 11  1  0  0  0  0
 12 13  1  0  0  0  0
 12 17  1  0  0  0  0
 12 18  1  1  0  0  0
 13 14  1  0  0  0  0
 14 15  1  0  0  0  0
 14 19  1  1  0  0  0
 15 16  1  0  0  0  0
 15 21  1  6  0  0  0
 16 17  1  0  0  0  0
 16 20  1  1  0  0  0
 17 22  1  6  0  0  0
 23 21  1  6  0  0  0
 23 24  1  0  0  0  0
 23 32  1  0  0  0  0
 24 25  1  0  0  0  0
 24 29  1  6  0  0  0
 25 26  1  0  0  0  0
 26 27  1  0  0  0  0
 26 31  1  6  0  0  0
 27 28  1  1  0  0  0
 27 32  1  0  0  0  0
 28 30  1  0  0  0  0
M  CHG  5   8   1  18   1  19   1  29   1  30   1
M  END
>  <CHROM.1>
-176.08449095,45.23116943,60.71358425,-68.69579998,-164.26546462,69.15458089
-54.70370653,116.29931369,-103.56317079,-170.79283308,-80.88105732,-120.99027303
102.63535523,67.28765905,170.27980459,-45.77070376,-9.20991741,-1.45617802
-8.75518037,2.70699523,-0.10353007,2.81939306

>  <Name>
2tob cryst

>  <RI>
0

>  <Rbt.Current_Directory>
/home/itssahil/PROJECTS/Mol_Feturizer/New_Systems/rnas/2tob

>  <Rbt.Executable>
rbdock ($Id: //depot/dev/client3/rdock/2013.1/src/exe/rbdock.cxx#4 $)

>  <Rbt.Library>
libRbt.so (2013.1, Build901 2013/11/27)

>  <Rbt.Parameter_File>
/export/apps/rDock/src/rDock_2013.1_src/data/scripts/dock_solv.prm

>  <Rbt.Receptor>
prm/blind_docking_80.prm

>  <SCORE>
-45.8644

>  <SCORE.INTER>
-35.0871

>  <SCORE.INTER.CONST>
1

>  <SCORE.INTER.POLAR>
-4.85096

>  <SCORE.INTER.ROT>
6

>  <SCORE.INTER.SOLV>
41.9818

>  <SCORE.INTER.VDW>
-28.8155

>  <SCORE.INTER.norm>
-1.09647

>  <SCORE.INTRA>
-15.2318

>  <SCORE.INTRA.DIHEDRAL>
7.45448

>  <SCORE.INTRA.DIHEDRAL.0>
18.4221

>  <SCORE.INTRA.POLAR>
-0.774771

>  <SCORE.INTRA.POLAR.0>
-1.57101

>  <SCORE.INTRA.REPUL>
-0.725856

>  <SCORE.INTRA.REPUL.0>
0.730195

>  <SCORE.INTRA.SOLV>
1.15759

>  <SCORE.INTRA.SOLV.lig_0>
-127.221

>  <SCORE.INTRA.VDW>
-13.2743

>  <SCORE.INTRA.VDW.0>
10.8385

>  <SCORE.INTRA.norm>
-0.475994

>  <SCORE.RESTR>
4.45456

>  <SCORE.RESTR.CAVITY>
4.45456

>  <SCORE.RESTR.norm>
0.139205

>  <SCORE.SYSTEM>
0

>  <SCORE.SYSTEM.CONST>
0

>  <SCORE.SYSTEM.DIHEDRAL>
0

>  <SCORE.SYSTEM.SOLV>
0

>  <SCORE.SYSTEM.norm>
0

>  <SCORE.heavy>
32

>  <SCORE.norm>
-1.43326

>  <RMSD>
7.963

$$$$
2tob cryst
 OpenBabel11021811463D
libRbt.so/2013.1/901 2013/11/27
 32 34  0  0  0  0  0  0  0  0999 V2000
  -14.9054   -4.5216   -4.6527 C   0  0  2  0  0  0  0  0  0  0  0  0
  -16.3022   -4.0507   -5.0453 C   0  0  1  0  0  0  0  0  0  0  0  0
  -16.3003   -2.5253   -5.1491 C   0  0  2  0  0  0  0  0  0  0  0  0
  -15.7955   -1.8896   -3.8470 C   0  0  1  0  0  0  0  0  0  0  0  0
  -14.4490   -2.5054   -3.4511 C   0  0  1  0  0  0  0  0  0  0  0  0
  -13.9262   -2.0516   -2.0980 C   0  0  0  0  0  0  0  0  0  0  0  0
  -16.6745   -4.6201   -6.2975 O   0  0  0  0  0  0  0  0  0  0  0  0
  -17.5897   -1.8548   -5.5094 N   0  3  0  0  0  0  0  0  0  0  0  0
  -15.6482   -0.4889   -4.0432 O   0  0  0  0  0  0  0  0  0  0  0  0
  -14.5597   -3.9421   -3.4088 O   0  0  0  0  0  0  0  0  0  0  0  0
  -13.6268   -0.6595   -2.1112 O   0  0  0  0  0  0  0  0  0  0  0  0
  -12.5746   -6.0068   -6.1828 C   0  0  2  0  0  0  0  0  0  0  0  0
  -11.1450   -6.5103   -6.4230 C   0  0  0  0  0  0  0  0  0  0  0  0
  -10.2864   -5.4822   -7.1544 C   0  0  1  0  0  0  0  0  0  0  0  0
  -10.2817   -4.1942   -6.3427 C   0  0  2  0  0  0  0  0  0  0  0  0
  -11.7019   -3.6264   -6.2793 C   0  0  1  0  0  0  0  0  0  0  0  0
  -12.6426   -4.6055   -5.5553 C   0  0  1  0  0  0  0  0  0  0  0  0
  -13.3344   -6.9674   -5.3137 N   0  3  0  0  0  0  0  0  0  0  0  0
   -8.8952   -5.9984   -7.3700 N   0  3  0  0  0  0  0  0  0  0  0  0
  -11.6792   -2.3749   -5.6046 O   0  0  0  0  0  0  0  0  0  0  0  0
   -9.3920   -3.2292   -6.9332 O   0  0  0  0  0  0  0  0  0  0  0  0
  -14.0041   -4.1386   -5.6561 O   0  0  0  0  0  0  0  0  0  0  0  0
   -9.5257   -3.1258   -8.3239 C   0  0  2  0  0  0  0  0  0  0  0  0
   -8.2986   -2.4239   -8.9152 C   0  0  1  0  0  0  0  0  0  0  0  0
   -8.3309   -0.9235   -8.6233 C   0  0  0  0  0  0  0  0  0  0  0  0
   -9.6627   -0.3582   -9.0896 C   0  0  1  0  0  0  0  0  0  0  0  0
  -10.7903   -1.0830   -8.3757 C   0  0  1  0  0  0  0  0  0  0  0  0
  -12.1507   -0.5573   -8.7965 C   0  0  0  0  0  0  0  0  0  0  0  0
   -7.0543   -3.0152   -8.3274 N   0  3  0  0  0  0  0  0  0  0  0  0
  -13.1299   -0.8676   -7.6974 N   0  3  0  0  0  0  0  0  0  0  0  0
   -9.7311    1.0342   -8.8165 O   0  0  0  0  0  0  0  0  0  0  0  0
  -10.7377   -2.4821   -8.7023 O   0  0  0  0  0  0  0  0  0  0  0  0
  1  2  1  0  0  0  0
  1 22  1  6  0  0  0
  1 10  1  0  0  0  0
  2  3  1  0  0  0  0
  2  7  1  6  0  0  0
  3  4  1  0  0  0  0
  3  8  1  1  0  0  0
  4  5  1  0  0  0  0
  4  9  1  6  0  0  0
  5  6  1  1  0  0  0
  5 10  1  0  0  0  0
  6 11  1  0  0  0  0
 12 13  1  0  0  0  0
 12 17  1  0  0  0  0
 12 18  1  1  0  0  0
 13 14  1  0  0  0  0
 14 15  1  0  0  0  0
 14 19  1  1  0  0  0
 15 16  1  0  0  0  0
 15 21  1  6  0  0  0
 16 17  1  0  0  0  0
 16 20  1  1  0  0  0
 17 22  1  6  0  0  0
 23 21  1  1  0  0  0
 23 24  1  0  0  0  0
 23 32  1  0  0  0  0
 24 25  1  0  0  0  0
 24 29  1  1  0  0  0
 25 26  1  0  0  0  0
 26 27  1  0  0  0  0
 26 31  1  1  0  0  0
 27 28  1  6  0  0  0
 27 32  1  0  0  0  0
 28 30  1  0  0  0  0
M  CHG  5   8   1  18   1  19   1  29   1  30   1
M  END
>  <CHROM.1>
-173.68082731,-179.81293771,80.58347263,63.23550923,-65.19929593,-176.85362448
-166.26766246,80.93872633,45.11054180,-58.33613812,85.03824086,-163.01684507
88.42608545,63.66900914,-156.57926445,-168.85299800,-12.36908929,-2.97291006
-6.23648650,-2.98201349,0.53705521,-0.18572102

>  <Name>
2tob cryst

>  <RI>
3.75586e+07

>  <Rbt.Current_Directory>
/home/itssahil/PROJECTS/Mol_Feturizer/New_Systems/rnas/2tob

>  <Rbt.Executable>
rbdock ($Id: //depot/dev/client3/rdock/2013.1/src/exe/rbdock.cxx#4 $)

>  <Rbt.Library>
libRbt.so (2013.1, Build901 2013/11/27)

>  <Rbt.Parameter_File>
/export/apps/rDock/src/rDock_2013.1_src/data/scripts/dock_solv.prm

>  <Rbt.Receptor>
prm/pocket_docking_8.prm

>  <SCORE>
-40.9164

>  <SCORE.INTER>
-23.5725

>  <SCORE.INTER.CONST>
1

>  <SCORE.INTER.POLAR>
-4.46127

>  <SCORE.INTER.ROT>
6

>  <SCORE.INTER.SOLV>
27.3455

>  <SCORE.INTER.VDW>
-17.5593

>  <SCORE.INTER.norm>
-0.73664

>  <SCORE.INTRA>
-17.3439

>  <SCORE.INTRA.DIHEDRAL>
-6.68382

>  <SCORE.INTRA.DIHEDRAL.0>
18.4221

>  <SCORE.INTRA.POLAR>
1.15734

>  <SCORE.INTRA.POLAR.0>
-1.57101

>  <SCORE.INTRA.REPUL>
-0.730195

>  <SCORE.INTRA.REPUL.0>
0.730195

>  <SCORE.INTRA.SOLV>
-1.91273

>  <SCORE.INTRA.SOLV.lig_0>
-127.221

>  <SCORE.INTRA.VDW>
-13.3296

>  <SCORE.INTRA.VDW.0>
10.8385

>  <SCORE.INTRA.norm>
-0.541998

>  <SCORE.RESTR>
0

>  <SCORE.RESTR.CAVITY>
0

>  <SCORE.RESTR.norm>
0

>  <SCORE.SYSTEM>
0

>  <SCORE.SYSTEM.CONST>
0

>  <SCORE.SYSTEM.DIHEDRAL>
0

>  <SCORE.SYSTEM.SOLV>
0

>  <SCORE.SYSTEM.norm>
0

>  <SCORE.heavy>
32

>  <SCORE.norm>
-1.27864

>  <RMSD>
7.963

$$$$
2tob cryst
 OpenBabel11021811463D
libRbt.so/2013.1/901 2013/11/27
 32 34  0  0  0  0  0  0  0  0999 V2000
  -10.7675   -6.6731   -5.7403 C   0  0  2  0  0  0  0  0  0  0  0  0
   -9.5113   -7.5145   -5.5379 C   0  0  1  0  0  0  0  0  0  0  0  0
   -9.9065   -8.8531   -4.9136 C   0  0  2  0  0  0  0  0  0  0  0  0
  -10.7015   -8.6387   -3.6188 C   0  0  1  0  0  0  0  0  0  0  0  0
  -11.8713   -7.6822   -3.8747 C   0  0  1  0  0  0  0  0  0  0  0  0
  -12.6409   -7.2853   -2.6255 C   0  0  0  0  0  0  0  0  0  0  0  0
   -8.8663   -7.7363   -6.7891 O   0  0  0  0  0  0  0  0  0  0  0  0
   -8.8097   -9.8276   -4.6146 N   0  3  0  0  0  0  0  0  0  0  0  0
  -11.1927   -9.8936   -3.1647 O   0  0  0  0  0  0  0  0  0  0  0  0
  -11.3888   -6.4688   -4.4854 O   0  0  0  0  0  0  0  0  0  0  0  0
  -13.7544   -6.4618   -2.9565 O   0  0  0  0  0  0  0  0  0  0  0  0
  -13.8367   -6.4791   -6.2323 C   0  0  2  0  0  0  0  0  0  0  0  0
  -14.9103   -5.4567   -6.6287 C   0  0  0  0  0  0  0  0  0  0  0  0
  -14.3089   -4.1070   -7.0104 C   0  0  1  0  0  0  0  0  0  0  0  0
  -13.3182   -4.3254   -8.1457 C   0  0  2  0  0  0  0  0  0  0  0  0
  -12.1658   -5.2052   -7.6545 C   0  0  1  0  0  0  0  0  0  0  0  0
  -12.6849   -6.5942   -7.2433 C   0  0  1  0  0  0  0  0  0  0  0  0
  -14.4474   -7.8365   -6.0326 N   0  3  0  0  0  0  0  0  0  0  0  0
  -15.3792   -3.1311   -7.3981 N   0  3  0  0  0  0  0  0  0  0  0  0
  -11.1941   -5.3277   -8.6854 O   0  0  0  0  0  0  0  0  0  0  0  0
  -12.8080   -3.0655   -8.6191 O   0  0  0  0  0  0  0  0  0  0  0  0
  -11.6224   -7.3481   -6.6231 O   0  0  0  0  0  0  0  0  0  0  0  0
  -12.1896   -2.3035   -7.6193 C   0  0  2  0  0  0  0  0  0  0  0  0
  -11.9801   -0.8678   -8.1120 C   0  0  1  0  0  0  0  0  0  0  0  0
  -10.8345   -0.7959   -9.1219 C   0  0  0  0  0  0  0  0  0  0  0  0
   -9.5981   -1.4371   -8.5127 C   0  0  1  0  0  0  0  0  0  0  0  0
   -9.9140   -2.8749   -8.1389 C   0  0  1  0  0  0  0  0  0  0  0  0
   -8.7123   -3.5731   -7.5284 C   0  0  0  0  0  0  0  0  0  0  0  0
  -13.2387   -0.3729   -8.7560 N   0  3  0  0  0  0  0  0  0  0  0  0
   -7.8579   -4.0956   -8.6508 N   0  3  0  0  0  0  0  0  0  0  0  0
   -8.5180   -1.4014   -9.4347 O   0  0  0  0  0  0  0  0  0  0  0  0
  -10.9741   -2.8914   -7.1680 O   0  0  0  0  0  0  0  0  0  0  0  0
  1  2  1  0  0  0  0
  1 22  1  6  0  0  0
  1 10  1  0  0  0  0
  2  3  1  0  0  0  0
  2  7  1  6  0  0  0
  3  4  1  0  0  0  0
  3  8  1  1  0  0  0
  4  5  1  0  0  0  0
  4  9  1  6  0  0  0
  5  6  1  1  0  0  0
  5 10  1  0  0  0  0
  6 11  1  0  0  0  0
 12 13  1  0  0  0  0
 12 17  1  0  0  0  0
 12 18  1  6  0  0  0
 13 14  1  0  0  0  0
 14 15  1  0  0  0  0
 14 19  1  6  0  0  0
 15 16  1  0  0  0  0
 15 21  1  1  0  0  0
 16 17  1  0  0  0  0
 16 20  1  6  0  0  0
 17 22  1  1  0  0  0
 23 21  1  6  0  0  0
 23 24  1  0  0  0  0
 23 32  1  0  0  0  0
 24 25  1  0  0  0  0
 24 29  1  6  0  0  0
 25 26  1  0  0  0  0
 26 27  1  0  0  0  0
 26 31  1  6  0  0  0
 27 28  1  1  0  0  0
 27 32  1  0  0  0  0
 28 30  1  0  0  0  0
M  CHG  5   8   1  18   1  19   1  29   1  30   1
M  END
>  <CHROM.1>
-163.28516559,72.47377932,76.05951226,-56.61608001,-176.59196305,-53.71844186
-174.64214913,-174.56929266,57.45395495,-55.33743172,-80.57618135,-166.53284866
75.44240404,74.40953404,-84.32587617,-172.80231999,-11.54639785,-5.22183859
-6.62574886,-1.56978983,0.17793329,-0.57726519

>  <Name>
2tob cryst

>  <RI>
0

>  <Rbt.Current_Directory>
/home/itssahil/PROJECTS/Mol_Feturizer/New_Systems/rnas/2tob

>  <Rbt.Executable>
rbdock ($Id: //depot/dev/client3/rdock/2013.1/src/exe/rbdock.cxx#4 $)

>  <Rbt.Library>
libRbt.so (2013.1, Build901 2013/11/27)

>  <Rbt.Parameter_File>
/export/apps/rDock/src/rDock_2013.1_src/data/scripts/dock_solv.prm

>  <Rbt.Receptor>
prm/pocket_docking_6.prm

>  <SCORE>
-43.4306

>  <SCORE.INTER>
-23.2882

>  <SCORE.INTER.CONST>
1

>  <SCORE.INTER.POLAR>
-4.78907

>  <SCORE.INTER.ROT>
6

>  <SCORE.INTER.SOLV>
28.1814

>  <SCORE.INTER.VDW>
-16.5557

>  <SCORE.INTER.norm>
-0.727758

>  <SCORE.INTRA>
-20.1494

>  <SCORE.INTRA.DIHEDRAL>
-8.74262

>  <SCORE.INTRA.DIHEDRAL.0>
18.4221

>  <SCORE.INTRA.POLAR>
0.991714

>  <SCORE.INTRA.POLAR.0>
-1.57101

>  <SCORE.INTRA.REPUL>
-0.730195

>  <SCORE.INTRA.REPUL.0>
0.730195

>  <SCORE.INTRA.SOLV>
-2.61074

>  <SCORE.INTRA.SOLV.lig_0>
-127.221

>  <SCORE.INTRA.VDW>
-14.1935

>  <SCORE.INTRA.VDW.0>
10.8385

>  <SCORE.INTRA.norm>
-0.629668

>  <SCORE.RESTR>
0.00701689

>  <SCORE.RESTR.CAVITY>
0.00701689

>  <SCORE.RESTR.norm>
0.000219278

>  <SCORE.SYSTEM>
0

>  <SCORE.SYSTEM.CONST>
0

>  <SCORE.SYSTEM.DIHEDRAL>
0

>  <SCORE.SYSTEM.SOLV>
0

>  <SCORE.SYSTEM.norm>
0

>  <SCORE.heavy>
32

>  <SCORE.norm>
-1.35721

>  <RMSD>
7.967

$$$$
2tob cryst
 OpenBabel11021811463D
libRbt.so/2013.1/901 2013/11/27
 32 34  0  0  0  0  0  0  0  0999 V2000
  -12.4126   -4.2461   -7.8129 C   0  0  2  0  0  0  0  0  0  0  0  0
  -13.5883   -3.8124   -8.6829 C   0  0  1  0  0  0  0  0  0  0  0  0
  -13.4660   -2.3160   -8.9715 C   0  0  2  0  0  0  0  0  0  0  0  0
  -13.3557   -1.5151   -7.6673 C   0  0  1  0  0  0  0  0  0  0  0  0
  -12.2373   -2.0911   -6.7919 C   0  0  1  0  0  0  0  0  0  0  0  0
  -12.1363   -1.4637   -5.4112 C   0  0  0  0  0  0  0  0  0  0  0  0
  -13.5846   -4.5427   -9.9066 O   0  0  0  0  0  0  0  0  0  0  0  0
  -14.5382   -1.6818   -9.8022 N   0  3  0  0  0  0  0  0  0  0  0  0
  -13.0740   -0.1570   -7.9811 O   0  0  0  0  0  0  0  0  0  0  0  0
  -12.4384   -3.5065   -6.6067 O   0  0  0  0  0  0  0  0  0  0  0  0
  -10.8117   -1.0062   -5.1580 O   0  0  0  0  0  0  0  0  0  0  0  0
   -9.0421   -4.3638   -7.5533 C   0  0  2  0  0  0  0  0  0  0  0  0
   -7.7157   -3.7364   -7.1036 C   0  0  0  0  0  0  0  0  0  0  0  0
   -7.2685   -2.6077   -8.0285 C   0  0  1  0  0  0  0  0  0  0  0  0
   -8.3750   -1.5634   -8.0832 C   0  0  2  0  0  0  0  0  0  0  0  0
   -9.6290   -2.1815   -8.7066 C   0  0  1  0  0  0  0  0  0  0  0  0
  -10.1508   -3.3376   -7.8354 C   0  0  1  0  0  0  0  0  0  0  0  0
   -9.5359   -5.3460   -6.5302 N   0  3  0  0  0  0  0  0  0  0  0  0
   -5.9747   -2.0105   -7.5622 N   0  3  0  0  0  0  0  0  0  0  0  0
  -10.6285   -1.1797   -8.8461 O   0  0  0  0  0  0  0  0  0  0  0  0
   -7.9539   -0.4226   -8.8532 O   0  0  0  0  0  0  0  0  0  0  0  0
  -11.2233   -4.0184   -8.5196 O   0  0  0  0  0  0  0  0  0  0  0  0
   -7.0641    0.4147   -8.1679 C   0  0  2  0  0  0  0  0  0  0  0  0
   -7.5513    1.8657   -8.2416 C   0  0  1  0  0  0  0  0  0  0  0  0
   -7.3119    2.4549   -9.6320 C   0  0  0  0  0  0  0  0  0  0  0  0
   -5.8506    2.2638  -10.0045 C   0  0  1  0  0  0  0  0  0  0  0  0
   -5.5155    0.7829   -9.9683 C   0  0  1  0  0  0  0  0  0  0  0  0
   -4.0659    0.5262  -10.3381 C   0  0  0  0  0  0  0  0  0  0  0  0
   -9.0151    1.9168   -7.9283 N   0  3  0  0  0  0  0  0  0  0  0  0
   -4.0397   -0.1225  -11.6951 N   0  3  0  0  0  0  0  0  0  0  0  0
   -5.5988    2.7868  -11.3010 O   0  0  0  0  0  0  0  0  0  0  0  0
   -5.7271    0.2803   -8.6380 O   0  0  0  0  0  0  0  0  0  0  0  0
  1  2  1  0  0  0  0
  1 22  1  6  0  0  0
  1 10  1  0  0  0  0
  2  3  1  0  0  0  0
  2  7  1  6  0  0  0
  3  4  1  0  0  0  0
  3  8  1  1  0  0  0
  4  5  1  0  0  0  0
  4  9  1  6  0  0  0
  5  6  1  1  0  0  0
  5 10  1  0  0  0  0
  6 11  1  0  0  0  0
 12 13  1  0  0  0  0
 12 17  1  0  0  0  0
 12 18  1  1  0  0  0
 13 14  1  0  0  0  0
 14 15  1  0  0  0  0
 14 19  1  1  0  0  0
 15 16  1  0  0  0  0
 15 21  1  6  0  0  0
 16 17  1  0  0  0  0
 16 20  1  1  0  0  0
 17 22  1  6  0  0  0
 23 21  1  6  0  0  0
 23 24  1  0  0  0  0
 23 32  1  0  0  0  0
 24 25  1  0  0  0  0
 24 29  1  6  0  0  0
 25 26  1  0  0  0  0
 26 27  1  0  0  0  0
 26 31  1  6  0  0  0
 27 28  1  1  0  0  0
 27 32  1  0  0  0  0
 28 30  1  0  0  0  0
M  CHG  5   8   1  18   1  19   1  29   1  30   1
M  END
>  <CHROM.1>
131.92271625,66.02877753,174.58891955,-158.00457787,-127.04240674,173.57292040
79.11519872,172.14743148,-75.95399730,87.88862170,108.49580671,-129.42217221
-166.93497167,-78.62236899,-109.04840854,46.47448133,-9.41281657,-1.36053758
-8.40137828,-2.57525337,0.07224155,-0.33397473

>  <Name>
2tob cryst

>  <RI>
0

>  <Rbt.Current_Directory>
/home/itssahil/PROJECTS/Mol_Feturizer/New_Systems/rnas/2tob

>  <Rbt.Executable>
rbdock ($Id: //depot/dev/client3/rdock/2013.1/src/exe/rbdock.cxx#4 $)

>  <Rbt.Library>
libRbt.so (2013.1, Build901 2013/11/27)

>  <Rbt.Parameter_File>
/export/apps/rDock/src/rDock_2013.1_src/data/scripts/dock_solv.prm

>  <Rbt.Receptor>
prm/blind_docking_100.prm

>  <SCORE>
-15.9384

>  <SCORE.INTER>
-14.7302

>  <SCORE.INTER.CONST>
1

>  <SCORE.INTER.POLAR>
-5.02197

>  <SCORE.INTER.ROT>
6

>  <SCORE.INTER.SOLV>
49.0157

>  <SCORE.INTER.VDW>
-17.0188

>  <SCORE.INTER.norm>
-0.460319

>  <SCORE.INTRA>
-2.73368

>  <SCORE.INTRA.DIHEDRAL>
21.7736

>  <SCORE.INTRA.DIHEDRAL.0>
18.4221

>  <SCORE.INTRA.POLAR>
0.530321

>  <SCORE.INTRA.POLAR.0>
-1.57101

>  <SCORE.INTRA.REPUL>
-0.730195

>  <SCORE.INTRA.REPUL.0>
0.730195

>  <SCORE.INTRA.SOLV>
-2.76704

>  <SCORE.INTRA.SOLV.lig_0>
-127.221

>  <SCORE.INTRA.VDW>
-10.3891

>  <SCORE.INTRA.VDW.0>
10.8385

>  <SCORE.INTRA.norm>
-0.0854275

>  <SCORE.RESTR>
1.52555

>  <SCORE.RESTR.CAVITY>
1.52555

>  <SCORE.RESTR.norm>
0.0476735

>  <SCORE.SYSTEM>
0

>  <SCORE.SYSTEM.CONST>
0

>  <SCORE.SYSTEM.DIHEDRAL>
0

>  <SCORE.SYSTEM.SOLV>
0

>  <SCORE.SYSTEM.norm>
0

>  <SCORE.heavy>
32

>  <SCORE.norm>
-0.498074

>  <RMSD>
7.985

$$$$
2tob cryst
 OpenBabel11021811463D
libRbt.so/2013.1/901 2013/11/27
 32 34  0  0  0  0  0  0  0  0999 V2000
  -13.9255   -3.7329   -8.1028 C   0  0  2  0  0  0  0  0  0  0  0  0
  -15.1313   -2.8137   -8.2697 C   0  0  1  0  0  0  0  0  0  0  0  0
  -16.2651   -3.3157   -7.3751 C   0  0  2  0  0  0  0  0  0  0  0  0
  -16.5849   -4.7868   -7.6721 C   0  0  1  0  0  0  0  0  0  0  0  0
  -15.3029   -5.6244   -7.6105 C   0  0  1  0  0  0  0  0  0  0  0  0
  -15.4807   -7.0739   -8.0316 C   0  0  0  0  0  0  0  0  0  0  0  0
  -14.7823   -1.4809   -7.9055 O   0  0  0  0  0  0  0  0  0  0  0  0
  -17.5560   -2.5577   -7.4033 N   0  3  0  0  0  0  0  0  0  0  0  0
  -17.5190   -5.2602   -6.7101 O   0  0  0  0  0  0  0  0  0  0  0  0
  -14.2982   -5.0480   -8.4688 O   0  0  0  0  0  0  0  0  0  0  0  0
  -14.2563   -7.7908   -7.9105 O   0  0  0  0  0  0  0  0  0  0  0  0
  -12.4696   -2.6059   -4.8729 C   0  0  2  0  0  0  0  0  0  0  0  0
  -11.2694   -1.8162   -4.3336 C   0  0  0  0  0  0  0  0  0  0  0  0
   -9.9525   -2.2709   -4.9567 C   0  0  1  0  0  0  0  0  0  0  0  0
  -10.0621   -2.1314   -6.4688 C   0  0  2  0  0  0  0  0  0  0  0  0
  -11.1513   -3.0722   -6.9900 C   0  0  1  0  0  0  0  0  0  0  0  0
  -12.5221   -2.6862   -6.4068 C   0  0  1  0  0  0  0  0  0  0  0  0
  -13.7575   -2.0184   -4.3714 N   0  3  0  0  0  0  0  0  0  0  0  0
   -8.7996   -1.4792   -4.4161 N   0  3  0  0  0  0  0  0  0  0  0  0
  -11.1856   -3.0123   -8.4103 O   0  0  0  0  0  0  0  0  0  0  0  0
   -8.8040   -2.4400   -7.0961 O   0  0  0  0  0  0  0  0  0  0  0  0
  -13.5031   -3.6811   -6.7669 O   0  0  0  0  0  0  0  0  0  0  0  0
   -8.7065   -1.9679   -8.4115 C   0  0  2  0  0  0  0  0  0  0  0  0
   -7.2335   -1.7886   -8.7937 C   0  0  1  0  0  0  0  0  0  0  0  0
   -6.6379   -0.5529   -8.1187 C   0  0  0  0  0  0  0  0  0  0  0  0
   -7.5166    0.6491   -8.4252 C   0  0  1  0  0  0  0  0  0  0  0  0
   -8.9263    0.3763   -7.9304 C   0  0  1  0  0  0  0  0  0  0  0  0
   -9.8534    1.5468   -8.2035 C   0  0  0  0  0  0  0  0  0  0  0  0
   -6.4590   -3.0012   -8.3770 N   0  3  0  0  0  0  0  0  0  0  0  0
  -10.0818    1.6229   -9.6885 N   0  3  0  0  0  0  0  0  0  0  0  0
   -6.9984    1.8130   -7.7968 O   0  0  0  0  0  0  0  0  0  0  0  0
   -9.4550   -0.7737   -8.6123 O   0  0  0  0  0  0  0  0  0  0  0  0
  1  2  1  0  0  0  0
  1 22  1  1  0  0  0
  1 10  1  0  0  0  0
  2  3  1  0  0  0  0
  2  7  1  1  0  0  0
  3  4  1  0  0  0  0
  3  8  1  6  0  0  0
  4  5  1  0  0  0  0
  4  9  1  1  0  0  0
  5  6  1  6  0  0  0
  5 10  1  0  0  0  0
  6 11  1  0  0  0  0
 12 13  1  0  0  0  0
 12 17  1  0  0  0  0
 12 18  1  6  0  0  0
 13 14  1  0  0  0  0
 14 15  1  0  0  0  0
 14 19  1  1  0  0  0
 15 16  1  0  0  0  0
 15 21  1  6  0  0  0
 16 17  1  0  0  0  0
 16 20  1  6  0  0  0
 17 22  1  1  0  0  0
 23 21  1  1  0  0  0
 23 24  1  0  0  0  0
 23 32  1  0  0  0  0
 24 25  1  0  0  0  0
 24 29  1  1  0  0  0
 25 26  1  0  0  0  0
 26 27  1  0  0  0  0
 26 31  1  1  0  0  0
 27 28  1  6  0  0  0
 27 32  1  0  0  0  0
 28 30  1  0  0  0  0
M  CHG  5   8   1  18   1  19   1  29   1  30   1
M  END
>  <CHROM.1>
-89.95884835,-173.79280959,-62.75706168,-179.33348456,-178.35451627,-55.90080126
-169.35910965,58.31857506,-162.38709186,77.50584155,166.93182018,156.06238539
73.72538808,176.36687845,69.86230179,-15.05943931,-11.78264548,-2.45616953
-7.34859473,-2.62844406,0.05955528,0.00180569

>  <Name>
2tob cryst

>  <RI>
0

>  <Rbt.Current_Directory>
/home/itssahil/PROJECTS/Mol_Feturizer/New_Systems/rnas/2tob

>  <Rbt.Executable>
rbdock ($Id: //depot/dev/client3/rdock/2013.1/src/exe/rbdock.cxx#4 $)

>  <Rbt.Library>
libRbt.so (2013.1, Build901 2013/11/27)

>  <Rbt.Parameter_File>
/export/apps/rDock/src/rDock_2013.1_src/data/scripts/dock_solv.prm

>  <Rbt.Receptor>
prm/pocket_docking_5.prm

>  <SCORE>
-57.2999

>  <SCORE.INTER>
-40.4567

>  <SCORE.INTER.CONST>
1

>  <SCORE.INTER.POLAR>
-5.86684

>  <SCORE.INTER.ROT>
6

>  <SCORE.INTER.SOLV>
34.1495

>  <SCORE.INTER.VDW>
-26.3982

>  <SCORE.INTER.norm>
-1.26427

>  <SCORE.INTRA>
-16.8431

>  <SCORE.INTRA.DIHEDRAL>
-4.0422

>  <SCORE.INTRA.DIHEDRAL.0>
18.4221

>  <SCORE.INTRA.POLAR>
1.41437

>  <SCORE.INTRA.POLAR.0>
-1.57101

>  <SCORE.INTRA.REPUL>
-0.730195

>  <SCORE.INTRA.REPUL.0>
0.730195

>  <SCORE.INTRA.SOLV>
-7.50935

>  <SCORE.INTRA.SOLV.lig_0>
-127.221

>  <SCORE.INTRA.VDW>
-12.2253

>  <SCORE.INTRA.VDW.0>
10.8385

>  <SCORE.INTRA.norm>
-0.526348

>  <SCORE.RESTR>
0

>  <SCORE.RESTR.CAVITY>
0

>  <SCORE.RESTR.norm>
0

>  <SCORE.SYSTEM>
0

>  <SCORE.SYSTEM.CONST>
0

>  <SCORE.SYSTEM.DIHEDRAL>
0

>  <SCORE.SYSTEM.SOLV>
0

>  <SCORE.SYSTEM.norm>
0

>  <SCORE.heavy>
32

>  <SCORE.norm>
-1.79062

>  <RMSD>
8.003

$$$$
2tob cryst
 OpenBabel11021811463D
libRbt.so/2013.1/901 2013/11/27
 32 34  0  0  0  0  0  0  0  0999 V2000
  -11.4271   -6.2919   -7.6487 C   0  0  2  0  0  0  0  0  0  0  0  0
  -12.3929   -5.9542   -8.7802 C   0  0  1  0  0  0  0  0  0  0  0  0
  -13.8095   -6.3416   -8.3550 C   0  0  2  0  0  0  0  0  0  0  0  0
  -13.8696   -7.8157   -7.9332 C   0  0  1  0  0  0  0  0  0  0  0  0
  -12.7864   -8.1062   -6.8886 C   0  0  1  0  0  0  0  0  0  0  0  0
  -12.6612   -9.5721   -6.5069 C   0  0  0  0  0  0  0  0  0  0  0  0
  -12.3387   -4.5595   -9.0673 O   0  0  0  0  0  0  0  0  0  0  0  0
  -14.9151   -6.1069   -9.3371 N   0  3  0  0  0  0  0  0  0  0  0  0
  -15.1541   -8.0883   -7.3873 O   0  0  0  0  0  0  0  0  0  0  0  0
  -11.5010   -7.6798   -7.3826 O   0  0  0  0  0  0  0  0  0  0  0  0
  -13.9109  -10.0879   -6.0597 O   0  0  0  0  0  0  0  0  0  0  0  0
  -12.0957   -3.5184   -5.2461 C   0  0  2  0  0  0  0  0  0  0  0  0
  -11.6835   -2.0572   -5.0220 C   0  0  0  0  0  0  0  0  0  0  0  0
  -10.1886   -1.8397   -5.2393 C   0  0  1  0  0  0  0  0  0  0  0  0
   -9.8356   -2.2961   -6.6483 C   0  0  2  0  0  0  0  0  0  0  0  0
  -10.0916   -3.7999   -6.7762 C   0  0  1  0  0  0  0  0  0  0  0  0
  -11.5837   -4.1129   -6.5675 C   0  0  1  0  0  0  0  0  0  0  0  0
  -13.5899   -3.6599   -5.1946 N   0  3  0  0  0  0  0  0  0  0  0  0
   -9.8160   -0.4040   -5.0195 N   0  3  0  0  0  0  0  0  0  0  0  0
   -9.6703   -4.2419   -8.0604 O   0  0  0  0  0  0  0  0  0  0  0  0
   -8.4571   -2.0049   -6.9421 O   0  0  0  0  0  0  0  0  0  0  0  0
  -11.7802   -5.5415   -6.5183 O   0  0  0  0  0  0  0  0  0  0  0  0
   -8.1922   -1.8874   -8.3127 C   0  0  2  0  0  0  0  0  0  0  0  0
   -6.7403   -1.4470   -8.5276 C   0  0  1  0  0  0  0  0  0  0  0  0
   -6.5592    0.0322   -8.1860 C   0  0  0  0  0  0  0  0  0  0  0  0
   -7.5833    0.8468   -8.9597 C   0  0  1  0  0  0  0  0  0  0  0  0
   -8.9784    0.3651   -8.6016 C   0  0  1  0  0  0  0  0  0  0  0  0
  -10.0492    1.1468   -9.3408 C   0  0  0  0  0  0  0  0  0  0  0  0
   -5.8364   -2.2688   -7.6610 N   0  3  0  0  0  0  0  0  0  0  0  0
  -11.3849    0.5470   -8.9958 N   0  3  0  0  0  0  0  0  0  0  0  0
   -7.4522    2.2271   -8.6507 O   0  0  0  0  0  0  0  0  0  0  0  0
   -9.1115   -1.0191   -8.9667 O   0  0  0  0  0  0  0  0  0  0  0  0
  1  2  1  0  0  0  0
  1 22  1  1  0  0  0
  1 10  1  0  0  0  0
  2  3  1  0  0  0  0
  2  7  1  1  0  0  0
  3  4  1  0  0  0  0
  3  8  1  6  0  0  0
  4  5  1  0  0  0  0
  4  9  1  1  0  0  0
  5  6  1  6  0  0  0
  5 10  1  0  0  0  0
  6 11  1  0  0  0  0
 12 13  1  0  0  0  0
 12 17  1  0  0  0  0
 12 18  1  6  0  0  0
 13 14  1  0  0  0  0
 14 15  1  0  0  0  0
 14 19  1  6  0  0  0
 15 16  1  0  0  0  0
 15 21  1  1  0  0  0
 16 17  1  0  0  0  0
 16 20  1  6  0  0  0
 17 22  1  1  0  0  0
 23 21  1  1  0  0  0
 23 24  1  0  0  0  0
 23 32  1  0  0  0  0
 24 25  1  0  0  0  0
 24 29  1  1  0  0  0
 25 26  1  0  0  0  0
 26 27  1  0  0  0  0
 26 31  1  1  0  0  0
 27 28  1  6  0  0  0
 27 32  1  0  0  0  0
 28 30  1  0  0  0  0
M  CHG  5   8   1  18   1  19   1  29   1  30   1
M  END
>  <CHROM.1>
-68.40258978,56.85668344,-56.83830868,-171.47559477,-55.33673487,-176.13528586
-62.43374176,50.66710704,-155.94878816,73.65774621,177.67160774,174.61012418
27.73310932,63.40087232,176.39334988,-49.01177229,-10.82516362,-3.62017973
-7.46583897,-2.17041333,0.03214321,-0.08964093

>  <Name>
2tob cryst

>  <RI>
0

>  <Rbt.Current_Directory>
/home/itssahil/PROJECTS/Mol_Feturizer/New_Systems/rnas/2tob

>  <Rbt.Executable>
rbdock ($Id: //depot/dev/client3/rdock/2013.1/src/exe/rbdock.cxx#4 $)

>  <Rbt.Library>
libRbt.so (2013.1, Build901 2013/11/27)

>  <Rbt.Parameter_File>
/export/apps/rDock/src/rDock_2013.1_src/data/scripts/dock_solv.prm

>  <Rbt.Receptor>
prm/pocket_docking_5.prm

>  <SCORE>
-67.3256

>  <SCORE.INTER>
-42.2266

>  <SCORE.INTER.CONST>
1

>  <SCORE.INTER.POLAR>
-6.53331

>  <SCORE.INTER.ROT>
6

>  <SCORE.INTER.SOLV>
31.8247

>  <SCORE.INTER.VDW>
-24.5816

>  <SCORE.INTER.norm>
-1.31958

>  <SCORE.INTRA>
-25.099

>  <SCORE.INTRA.DIHEDRAL>
-11.0988

>  <SCORE.INTRA.DIHEDRAL.0>
18.4221

>  <SCORE.INTRA.POLAR>
0.135611

>  <SCORE.INTRA.POLAR.0>
-1.57101

>  <SCORE.INTRA.REPUL>
-0.730195

>  <SCORE.INTRA.REPUL.0>
0.730195

>  <SCORE.INTRA.SOLV>
-7.38498

>  <SCORE.INTRA.SOLV.lig_0>
-127.221

>  <SCORE.INTRA.VDW>
-12.6672

>  <SCORE.INTRA.VDW.0>
10.8385

>  <SCORE.INTRA.norm>
-0.784343

>  <SCORE.RESTR>
0

>  <SCORE.RESTR.CAVITY>
0

>  <SCORE.RESTR.norm>
0

>  <SCORE.SYSTEM>
0

>  <SCORE.SYSTEM.CONST>
0

>  <SCORE.SYSTEM.DIHEDRAL>
0

>  <SCORE.SYSTEM.SOLV>
0

>  <SCORE.SYSTEM.norm>
0

>  <SCORE.heavy>
32

>  <SCORE.norm>
-2.10392

>  <RMSD>
8.003

$$$$
2tob cryst
 OpenBabel11021811463D
libRbt.so/2013.1/901 2013/11/27
 32 34  0  0  0  0  0  0  0  0999 V2000
  -12.8124   -5.9599   -5.7251 C   0  0  2  0  0  0  0  0  0  0  0  0
  -13.2956   -7.1021   -4.8368 C   0  0  1  0  0  0  0  0  0  0  0  0
  -12.0946   -7.9569   -4.4311 C   0  0  2  0  0  0  0  0  0  0  0  0
  -11.3259   -8.4410   -5.6677 C   0  0  1  0  0  0  0  0  0  0  0  0
  -10.9877   -7.2516   -6.5731 C   0  0  1  0  0  0  0  0  0  0  0  0
  -10.3522   -7.6348   -7.8996 C   0  0  0  0  0  0  0  0  0  0  0  0
  -13.9318   -6.5793   -3.6737 O   0  0  0  0  0  0  0  0  0  0  0  0
  -12.3557   -9.1501   -3.5652 N   0  3  0  0  0  0  0  0  0  0  0  0
  -10.1296   -9.0839   -5.2460 O   0  0  0  0  0  0  0  0  0  0  0  0
  -12.1845   -6.5048   -6.8702 O   0  0  0  0  0  0  0  0  0  0  0  0
  -11.1140   -8.6444   -8.5537 O   0  0  0  0  0  0  0  0  0  0  0  0
  -11.8756   -2.8432   -4.3466 C   0  0  2  0  0  0  0  0  0  0  0  0
  -11.3234   -1.4382   -4.6224 C   0  0  0  0  0  0  0  0  0  0  0  0
   -9.8700   -1.4705   -5.0871 C   0  0  1  0  0  0  0  0  0  0  0  0
   -9.7815   -2.3450   -6.3302 C   0  0  2  0  0  0  0  0  0  0  0  0
  -10.1678   -3.7820   -5.9711 C   0  0  1  0  0  0  0  0  0  0  0  0
  -11.6270   -3.8435   -5.4866 C   0  0  1  0  0  0  0  0  0  0  0  0
  -13.3489   -2.7855   -4.0615 N   0  3  0  0  0  0  0  0  0  0  0  0
   -9.3594   -0.0862   -5.3542 N   0  3  0  0  0  0  0  0  0  0  0  0
   -9.9910   -4.6159   -7.1093 O   0  0  0  0  0  0  0  0  0  0  0  0
   -8.4492   -2.3150   -6.8740 O   0  0  0  0  0  0  0  0  0  0  0  0
  -11.9209   -5.1659   -4.9899 O   0  0  0  0  0  0  0  0  0  0  0  0
   -8.4196   -2.2168   -8.2712 C   0  0  2  0  0  0  0  0  0  0  0  0
   -6.9696   -2.1193   -8.7568 C   0  0  1  0  0  0  0  0  0  0  0  0
   -6.3870   -0.7350   -8.4707 C   0  0  0  0  0  0  0  0  0  0  0  0
   -7.3151    0.3207   -9.0496 C   0  0  1  0  0  0  0  0  0  0  0  0
   -8.6945    0.1650   -8.4334 C   0  0  1  0  0  0  0  0  0  0  0  0
   -9.6686    1.1985   -8.9693 C   0  0  0  0  0  0  0  0  0  0  0  0
   -6.1408   -3.1571   -8.0642 N   0  3  0  0  0  0  0  0  0  0  0  0
  -11.0607    0.6497   -8.8153 N   0  3  0  0  0  0  0  0  0  0  0  0
   -6.8094    1.6216   -8.7853 O   0  0  0  0  0  0  0  0  0  0  0  0
   -9.2132   -1.1373   -8.7524 O   0  0  0  0  0  0  0  0  0  0  0  0
  1  2  1  0  0  0  0
  1 22  1  1  0  0  0
  1 10  1  0  0  0  0
  2  3  1  0  0  0  0
  2  7  1  1  0  0  0
  3  4  1  0  0  0  0
  3  8  1  6  0  0  0
  4  5  1  0  0  0  0
  4  9  1  1  0  0  0
  5  6  1  6  0  0  0
  5 10  1  0  0  0  0
  6 11  1  0  0  0  0
 12 13  1  0  0  0  0
 12 17  1  0  0  0  0
 12 18  1  6  0  0  0
 13 14  1  0  0  0  0
 14 15  1  0  0  0  0
 14 19  1  6  0  0  0
 15 16  1  0  0  0  0
 15 21  1  1  0  0  0
 16 17  1  0  0  0  0
 16 20  1  6  0  0  0
 17 22  1  1  0  0  0
 23 21  1  1  0  0  0
 23 24  1  0  0  0  0
 23 32  1  0  0  0  0
 24 25  1  0  0  0  0
 24 29  1  1  0  0  0
 25 26  1  0  0  0  0
 26 27  1  0  0  0  0
 26 31  1  1  0  0  0
 27 28  1  6  0  0  0
 27 32  1  0  0  0  0
 28 30  1  0  0  0  0
M  CHG  5   8   1  18   1  19   1  29   1  30   1
M  END
>  <CHROM.1>
-163.17042702,176.92877045,-179.48086710,177.45457053,50.31613169,-70.89213915
179.72149696,-172.26317010,-137.73097585,58.06167590,127.38331166,177.12861103
-41.95569207,171.69398660,155.66532068,-34.35746364,-10.29077853,-3.78927731
-6.54667669,2.17931444,-0.71288635,-3.09229753

>  <Name>
2tob cryst

>  <RI>
0

>  <Rbt.Current_Directory>
/home/itssahil/PROJECTS/Mol_Feturizer/New_Systems/rnas/2tob

>  <Rbt.Executable>
rbdock ($Id: //depot/dev/client3/rdock/2013.1/src/exe/rbdock.cxx#4 $)

>  <Rbt.Library>
libRbt.so (2013.1, Build901 2013/11/27)

>  <Rbt.Parameter_File>
/export/apps/rDock/src/rDock_2013.1_src/data/scripts/dock_solv.prm

>  <Rbt.Receptor>
prm/pocket_docking_5.prm

>  <SCORE>
-58.8892

>  <SCORE.INTER>
-41.6991

>  <SCORE.INTER.CONST>
1

>  <SCORE.INTER.POLAR>
-6.37626

>  <SCORE.INTER.ROT>
6

>  <SCORE.INTER.SOLV>
30.1417

>  <SCORE.INTER.VDW>
-24.1924

>  <SCORE.INTER.norm>
-1.3031

>  <SCORE.INTRA>
-17.1901

>  <SCORE.INTRA.DIHEDRAL>
1.31632

>  <SCORE.INTRA.DIHEDRAL.0>
18.4221

>  <SCORE.INTRA.POLAR>
1.09723

>  <SCORE.INTRA.POLAR.0>
-1.57101

>  <SCORE.INTRA.REPUL>
-0.730195

>  <SCORE.INTRA.REPUL.0>
0.730195

>  <SCORE.INTRA.SOLV>
-3.93322

>  <SCORE.INTRA.SOLV.lig_0>
-127.221

>  <SCORE.INTRA.VDW>
-15.9613

>  <SCORE.INTRA.VDW.0>
10.8385

>  <SCORE.INTRA.norm>
-0.537191

>  <SCORE.RESTR>
0

>  <SCORE.RESTR.CAVITY>
0

>  <SCORE.RESTR.norm>
0

>  <SCORE.SYSTEM>
0

>  <SCORE.SYSTEM.CONST>
0

>  <SCORE.SYSTEM.DIHEDRAL>
0

>  <SCORE.SYSTEM.SOLV>
0

>  <SCORE.SYSTEM.norm>
0

>  <SCORE.heavy>
32

>  <SCORE.norm>
-1.84029

>  <RMSD>
8.022

$$$$
2tob cryst
 OpenBabel11021811463D
libRbt.so/2013.1/901 2013/11/27
 32 34  0  0  0  0  0  0  0  0999 V2000
  -12.8574   -2.3798   -6.3050 C   0  0  2  0  0  0  0  0  0  0  0  0
  -14.3155   -2.8195   -6.3915 C   0  0  1  0  0  0  0  0  0  0  0  0
  -14.7631   -2.7679   -7.8525 C   0  0  2  0  0  0  0  0  0  0  0  0
  -14.5185   -1.3759   -8.4501 C   0  0  1  0  0  0  0  0  0  0  0  0
  -13.0655   -0.9511   -8.2110 C   0  0  1  0  0  0  0  0  0  0  0  0
  -12.7516    0.4743   -8.6351 C   0  0  0  0  0  0  0  0  0  0  0  0
  -14.4552   -4.1459   -5.8897 O   0  0  0  0  0  0  0  0  0  0  0  0
  -16.1792   -3.1477   -8.1561 N   0  3  0  0  0  0  0  0  0  0  0  0
  -14.7870   -1.4183   -9.8459 O   0  0  0  0  0  0  0  0  0  0  0  0
  -12.7457   -1.0625   -6.8097 O   0  0  0  0  0  0  0  0  0  0  0  0
  -11.4602    0.5534   -9.2299 O   0  0  0  0  0  0  0  0  0  0  0  0
  -10.0319   -4.4854   -7.4635 C   0  0  2  0  0  0  0  0  0  0  0  0
   -8.5133   -4.4208   -7.6752 C   0  0  0  0  0  0  0  0  0  0  0  0
   -8.0934   -3.1870   -8.4694 C   0  0  1  0  0  0  0  0  0  0  0  0
   -8.5951   -1.9498   -7.7375 C   0  0  2  0  0  0  0  0  0  0  0  0
  -10.1255   -1.9616   -7.7063 C   0  0  1  0  0  0  0  0  0  0  0  0
  -10.6398   -3.1817   -6.9223 C   0  0  1  0  0  0  0  0  0  0  0  0
  -10.3889   -5.6114   -6.5363 N   0  3  0  0  0  0  0  0  0  0  0  0
   -6.6062   -3.1473   -8.6557 N   0  3  0  0  0  0  0  0  0  0  0  0
  -10.5938   -0.7591   -7.1090 O   0  0  0  0  0  0  0  0  0  0  0  0
   -8.1255   -0.7545   -8.3873 O   0  0  0  0  0  0  0  0  0  0  0  0
  -12.0742   -3.2737   -7.0489 O   0  0  0  0  0  0  0  0  0  0  0  0
   -7.0418   -0.1538   -7.7334 C   0  0  2  0  0  0  0  0  0  0  0  0
   -7.3641    1.3129   -7.4288 C   0  0  1  0  0  0  0  0  0  0  0  0
   -7.2981    2.1641   -8.6971 C   0  0  0  0  0  0  0  0  0  0  0  0
   -5.9531    1.9438   -9.3704 C   0  0  1  0  0  0  0  0  0  0  0  0
   -5.7895    0.4677   -9.6881 C   0  0  1  0  0  0  0  0  0  0  0  0
   -4.4631    0.1838  -10.3694 C   0  0  0  0  0  0  0  0  0  0  0  0
   -8.7377    1.4097   -6.8393 N   0  3  0  0  0  0  0  0  0  0  0  0
   -4.4068    0.9954  -11.6347 N   0  3  0  0  0  0  0  0  0  0  0  0
   -5.8667    2.7096  -10.5637 O   0  0  0  0  0  0  0  0  0  0  0  0
   -5.8286   -0.2885   -8.4660 O   0  0  0  0  0  0  0  0  0  0  0  0
  1  2  1  0  0  0  0
  1 22  1  6  0  0  0
  1 10  1  0  0  0  0
  2  3  1  0  0  0  0
  2  7  1  6  0  0  0
  3  4  1  0  0  0  0
  3  8  1  1  0  0  0
  4  5  1  0  0  0  0
  4  9  1  6  0  0  0
  5  6  1  1  0  0  0
  5 10  1  0  0  0  0
  6 11  1  0  0  0  0
 12 13  1  0  0  0  0
 12 17  1  0  0  0  0
 12 18  1  1  0  0  0
 13 14  1  0  0  0  0
 14 15  1  0  0  0  0
 14 19  1  1  0  0  0
 15 16  1  0  0  0  0
 15 21  1  6  0  0  0
 16 17  1  0  0  0  0
 16 20  1  1  0  0  0
 17 22  1  6  0  0  0
 23 21  1  6  0  0  0
 23 24  1  0  0  0  0
 23 32  1  0  0  0  0
 24 25  1  0  0  0  0
 24 29  1  6  0  0  0
 25 26  1  0  0  0  0
 26 27  1  0  0  0  0
 26 31  1  6  0  0  0
 27 28  1  1  0  0  0
 27 32  1  0  0  0  0
 28 30  1  0  0  0  0
M  CHG  5   8   1  18   1  19   1  29   1  30   1
M  END
>  <CHROM.1>
-169.72115180,65.53625576,-35.42922023,25.00695775,-141.17169623,144.90335530
-47.41646832,87.18063873,-101.98806659,-68.88315746,163.09173384,-125.51499735
-163.22285657,-22.48286292,-58.71633461,149.72289978,-9.96816491,-1.27466334
-8.15359125,-2.67526855,0.09066945,-0.35864609

>  <Name>
2tob cryst

>  <RI>
0

>  <Rbt.Current_Directory>
/home/itssahil/PROJECTS/Mol_Feturizer/New_Systems/rnas/2tob

>  <Rbt.Executable>
rbdock ($Id: //depot/dev/client3/rdock/2013.1/src/exe/rbdock.cxx#4 $)

>  <Rbt.Library>
libRbt.so (2013.1, Build901 2013/11/27)

>  <Rbt.Parameter_File>
/export/apps/rDock/src/rDock_2013.1_src/data/scripts/dock_solv.prm

>  <Rbt.Receptor>
prm/blind_docking_100.prm

>  <SCORE>
-44.4693

>  <SCORE.INTER>
-47.8644

>  <SCORE.INTER.CONST>
1

>  <SCORE.INTER.POLAR>
-6.1333

>  <SCORE.INTER.ROT>
6

>  <SCORE.INTER.SOLV>
36.9265

>  <SCORE.INTER.VDW>
-31.3741

>  <SCORE.INTER.norm>
-1.49576

>  <SCORE.INTRA>
-1.43349

>  <SCORE.INTRA.DIHEDRAL>
20.275

>  <SCORE.INTRA.DIHEDRAL.0>
18.4221

>  <SCORE.INTRA.POLAR>
-1.01408

>  <SCORE.INTRA.POLAR.0>
-1.57101

>  <SCORE.INTRA.REPUL>
-0.260393

>  <SCORE.INTRA.REPUL.0>
0.730195

>  <SCORE.INTRA.SOLV>
-0.315973

>  <SCORE.INTRA.SOLV.lig_0>
-127.221

>  <SCORE.INTRA.VDW>
-6.66313

>  <SCORE.INTRA.VDW.0>
10.8385

>  <SCORE.INTRA.norm>
-0.0447966

>  <SCORE.RESTR>
4.82855

>  <SCORE.RESTR.CAVITY>
4.82855

>  <SCORE.RESTR.norm>
0.150892

>  <SCORE.SYSTEM>
0

>  <SCORE.SYSTEM.CONST>
0

>  <SCORE.SYSTEM.DIHEDRAL>
0

>  <SCORE.SYSTEM.SOLV>
0

>  <SCORE.SYSTEM.norm>
0

>  <SCORE.heavy>
32

>  <SCORE.norm>
-1.38967

>  <RMSD>
8.023

$$$$
2tob cryst
 OpenBabel11021811463D
libRbt.so/2013.1/901 2013/11/27
 32 34  0  0  0  0  0  0  0  0999 V2000
  -12.3580   -4.1952   -7.7102 C   0  0  2  0  0  0  0  0  0  0  0  0
  -13.6132   -3.8034   -8.4834 C   0  0  1  0  0  0  0  0  0  0  0  0
  -13.5876   -2.2962   -8.7394 C   0  0  2  0  0  0  0  0  0  0  0  0
  -13.4249   -1.5215   -7.4249 C   0  0  1  0  0  0  0  0  0  0  0  0
  -12.2191   -2.0585   -6.6461 C   0  0  1  0  0  0  0  0  0  0  0  0
  -12.0514   -1.4591   -5.2595 C   0  0  0  0  0  0  0  0  0  0  0  0
  -13.6602   -4.5037   -9.7236 O   0  0  0  0  0  0  0  0  0  0  0  0
  -14.7471   -1.6997   -9.4752 N   0  3  0  0  0  0  0  0  0  0  0  0
  -13.2353   -0.1435   -7.7210 O   0  0  0  0  0  0  0  0  0  0  0  0
  -12.3347   -3.4864   -6.4856 O   0  0  0  0  0  0  0  0  0  0  0  0
  -10.6806   -1.1849   -4.9882 O   0  0  0  0  0  0  0  0  0  0  0  0
   -9.0138   -4.2987   -7.6508 C   0  0  2  0  0  0  0  0  0  0  0  0
   -7.6548   -3.7067   -7.2533 C   0  0  0  0  0  0  0  0  0  0  0  0
   -7.2355   -2.5594   -8.1683 C   0  0  1  0  0  0  0  0  0  0  0  0
   -8.3242   -1.4956   -8.1361 C   0  0  2  0  0  0  0  0  0  0  0  0
   -9.6197   -2.0745   -8.7104 C   0  0  1  0  0  0  0  0  0  0  0  0
  -10.1168   -3.2465   -7.8460 C   0  0  1  0  0  0  0  0  0  0  0  0
   -9.4719   -5.3017   -6.6313 N   0  3  0  0  0  0  0  0  0  0  0  0
   -5.9087   -1.9975   -7.7533 N   0  3  0  0  0  0  0  0  0  0  0  0
  -10.6067   -1.0526   -8.7696 O   0  0  0  0  0  0  0  0  0  0  0  0
   -7.9228   -0.3402   -8.8947 O   0  0  0  0  0  0  0  0  0  0  0  0
  -11.2353   -3.8892   -8.4923 O   0  0  0  0  0  0  0  0  0  0  0  0
   -7.0110    0.4810   -8.2188 C   0  0  2  0  0  0  0  0  0  0  0  0
   -7.4587    1.9436   -8.3105 C   0  0  1  0  0  0  0  0  0  0  0  0
   -7.2030    2.5093   -9.7077 C   0  0  0  0  0  0  0  0  0  0  0  0
   -5.7472    2.2743  -10.0767 C   0  0  1  0  0  0  0  0  0  0  0  0
   -5.4522    0.7854  -10.0223 C   0  0  1  0  0  0  0  0  0  0  0  0
   -4.0099    0.4852  -10.3879 C   0  0  0  0  0  0  0  0  0  0  0  0
   -8.9208    2.0380   -7.9989 N   0  3  0  0  0  0  0  0  0  0  0  0
   -4.0052   -0.2390  -11.7065 N   0  3  0  0  0  0  0  0  0  0  0  0
   -5.4808    2.7746  -11.3793 O   0  0  0  0  0  0  0  0  0  0  0  0
   -5.6779    0.3049   -8.6863 O   0  0  0  0  0  0  0  0  0  0  0  0
  1  2  1  0  0  0  0
  1 22  1  6  0  0  0
  1 10  1  0  0  0  0
  2  3  1  0  0  0  0
  2  7  1  6  0  0  0
  3  4  1  0  0  0  0
  3  8  1  1  0  0  0
  4  5  1  0  0  0  0
  4  9  1  6  0  0  0
  5  6  1  1  0  0  0
  5 10  1  0  0  0  0
  6 11  1  0  0  0  0
 12 13  1  0  0  0  0
 12 17  1  0  0  0  0
 12 18  1  1  0  0  0
 13 14  1  0  0  0  0
 14 15  1  0  0  0  0
 14 19  1  1  0  0  0
 15 16  1  0  0  0  0
 15 21  1  6  0  0  0
 16 17  1  0  0  0  0
 16 20  1  1  0  0  0
 17 22  1  6  0  0  0
 23 21  1  6  0  0  0
 23 24  1  0  0  0  0
 23 32  1  0  0  0  0
 24 25  1  0  0  0  0
 24 29  1  6  0  0  0
 25 26  1  0  0  0  0
 26 27  1  0  0  0  0
 26 31  1  6  0  0  0
 27 28  1  1  0  0  0
 27 32  1  0  0  0  0
 28 30  1  0  0  0  0
M  CHG  5   8   1  18   1  19   1  29   1  30   1
M  END
>  <CHROM.1>
135.84730724,66.40223287,63.35838504,-64.32380755,-138.73592228,-57.83868498
-161.35945035,50.67542045,-77.56806949,86.05033471,104.47430556,-132.32003845
-171.84804172,-79.57379555,-111.70582399,40.50526360,-9.38381160,-1.33514049
-8.37700528,-2.58828442,0.12112279,-0.30134468

>  <Name>
2tob cryst

>  <RI>
0

>  <Rbt.Current_Directory>
/home/itssahil/PROJECTS/Mol_Feturizer/New_Systems/rnas/2tob

>  <Rbt.Executable>
rbdock ($Id: //depot/dev/client3/rdock/2013.1/src/exe/rbdock.cxx#4 $)

>  <Rbt.Library>
libRbt.so (2013.1, Build901 2013/11/27)

>  <Rbt.Parameter_File>
/export/apps/rDock/src/rDock_2013.1_src/data/scripts/dock_solv.prm

>  <Rbt.Receptor>
prm/blind_docking_80.prm

>  <SCORE>
-19.8632

>  <SCORE.INTER>
-14.1584

>  <SCORE.INTER.CONST>
1

>  <SCORE.INTER.POLAR>
-4.33501

>  <SCORE.INTER.ROT>
6

>  <SCORE.INTER.SOLV>
48.2702

>  <SCORE.INTER.VDW>
-18.679

>  <SCORE.INTER.norm>
-0.442449

>  <SCORE.INTRA>
-9.14315

>  <SCORE.INTRA.DIHEDRAL>
17.7079

>  <SCORE.INTRA.DIHEDRAL.0>
18.4221

>  <SCORE.INTRA.POLAR>
-0.135529

>  <SCORE.INTRA.POLAR.0>
-1.57101

>  <SCORE.INTRA.REPUL>
-0.730195

>  <SCORE.INTRA.REPUL.0>
0.730195

>  <SCORE.INTRA.SOLV>
-2.77642

>  <SCORE.INTRA.SOLV.lig_0>
-127.221

>  <SCORE.INTRA.VDW>
-12.4971

>  <SCORE.INTRA.VDW.0>
10.8385

>  <SCORE.INTRA.norm>
-0.285723

>  <SCORE.RESTR>
3.43828

>  <SCORE.RESTR.CAVITY>
3.43828

>  <SCORE.RESTR.norm>
0.107446

>  <SCORE.SYSTEM>
0

>  <SCORE.SYSTEM.CONST>
0

>  <SCORE.SYSTEM.DIHEDRAL>
0

>  <SCORE.SYSTEM.SOLV>
0

>  <SCORE.SYSTEM.norm>
0

>  <SCORE.heavy>
32

>  <SCORE.norm>
-0.620726

>  <RMSD>
8.026

$$$$
2tob cryst
 OpenBabel11021811463D
libRbt.so/2013.1/901 2013/11/27
 32 34  0  0  0  0  0  0  0  0999 V2000
  -10.2201   -1.7920   -7.5314 C   0  0  2  0  0  0  0  0  0  0  0  0
  -11.5133   -1.1175   -7.9781 C   0  0  1  0  0  0  0  0  0  0  0  0
  -11.2101    0.3314   -8.3610 C   0  0  2  0  0  0  0  0  0  0  0  0
  -10.5155    1.0675   -7.2076 C   0  0  1  0  0  0  0  0  0  0  0  0
   -9.3005    0.2646   -6.7300 C   0  0  1  0  0  0  0  0  0  0  0  0
   -8.6221    0.8309   -5.4935 C   0  0  0  0  0  0  0  0  0  0  0  0
  -12.0621   -1.8085   -9.0970 O   0  0  0  0  0  0  0  0  0  0  0  0
  -12.3563    1.1813   -8.8147 N   0  3  0  0  0  0  0  0  0  0  0  0
  -10.1005    2.3498   -7.6610 O   0  0  0  0  0  0  0  0  0  0  0  0
   -9.6956   -1.0872   -6.4220 O   0  0  0  0  0  0  0  0  0  0  0  0
   -9.1288    0.2185   -4.3120 O   0  0  0  0  0  0  0  0  0  0  0  0
   -7.4280   -3.2785   -8.7388 C   0  0  2  0  0  0  0  0  0  0  0  0
   -5.9008   -3.4271   -8.7628 C   0  0  0  0  0  0  0  0  0  0  0  0
   -5.2225   -2.2917   -9.5244 C   0  0  1  0  0  0  0  0  0  0  0  0
   -5.6321   -0.9717   -8.8858 C   0  0  2  0  0  0  0  0  0  0  0  0
   -7.1421   -0.7760   -9.0434 C   0  0  1  0  0  0  0  0  0  0  0  0
   -7.9101   -1.8855   -8.3038 C   0  0  1  0  0  0  0  0  0  0  0  0
   -8.0454   -4.3107   -7.8396 N   0  3  0  0  0  0  0  0  0  0  0  0
   -3.7325   -2.4597   -9.5266 N   0  3  0  0  0  0  0  0  0  0  0  0
   -7.5075    0.5002   -8.5335 O   0  0  0  0  0  0  0  0  0  0  0  0
   -4.9275    0.1243   -9.4972 O   0  0  0  0  0  0  0  0  0  0  0  0
   -9.3179   -1.7881   -8.6045 O   0  0  0  0  0  0  0  0  0  0  0  0
   -5.3885    0.4354  -10.7830 C   0  0  2  0  0  0  0  0  0  0  0  0
   -4.2285    0.9466  -11.6438 C   0  0  1  0  0  0  0  0  0  0  0  0
   -3.8374    2.3706  -11.2479 C   0  0  0  0  0  0  0  0  0  0  0  0
   -5.0770    3.2499  -11.2790 C   0  0  1  0  0  0  0  0  0  0  0  0
   -6.1174    2.6801  -10.3305 C   0  0  1  0  0  0  0  0  0  0  0  0
   -7.3812    3.5208  -10.3129 C   0  0  0  0  0  0  0  0  0  0  0  0
   -3.0456    0.0436  -11.4737 N   0  3  0  0  0  0  0  0  0  0  0  0
   -8.3471    2.8887   -9.3483 N   0  3  0  0  0  0  0  0  0  0  0  0
   -4.7496    4.5789  -10.8987 O   0  0  0  0  0  0  0  0  0  0  0  0
   -6.4750    1.3549  -10.7581 O   0  0  0  0  0  0  0  0  0  0  0  0
  1  2  1  0  0  0  0
  1 22  1  6  0  0  0
  1 10  1  0  0  0  0
  2  3  1  0  0  0  0
  2  7  1  6  0  0  0
  3  4  1  0  0  0  0
  3  8  1  1  0  0  0
  4  5  1  0  0  0  0
  4  9  1  6  0  0  0
  5  6  1  1  0  0  0
  5 10  1  0  0  0  0
  6 11  1  0  0  0  0
 12 13  1  0  0  0  0
 12 17  1  0  0  0  0
 12 18  1  1  0  0  0
 13 14  1  0  0  0  0
 14 15  1  0  0  0  0
 14 19  1  1  0  0  0
 15 16  1  0  0  0  0
 15 21  1  6  0  0  0
 16 17  1  0  0  0  0
 16 20  1  1  0  0  0
 17 22  1  6  0  0  0
 23 21  1  1  0  0  0
 23 24  1  0  0  0  0
 23 32  1  0  0  0  0
 24 25  1  0  0  0  0
 24 29  1  1  0  0  0
 25 26  1  0  0  0  0
 26 27  1  0  0  0  0
 26 31  1  1  0  0  0
 27 28  1  6  0  0  0
 27 32  1  0  0  0  0
 28 30  1  0  0  0  0
M  CHG  5   8   1  18   1  19   1  29   1  30   1
M  END
>  <CHROM.1>
156.58484511,65.59592466,-132.14267278,88.97371201,93.70641402,-61.61715517
-172.13062661,-16.47411444,73.55006037,35.15822645,108.85255871,-147.53817840
-68.57602268,160.66831943,-179.77112076,-165.11285354,-7.59090974,0.07831368
-8.88769029,-2.73761608,0.44460253,-0.25010427

>  <Name>
2tob cryst

>  <RI>
0

>  <Rbt.Current_Directory>
/home/itssahil/PROJECTS/Mol_Feturizer/New_Systems/rnas/2tob

>  <Rbt.Executable>
rbdock ($Id: //depot/dev/client3/rdock/2013.1/src/exe/rbdock.cxx#4 $)

>  <Rbt.Library>
libRbt.so (2013.1, Build901 2013/11/27)

>  <Rbt.Parameter_File>
/export/apps/rDock/src/rDock_2013.1_src/data/scripts/dock_solv.prm

>  <Rbt.Receptor>
prm/blind_docking_60.prm

>  <SCORE>
83.2517

>  <SCORE.INTER>
80.0261

>  <SCORE.INTER.CONST>
1

>  <SCORE.INTER.POLAR>
-8.20423

>  <SCORE.INTER.ROT>
6

>  <SCORE.INTER.SOLV>
57.9047

>  <SCORE.INTER.VDW>
53.7966

>  <SCORE.INTER.norm>
2.50082

>  <SCORE.INTRA>
-2.39534

>  <SCORE.INTRA.DIHEDRAL>
13.6278

>  <SCORE.INTRA.DIHEDRAL.0>
18.4221

>  <SCORE.INTRA.POLAR>
0.823798

>  <SCORE.INTRA.POLAR.0>
-1.57101

>  <SCORE.INTRA.REPUL>
-0.730195

>  <SCORE.INTRA.REPUL.0>
0.730195

>  <SCORE.INTRA.SOLV>
4.99499

>  <SCORE.INTRA.SOLV.lig_0>
-127.221

>  <SCORE.INTRA.VDW>
-10.8567

>  <SCORE.INTRA.VDW.0>
10.8385

>  <SCORE.INTRA.norm>
-0.0748545

>  <SCORE.RESTR>
5.62091

>  <SCORE.RESTR.CAVITY>
5.62091

>  <SCORE.RESTR.norm>
0.175653

>  <SCORE.SYSTEM>
0

>  <SCORE.SYSTEM.CONST>
0

>  <SCORE.SYSTEM.DIHEDRAL>
0

>  <SCORE.SYSTEM.SOLV>
0

>  <SCORE.SYSTEM.norm>
0

>  <SCORE.heavy>
32

>  <SCORE.norm>
2.60161

>  <RMSD>
8.029

$$$$
2tob cryst
 OpenBabel11021811463D
libRbt.so/2013.1/901 2013/11/27
 32 34  0  0  0  0  0  0  0  0999 V2000
  -14.3261   -5.9465   -7.3333 C   0  0  2  0  0  0  0  0  0  0  0  0
  -15.3135   -6.6501   -6.4076 C   0  0  1  0  0  0  0  0  0  0  0  0
  -14.7167   -6.7127   -5.0014 C   0  0  2  0  0  0  0  0  0  0  0  0
  -13.3344   -7.3786   -5.0236 C   0  0  1  0  0  0  0  0  0  0  0  0
  -12.4420   -6.6983   -6.0675 C   0  0  1  0  0  0  0  0  0  0  0  0
  -11.0958   -7.3725   -6.2758 C   0  0  0  0  0  0  0  0  0  0  0  0
  -16.5469   -5.9369   -6.3780 O   0  0  0  0  0  0  0  0  0  0  0  0
  -15.5255   -7.3853   -3.9358 N   0  3  0  0  0  0  0  0  0  0  0  0
  -12.7452   -7.2638   -3.7344 O   0  0  0  0  0  0  0  0  0  0  0  0
  -13.1115   -6.6726   -7.3439 O   0  0  0  0  0  0  0  0  0  0  0  0
  -11.2647   -8.7207   -6.7020 O   0  0  0  0  0  0  0  0  0  0  0  0
  -14.3763   -2.3783   -7.6680 C   0  0  2  0  0  0  0  0  0  0  0  0
  -13.7176   -1.1704   -8.3480 C   0  0  0  0  0  0  0  0  0  0  0  0
  -12.2583   -1.0005   -7.9346 C   0  0  1  0  0  0  0  0  0  0  0  0
  -11.5120   -2.2859   -8.2640 C   0  0  2  0  0  0  0  0  0  0  0  0
  -12.0821   -3.4349   -7.4286 C   0  0  1  0  0  0  0  0  0  0  0  0
  -13.5607   -3.6759   -7.7805 C   0  0  1  0  0  0  0  0  0  0  0  0
  -15.7496   -2.6158   -8.2274 N   0  3  0  0  0  0  0  0  0  0  0  0
  -11.6396    0.1822   -8.6177 N   0  3  0  0  0  0  0  0  0  0  0  0
  -11.3210   -4.6125   -7.6654 O   0  0  0  0  0  0  0  0  0  0  0  0
  -10.1056   -2.1348   -7.9978 O   0  0  0  0  0  0  0  0  0  0  0  0
  -14.1286   -4.6387   -6.8681 O   0  0  0  0  0  0  0  0  0  0  0  0
   -9.3226   -2.0703   -9.1577 C   0  0  2  0  0  0  0  0  0  0  0  0
   -8.0380   -2.8832   -8.9659 C   0  0  1  0  0  0  0  0  0  0  0  0
   -7.0567   -2.1509   -8.0502 C   0  0  0  0  0  0  0  0  0  0  0  0
   -6.8360   -0.7456   -8.5860 C   0  0  1  0  0  0  0  0  0  0  0  0
   -8.1697   -0.0224   -8.6555 C   0  0  1  0  0  0  0  0  0  0  0  0
   -8.0139    1.3936   -9.1797 C   0  0  0  0  0  0  0  0  0  0  0  0
   -8.3747   -4.2139   -8.3663 N   0  3  0  0  0  0  0  0  0  0  0  0
   -9.3834    1.9207   -9.5105 N   0  3  0  0  0  0  0  0  0  0  0  0
   -5.9400   -0.0317   -7.7461 O   0  0  0  0  0  0  0  0  0  0  0  0
   -9.0475   -0.7292   -9.5482 O   0  0  0  0  0  0  0  0  0  0  0  0
  1  2  1  0  0  0  0
  1 22  1  1  0  0  0
  1 10  1  0  0  0  0
  2  3  1  0  0  0  0
  2  7  1  1  0  0  0
  3  4  1  0  0  0  0
  3  8  1  1  0  0  0
  4  5  1  0  0  0  0
  4  9  1  1  0  0  0
  5  6  1  6  0  0  0
  5 10  1  0  0  0  0
  6 11  1  0  0  0  0
 12 13  1  0  0  0  0
 12 17  1  0  0  0  0
 12 18  1  6  0  0  0
 13 14  1  0  0  0  0
 14 15  1  0  0  0  0
 14 19  1  6  0  0  0
 15 16  1  0  0  0  0
 15 21  1  1  0  0  0
 16 17  1  0  0  0  0
 16 20  1  6  0  0  0
 17 22  1  1  0  0  0
 23 21  1  1  0  0  0
 23 24  1  0  0  0  0
 23 32  1  0  0  0  0
 24 25  1  0  0  0  0
 24 29  1  1  0  0  0
 25 26  1  0  0  0  0
 26 27  1  0  0  0  0
 26 31  1  1  0  0  0
 27 28  1  6  0  0  0
 27 32  1  0  0  0  0
 28 30  1  0  0  0  0
M  CHG  5   8   1  18   1  19   1  29   1  30   1
M  END
>  <CHROM.1>
-162.04556998,178.35698195,-169.53322247,69.76873629,59.49874180,-179.28332475
177.07011915,109.96509769,-108.65530151,-42.86419268,134.84622493,-139.01415948
59.53316309,-178.04002944,167.32669961,168.94246968,-11.60782656,-3.58006853
-7.44674818,2.26369220,-0.05960187,2.75235108

>  <Name>
2tob cryst

>  <RI>
0

>  <Rbt.Current_Directory>
/home/itssahil/PROJECTS/Mol_Feturizer/New_Systems/rnas/2tob

>  <Rbt.Executable>
rbdock ($Id: //depot/dev/client3/rdock/2013.1/src/exe/rbdock.cxx#4 $)

>  <Rbt.Library>
libRbt.so (2013.1, Build901 2013/11/27)

>  <Rbt.Parameter_File>
/export/apps/rDock/src/rDock_2013.1_src/data/scripts/dock_solv.prm

>  <Rbt.Receptor>
prm/pocket_docking_3.prm

>  <SCORE>
-50.1899

>  <SCORE.INTER>
-41.1077

>  <SCORE.INTER.CONST>
1

>  <SCORE.INTER.POLAR>
-8.4337

>  <SCORE.INTER.ROT>
6

>  <SCORE.INTER.SOLV>
30.4862

>  <SCORE.INTER.VDW>
-17.0549

>  <SCORE.INTER.norm>
-1.28462

>  <SCORE.INTRA>
-10.0711

>  <SCORE.INTRA.DIHEDRAL>
7.78462

>  <SCORE.INTRA.DIHEDRAL.0>
18.4221

>  <SCORE.INTRA.POLAR>
0.828981

>  <SCORE.INTRA.POLAR.0>
-1.57101

>  <SCORE.INTRA.REPUL>
-0.730195

>  <SCORE.INTRA.REPUL.0>
0.730195

>  <SCORE.INTRA.SOLV>
3.0742

>  <SCORE.INTRA.SOLV.lig_0>
-127.221

>  <SCORE.INTRA.VDW>
-14.6681

>  <SCORE.INTRA.VDW.0>
10.8385

>  <SCORE.INTRA.norm>
-0.314723

>  <SCORE.RESTR>
0.989002

>  <SCORE.RESTR.CAVITY>
0.989002

>  <SCORE.RESTR.norm>
0.0309063

>  <SCORE.SYSTEM>
0

>  <SCORE.SYSTEM.CONST>
0

>  <SCORE.SYSTEM.DIHEDRAL>
0

>  <SCORE.SYSTEM.SOLV>
0

>  <SCORE.SYSTEM.norm>
0

>  <SCORE.heavy>
32

>  <SCORE.norm>
-1.56843

>  <RMSD>
8.035

$$$$
2tob cryst
 OpenBabel11021811463D
libRbt.so/2013.1/901 2013/11/27
 32 34  0  0  0  0  0  0  0  0999 V2000
  -12.6690   -1.5659   -8.8504 C   0  0  2  0  0  0  0  0  0  0  0  0
  -14.1666   -1.5085   -9.1348 C   0  0  1  0  0  0  0  0  0  0  0  0
  -14.8772   -2.5425   -8.2611 C   0  0  2  0  0  0  0  0  0  0  0  0
  -14.2786   -3.9396   -8.4714 C   0  0  1  0  0  0  0  0  0  0  0  0
  -12.7571   -3.8897   -8.2940 C   0  0  1  0  0  0  0  0  0  0  0  0
  -12.0449   -5.1915   -8.6228 C   0  0  0  0  0  0  0  0  0  0  0  0
  -14.6677   -0.2059   -8.8469 O   0  0  0  0  0  0  0  0  0  0  0  0
  -16.3632   -2.6617   -8.4002 N   0  3  0  0  0  0  0  0  0  0  0  0
  -14.8474   -4.8338   -7.5231 O   0  0  0  0  0  0  0  0  0  0  0  0
  -12.1971   -2.8676   -9.1426 O   0  0  0  0  0  0  0  0  0  0  0  0
  -10.7220   -5.1927   -8.0959 O   0  0  0  0  0  0  0  0  0  0  0  0
  -10.6902   -2.6437   -6.6487 C   0  0  2  0  0  0  0  0  0  0  0  0
   -9.1848   -2.8212   -6.4087 C   0  0  0  0  0  0  0  0  0  0  0  0
   -8.3470   -2.2381   -7.5433 C   0  0  1  0  0  0  0  0  0  0  0  0
   -8.7047   -0.7664   -7.6984 C   0  0  2  0  0  0  0  0  0  0  0  0
  -10.1720   -0.6396   -8.1158 C   0  0  1  0  0  0  0  0  0  0  0  0
  -11.0947   -1.2093   -7.0240 C   0  0  1  0  0  0  0  0  0  0  0  0
  -11.4721   -3.0701   -5.4395 N   0  3  0  0  0  0  0  0  0  0  0  0
   -6.8823   -2.4206   -7.2794 N   0  3  0  0  0  0  0  0  0  0  0  0
  -10.4774    0.7285   -8.3544 O   0  0  0  0  0  0  0  0  0  0  0  0
   -7.8580   -0.1426   -8.6810 O   0  0  0  0  0  0  0  0  0  0  0  0
  -12.4552   -1.2418   -7.5032 O   0  0  0  0  0  0  0  0  0  0  0  0
   -6.8143    0.6066   -8.1224 C   0  0  2  0  0  0  0  0  0  0  0  0
   -7.0742    2.1019   -8.3337 C   0  0  1  0  0  0  0  0  0  0  0  0
   -6.8205    2.5030   -9.7871 C   0  0  0  0  0  0  0  0  0  0  0  0
   -5.4281    2.0449  -10.1899 C   0  0  1  0  0  0  0  0  0  0  0  0
   -5.3249    0.5407  -10.0072 C   0  0  1  0  0  0  0  0  0  0  0  0
   -3.9541    0.0203  -10.3999 C   0  0  0  0  0  0  0  0  0  0  0  0
   -8.4938    2.4169   -7.9745 N   0  3  0  0  0  0  0  0  0  0  0  0
   -3.9074   -0.0819  -11.9001 N   0  3  0  0  0  0  0  0  0  0  0  0
   -5.1674    2.3884  -11.5435 O   0  0  0  0  0  0  0  0  0  0  0  0
   -5.5410    0.2142   -8.6239 O   0  0  0  0  0  0  0  0  0  0  0  0
  1  2  1  0  0  0  0
  1 22  1  1  0  0  0
  1 10  1  0  0  0  0
  2  3  1  0  0  0  0
  2  7  1  1  0  0  0
  3  4  1  0  0  0  0
  3  8  1  6  0  0  0
  4  5  1  0  0  0  0
  4  9  1  1  0  0  0
  5  6  1  6  0  0  0
  5 10  1  0  0  0  0
  6 11  1  0  0  0  0
 12 13  1  0  0  0  0
 12 17  1  0  0  0  0
 12 18  1  1  0  0  0
 13 14  1  0  0  0  0
 14 15  1  0  0  0  0
 14 19  1  1  0  0  0
 15 16  1  0  0  0  0
 15 21  1  6  0  0  0
 16 17  1  0  0  0  0
 16 20  1  1  0  0  0
 17 22  1  6  0  0  0
 23 21  1  6  0  0  0
 23 24  1  0  0  0  0
 23 32  1  0  0  0  0
 24 25  1  0  0  0  0
 24 29  1  6  0  0  0
 25 26  1  0  0  0  0
 26 27  1  0  0  0  0
 26 31  1  6  0  0  0
 27 28  1  1  0  0  0
 27 32  1  0  0  0  0
 28 30  1  0  0  0  0
M  CHG  5   8   1  18   1  19   1  29   1  30   1
M  END
>  <CHROM.1>
-178.76226409,-118.16292885,173.92842797,-176.66338904,-163.98231728,70.51703262
68.38426467,40.10064079,-100.85959878,-89.12925210,-84.17481837,-109.07014267
68.75133424,173.07440097,-79.23745316,114.88975201,-9.87303591,-1.19891653
-8.47884088,2.64208405,-0.05450887,2.82554973

>  <Name>
2tob cryst

>  <RI>
0

>  <Rbt.Current_Directory>
/home/itssahil/PROJECTS/Mol_Feturizer/New_Systems/rnas/2tob

>  <Rbt.Executable>
rbdock ($Id: //depot/dev/client3/rdock/2013.1/src/exe/rbdock.cxx#4 $)

>  <Rbt.Library>
libRbt.so (2013.1, Build901 2013/11/27)

>  <Rbt.Parameter_File>
/export/apps/rDock/src/rDock_2013.1_src/data/scripts/dock_solv.prm

>  <Rbt.Receptor>
prm/blind_docking_80.prm

>  <SCORE>
-37.7535

>  <SCORE.INTER>
-34.1683

>  <SCORE.INTER.CONST>
1

>  <SCORE.INTER.POLAR>
-4.45003

>  <SCORE.INTER.ROT>
6

>  <SCORE.INTER.SOLV>
39.4545

>  <SCORE.INTER.VDW>
-28.6969

>  <SCORE.INTER.norm>
-1.06776

>  <SCORE.INTRA>
-7.29995

>  <SCORE.INTRA.DIHEDRAL>
14.7437

>  <SCORE.INTRA.DIHEDRAL.0>
18.4221

>  <SCORE.INTRA.POLAR>
0.499763

>  <SCORE.INTRA.POLAR.0>
-1.57101

>  <SCORE.INTRA.REPUL>
-0.730195

>  <SCORE.INTRA.REPUL.0>
0.730195

>  <SCORE.INTRA.SOLV>
0.1467

>  <SCORE.INTRA.SOLV.lig_0>
-127.221

>  <SCORE.INTRA.VDW>
-12.7933

>  <SCORE.INTRA.VDW.0>
10.8385

>  <SCORE.INTRA.norm>
-0.228123

>  <SCORE.RESTR>
3.7147

>  <SCORE.RESTR.CAVITY>
3.7147

>  <SCORE.RESTR.norm>
0.116084

>  <SCORE.SYSTEM>
0

>  <SCORE.SYSTEM.CONST>
0

>  <SCORE.SYSTEM.DIHEDRAL>
0

>  <SCORE.SYSTEM.SOLV>
0

>  <SCORE.SYSTEM.norm>
0

>  <SCORE.heavy>
32

>  <SCORE.norm>
-1.1798

>  <RMSD>
8.052

$$$$
2tob cryst
 OpenBabel11021811463D
libRbt.so/2013.1/901 2013/11/27
 32 34  0  0  0  0  0  0  0  0999 V2000
  -13.6338   -7.0792   -7.6146 C   0  0  2  0  0  0  0  0  0  0  0  0
  -14.1804   -8.0801   -6.6014 C   0  0  1  0  0  0  0  0  0  0  0  0
  -13.2408   -8.1287   -5.3962 C   0  0  2  0  0  0  0  0  0  0  0  0
  -11.8043   -8.4416   -5.8355 C   0  0  1  0  0  0  0  0  0  0  0  0
  -11.3731   -7.4750   -6.9439 C   0  0  1  0  0  0  0  0  0  0  0  0
  -10.0170   -7.7874   -7.5551 C   0  0  0  0  0  0  0  0  0  0  0  0
  -15.4843   -7.6866   -6.1823 O   0  0  0  0  0  0  0  0  0  0  0  0
  -13.5891   -9.0700   -4.2851 N   0  3  0  0  0  0  0  0  0  0  0  0
  -10.9390   -8.3098   -4.7147 O   0  0  0  0  0  0  0  0  0  0  0  0
  -12.3400   -7.4913   -8.0131 O   0  0  0  0  0  0  0  0  0  0  0  0
   -8.9703   -7.1839   -6.8015 O   0  0  0  0  0  0  0  0  0  0  0  0
  -14.3994   -3.6351   -7.6788 C   0  0  2  0  0  0  0  0  0  0  0  0
  -14.0603   -2.2592   -8.2678 C   0  0  0  0  0  0  0  0  0  0  0  0
  -12.6910   -1.7595   -7.8154 C   0  0  1  0  0  0  0  0  0  0  0  0
  -11.6464   -2.7943   -8.2104 C   0  0  2  0  0  0  0  0  0  0  0  0
  -11.9150   -4.1016   -7.4607 C   0  0  1  0  0  0  0  0  0  0  0  0
  -13.2854   -4.6789   -7.8566 C   0  0  1  0  0  0  0  0  0  0  0  0
  -15.6680   -4.1692   -8.2794 N   0  3  0  0  0  0  0  0  0  0  0  0
  -12.3843   -0.4176   -8.4101 N   0  3  0  0  0  0  0  0  0  0  0  0
  -10.8834   -5.0346   -7.7561 O   0  0  0  0  0  0  0  0  0  0  0  0
  -10.3232   -2.3162   -7.9071 O   0  0  0  0  0  0  0  0  0  0  0  0
  -13.5985   -5.8108   -7.0184 O   0  0  0  0  0  0  0  0  0  0  0  0
   -9.6754   -1.7349   -9.0049 C   0  0  2  0  0  0  0  0  0  0  0  0
   -8.1842   -2.0865   -8.9770 C   0  0  1  0  0  0  0  0  0  0  0  0
   -7.4523   -1.2882   -7.8978 C   0  0  0  0  0  0  0  0  0  0  0  0
   -7.7449    0.1906   -8.0937 C   0  0  1  0  0  0  0  0  0  0  0  0
   -9.2452    0.4163   -8.0241 C   0  0  1  0  0  0  0  0  0  0  0  0
   -9.6017    1.8804   -8.2075 C   0  0  0  0  0  0  0  0  0  0  0  0
   -8.0220   -3.5504   -8.7044 N   0  3  0  0  0  0  0  0  0  0  0  0
   -9.0647    2.3266   -9.5400 N   0  3  0  0  0  0  0  0  0  0  0  0
   -7.0914    0.9601   -7.0942 O   0  0  0  0  0  0  0  0  0  0  0  0
   -9.8870   -0.3288   -9.0728 O   0  0  0  0  0  0  0  0  0  0  0  0
  1  2  1  0  0  0  0
  1 22  1  1  0  0  0
  1 10  1  0  0  0  0
  2  3  1  0  0  0  0
  2  7  1  1  0  0  0
  3  4  1  0  0  0  0
  3  8  1  1  0  0  0
  4  5  1  0  0  0  0
  4  9  1  1  0  0  0
  5  6  1  6  0  0  0
  5 10  1  0  0  0  0
  6 11  1  0  0  0  0
 12 13  1  0  0  0  0
 12 17  1  0  0  0  0
 12 18  1  6  0  0  0
 13 14  1  0  0  0  0
 14 15  1  0  0  0  0
 14 19  1  6  0  0  0
 15 16  1  0  0  0  0
 15 21  1  1  0  0  0
 16 17  1  0  0  0  0
 16 20  1  6  0  0  0
 17 22  1  1  0  0  0
 23 21  1  1  0  0  0
 23 24  1  0  0  0  0
 23 32  1  0  0  0  0
 24 25  1  0  0  0  0
 24 29  1  1  0  0  0
 25 26  1  0  0  0  0
 26 27  1  0  0  0  0
 26 31  1  1  0  0  0
 27 28  1  6  0  0  0
 27 32  1  0  0  0  0
 28 30  1  0  0  0  0
M  CHG  5   8   1  18   1  19   1  29   1  30   1
M  END
>  <CHROM.1>
-171.72960457,-55.05567805,-168.82439518,68.20290184,-86.26889048,-157.21634286
-65.40721621,142.77390661,-96.62485657,63.88225440,126.58823726,-142.77111518
153.84943292,-60.44658489,58.35666585,-70.77174933,-11.31015658,-3.97472627
-7.52140283,2.03114494,0.05291313,2.84559888

>  <Name>
2tob cryst

>  <RI>
2.10184e+07

>  <Rbt.Current_Directory>
/home/itssahil/PROJECTS/Mol_Feturizer/New_Systems/rnas/2tob

>  <Rbt.Executable>
rbdock ($Id: //depot/dev/client3/rdock/2013.1/src/exe/rbdock.cxx#4 $)

>  <Rbt.Library>
libRbt.so (2013.1, Build901 2013/11/27)

>  <Rbt.Parameter_File>
/export/apps/rDock/src/rDock_2013.1_src/data/scripts/dock_solv.prm

>  <Rbt.Receptor>
prm/pocket_docking_7.prm

>  <SCORE>
-53.5777

>  <SCORE.INTER>
-42.8804

>  <SCORE.INTER.CONST>
1

>  <SCORE.INTER.POLAR>
-7.19057

>  <SCORE.INTER.ROT>
6

>  <SCORE.INTER.SOLV>
30.4202

>  <SCORE.INTER.VDW>
-22.3585

>  <SCORE.INTER.norm>
-1.34001

>  <SCORE.INTRA>
-10.6973

>  <SCORE.INTRA.DIHEDRAL>
8.19953

>  <SCORE.INTRA.DIHEDRAL.0>
18.4221

>  <SCORE.INTRA.POLAR>
1.06805

>  <SCORE.INTRA.POLAR.0>
-1.57101

>  <SCORE.INTRA.REPUL>
-0.730195

>  <SCORE.INTRA.REPUL.0>
0.730195

>  <SCORE.INTRA.SOLV>
-0.767224

>  <SCORE.INTRA.SOLV.lig_0>
-127.221

>  <SCORE.INTRA.VDW>
-14.3939

>  <SCORE.INTRA.VDW.0>
10.8385

>  <SCORE.INTRA.norm>
-0.334291

>  <SCORE.RESTR>
0

>  <SCORE.RESTR.CAVITY>
0

>  <SCORE.RESTR.norm>
0

>  <SCORE.SYSTEM>
0

>  <SCORE.SYSTEM.CONST>
0

>  <SCORE.SYSTEM.DIHEDRAL>
0

>  <SCORE.SYSTEM.SOLV>
0

>  <SCORE.SYSTEM.norm>
0

>  <SCORE.heavy>
32

>  <SCORE.norm>
-1.6743

>  <RMSD>
8.052

$$$$
2tob cryst
 OpenBabel11021811463D
libRbt.so/2013.1/901 2013/11/27
 32 34  0  0  0  0  0  0  0  0999 V2000
  -12.4051   -7.6479   -8.3832 C   0  0  2  0  0  0  0  0  0  0  0  0
  -13.0036   -9.0421   -8.2249 C   0  0  1  0  0  0  0  0  0  0  0  0
  -12.9193   -9.4538   -6.7549 C   0  0  2  0  0  0  0  0  0  0  0  0
  -11.4762   -9.3573   -6.2422 C   0  0  1  0  0  0  0  0  0  0  0  0
  -10.9019   -7.9706   -6.5519 C   0  0  1  0  0  0  0  0  0  0  0  0
   -9.4278   -7.8138   -6.2165 C   0  0  0  0  0  0  0  0  0  0  0  0
  -14.3640   -9.0395   -8.6490 O   0  0  0  0  0  0  0  0  0  0  0  0
  -13.4411  -10.8075   -6.3845 N   0  3  0  0  0  0  0  0  0  0  0  0
  -11.4685   -9.5819   -4.8380 O   0  0  0  0  0  0  0  0  0  0  0  0
  -11.0567   -7.6772   -7.9549 O   0  0  0  0  0  0  0  0  0  0  0  0
   -9.2303   -7.7731   -4.8069 O   0  0  0  0  0  0  0  0  0  0  0  0
  -13.1996   -4.3964   -8.1534 C   0  0  2  0  0  0  0  0  0  0  0  0
  -12.8829   -2.9643   -7.7019 C   0  0  0  0  0  0  0  0  0  0  0  0
  -13.1357   -2.7602   -6.2107 C   0  0  1  0  0  0  0  0  0  0  0  0
  -12.3015   -3.7727   -5.4381 C   0  0  2  0  0  0  0  0  0  0  0  0
  -12.7715   -5.1885   -5.7813 C   0  0  1  0  0  0  0  0  0  0  0  0
  -12.5548   -5.4814   -7.2764 C   0  0  1  0  0  0  0  0  0  0  0  0
  -12.7768   -4.6070   -9.5789 N   0  3  0  0  0  0  0  0  0  0  0  0
  -12.8128   -1.3556   -5.7973 N   0  3  0  0  0  0  0  0  0  0  0  0
  -12.0578   -6.1274   -4.9869 O   0  0  0  0  0  0  0  0  0  0  0  0
  -12.4175   -3.5456   -4.0216 O   0  0  0  0  0  0  0  0  0  0  0  0
  -13.1586   -6.7465   -7.6181 O   0  0  0  0  0  0  0  0  0  0  0  0
  -11.4229   -4.1862   -3.2712 C   0  0  2  0  0  0  0  0  0  0  0  0
  -11.5057   -3.7410   -1.8073 C   0  0  1  0  0  0  0  0  0  0  0  0
  -10.9686   -2.3200   -1.6347 C   0  0  0  0  0  0  0  0  0  0  0  0
   -9.5747   -2.2425   -2.2364 C   0  0  1  0  0  0  0  0  0  0  0  0
   -9.6414   -2.6322   -3.7028 C   0  0  1  0  0  0  0  0  0  0  0  0
   -8.2762   -2.5685   -4.3632 C   0  0  0  0  0  0  0  0  0  0  0  0
  -12.9317   -3.7892   -1.3513 N   0  3  0  0  0  0  0  0  0  0  0  0
   -8.3872   -3.2015   -5.7233 N   0  3  0  0  0  0  0  0  0  0  0  0
   -9.0532   -0.9274   -2.1069 O   0  0  0  0  0  0  0  0  0  0  0  0
  -10.1228   -3.9823   -3.8142 O   0  0  0  0  0  0  0  0  0  0  0  0
  1  2  1  0  0  0  0
  1 22  1  1  0  0  0
  1 10  1  0  0  0  0
  2  3  1  0  0  0  0
  2  7  1  1  0  0  0
  3  4  1  0  0  0  0
  3  8  1  6  0  0  0
  4  5  1  0  0  0  0
  4  9  1  1  0  0  0
  5  6  1  6  0  0  0
  5 10  1  0  0  0  0
  6 11  1  0  0  0  0
 12 13  1  0  0  0  0
 12 17  1  0  0  0  0
 12 18  1  6  0  0  0
 13 14  1  0  0  0  0
 14 15  1  0  0  0  0
 14 19  1  1  0  0  0
 15 16  1  0  0  0  0
 15 21  1  1  0  0  0
 16 17  1  0  0  0  0
 16 20  1  1  0  0  0
 17 22  1  6  0  0  0
 23 21  1  6  0  0  0
 23 24  1  0  0  0  0
 23 32  1  0  0  0  0
 24 25  1  0  0  0  0
 24 29  1  6  0  0  0
 25 26  1  0  0  0  0
 26 27  1  0  0  0  0
 26 31  1  6  0  0  0
 27 28  1  1  0  0  0
 27 32  1  0  0  0  0
 28 30  1  0  0  0  0
M  CHG  5   8   1  18   1  19   1  29   1  30   1
M  END
>  <CHROM.1>
160.90564334,178.90426781,-57.76145225,-61.05416771,-71.58712317,-163.54895043
52.36971496,165.78726083,-163.88185802,-55.93276270,105.43027354,172.34568923
-171.65074630,64.47228997,169.88480474,73.91763427,-11.60846049,-5.41397294
-5.54051172,2.12264943,1.02828003,-3.02699535

>  <Name>
2tob cryst

>  <RI>
3.75586e+07

>  <Rbt.Current_Directory>
/home/itssahil/PROJECTS/Mol_Feturizer/New_Systems/rnas/2tob

>  <Rbt.Executable>
rbdock ($Id: //depot/dev/client3/rdock/2013.1/src/exe/rbdock.cxx#4 $)

>  <Rbt.Library>
libRbt.so (2013.1, Build901 2013/11/27)

>  <Rbt.Parameter_File>
/export/apps/rDock/src/rDock_2013.1_src/data/scripts/dock_solv.prm

>  <Rbt.Receptor>
prm/pocket_docking_8.prm

>  <SCORE>
-35.4649

>  <SCORE.INTER>
-16.385

>  <SCORE.INTER.CONST>
1

>  <SCORE.INTER.POLAR>
-3.86017

>  <SCORE.INTER.ROT>
6

>  <SCORE.INTER.SOLV>
17.2702

>  <SCORE.INTER.VDW>
-11.4128

>  <SCORE.INTER.norm>
-0.512031

>  <SCORE.INTRA>
-19.0799

>  <SCORE.INTRA.DIHEDRAL>
-5.33501

>  <SCORE.INTRA.DIHEDRAL.0>
18.4221

>  <SCORE.INTRA.POLAR>
1.37293

>  <SCORE.INTRA.POLAR.0>
-1.57101

>  <SCORE.INTRA.REPUL>
-0.730195

>  <SCORE.INTRA.REPUL.0>
0.730195

>  <SCORE.INTRA.SOLV>
-7.11646

>  <SCORE.INTRA.SOLV.lig_0>
-127.221

>  <SCORE.INTRA.VDW>
-13.8712

>  <SCORE.INTRA.VDW.0>
10.8385

>  <SCORE.INTRA.norm>
-0.596248

>  <SCORE.RESTR>
0

>  <SCORE.RESTR.CAVITY>
0

>  <SCORE.RESTR.norm>
0

>  <SCORE.SYSTEM>
0

>  <SCORE.SYSTEM.CONST>
0

>  <SCORE.SYSTEM.DIHEDRAL>
0

>  <SCORE.SYSTEM.SOLV>
0

>  <SCORE.SYSTEM.norm>
0

>  <SCORE.heavy>
32

>  <SCORE.norm>
-1.10828

>  <RMSD>
8.057

$$$$
2tob cryst
 OpenBabel11021811463D
libRbt.so/2013.1/901 2013/11/27
 32 34  0  0  0  0  0  0  0  0999 V2000
  -12.7348   -1.7340   -8.9014 C   0  0  2  0  0  0  0  0  0  0  0  0
  -14.2413   -1.5012   -8.9589 C   0  0  1  0  0  0  0  0  0  0  0  0
  -14.9403   -2.5689   -8.1168 C   0  0  2  0  0  0  0  0  0  0  0  0
  -14.5318   -3.9767   -8.5704 C   0  0  1  0  0  0  0  0  0  0  0  0
  -13.0041   -4.0918   -8.6093 C   0  0  1  0  0  0  0  0  0  0  0  0
  -12.4888   -5.4008   -9.1848 C   0  0  0  0  0  0  0  0  0  0  0  0
  -14.5539   -0.2059   -8.4539 O   0  0  0  0  0  0  0  0  0  0  0  0
  -16.4358   -2.5304   -8.0534 N   0  3  0  0  0  0  0  0  0  0  0  0
  -15.0660   -4.9291   -7.6595 O   0  0  0  0  0  0  0  0  0  0  0  0
  -12.4515   -3.0252   -9.4063 O   0  0  0  0  0  0  0  0  0  0  0  0
  -12.8719   -5.5402  -10.5492 O   0  0  0  0  0  0  0  0  0  0  0  0
  -10.6454   -3.3310   -7.3137 C   0  0  2  0  0  0  0  0  0  0  0  0
   -9.1552   -3.6973   -7.3260 C   0  0  0  0  0  0  0  0  0  0  0  0
   -8.3810   -2.9291   -8.3936 C   0  0  1  0  0  0  0  0  0  0  0  0
   -8.5743   -1.4388   -8.1494 C   0  0  2  0  0  0  0  0  0  0  0  0
  -10.0522   -1.0809   -8.3249 C   0  0  1  0  0  0  0  0  0  0  0  0
  -10.9132   -1.8180   -7.2840 C   0  0  1  0  0  0  0  0  0  0  0  0
  -11.3376   -3.9715   -6.1450 N   0  3  0  0  0  0  0  0  0  0  0  0
   -6.9289   -3.3024   -8.3786 N   0  3  0  0  0  0  0  0  0  0  0  0
  -10.2154    0.3254   -8.1924 O   0  0  0  0  0  0  0  0  0  0  0  0
   -7.7701   -0.6698   -9.0623 O   0  0  0  0  0  0  0  0  0  0  0  0
  -12.3116   -1.6080   -7.5708 O   0  0  0  0  0  0  0  0  0  0  0  0
   -6.5139   -0.3269   -8.5455 C   0  0  2  0  0  0  0  0  0  0  0  0
   -6.5549    1.0945   -7.9746 C   0  0  1  0  0  0  0  0  0  0  0  0
   -6.5745    2.1353   -9.0944 C   0  0  0  0  0  0  0  0  0  0  0  0
   -5.4105    1.8702  -10.0355 C   0  0  1  0  0  0  0  0  0  0  0  0
   -5.5277    0.4613  -10.5903 C   0  0  1  0  0  0  0  0  0  0  0  0
   -4.3928    0.1377  -11.5449 C   0  0  0  0  0  0  0  0  0  0  0  0
   -7.7795    1.2566   -7.1275 N   0  3  0  0  0  0  0  0  0  0  0  0
   -3.3575   -0.6482  -10.7876 N   0  3  0  0  0  0  0  0  0  0  0  0
   -5.4106    2.8122  -11.0988 O   0  0  0  0  0  0  0  0  0  0  0  0
   -5.4752   -0.4820   -9.5066 O   0  0  0  0  0  0  0  0  0  0  0  0
  1  2  1  0  0  0  0
  1 22  1  1  0  0  0
  1 10  1  0  0  0  0
  2  3  1  0  0  0  0
  2  7  1  1  0  0  0
  3  4  1  0  0  0  0
  3  8  1  6  0  0  0
  4  5  1  0  0  0  0
  4  9  1  1  0  0  0
  5  6  1  6  0  0  0
  5 10  1  0  0  0  0
  6 11  1  0  0  0  0
 12 13  1  0  0  0  0
 12 17  1  0  0  0  0
 12 18  1  1  0  0  0
 13 14  1  0  0  0  0
 14 15  1  0  0  0  0
 14 19  1  1  0  0  0
 15 16  1  0  0  0  0
 15 21  1  6  0  0  0
 16 17  1  0  0  0  0
 16 20  1  1  0  0  0
 17 22  1  6  0  0  0
 23 21  1  6  0  0  0
 23 24  1  0  0  0  0
 23 32  1  0  0  0  0
 24 25  1  0  0  0  0
 24 29  1  6  0  0  0
 25 26  1  0  0  0  0
 26 27  1  0  0  0  0
 26 31  1  6  0  0  0
 27 28  1  6  0  0  0
 27 32  1  0  0  0  0
 28 30  1  0  0  0  0
M  CHG  5   8   1  18   1  19   1  29   1  30   1
M  END
>  <CHROM.1>
178.77234657,66.40580309,-53.01597126,179.65331780,63.24772560,178.81169149
178.43168532,-42.06719046,-93.03803179,-149.15482934,-76.33367431,-97.25460731
-58.16980559,178.50196181,98.67186141,-114.44391270,-9.91078767,-1.59438636
-8.71792111,2.70824605,-0.16840976,3.13680443

>  <Name>
2tob cryst

>  <RI>
0

>  <Rbt.Current_Directory>
/home/itssahil/PROJECTS/Mol_Feturizer/New_Systems/rnas/2tob

>  <Rbt.Executable>
rbdock ($Id: //depot/dev/client3/rdock/2013.1/src/exe/rbdock.cxx#4 $)

>  <Rbt.Library>
libRbt.so (2013.1, Build901 2013/11/27)

>  <Rbt.Parameter_File>
/export/apps/rDock/src/rDock_2013.1_src/data/scripts/dock_solv.prm

>  <Rbt.Receptor>
prm/blind_docking_80.prm

>  <SCORE>
-50.6925

>  <SCORE.INTER>
-40.5142

>  <SCORE.INTER.CONST>
1

>  <SCORE.INTER.POLAR>
-5.21065

>  <SCORE.INTER.ROT>
6

>  <SCORE.INTER.SOLV>
37.9917

>  <SCORE.INTER.VDW>
-29.9045

>  <SCORE.INTER.norm>
-1.26607

>  <SCORE.INTRA>
-14.4194

>  <SCORE.INTRA.DIHEDRAL>
4.24243

>  <SCORE.INTRA.DIHEDRAL.0>
18.4221

>  <SCORE.INTRA.POLAR>
-0.288327

>  <SCORE.INTRA.POLAR.0>
-1.57101

>  <SCORE.INTRA.REPUL>
-0.730195

>  <SCORE.INTRA.REPUL.0>
0.730195

>  <SCORE.INTRA.SOLV>
-1.76497

>  <SCORE.INTRA.SOLV.lig_0>
-127.221

>  <SCORE.INTRA.VDW>
-11.0269

>  <SCORE.INTRA.VDW.0>
10.8385

>  <SCORE.INTRA.norm>
-0.450607

>  <SCORE.RESTR>
4.24108

>  <SCORE.RESTR.CAVITY>
4.24108

>  <SCORE.RESTR.norm>
0.132534

>  <SCORE.SYSTEM>
0

>  <SCORE.SYSTEM.CONST>
0

>  <SCORE.SYSTEM.DIHEDRAL>
0

>  <SCORE.SYSTEM.SOLV>
0

>  <SCORE.SYSTEM.norm>
0

>  <SCORE.heavy>
32

>  <SCORE.norm>
-1.58414

>  <RMSD>
8.060

$$$$
2tob cryst
 OpenBabel11021811463D
libRbt.so/2013.1/901 2013/11/27
 32 34  0  0  0  0  0  0  0  0999 V2000
  -12.4943   -6.0417   -5.3102 C   0  0  2  0  0  0  0  0  0  0  0  0
  -12.4292   -7.5459   -5.5553 C   0  0  1  0  0  0  0  0  0  0  0  0
  -12.1220   -7.7946   -7.0323 C   0  0  2  0  0  0  0  0  0  0  0  0
  -13.1427   -7.0828   -7.9301 C   0  0  1  0  0  0  0  0  0  0  0  0
  -13.2442   -5.6047   -7.5381 C   0  0  1  0  0  0  0  0  0  0  0  0
  -14.3335   -4.8363   -8.2683 C   0  0  0  0  0  0  0  0  0  0  0  0
  -11.4116   -8.1281   -4.7452 O   0  0  0  0  0  0  0  0  0  0  0  0
  -12.0318   -9.2174   -7.4901 N   0  3  0  0  0  0  0  0  0  0  0  0
  -12.7256   -7.1968   -9.2848 O   0  0  0  0  0  0  0  0  0  0  0  0
  -13.5096   -5.4884   -6.1260 O   0  0  0  0  0  0  0  0  0  0  0  0
  -15.6235   -5.2219   -7.8048 O   0  0  0  0  0  0  0  0  0  0  0  0
  -11.5172   -3.4080   -4.4158 C   0  0  2  0  0  0  0  0  0  0  0  0
  -11.1859   -1.9117   -4.3354 C   0  0  0  0  0  0  0  0  0  0  0  0
   -9.7599   -1.6112   -4.7888 C   0  0  1  0  0  0  0  0  0  0  0  0
   -9.5864   -2.1327   -6.2087 C   0  0  2  0  0  0  0  0  0  0  0  0
   -9.7462   -3.6551   -6.2157 C   0  0  1  0  0  0  0  0  0  0  0  0
  -11.1636   -4.0510   -5.7662 C   0  0  1  0  0  0  0  0  0  0  0  0
  -12.9726   -3.6432   -4.1303 N   0  3  0  0  0  0  0  0  0  0  0  0
   -9.4665   -0.1432   -4.7051 N   0  3  0  0  0  0  0  0  0  0  0  0
   -9.4879   -4.1498   -7.5236 O   0  0  0  0  0  0  0  0  0  0  0  0
   -8.2920   -1.7714   -6.7238 O   0  0  0  0  0  0  0  0  0  0  0  0
  -11.2441   -5.4833   -5.6115 O   0  0  0  0  0  0  0  0  0  0  0  0
   -8.2146   -1.8217   -8.1217 C   0  0  2  0  0  0  0  0  0  0  0  0
   -6.7817   -1.5243   -8.5760 C   0  0  1  0  0  0  0  0  0  0  0  0
   -6.4589   -0.0365   -8.4353 C   0  0  0  0  0  0  0  0  0  0  0  0
   -7.5262    0.7707   -9.1564 C   0  0  1  0  0  0  0  0  0  0  0  0
   -8.8857    0.4431   -8.5638 C   0  0  1  0  0  0  0  0  0  0  0  0
   -9.9965    1.2253   -9.2410 C   0  0  0  0  0  0  0  0  0  0  0  0
   -5.8205   -2.3193   -7.7467 N   0  3  0  0  0  0  0  0  0  0  0  0
  -11.3118    0.6541   -8.7863 N   0  3  0  0  0  0  0  0  0  0  0  0
   -7.2638    2.1611   -9.0297 O   0  0  0  0  0  0  0  0  0  0  0  0
   -9.1582   -0.9568   -8.7450 O   0  0  0  0  0  0  0  0  0  0  0  0
  1  2  1  0  0  0  0
  1 22  1  6  0  0  0
  1 10  1  0  0  0  0
  2  3  1  0  0  0  0
  2  7  1  1  0  0  0
  3  4  1  0  0  0  0
  3  8  1  1  0  0  0
  4  5  1  0  0  0  0
  4  9  1  6  0  0  0
  5  6  1  6  0  0  0
  5 10  1  0  0  0  0
  6 11  1  0  0  0  0
 12 13  1  0  0  0  0
 12 17  1  0  0  0  0
 12 18  1  6  0  0  0
 13 14  1  0  0  0  0
 14 15  1  0  0  0  0
 14 19  1  6  0  0  0
 15 16  1  0  0  0  0
 15 21  1  1  0  0  0
 16 17  1  0  0  0  0
 16 20  1  6  0  0  0
 17 22  1  1  0  0  0
 23 21  1  1  0  0  0
 23 24  1  0  0  0  0
 23 32  1  0  0  0  0
 24 25  1  0  0  0  0
 24 29  1  1  0  0  0
 25 26  1  0  0  0  0
 26 27  1  0  0  0  0
 26 31  1  1  0  0  0
 27 28  1  6  0  0  0
 27 32  1  0  0  0  0
 28 30  1  0  0  0  0
M  CHG  5   8   1  18   1  19   1  29   1  30   1
M  END
>  <CHROM.1>
165.19760735,169.72088271,48.58023533,-171.97602536,71.88917586,174.34572759
115.99670419,142.80689858,-160.44600685,-61.66986646,63.76017749,-175.86286045
-75.06271135,-56.77166415,169.26784787,82.78569943,-10.61369503,-3.37586484
-7.00760833,-2.17403119,0.07834417,-0.15484563

>  <Name>
2tob cryst

>  <RI>
0

>  <Rbt.Current_Directory>
/home/itssahil/PROJECTS/Mol_Feturizer/New_Systems/rnas/2tob

>  <Rbt.Executable>
rbdock ($Id: //depot/dev/client3/rdock/2013.1/src/exe/rbdock.cxx#4 $)

>  <Rbt.Library>
libRbt.so (2013.1, Build901 2013/11/27)

>  <Rbt.Parameter_File>
/export/apps/rDock/src/rDock_2013.1_src/data/scripts/dock_solv.prm

>  <Rbt.Receptor>
prm/pocket_docking_6.prm

>  <SCORE>
-56.1157

>  <SCORE.INTER>
-36.5629

>  <SCORE.INTER.CONST>
1

>  <SCORE.INTER.POLAR>
-5.25764

>  <SCORE.INTER.ROT>
6

>  <SCORE.INTER.SOLV>
31.0354

>  <SCORE.INTER.VDW>
-24.795

>  <SCORE.INTER.norm>
-1.14259

>  <SCORE.INTRA>
-19.5528

>  <SCORE.INTRA.DIHEDRAL>
-5.45365

>  <SCORE.INTRA.DIHEDRAL.0>
18.4221

>  <SCORE.INTRA.POLAR>
0.175152

>  <SCORE.INTRA.POLAR.0>
-1.57101

>  <SCORE.INTRA.REPUL>
-0.730195

>  <SCORE.INTRA.REPUL.0>
0.730195

>  <SCORE.INTRA.SOLV>
-6.31967

>  <SCORE.INTRA.SOLV.lig_0>
-127.221

>  <SCORE.INTRA.VDW>
-10.6106

>  <SCORE.INTRA.VDW.0>
10.8385

>  <SCORE.INTRA.norm>
-0.611024

>  <SCORE.RESTR>
0

>  <SCORE.RESTR.CAVITY>
0

>  <SCORE.RESTR.norm>
0

>  <SCORE.SYSTEM>
0

>  <SCORE.SYSTEM.CONST>
0

>  <SCORE.SYSTEM.DIHEDRAL>
0

>  <SCORE.SYSTEM.SOLV>
0

>  <SCORE.SYSTEM.norm>
0

>  <SCORE.heavy>
32

>  <SCORE.norm>
-1.75362

>  <RMSD>
8.071

$$$$
2tob cryst
 OpenBabel11021811463D
libRbt.so/2013.1/901 2013/11/27
 32 34  0  0  0  0  0  0  0  0999 V2000
  -11.6732   -6.5556   -3.4959 C   0  0  2  0  0  0  0  0  0  0  0  0
  -10.8431   -7.3719   -2.5103 C   0  0  1  0  0  0  0  0  0  0  0  0
   -9.5158   -7.7460   -3.1706 C   0  0  2  0  0  0  0  0  0  0  0  0
   -9.7531   -8.4713   -4.5018 C   0  0  1  0  0  0  0  0  0  0  0  0
  -10.6976   -7.6490   -5.3853 C   0  0  1  0  0  0  0  0  0  0  0  0
  -11.1164   -8.3435   -6.6708 C   0  0  0  0  0  0  0  0  0  0  0  0
  -10.5986   -6.6102   -1.3310 O   0  0  0  0  0  0  0  0  0  0  0  0
   -8.5537   -8.5698   -2.3721 N   0  3  0  0  0  0  0  0  0  0  0  0
   -8.5053   -8.6482   -5.1607 O   0  0  0  0  0  0  0  0  0  0  0  0
  -11.9005   -7.3327   -4.6565 O   0  0  0  0  0  0  0  0  0  0  0  0
  -11.9112   -9.4914   -6.3909 O   0  0  0  0  0  0  0  0  0  0  0  0
  -12.5924   -4.0223   -4.9678 C   0  0  2  0  0  0  0  0  0  0  0  0
  -12.8722   -3.0594   -6.1295 C   0  0  0  0  0  0  0  0  0  0  0  0
  -11.7014   -2.1160   -6.3917 C   0  0  1  0  0  0  0  0  0  0  0  0
  -10.4600   -2.9540   -6.6648 C   0  0  2  0  0  0  0  0  0  0  0  0
  -10.1083   -3.7663   -5.4159 C   0  0  1  0  0  0  0  0  0  0  0  0
  -11.2423   -4.7488   -5.0742 C   0  0  1  0  0  0  0  0  0  0  0  0
  -13.6875   -5.0435   -4.8523 N   0  3  0  0  0  0  0  0  0  0  0  0
  -12.0002   -1.1919   -7.5340 N   0  3  0  0  0  0  0  0  0  0  0  0
   -8.8949   -4.4730   -5.6398 O   0  0  0  0  0  0  0  0  0  0  0  0
   -9.3528   -2.1105   -7.0310 O   0  0  0  0  0  0  0  0  0  0  0  0
  -10.9752   -5.3794   -3.8043 O   0  0  0  0  0  0  0  0  0  0  0  0
   -9.2871   -1.8419   -8.4044 C   0  0  2  0  0  0  0  0  0  0  0  0
   -8.0552   -2.5220   -9.0107 C   0  0  1  0  0  0  0  0  0  0  0  0
   -6.7741   -1.7818   -8.6252 C   0  0  0  0  0  0  0  0  0  0  0  0
   -6.9236   -0.3135   -8.9896 C   0  0  1  0  0  0  0  0  0  0  0  0
   -8.1303    0.2600   -8.2673 C   0  0  1  0  0  0  0  0  0  0  0  0
   -8.3295    1.7303   -8.5874 C   0  0  0  0  0  0  0  0  0  0  0  0
   -7.9751   -3.9359   -8.5225 N   0  3  0  0  0  0  0  0  0  0  0  0
   -9.3994    1.8367   -9.6395 N   0  3  0  0  0  0  0  0  0  0  0  0
   -5.7538    0.4067   -8.6278 O   0  0  0  0  0  0  0  0  0  0  0  0
   -9.3120   -0.4459   -8.6821 O   0  0  0  0  0  0  0  0  0  0  0  0
  1  2  1  0  0  0  0
  1 22  1  6  0  0  0
  1 10  1  0  0  0  0
  2  3  1  0  0  0  0
  2  7  1  1  0  0  0
  3  4  1  0  0  0  0
  3  8  1  1  0  0  0
  4  5  1  0  0  0  0
  4  9  1  6  0  0  0
  5  6  1  6  0  0  0
  5 10  1  0  0  0  0
  6 11  1  0  0  0  0
 12 13  1  0  0  0  0
 12 17  1  0  0  0  0
 12 18  1  6  0  0  0
 13 14  1  0  0  0  0
 14 15  1  0  0  0  0
 14 19  1  6  0  0  0
 15 16  1  0  0  0  0
 15 21  1  1  0  0  0
 16 17  1  0  0  0  0
 16 20  1  6  0  0  0
 17 22  1  1  0  0  0
 23 21  1  1  0  0  0
 23 24  1  0  0  0  0
 23 32  1  0  0  0  0
 24 25  1  0  0  0  0
 24 29  1  1  0  0  0
 25 26  1  0  0  0  0
 26 27  1  0  0  0  0
 26 31  1  1  0  0  0
 27 28  1  6  0  0  0
 27 32  1  0  0  0  0
 28 30  1  0  0  0  0
M  CHG  5   8   1  18   1  19   1  29   1  30   1
M  END
>  <CHROM.1>
154.16310024,65.62134804,54.05286358,-58.08549102,65.83511816,61.72422534
-129.78489439,-173.44096331,-87.94320850,179.74147831,76.21196102,-112.03062502
-55.40313658,62.39676232,99.43337309,167.82183710,-9.95703263,-4.15349358
-6.13769784,1.84166066,-0.28082057,2.66180309

>  <Name>
2tob cryst

>  <RI>
3.75586e+07

>  <Rbt.Current_Directory>
/home/itssahil/PROJECTS/Mol_Feturizer/New_Systems/rnas/2tob

>  <Rbt.Executable>
rbdock ($Id: //depot/dev/client3/rdock/2013.1/src/exe/rbdock.cxx#4 $)

>  <Rbt.Library>
libRbt.so (2013.1, Build901 2013/11/27)

>  <Rbt.Parameter_File>
/export/apps/rDock/src/rDock_2013.1_src/data/scripts/dock_solv.prm

>  <Rbt.Receptor>
prm/pocket_docking_8.prm

>  <SCORE>
-55.3261

>  <SCORE.INTER>
-33.9971

>  <SCORE.INTER.CONST>
1

>  <SCORE.INTER.POLAR>
-5.4829

>  <SCORE.INTER.ROT>
6

>  <SCORE.INTER.SOLV>
26.5878

>  <SCORE.INTER.VDW>
-20.851

>  <SCORE.INTER.norm>
-1.06241

>  <SCORE.INTRA>
-21.329

>  <SCORE.INTRA.DIHEDRAL>
3.88717

>  <SCORE.INTRA.DIHEDRAL.0>
18.4221

>  <SCORE.INTRA.POLAR>
-1.73007

>  <SCORE.INTRA.POLAR.0>
-1.57101

>  <SCORE.INTRA.REPUL>
-0.729028

>  <SCORE.INTRA.REPUL.0>
0.730195

>  <SCORE.INTRA.SOLV>
-1.9049

>  <SCORE.INTRA.SOLV.lig_0>
-127.221

>  <SCORE.INTRA.VDW>
-12.7928

>  <SCORE.INTRA.VDW.0>
10.8385

>  <SCORE.INTRA.norm>
-0.666532

>  <SCORE.RESTR>
0

>  <SCORE.RESTR.CAVITY>
0

>  <SCORE.RESTR.norm>
0

>  <SCORE.SYSTEM>
0

>  <SCORE.SYSTEM.CONST>
0

>  <SCORE.SYSTEM.DIHEDRAL>
0

>  <SCORE.SYSTEM.SOLV>
0

>  <SCORE.SYSTEM.norm>
0

>  <SCORE.heavy>
32

>  <SCORE.norm>
-1.72894

>  <RMSD>
8.072

$$$$
2tob cryst
 OpenBabel11021811463D
libRbt.so/2013.1/901 2013/11/27
 32 34  0  0  0  0  0  0  0  0999 V2000
  -11.7968   -6.4035   -3.0628 C   0  0  2  0  0  0  0  0  0  0  0  0
  -11.2563   -6.8117   -1.6959 C   0  0  1  0  0  0  0  0  0  0  0  0
   -9.7351   -6.9390   -1.7822 C   0  0  2  0  0  0  0  0  0  0  0  0
   -9.3304   -7.9068   -2.9021 C   0  0  1  0  0  0  0  0  0  0  0  0
  -10.0140   -7.5053   -4.2138 C   0  0  1  0  0  0  0  0  0  0  0  0
   -9.7973   -8.4822   -5.3578 C   0  0  0  0  0  0  0  0  0  0  0  0
  -11.6050   -5.8320   -0.7215 O   0  0  0  0  0  0  0  0  0  0  0  0
   -9.0040   -7.3513   -0.5423 N   0  3  0  0  0  0  0  0  0  0  0  0
   -7.9178   -7.8660   -3.0602 O   0  0  0  0  0  0  0  0  0  0  0  0
  -11.4366   -7.3903   -4.0109 O   0  0  0  0  0  0  0  0  0  0  0  0
  -10.5712   -8.1116   -6.4942 O   0  0  0  0  0  0  0  0  0  0  0  0
  -12.8980   -4.1329   -4.8449 C   0  0  2  0  0  0  0  0  0  0  0  0
  -13.1697   -3.3180   -6.1166 C   0  0  0  0  0  0  0  0  0  0  0  0
  -12.1063   -2.2495   -6.3554 C   0  0  1  0  0  0  0  0  0  0  0  0
  -10.7465   -2.9309   -6.4243 C   0  0  2  0  0  0  0  0  0  0  0  0
  -10.4325   -3.5800   -5.0740 C   0  0  1  0  0  0  0  0  0  0  0  0
  -11.4633   -4.6754   -4.7491 C   0  0  1  0  0  0  0  0  0  0  0  0
  -13.8611   -5.2801   -4.7366 N   0  3  0  0  0  0  0  0  0  0  0  0
  -12.3939   -1.4739   -7.6059 N   0  3  0  0  0  0  0  0  0  0  0  0
   -9.1223   -4.1314   -5.1096 O   0  0  0  0  0  0  0  0  0  0  0  0
   -9.7218   -1.9784   -6.7624 O   0  0  0  0  0  0  0  0  0  0  0  0
  -11.2580   -5.1549   -3.4039 O   0  0  0  0  0  0  0  0  0  0  0  0
   -9.6030   -1.7531   -8.1400 C   0  0  2  0  0  0  0  0  0  0  0  0
   -8.3856   -2.5048   -8.6885 C   0  0  1  0  0  0  0  0  0  0  0  0
   -7.0844   -1.8114   -8.2840 C   0  0  0  0  0  0  0  0  0  0  0  0
   -7.1561   -0.3492   -8.6935 C   0  0  1  0  0  0  0  0  0  0  0  0
   -8.3566    0.2983   -8.0255 C   0  0  1  0  0  0  0  0  0  0  0  0
   -8.4792    1.7661   -8.3923 C   0  0  0  0  0  0  0  0  0  0  0  0
   -8.3844   -3.9060   -8.1590 N   0  3  0  0  0  0  0  0  0  0  0  0
   -9.3778    2.4248   -7.3817 N   0  3  0  0  0  0  0  0  0  0  0  0
   -5.9662    0.3285   -8.3156 O   0  0  0  0  0  0  0  0  0  0  0  0
   -9.5562   -0.3661   -8.4571 O   0  0  0  0  0  0  0  0  0  0  0  0
  1  2  1  0  0  0  0
  1 22  1  6  0  0  0
  1 10  1  0  0  0  0
  2  3  1  0  0  0  0
  2  7  1  1  0  0  0
  3  4  1  0  0  0  0
  3  8  1  1  0  0  0
  4  5  1  0  0  0  0
  4  9  1  6  0  0  0
  5  6  1  6  0  0  0
  5 10  1  0  0  0  0
  6 11  1  0  0  0  0
 12 13  1  0  0  0  0
 12 17  1  0  0  0  0
 12 18  1  6  0  0  0
 13 14  1  0  0  0  0
 14 15  1  0  0  0  0
 14 19  1  6  0  0  0
 15 16  1  0  0  0  0
 15 21  1  1  0  0  0
 16 17  1  0  0  0  0
 16 20  1  6  0  0  0
 17 22  1  1  0  0  0
 23 21  1  1  0  0  0
 23 24  1  0  0  0  0
 23 32  1  0  0  0  0
 24 25  1  0  0  0  0
 24 29  1  1  0  0  0
 25 26  1  0  0  0  0
 26 27  1  0  0  0  0
 26 31  1  1  0  0  0
 27 28  1  6  0  0  0
 27 32  1  0  0  0  0
 28 30  1  0  0  0  0
M  CHG  5   8   1  18   1  19   1  29   1  30   1
M  END
>  <CHROM.1>
170.18659422,57.57219091,63.95696210,-76.85189454,174.06586802,-175.29894433
-40.19624014,-86.79768840,-83.91685630,178.10435934,78.07959444,-102.69781323
72.42586474,61.02982309,-161.93798290,71.52262679,-10.05032604,-3.92518477
-5.53520125,1.79601113,-0.21440451,2.54312152

>  <Name>
2tob cryst

>  <RI>
0

>  <Rbt.Current_Directory>
/home/itssahil/PROJECTS/Mol_Feturizer/New_Systems/rnas/2tob

>  <Rbt.Executable>
rbdock ($Id: //depot/dev/client3/rdock/2013.1/src/exe/rbdock.cxx#4 $)

>  <Rbt.Library>
libRbt.so (2013.1, Build901 2013/11/27)

>  <Rbt.Parameter_File>
/export/apps/rDock/src/rDock_2013.1_src/data/scripts/dock_solv.prm

>  <Rbt.Receptor>
prm/pocket_docking_6.prm

>  <SCORE>
-49.4664

>  <SCORE.INTER>
-30.807

>  <SCORE.INTER.CONST>
1

>  <SCORE.INTER.POLAR>
-4.38829

>  <SCORE.INTER.ROT>
6

>  <SCORE.INTER.SOLV>
25.3386

>  <SCORE.INTER.VDW>
-21.9565

>  <SCORE.INTER.norm>
-0.962718

>  <SCORE.INTRA>
-19.6076

>  <SCORE.INTRA.DIHEDRAL>
-2.31055

>  <SCORE.INTRA.DIHEDRAL.0>
18.4221

>  <SCORE.INTRA.POLAR>
0.400545

>  <SCORE.INTRA.POLAR.0>
-1.57101

>  <SCORE.INTRA.REPUL>
-0.730195

>  <SCORE.INTRA.REPUL.0>
0.730195

>  <SCORE.INTRA.SOLV>
-5.10999

>  <SCORE.INTRA.SOLV.lig_0>
-127.221

>  <SCORE.INTRA.VDW>
-13.6082

>  <SCORE.INTRA.VDW.0>
10.8385

>  <SCORE.INTRA.norm>
-0.612738

>  <SCORE.RESTR>
0.948207

>  <SCORE.RESTR.CAVITY>
0.948207

>  <SCORE.RESTR.norm>
0.0296315

>  <SCORE.SYSTEM>
0

>  <SCORE.SYSTEM.CONST>
0

>  <SCORE.SYSTEM.DIHEDRAL>
0

>  <SCORE.SYSTEM.SOLV>
0

>  <SCORE.SYSTEM.norm>
0

>  <SCORE.heavy>
32

>  <SCORE.norm>
-1.54582

>  <RMSD>
8.076

$$$$
2tob cryst
 OpenBabel11021811463D
libRbt.so/2013.1/901 2013/11/27
 32 34  0  0  0  0  0  0  0  0999 V2000
  -14.3053   -7.5661   -8.3142 C   0  0  2  0  0  0  0  0  0  0  0  0
  -13.8831   -9.0309   -8.3725 C   0  0  1  0  0  0  0  0  0  0  0  0
  -12.4973   -9.1224   -9.0118 C   0  0  2  0  0  0  0  0  0  0  0  0
  -12.4826   -8.4375  -10.3848 C   0  0  1  0  0  0  0  0  0  0  0  0
  -13.0396   -7.0146  -10.2664 C   0  0  1  0  0  0  0  0  0  0  0  0
  -13.2058   -6.2943  -11.5945 C   0  0  0  0  0  0  0  0  0  0  0  0
  -13.8464   -9.5802   -7.0581 O   0  0  0  0  0  0  0  0  0  0  0  0
  -11.9018  -10.4858   -9.1802 N   0  3  0  0  0  0  0  0  0  0  0  0
  -11.1451   -8.3953  -10.8660 O   0  0  0  0  0  0  0  0  0  0  0  0
  -14.3325   -7.0449   -9.6296 O   0  0  0  0  0  0  0  0  0  0  0  0
  -13.1502   -4.8827  -11.4159 O   0  0  0  0  0  0  0  0  0  0  0  0
  -14.6018   -4.8754   -6.8973 C   0  0  2  0  0  0  0  0  0  0  0  0
  -14.5579   -3.3595   -6.6625 C   0  0  0  0  0  0  0  0  0  0  0  0
  -13.2438   -2.9115   -6.0287 C   0  0  1  0  0  0  0  0  0  0  0  0
  -12.0991   -3.3575   -6.9280 C   0  0  2  0  0  0  0  0  0  0  0  0
  -12.0664   -4.8866   -6.9912 C   0  0  1  0  0  0  0  0  0  0  0  0
  -13.3626   -5.4286   -7.6188 C   0  0  1  0  0  0  0  0  0  0  0  0
  -15.8287   -5.2544   -7.6759 N   0  3  0  0  0  0  0  0  0  0  0  0
  -13.2269   -1.4273   -5.8165 N   0  3  0  0  0  0  0  0  0  0  0  0
  -10.9392   -5.3026   -7.7518 O   0  0  0  0  0  0  0  0  0  0  0  0
  -10.8438   -2.8586   -6.4311 O   0  0  0  0  0  0  0  0  0  0  0  0
  -13.3915   -6.8672   -7.5129 O   0  0  0  0  0  0  0  0  0  0  0  0
   -9.8467   -2.7826   -7.4122 C   0  0  2  0  0  0  0  0  0  0  0  0
   -8.4663   -2.7225   -6.7497 C   0  0  1  0  0  0  0  0  0  0  0  0
   -8.2125   -1.3463   -6.1339 C   0  0  0  0  0  0  0  0  0  0  0  0
   -8.4476   -0.2808   -7.1924 C   0  0  1  0  0  0  0  0  0  0  0  0
   -9.8698   -0.3984   -7.7121 C   0  0  1  0  0  0  0  0  0  0  0  0
  -10.1684    0.6466   -8.7719 C   0  0  0  0  0  0  0  0  0  0  0  0
   -8.3812   -3.7665   -5.6789 N   0  3  0  0  0  0  0  0  0  0  0  0
  -11.6624    0.7565   -8.9091 N   0  3  0  0  0  0  0  0  0  0  0  0
   -8.2360    1.0134   -6.6460 O   0  0  0  0  0  0  0  0  0  0  0  0
  -10.0527   -1.6944   -8.3068 O   0  0  0  0  0  0  0  0  0  0  0  0
  1  2  1  0  0  0  0
  1 22  1  1  0  0  0
  1 10  1  0  0  0  0
  2  3  1  0  0  0  0
  2  7  1  1  0  0  0
  3  4  1  0  0  0  0
  3  8  1  6  0  0  0
  4  5  1  0  0  0  0
  4  9  1  1  0  0  0
  5  6  1  6  0  0  0
  5 10  1  0  0  0  0
  6 11  1  0  0  0  0
 12 13  1  0  0  0  0
 12 17  1  0  0  0  0
 12 18  1  6  0  0  0
 13 14  1  0  0  0  0
 14 15  1  0  0  0  0
 14 19  1  6  0  0  0
 15 16  1  0  0  0  0
 15 21  1  1  0  0  0
 16 17  1  0  0  0  0
 16 20  1  6  0  0  0
 17 22  1  1  0  0  0
 23 21  1  1  0  0  0
 23 24  1  0  0  0  0
 23 32  1  0  0  0  0
 24 25  1  0  0  0  0
 24 29  1  1  0  0  0
 25 26  1  0  0  0  0
 26 27  1  0  0  0  0
 26 31  1  1  0  0  0
 27 28  1  6  0  0  0
 27 32  1  0  0  0  0
 28 30  1  0  0  0  0
M  CHG  5   8   1  18   1  19   1  29   1  30   1
M  END
>  <CHROM.1>
162.68248083,61.10522261,31.68846841,-65.65237851,-154.60281960,-62.33490834
-6.13176511,-168.33076210,-157.43959250,-58.95826710,74.68185978,-160.48559456
-68.46030231,65.95511798,-162.18629230,69.42999980,-11.91462087,-4.53133095
-8.00571089,2.00632167,-0.10151417,-2.83679010

>  <Name>
2tob cryst

>  <RI>
2.10184e+07

>  <Rbt.Current_Directory>
/home/itssahil/PROJECTS/Mol_Feturizer/New_Systems/rnas/2tob

>  <Rbt.Executable>
rbdock ($Id: //depot/dev/client3/rdock/2013.1/src/exe/rbdock.cxx#4 $)

>  <Rbt.Library>
libRbt.so (2013.1, Build901 2013/11/27)

>  <Rbt.Parameter_File>
/export/apps/rDock/src/rDock_2013.1_src/data/scripts/dock_solv.prm

>  <Rbt.Receptor>
prm/pocket_docking_7.prm

>  <SCORE>
-49.1513

>  <SCORE.INTER>
-29.2409

>  <SCORE.INTER.CONST>
1

>  <SCORE.INTER.POLAR>
-5.16278

>  <SCORE.INTER.ROT>
6

>  <SCORE.INTER.SOLV>
30.5729

>  <SCORE.INTER.VDW>
-20.0757

>  <SCORE.INTER.norm>
-0.91378

>  <SCORE.INTRA>
-19.9104

>  <SCORE.INTRA.DIHEDRAL>
-2.72745

>  <SCORE.INTRA.DIHEDRAL.0>
18.4221

>  <SCORE.INTRA.POLAR>
0.516521

>  <SCORE.INTRA.POLAR.0>
-1.57101

>  <SCORE.INTRA.REPUL>
-0.730195

>  <SCORE.INTRA.REPUL.0>
0.730195

>  <SCORE.INTRA.SOLV>
-6.60955

>  <SCORE.INTRA.SOLV.lig_0>
-127.221

>  <SCORE.INTRA.VDW>
-13.3471

>  <SCORE.INTRA.VDW.0>
10.8385

>  <SCORE.INTRA.norm>
-0.622199

>  <SCORE.RESTR>
0

>  <SCORE.RESTR.CAVITY>
0

>  <SCORE.RESTR.norm>
0

>  <SCORE.SYSTEM>
0

>  <SCORE.SYSTEM.CONST>
0

>  <SCORE.SYSTEM.DIHEDRAL>
0

>  <SCORE.SYSTEM.SOLV>
0

>  <SCORE.SYSTEM.norm>
0

>  <SCORE.heavy>
32

>  <SCORE.norm>
-1.53598

>  <RMSD>
8.076

$$$$
2tob cryst
 OpenBabel11021811463D
libRbt.so/2013.1/901 2013/11/27
 32 34  0  0  0  0  0  0  0  0999 V2000
  -13.3763   -3.1457   -8.4442 C   0  0  2  0  0  0  0  0  0  0  0  0
  -14.9002   -3.1421   -8.3737 C   0  0  1  0  0  0  0  0  0  0  0  0
  -15.3831   -4.5474   -8.0136 C   0  0  2  0  0  0  0  0  0  0  0  0
  -14.8294   -5.5848   -8.9993 C   0  0  1  0  0  0  0  0  0  0  0  0
  -13.3077   -5.4407   -9.1116 C   0  0  1  0  0  0  0  0  0  0  0  0
  -12.6713   -6.3245  -10.1718 C   0  0  0  0  0  0  0  0  0  0  0  0
  -15.3403   -2.2122   -7.3877 O   0  0  0  0  0  0  0  0  0  0  0  0
  -16.8608   -4.7657   -7.9100 N   0  3  0  0  0  0  0  0  0  0  0  0
  -15.1592   -6.8873   -8.5333 O   0  0  0  0  0  0  0  0  0  0  0  0
  -12.9658   -4.0765   -9.4279 O   0  0  0  0  0  0  0  0  0  0  0  0
  -11.6640   -7.1543   -9.6020 O   0  0  0  0  0  0  0  0  0  0  0  0
  -10.7482   -4.6243   -7.0428 C   0  0  2  0  0  0  0  0  0  0  0  0
   -9.2188   -4.5147   -7.1053 C   0  0  0  0  0  0  0  0  0  0  0  0
   -8.7549   -3.5067   -8.1532 C   0  0  1  0  0  0  0  0  0  0  0  0
   -9.3858   -2.1579   -7.8360 C   0  0  2  0  0  0  0  0  0  0  0  0
  -10.9077   -2.2648   -7.9618 C   0  0  1  0  0  0  0  0  0  0  0  0
  -11.4646   -3.2687   -6.9371 C   0  0  1  0  0  0  0  0  0  0  0  0
  -11.1695   -5.4894   -5.8898 N   0  3  0  0  0  0  0  0  0  0  0  0
   -7.2586   -3.4165   -8.1879 N   0  3  0  0  0  0  0  0  0  0  0  0
  -11.4882   -0.9824   -7.7608 O   0  0  0  0  0  0  0  0  0  0  0  0
   -8.8882   -1.1457   -8.7301 O   0  0  0  0  0  0  0  0  0  0  0  0
  -12.8694   -3.4877   -7.1826 O   0  0  0  0  0  0  0  0  0  0  0  0
   -8.1591   -0.1398   -8.0827 C   0  0  2  0  0  0  0  0  0  0  0  0
   -8.5706    1.2334   -8.6237 C   0  0  1  0  0  0  0  0  0  0  0  0
   -7.9935    1.4687  -10.0199 C   0  0  0  0  0  0  0  0  0  0  0  0
   -6.4921    1.2342   -9.9795 C   0  0  1  0  0  0  0  0  0  0  0  0
   -6.2204   -0.1818   -9.5021 C   0  0  1  0  0  0  0  0  0  0  0  0
   -4.7330   -0.4794   -9.4458 C   0  0  0  0  0  0  0  0  0  0  0  0
  -10.0648    1.3176   -8.6859 N   0  3  0  0  0  0  0  0  0  0  0  0
   -4.5533   -1.9705   -9.5312 N   0  3  0  0  0  0  0  0  0  0  0  0
   -5.9269    1.4287  -11.2682 O   0  0  0  0  0  0  0  0  0  0  0  0
   -6.7538   -0.3471   -8.1773 O   0  0  0  0  0  0  0  0  0  0  0  0
  1  2  1  0  0  0  0
  1 22  1  1  0  0  0
  1 10  1  0  0  0  0
  2  3  1  0  0  0  0
  2  7  1  1  0  0  0
  3  4  1  0  0  0  0
  3  8  1  6  0  0  0
  4  5  1  0  0  0  0
  4  9  1  1  0  0  0
  5  6  1  6  0  0  0
  5 10  1  0  0  0  0
  6 11  1  0  0  0  0
 12 13  1  0  0  0  0
 12 17  1  0  0  0  0
 12 18  1  1  0  0  0
 13 14  1  0  0  0  0
 14 15  1  0  0  0  0
 14 19  1  1  0  0  0
 15 16  1  0  0  0  0
 15 21  1  6  0  0  0
 16 17  1  0  0  0  0
 16 20  1  1  0  0  0
 17 22  1  6  0  0  0
 23 21  1  6  0  0  0
 23 24  1  0  0  0  0
 23 32  1  0  0  0  0
 24 25  1  0  0  0  0
 24 29  1  6  0  0  0
 25 26  1  0  0  0  0
 26 27  1  0  0  0  0
 26 31  1  6  0  0  0
 27 28  1  1  0  0  0
 27 32  1  0  0  0  0
 28 30  1  0  0  0  0
M  CHG  5   8   1  18   1  19   1  29   1  30   1
M  END
>  <CHROM.1>
-166.65076980,71.41094676,172.95329136,-169.75887727,-123.62208801,-91.62276484
-176.22191734,-33.32539688,-116.04609958,-51.82804225,-102.18621409,-136.07166057
76.15762699,63.74774573,-156.99109159,-141.89410141,-10.57482406,-2.66240030
-8.50199356,2.56142113,-0.09731954,3.07378088

>  <Name>
2tob cryst

>  <RI>
0

>  <Rbt.Current_Directory>
/home/itssahil/PROJECTS/Mol_Feturizer/New_Systems/rnas/2tob

>  <Rbt.Executable>
rbdock ($Id: //depot/dev/client3/rdock/2013.1/src/exe/rbdock.cxx#4 $)

>  <Rbt.Library>
libRbt.so (2013.1, Build901 2013/11/27)

>  <Rbt.Parameter_File>
/export/apps/rDock/src/rDock_2013.1_src/data/scripts/dock_solv.prm

>  <Rbt.Receptor>
prm/pocket_docking_6.prm

>  <SCORE>
-56.3133

>  <SCORE.INTER>
-51.0499

>  <SCORE.INTER.CONST>
1

>  <SCORE.INTER.POLAR>
-8.58863

>  <SCORE.INTER.ROT>
6

>  <SCORE.INTER.SOLV>
33.1349

>  <SCORE.INTER.VDW>
-24.0495

>  <SCORE.INTER.norm>
-1.59531

>  <SCORE.INTRA>
-5.26343

>  <SCORE.INTRA.DIHEDRAL>
18.4879

>  <SCORE.INTRA.DIHEDRAL.0>
18.4221

>  <SCORE.INTRA.POLAR>
0.788002

>  <SCORE.INTRA.POLAR.0>
-1.57101

>  <SCORE.INTRA.REPUL>
-0.730195

>  <SCORE.INTRA.REPUL.0>
0.730195

>  <SCORE.INTRA.SOLV>
-2.18767

>  <SCORE.INTRA.SOLV.lig_0>
-127.221

>  <SCORE.INTRA.VDW>
-12.4418

>  <SCORE.INTRA.VDW.0>
10.8385

>  <SCORE.INTRA.norm>
-0.164482

>  <SCORE.RESTR>
0

>  <SCORE.RESTR.CAVITY>
0

>  <SCORE.RESTR.norm>
0

>  <SCORE.SYSTEM>
0

>  <SCORE.SYSTEM.CONST>
0

>  <SCORE.SYSTEM.DIHEDRAL>
0

>  <SCORE.SYSTEM.SOLV>
0

>  <SCORE.SYSTEM.norm>
0

>  <SCORE.heavy>
32

>  <SCORE.norm>
-1.75979

>  <RMSD>
8.087

$$$$
2tob cryst
 OpenBabel11021811463D
libRbt.so/2013.1/901 2013/11/27
 32 34  0  0  0  0  0  0  0  0999 V2000
  -10.4481   -3.0021   -2.4843 C   0  0  2  0  0  0  0  0  0  0  0  0
  -11.6795   -2.5563   -1.7021 C   0  0  1  0  0  0  0  0  0  0  0  0
  -11.7829   -1.0322   -1.7667 C   0  0  2  0  0  0  0  0  0  0  0  0
  -10.4870   -0.3752   -1.2734 C   0  0  1  0  0  0  0  0  0  0  0  0
   -9.2840   -0.9666   -2.0164 C   0  0  1  0  0  0  0  0  0  0  0  0
   -7.9349   -0.4907   -1.5033 C   0  0  0  0  0  0  0  0  0  0  0  0
  -12.8511   -3.1445   -2.2607 O   0  0  0  0  0  0  0  0  0  0  0  0
  -12.9222   -0.3848   -1.0423 N   0  3  0  0  0  0  0  0  0  0  0  0
  -10.5603    1.0254   -1.5084 O   0  0  0  0  0  0  0  0  0  0  0  0
   -9.3006   -2.4043   -1.9114 O   0  0  0  0  0  0  0  0  0  0  0  0
   -7.5039    0.6681   -2.2099 O   0  0  0  0  0  0  0  0  0  0  0  0
   -9.8266   -4.2572   -5.4097 C   0  0  2  0  0  0  0  0  0  0  0  0
   -8.9352   -4.5595   -6.6217 C   0  0  0  0  0  0  0  0  0  0  0  0
   -8.8883   -3.3958   -7.6081 C   0  0  1  0  0  0  0  0  0  0  0  0
   -8.4015   -2.1573   -6.8684 C   0  0  2  0  0  0  0  0  0  0  0  0
   -9.4126   -1.7819   -5.7822 C   0  0  1  0  0  0  0  0  0  0  0  0
   -9.5266   -2.9074   -4.7390 C   0  0  1  0  0  0  0  0  0  0  0  0
   -9.7112   -5.3476   -4.3835 N   0  3  0  0  0  0  0  0  0  0  0  0
   -8.0067   -3.7168   -8.7777 N   0  3  0  0  0  0  0  0  0  0  0  0
   -9.0055   -0.5709   -5.1580 O   0  0  0  0  0  0  0  0  0  0  0  0
   -8.2307   -1.0588   -7.7825 O   0  0  0  0  0  0  0  0  0  0  0  0
  -10.6031   -2.6166   -3.8234 O   0  0  0  0  0  0  0  0  0  0  0  0
   -7.3236   -0.0923   -7.3290 C   0  0  2  0  0  0  0  0  0  0  0  0
   -7.8779    1.3107   -7.5983 C   0  0  1  0  0  0  0  0  0  0  0  0
   -7.7824    1.6627   -9.0831 C   0  0  0  0  0  0  0  0  0  0  0  0
   -6.3507    1.4534   -9.5492 C   0  0  1  0  0  0  0  0  0  0  0  0
   -5.9497    0.0102   -9.2980 C   0  0  1  0  0  0  0  0  0  0  0  0
   -4.5266   -0.2637   -9.7495 C   0  0  0  0  0  0  0  0  0  0  0  0
   -9.3109    1.3720   -7.1669 N   0  3  0  0  0  0  0  0  0  0  0  0
   -4.4518   -0.0121  -11.2308 N   0  3  0  0  0  0  0  0  0  0  0  0
   -6.2321    1.7564  -10.9320 O   0  0  0  0  0  0  0  0  0  0  0  0
   -6.0264   -0.2659   -7.8892 O   0  0  0  0  0  0  0  0  0  0  0  0
  1  2  1  0  0  0  0
  1 22  1  6  0  0  0
  1 10  1  0  0  0  0
  2  3  1  0  0  0  0
  2  7  1  6  0  0  0
  3  4  1  0  0  0  0
  3  8  1  1  0  0  0
  4  5  1  0  0  0  0
  4  9  1  6  0  0  0
  5  6  1  1  0  0  0
  5 10  1  0  0  0  0
  6 11  1  0  0  0  0
 12 13  1  0  0  0  0
 12 17  1  0  0  0  0
 12 18  1  1  0  0  0
 13 14  1  0  0  0  0
 14 15  1  0  0  0  0
 14 19  1  6  0  0  0
 15 16  1  0  0  0  0
 15 21  1  6  0  0  0
 16 17  1  0  0  0  0
 16 20  1  1  0  0  0
 17 22  1  1  0  0  0
 23 21  1  6  0  0  0
 23 24  1  0  0  0  0
 23 32  1  0  0  0  0
 24 25  1  0  0  0  0
 24 29  1  6  0  0  0
 25 26  1  0  0  0  0
 26 27  1  0  0  0  0
 26 31  1  6  0  0  0
 27 28  1  1  0  0  0
 27 32  1  0  0  0  0
 28 30  1  0  0  0  0
M  CHG  5   8   1  18   1  19   1  29   1  30   1
M  END
>  <CHROM.1>
178.19764246,71.44404673,-177.51074904,71.59116809,-91.16760248,170.23136333
-76.90440730,-156.72291571,-156.18394652,174.67033412,93.58562398,-137.11717869
-54.10597213,69.46249525,-61.39227207,143.49760926,-8.79292356,-1.16679365
-5.51387551,2.93155662,1.02096900,0.49468386

>  <Name>
2tob cryst

>  <RI>
3.75586e+07

>  <Rbt.Current_Directory>
/home/itssahil/PROJECTS/Mol_Feturizer/New_Systems/rnas/2tob

>  <Rbt.Executable>
rbdock ($Id: //depot/dev/client3/rdock/2013.1/src/exe/rbdock.cxx#4 $)

>  <Rbt.Library>
libRbt.so (2013.1, Build901 2013/11/27)

>  <Rbt.Parameter_File>
/export/apps/rDock/src/rDock_2013.1_src/data/scripts/dock_solv.prm

>  <Rbt.Receptor>
prm/pocket_docking_8.prm

>  <SCORE>
-55.7223

>  <SCORE.INTER>
-39.0268

>  <SCORE.INTER.CONST>
1

>  <SCORE.INTER.POLAR>
-5.15122

>  <SCORE.INTER.ROT>
6

>  <SCORE.INTER.SOLV>
35.7633

>  <SCORE.INTER.VDW>
-28.3682

>  <SCORE.INTER.norm>
-1.21959

>  <SCORE.INTRA>
-16.6955

>  <SCORE.INTRA.DIHEDRAL>
3.66606

>  <SCORE.INTRA.DIHEDRAL.0>
18.4221

>  <SCORE.INTRA.POLAR>
-0.00126335

>  <SCORE.INTRA.POLAR.0>
-1.57101

>  <SCORE.INTRA.REPUL>
-0.710638

>  <SCORE.INTRA.REPUL.0>
0.730195

>  <SCORE.INTRA.SOLV>
-3.29149

>  <SCORE.INTRA.SOLV.lig_0>
-127.221

>  <SCORE.INTRA.VDW>
-13.3253

>  <SCORE.INTRA.VDW.0>
10.8385

>  <SCORE.INTRA.norm>
-0.521736

>  <SCORE.RESTR>
0

>  <SCORE.RESTR.CAVITY>
0

>  <SCORE.RESTR.norm>
0

>  <SCORE.SYSTEM>
0

>  <SCORE.SYSTEM.CONST>
0

>  <SCORE.SYSTEM.DIHEDRAL>
0

>  <SCORE.SYSTEM.SOLV>
0

>  <SCORE.SYSTEM.norm>
0

>  <SCORE.heavy>
32

>  <SCORE.norm>
-1.74132

>  <RMSD>
8.094

$$$$
2tob cryst
 OpenBabel11021811463D
libRbt.so/2013.1/901 2013/11/27
 32 34  0  0  0  0  0  0  0  0999 V2000
  -12.8296   -2.5269   -8.7197 C   0  0  2  0  0  0  0  0  0  0  0  0
  -14.3344   -2.2770   -8.7057 C   0  0  1  0  0  0  0  0  0  0  0  0
  -15.0249   -3.4482   -8.0063 C   0  0  2  0  0  0  0  0  0  0  0  0
  -14.6428   -4.7803   -8.6652 C   0  0  1  0  0  0  0  0  0  0  0  0
  -13.1178   -4.9002   -8.7582 C   0  0  1  0  0  0  0  0  0  0  0  0
  -12.6308   -6.1180   -9.5264 C   0  0  0  0  0  0  0  0  0  0  0  0
  -14.6207   -1.0642   -8.0144 O   0  0  0  0  0  0  0  0  0  0  0  0
  -16.5179   -3.4078   -7.9007 N   0  3  0  0  0  0  0  0  0  0  0  0
  -15.1657   -5.8484   -7.8854 O   0  0  0  0  0  0  0  0  0  0  0  0
  -12.5726   -3.7354   -9.4096 O   0  0  0  0  0  0  0  0  0  0  0  0
  -11.2697   -6.4009   -9.2179 O   0  0  0  0  0  0  0  0  0  0  0  0
  -10.4804   -4.0788   -7.5481 C   0  0  2  0  0  0  0  0  0  0  0  0
   -8.9559   -4.2194   -7.6543 C   0  0  0  0  0  0  0  0  0  0  0  0
   -8.3355   -3.1312   -8.5261 C   0  0  1  0  0  0  0  0  0  0  0  0
   -8.7193   -1.7754   -7.9494 C   0  0  2  0  0  0  0  0  0  0  0  0
  -10.2378   -1.5993   -8.0281 C   0  0  1  0  0  0  0  0  0  0  0  0
  -10.9494   -2.6638   -7.1745 C   0  0  1  0  0  0  0  0  0  0  0  0
  -11.0329   -5.0549   -6.5494 N   0  3  0  0  0  0  0  0  0  0  0  0
   -6.8467   -3.2899   -8.6071 N   0  3  0  0  0  0  0  0  0  0  0  0
  -10.5848   -0.2954   -7.5795 O   0  0  0  0  0  0  0  0  0  0  0  0
   -8.0633   -0.7167   -8.6707 O   0  0  0  0  0  0  0  0  0  0  0  0
  -12.3735   -2.5943   -7.3956 O   0  0  0  0  0  0  0  0  0  0  0  0
   -6.8797   -0.2783   -8.0628 C   0  0  2  0  0  0  0  0  0  0  0  0
   -7.0727    1.1353   -7.5038 C   0  0  1  0  0  0  0  0  0  0  0  0
   -7.0881    2.1723   -8.6271 C   0  0  0  0  0  0  0  0  0  0  0  0
   -5.8396    1.9985   -9.4768 C   0  0  1  0  0  0  0  0  0  0  0  0
   -5.8060    0.5851  -10.0317 C   0  0  1  0  0  0  0  0  0  0  0  0
   -4.5808    0.3508  -10.8967 C   0  0  0  0  0  0  0  0  0  0  0  0
   -8.3665    1.2018   -6.7518 N   0  3  0  0  0  0  0  0  0  0  0  0
   -3.9268   -0.9251  -10.4413 N   0  3  0  0  0  0  0  0  0  0  0  0
   -5.8321    2.9384  -10.5419 O   0  0  0  0  0  0  0  0  0  0  0  0
   -5.7627   -0.3521   -8.9424 O   0  0  0  0  0  0  0  0  0  0  0  0
  1  2  1  0  0  0  0
  1 22  1  1  0  0  0
  1 10  1  0  0  0  0
  2  3  1  0  0  0  0
  2  7  1  1  0  0  0
  3  4  1  0  0  0  0
  3  8  1  6  0  0  0
  4  5  1  0  0  0  0
  4  9  1  1  0  0  0
  5  6  1  6  0  0  0
  5 10  1  0  0  0  0
  6 11  1  0  0  0  0
 12 13  1  0  0  0  0
 12 17  1  0  0  0  0
 12 18  1  1  0  0  0
 13 14  1  0  0  0  0
 14 15  1  0  0  0  0
 14 19  1  1  0  0  0
 15 16  1  0  0  0  0
 15 21  1  6  0  0  0
 16 17  1  0  0  0  0
 16 20  1  1  0  0  0
 17 22  1  6  0  0  0
 23 21  1  6  0  0  0
 23 24  1  0  0  0  0
 23 32  1  0  0  0  0
 24 25  1  0  0  0  0
 24 29  1  6  0  0  0
 25 26  1  0  0  0  0
 26 27  1  0  0  0  0
 26 31  1  6  0  0  0
 27 28  1  6  0  0  0
 27 32  1  0  0  0  0
 28 30  1  0  0  0  0
M  CHG  5   8   1  18   1  19   1  29   1  30   1
M  END
>  <CHROM.1>
-172.63997476,-174.70207594,-69.48453460,179.55075046,-161.36584738,-163.14426480
46.13743663,-38.37613418,-96.05505190,-169.14755247,-74.10198467,-110.55675455
72.06423158,-43.15748324,130.50775892,-20.89505687,-10.03198529,-2.05018344
-8.48871516,2.60875505,-0.17074504,-3.07855280

>  <Name>
2tob cryst

>  <RI>
0

>  <Rbt.Current_Directory>
/home/itssahil/PROJECTS/Mol_Feturizer/New_Systems/rnas/2tob

>  <Rbt.Executable>
rbdock ($Id: //depot/dev/client3/rdock/2013.1/src/exe/rbdock.cxx#4 $)

>  <Rbt.Library>
libRbt.so (2013.1, Build901 2013/11/27)

>  <Rbt.Parameter_File>
/export/apps/rDock/src/rDock_2013.1_src/data/scripts/dock_solv.prm

>  <Rbt.Receptor>
prm/pocket_docking_5.prm

>  <SCORE>
-63.3527

>  <SCORE.INTER>
-47.1832

>  <SCORE.INTER.CONST>
1

>  <SCORE.INTER.POLAR>
-5.83081

>  <SCORE.INTER.ROT>
6

>  <SCORE.INTER.SOLV>
35.529

>  <SCORE.INTER.VDW>
-31.4624

>  <SCORE.INTER.norm>
-1.47447

>  <SCORE.INTRA>
-16.1695

>  <SCORE.INTRA.DIHEDRAL>
8.38366

>  <SCORE.INTRA.DIHEDRAL.0>
18.4221

>  <SCORE.INTRA.POLAR>
-1.263

>  <SCORE.INTRA.POLAR.0>
-1.57101

>  <SCORE.INTRA.REPUL>
-0.713437

>  <SCORE.INTRA.REPUL.0>
0.730195

>  <SCORE.INTRA.SOLV>
0.50463

>  <SCORE.INTRA.SOLV.lig_0>
-127.221

>  <SCORE.INTRA.VDW>
-12.7523

>  <SCORE.INTRA.VDW.0>
10.8385

>  <SCORE.INTRA.norm>
-0.505297

>  <SCORE.RESTR>
0

>  <SCORE.RESTR.CAVITY>
0

>  <SCORE.RESTR.norm>
0

>  <SCORE.SYSTEM>
0

>  <SCORE.SYSTEM.CONST>
0

>  <SCORE.SYSTEM.DIHEDRAL>
0

>  <SCORE.SYSTEM.SOLV>
0

>  <SCORE.SYSTEM.norm>
0

>  <SCORE.heavy>
32

>  <SCORE.norm>
-1.97977

>  <RMSD>
8.104

$$$$
2tob cryst
 OpenBabel11021811463D
libRbt.so/2013.1/901 2013/11/27
 32 34  0  0  0  0  0  0  0  0999 V2000
  -11.8967   -1.4345   -9.1198 C   0  0  2  0  0  0  0  0  0  0  0  0
  -13.4057   -1.3805   -9.3368 C   0  0  1  0  0  0  0  0  0  0  0  0
  -14.0951   -2.1721   -8.2252 C   0  0  2  0  0  0  0  0  0  0  0  0
  -13.5488   -3.6043   -8.1547 C   0  0  1  0  0  0  0  0  0  0  0  0
  -12.0190   -3.5777   -8.0666 C   0  0  1  0  0  0  0  0  0  0  0  0
  -11.3634   -4.9471   -8.1380 C   0  0  0  0  0  0  0  0  0  0  0  0
  -13.8530   -0.0276   -9.3158 O   0  0  0  0  0  0  0  0  0  0  0  0
  -15.5894   -2.2594   -8.2626 N   0  3  0  0  0  0  0  0  0  0  0  0
  -14.0886   -4.2490   -7.0079 O   0  0  0  0  0  0  0  0  0  0  0  0
  -11.4789   -2.7863   -9.1438 O   0  0  0  0  0  0  0  0  0  0  0  0
   -9.9598   -4.8491   -7.9189 O   0  0  0  0  0  0  0  0  0  0  0  0
   -9.8775   -2.2334   -6.9417 C   0  0  2  0  0  0  0  0  0  0  0  0
   -8.3755   -2.4662   -6.7301 C   0  0  0  0  0  0  0  0  0  0  0  0
   -7.5506   -2.0527   -7.9457 C   0  0  1  0  0  0  0  0  0  0  0  0
   -7.8384   -0.5883   -8.2471 C   0  0  2  0  0  0  0  0  0  0  0  0
   -9.3114   -0.4267   -8.6307 C   0  0  1  0  0  0  0  0  0  0  0  0
  -10.2219   -0.8268   -7.4564 C   0  0  1  0  0  0  0  0  0  0  0  0
  -10.6359   -2.4863   -5.6705 N   0  3  0  0  0  0  0  0  0  0  0  0
   -6.0885   -2.2857   -7.7086 N   0  3  0  0  0  0  0  0  0  0  0  0
   -9.5553    0.9231   -9.0055 O   0  0  0  0  0  0  0  0  0  0  0  0
   -6.9971   -0.1188   -9.3164 O   0  0  0  0  0  0  0  0  0  0  0  0
  -11.5987   -0.8356   -7.8877 O   0  0  0  0  0  0  0  0  0  0  0  0
   -5.8902    0.6164   -8.8729 C   0  0  2  0  0  0  0  0  0  0  0  0
   -6.0306    2.0808   -9.3017 C   0  0  1  0  0  0  0  0  0  0  0  0
   -5.7613    2.2427  -10.7980 C   0  0  0  0  0  0  0  0  0  0  0  0
   -4.4151    1.6184  -11.1278 C   0  0  1  0  0  0  0  0  0  0  0  0
   -4.4318    0.1539  -10.7260 C   0  0  1  0  0  0  0  0  0  0  0  0
   -3.1120   -0.5285  -11.0368 C   0  0  0  0  0  0  0  0  0  0  0  0
   -7.4161    2.5598   -8.9941 N   0  3  0  0  0  0  0  0  0  0  0  0
   -2.6986   -0.1309  -12.4274 N   0  3  0  0  0  0  0  0  0  0  0  0
   -4.1424    1.7376  -12.5169 O   0  0  0  0  0  0  0  0  0  0  0  0
   -4.6584    0.0522   -9.3100 O   0  0  0  0  0  0  0  0  0  0  0  0
  1  2  1  0  0  0  0
  1 22  1  1  0  0  0
  1 10  1  0  0  0  0
  2  3  1  0  0  0  0
  2  7  1  1  0  0  0
  3  4  1  0  0  0  0
  3  8  1  6  0  0  0
  4  5  1  0  0  0  0
  4  9  1  1  0  0  0
  5  6  1  6  0  0  0
  5 10  1  0  0  0  0
  6 11  1  0  0  0  0
 12 13  1  0  0  0  0
 12 17  1  0  0  0  0
 12 18  1  1  0  0  0
 13 14  1  0  0  0  0
 14 15  1  0  0  0  0
 14 19  1  1  0  0  0
 15 16  1  0  0  0  0
 15 21  1  6  0  0  0
 16 17  1  0  0  0  0
 16 20  1  1  0  0  0
 17 22  1  6  0  0  0
 23 21  1  6  0  0  0
 23 24  1  0  0  0  0
 23 32  1  0  0  0  0
 24 25  1  0  0  0  0
 24 29  1  6  0  0  0
 25 26  1  0  0  0  0
 26 27  1  0  0  0  0
 26 31  1  6  0  0  0
 27 28  1  1  0  0  0
 27 32  1  0  0  0  0
 28 30  1  0  0  0  0
M  CHG  5   8   1  18   1  19   1  29   1  30   1
M  END
>  <CHROM.1>
177.55605146,-52.10939234,-66.06926643,73.79672223,-174.31241420,78.30073971
177.73536242,58.06425420,-100.28257130,110.75676869,-76.70232166,-112.53657344
-165.56403585,-65.81807851,-45.72049325,-56.27925829,-9.01272158,-1.07346480
-8.86017429,2.66799101,-0.09842456,2.67442006

>  <Name>
2tob cryst

>  <RI>
0

>  <Rbt.Current_Directory>
/home/itssahil/PROJECTS/Mol_Feturizer/New_Systems/rnas/2tob

>  <Rbt.Executable>
rbdock ($Id: //depot/dev/client3/rdock/2013.1/src/exe/rbdock.cxx#4 $)

>  <Rbt.Library>
libRbt.so (2013.1, Build901 2013/11/27)

>  <Rbt.Parameter_File>
/export/apps/rDock/src/rDock_2013.1_src/data/scripts/dock_solv.prm

>  <Rbt.Receptor>
prm/blind_docking_40.prm

>  <SCORE>
-42.5468

>  <SCORE.INTER>
-39.5516

>  <SCORE.INTER.CONST>
1

>  <SCORE.INTER.POLAR>
-5.46306

>  <SCORE.INTER.ROT>
6

>  <SCORE.INTER.SOLV>
38.7916

>  <SCORE.INTER.VDW>
-28.6881

>  <SCORE.INTER.norm>
-1.23599

>  <SCORE.INTRA>
-9.02893

>  <SCORE.INTRA.DIHEDRAL>
6.46029

>  <SCORE.INTRA.DIHEDRAL.0>
18.4221

>  <SCORE.INTRA.POLAR>
0.274175

>  <SCORE.INTRA.POLAR.0>
-1.57101

>  <SCORE.INTRA.REPUL>
-0.730195

>  <SCORE.INTRA.REPUL.0>
0.730195

>  <SCORE.INTRA.SOLV>
2.59183

>  <SCORE.INTRA.SOLV.lig_0>
-127.221

>  <SCORE.INTRA.VDW>
-10.8362

>  <SCORE.INTRA.VDW.0>
10.8385

>  <SCORE.INTRA.norm>
-0.282154

>  <SCORE.RESTR>
6.03375

>  <SCORE.RESTR.CAVITY>
6.03375

>  <SCORE.RESTR.norm>
0.188555

>  <SCORE.SYSTEM>
0

>  <SCORE.SYSTEM.CONST>
0

>  <SCORE.SYSTEM.DIHEDRAL>
0

>  <SCORE.SYSTEM.SOLV>
0

>  <SCORE.SYSTEM.norm>
0

>  <SCORE.heavy>
32

>  <SCORE.norm>
-1.32959

>  <RMSD>
8.110

$$$$
2tob cryst
 OpenBabel11021811463D
libRbt.so/2013.1/901 2013/11/27
 32 34  0  0  0  0  0  0  0  0999 V2000
  -12.4849   -1.6781   -8.9543 C   0  0  2  0  0  0  0  0  0  0  0  0
  -13.9990   -1.4921   -8.9650 C   0  0  1  0  0  0  0  0  0  0  0  0
  -14.6396   -2.5920   -8.1179 C   0  0  2  0  0  0  0  0  0  0  0  0
  -14.2010   -3.9803   -8.6026 C   0  0  1  0  0  0  0  0  0  0  0  0
  -12.6722   -4.0468   -8.6871 C   0  0  1  0  0  0  0  0  0  0  0  0
  -12.1336   -5.3314   -9.2953 C   0  0  0  0  0  0  0  0  0  0  0  0
  -14.3368   -0.2139   -8.4333 O   0  0  0  0  0  0  0  0  0  0  0  0
  -16.1330   -2.6014   -8.0109 N   0  3  0  0  0  0  0  0  0  0  0  0
  -14.6785   -4.9607   -7.6899 O   0  0  0  0  0  0  0  0  0  0  0  0
  -12.1765   -2.9532   -9.4849 O   0  0  0  0  0  0  0  0  0  0  0  0
  -12.4292   -6.4488   -8.4636 O   0  0  0  0  0  0  0  0  0  0  0  0
  -10.2961   -3.2277   -7.4920 C   0  0  2  0  0  0  0  0  0  0  0  0
   -8.7949   -3.5397   -7.5559 C   0  0  0  0  0  0  0  0  0  0  0  0
   -8.0754   -2.7002   -8.6080 C   0  0  1  0  0  0  0  0  0  0  0  0
   -8.3140   -1.2293   -8.2956 C   0  0  2  0  0  0  0  0  0  0  0  0
   -9.8074   -0.9175   -8.4199 C   0  0  1  0  0  0  0  0  0  0  0  0
  -10.6154   -1.7278   -7.3910 C   0  0  1  0  0  0  0  0  0  0  0  0
  -10.9355   -3.9410   -6.3354 N   0  3  0  0  0  0  0  0  0  0  0  0
   -6.6113   -3.0217   -8.6440 N   0  3  0  0  0  0  0  0  0  0  0  0
  -10.0158    0.4754   -8.2235 O   0  0  0  0  0  0  0  0  0  0  0  0
   -7.5606   -0.3945   -9.1939 O   0  0  0  0  0  0  0  0  0  0  0  0
  -12.0271   -1.5560   -7.6347 O   0  0  0  0  0  0  0  0  0  0  0  0
   -6.4723    0.2417   -8.5828 C   0  0  2  0  0  0  0  0  0  0  0  0
   -6.5746    1.7575   -8.7825 C   0  0  1  0  0  0  0  0  0  0  0  0
   -6.2225    2.1470  -10.2184 C   0  0  0  0  0  0  0  0  0  0  0  0
   -4.8665    1.5576  -10.5715 C   0  0  1  0  0  0  0  0  0  0  0  0
   -4.9196    0.0487  -10.4068 C   0  0  1  0  0  0  0  0  0  0  0  0
   -3.5916   -0.6007  -10.7516 C   0  0  0  0  0  0  0  0  0  0  0  0
   -7.9700    2.2078   -8.4762 N   0  3  0  0  0  0  0  0  0  0  0  0
   -3.1687   -0.1039  -12.1071 N   0  3  0  0  0  0  0  0  0  0  0  0
   -4.5172    1.8879  -11.9083 O   0  0  0  0  0  0  0  0  0  0  0  0
   -5.2241   -0.2695   -9.0383 O   0  0  0  0  0  0  0  0  0  0  0  0
  1  2  1  0  0  0  0
  1 22  1  1  0  0  0
  1 10  1  0  0  0  0
  2  3  1  0  0  0  0
  2  7  1  1  0  0  0
  3  4  1  0  0  0  0
  3  8  1  6  0  0  0
  4  5  1  0  0  0  0
  4  9  1  1  0  0  0
  5  6  1  6  0  0  0
  5 10  1  0  0  0  0
  6 11  1  0  0  0  0
 12 13  1  0  0  0  0
 12 17  1  0  0  0  0
 12 18  1  1  0  0  0
 13 14  1  0  0  0  0
 14 15  1  0  0  0  0
 14 19  1  1  0  0  0
 15 16  1  0  0  0  0
 15 21  1  6  0  0  0
 16 17  1  0  0  0  0
 16 20  1  1  0  0  0
 17 22  1  6  0  0  0
 23 21  1  6  0  0  0
 23 24  1  0  0  0  0
 23 32  1  0  0  0  0
 24 25  1  0  0  0  0
 24 29  1  6  0  0  0
 25 26  1  0  0  0  0
 26 27  1  0  0  0  0
 26 31  1  6  0  0  0
 27 28  1  1  0  0  0
 27 32  1  0  0  0  0
 28 30  1  0  0  0  0
M  CHG  5   8   1  18   1  19   1  29   1  30   1
M  END
>  <CHROM.1>
178.67444893,-168.82600701,67.70802170,-49.32009032,-65.58613472,58.15223307
-173.63065419,95.34144213,-108.11259396,-147.26002310,-74.59586328,-124.18614236
-146.02421346,-74.01596355,-51.49820122,-176.39194914,-9.60373680,-1.54578485
-8.85460885,2.68826656,-0.19512433,3.04115984

>  <Name>
2tob cryst

>  <RI>
2.04895e+07

>  <Rbt.Current_Directory>
/home/itssahil/PROJECTS/Mol_Feturizer/New_Systems/rnas/2tob

>  <Rbt.Executable>
rbdock ($Id: //depot/dev/client3/rdock/2013.1/src/exe/rbdock.cxx#4 $)

>  <Rbt.Library>
libRbt.so (2013.1, Build901 2013/11/27)

>  <Rbt.Parameter_File>
/export/apps/rDock/src/rDock_2013.1_src/data/scripts/dock_solv.prm

>  <Rbt.Receptor>
prm/blind_docking_20.prm

>  <SCORE>
-65.4289

>  <SCORE.INTER>
-55.2658

>  <SCORE.INTER.CONST>
1

>  <SCORE.INTER.POLAR>
-6.54023

>  <SCORE.INTER.ROT>
6

>  <SCORE.INTER.SOLV>
34.7572

>  <SCORE.INTER.VDW>
-34.2288

>  <SCORE.INTER.norm>
-1.72706

>  <SCORE.INTRA>
-12.2403

>  <SCORE.INTRA.DIHEDRAL>
7.57662

>  <SCORE.INTRA.DIHEDRAL.0>
18.4221

>  <SCORE.INTRA.POLAR>
-1.01259

>  <SCORE.INTRA.POLAR.0>
-1.57101

>  <SCORE.INTRA.REPUL>
-0.730195

>  <SCORE.INTRA.REPUL.0>
0.730195

>  <SCORE.INTRA.SOLV>
2.13574

>  <SCORE.INTRA.SOLV.lig_0>
-127.221

>  <SCORE.INTRA.VDW>
-10.0027

>  <SCORE.INTRA.VDW.0>
10.8385

>  <SCORE.INTRA.norm>
-0.382509

>  <SCORE.RESTR>
2.07715

>  <SCORE.RESTR.CAVITY>
2.07715

>  <SCORE.RESTR.norm>
0.0649109

>  <SCORE.SYSTEM>
0

>  <SCORE.SYSTEM.CONST>
0

>  <SCORE.SYSTEM.DIHEDRAL>
0

>  <SCORE.SYSTEM.SOLV>
0

>  <SCORE.SYSTEM.norm>
0

>  <SCORE.heavy>
32

>  <SCORE.norm>
-2.04465

>  <RMSD>
8.116

$$$$
2tob cryst
 OpenBabel11021811463D
libRbt.so/2013.1/901 2013/11/27
 32 34  0  0  0  0  0  0  0  0999 V2000
  -12.6220   -1.7967   -8.8755 C   0  0  2  0  0  0  0  0  0  0  0  0
  -14.1107   -1.4660   -8.9121 C   0  0  1  0  0  0  0  0  0  0  0  0
  -14.8620   -2.4633   -8.0298 C   0  0  2  0  0  0  0  0  0  0  0  0
  -14.5561   -3.9061   -8.4532 C   0  0  1  0  0  0  0  0  0  0  0  0
  -13.0403   -4.1233   -8.5163 C   0  0  1  0  0  0  0  0  0  0  0  0
  -12.6238   -5.4777   -9.0661 C   0  0  0  0  0  0  0  0  0  0  0  0
  -14.3274   -0.1404   -8.4361 O   0  0  0  0  0  0  0  0  0  0  0  0
  -16.3501   -2.3241   -7.9407 N   0  3  0  0  0  0  0  0  0  0  0  0
  -15.1339   -4.7977   -7.5080 O   0  0  0  0  0  0  0  0  0  0  0  0
  -12.4343   -3.1162   -9.3510 O   0  0  0  0  0  0  0  0  0  0  0  0
  -11.2603   -5.7516   -8.7599 O   0  0  0  0  0  0  0  0  0  0  0  0
  -10.4290   -3.3371   -7.5128 C   0  0  2  0  0  0  0  0  0  0  0  0
   -8.9257   -3.6384   -7.5801 C   0  0  0  0  0  0  0  0  0  0  0  0
   -8.1971   -2.7227   -8.5599 C   0  0  1  0  0  0  0  0  0  0  0  0
   -8.4459   -1.2790   -8.1454 C   0  0  2  0  0  0  0  0  0  0  0  0
   -9.9392   -0.9642   -8.2657 C   0  0  1  0  0  0  0  0  0  0  0  0
  -10.7560   -1.8494   -7.3080 C   0  0  1  0  0  0  0  0  0  0  0  0
  -11.0793   -4.1341   -6.4186 N   0  3  0  0  0  0  0  0  0  0  0  0
   -6.7313   -3.0356   -8.6007 N   0  3  0  0  0  0  0  0  0  0  0  0
  -10.1561    0.4101   -7.9721 O   0  0  0  0  0  0  0  0  0  0  0  0
   -7.6853   -0.3789   -8.9718 O   0  0  0  0  0  0  0  0  0  0  0  0
  -12.1654   -1.6656   -7.5564 O   0  0  0  0  0  0  0  0  0  0  0  0
   -6.5745    0.1722   -8.3198 C   0  0  2  0  0  0  0  0  0  0  0  0
   -6.6847    1.7004   -8.3027 C   0  0  1  0  0  0  0  0  0  0  0  0
   -6.3877    2.2875   -9.6829 C   0  0  0  0  0  0  0  0  0  0  0  0
   -5.0461    1.7602  -10.1655 C   0  0  1  0  0  0  0  0  0  0  0  0
   -5.0927    0.2428  -10.2103 C   0  0  1  0  0  0  0  0  0  0  0  0
   -3.7787   -0.3451  -10.6920 C   0  0  0  0  0  0  0  0  0  0  0  0
   -8.0674    2.0961   -7.8843 N   0  3  0  0  0  0  0  0  0  0  0  0
   -3.4444    0.2856  -12.0161 N   0  3  0  0  0  0  0  0  0  0  0  0
   -4.7483    2.2750  -11.4556 O   0  0  0  0  0  0  0  0  0  0  0  0
   -5.3446   -0.2640   -8.8887 O   0  0  0  0  0  0  0  0  0  0  0  0
  1  2  1  0  0  0  0
  1 22  1  1  0  0  0
  1 10  1  0  0  0  0
  2  3  1  0  0  0  0
  2  7  1  1  0  0  0
  3  4  1  0  0  0  0
  3  8  1  6  0  0  0
  4  5  1  0  0  0  0
  4  9  1  1  0  0  0
  5  6  1  6  0  0  0
  5 10  1  0  0  0  0
  6 11  1  0  0  0  0
 12 13  1  0  0  0  0
 12 17  1  0  0  0  0
 12 18  1  1  0  0  0
 13 14  1  0  0  0  0
 14 15  1  0  0  0  0
 14 19  1  1  0  0  0
 15 16  1  0  0  0  0
 15 21  1  6  0  0  0
 16 17  1  0  0  0  0
 16 20  1  1  0  0  0
 17 22  1  6  0  0  0
 23 21  1  6  0  0  0
 23 24  1  0  0  0  0
 23 32  1  0  0  0  0
 24 25  1  0  0  0  0
 24 29  1  6  0  0  0
 25 26  1  0  0  0  0
 26 27  1  0  0  0  0
 26 31  1  6  0  0  0
 27 28  1  1  0  0  0
 27 32  1  0  0  0  0
 28 30  1  0  0  0  0
M  CHG  5   8   1  18   1  19   1  29   1  30   1
M  END
>  <CHROM.1>
-176.05853024,61.44272360,-173.27359885,-60.95116597,-164.06093595,-66.10878282
-74.09584970,-30.34902499,-105.57692026,-150.82871244,-69.75346369,-120.96782493
83.91518480,-58.89302822,-54.41521382,55.30713615,-9.73302145,-1.49010161
-8.70383959,2.69117741,-0.18286128,3.06640088

>  <Name>
2tob cryst

>  <RI>
0

>  <Rbt.Current_Directory>
/home/itssahil/PROJECTS/Mol_Feturizer/New_Systems/rnas/2tob

>  <Rbt.Executable>
rbdock ($Id: //depot/dev/client3/rdock/2013.1/src/exe/rbdock.cxx#4 $)

>  <Rbt.Library>
libRbt.so (2013.1, Build901 2013/11/27)

>  <Rbt.Parameter_File>
/export/apps/rDock/src/rDock_2013.1_src/data/scripts/dock_solv.prm

>  <Rbt.Receptor>
prm/blind_docking_80.prm

>  <SCORE>
-64.7052

>  <SCORE.INTER>
-53.0497

>  <SCORE.INTER.CONST>
1

>  <SCORE.INTER.POLAR>
-5.95787

>  <SCORE.INTER.ROT>
6

>  <SCORE.INTER.SOLV>
35.4689

>  <SCORE.INTER.VDW>
-34.9299

>  <SCORE.INTER.norm>
-1.6578

>  <SCORE.INTRA>
-16.5426

>  <SCORE.INTRA.DIHEDRAL>
3.83073

>  <SCORE.INTRA.DIHEDRAL.0>
18.4221

>  <SCORE.INTRA.POLAR>
-1.3054

>  <SCORE.INTRA.POLAR.0>
-1.57101

>  <SCORE.INTRA.REPUL>
-0.730195

>  <SCORE.INTRA.REPUL.0>
0.730195

>  <SCORE.INTRA.SOLV>
2.53229

>  <SCORE.INTRA.SOLV.lig_0>
-127.221

>  <SCORE.INTRA.VDW>
-11.6348

>  <SCORE.INTRA.VDW.0>
10.8385

>  <SCORE.INTRA.norm>
-0.516956

>  <SCORE.RESTR>
4.88713

>  <SCORE.RESTR.CAVITY>
4.88713

>  <SCORE.RESTR.norm>
0.152723

>  <SCORE.SYSTEM>
0

>  <SCORE.SYSTEM.CONST>
0

>  <SCORE.SYSTEM.DIHEDRAL>
0

>  <SCORE.SYSTEM.SOLV>
0

>  <SCORE.SYSTEM.norm>
0

>  <SCORE.heavy>
32

>  <SCORE.norm>
-2.02204

>  <RMSD>
8.121

$$$$
2tob cryst
 OpenBabel11021811463D
libRbt.so/2013.1/901 2013/11/27
 32 34  0  0  0  0  0  0  0  0999 V2000
  -12.1399   -4.1113   -7.8193 C   0  0  2  0  0  0  0  0  0  0  0  0
  -13.4472   -3.7800   -8.5321 C   0  0  1  0  0  0  0  0  0  0  0  0
  -13.5214   -2.2691   -8.7547 C   0  0  2  0  0  0  0  0  0  0  0  0
  -13.3502   -1.5127   -7.4307 C   0  0  1  0  0  0  0  0  0  0  0  0
  -12.0833   -1.9920   -6.7136 C   0  0  1  0  0  0  0  0  0  0  0  0
  -11.8938   -1.4118   -5.3216 C   0  0  0  0  0  0  0  0  0  0  0  0
  -13.5043   -4.4566   -9.7850 O   0  0  0  0  0  0  0  0  0  0  0  0
  -14.7438   -1.7285   -9.4295 N   0  3  0  0  0  0  0  0  0  0  0  0
  -13.2548   -0.1202   -7.7029 O   0  0  0  0  0  0  0  0  0  0  0  0
  -12.1076   -3.4273   -6.5809 O   0  0  0  0  0  0  0  0  0  0  0  0
  -10.5306   -1.0661   -5.0979 O   0  0  0  0  0  0  0  0  0  0  0  0
   -8.8965   -4.1707   -7.6994 C   0  0  2  0  0  0  0  0  0  0  0  0
   -7.5194   -3.6159   -7.3106 C   0  0  0  0  0  0  0  0  0  0  0  0
   -7.0170   -2.5713   -8.3034 C   0  0  1  0  0  0  0  0  0  0  0  0
   -8.0493   -1.4557   -8.3918 C   0  0  2  0  0  0  0  0  0  0  0  0
   -9.3577   -2.0153   -8.9559 C   0  0  1  0  0  0  0  0  0  0  0  0
   -9.9377   -3.0848   -8.0137 C   0  0  1  0  0  0  0  0  0  0  0  0
   -9.4329   -5.0610   -6.6154 N   0  3  0  0  0  0  0  0  0  0  0  0
   -5.6741   -2.0434   -7.8958 N   0  3  0  0  0  0  0  0  0  0  0  0
  -10.2882   -0.9541   -9.1287 O   0  0  0  0  0  0  0  0  0  0  0  0
   -7.5685   -0.3891   -9.2301 O   0  0  0  0  0  0  0  0  0  0  0  0
  -11.0708   -3.7228   -8.6389 O   0  0  0  0  0  0  0  0  0  0  0  0
   -6.5132    0.3351   -8.6603 C   0  0  2  0  0  0  0  0  0  0  0  0
   -6.7388    1.8364   -8.8677 C   0  0  1  0  0  0  0  0  0  0  0  0
   -6.4648    2.2374  -10.3174 C   0  0  0  0  0  0  0  0  0  0  0  0
   -5.0796    1.7506  -10.7111 C   0  0  1  0  0  0  0  0  0  0  0  0
   -5.0106    0.2439  -10.5335 C   0  0  1  0  0  0  0  0  0  0  0  0
   -3.6484   -0.3048  -10.9175 C   0  0  0  0  0  0  0  0  0  0  0  0
   -8.1540    2.1810   -8.5185 N   0  3  0  0  0  0  0  0  0  0  0  0
   -2.7391    0.8607  -11.1967 N   0  3  0  0  0  0  0  0  0  0  0  0
   -4.8007    2.0935  -12.0612 O   0  0  0  0  0  0  0  0  0  0  0  0
   -5.2448   -0.0831   -9.1533 O   0  0  0  0  0  0  0  0  0  0  0  0
  1  2  1  0  0  0  0
  1 22  1  6  0  0  0
  1 10  1  0  0  0  0
  2  3  1  0  0  0  0
  2  7  1  6  0  0  0
  3  4  1  0  0  0  0
  3  8  1  1  0  0  0
  4  5  1  0  0  0  0
  4  9  1  6  0  0  0
  5  6  1  1  0  0  0
  5 10  1  0  0  0  0
  6 11  1  0  0  0  0
 12 13  1  0  0  0  0
 12 17  1  0  0  0  0
 12 18  1  1  0  0  0
 13 14  1  0  0  0  0
 14 15  1  0  0  0  0
 14 19  1  1  0  0  0
 15 16  1  0  0  0  0
 15 21  1  6  0  0  0
 16 17  1  0  0  0  0
 16 20  1  1  0  0  0
 17 22  1  6  0  0  0
 23 21  1  6  0  0  0
 23 24  1  0  0  0  0
 23 32  1  0  0  0  0
 24 25  1  0  0  0  0
 24 29  1  6  0  0  0
 25 26  1  0  0  0  0
 26 27  1  0  0  0  0
 26 31  1  6  0  0  0
 27 28  1  1  0  0  0
 27 32  1  0  0  0  0
 28 30  1  0  0  0  0
M  CHG  5   8   1  18   1  19   1  29   1  30   1
M  END
>  <CHROM.1>
138.76919848,168.63344148,-161.52825782,51.79177494,-138.95529467,-54.15207842
-7.42417226,-79.76039076,-69.92559851,178.99729659,93.88358861,-135.97656893
-43.40862342,-82.91928312,6.84373123,-177.64443932,-9.06763099,-1.34942307
-8.58396665,-2.63064917,0.10145218,-0.41846790

>  <Name>
2tob cryst

>  <RI>
0

>  <Rbt.Current_Directory>
/home/itssahil/PROJECTS/Mol_Feturizer/New_Systems/rnas/2tob

>  <Rbt.Executable>
rbdock ($Id: //depot/dev/client3/rdock/2013.1/src/exe/rbdock.cxx#4 $)

>  <Rbt.Library>
libRbt.so (2013.1, Build901 2013/11/27)

>  <Rbt.Parameter_File>
/export/apps/rDock/src/rDock_2013.1_src/data/scripts/dock_solv.prm

>  <Rbt.Receptor>
prm/blind_docking_100.prm

>  <SCORE>
-15.7378

>  <SCORE.INTER>
-16.578

>  <SCORE.INTER.CONST>
1

>  <SCORE.INTER.POLAR>
-4.33878

>  <SCORE.INTER.ROT>
6

>  <SCORE.INTER.SOLV>
42.5761

>  <SCORE.INTER.VDW>
-18.3814

>  <SCORE.INTER.norm>
-0.518061

>  <SCORE.INTRA>
-0.886349

>  <SCORE.INTRA.DIHEDRAL>
16.316

>  <SCORE.INTRA.DIHEDRAL.0>
18.4221

>  <SCORE.INTRA.POLAR>
-0.01693

>  <SCORE.INTRA.POLAR.0>
-1.57101

>  <SCORE.INTRA.REPUL>
-0.730195

>  <SCORE.INTRA.REPUL.0>
0.730195

>  <SCORE.INTRA.SOLV>
1.27634

>  <SCORE.INTRA.SOLV.lig_0>
-127.221

>  <SCORE.INTRA.VDW>
-5.97399

>  <SCORE.INTRA.VDW.0>
10.8385

>  <SCORE.INTRA.norm>
-0.0276984

>  <SCORE.RESTR>
1.72649

>  <SCORE.RESTR.CAVITY>
1.72649

>  <SCORE.RESTR.norm>
0.0539528

>  <SCORE.SYSTEM>
0

>  <SCORE.SYSTEM.CONST>
0

>  <SCORE.SYSTEM.DIHEDRAL>
0

>  <SCORE.SYSTEM.SOLV>
0

>  <SCORE.SYSTEM.norm>
0

>  <SCORE.heavy>
32

>  <SCORE.norm>
-0.491807

>  <RMSD>
8.123

$$$$
2tob cryst
 OpenBabel11021811463D
libRbt.so/2013.1/901 2013/11/27
 32 34  0  0  0  0  0  0  0  0999 V2000
  -15.1381   -5.4605   -6.9752 C   0  0  2  0  0  0  0  0  0  0  0  0
  -15.6118   -6.2544   -5.7618 C   0  0  1  0  0  0  0  0  0  0  0  0
  -14.4081   -6.9460   -5.1210 C   0  0  2  0  0  0  0  0  0  0  0  0
  -13.6618   -7.8070   -6.1487 C   0  0  1  0  0  0  0  0  0  0  0  0
  -13.3331   -6.9724   -7.3915 C   0  0  1  0  0  0  0  0  0  0  0  0
  -12.7210   -7.7653   -8.5346 C   0  0  0  0  0  0  0  0  0  0  0  0
  -16.2267   -5.3815   -4.8180 O   0  0  0  0  0  0  0  0  0  0  0  0
  -14.6603   -7.7975   -3.9156 N   0  3  0  0  0  0  0  0  0  0  0  0
  -12.4616   -8.2926   -5.5605 O   0  0  0  0  0  0  0  0  0  0  0  0
  -14.5313   -6.3486   -7.8948 O   0  0  0  0  0  0  0  0  0  0  0  0
  -13.5830   -8.8258   -8.9346 O   0  0  0  0  0  0  0  0  0  0  0  0
  -14.4606   -2.3006   -7.5458 C   0  0  2  0  0  0  0  0  0  0  0  0
  -13.7921   -1.1646   -8.3319 C   0  0  0  0  0  0  0  0  0  0  0  0
  -12.3313   -0.9702   -7.9351 C   0  0  1  0  0  0  0  0  0  0  0  0
  -11.5958   -2.2864   -8.1469 C   0  0  2  0  0  0  0  0  0  0  0  0
  -12.1752   -3.3504   -7.2112 C   0  0  1  0  0  0  0  0  0  0  0  0
  -13.6558   -3.6099   -7.5404 C   0  0  1  0  0  0  0  0  0  0  0  0
  -15.8361   -2.5762   -8.0819 N   0  3  0  0  0  0  0  0  0  0  0  0
  -11.7031    0.1407   -8.7221 N   0  3  0  0  0  0  0  0  0  0  0  0
  -11.4240   -4.5508   -7.3405 O   0  0  0  0  0  0  0  0  0  0  0  0
  -10.1882   -2.1235   -7.8950 O   0  0  0  0  0  0  0  0  0  0  0  0
  -14.2313   -4.4816   -6.5450 O   0  0  0  0  0  0  0  0  0  0  0  0
   -9.4185   -2.0438   -9.0629 C   0  0  2  0  0  0  0  0  0  0  0  0
   -8.1268   -2.8502   -8.8925 C   0  0  1  0  0  0  0  0  0  0  0  0
   -7.1400   -2.1198   -7.9813 C   0  0  0  0  0  0  0  0  0  0  0  0
   -6.9341   -0.7084   -8.5071 C   0  0  1  0  0  0  0  0  0  0  0  0
   -8.2730    0.0069   -8.5553 C   0  0  1  0  0  0  0  0  0  0  0  0
   -8.1319    1.4284   -9.0686 C   0  0  0  0  0  0  0  0  0  0  0  0
   -8.4484   -4.1882   -8.3011 N   0  3  0  0  0  0  0  0  0  0  0  0
   -9.4991    1.9203   -9.4582 N   0  3  0  0  0  0  0  0  0  0  0  0
   -6.0332    0.0038   -7.6708 O   0  0  0  0  0  0  0  0  0  0  0  0
   -9.1562   -0.6976   -9.4444 O   0  0  0  0  0  0  0  0  0  0  0  0
  1  2  1  0  0  0  0
  1 22  1  1  0  0  0
  1 10  1  0  0  0  0
  2  3  1  0  0  0  0
  2  7  1  1  0  0  0
  3  4  1  0  0  0  0
  3  8  1  1  0  0  0
  4  5  1  0  0  0  0
  4  9  1  1  0  0  0
  5  6  1  6  0  0  0
  5 10  1  0  0  0  0
  6 11  1  0  0  0  0
 12 13  1  0  0  0  0
 12 17  1  0  0  0  0
 12 18  1  6  0  0  0
 13 14  1  0  0  0  0
 14 15  1  0  0  0  0
 14 19  1  6  0  0  0
 15 16  1  0  0  0  0
 15 21  1  1  0  0  0
 16 17  1  0  0  0  0
 16 20  1  6  0  0  0
 17 22  1  1  0  0  0
 23 21  1  1  0  0  0
 23 24  1  0  0  0  0
 23 32  1  0  0  0  0
 24 25  1  0  0  0  0
 24 29  1  1  0  0  0
 25 26  1  0  0  0  0
 26 27  1  0  0  0  0
 26 31  1  1  0  0  0
 27 28  1  6  0  0  0
 27 32  1  0  0  0  0
 28 30  1  0  0  0  0
M  CHG  5   8   1  18   1  19   1  29   1  30   1
M  END
>  <CHROM.1>
-179.96121703,176.86522622,68.15648931,69.56720446,57.74881590,60.27296109
-64.18596515,-133.62326250,-102.96326194,70.47337812,97.56878583,-138.79152538
-70.79653777,175.93204042,163.94209277,48.51661633,-11.85023187,-3.59282955
-7.58928180,2.29299793,-0.14626846,2.92002322

>  <Name>
2tob cryst

>  <RI>
0

>  <Rbt.Current_Directory>
/home/itssahil/PROJECTS/Mol_Feturizer/New_Systems/rnas/2tob

>  <Rbt.Executable>
rbdock ($Id: //depot/dev/client3/rdock/2013.1/src/exe/rbdock.cxx#4 $)

>  <Rbt.Library>
libRbt.so (2013.1, Build901 2013/11/27)

>  <Rbt.Parameter_File>
/export/apps/rDock/src/rDock_2013.1_src/data/scripts/dock_solv.prm

>  <Rbt.Receptor>
prm/pocket_docking_5.prm

>  <SCORE>
-48.1135

>  <SCORE.INTER>
-38.4056

>  <SCORE.INTER.CONST>
1

>  <SCORE.INTER.POLAR>
-7.53253

>  <SCORE.INTER.ROT>
6

>  <SCORE.INTER.SOLV>
28.8612

>  <SCORE.INTER.VDW>
-17.7157

>  <SCORE.INTER.norm>
-1.20018

>  <SCORE.INTRA>
-9.70792

>  <SCORE.INTRA.DIHEDRAL>
4.06041

>  <SCORE.INTRA.DIHEDRAL.0>
18.4221

>  <SCORE.INTRA.POLAR>
0.730197

>  <SCORE.INTRA.POLAR.0>
-1.57101

>  <SCORE.INTRA.REPUL>
-0.730195

>  <SCORE.INTRA.REPUL.0>
0.730195

>  <SCORE.INTRA.SOLV>
3.8605

>  <SCORE.INTRA.SOLV.lig_0>
-127.221

>  <SCORE.INTRA.VDW>
-12.5001

>  <SCORE.INTRA.VDW.0>
10.8385

>  <SCORE.INTRA.norm>
-0.303373

>  <SCORE.RESTR>
0

>  <SCORE.RESTR.CAVITY>
0

>  <SCORE.RESTR.norm>
0

>  <SCORE.SYSTEM>
0

>  <SCORE.SYSTEM.CONST>
0

>  <SCORE.SYSTEM.DIHEDRAL>
0

>  <SCORE.SYSTEM.SOLV>
0

>  <SCORE.SYSTEM.norm>
0

>  <SCORE.heavy>
32

>  <SCORE.norm>
-1.50355

>  <RMSD>
8.131

$$$$
2tob cryst
 OpenBabel11021811463D
libRbt.so/2013.1/901 2013/11/27
 32 34  0  0  0  0  0  0  0  0999 V2000
   -9.6311   -0.2494   -5.6497 C   0  0  2  0  0  0  0  0  0  0  0  0
   -9.5182   -1.2747   -4.5258 C   0  0  1  0  0  0  0  0  0  0  0  0
   -8.6889   -2.4610   -5.0184 C   0  0  2  0  0  0  0  0  0  0  0  0
   -9.2823   -3.0448   -6.3074 C   0  0  1  0  0  0  0  0  0  0  0  0
   -9.4844   -1.9323   -7.3419 C   0  0  1  0  0  0  0  0  0  0  0  0
  -10.2025   -2.3752   -8.6062 C   0  0  0  0  0  0  0  0  0  0  0  0
   -8.8917   -0.6854   -3.3896 O   0  0  0  0  0  0  0  0  0  0  0  0
   -8.4713   -3.5959   -4.0663 N   0  3  0  0  0  0  0  0  0  0  0  0
   -8.3931   -4.0283   -6.8216 O   0  0  0  0  0  0  0  0  0  0  0  0
  -10.2542   -0.8589   -6.7645 O   0  0  0  0  0  0  0  0  0  0  0  0
  -11.3091   -3.2148   -8.2928 O   0  0  0  0  0  0  0  0  0  0  0  0
   -8.3454    2.0554   -7.5180 C   0  0  2  0  0  0  0  0  0  0  0  0
   -7.8224    2.6344   -8.8395 C   0  0  0  0  0  0  0  0  0  0  0  0
   -6.3696    2.2485   -9.1037 C   0  0  1  0  0  0  0  0  0  0  0  0
   -6.2658    0.7296   -9.0947 C   0  0  2  0  0  0  0  0  0  0  0  0
   -6.6221    0.2025   -7.7024 C   0  0  1  0  0  0  0  0  0  0  0  0
   -8.0788    0.5512   -7.3499 C   0  0  1  0  0  0  0  0  0  0  0  0
   -9.8190    2.3080   -7.3767 N   0  3  0  0  0  0  0  0  0  0  0  0
   -5.8878    2.8224  -10.4024 N   0  3  0  0  0  0  0  0  0  0  0  0
   -6.4307   -1.2062   -7.6688 O   0  0  0  0  0  0  0  0  0  0  0  0
   -4.9355    0.3129   -9.4530 O   0  0  0  0  0  0  0  0  0  0  0  0
   -8.3447    0.2033   -5.9751 O   0  0  0  0  0  0  0  0  0  0  0  0
   -4.8895   -0.4634  -10.6182 C   0  0  2  0  0  0  0  0  0  0  0  0
   -4.2319   -1.8147  -10.3193 C   0  0  1  0  0  0  0  0  0  0  0  0
   -2.7201   -1.6636  -10.1487 C   0  0  0  0  0  0  0  0  0  0  0  0
   -2.1553   -0.9460  -11.3639 C   0  0  1  0  0  0  0  0  0  0  0  0
   -2.8321    0.4064  -11.5046 C   0  0  1  0  0  0  0  0  0  0  0  0
   -2.3044    1.1763  -12.7016 C   0  0  0  0  0  0  0  0  0  0  0  0
   -4.8163   -2.3869   -9.0644 N   0  3  0  0  0  0  0  0  0  0  0  0
   -0.9173    1.6559  -12.3718 N   0  3  0  0  0  0  0  0  0  0  0  0
   -0.7516   -0.7745  -11.2282 O   0  0  0  0  0  0  0  0  0  0  0  0
   -4.2444    0.2137  -11.6916 O   0  0  0  0  0  0  0  0  0  0  0  0
  1  2  1  0  0  0  0
  1 22  1  6  0  0  0
  1 10  1  0  0  0  0
  2  3  1  0  0  0  0
  2  7  1  1  0  0  0
  3  4  1  0  0  0  0
  3  8  1  1  0  0  0
  4  5  1  0  0  0  0
  4  9  1  6  0  0  0
  5  6  1  6  0  0  0
  5 10  1  0  0  0  0
  6 11  1  0  0  0  0
 12 13  1  0  0  0  0
 12 17  1  0  0  0  0
 12 18  1  6  0  0  0
 13 14  1  0  0  0  0
 14 15  1  0  0  0  0
 14 19  1  6  0  0  0
 15 16  1  0  0  0  0
 15 21  1  1  0  0  0
 16 17  1  0  0  0  0
 16 20  1  6  0  0  0
 17 22  1  1  0  0  0
 23 21  1  1  0  0  0
 23 24  1  0  0  0  0
 23 32  1  0  0  0  0
 24 25  1  0  0  0  0
 24 29  1  1  0  0  0
 25 26  1  0  0  0  0
 26 27  1  0  0  0  0
 26 31  1  1  0  0  0
 27 28  1  6  0  0  0
 27 32  1  0  0  0  0
 28 30  1  0  0  0  0
M  CHG  5   8   1  18   1  19   1  29   1  30   1
M  END
>  <CHROM.1>
146.80773760,-178.38656173,-54.20145411,-36.39565747,43.18161159,-57.57070695
-176.49008695,122.75055676,-118.55837738,-63.20139055,92.58674941,-122.84681261
86.56930504,110.39038264,-72.76768001,-179.00060696,-6.64340022,-0.50905489
-8.37163824,2.74187822,-0.60016752,2.83585627

>  <Name>
2tob cryst

>  <RI>
0

>  <Rbt.Current_Directory>
/home/itssahil/PROJECTS/Mol_Feturizer/New_Systems/rnas/2tob

>  <Rbt.Executable>
rbdock ($Id: //depot/dev/client3/rdock/2013.1/src/exe/rbdock.cxx#4 $)

>  <Rbt.Library>
libRbt.so (2013.1, Build901 2013/11/27)

>  <Rbt.Parameter_File>
/export/apps/rDock/src/rDock_2013.1_src/data/scripts/dock_solv.prm

>  <Rbt.Receptor>
prm/blind_docking_40.prm

>  <SCORE>
16.0368

>  <SCORE.INTER>
17.336

>  <SCORE.INTER.CONST>
1

>  <SCORE.INTER.POLAR>
-4.76966

>  <SCORE.INTER.ROT>
6

>  <SCORE.INTER.SOLV>
41.7193

>  <SCORE.INTER.VDW>
5.94979

>  <SCORE.INTER.norm>
0.541751

>  <SCORE.INTRA>
-5.40465

>  <SCORE.INTRA.DIHEDRAL>
20.2028

>  <SCORE.INTRA.DIHEDRAL.0>
18.4221

>  <SCORE.INTRA.POLAR>
0.205342

>  <SCORE.INTRA.POLAR.0>
-1.57101

>  <SCORE.INTRA.REPUL>
-0.730195

>  <SCORE.INTRA.REPUL.0>
0.730195

>  <SCORE.INTRA.SOLV>
-0.471934

>  <SCORE.INTRA.SOLV.lig_0>
-127.221

>  <SCORE.INTRA.VDW>
-12.3173

>  <SCORE.INTRA.VDW.0>
10.8385

>  <SCORE.INTRA.norm>
-0.168895

>  <SCORE.RESTR>
4.10544

>  <SCORE.RESTR.CAVITY>
4.10544

>  <SCORE.RESTR.norm>
0.128295

>  <SCORE.SYSTEM>
0

>  <SCORE.SYSTEM.CONST>
0

>  <SCORE.SYSTEM.DIHEDRAL>
0

>  <SCORE.SYSTEM.SOLV>
0

>  <SCORE.SYSTEM.norm>
0

>  <SCORE.heavy>
32

>  <SCORE.norm>
0.50115

>  <RMSD>
8.140

$$$$
2tob cryst
 OpenBabel11021811463D
libRbt.so/2013.1/901 2013/11/27
 32 34  0  0  0  0  0  0  0  0999 V2000
  -11.4520   -6.1633   -4.6813 C   0  0  2  0  0  0  0  0  0  0  0  0
  -11.4853   -7.3082   -3.6738 C   0  0  1  0  0  0  0  0  0  0  0  0
  -10.2078   -8.1353   -3.8208 C   0  0  2  0  0  0  0  0  0  0  0  0
  -10.0297   -8.6131   -5.2681 C   0  0  1  0  0  0  0  0  0  0  0  0
  -10.1358   -7.4240   -6.2291 C   0  0  1  0  0  0  0  0  0  0  0  0
  -10.1187   -7.8042   -7.7006 C   0  0  0  0  0  0  0  0  0  0  0  0
  -11.5758   -6.7897   -2.3496 O   0  0  0  0  0  0  0  0  0  0  0  0
  -10.0486   -9.3270   -2.9284 N   0  3  0  0  0  0  0  0  0  0  0  0
   -8.7541   -9.2282   -5.3982 O   0  0  0  0  0  0  0  0  0  0  0  0
  -11.3609   -6.7040   -5.9859 O   0  0  0  0  0  0  0  0  0  0  0  0
  -11.1991   -8.6784   -8.0108 O   0  0  0  0  0  0  0  0  0  0  0  0
  -10.6273   -3.1967   -3.3391 C   0  0  2  0  0  0  0  0  0  0  0  0
  -10.4598   -1.6750   -3.4457 C   0  0  0  0  0  0  0  0  0  0  0  0
   -9.1886   -1.2856   -4.1953 C   0  0  1  0  0  0  0  0  0  0  0  0
   -9.2276   -1.9281   -5.5750 C   0  0  2  0  0  0  0  0  0  0  0  0
   -9.2111   -3.4517   -5.4286 C   0  0  1  0  0  0  0  0  0  0  0  0
  -10.4637   -3.9352   -4.6769 C   0  0  1  0  0  0  0  0  0  0  0  0
  -11.9663   -3.5413   -2.7528 N   0  3  0  0  0  0  0  0  0  0  0  0
   -9.0542    0.2048   -4.2890 N   0  3  0  0  0  0  0  0  0  0  0  0
   -9.1493   -4.0482   -6.7180 O   0  0  0  0  0  0  0  0  0  0  0  0
   -8.1033   -1.4974   -6.3637 O   0  0  0  0  0  0  0  0  0  0  0  0
  -10.3496   -5.3457   -4.3954 O   0  0  0  0  0  0  0  0  0  0  0  0
   -8.2422   -1.7743   -7.7300 C   0  0  2  0  0  0  0  0  0  0  0  0
   -6.8905   -1.6166   -8.4343 C   0  0  1  0  0  0  0  0  0  0  0  0
   -6.5219   -0.1410   -8.5905 C   0  0  0  0  0  0  0  0  0  0  0  0
   -7.6718    0.5861   -9.2688 C   0  0  1  0  0  0  0  0  0  0  0  0
   -8.9303    0.4174   -8.4355 C   0  0  1  0  0  0  0  0  0  0  0  0
  -10.1167    1.1287   -9.0604 C   0  0  0  0  0  0  0  0  0  0  0  0
   -5.8287   -2.3096   -7.6369 N   0  3  0  0  0  0  0  0  0  0  0  0
  -11.3555    0.3384   -8.7383 N   0  3  0  0  0  0  0  0  0  0  0  0
   -7.3668    1.9659   -9.4137 O   0  0  0  0  0  0  0  0  0  0  0  0
   -9.2536   -0.9802   -8.3407 O   0  0  0  0  0  0  0  0  0  0  0  0
  1  2  1  0  0  0  0
  1 22  1  1  0  0  0
  1 10  1  0  0  0  0
  2  3  1  0  0  0  0
  2  7  1  1  0  0  0
  3  4  1  0  0  0  0
  3  8  1  1  0  0  0
  4  5  1  0  0  0  0
  4  9  1  1  0  0  0
  5  6  1  6  0  0  0
  5 10  1  0  0  0  0
  6 11  1  0  0  0  0
 12 13  1  0  0  0  0
 12 17  1  0  0  0  0
 12 18  1  6  0  0  0
 13 14  1  0  0  0  0
 14 15  1  0  0  0  0
 14 19  1  6  0  0  0
 15 16  1  0  0  0  0
 15 21  1  6  0  0  0
 16 17  1  0  0  0  0
 16 20  1  6  0  0  0
 17 22  1  1  0  0  0
 23 21  1  1  0  0  0
 23 24  1  0  0  0  0
 23 32  1  0  0  0  0
 24 25  1  0  0  0  0
 24 29  1  1  0  0  0
 25 26  1  0  0  0  0
 26 27  1  0  0  0  0
 26 31  1  1  0  0  0
 27 28  1  6  0  0  0
 27 32  1  0  0  0  0
 28 30  1  0  0  0  0
M  CHG  5   8   1  18   1  19   1  29   1  30   1
M  END
>  <CHROM.1>
-148.13575986,-175.88667069,-176.41609060,71.13444635,59.36787490,-74.13215209
66.34114838,92.18674538,-165.09544771,-58.46772072,105.85927296,-165.79765269
46.69498746,-64.63370467,147.33194321,-31.73247795,-9.58342325,-3.72400342
-6.01869055,2.19029292,-1.12267703,-2.98766397

>  <Name>
2tob cryst

>  <RI>
2.10184e+07

>  <Rbt.Current_Directory>
/home/itssahil/PROJECTS/Mol_Feturizer/New_Systems/rnas/2tob

>  <Rbt.Executable>
rbdock ($Id: //depot/dev/client3/rdock/2013.1/src/exe/rbdock.cxx#4 $)

>  <Rbt.Library>
libRbt.so (2013.1, Build901 2013/11/27)

>  <Rbt.Parameter_File>
/export/apps/rDock/src/rDock_2013.1_src/data/scripts/dock_solv.prm

>  <Rbt.Receptor>
prm/pocket_docking_7.prm

>  <SCORE>
-52.659

>  <SCORE.INTER>
-35.318

>  <SCORE.INTER.CONST>
1

>  <SCORE.INTER.POLAR>
-5.06015

>  <SCORE.INTER.ROT>
6

>  <SCORE.INTER.SOLV>
32.9826

>  <SCORE.INTER.VDW>
-25.2724

>  <SCORE.INTER.norm>
-1.10369

>  <SCORE.INTRA>
-17.341

>  <SCORE.INTRA.DIHEDRAL>
2.91106

>  <SCORE.INTRA.DIHEDRAL.0>
18.4221

>  <SCORE.INTRA.POLAR>
0.526866

>  <SCORE.INTRA.POLAR.0>
-1.57101

>  <SCORE.INTRA.REPUL>
-0.730195

>  <SCORE.INTRA.REPUL.0>
0.730195

>  <SCORE.INTRA.SOLV>
-6.7959

>  <SCORE.INTRA.SOLV.lig_0>
-127.221

>  <SCORE.INTRA.VDW>
-13.539

>  <SCORE.INTRA.VDW.0>
10.8385

>  <SCORE.INTRA.norm>
-0.541907

>  <SCORE.RESTR>
0

>  <SCORE.RESTR.CAVITY>
0

>  <SCORE.RESTR.norm>
0

>  <SCORE.SYSTEM>
0

>  <SCORE.SYSTEM.CONST>
0

>  <SCORE.SYSTEM.DIHEDRAL>
0

>  <SCORE.SYSTEM.SOLV>
0

>  <SCORE.SYSTEM.norm>
0

>  <SCORE.heavy>
32

>  <SCORE.norm>
-1.64559

>  <RMSD>
8.143

$$$$
2tob cryst
 OpenBabel11021811463D
libRbt.so/2013.1/901 2013/11/27
 32 34  0  0  0  0  0  0  0  0999 V2000
  -12.3134   -2.1617   -8.9267 C   0  0  2  0  0  0  0  0  0  0  0  0
  -13.7780   -1.7525   -9.0482 C   0  0  1  0  0  0  0  0  0  0  0  0
  -14.6224   -2.6614   -8.1546 C   0  0  2  0  0  0  0  0  0  0  0  0
  -14.3808   -4.1383   -8.4935 C   0  0  1  0  0  0  0  0  0  0  0  0
  -12.8784   -4.4409   -8.4758 C   0  0  1  0  0  0  0  0  0  0  0  0
  -12.5160   -5.8421   -8.9400 C   0  0  0  0  0  0  0  0  0  0  0  0
  -13.9395   -0.3947   -8.6469 O   0  0  0  0  0  0  0  0  0  0  0  0
  -16.1027   -2.4368   -8.1413 N   0  3  0  0  0  0  0  0  0  0  0  0
  -15.0490   -4.9480   -7.5343 O   0  0  0  0  0  0  0  0  0  0  0  0
  -12.1805   -3.5119   -9.3290 O   0  0  0  0  0  0  0  0  0  0  0  0
  -11.1150   -6.0682   -8.8231 O   0  0  0  0  0  0  0  0  0  0  0  0
  -10.1107   -3.5694   -7.3075 C   0  0  2  0  0  0  0  0  0  0  0  0
   -8.5959   -3.8155   -7.3096 C   0  0  0  0  0  0  0  0  0  0  0  0
   -7.8809   -3.0038   -8.3863 C   0  0  1  0  0  0  0  0  0  0  0  0
   -8.1938   -1.5302   -8.1652 C   0  0  2  0  0  0  0  0  0  0  0  0
   -9.6948   -1.2943   -8.3507 C   0  0  1  0  0  0  0  0  0  0  0  0
  -10.4986   -2.0823   -7.3015 C   0  0  1  0  0  0  0  0  0  0  0  0
  -10.7545   -4.2458   -6.1314 N   0  3  0  0  0  0  0  0  0  0  0  0
   -6.4037   -3.2595   -8.3611 N   0  3  0  0  0  0  0  0  0  0  0  0
   -9.9704    0.0963   -8.2400 O   0  0  0  0  0  0  0  0  0  0  0  0
   -7.4496   -0.7130   -9.0871 O   0  0  0  0  0  0  0  0  0  0  0  0
  -11.9080   -1.9891   -7.5958 O   0  0  0  0  0  0  0  0  0  0  0  0
   -6.2901   -0.1585   -8.5297 C   0  0  2  0  0  0  0  0  0  0  0  0
   -6.4975    1.3384   -8.2761 C   0  0  1  0  0  0  0  0  0  0  0  0
   -6.4582    2.1274   -9.5852 C   0  0  0  0  0  0  0  0  0  0  0  0
   -5.1758    1.7884  -10.3278 C   0  0  1  0  0  0  0  0  0  0  0  0
   -5.1279    0.2922  -10.5843 C   0  0  1  0  0  0  0  0  0  0  0  0
   -3.8686   -0.1093  -11.3307 C   0  0  0  0  0  0  0  0  0  0  0  0
   -7.8216    1.5526   -7.6095 N   0  3  0  0  0  0  0  0  0  0  0  0
   -2.9209    1.0587  -11.3064 N   0  3  0  0  0  0  0  0  0  0  0  0
   -5.1168    2.4941  -11.5592 O   0  0  0  0  0  0  0  0  0  0  0  0
   -5.1373   -0.4059   -9.3275 O   0  0  0  0  0  0  0  0  0  0  0  0
  1  2  1  0  0  0  0
  1 22  1  1  0  0  0
  1 10  1  0  0  0  0
  2  3  1  0  0  0  0
  2  7  1  1  0  0  0
  3  4  1  0  0  0  0
  3  8  1  6  0  0  0
  4  5  1  0  0  0  0
  4  9  1  1  0  0  0
  5  6  1  6  0  0  0
  5 10  1  0  0  0  0
  6 11  1  0  0  0  0
 12 13  1  0  0  0  0
 12 17  1  0  0  0  0
 12 18  1  1  0  0  0
 13 14  1  0  0  0  0
 14 15  1  0  0  0  0
 14 19  1  1  0  0  0
 15 16  1  0  0  0  0
 15 21  1  6  0  0  0
 16 17  1  0  0  0  0
 16 20  1  1  0  0  0
 17 22  1  6  0  0  0
 23 21  1  6  0  0  0
 23 24  1  0  0  0  0
 23 32  1  0  0  0  0
 24 25  1  0  0  0  0
 24 29  1  6  0  0  0
 25 26  1  0  0  0  0
 26 27  1  0  0  0  0
 26 31  1  6  0  0  0
 27 28  1  1  0  0  0
 27 32  1  0  0  0  0
 28 30  1  0  0  0  0
M  CHG  5   8   1  18   1  19   1  29   1  30   1
M  END
>  <CHROM.1>
-168.91335031,-179.79291548,-53.73724227,73.09325418,-176.73777659,-46.98202018
-61.50860331,-167.13945538,-98.79852692,-149.15324756,-76.64082946,-106.37894421
-172.74604106,61.46251891,12.64240180,-63.74501731,-9.53994610,-1.67101289
-8.72196309,2.63543349,-0.11593545,2.94493107

>  <Name>
2tob cryst

>  <RI>
2.04895e+07

>  <Rbt.Current_Directory>
/home/itssahil/PROJECTS/Mol_Feturizer/New_Systems/rnas/2tob

>  <Rbt.Executable>
rbdock ($Id: //depot/dev/client3/rdock/2013.1/src/exe/rbdock.cxx#4 $)

>  <Rbt.Library>
libRbt.so (2013.1, Build901 2013/11/27)

>  <Rbt.Parameter_File>
/export/apps/rDock/src/rDock_2013.1_src/data/scripts/dock_solv.prm

>  <Rbt.Receptor>
prm/blind_docking_20.prm

>  <SCORE>
-55.707

>  <SCORE.INTER>
-45.1832

>  <SCORE.INTER.CONST>
1

>  <SCORE.INTER.POLAR>
-4.35374

>  <SCORE.INTER.ROT>
6

>  <SCORE.INTER.SOLV>
32.7796

>  <SCORE.INTER.VDW>
-34.1362

>  <SCORE.INTER.norm>
-1.41197

>  <SCORE.INTRA>
-13.4621

>  <SCORE.INTRA.DIHEDRAL>
5.84817

>  <SCORE.INTRA.DIHEDRAL.0>
18.4221

>  <SCORE.INTRA.POLAR>
-0.403731

>  <SCORE.INTRA.POLAR.0>
-1.57101

>  <SCORE.INTRA.REPUL>
-0.730195

>  <SCORE.INTRA.REPUL.0>
0.730195

>  <SCORE.INTRA.SOLV>
1.93844

>  <SCORE.INTRA.SOLV.lig_0>
-127.221

>  <SCORE.INTRA.VDW>
-12.3317

>  <SCORE.INTRA.VDW.0>
10.8385

>  <SCORE.INTRA.norm>
-0.42069

>  <SCORE.RESTR>
2.93832

>  <SCORE.RESTR.CAVITY>
2.93832

>  <SCORE.RESTR.norm>
0.0918224

>  <SCORE.SYSTEM>
0

>  <SCORE.SYSTEM.CONST>
0

>  <SCORE.SYSTEM.DIHEDRAL>
0

>  <SCORE.SYSTEM.SOLV>
0

>  <SCORE.SYSTEM.norm>
0

>  <SCORE.heavy>
32

>  <SCORE.norm>
-1.74084

>  <RMSD>
8.167

$$$$
2tob cryst
 OpenBabel11021811463D
libRbt.so/2013.1/901 2013/11/27
 32 34  0  0  0  0  0  0  0  0999 V2000
  -11.3684   -1.1653   -9.1089 C   0  0  2  0  0  0  0  0  0  0  0  0
  -12.7685   -0.5660   -9.1961 C   0  0  1  0  0  0  0  0  0  0  0  0
  -13.7031   -1.3536   -8.2774 C   0  0  2  0  0  0  0  0  0  0  0  0
  -13.6676   -2.8501   -8.6149 C   0  0  1  0  0  0  0  0  0  0  0  0
  -12.2185   -3.3488   -8.6328 C   0  0  1  0  0  0  0  0  0  0  0  0
  -12.0565   -4.7864   -9.0988 C   0  0  0  0  0  0  0  0  0  0  0  0
  -12.7389    0.8019   -8.7978 O   0  0  0  0  0  0  0  0  0  0  0  0
  -15.1398   -0.9350   -8.2288 N   0  3  0  0  0  0  0  0  0  0  0  0
  -14.4127   -3.5626   -7.6355 O   0  0  0  0  0  0  0  0  0  0  0  0
  -11.4254   -2.5219   -9.5076 O   0  0  0  0  0  0  0  0  0  0  0  0
  -13.0458   -5.6246   -8.5102 O   0  0  0  0  0  0  0  0  0  0  0  0
   -9.3041   -2.7682   -7.2761 C   0  0  2  0  0  0  0  0  0  0  0  0
   -7.8337   -3.2076   -7.2911 C   0  0  0  0  0  0  0  0  0  0  0  0
   -7.0953   -2.7092   -8.5303 C   0  0  1  0  0  0  0  0  0  0  0  0
   -7.2118   -1.1920   -8.5822 C   0  0  2  0  0  0  0  0  0  0  0  0
   -8.6817   -0.7990   -8.7498 C   0  0  1  0  0  0  0  0  0  0  0  0
   -9.5070   -1.2676   -7.5385 C   0  0  1  0  0  0  0  0  0  0  0  0
   -9.9492   -3.1258   -5.9680 N   0  3  0  0  0  0  0  0  0  0  0  0
   -5.6616   -3.1479   -8.5153 N   0  3  0  0  0  0  0  0  0  0  0  0
   -8.7784    0.6122   -8.8957 O   0  0  0  0  0  0  0  0  0  0  0  0
   -6.4339   -0.6636   -9.6719 O   0  0  0  0  0  0  0  0  0  0  0  0
  -10.9104   -1.0456   -7.7891 O   0  0  0  0  0  0  0  0  0  0  0  0
   -5.2417   -0.0533   -9.2610 C   0  0  2  0  0  0  0  0  0  0  0  0
   -5.4480    1.4595   -9.1305 C   0  0  1  0  0  0  0  0  0  0  0  0
   -5.5211    2.1240  -10.5055 C   0  0  0  0  0  0  0  0  0  0  0  0
   -4.2963    1.7249  -11.3126 C   0  0  1  0  0  0  0  0  0  0  0  0
   -4.2492    0.2116  -11.4335 C   0  0  1  0  0  0  0  0  0  0  0  0
   -3.0469   -0.2501  -12.2369 C   0  0  0  0  0  0  0  0  0  0  0  0
   -6.7188    1.7269   -8.3840 N   0  3  0  0  0  0  0  0  0  0  0  0
   -1.9585   -0.6283  -11.2698 N   0  3  0  0  0  0  0  0  0  0  0  0
   -4.3426    2.3138  -12.6045 O   0  0  0  0  0  0  0  0  0  0  0  0
   -4.1515   -0.3670  -10.1211 O   0  0  0  0  0  0  0  0  0  0  0  0
  1  2  1  0  0  0  0
  1 22  1  1  0  0  0
  1 10  1  0  0  0  0
  2  3  1  0  0  0  0
  2  7  1  1  0  0  0
  3  4  1  0  0  0  0
  3  8  1  6  0  0  0
  4  5  1  0  0  0  0
  4  9  1  1  0  0  0
  5  6  1  6  0  0  0
  5 10  1  0  0  0  0
  6 11  1  0  0  0  0
 12 13  1  0  0  0  0
 12 17  1  0  0  0  0
 12 18  1  1  0  0  0
 13 14  1  0  0  0  0
 14 15  1  0  0  0  0
 14 19  1  1  0  0  0
 15 16  1  0  0  0  0
 15 21  1  6  0  0  0
 16 17  1  0  0  0  0
 16 20  1  1  0  0  0
 17 22  1  6  0  0  0
 23 21  1  6  0  0  0
 23 24  1  0  0  0  0
 23 32  1  0  0  0  0
 24 25  1  0  0  0  0
 24 29  1  6  0  0  0
 25 26  1  0  0  0  0
 26 27  1  0  0  0  0
 26 31  1  6  0  0  0
 27 28  1  6  0  0  0
 27 32  1  0  0  0  0
 28 30  1  0  0  0  0
M  CHG  5   8   1  18   1  19   1  29   1  30   1
M  END
>  <CHROM.1>
-166.28305364,75.55845881,102.00248093,-169.98095739,-43.57024615,-170.62904279
-55.36734649,-67.63642268,-104.80991574,-171.04691773,-88.37744046,-95.97243660
52.30822267,-86.32906867,96.97861911,-71.19852562,-8.73903810,-1.16258508
-9.07603230,2.74378174,-0.15570024,2.82029913

>  <Name>
2tob cryst

>  <RI>
0

>  <Rbt.Current_Directory>
/home/itssahil/PROJECTS/Mol_Feturizer/New_Systems/rnas/2tob

>  <Rbt.Executable>
rbdock ($Id: //depot/dev/client3/rdock/2013.1/src/exe/rbdock.cxx#4 $)

>  <Rbt.Library>
libRbt.so (2013.1, Build901 2013/11/27)

>  <Rbt.Parameter_File>
/export/apps/rDock/src/rDock_2013.1_src/data/scripts/dock_solv.prm

>  <Rbt.Receptor>
prm/blind_docking_60.prm

>  <SCORE>
-20.6318

>  <SCORE.INTER>
-17.5362

>  <SCORE.INTER.CONST>
1

>  <SCORE.INTER.POLAR>
-3.23081

>  <SCORE.INTER.ROT>
6

>  <SCORE.INTER.SOLV>
43.7392

>  <SCORE.INTER.VDW>
-23.1012

>  <SCORE.INTER.norm>
-0.548005

>  <SCORE.INTRA>
-11.3717

>  <SCORE.INTRA.DIHEDRAL>
9.95455

>  <SCORE.INTRA.DIHEDRAL.0>
18.4221

>  <SCORE.INTRA.POLAR>
0.11219

>  <SCORE.INTRA.POLAR.0>
-1.57101

>  <SCORE.INTRA.REPUL>
-0.730195

>  <SCORE.INTRA.REPUL.0>
0.730195

>  <SCORE.INTRA.SOLV>
-2.56727

>  <SCORE.INTRA.SOLV.lig_0>
-127.221

>  <SCORE.INTRA.VDW>
-11.7959

>  <SCORE.INTRA.VDW.0>
10.8385

>  <SCORE.INTRA.norm>
-0.355367

>  <SCORE.RESTR>
8.27611

>  <SCORE.RESTR.CAVITY>
8.27611

>  <SCORE.RESTR.norm>
0.258628

>  <SCORE.SYSTEM>
0

>  <SCORE.SYSTEM.CONST>
0

>  <SCORE.SYSTEM.DIHEDRAL>
0

>  <SCORE.SYSTEM.SOLV>
0

>  <SCORE.SYSTEM.norm>
0

>  <SCORE.heavy>
32

>  <SCORE.norm>
-0.644743

>  <RMSD>
8.167

$$$$
2tob cryst
 OpenBabel11021811463D
libRbt.so/2013.1/901 2013/11/27
 32 34  0  0  0  0  0  0  0  0999 V2000
  -12.7481   -2.6866   -8.7523 C   0  0  2  0  0  0  0  0  0  0  0  0
  -14.1712   -2.1439   -8.8378 C   0  0  1  0  0  0  0  0  0  0  0  0
  -15.0673   -2.9523   -7.8991 C   0  0  2  0  0  0  0  0  0  0  0  0
  -14.9757   -4.4516   -8.2127 C   0  0  1  0  0  0  0  0  0  0  0  0
  -13.5083   -4.8936   -8.2343 C   0  0  1  0  0  0  0  0  0  0  0  0
  -13.2935   -6.3312   -8.6785 C   0  0  0  0  0  0  0  0  0  0  0  0
  -14.1922   -0.7696   -8.4617 O   0  0  0  0  0  0  0  0  0  0  0  0
  -16.5189   -2.5895   -7.8455 N   0  3  0  0  0  0  0  0  0  0  0  0
  -15.6850   -5.1766   -7.2160 O   0  0  0  0  0  0  0  0  0  0  0  0
  -12.7548   -4.0507   -9.1287 O   0  0  0  0  0  0  0  0  0  0  0  0
  -13.7004   -6.5099  -10.0314 O   0  0  0  0  0  0  0  0  0  0  0  0
  -10.3728   -3.9907   -7.5501 C   0  0  2  0  0  0  0  0  0  0  0  0
   -8.8464   -4.1141   -7.6509 C   0  0  0  0  0  0  0  0  0  0  0  0
   -8.2389   -3.0409   -8.5500 C   0  0  1  0  0  0  0  0  0  0  0  0
   -8.6412   -1.6757   -8.0092 C   0  0  2  0  0  0  0  0  0  0  0  0
  -10.1618   -1.5216   -8.0941 C   0  0  1  0  0  0  0  0  0  0  0  0
  -10.8607   -2.5726   -7.2139 C   0  0  1  0  0  0  0  0  0  0  0  0
  -10.9140   -4.9476   -6.5270 N   0  3  0  0  0  0  0  0  0  0  0  0
   -6.7481   -3.1823   -8.6252 N   0  3  0  0  0  0  0  0  0  0  0  0
  -10.5264   -0.2110   -7.6799 O   0  0  0  0  0  0  0  0  0  0  0  0
   -7.9979   -0.6276   -8.7570 O   0  0  0  0  0  0  0  0  0  0  0  0
  -12.2853   -2.5275   -7.4384 O   0  0  0  0  0  0  0  0  0  0  0  0
   -6.9034   -0.0596   -8.0921 C   0  0  2  0  0  0  0  0  0  0  0  0
   -7.0889    1.4575   -7.9833 C   0  0  1  0  0  0  0  0  0  0  0  0
   -6.8483    2.1378   -9.3312 C   0  0  0  0  0  0  0  0  0  0  0  0
   -5.4918    1.7081   -9.8661 C   0  0  1  0  0  0  0  0  0  0  0  0
   -5.4639    0.1955   -9.9993 C   0  0  1  0  0  0  0  0  0  0  0  0
   -4.1320   -0.2962  -10.5364 C   0  0  0  0  0  0  0  0  0  0  0  0
   -8.4812    1.7577   -7.5195 N   0  3  0  0  0  0  0  0  0  0  0  0
   -3.8990   -1.6836  -10.0037 N   0  3  0  0  0  0  0  0  0  0  0  0
   -5.2450    2.3112  -11.1284 O   0  0  0  0  0  0  0  0  0  0  0  0
   -5.6646   -0.3992   -8.7059 O   0  0  0  0  0  0  0  0  0  0  0  0
  1  2  1  0  0  0  0
  1 22  1  1  0  0  0
  1 10  1  0  0  0  0
  2  3  1  0  0  0  0
  2  7  1  1  0  0  0
  3  4  1  0  0  0  0
  3  8  1  6  0  0  0
  4  5  1  0  0  0  0
  4  9  1  1  0  0  0
  5  6  1  6  0  0  0
  5 10  1  0  0  0  0
  6 11  1  0  0  0  0
 12 13  1  0  0  0  0
 12 17  1  0  0  0  0
 12 18  1  1  0  0  0
 13 14  1  0  0  0  0
 14 15  1  0  0  0  0
 14 19  1  1  0  0  0
 15 16  1  0  0  0  0
 15 21  1  6  0  0  0
 16 17  1  0  0  0  0
 16 20  1  1  0  0  0
 17 22  1  6  0  0  0
 23 21  1  6  0  0  0
 23 24  1  0  0  0  0
 23 32  1  0  0  0  0
 24 25  1  0  0  0  0
 24 29  1  6  0  0  0
 25 26  1  0  0  0  0
 26 27  1  0  0  0  0
 26 31  1  6  0  0  0
 27 28  1  1  0  0  0
 27 32  1  0  0  0  0
 28 30  1  0  0  0  0
M  CHG  5   8   1  18   1  19   1  29   1  30   1
M  END
>  <CHROM.1>
-160.90152246,-55.78585915,-52.77078872,-59.05610614,64.18847916,-59.11024246
-63.43578744,-152.67704050,-102.52203788,-172.62988764,-65.45998984,-124.98222424
84.30165117,-59.60885981,151.43141351,-143.45575187,-10.07245594,-2.00473872
-8.51530813,2.65731208,-0.14801945,3.13872634

>  <Name>
2tob cryst

>  <RI>
3.35201e+07

>  <Rbt.Current_Directory>
/home/itssahil/PROJECTS/Mol_Feturizer/New_Systems/rnas/2tob

>  <Rbt.Executable>
rbdock ($Id: //depot/dev/client3/rdock/2013.1/src/exe/rbdock.cxx#4 $)

>  <Rbt.Library>
libRbt.so (2013.1, Build901 2013/11/27)

>  <Rbt.Parameter_File>
/export/apps/rDock/src/rDock_2013.1_src/data/scripts/dock_solv.prm

>  <Rbt.Receptor>
prm/pocket_docking_4.prm

>  <SCORE>
-61.3944

>  <SCORE.INTER>
-44.7173

>  <SCORE.INTER.CONST>
1

>  <SCORE.INTER.POLAR>
-4.49957

>  <SCORE.INTER.ROT>
6

>  <SCORE.INTER.SOLV>
36.4465

>  <SCORE.INTER.VDW>
-34.5618

>  <SCORE.INTER.norm>
-1.39742

>  <SCORE.INTRA>
-16.6799

>  <SCORE.INTRA.DIHEDRAL>
4.55468

>  <SCORE.INTRA.DIHEDRAL.0>
18.4221

>  <SCORE.INTRA.POLAR>
-0.871029

>  <SCORE.INTRA.POLAR.0>
-1.57101

>  <SCORE.INTRA.REPUL>
-0.576792

>  <SCORE.INTRA.REPUL.0>
0.730195

>  <SCORE.INTRA.SOLV>
1.11371

>  <SCORE.INTRA.SOLV.lig_0>
-127.221

>  <SCORE.INTRA.VDW>
-13.6687

>  <SCORE.INTRA.VDW.0>
10.8385

>  <SCORE.INTRA.norm>
-0.521248

>  <SCORE.RESTR>
0.0028504

>  <SCORE.RESTR.CAVITY>
0.0028504

>  <SCORE.RESTR.norm>
8.9075e-05

>  <SCORE.SYSTEM>
0

>  <SCORE.SYSTEM.CONST>
0

>  <SCORE.SYSTEM.DIHEDRAL>
0

>  <SCORE.SYSTEM.SOLV>
0

>  <SCORE.SYSTEM.norm>
0

>  <SCORE.heavy>
32

>  <SCORE.norm>
-1.91858

>  <RMSD>
8.170

$$$$
2tob cryst
 OpenBabel11021811463D
libRbt.so/2013.1/901 2013/11/27
 32 34  0  0  0  0  0  0  0  0999 V2000
  -12.4217   -7.0742   -5.9142 C   0  0  2  0  0  0  0  0  0  0  0  0
  -12.3508   -8.4951   -6.4649 C   0  0  1  0  0  0  0  0  0  0  0  0
  -11.9568   -8.4356   -7.9410 C   0  0  2  0  0  0  0  0  0  0  0  0
  -12.9174   -7.5335   -8.7271 C   0  0  1  0  0  0  0  0  0  0  0  0
  -13.0336   -6.1681   -8.0407 C   0  0  1  0  0  0  0  0  0  0  0  0
  -14.0725   -5.2443   -8.6552 C   0  0  0  0  0  0  0  0  0  0  0  0
  -11.3873   -9.2522   -5.7375 O   0  0  0  0  0  0  0  0  0  0  0  0
  -11.8476   -9.7328   -8.6807 N   0  3  0  0  0  0  0  0  0  0  0  0
  -12.4202   -7.3698  -10.0493 O   0  0  0  0  0  0  0  0  0  0  0  0
  -13.3828   -6.3443   -6.6531 O   0  0  0  0  0  0  0  0  0  0  0  0
  -15.3846   -5.7686   -8.4787 O   0  0  0  0  0  0  0  0  0  0  0  0
  -11.2744   -4.6546   -4.4593 C   0  0  2  0  0  0  0  0  0  0  0  0
  -10.9112   -3.1957   -4.1515 C   0  0  0  0  0  0  0  0  0  0  0  0
   -9.5298   -2.8209   -4.6815 C   0  0  1  0  0  0  0  0  0  0  0  0
   -9.5014   -3.0854   -6.1805 C   0  0  2  0  0  0  0  0  0  0  0  0
   -9.6874   -4.5829   -6.4376 C   0  0  1  0  0  0  0  0  0  0  0  0
  -11.0622   -5.0511   -5.9289 C   0  0  1  0  0  0  0  0  0  0  0  0
  -12.6999   -4.9358   -4.0796 N   0  3  0  0  0  0  0  0  0  0  0  0
   -9.2045   -1.3904   -4.3718 N   0  3  0  0  0  0  0  0  0  0  0  0
   -9.5635   -4.8409   -7.8305 O   0  0  0  0  0  0  0  0  0  0  0  0
   -8.2559   -2.6399   -6.7476 O   0  0  0  0  0  0  0  0  0  0  0  0
  -11.1523   -6.4883   -6.0194 O   0  0  0  0  0  0  0  0  0  0  0  0
   -8.3205   -2.4175   -8.1293 C   0  0  2  0  0  0  0  0  0  0  0  0
   -6.9129   -2.1790   -8.6858 C   0  0  1  0  0  0  0  0  0  0  0  0
   -6.4016   -0.7887   -8.3076 C   0  0  0  0  0  0  0  0  0  0  0  0
   -7.4287    0.2480   -8.7333 C   0  0  1  0  0  0  0  0  0  0  0  0
   -8.7541   -0.0550   -8.0563 C   0  0  1  0  0  0  0  0  0  0  0  0
   -9.8230    0.9527   -8.4387 C   0  0  0  0  0  0  0  0  0  0  0  0
   -5.9786   -3.2147   -8.1398 N   0  3  0  0  0  0  0  0  0  0  0  0
  -10.3088    0.6136   -9.8214 N   0  3  0  0  0  0  0  0  0  0  0  0
   -6.9901    1.5521   -8.3799 O   0  0  0  0  0  0  0  0  0  0  0  0
   -9.2090   -1.3566   -8.4634 O   0  0  0  0  0  0  0  0  0  0  0  0
  1  2  1  0  0  0  0
  1 22  1  6  0  0  0
  1 10  1  0  0  0  0
  2  3  1  0  0  0  0
  2  7  1  1  0  0  0
  3  4  1  0  0  0  0
  3  8  1  6  0  0  0
  4  5  1  0  0  0  0
  4  9  1  6  0  0  0
  5  6  1  6  0  0  0
  5 10  1  0  0  0  0
  6 11  1  0  0  0  0
 12 13  1  0  0  0  0
 12 17  1  0  0  0  0
 12 18  1  6  0  0  0
 13 14  1  0  0  0  0
 14 15  1  0  0  0  0
 14 19  1  6  0  0  0
 15 16  1  0  0  0  0
 15 21  1  1  0  0  0
 16 17  1  0  0  0  0
 16 20  1  6  0  0  0
 17 22  1  1  0  0  0
 23 21  1  1  0  0  0
 23 24  1  0  0  0  0
 23 32  1  0  0  0  0
 24 25  1  0  0  0  0
 24 29  1  1  0  0  0
 25 26  1  0  0  0  0
 26 27  1  0  0  0  0
 26 31  1  1  0  0  0
 27 28  1  6  0  0  0
 27 32  1  0  0  0  0
 28 30  1  0  0  0  0
M  CHG  5   8   1  18   1  19   1  29   1  30   1
M  END
>  <CHROM.1>
162.32291676,62.90220813,-65.19760601,-179.27595247,65.77856700,-58.89367492
114.01932023,68.80010975,-159.19115857,77.72931594,73.89402528,-170.49939315
72.23100584,66.18805564,77.09453059,-87.43024317,-10.45279636,-4.13109702
-7.25592593,-2.86933371,-0.96208041,-1.34271820

>  <Name>
2tob cryst

>  <RI>
0

>  <Rbt.Current_Directory>
/home/itssahil/PROJECTS/Mol_Feturizer/New_Systems/rnas/2tob

>  <Rbt.Executable>
rbdock ($Id: //depot/dev/client3/rdock/2013.1/src/exe/rbdock.cxx#4 $)

>  <Rbt.Library>
libRbt.so (2013.1, Build901 2013/11/27)

>  <Rbt.Parameter_File>
/export/apps/rDock/src/rDock_2013.1_src/data/scripts/dock_solv.prm

>  <Rbt.Receptor>
prm/pocket_docking_6.prm

>  <SCORE>
-58.5413

>  <SCORE.INTER>
-37.1507

>  <SCORE.INTER.CONST>
1

>  <SCORE.INTER.POLAR>
-6.09767

>  <SCORE.INTER.ROT>
6

>  <SCORE.INTER.SOLV>
32.3514

>  <SCORE.INTER.VDW>
-22.8253

>  <SCORE.INTER.norm>
-1.16096

>  <SCORE.INTRA>
-21.3906

>  <SCORE.INTRA.DIHEDRAL>
-5.11912

>  <SCORE.INTRA.DIHEDRAL.0>
18.4221

>  <SCORE.INTRA.POLAR>
0.0855918

>  <SCORE.INTRA.POLAR.0>
-1.57101

>  <SCORE.INTRA.REPUL>
-0.730195

>  <SCORE.INTRA.REPUL.0>
0.730195

>  <SCORE.INTRA.SOLV>
-6.3521

>  <SCORE.INTRA.SOLV.lig_0>
-127.221

>  <SCORE.INTRA.VDW>
-12.295

>  <SCORE.INTRA.VDW.0>
10.8385

>  <SCORE.INTRA.norm>
-0.668456

>  <SCORE.RESTR>
0

>  <SCORE.RESTR.CAVITY>
0

>  <SCORE.RESTR.norm>
0

>  <SCORE.SYSTEM>
0

>  <SCORE.SYSTEM.CONST>
0

>  <SCORE.SYSTEM.DIHEDRAL>
0

>  <SCORE.SYSTEM.SOLV>
0

>  <SCORE.SYSTEM.norm>
0

>  <SCORE.heavy>
32

>  <SCORE.norm>
-1.82941

>  <RMSD>
8.172

$$$$
2tob cryst
 OpenBabel11021811463D
libRbt.so/2013.1/901 2013/11/27
 32 34  0  0  0  0  0  0  0  0999 V2000
  -12.9470   -6.3909   -5.4579 C   0  0  2  0  0  0  0  0  0  0  0  0
  -12.9000   -7.8179   -4.9207 C   0  0  1  0  0  0  0  0  0  0  0  0
  -12.0337   -8.6690   -5.8496 C   0  0  2  0  0  0  0  0  0  0  0  0
  -12.5400   -8.5875   -7.2958 C   0  0  1  0  0  0  0  0  0  0  0  0
  -12.6822   -7.1214   -7.7192 C   0  0  1  0  0  0  0  0  0  0  0  0
  -13.3153   -6.9227   -9.0866 C   0  0  0  0  0  0  0  0  0  0  0  0
  -12.3510   -7.8258   -3.6057 O   0  0  0  0  0  0  0  0  0  0  0  0
  -11.8706  -10.1178   -5.5086 N   0  3  0  0  0  0  0  0  0  0  0  0
  -11.6138   -9.2497   -8.1478 O   0  0  0  0  0  0  0  0  0  0  0  0
  -13.4939   -6.4108   -6.7629 O   0  0  0  0  0  0  0  0  0  0  0  0
  -13.0686   -5.6074   -9.5731 O   0  0  0  0  0  0  0  0  0  0  0  0
  -11.8639   -3.6279   -4.6066 C   0  0  2  0  0  0  0  0  0  0  0  0
  -11.4520   -2.1545   -4.7268 C   0  0  0  0  0  0  0  0  0  0  0  0
   -9.9882   -1.9956   -5.1285 C   0  0  1  0  0  0  0  0  0  0  0  0
   -9.7669   -2.7327   -6.4422 C   0  0  2  0  0  0  0  0  0  0  0  0
  -10.0134   -4.2292   -6.2349 C   0  0  1  0  0  0  0  0  0  0  0  0
  -11.4740   -4.4834   -5.8224 C   0  0  1  0  0  0  0  0  0  0  0  0
  -13.3441   -3.7463   -4.3821 N   0  3  0  0  0  0  0  0  0  0  0  0
   -9.6158   -0.5478   -5.2438 N   0  3  0  0  0  0  0  0  0  0  0  0
   -9.7122   -4.9272   -7.4366 O   0  0  0  0  0  0  0  0  0  0  0  0
   -8.4273   -2.5166   -6.9221 O   0  0  0  0  0  0  0  0  0  0  0  0
  -11.6452   -5.8704   -5.4637 O   0  0  0  0  0  0  0  0  0  0  0  0
   -8.3579   -2.3071   -8.3056 C   0  0  2  0  0  0  0  0  0  0  0  0
   -6.8993   -2.1074   -8.7306 C   0  0  1  0  0  0  0  0  0  0  0  0
   -6.3917   -0.7256   -8.3177 C   0  0  0  0  0  0  0  0  0  0  0  0
   -7.3495    0.3304   -8.8455 C   0  0  1  0  0  0  0  0  0  0  0  0
   -8.7389    0.0656   -8.2924 C   0  0  1  0  0  0  0  0  0  0  0  0
   -9.7429    1.0940   -8.7807 C   0  0  0  0  0  0  0  0  0  0  0  0
   -6.0452   -3.1590   -8.0916 N   0  3  0  0  0  0  0  0  0  0  0  0
  -10.9131    0.3572   -9.3730 N   0  3  0  0  0  0  0  0  0  0  0  0
   -6.9141    1.6275   -8.4635 O   0  0  0  0  0  0  0  0  0  0  0  0
   -9.1856   -1.2292   -8.7295 O   0  0  0  0  0  0  0  0  0  0  0  0
  1  2  1  0  0  0  0
  1 22  1  6  0  0  0
  1 10  1  0  0  0  0
  2  3  1  0  0  0  0
  2  7  1  1  0  0  0
  3  4  1  0  0  0  0
  3  8  1  1  0  0  0
  4  5  1  0  0  0  0
  4  9  1  6  0  0  0
  5  6  1  6  0  0  0
  5 10  1  0  0  0  0
  6 11  1  0  0  0  0
 12 13  1  0  0  0  0
 12 17  1  0  0  0  0
 12 18  1  6  0  0  0
 13 14  1  0  0  0  0
 14 15  1  0  0  0  0
 14 19  1  6  0  0  0
 15 16  1  0  0  0  0
 15 21  1  1  0  0  0
 16 17  1  0  0  0  0
 16 20  1  6  0  0  0
 17 22  1  1  0  0  0
 23 21  1  1  0  0  0
 23 24  1  0  0  0  0
 23 32  1  0  0  0  0
 24 25  1  0  0  0  0
 24 29  1  1  0  0  0
 25 26  1  0  0  0  0
 26 27  1  0  0  0  0
 26 31  1  1  0  0  0
 27 28  1  6  0  0  0
 27 32  1  0  0  0  0
 28 30  1  0  0  0  0
M  CHG  5   8   1  18   1  19   1  29   1  30   1
M  END
>  <CHROM.1>
-174.47462985,-55.97127417,-50.03815911,-43.43599601,-163.22739483,63.61878594
-29.19346650,66.36140289,-138.89396659,177.80250232,77.87397540,-179.16748131
-170.30601477,-63.42649740,127.61495538,-35.71253132,-10.52055620,-4.00352809
-6.95281674,2.44891560,-0.87756401,-2.64830729

>  <Name>
2tob cryst

>  <RI>
0

>  <Rbt.Current_Directory>
/home/itssahil/PROJECTS/Mol_Feturizer/New_Systems/rnas/2tob

>  <Rbt.Executable>
rbdock ($Id: //depot/dev/client3/rdock/2013.1/src/exe/rbdock.cxx#4 $)

>  <Rbt.Library>
libRbt.so (2013.1, Build901 2013/11/27)

>  <Rbt.Parameter_File>
/export/apps/rDock/src/rDock_2013.1_src/data/scripts/dock_solv.prm

>  <Rbt.Receptor>
prm/pocket_docking_6.prm

>  <SCORE>
-56.6671

>  <SCORE.INTER>
-40.3318

>  <SCORE.INTER.CONST>
1

>  <SCORE.INTER.POLAR>
-6.51968

>  <SCORE.INTER.ROT>
6

>  <SCORE.INTER.SOLV>
30.2432

>  <SCORE.INTER.VDW>
-22.8367

>  <SCORE.INTER.norm>
-1.26037

>  <SCORE.INTRA>
-16.3353

>  <SCORE.INTRA.DIHEDRAL>
0.176119

>  <SCORE.INTRA.DIHEDRAL.0>
18.4221

>  <SCORE.INTRA.POLAR>
1.32924

>  <SCORE.INTRA.POLAR.0>
-1.57101

>  <SCORE.INTRA.REPUL>
-0.730195

>  <SCORE.INTRA.REPUL.0>
0.730195

>  <SCORE.INTRA.SOLV>
-5.78306

>  <SCORE.INTRA.SOLV.lig_0>
-127.221

>  <SCORE.INTRA.VDW>
-14.4002

>  <SCORE.INTRA.VDW.0>
10.8385

>  <SCORE.INTRA.norm>
-0.510477

>  <SCORE.RESTR>
0

>  <SCORE.RESTR.CAVITY>
0

>  <SCORE.RESTR.norm>
0

>  <SCORE.SYSTEM>
0

>  <SCORE.SYSTEM.CONST>
0

>  <SCORE.SYSTEM.DIHEDRAL>
0

>  <SCORE.SYSTEM.SOLV>
0

>  <SCORE.SYSTEM.norm>
0

>  <SCORE.heavy>
32

>  <SCORE.norm>
-1.77085

>  <RMSD>
8.176

$$$$
2tob cryst
 OpenBabel11021811463D
libRbt.so/2013.1/901 2013/11/27
 32 34  0  0  0  0  0  0  0  0999 V2000
  -13.1183   -3.0053   -8.3470 C   0  0  2  0  0  0  0  0  0  0  0  0
  -14.4771   -2.4323   -8.7375 C   0  0  1  0  0  0  0  0  0  0  0  0
  -15.5690   -3.1796   -7.9713 C   0  0  2  0  0  0  0  0  0  0  0  0
  -15.4642   -4.6923   -8.2071 C   0  0  1  0  0  0  0  0  0  0  0  0
  -14.0374   -5.1702   -7.9161 C   0  0  1  0  0  0  0  0  0  0  0  0
  -13.7839   -6.6296   -8.2568 C   0  0  0  0  0  0  0  0  0  0  0  0
  -14.5293   -1.0436   -8.4220 O   0  0  0  0  0  0  0  0  0  0  0  0
  -16.9894   -2.7798   -8.2251 N   0  3  0  0  0  0  0  0  0  0  0  0
  -16.3823   -5.3584   -7.3494 O   0  0  0  0  0  0  0  0  0  0  0  0
  -13.0929   -4.3831   -8.6688 O   0  0  0  0  0  0  0  0  0  0  0  0
  -12.4472   -7.0003   -7.9350 O   0  0  0  0  0  0  0  0  0  0  0  0
  -10.8462   -3.5844   -6.0331 C   0  0  2  0  0  0  0  0  0  0  0  0
   -9.3499   -3.3231   -5.8145 C   0  0  0  0  0  0  0  0  0  0  0  0
   -8.6998   -2.6491   -7.0197 C   0  0  1  0  0  0  0  0  0  0  0  0
   -9.4440   -1.3519   -7.3052 C   0  0  2  0  0  0  0  0  0  0  0  0
  -10.8896   -1.6690   -7.6964 C   0  0  1  0  0  0  0  0  0  0  0  0
  -11.6249   -2.3573   -6.5329 C   0  0  1  0  0  0  0  0  0  0  0  0
  -11.4853   -4.0857   -4.7699 N   0  3  0  0  0  0  0  0  0  0  0  0
   -7.2413   -2.4011   -6.7759 N   0  3  0  0  0  0  0  0  0  0  0  0
  -11.5551   -0.4650   -8.0564 O   0  0  0  0  0  0  0  0  0  0  0  0
   -8.7969   -0.6217   -8.3632 O   0  0  0  0  0  0  0  0  0  0  0  0
  -12.9243   -2.8040   -6.9732 O   0  0  0  0  0  0  0  0  0  0  0  0
   -7.8970    0.3479   -7.9018 C   0  0  2  0  0  0  0  0  0  0  0  0
   -8.1917    1.6941   -8.5718 C   0  0  1  0  0  0  0  0  0  0  0  0
   -7.7228    1.6972  -10.0270 C   0  0  0  0  0  0  0  0  0  0  0  0
   -6.2624    1.2780  -10.0762 C   0  0  1  0  0  0  0  0  0  0  0  0
   -6.1170   -0.0994   -9.4531 C   0  0  1  0  0  0  0  0  0  0  0  0
   -4.6765   -0.5774   -9.4777 C   0  0  0  0  0  0  0  0  0  0  0  0
   -9.6648    1.9618   -8.5265 N   0  3  0  0  0  0  0  0  0  0  0  0
   -4.2114   -0.5797  -10.9083 N   0  3  0  0  0  0  0  0  0  0  0  0
   -5.8002    1.2544  -11.4192 O   0  0  0  0  0  0  0  0  0  0  0  0
   -6.5410   -0.0471   -8.0804 O   0  0  0  0  0  0  0  0  0  0  0  0
  1  2  1  0  0  0  0
  1 22  1  1  0  0  0
  1 10  1  0  0  0  0
  2  3  1  0  0  0  0
  2  7  1  1  0  0  0
  3  4  1  0  0  0  0
  3  8  1  6  0  0  0
  4  5  1  0  0  0  0
  4  9  1  1  0  0  0
  5  6  1  6  0  0  0
  5 10  1  0  0  0  0
  6 11  1  0  0  0  0
 12 13  1  0  0  0  0
 12 17  1  0  0  0  0
 12 18  1  1  0  0  0
 13 14  1  0  0  0  0
 14 15  1  0  0  0  0
 14 19  1  1  0  0  0
 15 16  1  0  0  0  0
 15 21  1  6  0  0  0
 16 17  1  0  0  0  0
 16 20  1  1  0  0  0
 17 22  1  6  0  0  0
 23 21  1  6  0  0  0
 23 24  1  0  0  0  0
 23 32  1  0  0  0  0
 24 25  1  0  0  0  0
 24 29  1  6  0  0  0
 25 26  1  0  0  0  0
 26 27  1  0  0  0  0
 26 31  1  6  0  0  0
 27 28  1  1  0  0  0
 27 32  1  0  0  0  0
 28 30  1  0  0  0  0
M  CHG  5   8   1  18   1  19   1  29   1  30   1
M  END
>  <CHROM.1>
-137.18597300,-69.19448055,175.10214867,-62.68985407,-178.91633182,-56.67390870
-59.54376204,-173.53763148,-94.97865296,178.77259882,-98.88333811,-129.20102693
-34.33268971,70.61731373,-57.59250825,-109.16640614,-10.63468932,-2.00259805
-8.12766065,2.60044755,0.03872498,2.72458800

>  <Name>
2tob cryst

>  <RI>
3.75586e+07

>  <Rbt.Current_Directory>
/home/itssahil/PROJECTS/Mol_Feturizer/New_Systems/rnas/2tob

>  <Rbt.Executable>
rbdock ($Id: //depot/dev/client3/rdock/2013.1/src/exe/rbdock.cxx#4 $)

>  <Rbt.Library>
libRbt.so (2013.1, Build901 2013/11/27)

>  <Rbt.Parameter_File>
/export/apps/rDock/src/rDock_2013.1_src/data/scripts/dock_solv.prm

>  <Rbt.Receptor>
prm/pocket_docking_8.prm

>  <SCORE>
-55.03

>  <SCORE.INTER>
-37.9259

>  <SCORE.INTER.CONST>
1

>  <SCORE.INTER.POLAR>
-5.47684

>  <SCORE.INTER.ROT>
6

>  <SCORE.INTER.SOLV>
32.5592

>  <SCORE.INTER.VDW>
-25.4808

>  <SCORE.INTER.norm>
-1.18518

>  <SCORE.INTRA>
-17.1041

>  <SCORE.INTRA.DIHEDRAL>
9.95814

>  <SCORE.INTRA.DIHEDRAL.0>
18.4221

>  <SCORE.INTRA.POLAR>
-1.63043

>  <SCORE.INTRA.POLAR.0>
-1.57101

>  <SCORE.INTRA.REPUL>
-0.730195

>  <SCORE.INTRA.REPUL.0>
0.730195

>  <SCORE.INTRA.SOLV>
-3.06425

>  <SCORE.INTRA.SOLV.lig_0>
-127.221

>  <SCORE.INTRA.VDW>
-11.3566

>  <SCORE.INTRA.VDW.0>
10.8385

>  <SCORE.INTRA.norm>
-0.534504

>  <SCORE.RESTR>
0

>  <SCORE.RESTR.CAVITY>
0

>  <SCORE.RESTR.norm>
0

>  <SCORE.SYSTEM>
0

>  <SCORE.SYSTEM.CONST>
0

>  <SCORE.SYSTEM.DIHEDRAL>
0

>  <SCORE.SYSTEM.SOLV>
0

>  <SCORE.SYSTEM.norm>
0

>  <SCORE.heavy>
32

>  <SCORE.norm>
-1.71969

>  <RMSD>
8.177

$$$$
2tob cryst
 OpenBabel11021811463D
libRbt.so/2013.1/901 2013/11/27
 32 34  0  0  0  0  0  0  0  0999 V2000
  -14.8756   -5.6957   -7.0989 C   0  0  2  0  0  0  0  0  0  0  0  0
  -15.3536   -6.5648   -5.9399 C   0  0  1  0  0  0  0  0  0  0  0  0
  -14.1501   -6.9481   -5.0784 C   0  0  2  0  0  0  0  0  0  0  0  0
  -13.0632   -7.6218   -5.9266 C   0  0  1  0  0  0  0  0  0  0  0  0
  -12.7286   -6.7474   -7.1400 C   0  0  1  0  0  0  0  0  0  0  0  0
  -11.7665   -7.3875   -8.1273 C   0  0  0  0  0  0  0  0  0  0  0  0
  -16.3029   -5.8497   -5.1536 O   0  0  0  0  0  0  0  0  0  0  0  0
  -14.4012   -7.8215   -3.8885 N   0  3  0  0  0  0  0  0  0  0  0  0
  -11.9014   -7.8063   -5.1277 O   0  0  0  0  0  0  0  0  0  0  0  0
  -13.9347   -6.4271   -7.8619 O   0  0  0  0  0  0  0  0  0  0  0  0
  -12.3098   -8.5933   -8.6552 O   0  0  0  0  0  0  0  0  0  0  0  0
  -14.8589   -2.4956   -7.7502 C   0  0  2  0  0  0  0  0  0  0  0  0
  -14.3482   -1.2443   -8.4773 C   0  0  0  0  0  0  0  0  0  0  0  0
  -13.0841   -0.6795   -7.8351 C   0  0  1  0  0  0  0  0  0  0  0  0
  -12.0235   -1.7716   -7.8185 C   0  0  2  0  0  0  0  0  0  0  0  0
  -12.4960   -2.9277   -6.9334 C   0  0  1  0  0  0  0  0  0  0  0  0
  -13.7761   -3.5591   -7.5083 C   0  0  1  0  0  0  0  0  0  0  0  0
  -15.9951   -3.1203   -8.5078 N   0  3  0  0  0  0  0  0  0  0  0  0
  -12.6053    0.5374   -8.5688 N   0  3  0  0  0  0  0  0  0  0  0  0
  -11.4646   -3.9023   -6.8410 O   0  0  0  0  0  0  0  0  0  0  0  0
  -10.7741   -1.2538   -7.3260 O   0  0  0  0  0  0  0  0  0  0  0  0
  -14.3034   -4.5269   -6.5771 O   0  0  0  0  0  0  0  0  0  0  0  0
   -9.6745   -1.6009   -8.1217 C   0  0  2  0  0  0  0  0  0  0  0  0
   -8.4461   -1.8412   -7.2379 C   0  0  1  0  0  0  0  0  0  0  0  0
   -7.8773   -0.5208   -6.7180 C   0  0  0  0  0  0  0  0  0  0  0  0
   -7.6311    0.4086   -7.8955 C   0  0  1  0  0  0  0  0  0  0  0  0
   -8.9361    0.6261   -8.6413 C   0  0  1  0  0  0  0  0  0  0  0  0
   -8.7559    1.5537   -9.8293 C   0  0  0  0  0  0  0  0  0  0  0  0
   -8.8289   -2.7060   -6.0763 N   0  3  0  0  0  0  0  0  0  0  0  0
   -8.5555    2.9490   -9.3039 N   0  3  0  0  0  0  0  0  0  0  0  0
   -7.1171    1.6533   -7.4434 O   0  0  0  0  0  0  0  0  0  0  0  0
   -9.4169   -0.6353   -9.1356 O   0  0  0  0  0  0  0  0  0  0  0  0
  1  2  1  0  0  0  0
  1 22  1  1  0  0  0
  1 10  1  0  0  0  0
  2  3  1  0  0  0  0
  2  7  1  1  0  0  0
  3  4  1  0  0  0  0
  3  8  1  1  0  0  0
  4  5  1  0  0  0  0
  4  9  1  1  0  0  0
  5  6  1  6  0  0  0
  5 10  1  0  0  0  0
  6 11  1  0  0  0  0
 12 13  1  0  0  0  0
 12 17  1  0  0  0  0
 12 18  1  6  0  0  0
 13 14  1  0  0  0  0
 14 15  1  0  0  0  0
 14 19  1  6  0  0  0
 15 16  1  0  0  0  0
 15 21  1  1  0  0  0
 16 17  1  0  0  0  0
 16 20  1  6  0  0  0
 17 22  1  1  0  0  0
 23 21  1  1  0  0  0
 23 24  1  0  0  0  0
 23 32  1  0  0  0  0
 24 25  1  0  0  0  0
 24 29  1  1  0  0  0
 25 26  1  0  0  0  0
 26 27  1  0  0  0  0
 26 31  1  1  0  0  0
 27 28  1  6  0  0  0
 27 32  1  0  0  0  0
 28 30  1  0  0  0  0
M  CHG  5   8   1  18   1  19   1  29   1  30   1
M  END
>  <CHROM.1>
179.71211533,61.47682012,56.97447801,-62.42324411,60.47643808,-64.07835409
-50.97659984,-42.95708660,-132.35485722,-61.57552798,95.90699601,-144.39411336
36.30724414,-56.18755669,-72.37854384,-130.06647109,-11.92892796,-3.21331670
-7.31374007,2.16718176,0.09243899,2.81364900

>  <Name>
2tob cryst

>  <RI>
0

>  <Rbt.Current_Directory>
/home/itssahil/PROJECTS/Mol_Feturizer/New_Systems/rnas/2tob

>  <Rbt.Executable>
rbdock ($Id: //depot/dev/client3/rdock/2013.1/src/exe/rbdock.cxx#4 $)

>  <Rbt.Library>
libRbt.so (2013.1, Build901 2013/11/27)

>  <Rbt.Parameter_File>
/export/apps/rDock/src/rDock_2013.1_src/data/scripts/dock_solv.prm

>  <Rbt.Receptor>
prm/pocket_docking_5.prm

>  <SCORE>
-42.9737

>  <SCORE.INTER>
-25.3608

>  <SCORE.INTER.CONST>
1

>  <SCORE.INTER.POLAR>
-3.91094

>  <SCORE.INTER.ROT>
6

>  <SCORE.INTER.SOLV>
29.9137

>  <SCORE.INTER.VDW>
-21.442

>  <SCORE.INTER.norm>
-0.792525

>  <SCORE.INTRA>
-17.6129

>  <SCORE.INTRA.DIHEDRAL>
3.69435

>  <SCORE.INTRA.DIHEDRAL.0>
18.4221

>  <SCORE.INTRA.POLAR>
0.374736

>  <SCORE.INTRA.POLAR.0>
-1.57101

>  <SCORE.INTRA.REPUL>
-0.730195

>  <SCORE.INTRA.REPUL.0>
0.730195

>  <SCORE.INTRA.SOLV>
-3.48259

>  <SCORE.INTRA.SOLV.lig_0>
-127.221

>  <SCORE.INTRA.VDW>
-15.3419

>  <SCORE.INTRA.VDW.0>
10.8385

>  <SCORE.INTRA.norm>
-0.550402

>  <SCORE.RESTR>
0

>  <SCORE.RESTR.CAVITY>
0

>  <SCORE.RESTR.norm>
0

>  <SCORE.SYSTEM>
0

>  <SCORE.SYSTEM.CONST>
0

>  <SCORE.SYSTEM.DIHEDRAL>
0

>  <SCORE.SYSTEM.SOLV>
0

>  <SCORE.SYSTEM.norm>
0

>  <SCORE.heavy>
32

>  <SCORE.norm>
-1.34293

>  <RMSD>
8.189

$$$$
2tob cryst
 OpenBabel11021811463D
libRbt.so/2013.1/901 2013/11/27
 32 34  0  0  0  0  0  0  0  0999 V2000
  -14.4154   -6.8083   -7.1185 C   0  0  2  0  0  0  0  0  0  0  0  0
  -14.6606   -7.8273   -6.0101 C   0  0  1  0  0  0  0  0  0  0  0  0
  -13.3212   -8.1990   -5.3732 C   0  0  2  0  0  0  0  0  0  0  0  0
  -12.3295   -8.6927   -6.4349 C   0  0  1  0  0  0  0  0  0  0  0  0
  -12.2342   -7.6744   -7.5764 C   0  0  1  0  0  0  0  0  0  0  0  0
  -11.3881   -8.1305   -8.7538 C   0  0  0  0  0  0  0  0  0  0  0  0
  -15.5283   -7.2752   -5.0237 O   0  0  0  0  0  0  0  0  0  0  0  0
  -13.3377   -9.2072   -4.2663 N   0  3  0  0  0  0  0  0  0  0  0  0
  -11.0534   -8.8641   -5.8313 O   0  0  0  0  0  0  0  0  0  0  0  0
  -13.5514   -7.3797   -8.0827 O   0  0  0  0  0  0  0  0  0  0  0  0
  -11.3986   -7.1567   -9.7928 O   0  0  0  0  0  0  0  0  0  0  0  0
  -14.6243   -3.6315   -7.6054 C   0  0  2  0  0  0  0  0  0  0  0  0
  -14.2528   -2.3025   -8.2767 C   0  0  0  0  0  0  0  0  0  0  0  0
  -13.0309   -1.6528   -7.6332 C   0  0  1  0  0  0  0  0  0  0  0  0
  -11.8723   -2.6385   -7.6967 C   0  0  2  0  0  0  0  0  0  0  0  0
  -12.2105   -3.8772   -6.8634 C   0  0  1  0  0  0  0  0  0  0  0  0
  -13.4404   -4.5980   -7.4430 C   0  0  1  0  0  0  0  0  0  0  0  0
  -15.7164   -4.3228   -8.3701 N   0  3  0  0  0  0  0  0  0  0  0  0
  -12.6881   -0.3606   -8.3121 N   0  3  0  0  0  0  0  0  0  0  0  0
  -11.0901   -4.7526   -6.8444 O   0  0  0  0  0  0  0  0  0  0  0  0
  -10.6646   -2.0294   -7.2047 O   0  0  0  0  0  0  0  0  0  0  0  0
  -13.8497   -5.6570   -6.5526 O   0  0  0  0  0  0  0  0  0  0  0  0
   -9.5769   -2.1644   -8.0772 C   0  0  2  0  0  0  0  0  0  0  0  0
   -8.2844   -2.3493   -7.2751 C   0  0  1  0  0  0  0  0  0  0  0  0
   -7.8388   -1.0314   -6.6410 C   0  0  0  0  0  0  0  0  0  0  0  0
   -7.7597    0.0347   -7.7218 C   0  0  1  0  0  0  0  0  0  0  0  0
   -9.1183    0.1742   -8.3860 C   0  0  1  0  0  0  0  0  0  0  0  0
   -9.1050    1.2321   -9.4745 C   0  0  0  0  0  0  0  0  0  0  0  0
   -8.5071   -3.3659   -6.1978 N   0  3  0  0  0  0  0  0  0  0  0  0
   -9.0337    2.5807   -8.8119 N   0  3  0  0  0  0  0  0  0  0  0  0
   -7.3637    1.2783   -7.1608 O   0  0  0  0  0  0  0  0  0  0  0  0
   -9.4818   -1.0778   -8.9920 O   0  0  0  0  0  0  0  0  0  0  0  0
  1  2  1  0  0  0  0
  1 22  1  1  0  0  0
  1 10  1  0  0  0  0
  2  3  1  0  0  0  0
  2  7  1  1  0  0  0
  3  4  1  0  0  0  0
  3  8  1  1  0  0  0
  4  5  1  0  0  0  0
  4  9  1  1  0  0  0
  5  6  1  6  0  0  0
  5 10  1  0  0  0  0
  6 11  1  0  0  0  0
 12 13  1  0  0  0  0
 12 17  1  0  0  0  0
 12 18  1  6  0  0  0
 13 14  1  0  0  0  0
 14 15  1  0  0  0  0
 14 19  1  6  0  0  0
 15 16  1  0  0  0  0
 15 21  1  1  0  0  0
 16 17  1  0  0  0  0
 16 20  1  6  0  0  0
 17 22  1  1  0  0  0
 23 21  1  1  0  0  0
 23 24  1  0  0  0  0
 23 32  1  0  0  0  0
 24 25  1  0  0  0  0
 24 29  1  1  0  0  0
 25 26  1  0  0  0  0
 26 27  1  0  0  0  0
 26 31  1  1  0  0  0
 27 28  1  6  0  0  0
 27 32  1  0  0  0  0
 28 30  1  0  0  0  0
M  CHG  5   8   1  18   1  19   1  29   1  30   1
M  END
>  <CHROM.1>
175.35845804,175.10198787,63.46474290,-65.53675858,177.41584274,-61.30783090
50.34965293,37.04652135,-128.91973405,-60.50720268,91.26795955,-144.25734786
37.24655018,-57.47577341,-72.40522647,-156.38765823,-11.64271634,-3.99254023
-7.35635213,2.08224271,0.12198788,2.87543599

>  <Name>
2tob cryst

>  <RI>
3.35201e+07

>  <Rbt.Current_Directory>
/home/itssahil/PROJECTS/Mol_Feturizer/New_Systems/rnas/2tob

>  <Rbt.Executable>
rbdock ($Id: //depot/dev/client3/rdock/2013.1/src/exe/rbdock.cxx#4 $)

>  <Rbt.Library>
libRbt.so (2013.1, Build901 2013/11/27)

>  <Rbt.Parameter_File>
/export/apps/rDock/src/rDock_2013.1_src/data/scripts/dock_solv.prm

>  <Rbt.Receptor>
prm/pocket_docking_4.prm

>  <SCORE>
-46.5214

>  <SCORE.INTER>
-28.5879

>  <SCORE.INTER.CONST>
1

>  <SCORE.INTER.POLAR>
-4.32523

>  <SCORE.INTER.ROT>
6

>  <SCORE.INTER.SOLV>
25.5762

>  <SCORE.INTER.VDW>
-20.7666

>  <SCORE.INTER.norm>
-0.893373

>  <SCORE.INTRA>
-17.9334

>  <SCORE.INTRA.DIHEDRAL>
1.71721

>  <SCORE.INTRA.DIHEDRAL.0>
18.4221

>  <SCORE.INTRA.POLAR>
0.371344

>  <SCORE.INTRA.POLAR.0>
-1.57101

>  <SCORE.INTRA.REPUL>
-0.730195

>  <SCORE.INTRA.REPUL.0>
0.730195

>  <SCORE.INTRA.SOLV>
-2.8647

>  <SCORE.INTRA.SOLV.lig_0>
-127.221

>  <SCORE.INTRA.VDW>
-14.9713

>  <SCORE.INTRA.VDW.0>
10.8385

>  <SCORE.INTRA.norm>
-0.56042

>  <SCORE.RESTR>
0

>  <SCORE.RESTR.CAVITY>
0

>  <SCORE.RESTR.norm>
0

>  <SCORE.SYSTEM>
0

>  <SCORE.SYSTEM.CONST>
0

>  <SCORE.SYSTEM.DIHEDRAL>
0

>  <SCORE.SYSTEM.SOLV>
0

>  <SCORE.SYSTEM.norm>
0

>  <SCORE.heavy>
32

>  <SCORE.norm>
-1.45379

>  <RMSD>
8.191

$$$$
2tob cryst
 OpenBabel11021811463D
libRbt.so/2013.1/901 2013/11/27
 32 34  0  0  0  0  0  0  0  0999 V2000
  -12.7511   -2.1910   -5.9977 C   0  0  2  0  0  0  0  0  0  0  0  0
  -14.1070   -2.7777   -5.6180 C   0  0  1  0  0  0  0  0  0  0  0  0
  -14.8762   -3.1159   -6.8954 C   0  0  2  0  0  0  0  0  0  0  0  0
  -14.9871   -1.8873   -7.8079 C   0  0  1  0  0  0  0  0  0  0  0  0
  -13.5993   -1.2794   -8.0390 C   0  0  1  0  0  0  0  0  0  0  0  0
  -13.6093    0.0291   -8.8121 C   0  0  0  0  0  0  0  0  0  0  0  0
  -13.9268   -3.9554   -4.8361 O   0  0  0  0  0  0  0  0  0  0  0  0
  -16.2498   -3.6920   -6.7437 N   0  3  0  0  0  0  0  0  0  0  0  0
  -15.5548   -2.2838   -9.0500 O   0  0  0  0  0  0  0  0  0  0  0  0
  -12.9576   -1.0255   -6.7733 O   0  0  0  0  0  0  0  0  0  0  0  0
  -12.3438    0.6766   -8.7290 O   0  0  0  0  0  0  0  0  0  0  0  0
  -10.0402   -4.4138   -7.2322 C   0  0  2  0  0  0  0  0  0  0  0  0
   -8.5357   -4.3832   -7.5334 C   0  0  0  0  0  0  0  0  0  0  0  0
   -8.1391   -3.1692   -8.3690 C   0  0  1  0  0  0  0  0  0  0  0  0
   -8.5725   -1.9122   -7.6274 C   0  0  2  0  0  0  0  0  0  0  0  0
  -10.0983   -1.8921   -7.5064 C   0  0  1  0  0  0  0  0  0  0  0  0
  -10.5895   -3.0907   -6.6757 C   0  0  1  0  0  0  0  0  0  0  0  0
  -10.3641   -5.5195   -6.2690 N   0  3  0  0  0  0  0  0  0  0  0  0
   -6.6649   -3.1625   -8.6425 N   0  3  0  0  0  0  0  0  0  0  0  0
  -10.5069   -0.6723   -6.9006 O   0  0  0  0  0  0  0  0  0  0  0  0
   -8.1185   -0.7357   -8.3211 O   0  0  0  0  0  0  0  0  0  0  0  0
  -12.0304   -3.1550   -6.7167 O   0  0  0  0  0  0  0  0  0  0  0  0
   -6.9215   -0.2155   -7.8118 C   0  0  2  0  0  0  0  0  0  0  0  0
   -7.1095    1.2594   -7.4413 C   0  0  1  0  0  0  0  0  0  0  0  0
   -7.1645    2.1368   -8.6922 C   0  0  0  0  0  0  0  0  0  0  0  0
   -5.9393    1.8556   -9.5470 C   0  0  1  0  0  0  0  0  0  0  0  0
   -5.9106    0.3809   -9.9088 C   0  0  1  0  0  0  0  0  0  0  0  0
   -4.7087    0.0375  -10.7700 C   0  0  0  0  0  0  0  0  0  0  0  0
   -8.3819    1.4211   -6.6678 N   0  3  0  0  0  0  0  0  0  0  0  0
   -3.7576    1.2023  -10.7273 N   0  3  0  0  0  0  0  0  0  0  0  0
   -5.9691    2.6447  -10.7279 O   0  0  0  0  0  0  0  0  0  0  0  0
   -5.8294   -0.4021   -8.7058 O   0  0  0  0  0  0  0  0  0  0  0  0
  1  2  1  0  0  0  0
  1 22  1  6  0  0  0
  1 10  1  0  0  0  0
  2  3  1  0  0  0  0
  2  7  1  1  0  0  0
  3  4  1  0  0  0  0
  3  8  1  1  0  0  0
  4  5  1  0  0  0  0
  4  9  1  6  0  0  0
  5  6  1  1  0  0  0
  5 10  1  0  0  0  0
  6 11  1  0  0  0  0
 12 13  1  0  0  0  0
 12 17  1  0  0  0  0
 12 18  1  1  0  0  0
 13 14  1  0  0  0  0
 14 15  1  0  0  0  0
 14 19  1  1  0  0  0
 15 16  1  0  0  0  0
 15 21  1  6  0  0  0
 16 17  1  0  0  0  0
 16 20  1  1  0  0  0
 17 22  1  6  0  0  0
 23 21  1  6  0  0  0
 23 24  1  0  0  0  0
 23 32  1  0  0  0  0
 24 25  1  0  0  0  0
 24 29  1  6  0  0  0
 25 26  1  0  0  0  0
 26 27  1  0  0  0  0
 26 31  1  6  0  0  0
 27 28  1  6  0  0  0
 27 32  1  0  0  0  0
 28 30  1  0  0  0  0
M  CHG  5   8   1  18   1  19   1  29   1  30   1
M  END
>  <CHROM.1>
-153.28761000,65.61146395,61.74978078,-66.09330927,166.99458046,165.67854303
66.31487087,-155.99971679,-96.75482536,154.05350217,166.39611554,-125.10504355
79.74055609,-39.66770862,12.95850006,-179.28099330,-10.02274455,-1.34308723
-7.88475371,2.66947505,-0.13464256,2.76719718

>  <Name>
2tob cryst

>  <RI>
0

>  <Rbt.Current_Directory>
/home/itssahil/PROJECTS/Mol_Feturizer/New_Systems/rnas/2tob

>  <Rbt.Executable>
rbdock ($Id: //depot/dev/client3/rdock/2013.1/src/exe/rbdock.cxx#4 $)

>  <Rbt.Library>
libRbt.so (2013.1, Build901 2013/11/27)

>  <Rbt.Parameter_File>
/export/apps/rDock/src/rDock_2013.1_src/data/scripts/dock_solv.prm

>  <Rbt.Receptor>
prm/blind_docking_80.prm

>  <SCORE>
-52.2471

>  <SCORE.INTER>
-39.5686

>  <SCORE.INTER.CONST>
1

>  <SCORE.INTER.POLAR>
-4.9942

>  <SCORE.INTER.ROT>
6

>  <SCORE.INTER.SOLV>
32.1686

>  <SCORE.INTER.VDW>
-28.0546

>  <SCORE.INTER.norm>
-1.23652

>  <SCORE.INTRA>
-19.1329

>  <SCORE.INTRA.DIHEDRAL>
10.9046

>  <SCORE.INTRA.DIHEDRAL.0>
18.4221

>  <SCORE.INTRA.POLAR>
-2.68857

>  <SCORE.INTRA.POLAR.0>
-1.57101

>  <SCORE.INTRA.REPUL>
-0.730195

>  <SCORE.INTRA.REPUL.0>
0.730195

>  <SCORE.INTRA.SOLV>
-1.77864

>  <SCORE.INTRA.SOLV.lig_0>
-127.221

>  <SCORE.INTRA.VDW>
-10.9037

>  <SCORE.INTRA.VDW.0>
10.8385

>  <SCORE.INTRA.norm>
-0.597902

>  <SCORE.RESTR>
6.45441

>  <SCORE.RESTR.CAVITY>
6.45441

>  <SCORE.RESTR.norm>
0.2017

>  <SCORE.SYSTEM>
0

>  <SCORE.SYSTEM.CONST>
0

>  <SCORE.SYSTEM.DIHEDRAL>
0

>  <SCORE.SYSTEM.SOLV>
0

>  <SCORE.SYSTEM.norm>
0

>  <SCORE.heavy>
32

>  <SCORE.norm>
-1.63272

>  <RMSD>
8.197

$$$$
2tob cryst
 OpenBabel11021811463D
libRbt.so/2013.1/901 2013/11/27
 32 34  0  0  0  0  0  0  0  0999 V2000
  -11.7100   -1.7091   -9.1784 C   0  0  2  0  0  0  0  0  0  0  0  0
  -13.2169   -1.5295   -9.3333 C   0  0  1  0  0  0  0  0  0  0  0  0
  -13.9270   -2.3412   -8.2495 C   0  0  2  0  0  0  0  0  0  0  0  0
  -13.4893   -3.8112   -8.2928 C   0  0  1  0  0  0  0  0  0  0  0  0
  -11.9598   -3.9035   -8.2621 C   0  0  1  0  0  0  0  0  0  0  0  0
  -11.4131   -5.3096   -8.4470 C   0  0  0  0  0  0  0  0  0  0  0  0
  -13.5590   -0.1518   -9.2076 O   0  0  0  0  0  0  0  0  0  0  0  0
  -15.4240   -2.3154   -8.2350 N   0  3  0  0  0  0  0  0  0  0  0  0
  -14.0379   -4.4902   -7.1702 O   0  0  0  0  0  0  0  0  0  0  0  0
  -11.3974   -3.0834   -9.3058 O   0  0  0  0  0  0  0  0  0  0  0  0
  -10.1286   -5.4372   -7.8456 O   0  0  0  0  0  0  0  0  0  0  0  0
   -9.4883   -2.6706   -7.3538 C   0  0  2  0  0  0  0  0  0  0  0  0
   -7.9671   -2.8649   -7.2959 C   0  0  0  0  0  0  0  0  0  0  0  0
   -7.2574   -2.2194   -8.4829 C   0  0  1  0  0  0  0  0  0  0  0  0
   -7.6176   -0.7404   -8.5128 C   0  0  2  0  0  0  0  0  0  0  0  0
   -9.1214   -0.5868   -8.7538 C   0  0  1  0  0  0  0  0  0  0  0  0
   -9.9201   -1.2162   -7.5989 C   0  0  1  0  0  0  0  0  0  0  0  0
  -10.1327   -3.1640   -6.0902 N   0  3  0  0  0  0  0  0  0  0  0  0
   -5.7739   -2.4198   -8.3970 N   0  3  0  0  0  0  0  0  0  0  0  0
   -9.4400    0.7935   -8.8784 O   0  0  0  0  0  0  0  0  0  0  0  0
   -6.8817   -0.0631   -9.5477 O   0  0  0  0  0  0  0  0  0  0  0  0
  -11.3262   -1.2182   -7.9224 O   0  0  0  0  0  0  0  0  0  0  0  0
   -5.7898    0.6708   -9.0661 C   0  0  2  0  0  0  0  0  0  0  0  0
   -5.8834    2.1223   -9.5480 C   0  0  1  0  0  0  0  0  0  0  0  0
   -5.5287    2.2321  -11.0312 C   0  0  0  0  0  0  0  0  0  0  0  0
   -4.1760    1.5791  -11.2651 C   0  0  1  0  0  0  0  0  0  0  0  0
   -4.2379    0.1286  -10.8189 C   0  0  1  0  0  0  0  0  0  0  0  0
   -2.9136   -0.5816  -11.0334 C   0  0  0  0  0  0  0  0  0  0  0  0
   -7.2762    2.6301   -9.3340 N   0  3  0  0  0  0  0  0  0  0  0  0
   -2.4301   -0.2559  -12.4201 N   0  3  0  0  0  0  0  0  0  0  0  0
   -3.8246    1.6495  -12.6397 O   0  0  0  0  0  0  0  0  0  0  0  0
   -4.5445    0.0759   -9.4154 O   0  0  0  0  0  0  0  0  0  0  0  0
  1  2  1  0  0  0  0
  1 22  1  1  0  0  0
  1 10  1  0  0  0  0
  2  3  1  0  0  0  0
  2  7  1  1  0  0  0
  3  4  1  0  0  0  0
  3  8  1  6  0  0  0
  4  5  1  0  0  0  0
  4  9  1  1  0  0  0
  5  6  1  6  0  0  0
  5 10  1  0  0  0  0
  6 11  1  0  0  0  0
 12 13  1  0  0  0  0
 12 17  1  0  0  0  0
 12 18  1  1  0  0  0
 13 14  1  0  0  0  0
 14 15  1  0  0  0  0
 14 19  1  1  0  0  0
 15 16  1  0  0  0  0
 15 21  1  6  0  0  0
 16 17  1  0  0  0  0
 16 20  1  1  0  0  0
 17 22  1  6  0  0  0
 23 21  1  6  0  0  0
 23 24  1  0  0  0  0
 23 32  1  0  0  0  0
 24 25  1  0  0  0  0
 24 29  1  6  0  0  0
 25 26  1  0  0  0  0
 26 27  1  0  0  0  0
 26 31  1  6  0  0  0
 27 28  1  1  0  0  0
 27 32  1  0  0  0  0
 28 30  1  0  0  0  0
M  CHG  5   8   1  18   1  19   1  29   1  30   1
M  END
>  <CHROM.1>
-176.31122953,-167.43677728,55.75306130,-175.67839927,-154.32382659,-154.18893045
41.81029007,-121.89382247,-101.97829236,-65.69258375,-72.27479212,-125.85788384
-161.59052497,67.59486741,-46.77907152,68.32420913,-8.81868951,-1.25994759
-9.03171650,2.65503534,-0.14534047,2.79183768

>  <Name>
2tob cryst

>  <RI>
0

>  <Rbt.Current_Directory>
/home/itssahil/PROJECTS/Mol_Feturizer/New_Systems/rnas/2tob

>  <Rbt.Executable>
rbdock ($Id: //depot/dev/client3/rdock/2013.1/src/exe/rbdock.cxx#4 $)

>  <Rbt.Library>
libRbt.so (2013.1, Build901 2013/11/27)

>  <Rbt.Parameter_File>
/export/apps/rDock/src/rDock_2013.1_src/data/scripts/dock_solv.prm

>  <Rbt.Receptor>
prm/blind_docking_100.prm

>  <SCORE>
-46.7466

>  <SCORE.INTER>
-36.943

>  <SCORE.INTER.CONST>
1

>  <SCORE.INTER.POLAR>
-4.5961

>  <SCORE.INTER.ROT>
6

>  <SCORE.INTER.SOLV>
37.0197

>  <SCORE.INTER.VDW>
-29.2482

>  <SCORE.INTER.norm>
-1.15447

>  <SCORE.INTRA>
-13.4541

>  <SCORE.INTRA.DIHEDRAL>
7.23469

>  <SCORE.INTRA.DIHEDRAL.0>
18.4221

>  <SCORE.INTRA.POLAR>
-1.08429

>  <SCORE.INTRA.POLAR.0>
-1.57101

>  <SCORE.INTRA.REPUL>
-0.730195

>  <SCORE.INTRA.REPUL.0>
0.730195

>  <SCORE.INTRA.SOLV>
2.81797

>  <SCORE.INTRA.SOLV.lig_0>
-127.221

>  <SCORE.INTRA.VDW>
-11.1429

>  <SCORE.INTRA.VDW.0>
10.8385

>  <SCORE.INTRA.norm>
-0.42044

>  <SCORE.RESTR>
3.65048

>  <SCORE.RESTR.CAVITY>
3.65048

>  <SCORE.RESTR.norm>
0.114078

>  <SCORE.SYSTEM>
0

>  <SCORE.SYSTEM.CONST>
0

>  <SCORE.SYSTEM.DIHEDRAL>
0

>  <SCORE.SYSTEM.SOLV>
0

>  <SCORE.SYSTEM.norm>
0

>  <SCORE.heavy>
32

>  <SCORE.norm>
-1.46083

>  <RMSD>
8.207

$$$$
2tob cryst
 OpenBabel11021811463D
libRbt.so/2013.1/901 2013/11/27
 32 34  0  0  0  0  0  0  0  0999 V2000
  -12.6138   -1.8192   -6.0883 C   0  0  2  0  0  0  0  0  0  0  0  0
  -13.8668   -2.2831   -5.3523 C   0  0  1  0  0  0  0  0  0  0  0  0
  -14.7705   -3.0298   -6.3338 C   0  0  2  0  0  0  0  0  0  0  0  0
  -15.0807   -2.1612   -7.5601 C   0  0  1  0  0  0  0  0  0  0  0  0
  -13.7784   -1.6288   -8.1679 C   0  0  1  0  0  0  0  0  0  0  0  0
  -13.9761   -0.6376   -9.3030 C   0  0  0  0  0  0  0  0  0  0  0  0
  -13.5083   -3.1438   -4.2745 O   0  0  0  0  0  0  0  0  0  0  0  0
  -16.0713   -3.5572   -5.8126 N   0  3  0  0  0  0  0  0  0  0  0  0
  -15.7767   -2.9472   -8.5193 O   0  0  0  0  0  0  0  0  0  0  0  0
  -12.9966   -0.9686   -7.1525 O   0  0  0  0  0  0  0  0  0  0  0  0
  -13.7401   -1.2567  -10.5635 O   0  0  0  0  0  0  0  0  0  0  0  0
   -9.9794   -4.2668   -7.0791 C   0  0  2  0  0  0  0  0  0  0  0  0
   -8.4840   -4.2800   -7.4236 C   0  0  0  0  0  0  0  0  0  0  0  0
   -8.0887   -3.1121   -8.3230 C   0  0  1  0  0  0  0  0  0  0  0  0
   -8.4764   -1.8152   -7.6260 C   0  0  2  0  0  0  0  0  0  0  0  0
   -9.9974   -1.7589   -7.4631 C   0  0  1  0  0  0  0  0  0  0  0  0
  -10.4870   -2.9098   -6.5665 C   0  0  1  0  0  0  0  0  0  0  0  0
  -10.2962   -5.3225   -6.0591 N   0  3  0  0  0  0  0  0  0  0  0  0
   -6.6232   -3.1473   -8.6381 N   0  3  0  0  0  0  0  0  0  0  0  0
  -10.3649   -0.5057   -6.9007 O   0  0  0  0  0  0  0  0  0  0  0  0
   -8.0204   -0.6797   -8.3837 O   0  0  0  0  0  0  0  0  0  0  0  0
  -11.9294   -2.9465   -6.5641 O   0  0  0  0  0  0  0  0  0  0  0  0
   -6.9118   -0.0390   -7.8151 C   0  0  2  0  0  0  0  0  0  0  0  0
   -7.1263    1.4782   -7.8208 C   0  0  1  0  0  0  0  0  0  0  0  0
   -6.9578    2.0510   -9.2283 C   0  0  0  0  0  0  0  0  0  0  0  0
   -5.6158    1.6048   -9.7857 C   0  0  1  0  0  0  0  0  0  0  0  0
   -5.5598    0.0871   -9.7978 C   0  0  1  0  0  0  0  0  0  0  0  0
   -4.2410   -0.4215  -10.3513 C   0  0  0  0  0  0  0  0  0  0  0  0
   -8.5042    1.7889   -7.3223 N   0  3  0  0  0  0  0  0  0  0  0  0
   -4.0339    0.2001  -11.7054 N   0  3  0  0  0  0  0  0  0  0  0  0
   -5.4357    2.1077  -11.1020 O   0  0  0  0  0  0  0  0  0  0  0  0
   -5.6927   -0.4041   -8.4532 O   0  0  0  0  0  0  0  0  0  0  0  0
  1  2  1  0  0  0  0
  1 22  1  6  0  0  0
  1 10  1  0  0  0  0
  2  3  1  0  0  0  0
  2  7  1  1  0  0  0
  3  4  1  0  0  0  0
  3  8  1  1  0  0  0
  4  5  1  0  0  0  0
  4  9  1  6  0  0  0
  5  6  1  6  0  0  0
  5 10  1  0  0  0  0
  6 11  1  0  0  0  0
 12 13  1  0  0  0  0
 12 17  1  0  0  0  0
 12 18  1  1  0  0  0
 13 14  1  0  0  0  0
 14 15  1  0  0  0  0
 14 19  1  1  0  0  0
 15 16  1  0  0  0  0
 15 21  1  6  0  0  0
 16 17  1  0  0  0  0
 16 20  1  1  0  0  0
 17 22  1  6  0  0  0
 23 21  1  6  0  0  0
 23 24  1  0  0  0  0
 23 32  1  0  0  0  0
 24 25  1  0  0  0  0
 24 29  1  6  0  0  0
 25 26  1  0  0  0  0
 26 27  1  0  0  0  0
 26 31  1  6  0  0  0
 27 28  1  1  0  0  0
 27 32  1  0  0  0  0
 28 30  1  0  0  0  0
M  CHG  5   8   1  18   1  19   1  29   1  30   1
M  END
>  <CHROM.1>
-144.29551390,64.44039568,-55.49507052,-67.83700411,-103.17762914,60.15144682
-57.79622725,88.54540523,-105.83474205,-74.72971519,177.96578716,-134.37847907
-152.81827029,61.67200811,-54.34262046,-66.79642369,-9.98741718,-1.43280545
-7.93677207,2.68184888,-0.08890384,2.57260070

>  <Name>
2tob cryst

>  <RI>
0

>  <Rbt.Current_Directory>
/home/itssahil/PROJECTS/Mol_Feturizer/New_Systems/rnas/2tob

>  <Rbt.Executable>
rbdock ($Id: //depot/dev/client3/rdock/2013.1/src/exe/rbdock.cxx#4 $)

>  <Rbt.Library>
libRbt.so (2013.1, Build901 2013/11/27)

>  <Rbt.Parameter_File>
/export/apps/rDock/src/rDock_2013.1_src/data/scripts/dock_solv.prm

>  <Rbt.Receptor>
prm/blind_docking_100.prm

>  <SCORE>
-51.0862

>  <SCORE.INTER>
-41.9928

>  <SCORE.INTER.CONST>
1

>  <SCORE.INTER.POLAR>
-4.0697

>  <SCORE.INTER.ROT>
6

>  <SCORE.INTER.SOLV>
34.2879

>  <SCORE.INTER.VDW>
-33.4588

>  <SCORE.INTER.norm>
-1.31227

>  <SCORE.INTRA>
-17.0635

>  <SCORE.INTRA.DIHEDRAL>
8.02208

>  <SCORE.INTRA.DIHEDRAL.0>
18.4221

>  <SCORE.INTRA.POLAR>
-0.890243

>  <SCORE.INTRA.POLAR.0>
-1.57101

>  <SCORE.INTRA.REPUL>
-0.730195

>  <SCORE.INTRA.REPUL.0>
0.730195

>  <SCORE.INTRA.SOLV>
-3.10001

>  <SCORE.INTRA.SOLV.lig_0>
-127.221

>  <SCORE.INTRA.VDW>
-12.8467

>  <SCORE.INTRA.VDW.0>
10.8385

>  <SCORE.INTRA.norm>
-0.533234

>  <SCORE.RESTR>
7.97009

>  <SCORE.RESTR.CAVITY>
7.97009

>  <SCORE.RESTR.norm>
0.249065

>  <SCORE.SYSTEM>
0

>  <SCORE.SYSTEM.CONST>
0

>  <SCORE.SYSTEM.DIHEDRAL>
0

>  <SCORE.SYSTEM.SOLV>
0

>  <SCORE.SYSTEM.norm>
0

>  <SCORE.heavy>
32

>  <SCORE.norm>
-1.59644

>  <RMSD>
8.212

$$$$
2tob cryst
 OpenBabel11021811463D
libRbt.so/2013.1/901 2013/11/27
 32 34  0  0  0  0  0  0  0  0999 V2000
  -12.1685   -4.3999   -7.8071 C   0  0  2  0  0  0  0  0  0  0  0  0
  -13.5471   -4.0973   -8.3859 C   0  0  1  0  0  0  0  0  0  0  0  0
  -13.7690   -2.5846   -8.3729 C   0  0  2  0  0  0  0  0  0  0  0  0
  -13.5713   -2.0154   -6.9617 C   0  0  1  0  0  0  0  0  0  0  0  0
  -12.2197   -2.4683   -6.3988 C   0  0  1  0  0  0  0  0  0  0  0  0
  -11.9836   -2.0807   -4.9482 C   0  0  0  0  0  0  0  0  0  0  0  0
  -13.6333   -4.5871   -9.7213 O   0  0  0  0  0  0  0  0  0  0  0  0
  -15.0788   -2.0731   -8.8873 N   0  3  0  0  0  0  0  0  0  0  0  0
  -13.6180   -0.5955   -7.0252 O   0  0  0  0  0  0  0  0  0  0  0  0
  -12.1086   -3.9031   -6.4834 O   0  0  0  0  0  0  0  0  0  0  0  0
  -13.0350   -2.5622   -4.1173 O   0  0  0  0  0  0  0  0  0  0  0  0
   -8.9914   -4.2727   -7.7748 C   0  0  2  0  0  0  0  0  0  0  0  0
   -7.6149   -3.7233   -7.3766 C   0  0  0  0  0  0  0  0  0  0  0  0
   -7.1591   -2.5902   -8.2918 C   0  0  1  0  0  0  0  0  0  0  0  0
   -8.2141   -1.4928   -8.2610 C   0  0  2  0  0  0  0  0  0  0  0  0
   -9.5266   -2.0312   -8.8360 C   0  0  1  0  0  0  0  0  0  0  0  0
  -10.0608   -3.1866   -7.9714 C   0  0  1  0  0  0  0  0  0  0  0  0
   -9.4815   -5.2603   -6.7551 N   0  3  0  0  0  0  0  0  0  0  0  0
   -5.8158   -2.0698   -7.8761 N   0  3  0  0  0  0  0  0  0  0  0  0
  -10.4811   -0.9790   -8.8965 O   0  0  0  0  0  0  0  0  0  0  0  0
   -7.7762   -0.3510   -9.0199 O   0  0  0  0  0  0  0  0  0  0  0  0
  -11.1984   -3.7944   -8.6182 O   0  0  0  0  0  0  0  0  0  0  0  0
   -6.7604    0.3803   -8.3905 C   0  0  2  0  0  0  0  0  0  0  0  0
   -7.0210    1.8815   -8.5527 C   0  0  1  0  0  0  0  0  0  0  0  0
   -6.7118    2.3414   -9.9777 C   0  0  0  0  0  0  0  0  0  0  0  0
   -5.3016    1.9062  -10.3419 C   0  0  1  0  0  0  0  0  0  0  0  0
   -5.1963    0.3964  -10.2149 C   0  0  1  0  0  0  0  0  0  0  0  0
   -3.8076   -0.1015  -10.5724 C   0  0  0  0  0  0  0  0  0  0  0  0
   -8.4559    2.1753   -8.2389 N   0  3  0  0  0  0  0  0  0  0  0  0
   -3.4847    0.3776  -11.9613 N   0  3  0  0  0  0  0  0  0  0  0  0
   -4.9890    2.3046  -11.6692 O   0  0  0  0  0  0  0  0  0  0  0  0
   -5.4656    0.0141   -8.8554 O   0  0  0  0  0  0  0  0  0  0  0  0
  1  2  1  0  0  0  0
  1 22  1  6  0  0  0
  1 10  1  0  0  0  0
  2  3  1  0  0  0  0
  2  7  1  6  0  0  0
  3  4  1  0  0  0  0
  3  8  1  1  0  0  0
  4  5  1  0  0  0  0
  4  9  1  6  0  0  0
  5  6  1  1  0  0  0
  5 10  1  0  0  0  0
  6 11  1  0  0  0  0
 12 13  1  0  0  0  0
 12 17  1  0  0  0  0
 12 18  1  1  0  0  0
 13 14  1  0  0  0  0
 14 15  1  0  0  0  0
 14 19  1  1  0  0  0
 15 16  1  0  0  0  0
 15 21  1  6  0  0  0
 16 17  1  0  0  0  0
 16 20  1  1  0  0  0
 17 22  1  6  0  0  0
 23 21  1  6  0  0  0
 23 24  1  0  0  0  0
 23 32  1  0  0  0  0
 24 25  1  0  0  0  0
 24 29  1  6  0  0  0
 25 26  1  0  0  0  0
 26 27  1  0  0  0  0
 26 31  1  6  0  0  0
 27 28  1  1  0  0  0
 27 32  1  0  0  0  0
 28 30  1  0  0  0  0
M  CHG  5   8   1  18   1  19   1  29   1  30   1
M  END
>  <CHROM.1>
140.84375559,177.37995986,-154.35115731,-58.31434654,55.38520149,67.79138010
-123.98329858,167.84651840,-72.63577951,97.12654288,87.13063402,-138.47861972
75.18896878,-55.53218265,-56.05601745,-56.67506095,-9.34528044,-1.53256301
-8.37553614,-2.60551688,0.19747403,-0.30336309

>  <Name>
2tob cryst

>  <RI>
0

>  <Rbt.Current_Directory>
/home/itssahil/PROJECTS/Mol_Feturizer/New_Systems/rnas/2tob

>  <Rbt.Executable>
rbdock ($Id: //depot/dev/client3/rdock/2013.1/src/exe/rbdock.cxx#4 $)

>  <Rbt.Library>
libRbt.so (2013.1, Build901 2013/11/27)

>  <Rbt.Parameter_File>
/export/apps/rDock/src/rDock_2013.1_src/data/scripts/dock_solv.prm

>  <Rbt.Receptor>
prm/blind_docking_100.prm

>  <SCORE>
-26.5488

>  <SCORE.INTER>
-20.6765

>  <SCORE.INTER.CONST>
1

>  <SCORE.INTER.POLAR>
-4.55899

>  <SCORE.INTER.ROT>
6

>  <SCORE.INTER.SOLV>
41.082

>  <SCORE.INTER.VDW>
-19.8817

>  <SCORE.INTER.norm>
-0.64614

>  <SCORE.INTRA>
-8.51022

>  <SCORE.INTRA.DIHEDRAL>
7.58364

>  <SCORE.INTRA.DIHEDRAL.0>
18.4221

>  <SCORE.INTRA.POLAR>
-0.399159

>  <SCORE.INTRA.POLAR.0>
-1.57101

>  <SCORE.INTRA.REPUL>
-0.730195

>  <SCORE.INTRA.REPUL.0>
0.730195

>  <SCORE.INTRA.SOLV>
0.579469

>  <SCORE.INTRA.SOLV.lig_0>
-127.221

>  <SCORE.INTRA.VDW>
-7.58366

>  <SCORE.INTRA.VDW.0>
10.8385

>  <SCORE.INTRA.norm>
-0.265945

>  <SCORE.RESTR>
2.63787

>  <SCORE.RESTR.CAVITY>
2.63787

>  <SCORE.RESTR.norm>
0.0824335

>  <SCORE.SYSTEM>
0

>  <SCORE.SYSTEM.CONST>
0

>  <SCORE.SYSTEM.DIHEDRAL>
0

>  <SCORE.SYSTEM.SOLV>
0

>  <SCORE.SYSTEM.norm>
0

>  <SCORE.heavy>
32

>  <SCORE.norm>
-0.829651

>  <RMSD>
8.214

$$$$
2tob cryst
 OpenBabel11021811463D
libRbt.so/2013.1/901 2013/11/27
 32 34  0  0  0  0  0  0  0  0999 V2000
  -12.8286   -2.6010   -8.7812 C   0  0  2  0  0  0  0  0  0  0  0  0
  -14.2716   -2.1091   -8.8350 C   0  0  1  0  0  0  0  0  0  0  0  0
  -15.1448   -3.0413   -7.9948 C   0  0  2  0  0  0  0  0  0  0  0  0
  -14.9885   -4.4973   -8.4533 C   0  0  1  0  0  0  0  0  0  0  0  0
  -13.5042   -4.8767   -8.4954 C   0  0  1  0  0  0  0  0  0  0  0  0
  -13.2257   -6.2536   -9.0758 C   0  0  0  0  0  0  0  0  0  0  0  0
  -14.3531   -0.7807   -8.3256 O   0  0  0  0  0  0  0  0  0  0  0  0
  -16.6106   -2.7431   -7.9284 N   0  3  0  0  0  0  0  0  0  0  0  0
  -15.6792   -5.3450   -7.5442 O   0  0  0  0  0  0  0  0  0  0  0  0
  -12.7753   -3.9202   -9.2904 O   0  0  0  0  0  0  0  0  0  0  0  0
  -11.9083   -6.6843   -8.7492 O   0  0  0  0  0  0  0  0  0  0  0  0
  -10.5186   -4.0724   -7.5662 C   0  0  2  0  0  0  0  0  0  0  0  0
   -8.9953   -4.2397   -7.6463 C   0  0  0  0  0  0  0  0  0  0  0  0
   -8.3416   -3.1657   -8.5115 C   0  0  1  0  0  0  0  0  0  0  0  0
   -8.7115   -1.8013   -7.9463 C   0  0  2  0  0  0  0  0  0  0  0  0
  -10.2252   -1.5994   -8.0511 C   0  0  1  0  0  0  0  0  0  0  0  0
  -10.9693   -2.6480   -7.2057 C   0  0  1  0  0  0  0  0  0  0  0  0
  -11.1046   -5.0349   -6.5734 N   0  3  0  0  0  0  0  0  0  0  0  0
   -6.8547   -3.3505   -8.5669 N   0  3  0  0  0  0  0  0  0  0  0  0
  -10.5570   -0.2879   -7.6131 O   0  0  0  0  0  0  0  0  0  0  0  0
   -8.0252   -0.7569   -8.6602 O   0  0  0  0  0  0  0  0  0  0  0  0
  -12.3881   -2.5549   -7.4509 O   0  0  0  0  0  0  0  0  0  0  0  0
   -6.9057   -0.2598   -7.9804 C   0  0  2  0  0  0  0  0  0  0  0  0
   -7.1621    1.1852   -7.5395 C   0  0  1  0  0  0  0  0  0  0  0  0
   -7.0859    2.1435   -8.7284 C   0  0  0  0  0  0  0  0  0  0  0  0
   -5.7641    1.9323   -9.4489 C   0  0  1  0  0  0  0  0  0  0  0  0
   -5.6668    0.4853   -9.9001 C   0  0  1  0  0  0  0  0  0  0  0  0
   -4.3664    0.2124  -10.6338 C   0  0  0  0  0  0  0  0  0  0  0  0
   -8.5191    1.2820   -6.9127 N   0  3  0  0  0  0  0  0  0  0  0  0
   -4.3307    1.0857  -11.8581 N   0  3  0  0  0  0  0  0  0  0  0  0
   -5.6695    2.7980  -10.5712 O   0  0  0  0  0  0  0  0  0  0  0  0
   -5.7132   -0.3753   -8.7494 O   0  0  0  0  0  0  0  0  0  0  0  0
  1  2  1  0  0  0  0
  1 22  1  1  0  0  0
  1 10  1  0  0  0  0
  2  3  1  0  0  0  0
  2  7  1  1  0  0  0
  3  4  1  0  0  0  0
  3  8  1  6  0  0  0
  4  5  1  0  0  0  0
  4  9  1  1  0  0  0
  5  6  1  6  0  0  0
  5 10  1  0  0  0  0
  6 11  1  0  0  0  0
 12 13  1  0  0  0  0
 12 17  1  0  0  0  0
 12 18  1  1  0  0  0
 13 14  1  0  0  0  0
 14 15  1  0  0  0  0
 14 19  1  1  0  0  0
 15 16  1  0  0  0  0
 15 21  1  6  0  0  0
 16 17  1  0  0  0  0
 16 20  1  1  0  0  0
 17 22  1  6  0  0  0
 23 21  1  6  0  0  0
 23 24  1  0  0  0  0
 23 32  1  0  0  0  0
 24 25  1  0  0  0  0
 24 29  1  6  0  0  0
 25 26  1  0  0  0  0
 26 27  1  0  0  0  0
 26 31  1  6  0  0  0
 27 28  1  1  0  0  0
 27 32  1  0  0  0  0
 28 30  1  0  0  0  0
M  CHG  5   8   1  18   1  19   1  29   1  30   1
M  END
>  <CHROM.1>
-164.60564179,60.91691522,-47.81805979,-174.11474738,-163.85505900,-174.77881886
158.94025946,-33.45525508,-101.04552014,-78.47687527,-68.71247665,-112.22613812
68.61784621,-23.94313074,-61.30675043,150.45375433,-10.11646861,-1.93302192
-8.49154844,2.59167897,-0.14357829,3.10269216

>  <Name>
2tob cryst

>  <RI>
0

>  <Rbt.Current_Directory>
/home/itssahil/PROJECTS/Mol_Feturizer/New_Systems/rnas/2tob

>  <Rbt.Executable>
rbdock ($Id: //depot/dev/client3/rdock/2013.1/src/exe/rbdock.cxx#4 $)

>  <Rbt.Library>
libRbt.so (2013.1, Build901 2013/11/27)

>  <Rbt.Parameter_File>
/export/apps/rDock/src/rDock_2013.1_src/data/scripts/dock_solv.prm

>  <Rbt.Receptor>
prm/pocket_docking_6.prm

>  <SCORE>
-68.1089

>  <SCORE.INTER>
-50.4226

>  <SCORE.INTER.CONST>
1

>  <SCORE.INTER.POLAR>
-5.78924

>  <SCORE.INTER.ROT>
6

>  <SCORE.INTER.SOLV>
33.0917

>  <SCORE.INTER.VDW>
-32.9482

>  <SCORE.INTER.norm>
-1.57571

>  <SCORE.INTRA>
-17.6863

>  <SCORE.INTRA.DIHEDRAL>
7.79405

>  <SCORE.INTRA.DIHEDRAL.0>
18.4221

>  <SCORE.INTRA.POLAR>
-1.93309

>  <SCORE.INTRA.POLAR.0>
-1.57101

>  <SCORE.INTRA.REPUL>
-0.730195

>  <SCORE.INTRA.REPUL.0>
0.730195

>  <SCORE.INTRA.SOLV>
1.64159

>  <SCORE.INTRA.SOLV.lig_0>
-127.221

>  <SCORE.INTRA.VDW>
-12.1806

>  <SCORE.INTRA.VDW.0>
10.8385

>  <SCORE.INTRA.norm>
-0.552697

>  <SCORE.RESTR>
0

>  <SCORE.RESTR.CAVITY>
0

>  <SCORE.RESTR.norm>
0

>  <SCORE.SYSTEM>
0

>  <SCORE.SYSTEM.CONST>
0

>  <SCORE.SYSTEM.DIHEDRAL>
0

>  <SCORE.SYSTEM.SOLV>
0

>  <SCORE.SYSTEM.norm>
0

>  <SCORE.heavy>
32

>  <SCORE.norm>
-2.1284

>  <RMSD>
8.214

$$$$
2tob cryst
 OpenBabel11021811463D
libRbt.so/2013.1/901 2013/11/27
 32 34  0  0  0  0  0  0  0  0999 V2000
  -10.4725   -6.8626   -6.9442 C   0  0  2  0  0  0  0  0  0  0  0  0
  -10.6453   -8.2746   -7.4950 C   0  0  1  0  0  0  0  0  0  0  0  0
  -11.9690   -8.8466   -6.9866 C   0  0  2  0  0  0  0  0  0  0  0  0
  -12.0380   -8.7862   -5.4549 C   0  0  1  0  0  0  0  0  0  0  0  0
  -11.7279   -7.3650   -4.9722 C   0  0  1  0  0  0  0  0  0  0  0  0
  -11.6263   -7.2244   -3.4622 C   0  0  0  0  0  0  0  0  0  0  0  0
  -10.6468   -8.2452   -8.9197 O   0  0  0  0  0  0  0  0  0  0  0  0
  -12.3246  -10.2408   -7.4006 N   0  3  0  0  0  0  0  0  0  0  0  0
  -13.3426   -9.1660   -5.0356 O   0  0  0  0  0  0  0  0  0  0  0  0
  -10.4757   -6.9192   -5.5302 O   0  0  0  0  0  0  0  0  0  0  0  0
  -11.5362   -5.8541   -3.0857 O   0  0  0  0  0  0  0  0  0  0  0  0
  -11.9594   -4.2060   -5.9474 C   0  0  2  0  0  0  0  0  0  0  0  0
  -11.6163   -2.7632   -5.5530 C   0  0  0  0  0  0  0  0  0  0  0  0
  -10.1263   -2.4648   -5.6958 C   0  0  1  0  0  0  0  0  0  0  0  0
   -9.7140   -2.7500   -7.1334 C   0  0  2  0  0  0  0  0  0  0  0  0
   -9.9020   -4.2396   -7.4317 C   0  0  1  0  0  0  0  0  0  0  0  0
  -11.3849   -4.6317   -7.3078 C   0  0  1  0  0  0  0  0  0  0  0  0
  -13.4471   -4.4106   -5.9612 N   0  3  0  0  0  0  0  0  0  0  0  0
   -9.8216   -1.0484   -5.3097 N   0  3  0  0  0  0  0  0  0  0  0  0
   -9.4257   -4.5215   -8.7415 O   0  0  0  0  0  0  0  0  0  0  0  0
   -8.3412   -2.3747   -7.3481 O   0  0  0  0  0  0  0  0  0  0  0  0
  -11.5218   -6.0637   -7.4200 O   0  0  0  0  0  0  0  0  0  0  0  0
   -8.1020   -1.8408   -8.6210 C   0  0  2  0  0  0  0  0  0  0  0  0
   -6.6393   -1.3986   -8.7348 C   0  0  1  0  0  0  0  0  0  0  0  0
   -6.3938   -0.1075   -7.9535 C   0  0  0  0  0  0  0  0  0  0  0  0
   -7.4023    0.9389   -8.3994 C   0  0  1  0  0  0  0  0  0  0  0  0
   -8.8068    0.4108   -8.1644 C   0  0  1  0  0  0  0  0  0  0  0  0
   -9.8625    1.4167   -8.5863 C   0  0  0  0  0  0  0  0  0  0  0  0
   -5.7490   -2.4775   -8.1991 N   0  3  0  0  0  0  0  0  0  0  0  0
  -10.4181    0.9790   -9.9140 N   0  3  0  0  0  0  0  0  0  0  0  0
   -7.2113    2.1478   -7.6784 O   0  0  0  0  0  0  0  0  0  0  0  0
   -9.0011   -0.7841   -8.9398 O   0  0  0  0  0  0  0  0  0  0  0  0
  1  2  1  0  0  0  0
  1 22  1  1  0  0  0
  1 10  1  0  0  0  0
  2  3  1  0  0  0  0
  2  7  1  6  0  0  0
  3  4  1  0  0  0  0
  3  8  1  1  0  0  0
  4  5  1  0  0  0  0
  4  9  1  6  0  0  0
  5  6  1  1  0  0  0
  5 10  1  0  0  0  0
  6 11  1  0  0  0  0
 12 13  1  0  0  0  0
 12 17  1  0  0  0  0
 12 18  1  6  0  0  0
 13 14  1  0  0  0  0
 14 15  1  0  0  0  0
 14 19  1  6  0  0  0
 15 16  1  0  0  0  0
 15 21  1  1  0  0  0
 16 17  1  0  0  0  0
 16 20  1  6  0  0  0
 17 22  1  1  0  0  0
 23 21  1  1  0  0  0
 23 24  1  0  0  0  0
 23 32  1  0  0  0  0
 24 25  1  0  0  0  0
 24 29  1  1  0  0  0
 25 26  1  0  0  0  0
 26 27  1  0  0  0  0
 26 31  1  1  0  0  0
 27 28  1  6  0  0  0
 27 32  1  0  0  0  0
 28 30  1  0  0  0  0
M  CHG  5   8   1  18   1  19   1  29   1  30   1
M  END
>  <CHROM.1>
-164.73129709,83.65728262,166.46348648,-55.19338392,-171.34464232,66.50082826
-169.36583846,-171.24958601,-143.80015757,-53.14575447,-89.51871261,176.86835843
80.74549108,70.18214787,102.53052053,149.94962771,-10.13064088,-4.00651251
-7.01899307,-2.23624481,0.84387091,0.26228026

>  <Name>
2tob cryst

>  <RI>
0

>  <Rbt.Current_Directory>
/home/itssahil/PROJECTS/Mol_Feturizer/New_Systems/rnas/2tob

>  <Rbt.Executable>
rbdock ($Id: //depot/dev/client3/rdock/2013.1/src/exe/rbdock.cxx#4 $)

>  <Rbt.Library>
libRbt.so (2013.1, Build901 2013/11/27)

>  <Rbt.Parameter_File>
/export/apps/rDock/src/rDock_2013.1_src/data/scripts/dock_solv.prm

>  <Rbt.Receptor>
prm/pocket_docking_3.prm

>  <SCORE>
-32.8325

>  <SCORE.INTER>
-17.2726

>  <SCORE.INTER.CONST>
1

>  <SCORE.INTER.POLAR>
-5.6678

>  <SCORE.INTER.ROT>
6

>  <SCORE.INTER.SOLV>
34.2344

>  <SCORE.INTER.VDW>
-11.6339

>  <SCORE.INTER.norm>
-0.539768

>  <SCORE.INTRA>
-15.7944

>  <SCORE.INTRA.DIHEDRAL>
2.83466

>  <SCORE.INTRA.DIHEDRAL.0>
18.4221

>  <SCORE.INTRA.POLAR>
1.07065

>  <SCORE.INTRA.POLAR.0>
-1.57101

>  <SCORE.INTRA.REPUL>
-0.730195

>  <SCORE.INTRA.REPUL.0>
0.730195

>  <SCORE.INTRA.SOLV>
-6.16249

>  <SCORE.INTRA.SOLV.lig_0>
-127.221

>  <SCORE.INTRA.VDW>
-14.1197

>  <SCORE.INTRA.VDW.0>
10.8385

>  <SCORE.INTRA.norm>
-0.493576

>  <SCORE.RESTR>
0.234515

>  <SCORE.RESTR.CAVITY>
0.234515

>  <SCORE.RESTR.norm>
0.0073286

>  <SCORE.SYSTEM>
0

>  <SCORE.SYSTEM.CONST>
0

>  <SCORE.SYSTEM.DIHEDRAL>
0

>  <SCORE.SYSTEM.SOLV>
0

>  <SCORE.SYSTEM.norm>
0

>  <SCORE.heavy>
32

>  <SCORE.norm>
-1.02602

>  <RMSD>
8.231

$$$$
2tob cryst
 OpenBabel11021811463D
libRbt.so/2013.1/901 2013/11/27
 32 34  0  0  0  0  0  0  0  0999 V2000
  -12.0657   -3.1821   -7.2784 C   0  0  2  0  0  0  0  0  0  0  0  0
  -12.3012   -2.9003   -8.7590 C   0  0  1  0  0  0  0  0  0  0  0  0
  -13.2108   -1.6787   -8.8926 C   0  0  2  0  0  0  0  0  0  0  0  0
  -14.5121   -1.8776   -8.1042 C   0  0  1  0  0  0  0  0  0  0  0  0
  -14.1934   -2.2828   -6.6609 C   0  0  1  0  0  0  0  0  0  0  0  0
  -15.4120   -2.6468   -5.8286 C   0  0  0  0  0  0  0  0  0  0  0  0
  -11.0589   -2.6517   -9.4114 O   0  0  0  0  0  0  0  0  0  0  0  0
  -13.5825   -1.2409  -10.2754 N   0  3  0  0  0  0  0  0  0  0  0  0
  -15.2490   -0.6614   -8.1140 O   0  0  0  0  0  0  0  0  0  0  0  0
  -13.3125   -3.4240   -6.6544 O   0  0  0  0  0  0  0  0  0  0  0  0
  -15.0296   -3.0366   -4.5135 O   0  0  0  0  0  0  0  0  0  0  0  0
   -9.4981   -3.5150   -6.9017 C   0  0  2  0  0  0  0  0  0  0  0  0
   -7.9972   -3.6303   -7.2004 C   0  0  0  0  0  0  0  0  0  0  0  0
   -7.5537   -2.6750   -8.3048 C   0  0  1  0  0  0  0  0  0  0  0  0
   -7.9199   -1.2566   -7.8900 C   0  0  2  0  0  0  0  0  0  0  0  0
   -9.4417   -1.1348   -7.7785 C   0  0  1  0  0  0  0  0  0  0  0  0
   -9.9791   -2.0719   -6.6826 C   0  0  1  0  0  0  0  0  0  0  0  0
   -9.8626   -4.3381   -5.6996 N   0  3  0  0  0  0  0  0  0  0  0  0
   -6.0838   -2.8052   -8.5710 N   0  3  0  0  0  0  0  0  0  0  0  0
   -9.7863    0.2135   -7.4865 O   0  0  0  0  0  0  0  0  0  0  0  0
   -7.4192   -0.3060   -8.8478 O   0  0  0  0  0  0  0  0  0  0  0  0
  -11.4217   -2.0751   -6.7077 O   0  0  0  0  0  0  0  0  0  0  0  0
   -6.3291    0.4377   -8.3773 C   0  0  2  0  0  0  0  0  0  0  0  0
   -6.5463    1.9256   -8.6722 C   0  0  1  0  0  0  0  0  0  0  0  0
   -6.3375    2.2270  -10.1565 C   0  0  0  0  0  0  0  0  0  0  0  0
   -4.9788    1.6947  -10.5822 C   0  0  1  0  0  0  0  0  0  0  0  0
   -4.9195    0.2018  -10.3093 C   0  0  1  0  0  0  0  0  0  0  0  0
   -3.5840   -0.3913  -10.7202 C   0  0  0  0  0  0  0  0  0  0  0  0
   -7.9389    2.3136   -8.2801 N   0  3  0  0  0  0  0  0  0  0  0  0
   -3.2513    0.1195  -12.0954 N   0  3  0  0  0  0  0  0  0  0  0  0
   -4.7610    1.9445  -11.9636 O   0  0  0  0  0  0  0  0  0  0  0  0
   -5.0909   -0.0309   -8.9010 O   0  0  0  0  0  0  0  0  0  0  0  0
  1  2  1  0  0  0  0
  1 22  1  1  0  0  0
  1 10  1  0  0  0  0
  2  3  1  0  0  0  0
  2  7  1  6  0  0  0
  3  4  1  0  0  0  0
  3  8  1  6  0  0  0
  4  5  1  0  0  0  0
  4  9  1  1  0  0  0
  5  6  1  1  0  0  0
  5 10  1  0  0  0  0
  6 11  1  0  0  0  0
 12 13  1  0  0  0  0
 12 17  1  0  0  0  0
 12 18  1  1  0  0  0
 13 14  1  0  0  0  0
 14 15  1  0  0  0  0
 14 19  1  1  0  0  0
 15 16  1  0  0  0  0
 15 21  1  6  0  0  0
 16 17  1  0  0  0  0
 16 20  1  1  0  0  0
 17 22  1  6  0  0  0
 23 21  1  6  0  0  0
 23 24  1  0  0  0  0
 23 32  1  0  0  0  0
 24 25  1  0  0  0  0
 24 29  1  6  0  0  0
 25 26  1  0  0  0  0
 26 27  1  0  0  0  0
 26 31  1  6  0  0  0
 27 28  1  1  0  0  0
 27 32  1  0  0  0  0
 28 30  1  0  0  0  0
M  CHG  5   8   1  18   1  19   1  29   1  30   1
M  END
>  <CHROM.1>
-91.43913341,163.22218600,38.06576275,-15.36284264,178.80280516,174.87545810
-167.71141404,-147.90056222,-107.57612325,-66.30915498,-17.88401784,-132.66167021
-156.22626901,-82.09465676,-46.88750385,60.94785175,-9.40700672,-1.19868941
-8.34819357,-2.67121406,0.10177345,-0.61545260

>  <Name>
2tob cryst

>  <RI>
0

>  <Rbt.Current_Directory>
/home/itssahil/PROJECTS/Mol_Feturizer/New_Systems/rnas/2tob

>  <Rbt.Executable>
rbdock ($Id: //depot/dev/client3/rdock/2013.1/src/exe/rbdock.cxx#4 $)

>  <Rbt.Library>
libRbt.so (2013.1, Build901 2013/11/27)

>  <Rbt.Parameter_File>
/export/apps/rDock/src/rDock_2013.1_src/data/scripts/dock_solv.prm

>  <Rbt.Receptor>
prm/blind_docking_80.prm

>  <SCORE>
-23.0313

>  <SCORE.INTER>
-27.8961

>  <SCORE.INTER.CONST>
1

>  <SCORE.INTER.POLAR>
-4.01042

>  <SCORE.INTER.ROT>
6

>  <SCORE.INTER.SOLV>
43.1949

>  <SCORE.INTER.VDW>
-27.2276

>  <SCORE.INTER.norm>
-0.871753

>  <SCORE.INTRA>
-1.78153

>  <SCORE.INTRA.DIHEDRAL>
19.2268

>  <SCORE.INTRA.DIHEDRAL.0>
18.4221

>  <SCORE.INTRA.POLAR>
-0.152765

>  <SCORE.INTRA.POLAR.0>
-1.57101

>  <SCORE.INTRA.REPUL>
-0.730195

>  <SCORE.INTRA.REPUL.0>
0.730195

>  <SCORE.INTRA.SOLV>
0.404934

>  <SCORE.INTRA.SOLV.lig_0>
-127.221

>  <SCORE.INTRA.VDW>
-7.42702

>  <SCORE.INTRA.VDW.0>
10.8385

>  <SCORE.INTRA.norm>
-0.0556727

>  <SCORE.RESTR>
6.64632

>  <SCORE.RESTR.CAVITY>
6.64632

>  <SCORE.RESTR.norm>
0.207698

>  <SCORE.SYSTEM>
0

>  <SCORE.SYSTEM.CONST>
0

>  <SCORE.SYSTEM.DIHEDRAL>
0

>  <SCORE.SYSTEM.SOLV>
0

>  <SCORE.SYSTEM.norm>
0

>  <SCORE.heavy>
32

>  <SCORE.norm>
-0.719728

>  <RMSD>
8.234

$$$$
2tob cryst
 OpenBabel11021811463D
libRbt.so/2013.1/901 2013/11/27
 32 34  0  0  0  0  0  0  0  0999 V2000
  -11.4043   -6.0119   -5.7890 C   0  0  2  0  0  0  0  0  0  0  0  0
  -11.5941   -7.3258   -5.0375 C   0  0  1  0  0  0  0  0  0  0  0  0
  -13.0891   -7.6318   -4.9437 C   0  0  2  0  0  0  0  0  0  0  0  0
  -13.8478   -6.4599   -4.3067 C   0  0  1  0  0  0  0  0  0  0  0  0
  -13.5064   -5.1562   -5.0366 C   0  0  1  0  0  0  0  0  0  0  0  0
  -14.0913   -3.9080   -4.3963 C   0  0  0  0  0  0  0  0  0  0  0  0
  -10.9268   -8.3810   -5.7246 O   0  0  0  0  0  0  0  0  0  0  0  0
  -13.4960   -8.8792   -4.2225 N   0  3  0  0  0  0  0  0  0  0  0  0
  -15.2447   -6.7118   -4.3935 O   0  0  0  0  0  0  0  0  0  0  0  0
  -12.0762   -4.9825   -5.0881 O   0  0  0  0  0  0  0  0  0  0  0  0
  -13.5778   -2.7328   -5.0150 O   0  0  0  0  0  0  0  0  0  0  0  0
  -13.1277   -4.2550   -7.9363 C   0  0  2  0  0  0  0  0  0  0  0  0
  -13.0587   -2.8757   -8.6054 C   0  0  0  0  0  0  0  0  0  0  0  0
  -11.8603   -2.0612   -8.1260 C   0  0  1  0  0  0  0  0  0  0  0  0
  -10.5944   -2.8626   -8.3967 C   0  0  2  0  0  0  0  0  0  0  0  0
  -10.6194   -4.1501   -7.5692 C   0  0  1  0  0  0  0  0  0  0  0  0
  -11.8056   -5.0370   -7.9867 C   0  0  1  0  0  0  0  0  0  0  0  0
  -14.2115   -5.0896   -8.5562 N   0  3  0  0  0  0  0  0  0  0  0  0
  -11.8151   -0.7225   -8.7998 N   0  3  0  0  0  0  0  0  0  0  0  0
   -9.3943   -4.8494   -7.7485 O   0  0  0  0  0  0  0  0  0  0  0  0
   -9.4271   -2.0882   -8.0666 O   0  0  0  0  0  0  0  0  0  0  0  0
  -11.9173   -6.1583   -7.0856 O   0  0  0  0  0  0  0  0  0  0  0  0
   -8.6288   -1.7824   -9.1765 C   0  0  2  0  0  0  0  0  0  0  0  0
   -7.1495   -1.9658   -8.8217 C   0  0  1  0  0  0  0  0  0  0  0  0
   -6.6539   -0.8273   -7.9296 C   0  0  0  0  0  0  0  0  0  0  0  0
   -6.9797    0.4997   -8.5957 C   0  0  1  0  0  0  0  0  0  0  0  0
   -8.4788    0.5898   -8.8227 C   0  0  1  0  0  0  0  0  0  0  0  0
   -8.8689    1.9000   -9.4823 C   0  0  0  0  0  0  0  0  0  0  0  0
   -6.9658   -3.2694   -8.1072 N   0  3  0  0  0  0  0  0  0  0  0  0
   -9.1592    2.8995   -8.3962 N   0  3  0  0  0  0  0  0  0  0  0  0
   -6.5463    1.5805   -7.7820 O   0  0  0  0  0  0  0  0  0  0  0  0
   -8.8934   -0.4806   -9.6882 O   0  0  0  0  0  0  0  0  0  0  0  0
  1  2  1  0  0  0  0
  1 22  1  6  0  0  0
  1 10  1  0  0  0  0
  2  3  1  0  0  0  0
  2  7  1  6  0  0  0
  3  4  1  0  0  0  0
  3  8  1  1  0  0  0
  4  5  1  0  0  0  0
  4  9  1  6  0  0  0
  5  6  1  1  0  0  0
  5 10  1  0  0  0  0
  6 11  1  0  0  0  0
 12 13  1  0  0  0  0
 12 17  1  0  0  0  0
 12 18  1  6  0  0  0
 13 14  1  0  0  0  0
 14 15  1  0  0  0  0
 14 19  1  6  0  0  0
 15 16  1  0  0  0  0
 15 21  1  1  0  0  0
 16 17  1  0  0  0  0
 16 20  1  6  0  0  0
 17 22  1  1  0  0  0
 23 21  1  1  0  0  0
 23 24  1  0  0  0  0
 23 32  1  0  0  0  0
 24 25  1  0  0  0  0
 24 29  1  1  0  0  0
 25 26  1  0  0  0  0
 26 27  1  0  0  0  0
 26 31  1  1  0  0  0
 27 28  1  6  0  0  0
 27 32  1  0  0  0  0
 28 30  1  0  0  0  0
M  CHG  5   8   1  18   1  19   1  29   1  30   1
M  END
>  <CHROM.1>
-178.29498503,-56.67286793,59.58564845,175.55025695,171.73651155,59.04945190
25.40257570,126.83832080,-114.79283489,-57.69286371,-95.94113132,-137.52979353
88.20096230,163.32287934,-90.49531113,-175.89149654,-10.91956323,-3.41144077
-7.16638201,-2.16646468,0.21406565,-0.31315560

>  <Name>
2tob cryst

>  <RI>
3.35201e+07

>  <Rbt.Current_Directory>
/home/itssahil/PROJECTS/Mol_Feturizer/New_Systems/rnas/2tob

>  <Rbt.Executable>
rbdock ($Id: //depot/dev/client3/rdock/2013.1/src/exe/rbdock.cxx#4 $)

>  <Rbt.Library>
libRbt.so (2013.1, Build901 2013/11/27)

>  <Rbt.Parameter_File>
/export/apps/rDock/src/rDock_2013.1_src/data/scripts/dock_solv.prm

>  <Rbt.Receptor>
prm/pocket_docking_4.prm

>  <SCORE>
-41.9409

>  <SCORE.INTER>
-28.4249

>  <SCORE.INTER.CONST>
1

>  <SCORE.INTER.POLAR>
-5.374

>  <SCORE.INTER.ROT>
6

>  <SCORE.INTER.SOLV>
30.8036

>  <SCORE.INTER.VDW>
-18.9045

>  <SCORE.INTER.norm>
-0.888278

>  <SCORE.INTRA>
-13.6138

>  <SCORE.INTRA.DIHEDRAL>
10.9592

>  <SCORE.INTRA.DIHEDRAL.0>
18.4221

>  <SCORE.INTRA.POLAR>
-0.087993

>  <SCORE.INTRA.POLAR.0>
-1.57101

>  <SCORE.INTRA.REPUL>
-0.730195

>  <SCORE.INTRA.REPUL.0>
0.730195

>  <SCORE.INTRA.SOLV>
-3.57844

>  <SCORE.INTRA.SOLV.lig_0>
-127.221

>  <SCORE.INTRA.VDW>
-13.354

>  <SCORE.INTRA.VDW.0>
10.8385

>  <SCORE.INTRA.norm>
-0.425431

>  <SCORE.RESTR>
0.0978041

>  <SCORE.RESTR.CAVITY>
0.0978041

>  <SCORE.RESTR.norm>
0.00305638

>  <SCORE.SYSTEM>
0

>  <SCORE.SYSTEM.CONST>
0

>  <SCORE.SYSTEM.DIHEDRAL>
0

>  <SCORE.SYSTEM.SOLV>
0

>  <SCORE.SYSTEM.norm>
0

>  <SCORE.heavy>
32

>  <SCORE.norm>
-1.31065

>  <RMSD>
8.235

$$$$
2tob cryst
 OpenBabel11021811463D
libRbt.so/2013.1/901 2013/11/27
 32 34  0  0  0  0  0  0  0  0999 V2000
  -11.5273   -1.7172   -9.0485 C   0  0  2  0  0  0  0  0  0  0  0  0
  -12.8843   -1.0251   -9.1284 C   0  0  1  0  0  0  0  0  0  0  0  0
  -13.8869   -1.7991   -8.2720 C   0  0  2  0  0  0  0  0  0  0  0  0
  -13.9390   -3.2743   -8.6907 C   0  0  1  0  0  0  0  0  0  0  0  0
  -12.5244   -3.8639   -8.7093 C   0  0  1  0  0  0  0  0  0  0  0  0
  -12.4437   -5.2817   -9.2508 C   0  0  0  0  0  0  0  0  0  0  0  0
  -12.7768    0.3147   -8.6548 O   0  0  0  0  0  0  0  0  0  0  0  0
  -15.2949   -1.2919   -8.2268 N   0  3  0  0  0  0  0  0  0  0  0  0
  -14.7491   -3.9890   -7.7660 O   0  0  0  0  0  0  0  0  0  0  0  0
  -11.6615   -3.0439   -9.5224 O   0  0  0  0  0  0  0  0  0  0  0  0
  -11.0996   -5.7519   -9.2418 O   0  0  0  0  0  0  0  0  0  0  0  0
   -9.1726   -3.1187   -7.3826 C   0  0  2  0  0  0  0  0  0  0  0  0
   -7.6446   -3.2544   -7.4252 C   0  0  0  0  0  0  0  0  0  0  0  0
   -7.0285   -2.4771   -8.5852 C   0  0  1  0  0  0  0  0  0  0  0  0
   -7.4432   -1.0175   -8.4607 C   0  0  2  0  0  0  0  0  0  0  0  0
   -8.9630   -0.9052   -8.6048 C   0  0  1  0  0  0  0  0  0  0  0  0
   -9.6703   -1.6674   -7.4704 C   0  0  1  0  0  0  0  0  0  0  0  0
   -9.7246   -3.7487   -6.1361 N   0  3  0  0  0  0  0  0  0  0  0  0
   -5.5362   -2.6229   -8.5986 N   0  3  0  0  0  0  0  0  0  0  0  0
   -9.3381    0.4662   -8.5856 O   0  0  0  0  0  0  0  0  0  0  0  0
   -6.7933   -0.2209   -9.4680 O   0  0  0  0  0  0  0  0  0  0  0  0
  -11.0918   -1.6986   -7.7160 O   0  0  0  0  0  0  0  0  0  0  0  0
   -5.7296    0.5446   -8.9728 C   0  0  2  0  0  0  0  0  0  0  0  0
   -5.9252    2.0163   -9.3517 C   0  0  1  0  0  0  0  0  0  0  0  0
   -5.6312    2.2450  -10.8346 C   0  0  0  0  0  0  0  0  0  0  0  0
   -4.2519    1.6922  -11.1555 C   0  0  1  0  0  0  0  0  0  0  0  0
   -4.2127    0.2144  -10.8072 C   0  0  1  0  0  0  0  0  0  0  0  0
   -2.8578   -0.3983  -11.1117 C   0  0  0  0  0  0  0  0  0  0  0  0
   -7.3368    2.4233   -9.0592 N   0  3  0  0  0  0  0  0  0  0  0  0
   -2.5237   -0.0988  -12.5476 N   0  3  0  0  0  0  0  0  0  0  0  0
   -3.9549    1.8744  -12.5326 O   0  0  0  0  0  0  0  0  0  0  0  0
   -4.4651    0.0507   -9.4014 O   0  0  0  0  0  0  0  0  0  0  0  0
  1  2  1  0  0  0  0
  1 22  1  1  0  0  0
  1 10  1  0  0  0  0
  2  3  1  0  0  0  0
  2  7  1  1  0  0  0
  3  4  1  0  0  0  0
  3  8  1  6  0  0  0
  4  5  1  0  0  0  0
  4  9  1  1  0  0  0
  5  6  1  6  0  0  0
  5 10  1  0  0  0  0
  6 11  1  0  0  0  0
 12 13  1  0  0  0  0
 12 17  1  0  0  0  0
 12 18  1  1  0  0  0
 13 14  1  0  0  0  0
 14 15  1  0  0  0  0
 14 19  1  1  0  0  0
 15 16  1  0  0  0  0
 15 21  1  6  0  0  0
 16 17  1  0  0  0  0
 16 20  1  1  0  0  0
 17 22  1  6  0  0  0
 23 21  1  6  0  0  0
 23 24  1  0  0  0  0
 23 32  1  0  0  0  0
 24 25  1  0  0  0  0
 24 29  1  6  0  0  0
 25 26  1  0  0  0  0
 26 27  1  0  0  0  0
 26 31  1  6  0  0  0
 27 28  1  1  0  0  0
 27 32  1  0  0  0  0
 28 30  1  0  0  0  0
M  CHG  5   8   1  18   1  19   1  29   1  30   1
M  END
>  <CHROM.1>
-150.08306312,85.06891678,98.46480183,-53.26893358,179.66375893,-17.38931894
85.72772546,117.80401489,-103.91093699,-63.13421760,-89.86597232,-126.37131654
81.32901223,-66.65234591,-53.84881506,66.06086497,-8.82848900,-1.26062761
-9.09109438,2.70355273,-0.17042940,2.90824578

>  <Name>
2tob cryst

>  <RI>
0

>  <Rbt.Current_Directory>
/home/itssahil/PROJECTS/Mol_Feturizer/New_Systems/rnas/2tob

>  <Rbt.Executable>
rbdock ($Id: //depot/dev/client3/rdock/2013.1/src/exe/rbdock.cxx#4 $)

>  <Rbt.Library>
libRbt.so (2013.1, Build901 2013/11/27)

>  <Rbt.Parameter_File>
/export/apps/rDock/src/rDock_2013.1_src/data/scripts/dock_solv.prm

>  <Rbt.Receptor>
prm/blind_docking_60.prm

>  <SCORE>
-35.1144

>  <SCORE.INTER>
-37.4278

>  <SCORE.INTER.CONST>
1

>  <SCORE.INTER.POLAR>
-5.08895

>  <SCORE.INTER.ROT>
6

>  <SCORE.INTER.SOLV>
41.105

>  <SCORE.INTER.VDW>
-29.2904

>  <SCORE.INTER.norm>
-1.16962

>  <SCORE.INTRA>
-7.83286

>  <SCORE.INTRA.DIHEDRAL>
19.434

>  <SCORE.INTRA.DIHEDRAL.0>
18.4221

>  <SCORE.INTRA.POLAR>
-0.575363

>  <SCORE.INTRA.POLAR.0>
-1.57101

>  <SCORE.INTRA.REPUL>
-0.730195

>  <SCORE.INTRA.REPUL.0>
0.730195

>  <SCORE.INTRA.SOLV>
-1.29541

>  <SCORE.INTRA.SOLV.lig_0>
-127.221

>  <SCORE.INTRA.VDW>
-11.295

>  <SCORE.INTRA.VDW.0>
10.8385

>  <SCORE.INTRA.norm>
-0.244777

>  <SCORE.RESTR>
10.1462

>  <SCORE.RESTR.CAVITY>
10.1462

>  <SCORE.RESTR.norm>
0.317069

>  <SCORE.SYSTEM>
0

>  <SCORE.SYSTEM.CONST>
0

>  <SCORE.SYSTEM.DIHEDRAL>
0

>  <SCORE.SYSTEM.SOLV>
0

>  <SCORE.SYSTEM.norm>
0

>  <SCORE.heavy>
32

>  <SCORE.norm>
-1.09733

>  <RMSD>
8.249

$$$$
2tob cryst
 OpenBabel11021811463D
libRbt.so/2013.1/901 2013/11/27
 32 34  0  0  0  0  0  0  0  0999 V2000
  -11.8596   -1.9826   -8.8882 C   0  0  2  0  0  0  0  0  0  0  0  0
  -13.3193   -1.6012   -9.1137 C   0  0  1  0  0  0  0  0  0  0  0  0
  -14.2039   -2.4810   -8.2299 C   0  0  2  0  0  0  0  0  0  0  0  0
  -13.9247   -3.9681   -8.4854 C   0  0  1  0  0  0  0  0  0  0  0  0
  -12.4224   -4.2471   -8.3660 C   0  0  1  0  0  0  0  0  0  0  0  0
  -12.0161   -5.6624   -8.7429 C   0  0  0  0  0  0  0  0  0  0  0  0
  -13.5208   -0.2291   -8.7859 O   0  0  0  0  0  0  0  0  0  0  0  0
  -15.6850   -2.2782   -8.3135 N   0  3  0  0  0  0  0  0  0  0  0  0
  -14.6384   -4.7432   -7.5304 O   0  0  0  0  0  0  0  0  0  0  0  0
  -11.6867   -3.3475   -9.2191 O   0  0  0  0  0  0  0  0  0  0  0  0
  -12.3683   -5.9483  -10.0927 O   0  0  0  0  0  0  0  0  0  0  0  0
   -9.5954   -3.0107   -6.8813 C   0  0  2  0  0  0  0  0  0  0  0  0
   -8.0647   -3.0746   -6.7908 C   0  0  0  0  0  0  0  0  0  0  0  0
   -7.3879   -2.4262   -7.9953 C   0  0  1  0  0  0  0  0  0  0  0  0
   -7.8684   -0.9853   -8.0994 C   0  0  2  0  0  0  0  0  0  0  0  0
   -9.3749   -0.9685   -8.3707 C   0  0  1  0  0  0  0  0  0  0  0  0
  -10.1410   -1.6098   -7.2003 C   0  0  1  0  0  0  0  0  0  0  0  0
  -10.2211   -3.4987   -5.6063 N   0  3  0  0  0  0  0  0  0  0  0  0
   -5.8949   -2.4982   -7.8772 N   0  3  0  0  0  0  0  0  0  0  0  0
   -9.8039    0.3733   -8.5641 O   0  0  0  0  0  0  0  0  0  0  0  0
   -7.1711   -0.2962   -9.1532 O   0  0  0  0  0  0  0  0  0  0  0  0
  -11.5356   -1.7436   -7.5452 O   0  0  0  0  0  0  0  0  0  0  0  0
   -6.0395    0.4006   -8.7099 C   0  0  2  0  0  0  0  0  0  0  0  0
   -6.2599    1.9087   -8.8687 C   0  0  1  0  0  0  0  0  0  0  0  0
   -6.1600    2.3264  -10.3360 C   0  0  0  0  0  0  0  0  0  0  0  0
   -4.8440    1.8211  -10.9049 C   0  0  1  0  0  0  0  0  0  0  0  0
   -4.7828    0.3108  -10.7562 C   0  0  1  0  0  0  0  0  0  0  0  0
   -3.4896   -0.2560  -11.3134 C   0  0  0  0  0  0  0  0  0  0  0  0
   -7.6139    2.2730   -8.3420 N   0  3  0  0  0  0  0  0  0  0  0  0
   -2.4541    0.8349  -11.2877 N   0  3  0  0  0  0  0  0  0  0  0  0
   -4.7281    2.1791  -12.2747 O   0  0  0  0  0  0  0  0  0  0  0  0
   -4.8503   -0.0325   -9.3618 O   0  0  0  0  0  0  0  0  0  0  0  0
  1  2  1  0  0  0  0
  1 22  1  1  0  0  0
  1 10  1  0  0  0  0
  2  3  1  0  0  0  0
  2  7  1  1  0  0  0
  3  4  1  0  0  0  0
  3  8  1  6  0  0  0
  4  5  1  0  0  0  0
  4  9  1  1  0  0  0
  5  6  1  6  0  0  0
  5 10  1  0  0  0  0
  6 11  1  0  0  0  0
 12 13  1  0  0  0  0
 12 17  1  0  0  0  0
 12 18  1  1  0  0  0
 13 14  1  0  0  0  0
 14 15  1  0  0  0  0
 14 19  1  1  0  0  0
 15 16  1  0  0  0  0
 15 21  1  6  0  0  0
 16 17  1  0  0  0  0
 16 20  1  1  0  0  0
 17 22  1  6  0  0  0
 23 21  1  6  0  0  0
 23 24  1  0  0  0  0
 23 32  1  0  0  0  0
 24 25  1  0  0  0  0
 24 29  1  6  0  0  0
 25 26  1  0  0  0  0
 26 27  1  0  0  0  0
 26 31  1  6  0  0  0
 27 28  1  1  0  0  0
 27 32  1  0  0  0  0
 28 30  1  0  0  0  0
M  CHG  5   8   1  18   1  19   1  29   1  30   1
M  END
>  <CHROM.1>
-160.10777274,63.46176392,-56.49866247,-59.97211643,59.94613242,-61.48581969
-178.82823121,-177.29811421,-93.65559041,179.24458940,-88.71737804,-113.35289266
-160.77895001,-91.27879332,24.17090702,48.09660340,-9.20790004,-1.38587720
-8.81999979,2.62697042,-0.06955324,2.82977664

>  <Name>
2tob cryst

>  <RI>
2.04895e+07

>  <Rbt.Current_Directory>
/home/itssahil/PROJECTS/Mol_Feturizer/New_Systems/rnas/2tob

>  <Rbt.Executable>
rbdock ($Id: //depot/dev/client3/rdock/2013.1/src/exe/rbdock.cxx#4 $)

>  <Rbt.Library>
libRbt.so (2013.1, Build901 2013/11/27)

>  <Rbt.Parameter_File>
/export/apps/rDock/src/rDock_2013.1_src/data/scripts/dock_solv.prm

>  <Rbt.Receptor>
prm/blind_docking_20.prm

>  <SCORE>
-59.5316

>  <SCORE.INTER>
-45.6382

>  <SCORE.INTER.CONST>
1

>  <SCORE.INTER.POLAR>
-5.43105

>  <SCORE.INTER.ROT>
6

>  <SCORE.INTER.SOLV>
36.0288

>  <SCORE.INTER.VDW>
-31.9315

>  <SCORE.INTER.norm>
-1.42619

>  <SCORE.INTRA>
-15.2473

>  <SCORE.INTRA.DIHEDRAL>
6.61993

>  <SCORE.INTRA.DIHEDRAL.0>
18.4221

>  <SCORE.INTRA.POLAR>
-0.432946

>  <SCORE.INTRA.POLAR.0>
-1.57101

>  <SCORE.INTRA.REPUL>
-0.730195

>  <SCORE.INTRA.REPUL.0>
0.730195

>  <SCORE.INTRA.SOLV>
-1.97563

>  <SCORE.INTRA.SOLV.lig_0>
-127.221

>  <SCORE.INTRA.VDW>
-12.4464

>  <SCORE.INTRA.VDW.0>
10.8385

>  <SCORE.INTRA.norm>
-0.476478

>  <SCORE.RESTR>
1.35385

>  <SCORE.RESTR.CAVITY>
1.35385

>  <SCORE.RESTR.norm>
0.0423077

>  <SCORE.SYSTEM>
0

>  <SCORE.SYSTEM.CONST>
0

>  <SCORE.SYSTEM.DIHEDRAL>
0

>  <SCORE.SYSTEM.SOLV>
0

>  <SCORE.SYSTEM.norm>
0

>  <SCORE.heavy>
32

>  <SCORE.norm>
-1.86036

>  <RMSD>
8.251

$$$$
2tob cryst
 OpenBabel11021811463D
libRbt.so/2013.1/901 2013/11/27
 32 34  0  0  0  0  0  0  0  0999 V2000
  -15.6230   -5.3012   -6.9072 C   0  0  2  0  0  0  0  0  0  0  0  0
  -15.9722   -6.2205   -5.7410 C   0  0  1  0  0  0  0  0  0  0  0  0
  -14.7140   -6.9750   -5.3105 C   0  0  2  0  0  0  0  0  0  0  0  0
  -14.0909   -7.7206   -6.4981 C   0  0  1  0  0  0  0  0  0  0  0  0
  -13.8886   -6.7579   -7.6733 C   0  0  1  0  0  0  0  0  0  0  0  0
  -13.4105   -7.4235   -8.9533 C   0  0  0  0  0  0  0  0  0  0  0  0
  -16.4735   -5.4540   -4.6493 O   0  0  0  0  0  0  0  0  0  0  0  0
  -14.8445   -7.9506   -4.1822 N   0  3  0  0  0  0  0  0  0  0  0  0
  -12.8397   -8.2647   -6.0972 O   0  0  0  0  0  0  0  0  0  0  0  0
  -15.1273   -6.0853   -7.9757 O   0  0  0  0  0  0  0  0  0  0  0  0
  -14.3473   -8.3997   -9.3974 O   0  0  0  0  0  0  0  0  0  0  0  0
  -14.8455   -2.2421   -7.5888 C   0  0  2  0  0  0  0  0  0  0  0  0
  -14.1360   -1.1366   -8.3824 C   0  0  0  0  0  0  0  0  0  0  0  0
  -12.7051   -0.9095   -7.9025 C   0  0  1  0  0  0  0  0  0  0  0  0
  -11.9482   -2.2265   -8.0058 C   0  0  2  0  0  0  0  0  0  0  0  0
  -12.5788   -3.2524   -7.0608 C   0  0  1  0  0  0  0  0  0  0  0  0
  -14.0334   -3.5416   -7.4714 C   0  0  1  0  0  0  0  0  0  0  0  0
  -16.1817   -2.5559   -8.1983 N   0  3  0  0  0  0  0  0  0  0  0  0
  -12.0356    0.1705   -8.6984 N   0  3  0  0  0  0  0  0  0  0  0  0
  -11.8124   -4.4498   -7.0861 O   0  0  0  0  0  0  0  0  0  0  0  0
  -10.5608   -2.0381   -7.6723 O   0  0  0  0  0  0  0  0  0  0  0  0
  -14.6653   -4.3726   -6.4755 O   0  0  0  0  0  0  0  0  0  0  0  0
   -9.7036   -2.1398   -8.7758 C   0  0  2  0  0  0  0  0  0  0  0  0
   -8.3786   -2.7807   -8.3498 C   0  0  1  0  0  0  0  0  0  0  0  0
   -7.5234   -1.7951   -7.5529 C   0  0  0  0  0  0  0  0  0  0  0  0
   -7.3712   -0.5127   -8.3549 C   0  0  1  0  0  0  0  0  0  0  0  0
   -8.7471    0.0609   -8.6455 C   0  0  1  0  0  0  0  0  0  0  0  0
   -8.6610    1.3503   -9.4419 C   0  0  0  0  0  0  0  0  0  0  0  0
   -8.6564   -3.9876   -7.5073 N   0  3  0  0  0  0  0  0  0  0  0  0
   -9.0591    2.4838   -8.5367 N   0  3  0  0  0  0  0  0  0  0  0  0
   -6.5940    0.4322   -7.6329 O   0  0  0  0  0  0  0  0  0  0  0  0
   -9.5029   -0.8860   -9.4195 O   0  0  0  0  0  0  0  0  0  0  0  0
  1  2  1  0  0  0  0
  1 22  1  1  0  0  0
  1 10  1  0  0  0  0
  2  3  1  0  0  0  0
  2  7  1  1  0  0  0
  3  4  1  0  0  0  0
  3  8  1  1  0  0  0
  4  5  1  0  0  0  0
  4  9  1  1  0  0  0
  5  6  1  6  0  0  0
  5 10  1  0  0  0  0
  6 11  1  0  0  0  0
 12 13  1  0  0  0  0
 12 17  1  0  0  0  0
 12 18  1  6  0  0  0
 13 14  1  0  0  0  0
 14 15  1  0  0  0  0
 14 19  1  6  0  0  0
 15 16  1  0  0  0  0
 15 21  1  1  0  0  0
 16 17  1  0  0  0  0
 16 20  1  6  0  0  0
 17 22  1  1  0  0  0
 23 21  1  1  0  0  0
 23 24  1  0  0  0  0
 23 32  1  0  0  0  0
 24 25  1  0  0  0  0
 24 29  1  1  0  0  0
 25 26  1  0  0  0  0
 26 27  1  0  0  0  0
 26 31  1  1  0  0  0
 27 28  1  6  0  0  0
 27 32  1  0  0  0  0
 28 30  1  0  0  0  0
M  CHG  5   8   1  18   1  19   1  29   1  30   1
M  END
>  <CHROM.1>
170.29174154,57.11267091,-44.95243359,63.57218485,60.05168137,66.72474119
54.13920469,1.63671220,-109.08978593,-64.30158147,92.12759717,-145.13342800
13.54843479,85.17465836,-109.49458202,-29.24909762,-12.22425329,-3.48046347
-7.55242480,2.30584874,-0.08357797,2.93470271

>  <Name>
2tob cryst

>  <RI>
0

>  <Rbt.Current_Directory>
/home/itssahil/PROJECTS/Mol_Feturizer/New_Systems/rnas/2tob

>  <Rbt.Executable>
rbdock ($Id: //depot/dev/client3/rdock/2013.1/src/exe/rbdock.cxx#4 $)

>  <Rbt.Library>
libRbt.so (2013.1, Build901 2013/11/27)

>  <Rbt.Parameter_File>
/export/apps/rDock/src/rDock_2013.1_src/data/scripts/dock_solv.prm

>  <Rbt.Receptor>
prm/pocket_docking_5.prm

>  <SCORE>
-40.1473

>  <SCORE.INTER>
-29.7661

>  <SCORE.INTER.CONST>
1

>  <SCORE.INTER.POLAR>
-5.61104

>  <SCORE.INTER.ROT>
6

>  <SCORE.INTER.SOLV>
28.4664

>  <SCORE.INTER.VDW>
-18.2294

>  <SCORE.INTER.norm>
-0.930192

>  <SCORE.INTRA>
-10.3811

>  <SCORE.INTRA.DIHEDRAL>
14.5021

>  <SCORE.INTRA.DIHEDRAL.0>
18.4221

>  <SCORE.INTRA.POLAR>
0.146478

>  <SCORE.INTRA.POLAR.0>
-1.57101

>  <SCORE.INTRA.REPUL>
-0.644641

>  <SCORE.INTRA.REPUL.0>
0.730195

>  <SCORE.INTRA.SOLV>
-1.90191

>  <SCORE.INTRA.SOLV.lig_0>
-127.221

>  <SCORE.INTRA.VDW>
-13.9561

>  <SCORE.INTRA.VDW.0>
10.8385

>  <SCORE.INTRA.norm>
-0.32441

>  <SCORE.RESTR>
0

>  <SCORE.RESTR.CAVITY>
0

>  <SCORE.RESTR.norm>
0

>  <SCORE.SYSTEM>
0

>  <SCORE.SYSTEM.CONST>
0

>  <SCORE.SYSTEM.DIHEDRAL>
0

>  <SCORE.SYSTEM.SOLV>
0

>  <SCORE.SYSTEM.norm>
0

>  <SCORE.heavy>
32

>  <SCORE.norm>
-1.2546

>  <RMSD>
8.253

$$$$
2tob cryst
 OpenBabel11021811463D
libRbt.so/2013.1/901 2013/11/27
 32 34  0  0  0  0  0  0  0  0999 V2000
  -11.7004   -1.5868   -8.8777 C   0  0  2  0  0  0  0  0  0  0  0  0
  -13.1350   -1.0776   -8.9747 C   0  0  1  0  0  0  0  0  0  0  0  0
  -14.0455   -2.0040   -8.1682 C   0  0  2  0  0  0  0  0  0  0  0  0
  -13.8915   -3.4592   -8.6301 C   0  0  1  0  0  0  0  0  0  0  0  0
  -12.4112   -3.8559   -8.6271 C   0  0  1  0  0  0  0  0  0  0  0  0
  -12.1303   -5.2328   -9.2064 C   0  0  0  0  0  0  0  0  0  0  0  0
  -13.2173    0.2488   -8.4604 O   0  0  0  0  0  0  0  0  0  0  0  0
  -15.5091   -1.6889   -8.1470 N   0  3  0  0  0  0  0  0  0  0  0  0
  -14.6208   -4.3037   -7.7485 O   0  0  0  0  0  0  0  0  0  0  0  0
  -11.6461   -2.9037   -9.3927 O   0  0  0  0  0  0  0  0  0  0  0  0
  -12.6176   -5.3302  -10.5408 O   0  0  0  0  0  0  0  0  0  0  0  0
   -9.3779   -2.8937   -6.9758 C   0  0  2  0  0  0  0  0  0  0  0  0
   -7.8477   -3.0093   -6.9548 C   0  0  0  0  0  0  0  0  0  0  0  0
   -7.2035   -2.3642   -8.1788 C   0  0  1  0  0  0  0  0  0  0  0  0
   -7.6396   -0.9068   -8.2403 C   0  0  2  0  0  0  0  0  0  0  0  0
   -9.1552   -0.8363   -8.4437 C   0  0  1  0  0  0  0  0  0  0  0  0
   -9.8899   -1.4708   -7.2497 C   0  0  1  0  0  0  0  0  0  0  0  0
   -9.9626   -3.3814   -5.6814 N   0  3  0  0  0  0  0  0  0  0  0  0
   -5.7100   -2.4870   -8.1286 N   0  3  0  0  0  0  0  0  0  0  0  0
   -9.5472    0.5218   -8.5982 O   0  0  0  0  0  0  0  0  0  0  0  0
   -6.9669   -0.2241   -9.3140 O   0  0  0  0  0  0  0  0  0  0  0  0
  -11.3021   -1.5532   -7.5338 O   0  0  0  0  0  0  0  0  0  0  0  0
   -5.8602    0.5241   -8.8920 C   0  0  2  0  0  0  0  0  0  0  0  0
   -6.1002    2.0120   -9.1682 C   0  0  1  0  0  0  0  0  0  0  0  0
   -5.9642    2.3224  -10.6591 C   0  0  0  0  0  0  0  0  0  0  0  0
   -4.6240    1.8008  -11.1518 C   0  0  1  0  0  0  0  0  0  0  0  0
   -4.5427    0.3069  -10.8901 C   0  0  1  0  0  0  0  0  0  0  0  0
   -3.2247   -0.2756  -11.3672 C   0  0  0  0  0  0  0  0  0  0  0  0
   -7.4749    2.3892   -8.7082 N   0  3  0  0  0  0  0  0  0  0  0  0
   -2.2084    0.8331  -11.3937 N   0  3  0  0  0  0  0  0  0  0  0  0
   -4.4738    2.0590  -12.5406 O   0  0  0  0  0  0  0  0  0  0  0  0
   -4.6456    0.0660   -9.4765 O   0  0  0  0  0  0  0  0  0  0  0  0
  1  2  1  0  0  0  0
  1 22  1  1  0  0  0
  1 10  1  0  0  0  0
  2  3  1  0  0  0  0
  2  7  1  1  0  0  0
  3  4  1  0  0  0  0
  3  8  1  6  0  0  0
  4  5  1  0  0  0  0
  4  9  1  1  0  0  0
  5  6  1  6  0  0  0
  5 10  1  0  0  0  0
  6 11  1  0  0  0  0
 12 13  1  0  0  0  0
 12 17  1  0  0  0  0
 12 18  1  1  0  0  0
 13 14  1  0  0  0  0
 14 15  1  0  0  0  0
 14 19  1  1  0  0  0
 15 16  1  0  0  0  0
 15 21  1  6  0  0  0
 16 17  1  0  0  0  0
 16 20  1  1  0  0  0
 17 22  1  6  0  0  0
 23 21  1  6  0  0  0
 23 24  1  0  0  0  0
 23 32  1  0  0  0  0
 24 25  1  0  0  0  0
 24 29  1  6  0  0  0
 25 26  1  0  0  0  0
 26 27  1  0  0  0  0
 26 31  1  6  0  0  0
 27 28  1  1  0  0  0
 27 32  1  0  0  0  0
 28 30  1  0  0  0  0
M  CHG  5   8   1  18   1  19   1  29   1  30   1
M  END
>  <CHROM.1>
-155.88827583,76.56518823,-161.61411766,-57.44274170,57.18630107,-47.67424851
-61.00025647,-71.83651144,-98.92749032,-175.55520005,-96.76385594,-116.61186945
-161.83697727,-85.72810527,24.15669973,173.03557667,-9.04376837,-1.17425261
-8.95418344,2.67498058,-0.09802845,2.83280114

>  <Name>
2tob cryst

>  <RI>
0

>  <Rbt.Current_Directory>
/home/itssahil/PROJECTS/Mol_Feturizer/New_Systems/rnas/2tob

>  <Rbt.Executable>
rbdock ($Id: //depot/dev/client3/rdock/2013.1/src/exe/rbdock.cxx#4 $)

>  <Rbt.Library>
libRbt.so (2013.1, Build901 2013/11/27)

>  <Rbt.Parameter_File>
/export/apps/rDock/src/rDock_2013.1_src/data/scripts/dock_solv.prm

>  <Rbt.Receptor>
prm/blind_docking_100.prm

>  <SCORE>
-48.3279

>  <SCORE.INTER>
-42.3838

>  <SCORE.INTER.CONST>
1

>  <SCORE.INTER.POLAR>
-4.98267

>  <SCORE.INTER.ROT>
6

>  <SCORE.INTER.SOLV>
38.2595

>  <SCORE.INTER.VDW>
-32.0001

>  <SCORE.INTER.norm>
-1.32449

>  <SCORE.INTRA>
-10.2734

>  <SCORE.INTRA.DIHEDRAL>
11.6944

>  <SCORE.INTRA.DIHEDRAL.0>
18.4221

>  <SCORE.INTRA.POLAR>
0.127436

>  <SCORE.INTRA.POLAR.0>
-1.57101

>  <SCORE.INTRA.REPUL>
-0.730195

>  <SCORE.INTRA.REPUL.0>
0.730195

>  <SCORE.INTRA.SOLV>
-2.50758

>  <SCORE.INTRA.SOLV.lig_0>
-127.221

>  <SCORE.INTRA.VDW>
-11.6491

>  <SCORE.INTRA.VDW.0>
10.8385

>  <SCORE.INTRA.norm>
-0.321044

>  <SCORE.RESTR>
4.32933

>  <SCORE.RESTR.CAVITY>
4.32933

>  <SCORE.RESTR.norm>
0.135292

>  <SCORE.SYSTEM>
0

>  <SCORE.SYSTEM.CONST>
0

>  <SCORE.SYSTEM.DIHEDRAL>
0

>  <SCORE.SYSTEM.SOLV>
0

>  <SCORE.SYSTEM.norm>
0

>  <SCORE.heavy>
32

>  <SCORE.norm>
-1.51025

>  <RMSD>
8.266

$$$$
2tob cryst
 OpenBabel11021811463D
libRbt.so/2013.1/901 2013/11/27
 32 34  0  0  0  0  0  0  0  0999 V2000
  -12.2119   -2.3007   -6.6625 C   0  0  2  0  0  0  0  0  0  0  0  0
  -13.5055   -3.1061   -6.7327 C   0  0  1  0  0  0  0  0  0  0  0  0
  -14.0629   -3.0260   -8.1542 C   0  0  2  0  0  0  0  0  0  0  0  0
  -14.2397   -1.5655   -8.5903 C   0  0  1  0  0  0  0  0  0  0  0  0
  -12.9353   -0.7915   -8.3702 C   0  0  1  0  0  0  0  0  0  0  0  0
  -13.0407    0.7017   -8.6335 C   0  0  0  0  0  0  0  0  0  0  0  0
  -13.2525   -4.4657   -6.3886 O   0  0  0  0  0  0  0  0  0  0  0  0
  -15.3486   -3.7403   -8.4344 N   0  3  0  0  0  0  0  0  0  0  0  0
  -14.5950   -1.5338   -9.9669 O   0  0  0  0  0  0  0  0  0  0  0  0
  -12.4898   -0.9572   -7.0092 O   0  0  0  0  0  0  0  0  0  0  0  0
  -11.7609    1.2580   -8.9169 O   0  0  0  0  0  0  0  0  0  0  0  0
   -9.1330   -3.9524   -7.4086 C   0  0  2  0  0  0  0  0  0  0  0  0
   -7.6069   -3.8061   -7.4769 C   0  0  0  0  0  0  0  0  0  0  0  0
   -7.1712   -2.7909   -8.5299 C   0  0  1  0  0  0  0  0  0  0  0  0
   -7.8335   -1.4566   -8.2152 C   0  0  2  0  0  0  0  0  0  0  0  0
   -9.3527   -1.6007   -8.3352 C   0  0  1  0  0  0  0  0  0  0  0  0
   -9.8816   -2.6142   -7.3051 C   0  0  1  0  0  0  0  0  0  0  0  0
   -9.5293   -4.8234   -6.2512 N   0  3  0  0  0  0  0  0  0  0  0  0
   -5.6776   -2.6646   -8.5702 N   0  3  0  0  0  0  0  0  0  0  0  0
   -9.9635   -0.3321   -8.1366 O   0  0  0  0  0  0  0  0  0  0  0  0
   -7.3636   -0.4359   -9.1145 O   0  0  0  0  0  0  0  0  0  0  0  0
  -11.2816   -2.8680   -7.5448 O   0  0  0  0  0  0  0  0  0  0  0  0
   -6.2879    0.3033   -8.6054 C   0  0  2  0  0  0  0  0  0  0  0  0
   -6.5381    1.8004   -8.8148 C   0  0  1  0  0  0  0  0  0  0  0  0
   -6.3415    2.1901  -10.2801 C   0  0  0  0  0  0  0  0  0  0  0  0
   -4.9733    1.7122  -10.7389 C   0  0  1  0  0  0  0  0  0  0  0  0
   -4.8809    0.2079  -10.5513 C   0  0  1  0  0  0  0  0  0  0  0  0
   -3.5346   -0.3319  -10.9987 C   0  0  0  0  0  0  0  0  0  0  0  0
   -7.9371    2.1354   -8.3976 N   0  3  0  0  0  0  0  0  0  0  0  0
   -2.6278    0.8392  -11.2618 N   0  3  0  0  0  0  0  0  0  0  0  0
   -4.7662    2.0447  -12.1044 O   0  0  0  0  0  0  0  0  0  0  0  0
   -5.0420   -0.1080   -9.1581 O   0  0  0  0  0  0  0  0  0  0  0  0
  1  2  1  0  0  0  0
  1 22  1  6  0  0  0
  1 10  1  0  0  0  0
  2  3  1  0  0  0  0
  2  7  1  6  0  0  0
  3  4  1  0  0  0  0
  3  8  1  1  0  0  0
  4  5  1  0  0  0  0
  4  9  1  6  0  0  0
  5  6  1  1  0  0  0
  5 10  1  0  0  0  0
  6 11  1  0  0  0  0
 12 13  1  0  0  0  0
 12 17  1  0  0  0  0
 12 18  1  1  0  0  0
 13 14  1  0  0  0  0
 14 15  1  0  0  0  0
 14 19  1  1  0  0  0
 15 16  1  0  0  0  0
 15 21  1  6  0  0  0
 16 17  1  0  0  0  0
 16 20  1  1  0  0  0
 17 22  1  6  0  0  0
 23 21  1  6  0  0  0
 23 24  1  0  0  0  0
 23 32  1  0  0  0  0
 24 25  1  0  0  0  0
 24 29  1  6  0  0  0
 25 26  1  0  0  0  0
 26 27  1  0  0  0  0
 26 31  1  6  0  0  0
 27 28  1  1  0  0  0
 27 32  1  0  0  0  0
 28 30  1  0  0  0  0
M  CHG  5   8   1  18   1  19   1  29   1  30   1
M  END
>  <CHROM.1>
-157.50299137,179.97931281,-40.59430731,49.99340978,-157.55604210,87.67830080
-150.77220738,-133.75867845,-94.27790446,-70.80724933,133.02536836,-133.11062144
85.41350430,-85.23272057,9.89169888,61.44752283,-9.23734039,-1.12320063,-8.62982928
-2.69933333,0.09610818,-0.45591852

>  <Name>
2tob cryst

>  <RI>
0

>  <Rbt.Current_Directory>
/home/itssahil/PROJECTS/Mol_Feturizer/New_Systems/rnas/2tob

>  <Rbt.Executable>
rbdock ($Id: //depot/dev/client3/rdock/2013.1/src/exe/rbdock.cxx#4 $)

>  <Rbt.Library>
libRbt.so (2013.1, Build901 2013/11/27)

>  <Rbt.Parameter_File>
/export/apps/rDock/src/rDock_2013.1_src/data/scripts/dock_solv.prm

>  <Rbt.Receptor>
prm/blind_docking_100.prm

>  <SCORE>
-26.5464

>  <SCORE.INTER>
-27.492

>  <SCORE.INTER.CONST>
1

>  <SCORE.INTER.POLAR>
-5.47063

>  <SCORE.INTER.ROT>
6

>  <SCORE.INTER.SOLV>
36.9096

>  <SCORE.INTER.VDW>
-19.9957

>  <SCORE.INTER.norm>
-0.859123

>  <SCORE.INTRA>
-2.99112

>  <SCORE.INTRA.DIHEDRAL>
21.549

>  <SCORE.INTRA.DIHEDRAL.0>
18.4221

>  <SCORE.INTRA.POLAR>
-0.474678

>  <SCORE.INTRA.POLAR.0>
-1.57101

>  <SCORE.INTRA.REPUL>
-0.730195

>  <SCORE.INTRA.REPUL.0>
0.730195

>  <SCORE.INTRA.SOLV>
0.915572

>  <SCORE.INTRA.SOLV.lig_0>
-127.221

>  <SCORE.INTRA.VDW>
-8.95853

>  <SCORE.INTRA.VDW.0>
10.8385

>  <SCORE.INTRA.norm>
-0.0934724

>  <SCORE.RESTR>
3.93666

>  <SCORE.RESTR.CAVITY>
3.93666

>  <SCORE.RESTR.norm>
0.123021

>  <SCORE.SYSTEM>
0

>  <SCORE.SYSTEM.CONST>
0

>  <SCORE.SYSTEM.DIHEDRAL>
0

>  <SCORE.SYSTEM.SOLV>
0

>  <SCORE.SYSTEM.norm>
0

>  <SCORE.heavy>
32

>  <SCORE.norm>
-0.829575

>  <RMSD>
8.287

$$$$
2tob cryst
 OpenBabel11021811463D
libRbt.so/2013.1/901 2013/11/27
 32 34  0  0  0  0  0  0  0  0999 V2000
  -13.5065   -3.4765   -8.2053 C   0  0  2  0  0  0  0  0  0  0  0  0
  -14.7455   -3.0910   -7.4032 C   0  0  1  0  0  0  0  0  0  0  0  0
  -15.3915   -4.3606   -6.8479 C   0  0  2  0  0  0  0  0  0  0  0  0
  -15.6911   -5.3588   -7.9741 C   0  0  1  0  0  0  0  0  0  0  0  0
  -14.4302   -5.5968   -8.8123 C   0  0  1  0  0  0  0  0  0  0  0  0
  -14.6504   -6.4590  -10.0444 C   0  0  0  0  0  0  0  0  0  0  0  0
  -14.3823   -2.2248   -6.3315 O   0  0  0  0  0  0  0  0  0  0  0  0
  -16.6414   -4.2037   -6.0385 N   0  3  0  0  0  0  0  0  0  0  0  0
  -16.1299   -6.5842   -7.4012 O   0  0  0  0  0  0  0  0  0  0  0  0
  -13.8935   -4.3362   -9.2606 O   0  0  0  0  0  0  0  0  0  0  0  0
  -13.7513   -6.0932  -11.0863 O   0  0  0  0  0  0  0  0  0  0  0  0
  -10.5469   -4.2621   -6.0860 C   0  0  2  0  0  0  0  0  0  0  0  0
   -9.2133   -3.6049   -5.7052 C   0  0  0  0  0  0  0  0  0  0  0  0
   -8.5868   -2.8512   -6.8751 C   0  0  1  0  0  0  0  0  0  0  0  0
   -9.5851   -1.8131   -7.3687 C   0  0  2  0  0  0  0  0  0  0  0  0
  -10.8309   -2.5201   -7.9085 C   0  0  1  0  0  0  0  0  0  0  0  0
  -11.5292   -3.3123   -6.7893 C   0  0  1  0  0  0  0  0  0  0  0  0
  -11.2149   -4.8435   -4.8731 N   0  3  0  0  0  0  0  0  0  0  0  0
   -7.2898   -2.2154   -6.4730 N   0  3  0  0  0  0  0  0  0  0  0  0
  -11.7195   -1.5552   -8.4575 O   0  0  0  0  0  0  0  0  0  0  0  0
   -8.9970   -0.9978   -8.3988 O   0  0  0  0  0  0  0  0  0  0  0  0
  -12.5953   -4.1085   -7.3474 O   0  0  0  0  0  0  0  0  0  0  0  0
   -8.1904    0.0337   -7.9006 C   0  0  2  0  0  0  0  0  0  0  0  0
   -8.5153    1.3453   -8.6231 C   0  0  1  0  0  0  0  0  0  0  0  0
   -7.9455    1.3461  -10.0418 C   0  0  0  0  0  0  0  0  0  0  0  0
   -6.4632    1.0146   -9.9789 C   0  0  1  0  0  0  0  0  0  0  0  0
   -6.2818   -0.3381   -9.3127 C   0  0  1  0  0  0  0  0  0  0  0  0
   -4.8177   -0.7289   -9.2252 C   0  0  0  0  0  0  0  0  0  0  0  0
  -10.0010    1.5248   -8.6869 N   0  3  0  0  0  0  0  0  0  0  0  0
   -4.7278   -2.2259   -9.3431 N   0  3  0  0  0  0  0  0  0  0  0  0
   -5.9065    0.9907  -11.2856 O   0  0  0  0  0  0  0  0  0  0  0  0
   -6.8043   -0.2826   -7.9745 O   0  0  0  0  0  0  0  0  0  0  0  0
  1  2  1  0  0  0  0
  1 22  1  1  0  0  0
  1 10  1  0  0  0  0
  2  3  1  0  0  0  0
  2  7  1  1  0  0  0
  3  4  1  0  0  0  0
  3  8  1  6  0  0  0
  4  5  1  0  0  0  0
  4  9  1  1  0  0  0
  5  6  1  6  0  0  0
  5 10  1  0  0  0  0
  6 11  1  0  0  0  0
 12 13  1  0  0  0  0
 12 17  1  0  0  0  0
 12 18  1  1  0  0  0
 13 14  1  0  0  0  0
 14 15  1  0  0  0  0
 14 19  1  1  0  0  0
 15 16  1  0  0  0  0
 15 21  1  6  0  0  0
 16 17  1  0  0  0  0
 16 20  1  1  0  0  0
 17 22  1  6  0  0  0
 23 21  1  6  0  0  0
 23 24  1  0  0  0  0
 23 32  1  0  0  0  0
 24 25  1  0  0  0  0
 24 29  1  6  0  0  0
 25 26  1  0  0  0  0
 26 27  1  0  0  0  0
 26 31  1  6  0  0  0
 27 28  1  1  0  0  0
 27 32  1  0  0  0  0
 28 30  1  0  0  0  0
M  CHG  5   8   1  18   1  19   1  29   1  30   1
M  END
>  <CHROM.1>
-97.37197816,69.71119850,-156.63451071,-53.90775080,149.41724010,-50.74043923
70.16409577,176.26442446,-81.28731759,133.40230666,-170.77885575,-134.09055673
-174.48274014,-175.66758976,-147.44644404,-133.30518883,-10.79433524,-2.54993533
-8.06716513,2.73115394,0.38096293,2.16564303

>  <Name>
2tob cryst

>  <RI>
0

>  <Rbt.Current_Directory>
/home/itssahil/PROJECTS/Mol_Feturizer/New_Systems/rnas/2tob

>  <Rbt.Executable>
rbdock ($Id: //depot/dev/client3/rdock/2013.1/src/exe/rbdock.cxx#4 $)

>  <Rbt.Library>
libRbt.so (2013.1, Build901 2013/11/27)

>  <Rbt.Parameter_File>
/export/apps/rDock/src/rDock_2013.1_src/data/scripts/dock_solv.prm

>  <Rbt.Receptor>
prm/pocket_docking_5.prm

>  <SCORE>
-43.9145

>  <SCORE.INTER>
-35.3119

>  <SCORE.INTER.CONST>
1

>  <SCORE.INTER.POLAR>
-6.65898

>  <SCORE.INTER.ROT>
6

>  <SCORE.INTER.SOLV>
32.5075

>  <SCORE.INTER.VDW>
-19.7805

>  <SCORE.INTER.norm>
-1.1035

>  <SCORE.INTRA>
-8.60256

>  <SCORE.INTRA.DIHEDRAL>
13.1489

>  <SCORE.INTRA.DIHEDRAL.0>
18.4221

>  <SCORE.INTRA.POLAR>
0.618498

>  <SCORE.INTRA.POLAR.0>
-1.57101

>  <SCORE.INTRA.REPUL>
-0.730195

>  <SCORE.INTRA.REPUL.0>
0.730195

>  <SCORE.INTRA.SOLV>
-5.05207

>  <SCORE.INTRA.SOLV.lig_0>
-127.221

>  <SCORE.INTRA.VDW>
-11.1029

>  <SCORE.INTRA.VDW.0>
10.8385

>  <SCORE.INTRA.norm>
-0.26883

>  <SCORE.RESTR>
0

>  <SCORE.RESTR.CAVITY>
0

>  <SCORE.RESTR.norm>
0

>  <SCORE.SYSTEM>
0

>  <SCORE.SYSTEM.CONST>
0

>  <SCORE.SYSTEM.DIHEDRAL>
0

>  <SCORE.SYSTEM.SOLV>
0

>  <SCORE.SYSTEM.norm>
0

>  <SCORE.heavy>
32

>  <SCORE.norm>
-1.37233

>  <RMSD>
8.297

$$$$
2tob cryst
 OpenBabel11021811463D
libRbt.so/2013.1/901 2013/11/27
 32 34  0  0  0  0  0  0  0  0999 V2000
  -13.7747   -6.0979   -4.9231 C   0  0  2  0  0  0  0  0  0  0  0  0
  -13.7843   -7.6217   -4.8525 C   0  0  1  0  0  0  0  0  0  0  0  0
  -13.2950   -8.1829   -6.1879 C   0  0  2  0  0  0  0  0  0  0  0  0
  -14.1286   -7.6298   -7.3514 C   0  0  1  0  0  0  0  0  0  0  0  0
  -14.1771   -6.0996   -7.2801 C   0  0  1  0  0  0  0  0  0  0  0  0
  -15.0974   -5.4536   -8.3026 C   0  0  0  0  0  0  0  0  0  0  0  0
  -12.9325   -8.0662   -3.8001 O   0  0  0  0  0  0  0  0  0  0  0  0
  -13.2447   -9.6721   -6.3357 N   0  3  0  0  0  0  0  0  0  0  0  0
  -13.5379   -8.0387   -8.5787 O   0  0  0  0  0  0  0  0  0  0  0  0
  -14.6256   -5.6830   -5.9749 O   0  0  0  0  0  0  0  0  0  0  0  0
  -14.8685   -4.0500   -8.3753 O   0  0  0  0  0  0  0  0  0  0  0  0
  -12.4527   -3.4304   -4.2391 C   0  0  2  0  0  0  0  0  0  0  0  0
  -11.9744   -1.9800   -4.3897 C   0  0  0  0  0  0  0  0  0  0  0  0
  -10.5582   -1.8949   -4.9522 C   0  0  1  0  0  0  0  0  0  0  0  0
  -10.5274   -2.6210   -6.2901 C   0  0  2  0  0  0  0  0  0  0  0  0
  -10.8331   -4.1049   -6.0719 C   0  0  1  0  0  0  0  0  0  0  0  0
  -12.2502   -4.2855   -5.5000 C   0  0  1  0  0  0  0  0  0  0  0  0
  -13.9027   -3.4712   -3.8503 N   0  3  0  0  0  0  0  0  0  0  0  0
  -10.1201   -0.4679   -5.0936 N   0  3  0  0  0  0  0  0  0  0  0  0
  -10.7083   -4.7982   -7.3071 O   0  0  0  0  0  0  0  0  0  0  0  0
   -9.2400   -2.4707   -6.9158 O   0  0  0  0  0  0  0  0  0  0  0  0
  -12.4581   -5.6669   -5.1387 O   0  0  0  0  0  0  0  0  0  0  0  0
   -9.3113   -2.3081   -8.3054 C   0  0  2  0  0  0  0  0  0  0  0  0
   -7.9292   -2.5310   -8.9284 C   0  0  1  0  0  0  0  0  0  0  0  0
   -7.0075   -1.3413   -8.6592 C   0  0  0  0  0  0  0  0  0  0  0  0
   -7.7016   -0.0667   -9.1114 C   0  0  1  0  0  0  0  0  0  0  0  0
   -9.0179    0.0762   -8.3672 C   0  0  1  0  0  0  0  0  0  0  0  0
   -9.7579    1.3379   -8.7728 C   0  0  0  0  0  0  0  0  0  0  0  0
   -7.3168   -3.7709   -8.3528 N   0  3  0  0  0  0  0  0  0  0  0  0
  -11.2288    1.0244   -8.8057 N   0  3  0  0  0  0  0  0  0  0  0  0
   -6.8763    1.0616   -8.8587 O   0  0  0  0  0  0  0  0  0  0  0  0
   -9.8610   -1.0474   -8.6730 O   0  0  0  0  0  0  0  0  0  0  0  0
  1  2  1  0  0  0  0
  1 22  1  6  0  0  0
  1 10  1  0  0  0  0
  2  3  1  0  0  0  0
  2  7  1  1  0  0  0
  3  4  1  0  0  0  0
  3  8  1  1  0  0  0
  4  5  1  0  0  0  0
  4  9  1  6  0  0  0
  5  6  1  6  0  0  0
  5 10  1  0  0  0  0
  6 11  1  0  0  0  0
 12 13  1  0  0  0  0
 12 17  1  0  0  0  0
 12 18  1  6  0  0  0
 13 14  1  0  0  0  0
 14 15  1  0  0  0  0
 14 19  1  6  0  0  0
 15 16  1  0  0  0  0
 15 21  1  1  0  0  0
 16 17  1  0  0  0  0
 16 20  1  6  0  0  0
 17 22  1  1  0  0  0
 23 21  1  1  0  0  0
 23 24  1  0  0  0  0
 23 32  1  0  0  0  0
 24 25  1  0  0  0  0
 24 29  1  1  0  0  0
 25 26  1  0  0  0  0
 26 27  1  0  0  0  0
 26 31  1  1  0  0  0
 27 28  1  6  0  0  0
 27 32  1  0  0  0  0
 28 30  1  0  0  0  0
M  CHG  5   8   1  18   1  19   1  29   1  30   1
M  END
>  <CHROM.1>
168.02977465,65.27271177,-171.88315478,-61.16655428,-167.09914368,166.36894555
-3.31988641,47.11325867,-141.86724135,179.98157552,74.60583304,-164.90989888
26.67156295,-57.90039203,142.68509874,97.49580232,-11.40015220,-3.74042861
-6.83731282,2.51161981,-0.75857835,-2.70517705

>  <Name>
2tob cryst

>  <RI>
0

>  <Rbt.Current_Directory>
/home/itssahil/PROJECTS/Mol_Feturizer/New_Systems/rnas/2tob

>  <Rbt.Executable>
rbdock ($Id: //depot/dev/client3/rdock/2013.1/src/exe/rbdock.cxx#4 $)

>  <Rbt.Library>
libRbt.so (2013.1, Build901 2013/11/27)

>  <Rbt.Parameter_File>
/export/apps/rDock/src/rDock_2013.1_src/data/scripts/dock_solv.prm

>  <Rbt.Receptor>
prm/pocket_docking_6.prm

>  <SCORE>
-52.6187

>  <SCORE.INTER>
-37.0203

>  <SCORE.INTER.CONST>
1

>  <SCORE.INTER.POLAR>
-6.38709

>  <SCORE.INTER.ROT>
6

>  <SCORE.INTER.SOLV>
27.662

>  <SCORE.INTER.VDW>
-20.2106

>  <SCORE.INTER.norm>
-1.15688

>  <SCORE.INTRA>
-15.5984

>  <SCORE.INTRA.DIHEDRAL>
3.48081

>  <SCORE.INTRA.DIHEDRAL.0>
18.4221

>  <SCORE.INTRA.POLAR>
0.478892

>  <SCORE.INTRA.POLAR.0>
-1.57101

>  <SCORE.INTRA.REPUL>
-0.730195

>  <SCORE.INTRA.REPUL.0>
0.730195

>  <SCORE.INTRA.SOLV>
-5.05498

>  <SCORE.INTRA.SOLV.lig_0>
-127.221

>  <SCORE.INTRA.VDW>
-12.7886

>  <SCORE.INTRA.VDW.0>
10.8385

>  <SCORE.INTRA.norm>
-0.48745

>  <SCORE.RESTR>
0

>  <SCORE.RESTR.CAVITY>
0

>  <SCORE.RESTR.norm>
0

>  <SCORE.SYSTEM>
0

>  <SCORE.SYSTEM.CONST>
0

>  <SCORE.SYSTEM.DIHEDRAL>
0

>  <SCORE.SYSTEM.SOLV>
0

>  <SCORE.SYSTEM.norm>
0

>  <SCORE.heavy>
32

>  <SCORE.norm>
-1.64433

>  <RMSD>
8.299

$$$$
2tob cryst
 OpenBabel11021811463D
libRbt.so/2013.1/901 2013/11/27
 32 34  0  0  0  0  0  0  0  0999 V2000
  -13.0579   -3.3220   -8.5839 C   0  0  2  0  0  0  0  0  0  0  0  0
  -14.3928   -2.5842   -8.5576 C   0  0  1  0  0  0  0  0  0  0  0  0
  -15.4040   -3.4167   -7.7689 C   0  0  2  0  0  0  0  0  0  0  0  0
  -15.5122   -4.8347   -8.3452 C   0  0  1  0  0  0  0  0  0  0  0  0
  -14.1183   -5.4615   -8.4595 C   0  0  1  0  0  0  0  0  0  0  0  0
  -14.0942   -6.8130   -9.1544 C   0  0  0  0  0  0  0  0  0  0  0  0
  -14.2325   -1.3086   -7.9428 O   0  0  0  0  0  0  0  0  0  0  0  0
  -16.7935   -2.8749   -7.6373 N   0  3  0  0  0  0  0  0  0  0  0  0
  -16.3279   -5.6217   -7.4864 O   0  0  0  0  0  0  0  0  0  0  0  0
  -13.2443   -4.5838   -9.1970 O   0  0  0  0  0  0  0  0  0  0  0  0
  -14.2932   -6.6655  -10.5567 O   0  0  0  0  0  0  0  0  0  0  0  0
  -10.4821   -4.6082   -7.4316 C   0  0  2  0  0  0  0  0  0  0  0  0
   -8.9543   -4.4908   -7.5174 C   0  0  0  0  0  0  0  0  0  0  0  0
   -8.5137   -3.2884   -8.3478 C   0  0  1  0  0  0  0  0  0  0  0  0
   -9.1239   -2.0335   -7.7389 C   0  0  2  0  0  0  0  0  0  0  0  0
  -10.6496   -2.1092   -7.8369 C   0  0  1  0  0  0  0  0  0  0  0  0
  -11.1838   -3.3026   -7.0255 C   0  0  1  0  0  0  0  0  0  0  0  0
  -10.8758   -5.6926   -6.4702 N   0  3  0  0  0  0  0  0  0  0  0  0
   -7.0185   -3.1957   -8.4093 N   0  3  0  0  0  0  0  0  0  0  0  0
  -11.2134   -0.8952   -7.3569 O   0  0  0  0  0  0  0  0  0  0  0  0
   -8.6449   -0.8589   -8.4190 O   0  0  0  0  0  0  0  0  0  0  0  0
  -12.5971   -3.4634   -7.2674 O   0  0  0  0  0  0  0  0  0  0  0  0
   -7.6697   -0.1566   -7.6989 C   0  0  2  0  0  0  0  0  0  0  0  0
   -7.9618    1.3466   -7.7544 C   0  0  1  0  0  0  0  0  0  0  0  0
   -7.6154    1.9226   -9.1276 C   0  0  0  0  0  0  0  0  0  0  0  0
   -6.1831    1.5483   -9.4732 C   0  0  1  0  0  0  0  0  0  0  0  0
   -6.0449    0.0359   -9.4590 C   0  0  1  0  0  0  0  0  0  0  0  0
   -4.6329   -0.4019   -9.8034 C   0  0  0  0  0  0  0  0  0  0  0  0
   -9.4134    1.5834   -7.4708 N   0  3  0  0  0  0  0  0  0  0  0  0
   -4.3554   -0.0009  -11.2265 N   0  3  0  0  0  0  0  0  0  0  0  0
   -5.8352    2.0555  -10.7537 O   0  0  0  0  0  0  0  0  0  0  0  0
   -6.3511   -0.4569   -8.1436 O   0  0  0  0  0  0  0  0  0  0  0  0
  1  2  1  0  0  0  0
  1 22  1  1  0  0  0
  1 10  1  0  0  0  0
  2  3  1  0  0  0  0
  2  7  1  1  0  0  0
  3  4  1  0  0  0  0
  3  8  1  6  0  0  0
  4  5  1  0  0  0  0
  4  9  1  1  0  0  0
  5  6  1  6  0  0  0
  5 10  1  0  0  0  0
  6 11  1  0  0  0  0
 12 13  1  0  0  0  0
 12 17  1  0  0  0  0
 12 18  1  1  0  0  0
 13 14  1  0  0  0  0
 14 15  1  0  0  0  0
 14 19  1  1  0  0  0
 15 16  1  0  0  0  0
 15 21  1  6  0  0  0
 16 17  1  0  0  0  0
 16 20  1  1  0  0  0
 17 22  1  6  0  0  0
 23 21  1  6  0  0  0
 23 24  1  0  0  0  0
 23 32  1  0  0  0  0
 24 25  1  0  0  0  0
 24 29  1  6  0  0  0
 25 26  1  0  0  0  0
 26 27  1  0  0  0  0
 26 31  1  6  0  0  0
 27 28  1  1  0  0  0
 27 32  1  0  0  0  0
 28 30  1  0  0  0  0
M  CHG  5   8   1  18   1  19   1  29   1  30   1
M  END
>  <CHROM.1>
-140.98800893,-73.24014125,65.22473321,179.03257617,73.43434260,-57.95849446
46.69853526,-39.49546241,-103.48994415,175.83503457,-79.25268814,-135.83187713
-29.89488659,48.07850987,-65.11096073,138.35939683,-10.55163013,-2.30757052
-8.40087454,2.60334346,-0.15524997,-3.09052410

>  <Name>
2tob cryst

>  <RI>
0

>  <Rbt.Current_Directory>
/home/itssahil/PROJECTS/Mol_Feturizer/New_Systems/rnas/2tob

>  <Rbt.Executable>
rbdock ($Id: //depot/dev/client3/rdock/2013.1/src/exe/rbdock.cxx#4 $)

>  <Rbt.Library>
libRbt.so (2013.1, Build901 2013/11/27)

>  <Rbt.Parameter_File>
/export/apps/rDock/src/rDock_2013.1_src/data/scripts/dock_solv.prm

>  <Rbt.Receptor>
prm/pocket_docking_5.prm

>  <SCORE>
-62.4846

>  <SCORE.INTER>
-43.5388

>  <SCORE.INTER.CONST>
1

>  <SCORE.INTER.POLAR>
-4.63016

>  <SCORE.INTER.ROT>
6

>  <SCORE.INTER.SOLV>
31.5531

>  <SCORE.INTER.VDW>
-31.7097

>  <SCORE.INTER.norm>
-1.36059

>  <SCORE.INTRA>
-18.9458

>  <SCORE.INTRA.DIHEDRAL>
8.94628

>  <SCORE.INTRA.DIHEDRAL.0>
18.4221

>  <SCORE.INTRA.POLAR>
-1.65784

>  <SCORE.INTRA.POLAR.0>
-1.57101

>  <SCORE.INTRA.REPUL>
-0.730195

>  <SCORE.INTRA.REPUL.0>
0.730195

>  <SCORE.INTRA.SOLV>
-2.37335

>  <SCORE.INTRA.SOLV.lig_0>
-127.221

>  <SCORE.INTRA.VDW>
-12.9447

>  <SCORE.INTRA.VDW.0>
10.8385

>  <SCORE.INTRA.norm>
-0.592057

>  <SCORE.RESTR>
0

>  <SCORE.RESTR.CAVITY>
0

>  <SCORE.RESTR.norm>
0

>  <SCORE.SYSTEM>
0

>  <SCORE.SYSTEM.CONST>
0

>  <SCORE.SYSTEM.DIHEDRAL>
0

>  <SCORE.SYSTEM.SOLV>
0

>  <SCORE.SYSTEM.norm>
0

>  <SCORE.heavy>
32

>  <SCORE.norm>
-1.95264

>  <RMSD>
8.308

$$$$
2tob cryst
 OpenBabel11021811463D
libRbt.so/2013.1/901 2013/11/27
 32 34  0  0  0  0  0  0  0  0999 V2000
  -11.2934   -1.1771   -9.0812 C   0  0  2  0  0  0  0  0  0  0  0  0
  -12.6976   -0.5980   -9.2224 C   0  0  1  0  0  0  0  0  0  0  0  0
  -13.6357   -1.3331   -8.2647 C   0  0  2  0  0  0  0  0  0  0  0  0
  -13.5833   -2.8479   -8.5039 C   0  0  1  0  0  0  0  0  0  0  0  0
  -12.1298   -3.3331   -8.4736 C   0  0  1  0  0  0  0  0  0  0  0  0
  -11.9499   -4.7963   -8.8434 C   0  0  0  0  0  0  0  0  0  0  0  0
  -12.6845    0.7931   -8.9135 O   0  0  0  0  0  0  0  0  0  0  0  0
  -15.0765   -0.9259   -8.2590 N   0  3  0  0  0  0  0  0  0  0  0  0
  -14.3334   -3.5025   -7.4884 O   0  0  0  0  0  0  0  0  0  0  0  0
  -11.3340   -2.5571   -9.3916 O   0  0  0  0  0  0  0  0  0  0  0  0
  -10.7311   -5.3070   -8.3129 O   0  0  0  0  0  0  0  0  0  0  0  0
   -9.0051   -2.4155   -7.2147 C   0  0  2  0  0  0  0  0  0  0  0  0
   -7.4860   -2.6329   -7.2307 C   0  0  0  0  0  0  0  0  0  0  0  0
   -6.8363   -2.0732   -8.4933 C   0  0  1  0  0  0  0  0  0  0  0  0
   -7.1765   -0.5926   -8.5937 C   0  0  2  0  0  0  0  0  0  0  0  0
   -8.6893   -0.4271   -8.7587 C   0  0  1  0  0  0  0  0  0  0  0  0
   -9.4294   -0.9711   -7.5241 C   0  0  1  0  0  0  0  0  0  0  0  0
   -9.5829   -2.8198   -5.8888 N   0  3  0  0  0  0  0  0  0  0  0  0
   -5.3534   -2.2944   -8.4789 N   0  3  0  0  0  0  0  0  0  0  0  0
   -8.9948    0.9484   -8.9497 O   0  0  0  0  0  0  0  0  0  0  0  0
   -6.4915    0.0076   -9.7082 O   0  0  0  0  0  0  0  0  0  0  0  0
  -10.8516   -0.9678   -7.7671 O   0  0  0  0  0  0  0  0  0  0  0  0
   -5.3962    0.7953   -9.3306 C   0  0  2  0  0  0  0  0  0  0  0  0
   -5.6073    2.2399   -9.7958 C   0  0  1  0  0  0  0  0  0  0  0  0
   -5.4023    2.3657  -11.3057 C   0  0  0  0  0  0  0  0  0  0  0  0
   -4.0476    1.7804  -11.6705 C   0  0  1  0  0  0  0  0  0  0  0  0
   -3.9945    0.3291  -11.2261 C   0  0  1  0  0  0  0  0  0  0  0  0
   -2.6633   -0.3147  -11.5691 C   0  0  0  0  0  0  0  0  0  0  0  0
   -6.9966    2.6781   -9.4474 N   0  3  0  0  0  0  0  0  0  0  0  0
   -1.5825    0.7099  -11.3567 N   0  3  0  0  0  0  0  0  0  0  0  0
   -3.8334    1.8669  -13.0722 O   0  0  0  0  0  0  0  0  0  0  0  0
   -4.1622    0.2626   -9.7998 O   0  0  0  0  0  0  0  0  0  0  0  0
  1  2  1  0  0  0  0
  1 22  1  1  0  0  0
  1 10  1  0  0  0  0
  2  3  1  0  0  0  0
  2  7  1  1  0  0  0
  3  4  1  0  0  0  0
  3  8  1  6  0  0  0
  4  5  1  0  0  0  0
  4  9  1  1  0  0  0
  5  6  1  6  0  0  0
  5 10  1  0  0  0  0
  6 11  1  0  0  0  0
 12 13  1  0  0  0  0
 12 17  1  0  0  0  0
 12 18  1  1  0  0  0
 13 14  1  0  0  0  0
 14 15  1  0  0  0  0
 14 19  1  1  0  0  0
 15 16  1  0  0  0  0
 15 21  1  6  0  0  0
 16 17  1  0  0  0  0
 16 20  1  1  0  0  0
 17 22  1  6  0  0  0
 23 21  1  6  0  0  0
 23 24  1  0  0  0  0
 23 32  1  0  0  0  0
 24 25  1  0  0  0  0
 24 29  1  6  0  0  0
 25 26  1  0  0  0  0
 26 27  1  0  0  0  0
 26 31  1  6  0  0  0
 27 28  1  1  0  0  0
 27 32  1  0  0  0  0
 28 30  1  0  0  0  0
M  CHG  5   8   1  18   1  19   1  29   1  30   1
M  END
>  <CHROM.1>
-157.59517505,-63.17353209,-144.57159508,62.41015912,-157.37307002,-172.39127504
-179.17529459,80.14712033,-104.48185463,-69.84611579,-89.39074907,-119.68930102
-46.54120680,67.25430468,37.73378321,165.99346648,-8.54405334,-0.84154372
-9.11521492,2.69769833,-0.13932603,2.74528615

>  <Name>
2tob cryst

>  <RI>
0

>  <Rbt.Current_Directory>
/home/itssahil/PROJECTS/Mol_Feturizer/New_Systems/rnas/2tob

>  <Rbt.Executable>
rbdock ($Id: //depot/dev/client3/rdock/2013.1/src/exe/rbdock.cxx#4 $)

>  <Rbt.Library>
libRbt.so (2013.1, Build901 2013/11/27)

>  <Rbt.Parameter_File>
/export/apps/rDock/src/rDock_2013.1_src/data/scripts/dock_solv.prm

>  <Rbt.Receptor>
prm/blind_docking_60.prm

>  <SCORE>
-25.9976

>  <SCORE.INTER>
-21.347

>  <SCORE.INTER.CONST>
1

>  <SCORE.INTER.POLAR>
-3.10868

>  <SCORE.INTER.ROT>
6

>  <SCORE.INTER.SOLV>
40.7528

>  <SCORE.INTER.VDW>
-25.0533

>  <SCORE.INTER.norm>
-0.667094

>  <SCORE.INTRA>
-13.2029

>  <SCORE.INTRA.DIHEDRAL>
8.97084

>  <SCORE.INTRA.DIHEDRAL.0>
18.4221

>  <SCORE.INTRA.POLAR>
0.018169

>  <SCORE.INTRA.POLAR.0>
-1.57101

>  <SCORE.INTRA.REPUL>
-0.730195

>  <SCORE.INTRA.REPUL.0>
0.730195

>  <SCORE.INTRA.SOLV>
-0.912277

>  <SCORE.INTRA.SOLV.lig_0>
-127.221

>  <SCORE.INTRA.VDW>
-13.643

>  <SCORE.INTRA.VDW.0>
10.8385

>  <SCORE.INTRA.norm>
-0.412591

>  <SCORE.RESTR>
8.55231

>  <SCORE.RESTR.CAVITY>
8.55231

>  <SCORE.RESTR.norm>
0.26726

>  <SCORE.SYSTEM>
0

>  <SCORE.SYSTEM.CONST>
0

>  <SCORE.SYSTEM.DIHEDRAL>
0

>  <SCORE.SYSTEM.SOLV>
0

>  <SCORE.SYSTEM.norm>
0

>  <SCORE.heavy>
32

>  <SCORE.norm>
-0.812425

>  <RMSD>
8.319

$$$$
2tob cryst
 OpenBabel11021811463D
libRbt.so/2013.1/901 2013/11/27
 32 34  0  0  0  0  0  0  0  0999 V2000
  -12.1721   -2.2186   -6.7630 C   0  0  2  0  0  0  0  0  0  0  0  0
  -13.4236   -3.0895   -6.8102 C   0  0  1  0  0  0  0  0  0  0  0  0
  -14.0314   -3.0085   -8.2108 C   0  0  2  0  0  0  0  0  0  0  0  0
  -14.2985   -1.5504   -8.6071 C   0  0  1  0  0  0  0  0  0  0  0  0
  -13.0296   -0.7135   -8.4112 C   0  0  1  0  0  0  0  0  0  0  0  0
  -13.2214    0.7774   -8.6364 C   0  0  0  0  0  0  0  0  0  0  0  0
  -13.0887   -4.4408   -6.5060 O   0  0  0  0  0  0  0  0  0  0  0  0
  -15.2868   -3.7836   -8.4660 N   0  3  0  0  0  0  0  0  0  0  0  0
  -14.7006   -1.5081   -9.9704 O   0  0  0  0  0  0  0  0  0  0  0  0
  -12.5309   -0.8845   -7.0694 O   0  0  0  0  0  0  0  0  0  0  0  0
  -11.9653    1.4412   -8.7324 O   0  0  0  0  0  0  0  0  0  0  0  0
   -9.1249   -3.8520   -7.5022 C   0  0  2  0  0  0  0  0  0  0  0  0
   -7.5947   -3.7435   -7.5432 C   0  0  0  0  0  0  0  0  0  0  0  0
   -7.1148   -2.7487   -8.5965 C   0  0  1  0  0  0  0  0  0  0  0  0
   -7.7499   -1.3959   -8.3055 C   0  0  2  0  0  0  0  0  0  0  0  0
   -9.2697   -1.5041   -8.4526 C   0  0  1  0  0  0  0  0  0  0  0  0
   -9.8422   -2.4951   -7.4240 C   0  0  1  0  0  0  0  0  0  0  0  0
   -9.5637   -4.7027   -6.3449 N   0  3  0  0  0  0  0  0  0  0  0  0
   -5.6181   -2.6592   -8.6100 N   0  3  0  0  0  0  0  0  0  0  0  0
   -9.8527   -0.2192   -8.2762 O   0  0  0  0  0  0  0  0  0  0  0  0
   -7.2386   -0.3950   -9.2045 O   0  0  0  0  0  0  0  0  0  0  0  0
  -11.2433   -2.7168   -7.6876 O   0  0  0  0  0  0  0  0  0  0  0  0
   -6.2061    0.3745   -8.6528 C   0  0  2  0  0  0  0  0  0  0  0  0
   -6.4744    1.8625   -8.9014 C   0  0  1  0  0  0  0  0  0  0  0  0
   -6.2083    2.2318  -10.3610 C   0  0  0  0  0  0  0  0  0  0  0  0
   -4.8086    1.7747  -10.7388 C   0  0  1  0  0  0  0  0  0  0  0  0
   -4.6966    0.2759  -10.5201 C   0  0  1  0  0  0  0  0  0  0  0  0
   -3.3182   -0.2434  -10.8866 C   0  0  0  0  0  0  0  0  0  0  0  0
   -7.8999    2.1754   -8.5642 N   0  3  0  0  0  0  0  0  0  0  0  0
   -3.0203    0.1833  -12.2980 N   0  3  0  0  0  0  0  0  0  0  0  0
   -4.5362    2.0887  -12.0972 O   0  0  0  0  0  0  0  0  0  0  0  0
   -4.9249   -0.0201   -9.1319 O   0  0  0  0  0  0  0  0  0  0  0  0
  1  2  1  0  0  0  0
  1 22  1  6  0  0  0
  1 10  1  0  0  0  0
  2  3  1  0  0  0  0
  2  7  1  6  0  0  0
  3  4  1  0  0  0  0
  3  8  1  1  0  0  0
  4  5  1  0  0  0  0
  4  9  1  6  0  0  0
  5  6  1  1  0  0  0
  5 10  1  0  0  0  0
  6 11  1  0  0  0  0
 12 13  1  0  0  0  0
 12 17  1  0  0  0  0
 12 18  1  1  0  0  0
 13 14  1  0  0  0  0
 14 15  1  0  0  0  0
 14 19  1  1  0  0  0
 15 16  1  0  0  0  0
 15 21  1  6  0  0  0
 16 17  1  0  0  0  0
 16 20  1  1  0  0  0
 17 22  1  6  0  0  0
 23 21  1  6  0  0  0
 23 24  1  0  0  0  0
 23 32  1  0  0  0  0
 24 25  1  0  0  0  0
 24 29  1  6  0  0  0
 25 26  1  0  0  0  0
 26 27  1  0  0  0  0
 26 31  1  6  0  0  0
 27 28  1  1  0  0  0
 27 32  1  0  0  0  0
 28 30  1  0  0  0  0
M  CHG  5   8   1  18   1  19   1  29   1  30   1
M  END
>  <CHROM.1>
-152.15112168,-62.36347397,-35.76881158,48.88091376,-166.99041697,80.82574381
-174.69753014,-12.48253735,-97.79364601,-73.33920487,127.53859009,-132.15996646
-154.41797049,-71.39527737,-54.36662219,-53.64297801,-9.20323148,-1.08467884
-8.71895593,-2.71570984,0.12236446,-0.43557351

>  <Name>
2tob cryst

>  <RI>
0

>  <Rbt.Current_Directory>
/home/itssahil/PROJECTS/Mol_Feturizer/New_Systems/rnas/2tob

>  <Rbt.Executable>
rbdock ($Id: //depot/dev/client3/rdock/2013.1/src/exe/rbdock.cxx#4 $)

>  <Rbt.Library>
libRbt.so (2013.1, Build901 2013/11/27)

>  <Rbt.Parameter_File>
/export/apps/rDock/src/rDock_2013.1_src/data/scripts/dock_solv.prm

>  <Rbt.Receptor>
prm/blind_docking_60.prm

>  <SCORE>
-23.2331

>  <SCORE.INTER>
-23.696

>  <SCORE.INTER.CONST>
1

>  <SCORE.INTER.POLAR>
-5.44402

>  <SCORE.INTER.ROT>
6

>  <SCORE.INTER.SOLV>
40.1873

>  <SCORE.INTER.VDW>
-18.6464

>  <SCORE.INTER.norm>
-0.740499

>  <SCORE.INTRA>
-11.1222

>  <SCORE.INTRA.DIHEDRAL>
14.016

>  <SCORE.INTRA.DIHEDRAL.0>
18.4221

>  <SCORE.INTRA.POLAR>
-0.648669

>  <SCORE.INTRA.POLAR.0>
-1.57101

>  <SCORE.INTRA.REPUL>
-0.730195

>  <SCORE.INTRA.REPUL.0>
0.730195

>  <SCORE.INTRA.SOLV>
0.51703

>  <SCORE.INTRA.SOLV.lig_0>
-127.221

>  <SCORE.INTRA.VDW>
-12.5323

>  <SCORE.INTRA.VDW.0>
10.8385

>  <SCORE.INTRA.norm>
-0.34757

>  <SCORE.RESTR>
11.5852

>  <SCORE.RESTR.CAVITY>
11.5852

>  <SCORE.RESTR.norm>
0.362036

>  <SCORE.SYSTEM>
0

>  <SCORE.SYSTEM.CONST>
0

>  <SCORE.SYSTEM.DIHEDRAL>
0

>  <SCORE.SYSTEM.SOLV>
0

>  <SCORE.SYSTEM.norm>
0

>  <SCORE.heavy>
32

>  <SCORE.norm>
-0.726033

>  <RMSD>
8.323

$$$$
2tob cryst
 OpenBabel11021811463D
libRbt.so/2013.1/901 2013/11/27
 32 34  0  0  0  0  0  0  0  0999 V2000
  -13.5537   -5.8039   -7.5191 C   0  0  2  0  0  0  0  0  0  0  0  0
  -14.9428   -6.3045   -7.1359 C   0  0  1  0  0  0  0  0  0  0  0  0
  -14.7972   -7.5520   -6.2641 C   0  0  2  0  0  0  0  0  0  0  0  0
  -13.9484   -8.6169   -6.9713 C   0  0  1  0  0  0  0  0  0  0  0  0
  -12.6232   -8.0051   -7.4386 C   0  0  1  0  0  0  0  0  0  0  0  0
  -11.7655   -8.9360   -8.2799 C   0  0  0  0  0  0  0  0  0  0  0  0
  -15.6449   -5.2928   -6.4188 O   0  0  0  0  0  0  0  0  0  0  0  0
  -16.0532   -8.2158   -5.7910 N   0  3  0  0  0  0  0  0  0  0  0  0
  -13.6962   -9.6837   -6.0653 O   0  0  0  0  0  0  0  0  0  0  0  0
  -12.8782   -6.8258   -8.2276 O   0  0  0  0  0  0  0  0  0  0  0  0
  -10.5389   -8.3084   -8.6395 O   0  0  0  0  0  0  0  0  0  0  0  0
  -12.6152   -3.7645   -4.6524 C   0  0  2  0  0  0  0  0  0  0  0  0
  -11.9887   -2.4224   -4.2503 C   0  0  0  0  0  0  0  0  0  0  0  0
  -10.5761   -2.2563   -4.8037 C   0  0  1  0  0  0  0  0  0  0  0  0
  -10.6326   -2.3998   -6.3184 C   0  0  2  0  0  0  0  0  0  0  0  0
  -11.0904   -3.8151   -6.6796 C   0  0  1  0  0  0  0  0  0  0  0  0
  -12.5139   -4.0723   -6.1547 C   0  0  1  0  0  0  0  0  0  0  0  0
  -14.0582   -3.8189   -4.2400 N   0  3  0  0  0  0  0  0  0  0  0  0
   -9.9920   -0.9356   -4.4005 N   0  3  0  0  0  0  0  0  0  0  0  0
  -11.0492   -3.9776   -8.0917 O   0  0  0  0  0  0  0  0  0  0  0  0
   -9.3418   -2.1372   -6.8983 O   0  0  0  0  0  0  0  0  0  0  0  0
  -12.8625   -5.4588   -6.3491 O   0  0  0  0  0  0  0  0  0  0  0  0
   -9.3886   -1.8991   -8.2780 C   0  0  2  0  0  0  0  0  0  0  0  0
   -8.1756   -2.5409   -8.9597 C   0  0  1  0  0  0  0  0  0  0  0  0
   -6.9036   -1.7380   -8.6857 C   0  0  0  0  0  0  0  0  0  0  0  0
   -7.1437   -0.2865   -9.0685 C   0  0  1  0  0  0  0  0  0  0  0  0
   -8.3184    0.2525   -8.2709 C   0  0  1  0  0  0  0  0  0  0  0  0
   -8.6050    1.7050   -8.6059 C   0  0  0  0  0  0  0  0  0  0  0  0
   -7.9979   -3.9379   -8.4494 N   0  3  0  0  0  0  0  0  0  0  0  0
   -9.3765    2.3031   -7.4613 N   0  3  0  0  0  0  0  0  0  0  0  0
   -5.9835    0.4911   -8.8094 O   0  0  0  0  0  0  0  0  0  0  0  0
   -9.4952   -0.5125   -8.5822 O   0  0  0  0  0  0  0  0  0  0  0  0
  1  2  1  0  0  0  0
  1 22  1  1  0  0  0
  1 10  1  0  0  0  0
  2  3  1  0  0  0  0
  2  7  1  1  0  0  0
  3  4  1  0  0  0  0
  3  8  1  6  0  0  0
  4  5  1  0  0  0  0
  4  9  1  1  0  0  0
  5  6  1  6  0  0  0
  5 10  1  0  0  0  0
  6 11  1  0  0  0  0
 12 13  1  0  0  0  0
 12 17  1  0  0  0  0
 12 18  1  6  0  0  0
 13 14  1  0  0  0  0
 14 15  1  0  0  0  0
 14 19  1  6  0  0  0
 15 16  1  0  0  0  0
 15 21  1  6  0  0  0
 16 17  1  0  0  0  0
 16 20  1  6  0  0  0
 17 22  1  1  0  0  0
 23 21  1  1  0  0  0
 23 24  1  0  0  0  0
 23 32  1  0  0  0  0
 24 25  1  0  0  0  0
 24 29  1  1  0  0  0
 25 26  1  0  0  0  0
 26 27  1  0  0  0  0
 26 31  1  1  0  0  0
 27 28  1  6  0  0  0
 27 32  1  0  0  0  0
 28 30  1  0  0  0  0
M  CHG  5   8   1  18   1  19   1  29   1  30   1
M  END
>  <CHROM.1>
-114.83613291,172.93498084,67.22126570,71.24952401,-178.27989311,-61.08782876
-75.69103044,102.90327675,-163.91252509,-175.83178854,144.95325152,-141.74376083
-60.74332382,-61.68271714,-158.65906784,176.63589471,-11.21947538,-3.90790276
-7.07368023,-2.41536618,0.61531206,0.39629009

>  <Name>
2tob cryst

>  <RI>
3.35201e+07

>  <Rbt.Current_Directory>
/home/itssahil/PROJECTS/Mol_Feturizer/New_Systems/rnas/2tob

>  <Rbt.Executable>
rbdock ($Id: //depot/dev/client3/rdock/2013.1/src/exe/rbdock.cxx#4 $)

>  <Rbt.Library>
libRbt.so (2013.1, Build901 2013/11/27)

>  <Rbt.Parameter_File>
/export/apps/rDock/src/rDock_2013.1_src/data/scripts/dock_solv.prm

>  <Rbt.Receptor>
prm/pocket_docking_4.prm

>  <SCORE>
-41.4814

>  <SCORE.INTER>
-23.5965

>  <SCORE.INTER.CONST>
1

>  <SCORE.INTER.POLAR>
-3.66737

>  <SCORE.INTER.ROT>
6

>  <SCORE.INTER.SOLV>
27.9197

>  <SCORE.INTER.VDW>
-20.413

>  <SCORE.INTER.norm>
-0.73739

>  <SCORE.INTRA>
-17.9178

>  <SCORE.INTRA.DIHEDRAL>
5.69195

>  <SCORE.INTRA.DIHEDRAL.0>
18.4221

>  <SCORE.INTRA.POLAR>
0.079272

>  <SCORE.INTRA.POLAR.0>
-1.57101

>  <SCORE.INTRA.REPUL>
-0.730195

>  <SCORE.INTRA.REPUL.0>
0.730195

>  <SCORE.INTRA.SOLV>
-6.03814

>  <SCORE.INTRA.SOLV.lig_0>
-127.221

>  <SCORE.INTRA.VDW>
-14.3633

>  <SCORE.INTRA.VDW.0>
10.8385

>  <SCORE.INTRA.norm>
-0.559933

>  <SCORE.RESTR>
0.0329695

>  <SCORE.RESTR.CAVITY>
0.0329695

>  <SCORE.RESTR.norm>
0.0010303

>  <SCORE.SYSTEM>
0

>  <SCORE.SYSTEM.CONST>
0

>  <SCORE.SYSTEM.DIHEDRAL>
0

>  <SCORE.SYSTEM.SOLV>
0

>  <SCORE.SYSTEM.norm>
0

>  <SCORE.heavy>
32

>  <SCORE.norm>
-1.29629

>  <RMSD>
8.324

$$$$
2tob cryst
 OpenBabel11021811463D
libRbt.so/2013.1/901 2013/11/27
 32 34  0  0  0  0  0  0  0  0999 V2000
  -11.6388   -7.3124   -7.6465 C   0  0  2  0  0  0  0  0  0  0  0  0
  -11.5617   -8.7432   -8.1698 C   0  0  1  0  0  0  0  0  0  0  0  0
  -12.9809   -9.2703   -8.3831 C   0  0  2  0  0  0  0  0  0  0  0  0
  -13.8096   -9.1442   -7.0978 C   0  0  1  0  0  0  0  0  0  0  0  0
  -13.7336   -7.7095   -6.5643 C   0  0  1  0  0  0  0  0  0  0  0  0
  -14.4011   -7.5071   -5.2139 C   0  0  0  0  0  0  0  0  0  0  0  0
  -10.8445   -8.7739   -9.4009 O   0  0  0  0  0  0  0  0  0  0  0  0
  -13.1299  -10.6744   -8.8812 N   0  3  0  0  0  0  0  0  0  0  0  0
  -15.1607   -9.4834   -7.3837 O   0  0  0  0  0  0  0  0  0  0  0  0
  -12.3556   -7.3093   -6.4264 O   0  0  0  0  0  0  0  0  0  0  0  0
  -13.7560   -8.2820   -4.2084 O   0  0  0  0  0  0  0  0  0  0  0  0
  -13.7191   -4.7676   -7.7897 C   0  0  2  0  0  0  0  0  0  0  0  0
  -13.8293   -3.3506   -7.2108 C   0  0  0  0  0  0  0  0  0  0  0  0
  -12.6814   -3.0254   -6.2590 C   0  0  1  0  0  0  0  0  0  0  0  0
  -11.3686   -3.2079   -7.0081 C   0  0  2  0  0  0  0  0  0  0  0  0
  -11.2119   -4.6762   -7.4118 C   0  0  1  0  0  0  0  0  0  0  0  0
  -12.3364   -5.0936   -8.3758 C   0  0  1  0  0  0  0  0  0  0  0  0
  -14.7615   -4.9888   -8.8479 N   0  3  0  0  0  0  0  0  0  0  0  0
  -12.8118   -1.6346   -5.7140 N   0  3  0  0  0  0  0  0  0  0  0  0
   -9.9426   -4.8633   -8.0248 O   0  0  0  0  0  0  0  0  0  0  0  0
  -10.2586   -2.8025   -6.1865 O   0  0  0  0  0  0  0  0  0  0  0  0
  -12.2761   -6.5163   -8.6087 O   0  0  0  0  0  0  0  0  0  0  0  0
   -9.0963   -2.5248   -6.9176 C   0  0  2  0  0  0  0  0  0  0  0  0
   -8.0085   -1.9850   -5.9829 C   0  0  1  0  0  0  0  0  0  0  0  0
   -8.3055   -0.5431   -5.5702 C   0  0  0  0  0  0  0  0  0  0  0  0
   -8.5299    0.2921   -6.8204 C   0  0  1  0  0  0  0  0  0  0  0  0
   -9.6787   -0.3008   -7.6176 C   0  0  1  0  0  0  0  0  0  0  0  0
   -9.9560    0.4956   -8.8797 C   0  0  0  0  0  0  0  0  0  0  0  0
   -7.9321   -2.8440   -4.7582 N   0  3  0  0  0  0  0  0  0  0  0  0
  -11.4417    0.4917   -9.1153 N   0  3  0  0  0  0  0  0  0  0  0  0
   -8.8255    1.6366   -6.4697 O   0  0  0  0  0  0  0  0  0  0  0  0
   -9.3432   -1.6432   -8.0078 O   0  0  0  0  0  0  0  0  0  0  0  0
  1  2  1  0  0  0  0
  1 22  1  6  0  0  0
  1 10  1  0  0  0  0
  2  3  1  0  0  0  0
  2  7  1  6  0  0  0
  3  4  1  0  0  0  0
  3  8  1  1  0  0  0
  4  5  1  0  0  0  0
  4  9  1  6  0  0  0
  5  6  1  1  0  0  0
  5 10  1  0  0  0  0
  6 11  1  0  0  0  0
 12 13  1  0  0  0  0
 12 17  1  0  0  0  0
 12 18  1  6  0  0  0
 13 14  1  0  0  0  0
 14 15  1  0  0  0  0
 14 19  1  6  0  0  0
 15 16  1  0  0  0  0
 15 21  1  1  0  0  0
 16 17  1  0  0  0  0
 16 20  1  6  0  0  0
 17 22  1  1  0  0  0
 23 21  1  1  0  0  0
 23 24  1  0  0  0  0
 23 32  1  0  0  0  0
 24 25  1  0  0  0  0
 24 29  1  1  0  0  0
 25 26  1  0  0  0  0
 26 27  1  0  0  0  0
 26 31  1  1  0  0  0
 27 28  1  6  0  0  0
 27 32  1  0  0  0  0
 28 30  1  0  0  0  0
M  CHG  5   8   1  18   1  19   1  29   1  30   1
M  END
>  <CHROM.1>
-173.91034432,-54.92932220,64.39504753,177.65891083,62.89910585,62.44283752
179.75204430,45.26587195,-160.30537772,-175.85521817,-98.44112763,175.04155677
99.46482632,71.52521563,-144.11885075,-64.24986578,-11.56902277,-4.58109579
-7.22005379,-2.02435946,-0.16724262,-0.01259929

>  <Name>
2tob cryst

>  <RI>
3.35201e+07

>  <Rbt.Current_Directory>
/home/itssahil/PROJECTS/Mol_Feturizer/New_Systems/rnas/2tob

>  <Rbt.Executable>
rbdock ($Id: //depot/dev/client3/rdock/2013.1/src/exe/rbdock.cxx#4 $)

>  <Rbt.Library>
libRbt.so (2013.1, Build901 2013/11/27)

>  <Rbt.Parameter_File>
/export/apps/rDock/src/rDock_2013.1_src/data/scripts/dock_solv.prm

>  <Rbt.Receptor>
prm/pocket_docking_4.prm

>  <SCORE>
-44.5338

>  <SCORE.INTER>
-26.8788

>  <SCORE.INTER.CONST>
1

>  <SCORE.INTER.POLAR>
-4.79035

>  <SCORE.INTER.ROT>
6

>  <SCORE.INTER.SOLV>
27.0912

>  <SCORE.INTER.VDW>
-18.5818

>  <SCORE.INTER.norm>
-0.839964

>  <SCORE.INTRA>
-17.655

>  <SCORE.INTRA.DIHEDRAL>
-3.3808

>  <SCORE.INTRA.DIHEDRAL.0>
18.4221

>  <SCORE.INTRA.POLAR>
1.30216

>  <SCORE.INTRA.POLAR.0>
-1.57101

>  <SCORE.INTRA.REPUL>
-0.730195

>  <SCORE.INTRA.REPUL.0>
0.730195

>  <SCORE.INTRA.SOLV>
-9.04899

>  <SCORE.INTRA.SOLV.lig_0>
-127.221

>  <SCORE.INTRA.VDW>
-12.2164

>  <SCORE.INTRA.VDW.0>
10.8385

>  <SCORE.INTRA.norm>
-0.551717

>  <SCORE.RESTR>
0

>  <SCORE.RESTR.CAVITY>
0

>  <SCORE.RESTR.norm>
0

>  <SCORE.SYSTEM>
0

>  <SCORE.SYSTEM.CONST>
0

>  <SCORE.SYSTEM.DIHEDRAL>
0

>  <SCORE.SYSTEM.SOLV>
0

>  <SCORE.SYSTEM.norm>
0

>  <SCORE.heavy>
32

>  <SCORE.norm>
-1.39168

>  <RMSD>
8.326

$$$$
2tob cryst
 OpenBabel11021811463D
libRbt.so/2013.1/901 2013/11/27
 32 34  0  0  0  0  0  0  0  0999 V2000
   -9.6239   -6.8181   -6.2118 C   0  0  2  0  0  0  0  0  0  0  0  0
  -10.7371   -7.0559   -7.2273 C   0  0  1  0  0  0  0  0  0  0  0  0
  -11.9040   -7.7550   -6.5293 C   0  0  2  0  0  0  0  0  0  0  0  0
  -11.4353   -9.0426   -5.8385 C   0  0  1  0  0  0  0  0  0  0  0  0
  -10.2347   -8.7445   -4.9338 C   0  0  1  0  0  0  0  0  0  0  0  0
   -9.5980   -9.9764   -4.3115 C   0  0  0  0  0  0  0  0  0  0  0  0
  -11.1737   -5.8134   -7.7717 O   0  0  0  0  0  0  0  0  0  0  0  0
  -13.1019   -8.0976   -7.3596 N   0  3  0  0  0  0  0  0  0  0  0  0
  -12.5062   -9.5679   -5.0643 O   0  0  0  0  0  0  0  0  0  0  0  0
   -9.2098   -8.0650   -5.6862 O   0  0  0  0  0  0  0  0  0  0  0  0
  -10.4376  -10.5251   -3.3007 O   0  0  0  0  0  0  0  0  0  0  0  0
  -10.9602   -3.9165   -4.2867 C   0  0  2  0  0  0  0  0  0  0  0  0
  -11.0126   -2.3861   -4.3872 C   0  0  0  0  0  0  0  0  0  0  0  0
   -9.6790   -1.7909   -4.8306 C   0  0  1  0  0  0  0  0  0  0  0  0
   -9.2950   -2.4124   -6.1663 C   0  0  2  0  0  0  0  0  0  0  0  0
   -9.0748   -3.9163   -5.9844 C   0  0  1  0  0  0  0  0  0  0  0  0
  -10.3764   -4.6014   -5.5324 C   0  0  1  0  0  0  0  0  0  0  0  0
  -12.3279   -4.4758   -4.0189 N   0  3  0  0  0  0  0  0  0  0  0  0
   -9.7613   -0.2968   -4.9255 N   0  3  0  0  0  0  0  0  0  0  0  0
   -8.6223   -4.4778   -7.2100 O   0  0  0  0  0  0  0  0  0  0  0  0
   -8.0998   -1.7991   -6.6828 O   0  0  0  0  0  0  0  0  0  0  0  0
  -10.1116   -5.9801   -5.1992 O   0  0  0  0  0  0  0  0  0  0  0  0
   -8.0860   -1.6943   -8.0798 C   0  0  2  0  0  0  0  0  0  0  0  0
   -6.6534   -1.4622   -8.5715 C   0  0  1  0  0  0  0  0  0  0  0  0
   -6.1993   -0.0310   -8.2833 C   0  0  0  0  0  0  0  0  0  0  0  0
   -7.2234    0.9365   -8.8543 C   0  0  1  0  0  0  0  0  0  0  0  0
   -8.5797    0.6526   -8.2324 C   0  0  1  0  0  0  0  0  0  0  0  0
   -9.6473    1.5937   -8.7604 C   0  0  0  0  0  0  0  0  0  0  0  0
   -5.7294   -2.4215   -7.8863 N   0  3  0  0  0  0  0  0  0  0  0  0
   -9.0750    2.3320   -9.9395 N   0  3  0  0  0  0  0  0  0  0  0  0
   -6.8383    2.2776   -8.5877 O   0  0  0  0  0  0  0  0  0  0  0  0
   -8.9778   -0.6909   -8.5536 O   0  0  0  0  0  0  0  0  0  0  0  0
  1  2  1  0  0  0  0
  1 22  1  1  0  0  0
  1 10  1  0  0  0  0
  2  3  1  0  0  0  0
  2  7  1  1  0  0  0
  3  4  1  0  0  0  0
  3  8  1  6  0  0  0
  4  5  1  0  0  0  0
  4  9  1  1  0  0  0
  5  6  1  6  0  0  0
  5 10  1  0  0  0  0
  6 11  1  0  0  0  0
 12 13  1  0  0  0  0
 12 17  1  0  0  0  0
 12 18  1  6  0  0  0
 13 14  1  0  0  0  0
 14 15  1  0  0  0  0
 14 19  1  6  0  0  0
 15 16  1  0  0  0  0
 15 21  1  1  0  0  0
 16 17  1  0  0  0  0
 16 20  1  6  0  0  0
 17 22  1  1  0  0  0
 23 21  1  1  0  0  0
 23 24  1  0  0  0  0
 23 32  1  0  0  0  0
 24 25  1  0  0  0  0
 24 29  1  1  0  0  0
 25 26  1  0  0  0  0
 26 27  1  0  0  0  0
 26 31  1  1  0  0  0
 27 28  1  6  0  0  0
 27 32  1  0  0  0  0
 28 30  1  0  0  0  0
M  CHG  5   8   1  18   1  19   1  29   1  30   1
M  END
>  <CHROM.1>
-69.83343289,179.97266247,-174.05491794,-53.69219183,-71.89916331,-177.16523294
-55.69573016,47.93388730,-145.41264107,-76.65199076,177.32855432,-162.04801750
-81.98850806,55.34450559,11.18234947,-167.22588709,-9.59111011,-3.94628387
-6.54543216,-1.94926545,0.56412891,-0.11324233

>  <Name>
2tob cryst

>  <RI>
0

>  <Rbt.Current_Directory>
/home/itssahil/PROJECTS/Mol_Feturizer/New_Systems/rnas/2tob

>  <Rbt.Executable>
rbdock ($Id: //depot/dev/client3/rdock/2013.1/src/exe/rbdock.cxx#4 $)

>  <Rbt.Library>
libRbt.so (2013.1, Build901 2013/11/27)

>  <Rbt.Parameter_File>
/export/apps/rDock/src/rDock_2013.1_src/data/scripts/dock_solv.prm

>  <Rbt.Receptor>
prm/pocket_docking_5.prm

>  <SCORE>
-51.7407

>  <SCORE.INTER>
-36.993

>  <SCORE.INTER.CONST>
1

>  <SCORE.INTER.POLAR>
-4.71516

>  <SCORE.INTER.ROT>
6

>  <SCORE.INTER.SOLV>
33.6969

>  <SCORE.INTER.VDW>
-27.7771

>  <SCORE.INTER.norm>
-1.15603

>  <SCORE.INTRA>
-14.7477

>  <SCORE.INTRA.DIHEDRAL>
-2.91891

>  <SCORE.INTRA.DIHEDRAL.0>
18.4221

>  <SCORE.INTRA.POLAR>
0.547964

>  <SCORE.INTRA.POLAR.0>
-1.57101

>  <SCORE.INTRA.REPUL>
-0.730195

>  <SCORE.INTRA.REPUL.0>
0.730195

>  <SCORE.INTRA.SOLV>
-3.71096

>  <SCORE.INTRA.SOLV.lig_0>
-127.221

>  <SCORE.INTRA.VDW>
-9.64488

>  <SCORE.INTRA.VDW.0>
10.8385

>  <SCORE.INTRA.norm>
-0.460866

>  <SCORE.RESTR>
0

>  <SCORE.RESTR.CAVITY>
0

>  <SCORE.RESTR.norm>
0

>  <SCORE.SYSTEM>
0

>  <SCORE.SYSTEM.CONST>
0

>  <SCORE.SYSTEM.DIHEDRAL>
0

>  <SCORE.SYSTEM.SOLV>
0

>  <SCORE.SYSTEM.norm>
0

>  <SCORE.heavy>
32

>  <SCORE.norm>
-1.6169

>  <RMSD>
8.328

$$$$
2tob cryst
 OpenBabel11021811463D
libRbt.so/2013.1/901 2013/11/27
 32 34  0  0  0  0  0  0  0  0999 V2000
  -13.1361   -3.4954   -8.5892 C   0  0  2  0  0  0  0  0  0  0  0  0
  -14.4163   -2.6668   -8.6276 C   0  0  1  0  0  0  0  0  0  0  0  0
  -15.4781   -3.3548   -7.7692 C   0  0  2  0  0  0  0  0  0  0  0  0
  -15.6880   -4.8067   -8.2193 C   0  0  1  0  0  0  0  0  0  0  0  0
  -14.3417   -5.5367   -8.2783 C   0  0  1  0  0  0  0  0  0  0  0  0
  -14.4157   -6.9420   -8.8524 C   0  0  0  0  0  0  0  0  0  0  0  0
  -14.1641   -1.3567   -8.1267 O   0  0  0  0  0  0  0  0  0  0  0  0
  -16.8259   -2.7080   -7.6857 N   0  3  0  0  0  0  0  0  0  0  0  0
  -16.5512   -5.4570   -7.2951 O   0  0  0  0  0  0  0  0  0  0  0  0
  -13.4133   -4.7897   -9.0896 O   0  0  0  0  0  0  0  0  0  0  0  0
  -14.7661   -6.9081  -10.2321 O   0  0  0  0  0  0  0  0  0  0  0  0
  -10.5055   -4.5967   -7.2927 C   0  0  2  0  0  0  0  0  0  0  0  0
   -8.9844   -4.4086   -7.3704 C   0  0  0  0  0  0  0  0  0  0  0  0
   -8.5909   -3.2695   -8.3068 C   0  0  1  0  0  0  0  0  0  0  0  0
   -9.2743   -1.9957   -7.8288 C   0  0  2  0  0  0  0  0  0  0  0  0
  -10.7923   -2.1598   -7.9380 C   0  0  1  0  0  0  0  0  0  0  0  0
  -11.2794   -3.2967   -7.0224 C   0  0  1  0  0  0  0  0  0  0  0  0
  -10.8604   -5.6036   -6.2365 N   0  3  0  0  0  0  0  0  0  0  0  0
   -7.1015   -3.1054   -8.3585 N   0  3  0  0  0  0  0  0  0  0  0  0
  -11.4250   -0.9366   -7.5837 O   0  0  0  0  0  0  0  0  0  0  0  0
   -8.8437   -0.8680   -8.6126 O   0  0  0  0  0  0  0  0  0  0  0  0
  -12.6783   -3.5531   -7.2652 O   0  0  0  0  0  0  0  0  0  0  0  0
   -7.9591   -0.0214   -7.9319 C   0  0  2  0  0  0  0  0  0  0  0  0
   -8.2618    1.4395   -8.2817 C   0  0  1  0  0  0  0  0  0  0  0  0
   -7.7785    1.7775   -9.6923 C   0  0  0  0  0  0  0  0  0  0  0  0
   -6.3132    1.3927   -9.8177 C   0  0  1  0  0  0  0  0  0  0  0  0
   -6.1589   -0.0891   -9.5224 C   0  0  1  0  0  0  0  0  0  0  0  0
   -4.7131   -0.5369   -9.6376 C   0  0  0  0  0  0  0  0  0  0  0  0
   -9.7380    1.6776   -8.1947 N   0  3  0  0  0  0  0  0  0  0  0  0
   -4.2682   -0.3128  -11.0570 N   0  3  0  0  0  0  0  0  0  0  0  0
   -5.8374    1.6791  -11.1252 O   0  0  0  0  0  0  0  0  0  0  0  0
   -6.5972   -0.3540   -8.1791 O   0  0  0  0  0  0  0  0  0  0  0  0
  1  2  1  0  0  0  0
  1 22  1  1  0  0  0
  1 10  1  0  0  0  0
  2  3  1  0  0  0  0
  2  7  1  1  0  0  0
  3  4  1  0  0  0  0
  3  8  1  6  0  0  0
  4  5  1  0  0  0  0
  4  9  1  1  0  0  0
  5  6  1  6  0  0  0
  5 10  1  0  0  0  0
  6 11  1  0  0  0  0
 12 13  1  0  0  0  0
 12 17  1  0  0  0  0
 12 18  1  1  0  0  0
 13 14  1  0  0  0  0
 14 15  1  0  0  0  0
 14 19  1  1  0  0  0
 15 16  1  0  0  0  0
 15 21  1  6  0  0  0
 16 17  1  0  0  0  0
 16 20  1  1  0  0  0
 17 22  1  6  0  0  0
 23 21  1  6  0  0  0
 23 24  1  0  0  0  0
 23 32  1  0  0  0  0
 24 25  1  0  0  0  0
 24 29  1  6  0  0  0
 25 26  1  0  0  0  0
 26 27  1  0  0  0  0
 26 31  1  6  0  0  0
 27 28  1  1  0  0  0
 27 32  1  0  0  0  0
 28 30  1  0  0  0  0
M  CHG  5   8   1  18   1  19   1  29   1  30   1
M  END
>  <CHROM.1>
-133.05661880,-36.16774963,70.25581581,-57.96064814,66.68349035,-59.10355714
-174.25358199,-152.00798373,-105.89863926,69.93809627,-82.40320220,-141.67738054
-71.69059754,65.75548182,-62.12320750,145.04149745,-10.68220750,-2.34275979
-8.44981071,2.59729564,-0.11081442,3.06243314

>  <Name>
2tob cryst

>  <RI>
2.10184e+07

>  <Rbt.Current_Directory>
/home/itssahil/PROJECTS/Mol_Feturizer/New_Systems/rnas/2tob

>  <Rbt.Executable>
rbdock ($Id: //depot/dev/client3/rdock/2013.1/src/exe/rbdock.cxx#4 $)

>  <Rbt.Library>
libRbt.so (2013.1, Build901 2013/11/27)

>  <Rbt.Parameter_File>
/export/apps/rDock/src/rDock_2013.1_src/data/scripts/dock_solv.prm

>  <Rbt.Receptor>
prm/pocket_docking_7.prm

>  <SCORE>
-61.2037

>  <SCORE.INTER>
-47.3567

>  <SCORE.INTER.CONST>
1

>  <SCORE.INTER.POLAR>
-6.03545

>  <SCORE.INTER.ROT>
6

>  <SCORE.INTER.SOLV>
30.827

>  <SCORE.INTER.VDW>
-29.3286

>  <SCORE.INTER.norm>
-1.4799

>  <SCORE.INTRA>
-13.847

>  <SCORE.INTRA.DIHEDRAL>
9.48673

>  <SCORE.INTRA.DIHEDRAL.0>
18.4221

>  <SCORE.INTRA.POLAR>
-0.463521

>  <SCORE.INTRA.POLAR.0>
-1.57101

>  <SCORE.INTRA.REPUL>
-0.730195

>  <SCORE.INTRA.REPUL.0>
0.730195

>  <SCORE.INTRA.SOLV>
-1.39644

>  <SCORE.INTRA.SOLV.lig_0>
-127.221

>  <SCORE.INTRA.VDW>
-12.6652

>  <SCORE.INTRA.VDW.0>
10.8385

>  <SCORE.INTRA.norm>
-0.43272

>  <SCORE.RESTR>
0

>  <SCORE.RESTR.CAVITY>
0

>  <SCORE.RESTR.norm>
0

>  <SCORE.SYSTEM>
0

>  <SCORE.SYSTEM.CONST>
0

>  <SCORE.SYSTEM.DIHEDRAL>
0

>  <SCORE.SYSTEM.SOLV>
0

>  <SCORE.SYSTEM.norm>
0

>  <SCORE.heavy>
32

>  <SCORE.norm>
-1.91262

>  <RMSD>
8.331

$$$$
2tob cryst
 OpenBabel11021811463D
libRbt.so/2013.1/901 2013/11/27
 32 34  0  0  0  0  0  0  0  0999 V2000
  -12.6182   -5.4263   -8.3520 C   0  0  2  0  0  0  0  0  0  0  0  0
  -11.2349   -6.0520   -8.4996 C   0  0  1  0  0  0  0  0  0  0  0  0
  -10.6038   -6.1924   -7.1141 C   0  0  2  0  0  0  0  0  0  0  0  0
  -10.5781   -4.8419   -6.3860 C   0  0  1  0  0  0  0  0  0  0  0  0
  -11.9777   -4.2174   -6.3909 C   0  0  1  0  0  0  0  0  0  0  0  0
  -12.0374   -2.8092   -5.8222 C   0  0  0  0  0  0  0  0  0  0  0  0
  -11.3425   -7.3334   -9.1138 O   0  0  0  0  0  0  0  0  0  0  0  0
   -9.2261   -6.7738   -7.0371 N   0  3  0  0  0  0  0  0  0  0  0  0
  -10.1441   -5.0466   -5.0473 O   0  0  0  0  0  0  0  0  0  0  0  0
  -12.4838   -4.1577   -7.7395 O   0  0  0  0  0  0  0  0  0  0  0  0
  -11.3652   -1.8888   -6.6759 O   0  0  0  0  0  0  0  0  0  0  0  0
  -15.4467   -7.5748   -7.4762 C   0  0  2  0  0  0  0  0  0  0  0  0
  -16.9709   -7.5735   -7.2973 C   0  0  0  0  0  0  0  0  0  0  0  0
  -17.4313   -6.5350   -6.2780 C   0  0  1  0  0  0  0  0  0  0  0  0
  -16.9335   -5.1676   -6.7258 C   0  0  2  0  0  0  0  0  0  0  0  0
  -15.4028   -5.1543   -6.7170 C   0  0  1  0  0  0  0  0  0  0  0  0
  -14.8485   -6.1805   -7.7209 C   0  0  1  0  0  0  0  0  0  0  0  0
  -15.0478   -8.4812   -8.6052 N   0  3  0  0  0  0  0  0  0  0  0  0
  -18.9231   -6.5523   -6.1283 N   0  3  0  0  0  0  0  0  0  0  0  0
  -14.9411   -3.8490   -7.0411 O   0  0  0  0  0  0  0  0  0  0  0  0
  -17.4394   -4.1376   -5.8571 O   0  0  0  0  0  0  0  0  0  0  0  0
  -13.4163   -6.2794   -7.5768 O   0  0  0  0  0  0  0  0  0  0  0  0
  -17.2798   -2.8450   -6.3734 C   0  0  2  0  0  0  0  0  0  0  0  0
  -18.1711   -1.8629   -5.6059 C   0  0  1  0  0  0  0  0  0  0  0  0
  -19.6387   -2.0300   -6.0006 C   0  0  0  0  0  0  0  0  0  0  0  0
  -19.7572   -1.9348   -7.5131 C   0  0  1  0  0  0  0  0  0  0  0  0
  -18.8895   -3.0061   -8.1505 C   0  0  1  0  0  0  0  0  0  0  0  0
  -18.9703   -2.9658   -9.6657 C   0  0  0  0  0  0  0  0  0  0  0  0
  -18.0246   -2.1018   -4.1345 N   0  3  0  0  0  0  0  0  0  0  0  0
  -20.3408   -3.4349  -10.0713 N   0  3  0  0  0  0  0  0  0  0  0  0
  -21.1095   -2.1034   -7.9142 O   0  0  0  0  0  0  0  0  0  0  0  0
  -17.5181   -2.7918   -7.7759 O   0  0  0  0  0  0  0  0  0  0  0  0
  1  2  1  0  0  0  0
  1 22  1  1  0  0  0
  1 10  1  0  0  0  0
  2  3  1  0  0  0  0
  2  7  1  1  0  0  0
  3  4  1  0  0  0  0
  3  8  1  6  0  0  0
  4  5  1  0  0  0  0
  4  9  1  1  0  0  0
  5  6  1  6  0  0  0
  5 10  1  0  0  0  0
  6 11  1  0  0  0  0
 12 13  1  0  0  0  0
 12 17  1  0  0  0  0
 12 18  1  6  0  0  0
 13 14  1  0  0  0  0
 14 15  1  0  0  0  0
 14 19  1  6  0  0  0
 15 16  1  0  0  0  0
 15 21  1  1  0  0  0
 16 17  1  0  0  0  0
 16 20  1  6  0  0  0
 17 22  1  1  0  0  0
 23 21  1  1  0  0  0
 23 24  1  0  0  0  0
 23 32  1  0  0  0  0
 24 25  1  0  0  0  0
 24 29  1  1  0  0  0
 25 26  1  0  0  0  0
 26 27  1  0  0  0  0
 26 31  1  1  0  0  0
 27 28  1  6  0  0  0
 27 32  1  0  0  0  0
 28 30  1  0  0  0  0
M  CHG  5   8   1  18   1  19   1  29   1  30   1
M  END
>  <CHROM.1>
-156.67730741,159.51289560,26.14811926,-56.91227353,68.46771957,170.32053443
60.10585723,-55.39179820,-166.29905599,82.54347391,148.57704174,164.18871101
71.62476662,-46.55472439,-70.02834317,-62.13284291,-15.30648369,-4.60682621
-7.15141151,0.27108641,0.13880598,-2.73992821

>  <Name>
2tob cryst

>  <RI>
3.75586e+07

>  <Rbt.Current_Directory>
/home/itssahil/PROJECTS/Mol_Feturizer/New_Systems/rnas/2tob

>  <Rbt.Executable>
rbdock ($Id: //depot/dev/client3/rdock/2013.1/src/exe/rbdock.cxx#4 $)

>  <Rbt.Library>
libRbt.so (2013.1, Build901 2013/11/27)

>  <Rbt.Parameter_File>
/export/apps/rDock/src/rDock_2013.1_src/data/scripts/dock_solv.prm

>  <Rbt.Receptor>
prm/pocket_docking_8.prm

>  <SCORE>
-33.2482

>  <SCORE.INTER>
-15.5258

>  <SCORE.INTER.CONST>
1

>  <SCORE.INTER.POLAR>
-2.79854

>  <SCORE.INTER.ROT>
6

>  <SCORE.INTER.SOLV>
11.6313

>  <SCORE.INTER.VDW>
-12.4992

>  <SCORE.INTER.norm>
-0.485181

>  <SCORE.INTRA>
-17.7319

>  <SCORE.INTRA.DIHEDRAL>
-1.37703

>  <SCORE.INTRA.DIHEDRAL.0>
18.4221

>  <SCORE.INTRA.POLAR>
0.911659

>  <SCORE.INTRA.POLAR.0>
-1.57101

>  <SCORE.INTRA.REPUL>
-0.730195

>  <SCORE.INTRA.REPUL.0>
0.730195

>  <SCORE.INTRA.SOLV>
-7.08045

>  <SCORE.INTRA.SOLV.lig_0>
-127.221

>  <SCORE.INTRA.VDW>
-12.9518

>  <SCORE.INTRA.VDW.0>
10.8385

>  <SCORE.INTRA.norm>
-0.554122

>  <SCORE.RESTR>
0.00947544

>  <SCORE.RESTR.CAVITY>
0.00947544

>  <SCORE.RESTR.norm>
0.000296108

>  <SCORE.SYSTEM>
0

>  <SCORE.SYSTEM.CONST>
0

>  <SCORE.SYSTEM.DIHEDRAL>
0

>  <SCORE.SYSTEM.SOLV>
0

>  <SCORE.SYSTEM.norm>
0

>  <SCORE.heavy>
32

>  <SCORE.norm>
-1.03901

>  <RMSD>
8.337

$$$$
2tob cryst
 OpenBabel11021811463D
libRbt.so/2013.1/901 2013/11/27
 32 34  0  0  0  0  0  0  0  0999 V2000
  -11.7787   -5.8640   -5.1401 C   0  0  2  0  0  0  0  0  0  0  0  0
  -11.1939   -7.0986   -5.8189 C   0  0  1  0  0  0  0  0  0  0  0  0
  -12.3068   -7.8201   -6.5795 C   0  0  2  0  0  0  0  0  0  0  0  0
  -13.4824   -8.1460   -5.6487 C   0  0  1  0  0  0  0  0  0  0  0  0
  -13.9301   -6.8813   -4.9078 C   0  0  1  0  0  0  0  0  0  0  0  0
  -14.9955   -7.1188   -3.8502 C   0  0  0  0  0  0  0  0  0  0  0  0
  -10.1610   -6.7147   -6.7226 O   0  0  0  0  0  0  0  0  0  0  0  0
  -11.9446   -9.0774   -7.3075 N   0  3  0  0  0  0  0  0  0  0  0  0
  -14.5581   -8.6588   -6.4248 O   0  0  0  0  0  0  0  0  0  0  0  0
  -12.8010   -6.2717   -4.2507 O   0  0  0  0  0  0  0  0  0  0  0  0
  -14.5413   -8.0499   -2.8733 O   0  0  0  0  0  0  0  0  0  0  0  0
  -11.9772   -3.0655   -4.7280 C   0  0  2  0  0  0  0  0  0  0  0  0
  -11.2453   -1.7347   -4.5081 C   0  0  0  0  0  0  0  0  0  0  0  0
   -9.7890   -1.7955   -4.9603 C   0  0  1  0  0  0  0  0  0  0  0  0
   -9.7573   -2.1993   -6.4280 C   0  0  2  0  0  0  0  0  0  0  0  0
  -10.3320   -3.6098   -6.5812 C   0  0  1  0  0  0  0  0  0  0  0  0
  -11.8066   -3.6422   -6.1423 C   0  0  1  0  0  0  0  0  0  0  0  0
  -13.4428   -2.9174   -4.4356 N   0  3  0  0  0  0  0  0  0  0  0  0
   -9.1013   -0.4816   -4.7392 N   0  3  0  0  0  0  0  0  0  0  0  0
  -10.2122   -4.0227   -7.9366 O   0  0  0  0  0  0  0  0  0  0  0  0
   -8.4101   -2.1595   -6.9329 O   0  0  0  0  0  0  0  0  0  0  0  0
  -12.2813   -5.0046   -6.1274 O   0  0  0  0  0  0  0  0  0  0  0  0
   -8.3407   -2.0416   -8.3272 C   0  0  2  0  0  0  0  0  0  0  0  0
   -6.8762   -2.0339   -8.7779 C   0  0  1  0  0  0  0  0  0  0  0  0
   -6.2097   -0.6964   -8.4549 C   0  0  0  0  0  0  0  0  0  0  0  0
   -7.0513    0.4280   -9.0365 C   0  0  1  0  0  0  0  0  0  0  0  0
   -8.4523    0.3555   -8.4545 C   0  0  1  0  0  0  0  0  0  0  0  0
   -9.3423    1.4602   -8.9946 C   0  0  0  0  0  0  0  0  0  0  0  0
   -6.1352   -3.1357   -8.0847 N   0  3  0  0  0  0  0  0  0  0  0  0
  -10.7697    0.9942   -8.9033 N   0  3  0  0  0  0  0  0  0  0  0  0
   -6.4665    1.6878   -8.7383 O   0  0  0  0  0  0  0  0  0  0  0  0
   -9.0489   -0.9040   -8.8076 O   0  0  0  0  0  0  0  0  0  0  0  0
  1  2  1  0  0  0  0
  1 22  1  6  0  0  0
  1 10  1  0  0  0  0
  2  3  1  0  0  0  0
  2  7  1  6  0  0  0
  3  4  1  0  0  0  0
  3  8  1  1  0  0  0
  4  5  1  0  0  0  0
  4  9  1  6  0  0  0
  5  6  1  1  0  0  0
  5 10  1  0  0  0  0
  6 11  1  0  0  0  0
 12 13  1  0  0  0  0
 12 17  1  0  0  0  0
 12 18  1  6  0  0  0
 13 14  1  0  0  0  0
 14 15  1  0  0  0  0
 14 19  1  6  0  0  0
 15 16  1  0  0  0  0
 15 21  1  1  0  0  0
 16 17  1  0  0  0  0
 16 20  1  6  0  0  0
 17 22  1  1  0  0  0
 23 21  1  1  0  0  0
 23 24  1  0  0  0  0
 23 32  1  0  0  0  0
 24 25  1  0  0  0  0
 24 29  1  1  0  0  0
 25 26  1  0  0  0  0
 26 27  1  0  0  0  0
 26 31  1  1  0  0  0
 27 28  1  6  0  0  0
 27 32  1  0  0  0  0
 28 30  1  0  0  0  0
M  CHG  5   8   1  18   1  19   1  29   1  30   1
M  END
>  <CHROM.1>
-125.29081125,65.18821958,-17.76659024,62.74640387,58.26367999,-52.15232616
63.33886480,61.84094206,-158.35086536,-65.09467357,-51.56747904,-178.92203400
74.05810994,63.91052177,154.71793230,83.91494600,-10.59620242,-3.65428916
-6.55701890,2.38783840,-0.67357934,-2.95919307

>  <Name>
2tob cryst

>  <RI>
3.35201e+07

>  <Rbt.Current_Directory>
/home/itssahil/PROJECTS/Mol_Feturizer/New_Systems/rnas/2tob

>  <Rbt.Executable>
rbdock ($Id: //depot/dev/client3/rdock/2013.1/src/exe/rbdock.cxx#4 $)

>  <Rbt.Library>
libRbt.so (2013.1, Build901 2013/11/27)

>  <Rbt.Parameter_File>
/export/apps/rDock/src/rDock_2013.1_src/data/scripts/dock_solv.prm

>  <Rbt.Receptor>
prm/pocket_docking_4.prm

>  <SCORE>
-50.56

>  <SCORE.INTER>
-33.151

>  <SCORE.INTER.CONST>
1

>  <SCORE.INTER.POLAR>
-5.17335

>  <SCORE.INTER.ROT>
6

>  <SCORE.INTER.SOLV>
30.7641

>  <SCORE.INTER.VDW>
-22.7108

>  <SCORE.INTER.norm>
-1.03597

>  <SCORE.INTRA>
-17.5504

>  <SCORE.INTRA.DIHEDRAL>
-1.50382

>  <SCORE.INTRA.DIHEDRAL.0>
18.4221

>  <SCORE.INTRA.POLAR>
1.18275

>  <SCORE.INTRA.POLAR.0>
-1.57101

>  <SCORE.INTRA.REPUL>
-0.730195

>  <SCORE.INTRA.REPUL.0>
0.730195

>  <SCORE.INTRA.SOLV>
-7.34861

>  <SCORE.INTRA.SOLV.lig_0>
-127.221

>  <SCORE.INTRA.VDW>
-13.4946

>  <SCORE.INTRA.VDW.0>
10.8385

>  <SCORE.INTRA.norm>
-0.54845

>  <SCORE.RESTR>
0.141385

>  <SCORE.RESTR.CAVITY>
0.141385

>  <SCORE.RESTR.norm>
0.00441827

>  <SCORE.SYSTEM>
0

>  <SCORE.SYSTEM.CONST>
0

>  <SCORE.SYSTEM.DIHEDRAL>
0

>  <SCORE.SYSTEM.SOLV>
0

>  <SCORE.SYSTEM.norm>
0

>  <SCORE.heavy>
32

>  <SCORE.norm>
-1.58

>  <RMSD>
8.338

$$$$
2tob cryst
 OpenBabel11021811463D
libRbt.so/2013.1/901 2013/11/27
 32 34  0  0  0  0  0  0  0  0999 V2000
  -14.6780   -6.5513   -6.0456 C   0  0  2  0  0  0  0  0  0  0  0  0
  -15.4844   -7.2005   -4.9252 C   0  0  1  0  0  0  0  0  0  0  0  0
  -14.5807   -7.3832   -3.7055 C   0  0  2  0  0  0  0  0  0  0  0  0
  -13.3187   -8.1744   -4.0742 C   0  0  1  0  0  0  0  0  0  0  0  0
  -12.6346   -7.5340   -5.2870 C   0  0  1  0  0  0  0  0  0  0  0  0
  -11.4524   -8.3217   -5.8277 C   0  0  0  0  0  0  0  0  0  0  0  0
  -16.5960   -6.3765   -4.5841 O   0  0  0  0  0  0  0  0  0  0  0  0
  -15.1781   -8.0248   -2.4917 N   0  3  0  0  0  0  0  0  0  0  0  0
  -12.4320   -8.1747   -2.9624 O   0  0  0  0  0  0  0  0  0  0  0  0
  -13.5815   -7.3871   -6.3640 O   0  0  0  0  0  0  0  0  0  0  0  0
  -11.8528   -9.6303   -6.2214 O   0  0  0  0  0  0  0  0  0  0  0  0
  -14.3770   -3.7878   -7.4932 C   0  0  2  0  0  0  0  0  0  0  0  0
  -13.6937   -2.6889   -8.3182 C   0  0  0  0  0  0  0  0  0  0  0  0
  -12.8854   -1.7315   -7.4468 C   0  0  1  0  0  0  0  0  0  0  0  0
  -11.8617   -2.5417   -6.6635 C   0  0  2  0  0  0  0  0  0  0  0  0
  -12.5871   -3.5023   -5.7179 C   0  0  1  0  0  0  0  0  0  0  0  0
  -13.4344   -4.5084   -6.5165 C   0  0  1  0  0  0  0  0  0  0  0  0
  -15.0157   -4.8053   -8.3944 N   0  3  0  0  0  0  0  0  0  0  0  0
  -12.2253   -0.6733   -8.2790 N   0  3  0  0  0  0  0  0  0  0  0  0
  -11.6316   -4.1878   -4.9185 O   0  0  0  0  0  0  0  0  0  0  0  0
  -10.9974   -1.6703   -5.9117 O   0  0  0  0  0  0  0  0  0  0  0  0
  -14.2432   -5.2905   -5.6131 O   0  0  0  0  0  0  0  0  0  0  0  0
   -9.7451   -2.2328   -5.6323 C   0  0  2  0  0  0  0  0  0  0  0  0
   -8.8657   -1.2119   -4.9027 C   0  0  1  0  0  0  0  0  0  0  0  0
   -8.3639   -0.1337   -5.8635 C   0  0  0  0  0  0  0  0  0  0  0  0
   -7.6933   -0.8043   -7.0516 C   0  0  1  0  0  0  0  0  0  0  0  0
   -8.6890   -1.7281   -7.7311 C   0  0  1  0  0  0  0  0  0  0  0  0
   -8.0780   -2.4252   -8.9331 C   0  0  0  0  0  0  0  0  0  0  0  0
   -9.6555   -0.5674   -3.8052 N   0  3  0  0  0  0  0  0  0  0  0  0
   -6.8708   -3.1901   -8.4635 N   0  3  0  0  0  0  0  0  0  0  0  0
   -7.2300    0.1723   -7.9733 O   0  0  0  0  0  0  0  0  0  0  0  0
   -9.1096   -2.7402   -6.8008 O   0  0  0  0  0  0  0  0  0  0  0  0
  1  2  1  0  0  0  0
  1 22  1  1  0  0  0
  1 10  1  0  0  0  0
  2  3  1  0  0  0  0
  2  7  1  1  0  0  0
  3  4  1  0  0  0  0
  3  8  1  1  0  0  0
  4  5  1  0  0  0  0
  4  9  1  1  0  0  0
  5  6  1  6  0  0  0
  5 10  1  0  0  0  0
  6 11  1  0  0  0  0
 12 13  1  0  0  0  0
 12 17  1  0  0  0  0
 12 18  1  6  0  0  0
 13 14  1  0  0  0  0
 14 15  1  0  0  0  0
 14 19  1  6  0  0  0
 15 16  1  0  0  0  0
 15 21  1  1  0  0  0
 16 17  1  0  0  0  0
 16 20  1  6  0  0  0
 17 22  1  1  0  0  0
 23 21  1  6  0  0  0
 23 24  1  0  0  0  0
 23 32  1  0  0  0  0
 24 25  1  0  0  0  0
 24 29  1  1  0  0  0
 25 26  1  0  0  0  0
 26 27  1  0  0  0  0
 26 31  1  6  0  0  0
 27 28  1  6  0  0  0
 27 32  1  0  0  0  0
 28 30  1  0  0  0  0
M  CHG  5   8   1  18   1  19   1  29   1  30   1
M  END
>  <CHROM.1>
178.84022510,179.45025630,-176.81204121,176.85016325,59.08478216,-175.99723012
-40.11081824,-70.49166688,-154.86393592,-59.96854964,82.55132201,176.78092651
175.69419043,-57.37551962,57.79018439,35.15902000,-11.83650688,-4.24472505
-6.07913468,2.26055282,0.11629022,2.69932390

>  <Name>
2tob cryst

>  <RI>
3.35201e+07

>  <Rbt.Current_Directory>
/home/itssahil/PROJECTS/Mol_Feturizer/New_Systems/rnas/2tob

>  <Rbt.Executable>
rbdock ($Id: //depot/dev/client3/rdock/2013.1/src/exe/rbdock.cxx#4 $)

>  <Rbt.Library>
libRbt.so (2013.1, Build901 2013/11/27)

>  <Rbt.Parameter_File>
/export/apps/rDock/src/rDock_2013.1_src/data/scripts/dock_solv.prm

>  <Rbt.Receptor>
prm/pocket_docking_4.prm

>  <SCORE>
-49.6527

>  <SCORE.INTER>
-28.5796

>  <SCORE.INTER.CONST>
1

>  <SCORE.INTER.POLAR>
-4.73335

>  <SCORE.INTER.ROT>
6

>  <SCORE.INTER.SOLV>
22.3055

>  <SCORE.INTER.VDW>
-18.3104

>  <SCORE.INTER.norm>
-0.893112

>  <SCORE.INTRA>
-21.6551

>  <SCORE.INTRA.DIHEDRAL>
-10.5092

>  <SCORE.INTRA.DIHEDRAL.0>
18.4221

>  <SCORE.INTRA.POLAR>
1.47046

>  <SCORE.INTRA.POLAR.0>
-1.57101

>  <SCORE.INTRA.REPUL>
-0.730195

>  <SCORE.INTRA.REPUL.0>
0.730195

>  <SCORE.INTRA.SOLV>
-6.47168

>  <SCORE.INTRA.SOLV.lig_0>
-127.221

>  <SCORE.INTRA.VDW>
-14.5133

>  <SCORE.INTRA.VDW.0>
10.8385

>  <SCORE.INTRA.norm>
-0.676723

>  <SCORE.RESTR>
0.582006

>  <SCORE.RESTR.CAVITY>
0.582006

>  <SCORE.RESTR.norm>
0.0181877

>  <SCORE.SYSTEM>
0

>  <SCORE.SYSTEM.CONST>
0

>  <SCORE.SYSTEM.DIHEDRAL>
0

>  <SCORE.SYSTEM.SOLV>
0

>  <SCORE.SYSTEM.norm>
0

>  <SCORE.heavy>
32

>  <SCORE.norm>
-1.55165

>  <RMSD>
8.340

$$$$
2tob cryst
 OpenBabel11021811463D
libRbt.so/2013.1/901 2013/11/27
 32 34  0  0  0  0  0  0  0  0999 V2000
  -11.9027   -6.7827   -6.5646 C   0  0  2  0  0  0  0  0  0  0  0  0
  -12.9463   -7.8922   -6.6484 C   0  0  1  0  0  0  0  0  0  0  0  0
  -12.8979   -8.7166   -5.3617 C   0  0  2  0  0  0  0  0  0  0  0  0
  -11.4800   -9.2432   -5.1032 C   0  0  1  0  0  0  0  0  0  0  0  0
  -10.4737   -8.0887   -5.1613 C   0  0  1  0  0  0  0  0  0  0  0  0
   -9.0195   -8.5196   -5.0625 C   0  0  0  0  0  0  0  0  0  0  0  0
  -14.2448   -7.3286   -6.8129 O   0  0  0  0  0  0  0  0  0  0  0  0
  -13.8386   -9.8758   -5.2470 N   0  3  0  0  0  0  0  0  0  0  0  0
  -11.4410   -9.8553   -3.8202 O   0  0  0  0  0  0  0  0  0  0  0  0
  -10.6247   -7.3677   -6.4004 O   0  0  0  0  0  0  0  0  0  0  0  0
   -8.7565   -9.1316   -3.8039 O   0  0  0  0  0  0  0  0  0  0  0  0
  -12.3220   -3.8456   -4.3101 C   0  0  2  0  0  0  0  0  0  0  0  0
  -11.9385   -2.3598   -4.2893 C   0  0  0  0  0  0  0  0  0  0  0  0
  -10.5489   -2.1144   -4.8709 C   0  0  1  0  0  0  0  0  0  0  0  0
  -10.5167   -2.6662   -6.2895 C   0  0  2  0  0  0  0  0  0  0  0  0
  -10.7239   -4.1824   -6.2517 C   0  0  1  0  0  0  0  0  0  0  0  0
  -12.1082   -4.5235   -5.6727 C   0  0  1  0  0  0  0  0  0  0  0  0
  -13.7536   -4.0278   -3.8944 N   0  3  0  0  0  0  0  0  0  0  0  0
  -10.2037   -0.6556   -4.8430 N   0  3  0  0  0  0  0  0  0  0  0  0
  -10.5966   -4.7082   -7.5667 O   0  0  0  0  0  0  0  0  0  0  0  0
   -9.2616   -2.3568   -6.9225 O   0  0  0  0  0  0  0  0  0  0  0  0
  -12.2195   -5.9494   -5.4824 O   0  0  0  0  0  0  0  0  0  0  0  0
   -9.3464   -2.2761   -8.3185 C   0  0  2  0  0  0  0  0  0  0  0  0
   -7.9675   -2.5215   -8.9400 C   0  0  1  0  0  0  0  0  0  0  0  0
   -7.0557   -1.3093   -8.7488 C   0  0  0  0  0  0  0  0  0  0  0  0
   -7.7665   -0.0699   -9.2679 C   0  0  1  0  0  0  0  0  0  0  0  0
   -9.0777    0.1033   -8.5213 C   0  0  1  0  0  0  0  0  0  0  0  0
   -9.8339    1.3321   -8.9928 C   0  0  0  0  0  0  0  0  0  0  0  0
   -7.3377   -3.7199   -8.2990 N   0  3  0  0  0  0  0  0  0  0  0  0
   -8.9773    2.5385   -8.7209 N   0  3  0  0  0  0  0  0  0  0  0  0
   -6.9504    1.0790   -9.0887 O   0  0  0  0  0  0  0  0  0  0  0  0
   -9.9119   -1.0442   -8.7537 O   0  0  0  0  0  0  0  0  0  0  0  0
  1  2  1  0  0  0  0
  1 22  1  1  0  0  0
  1 10  1  0  0  0  0
  2  3  1  0  0  0  0
  2  7  1  1  0  0  0
  3  4  1  0  0  0  0
  3  8  1  6  0  0  0
  4  5  1  0  0  0  0
  4  9  1  1  0  0  0
  5  6  1  6  0  0  0
  5 10  1  0  0  0  0
  6 11  1  0  0  0  0
 12 13  1  0  0  0  0
 12 17  1  0  0  0  0
 12 18  1  6  0  0  0
 13 14  1  0  0  0  0
 14 15  1  0  0  0  0
 14 19  1  6  0  0  0
 15 16  1  0  0  0  0
 15 21  1  1  0  0  0
 16 17  1  0  0  0  0
 16 20  1  6  0  0  0
 17 22  1  1  0  0  0
 23 21  1  1  0  0  0
 23 24  1  0  0  0  0
 23 32  1  0  0  0  0
 24 25  1  0  0  0  0
 24 29  1  1  0  0  0
 25 26  1  0  0  0  0
 26 27  1  0  0  0  0
 26 31  1  1  0  0  0
 27 28  1  6  0  0  0
 27 32  1  0  0  0  0
 28 30  1  0  0  0  0
M  CHG  5   8   1  18   1  19   1  29   1  30   1
M  END
>  <CHROM.1>
-137.21865269,-54.27462462,69.59236513,-49.11339030,-63.28770417,59.74143489
-167.32883001,38.99362890,-153.19771574,-55.96189712,-172.58887118,-156.85258019
25.66954347,-45.97178553,-61.19602748,-66.36961758,-10.50554564,-4.26183551
-6.48256018,-1.97455761,0.48934981,-0.17220456

>  <Name>
2tob cryst

>  <RI>
2.10184e+07

>  <Rbt.Current_Directory>
/home/itssahil/PROJECTS/Mol_Feturizer/New_Systems/rnas/2tob

>  <Rbt.Executable>
rbdock ($Id: //depot/dev/client3/rdock/2013.1/src/exe/rbdock.cxx#4 $)

>  <Rbt.Library>
libRbt.so (2013.1, Build901 2013/11/27)

>  <Rbt.Parameter_File>
/export/apps/rDock/src/rDock_2013.1_src/data/scripts/dock_solv.prm

>  <Rbt.Receptor>
prm/pocket_docking_7.prm

>  <SCORE>
-47.7711

>  <SCORE.INTER>
-30.1099

>  <SCORE.INTER.CONST>
1

>  <SCORE.INTER.POLAR>
-4.41091

>  <SCORE.INTER.ROT>
6

>  <SCORE.INTER.SOLV>
25.5844

>  <SCORE.INTER.VDW>
-21.4983

>  <SCORE.INTER.norm>
-0.940934

>  <SCORE.INTRA>
-17.6612

>  <SCORE.INTRA.DIHEDRAL>
-1.16483

>  <SCORE.INTRA.DIHEDRAL.0>
18.4221

>  <SCORE.INTRA.POLAR>
0.529531

>  <SCORE.INTRA.POLAR.0>
-1.57101

>  <SCORE.INTRA.REPUL>
-0.730195

>  <SCORE.INTRA.REPUL.0>
0.730195

>  <SCORE.INTRA.SOLV>
-6.44776

>  <SCORE.INTRA.SOLV.lig_0>
-127.221

>  <SCORE.INTRA.VDW>
-12.0044

>  <SCORE.INTRA.VDW.0>
10.8385

>  <SCORE.INTRA.norm>
-0.551914

>  <SCORE.RESTR>
0

>  <SCORE.RESTR.CAVITY>
0

>  <SCORE.RESTR.norm>
0

>  <SCORE.SYSTEM>
0

>  <SCORE.SYSTEM.CONST>
0

>  <SCORE.SYSTEM.DIHEDRAL>
0

>  <SCORE.SYSTEM.SOLV>
0

>  <SCORE.SYSTEM.norm>
0

>  <SCORE.heavy>
32

>  <SCORE.norm>
-1.49285

>  <RMSD>
8.347

$$$$
2tob cryst
 OpenBabel11021811463D
libRbt.so/2013.1/901 2013/11/27
 32 34  0  0  0  0  0  0  0  0999 V2000
  -11.7295   -5.9749   -6.0451 C   0  0  2  0  0  0  0  0  0  0  0  0
  -11.3097   -7.2090   -6.8374 C   0  0  1  0  0  0  0  0  0  0  0  0
  -12.5203   -8.1284   -7.0012 C   0  0  2  0  0  0  0  0  0  0  0  0
  -13.1355   -8.4701   -5.6377 C   0  0  1  0  0  0  0  0  0  0  0  0
  -13.4109   -7.1843   -4.8503 C   0  0  1  0  0  0  0  0  0  0  0  0
  -13.8872   -7.4124   -3.4251 C   0  0  0  0  0  0  0  0  0  0  0  0
  -10.8194   -6.8223   -8.1183 O   0  0  0  0  0  0  0  0  0  0  0  0
  -12.3172   -9.4145   -7.7406 N   0  3  0  0  0  0  0  0  0  0  0  0
  -14.3498   -9.1811   -5.8435 O   0  0  0  0  0  0  0  0  0  0  0  0
  -12.2128   -6.3856   -4.7801 O   0  0  0  0  0  0  0  0  0  0  0  0
  -15.0763   -8.1956   -3.4072 O   0  0  0  0  0  0  0  0  0  0  0  0
  -13.4266   -3.3542   -8.0123 C   0  0  2  0  0  0  0  0  0  0  0  0
  -13.0123   -2.1349   -8.8469 C   0  0  0  0  0  0  0  0  0  0  0  0
  -11.7250   -1.4951   -8.3341 C   0  0  1  0  0  0  0  0  0  0  0  0
  -10.6296   -2.5524   -8.3323 C   0  0  2  0  0  0  0  0  0  0  0  0
  -10.9977   -3.6661   -7.3487 C   0  0  1  0  0  0  0  0  0  0  0  0
  -12.2938   -4.3687   -7.7895 C   0  0  1  0  0  0  0  0  0  0  0  0
  -14.5926   -4.0571   -8.6460 N   0  3  0  0  0  0  0  0  0  0  0  0
  -11.3419   -0.3113   -9.1708 N   0  3  0  0  0  0  0  0  0  0  0  0
   -9.9299   -4.6024   -7.2761 O   0  0  0  0  0  0  0  0  0  0  0  0
   -9.3663   -1.9690   -7.9646 O   0  0  0  0  0  0  0  0  0  0  0  0
  -12.7195   -5.2934   -6.7670 O   0  0  0  0  0  0  0  0  0  0  0  0
   -8.4943   -1.7996   -9.0480 C   0  0  2  0  0  0  0  0  0  0  0  0
   -7.0420   -1.8890   -8.5677 C   0  0  1  0  0  0  0  0  0  0  0  0
   -6.6343   -0.6228   -7.8139 C   0  0  0  0  0  0  0  0  0  0  0  0
   -6.9345    0.5876   -8.6832 C   0  0  1  0  0  0  0  0  0  0  0  0
   -8.4141    0.6021   -9.0253 C   0  0  1  0  0  0  0  0  0  0  0  0
   -8.7786    1.7950   -9.8904 C   0  0  0  0  0  0  0  0  0  0  0  0
   -6.8876   -3.0735   -7.6640 N   0  3  0  0  0  0  0  0  0  0  0  0
   -8.7327    3.0266   -9.0278 N   0  3  0  0  0  0  0  0  0  0  0  0
   -6.5819    1.7839   -8.0030 O   0  0  0  0  0  0  0  0  0  0  0  0
   -8.7443   -0.5906   -9.7569 O   0  0  0  0  0  0  0  0  0  0  0  0
  1  2  1  0  0  0  0
  1 22  1  6  0  0  0
  1 10  1  0  0  0  0
  2  3  1  0  0  0  0
  2  7  1  6  0  0  0
  3  4  1  0  0  0  0
  3  8  1  1  0  0  0
  4  5  1  0  0  0  0
  4  9  1  6  0  0  0
  5  6  1  1  0  0  0
  5 10  1  0  0  0  0
  6 11  1  0  0  0  0
 12 13  1  0  0  0  0
 12 17  1  0  0  0  0
 12 18  1  6  0  0  0
 13 14  1  0  0  0  0
 14 15  1  0  0  0  0
 14 19  1  6  0  0  0
 15 16  1  0  0  0  0
 15 21  1  1  0  0  0
 16 17  1  0  0  0  0
 16 20  1  6  0  0  0
 17 22  1  1  0  0  0
 23 21  1  1  0  0  0
 23 24  1  0  0  0  0
 23 32  1  0  0  0  0
 24 25  1  0  0  0  0
 24 29  1  1  0  0  0
 25 26  1  0  0  0  0
 26 27  1  0  0  0  0
 26 31  1  1  0  0  0
 27 28  1  6  0  0  0
 27 32  1  0  0  0  0
 28 30  1  0  0  0  0
M  CHG  5   8   1  18   1  19   1  29   1  30   1
M  END
>  <CHROM.1>
-84.46979064,51.28325435,160.31119236,-169.70366785,-57.95809952,179.93583399
157.14912898,-100.59364829,-105.07931061,60.59439533,-156.62288606,-150.78390037
65.23876744,-55.87903798,-72.51336031,-164.71910509,-10.88674537,-3.71304475
-7.47939073,-2.10499090,-0.02262669,-0.37627128

>  <Name>
2tob cryst

>  <RI>
2.9538e+07

>  <Rbt.Current_Directory>
/home/itssahil/PROJECTS/Mol_Feturizer/New_Systems/rnas/2tob

>  <Rbt.Executable>
rbdock ($Id: //depot/dev/client3/rdock/2013.1/src/exe/rbdock.cxx#4 $)

>  <Rbt.Library>
libRbt.so (2013.1, Build901 2013/11/27)

>  <Rbt.Parameter_File>
/export/apps/rDock/src/rDock_2013.1_src/data/scripts/dock_solv.prm

>  <Rbt.Receptor>
prm/pocket_docking_2.prm

>  <SCORE>
-45.2453

>  <SCORE.INTER>
-30.6777

>  <SCORE.INTER.CONST>
1

>  <SCORE.INTER.POLAR>
-5.56366

>  <SCORE.INTER.ROT>
6

>  <SCORE.INTER.SOLV>
33.5415

>  <SCORE.INTER.VDW>
-20.6868

>  <SCORE.INTER.norm>
-0.95868

>  <SCORE.INTRA>
-17.1273

>  <SCORE.INTRA.DIHEDRAL>
3.11918

>  <SCORE.INTRA.DIHEDRAL.0>
18.4221

>  <SCORE.INTRA.POLAR>
-1.07377

>  <SCORE.INTRA.POLAR.0>
-1.57101

>  <SCORE.INTRA.REPUL>
-0.730195

>  <SCORE.INTRA.REPUL.0>
0.730195

>  <SCORE.INTRA.SOLV>
-1.38639

>  <SCORE.INTRA.SOLV.lig_0>
-127.221

>  <SCORE.INTRA.VDW>
-10.6919

>  <SCORE.INTRA.VDW.0>
10.8385

>  <SCORE.INTRA.norm>
-0.535227

>  <SCORE.RESTR>
2.55977

>  <SCORE.RESTR.CAVITY>
2.55977

>  <SCORE.RESTR.norm>
0.0799929

>  <SCORE.SYSTEM>
0

>  <SCORE.SYSTEM.CONST>
0

>  <SCORE.SYSTEM.DIHEDRAL>
0

>  <SCORE.SYSTEM.SOLV>
0

>  <SCORE.SYSTEM.norm>
0

>  <SCORE.heavy>
32

>  <SCORE.norm>
-1.41391

>  <RMSD>
8.350

$$$$
2tob cryst
 OpenBabel11021811463D
libRbt.so/2013.1/901 2013/11/27
 32 34  0  0  0  0  0  0  0  0999 V2000
  -13.6976   -5.6737   -7.8326 C   0  0  2  0  0  0  0  0  0  0  0  0
  -15.1564   -5.7678   -8.2686 C   0  0  1  0  0  0  0  0  0  0  0  0
  -15.9390   -6.5525   -7.2153 C   0  0  2  0  0  0  0  0  0  0  0  0
  -15.2964   -7.9235   -6.9660 C   0  0  1  0  0  0  0  0  0  0  0  0
  -13.8042   -7.7547   -6.6599 C   0  0  1  0  0  0  0  0  0  0  0  0
  -13.0377   -9.0616   -6.5392 C   0  0  0  0  0  0  0  0  0  0  0  0
  -15.7088   -4.4616   -8.4077 O   0  0  0  0  0  0  0  0  0  0  0  0
  -17.3989   -6.7756   -7.4620 N   0  3  0  0  0  0  0  0  0  0  0  0
  -15.9487   -8.5467   -5.8667 O   0  0  0  0  0  0  0  0  0  0  0  0
  -13.1739   -6.9817   -7.7007 O   0  0  0  0  0  0  0  0  0  0  0  0
  -13.4004   -9.7539   -5.3489 O   0  0  0  0  0  0  0  0  0  0  0  0
  -13.3131   -3.0244   -5.2441 C   0  0  2  0  0  0  0  0  0  0  0  0
  -12.4989   -1.7494   -4.9863 C   0  0  0  0  0  0  0  0  0  0  0  0
  -11.0150   -1.9416   -5.2869 C   0  0  1  0  0  0  0  0  0  0  0  0
  -10.8720   -2.3971   -6.7327 C   0  0  2  0  0  0  0  0  0  0  0  0
  -11.5435   -3.7617   -6.9061 C   0  0  1  0  0  0  0  0  0  0  0  0
  -13.0518   -3.6613   -6.6182 C   0  0  1  0  0  0  0  0  0  0  0  0
  -14.7831   -2.7499   -5.1058 N   0  3  0  0  0  0  0  0  0  0  0  0
  -10.2463   -0.6798   -5.0319 N   0  3  0  0  0  0  0  0  0  0  0  0
  -11.3249   -4.2294   -8.2310 O   0  0  0  0  0  0  0  0  0  0  0  0
   -9.4828   -2.4822   -7.0994 O   0  0  0  0  0  0  0  0  0  0  0  0
  -13.6368   -4.9803   -6.6155 O   0  0  0  0  0  0  0  0  0  0  0  0
   -9.2500   -2.2444   -8.4602 C   0  0  2  0  0  0  0  0  0  0  0  0
   -7.7488   -2.3295   -8.7554 C   0  0  1  0  0  0  0  0  0  0  0  0
   -7.0159   -1.0936   -8.2329 C   0  0  0  0  0  0  0  0  0  0  0  0
   -7.6939    0.1514   -8.7817 C   0  0  1  0  0  0  0  0  0  0  0  0
   -9.1520    0.1545   -8.3566 C   0  0  1  0  0  0  0  0  0  0  0  0
   -9.8841    1.3806   -8.8712 C   0  0  0  0  0  0  0  0  0  0  0  0
   -7.1811   -3.5531   -8.1042 N   0  3  0  0  0  0  0  0  0  0  0  0
  -11.3599    1.0921   -8.8316 N   0  3  0  0  0  0  0  0  0  0  0  0
   -7.0454    1.3200   -8.3000 O   0  0  0  0  0  0  0  0  0  0  0  0
   -9.8059   -1.0076   -8.8939 O   0  0  0  0  0  0  0  0  0  0  0  0
  1  2  1  0  0  0  0
  1 22  1  1  0  0  0
  1 10  1  0  0  0  0
  2  3  1  0  0  0  0
  2  7  1  1  0  0  0
  3  4  1  0  0  0  0
  3  8  1  6  0  0  0
  4  5  1  0  0  0  0
  4  9  1  1  0  0  0
  5  6  1  6  0  0  0
  5 10  1  0  0  0  0
  6 11  1  0  0  0  0
 12 13  1  0  0  0  0
 12 17  1  0  0  0  0
 12 18  1  6  0  0  0
 13 14  1  0  0  0  0
 14 15  1  0  0  0  0
 14 19  1  6  0  0  0
 15 16  1  0  0  0  0
 15 21  1  1  0  0  0
 16 17  1  0  0  0  0
 16 20  1  6  0  0  0
 17 22  1  1  0  0  0
 23 21  1  1  0  0  0
 23 24  1  0  0  0  0
 23 32  1  0  0  0  0
 24 25  1  0  0  0  0
 24 29  1  1  0  0  0
 25 26  1  0  0  0  0
 26 27  1  0  0  0  0
 26 31  1  1  0  0  0
 27 28  1  6  0  0  0
 27 32  1  0  0  0  0
 28 30  1  0  0  0  0
M  CHG  5   8   1  18   1  19   1  29   1  30   1
M  END
>  <CHROM.1>
-110.53995717,-173.80081212,74.68189341,67.37627720,-70.71018171,52.67833172
-51.48997475,47.29035591,-150.49166613,73.80682043,170.61189680,178.96987817
-9.86752327,-56.10182828,160.81354038,-28.28812501,-11.92441291,-3.67027566
-7.23196889,-2.31803821,0.18131408,-0.02411912

>  <Name>
2tob cryst

>  <RI>
2.10184e+07

>  <Rbt.Current_Directory>
/home/itssahil/PROJECTS/Mol_Feturizer/New_Systems/rnas/2tob

>  <Rbt.Executable>
rbdock ($Id: //depot/dev/client3/rdock/2013.1/src/exe/rbdock.cxx#4 $)

>  <Rbt.Library>
libRbt.so (2013.1, Build901 2013/11/27)

>  <Rbt.Parameter_File>
/export/apps/rDock/src/rDock_2013.1_src/data/scripts/dock_solv.prm

>  <Rbt.Receptor>
prm/pocket_docking_7.prm

>  <SCORE>
-50.6225

>  <SCORE.INTER>
-32.7157

>  <SCORE.INTER.CONST>
1

>  <SCORE.INTER.POLAR>
-5.1806

>  <SCORE.INTER.ROT>
6

>  <SCORE.INTER.SOLV>
28.4673

>  <SCORE.INTER.VDW>
-21.6308

>  <SCORE.INTER.norm>
-1.02236

>  <SCORE.INTRA>
-17.9069

>  <SCORE.INTRA.DIHEDRAL>
2.1805

>  <SCORE.INTRA.DIHEDRAL.0>
18.4221

>  <SCORE.INTRA.POLAR>
0.414675

>  <SCORE.INTRA.POLAR.0>
-1.57101

>  <SCORE.INTRA.REPUL>
-0.730195

>  <SCORE.INTRA.REPUL.0>
0.730195

>  <SCORE.INTRA.SOLV>
-6.51698

>  <SCORE.INTRA.SOLV.lig_0>
-127.221

>  <SCORE.INTRA.VDW>
-13.4976

>  <SCORE.INTRA.VDW.0>
10.8385

>  <SCORE.INTRA.norm>
-0.55959

>  <SCORE.RESTR>
0

>  <SCORE.RESTR.CAVITY>
0

>  <SCORE.RESTR.norm>
0

>  <SCORE.SYSTEM>
0

>  <SCORE.SYSTEM.CONST>
0

>  <SCORE.SYSTEM.DIHEDRAL>
0

>  <SCORE.SYSTEM.SOLV>
0

>  <SCORE.SYSTEM.norm>
0

>  <SCORE.heavy>
32

>  <SCORE.norm>
-1.58195

>  <RMSD>
8.350

$$$$
2tob cryst
 OpenBabel11021811463D
libRbt.so/2013.1/901 2013/11/27
 32 34  0  0  0  0  0  0  0  0999 V2000
  -11.3296   -1.3656   -9.1041 C   0  0  2  0  0  0  0  0  0  0  0  0
  -12.6978   -0.6985   -9.2043 C   0  0  1  0  0  0  0  0  0  0  0  0
  -13.6940   -1.4792   -8.3466 C   0  0  2  0  0  0  0  0  0  0  0  0
  -13.7166   -2.9603   -8.7470 C   0  0  1  0  0  0  0  0  0  0  0  0
  -12.2918   -3.5250   -8.7461 C   0  0  1  0  0  0  0  0  0  0  0  0
  -12.1815   -4.9479   -9.2689 C   0  0  0  0  0  0  0  0  0  0  0  0
  -12.6178    0.6488   -8.7468 O   0  0  0  0  0  0  0  0  0  0  0  0
  -15.1110   -0.9964   -8.3198 N   0  3  0  0  0  0  0  0  0  0  0  0
  -14.5221   -3.6775   -7.8201 O   0  0  0  0  0  0  0  0  0  0  0  0
  -11.4363   -2.7002   -9.5622 O   0  0  0  0  0  0  0  0  0  0  0  0
  -13.2242   -5.7631   -8.7435 O   0  0  0  0  0  0  0  0  0  0  0  0
   -9.0417   -2.7624   -7.2560 C   0  0  2  0  0  0  0  0  0  0  0  0
   -7.5192   -2.9546   -7.2641 C   0  0  0  0  0  0  0  0  0  0  0  0
   -6.8657   -2.3325   -8.4951 C   0  0  1  0  0  0  0  0  0  0  0  0
   -7.2291   -0.8546   -8.5377 C   0  0  2  0  0  0  0  0  0  0  0  0
   -8.7426   -0.7066   -8.7124 C   0  0  1  0  0  0  0  0  0  0  0  0
   -9.4865   -1.3134   -7.5098 C   0  0  1  0  0  0  0  0  0  0  0  0
   -9.6267   -3.2309   -5.9546 N   0  3  0  0  0  0  0  0  0  0  0  0
   -5.3796   -2.5304   -8.4734 N   0  3  0  0  0  0  0  0  0  0  0  0
   -9.0685    0.6707   -8.8496 O   0  0  0  0  0  0  0  0  0  0  0  0
   -6.5424   -0.1976   -9.6186 O   0  0  0  0  0  0  0  0  0  0  0  0
  -10.9060   -1.3225   -7.7683 O   0  0  0  0  0  0  0  0  0  0  0  0
   -5.4513    0.5741   -9.1985 C   0  0  2  0  0  0  0  0  0  0  0  0
   -5.7398    2.0598   -9.4382 C   0  0  1  0  0  0  0  0  0  0  0  0
   -5.6383    2.4058  -10.9240 C   0  0  0  0  0  0  0  0  0  0  0  0
   -4.2919    1.9351  -11.4498 C   0  0  1  0  0  0  0  0  0  0  0  0
   -4.1621    0.4391  -11.2221 C   0  0  1  0  0  0  0  0  0  0  0  0
   -2.8358   -0.0935  -11.7334 C   0  0  0  0  0  0  0  0  0  0  0  0
   -7.1169    2.3859   -8.9476 N   0  3  0  0  0  0  0  0  0  0  0  0
   -1.7858    0.9540  -11.4822 N   0  3  0  0  0  0  0  0  0  0  0  0
   -4.1730    2.2273  -12.8349 O   0  0  0  0  0  0  0  0  0  0  0  0
   -4.2338    0.1651   -9.8127 O   0  0  0  0  0  0  0  0  0  0  0  0
  1  2  1  0  0  0  0
  1 22  1  1  0  0  0
  1 10  1  0  0  0  0
  2  3  1  0  0  0  0
  2  7  1  1  0  0  0
  3  4  1  0  0  0  0
  3  8  1  6  0  0  0
  4  5  1  0  0  0  0
  4  9  1  1  0  0  0
  5  6  1  6  0  0  0
  5 10  1  0  0  0  0
  6 11  1  0  0  0  0
 12 13  1  0  0  0  0
 12 17  1  0  0  0  0
 12 18  1  1  0  0  0
 13 14  1  0  0  0  0
 14 15  1  0  0  0  0
 14 19  1  1  0  0  0
 15 16  1  0  0  0  0
 15 21  1  6  0  0  0
 16 17  1  0  0  0  0
 16 20  1  1  0  0  0
 17 22  1  6  0  0  0
 23 21  1  6  0  0  0
 23 24  1  0  0  0  0
 23 32  1  0  0  0  0
 24 25  1  0  0  0  0
 24 29  1  6  0  0  0
 25 26  1  0  0  0  0
 26 27  1  0  0  0  0
 26 31  1  6  0  0  0
 27 28  1  1  0  0  0
 27 32  1  0  0  0  0
 28 30  1  0  0  0  0
M  CHG  5   8   1  18   1  19   1  29   1  30   1
M  END
>  <CHROM.1>
-152.34287220,84.77050452,-135.44178901,73.08916256,-43.62575505,-171.16718411
68.13718956,121.57299766,-103.52794669,-174.15243185,-94.88166626,-112.83849106
-38.67230924,-75.65340942,35.91491939,170.56303920,-8.73508056,-0.99612673
-9.12620909,2.68104969,-0.10509063,2.78411028

>  <Name>
2tob cryst

>  <RI>
0

>  <Rbt.Current_Directory>
/home/itssahil/PROJECTS/Mol_Feturizer/New_Systems/rnas/2tob

>  <Rbt.Executable>
rbdock ($Id: //depot/dev/client3/rdock/2013.1/src/exe/rbdock.cxx#4 $)

>  <Rbt.Library>
libRbt.so (2013.1, Build901 2013/11/27)

>  <Rbt.Parameter_File>
/export/apps/rDock/src/rDock_2013.1_src/data/scripts/dock_solv.prm

>  <Rbt.Receptor>
prm/blind_docking_60.prm

>  <SCORE>
-31.1657

>  <SCORE.INTER>
-33.7032

>  <SCORE.INTER.CONST>
1

>  <SCORE.INTER.POLAR>
-4.47306

>  <SCORE.INTER.ROT>
6

>  <SCORE.INTER.SOLV>
39.2481

>  <SCORE.INTER.VDW>
-28.2414

>  <SCORE.INTER.norm>
-1.05323

>  <SCORE.INTRA>
-6.29228

>  <SCORE.INTRA.DIHEDRAL>
17.996

>  <SCORE.INTRA.DIHEDRAL.0>
18.4221

>  <SCORE.INTRA.POLAR>
-0.0130829

>  <SCORE.INTRA.POLAR.0>
-1.57101

>  <SCORE.INTRA.REPUL>
-0.730195

>  <SCORE.INTRA.REPUL.0>
0.730195

>  <SCORE.INTRA.SOLV>
-1.86468

>  <SCORE.INTRA.SOLV.lig_0>
-127.221

>  <SCORE.INTRA.VDW>
-10.6625

>  <SCORE.INTRA.VDW.0>
10.8385

>  <SCORE.INTRA.norm>
-0.196634

>  <SCORE.RESTR>
8.82986

>  <SCORE.RESTR.CAVITY>
8.82986

>  <SCORE.RESTR.norm>
0.275933

>  <SCORE.SYSTEM>
0

>  <SCORE.SYSTEM.CONST>
0

>  <SCORE.SYSTEM.DIHEDRAL>
0

>  <SCORE.SYSTEM.SOLV>
0

>  <SCORE.SYSTEM.norm>
0

>  <SCORE.heavy>
32

>  <SCORE.norm>
-0.973927

>  <RMSD>
8.363

$$$$
2tob cryst
 OpenBabel11021811463D
libRbt.so/2013.1/901 2013/11/27
 32 34  0  0  0  0  0  0  0  0999 V2000
  -10.9540   -2.7660   -7.8677 C   0  0  2  0  0  0  0  0  0  0  0  0
  -12.3039   -2.2053   -8.3040 C   0  0  1  0  0  0  0  0  0  0  0  0
  -12.1617   -0.7022   -8.5455 C   0  0  2  0  0  0  0  0  0  0  0  0
  -11.5919   -0.0010   -7.3054 C   0  0  1  0  0  0  0  0  0  0  0  0
  -10.3055   -0.7005   -6.8527 C   0  0  1  0  0  0  0  0  0  0  0  0
   -9.7343   -0.1767   -5.5453 C   0  0  0  0  0  0  0  0  0  0  0  0
  -12.7354   -2.8485   -9.5002 O   0  0  0  0  0  0  0  0  0  0  0  0
  -13.3860    0.0495   -8.9675 N   0  3  0  0  0  0  0  0  0  0  0  0
  -11.3171    1.3566   -7.6273 O   0  0  0  0  0  0  0  0  0  0  0  0
  -10.5482   -2.1111   -6.6808 O   0  0  0  0  0  0  0  0  0  0  0  0
  -10.2706   -0.8902   -4.4358 O   0  0  0  0  0  0  0  0  0  0  0  0
   -7.8296   -3.4614   -8.4915 C   0  0  2  0  0  0  0  0  0  0  0  0
   -6.3199   -3.1963   -8.4152 C   0  0  0  0  0  0  0  0  0  0  0  0
   -5.8549   -2.1994   -9.4731 C   0  0  1  0  0  0  0  0  0  0  0  0
   -6.6447   -0.9094   -9.2989 C   0  0  2  0  0  0  0  0  0  0  0  0
   -8.1281   -1.1805   -9.5618 C   0  0  1  0  0  0  0  0  0  0  0  0
   -8.6833   -2.1842   -8.5360 C   0  0  1  0  0  0  0  0  0  0  0  0
   -8.2770   -4.3067   -7.3337 N   0  3  0  0  0  0  0  0  0  0  0  0
   -4.3790   -1.9556   -9.3711 N   0  3  0  0  0  0  0  0  0  0  0  0
   -8.8498    0.0429   -9.4943 O   0  0  0  0  0  0  0  0  0  0  0  0
   -6.1621    0.1029  -10.2011 O   0  0  0  0  0  0  0  0  0  0  0  0
  -10.0278   -2.5604   -8.9000 O   0  0  0  0  0  0  0  0  0  0  0  0
   -5.1471    0.8987   -9.6543 C   0  0  2  0  0  0  0  0  0  0  0  0
   -5.3418    2.3579  -10.0797 C   0  0  1  0  0  0  0  0  0  0  0  0
   -4.9531    2.5589  -11.5446 C   0  0  0  0  0  0  0  0  0  0  0  0
   -3.5463    2.0247  -11.7601 C   0  0  1  0  0  0  0  0  0  0  0  0
   -3.5055    0.5560  -11.3755 C   0  0  1  0  0  0  0  0  0  0  0  0
   -2.1230   -0.0383  -11.5749 C   0  0  0  0  0  0  0  0  0  0  0  0
   -6.7764    2.7451   -9.8913 N   0  3  0  0  0  0  0  0  0  0  0  0
   -1.9316   -0.2881  -13.0459 N   0  3  0  0  0  0  0  0  0  0  0  0
   -3.1609    2.1816  -13.1184 O   0  0  0  0  0  0  0  0  0  0  0  0
   -3.8485    0.4189   -9.9861 O   0  0  0  0  0  0  0  0  0  0  0  0
  1  2  1  0  0  0  0
  1 22  1  6  0  0  0
  1 10  1  0  0  0  0
  2  3  1  0  0  0  0
  2  7  1  6  0  0  0
  3  4  1  0  0  0  0
  3  8  1  1  0  0  0
  4  5  1  0  0  0  0
  4  9  1  6  0  0  0
  5  6  1  1  0  0  0
  5 10  1  0  0  0  0
  6 11  1  0  0  0  0
 12 13  1  0  0  0  0
 12 17  1  0  0  0  0
 12 18  1  1  0  0  0
 13 14  1  0  0  0  0
 14 15  1  0  0  0  0
 14 19  1  1  0  0  0
 15 16  1  0  0  0  0
 15 21  1  6  0  0  0
 16 17  1  0  0  0  0
 16 20  1  1  0  0  0
 17 22  1  6  0  0  0
 23 21  1  6  0  0  0
 23 24  1  0  0  0  0
 23 32  1  0  0  0  0
 24 25  1  0  0  0  0
 24 29  1  6  0  0  0
 25 26  1  0  0  0  0
 26 27  1  0  0  0  0
 26 31  1  6  0  0  0
 27 28  1  1  0  0  0
 27 32  1  0  0  0  0
 28 30  1  0  0  0  0
M  CHG  5   8   1  18   1  19   1  29   1  30   1
M  END
>  <CHROM.1>
141.05156487,60.63693513,-49.81243546,72.98052333,89.72684269,46.65906915
153.45110203,130.10125725,-90.71432864,92.99445893,95.42581436,-140.51194886
-39.38813551,-54.00592343,-77.05377623,-35.13582895,-7.73311294,-0.59798153
-9.15905049,-2.74402274,0.36075888,-0.34380158

>  <Name>
2tob cryst

>  <RI>
0

>  <Rbt.Current_Directory>
/home/itssahil/PROJECTS/Mol_Feturizer/New_Systems/rnas/2tob

>  <Rbt.Executable>
rbdock ($Id: //depot/dev/client3/rdock/2013.1/src/exe/rbdock.cxx#4 $)

>  <Rbt.Library>
libRbt.so (2013.1, Build901 2013/11/27)

>  <Rbt.Parameter_File>
/export/apps/rDock/src/rDock_2013.1_src/data/scripts/dock_solv.prm

>  <Rbt.Receptor>
prm/blind_docking_60.prm

>  <SCORE>
45.8323

>  <SCORE.INTER>
43.8481

>  <SCORE.INTER.CONST>
1

>  <SCORE.INTER.POLAR>
-9.07791

>  <SCORE.INTER.ROT>
6

>  <SCORE.INTER.SOLV>
54.5291

>  <SCORE.INTER.VDW>
33.7154

>  <SCORE.INTER.norm>
1.37025

>  <SCORE.INTRA>
-3.86826

>  <SCORE.INTRA.DIHEDRAL>
17.4145

>  <SCORE.INTRA.DIHEDRAL.0>
18.4221

>  <SCORE.INTRA.POLAR>
0.4958

>  <SCORE.INTRA.POLAR.0>
-1.57101

>  <SCORE.INTRA.REPUL>
-0.730195

>  <SCORE.INTRA.REPUL.0>
0.730195

>  <SCORE.INTRA.SOLV>
-0.896842

>  <SCORE.INTRA.SOLV.lig_0>
-127.221

>  <SCORE.INTRA.VDW>
-10.1618

>  <SCORE.INTRA.VDW.0>
10.8385

>  <SCORE.INTRA.norm>
-0.120883

>  <SCORE.RESTR>
5.85249

>  <SCORE.RESTR.CAVITY>
5.85249

>  <SCORE.RESTR.norm>
0.18289

>  <SCORE.SYSTEM>
0

>  <SCORE.SYSTEM.CONST>
0

>  <SCORE.SYSTEM.DIHEDRAL>
0

>  <SCORE.SYSTEM.SOLV>
0

>  <SCORE.SYSTEM.norm>
0

>  <SCORE.heavy>
32

>  <SCORE.norm>
1.43226

>  <RMSD>
8.371

$$$$
2tob cryst
 OpenBabel11021811463D
libRbt.so/2013.1/901 2013/11/27
 32 34  0  0  0  0  0  0  0  0999 V2000
  -14.9296   -6.5867   -6.2003 C   0  0  2  0  0  0  0  0  0  0  0  0
  -15.6806   -7.3119   -5.0880 C   0  0  1  0  0  0  0  0  0  0  0  0
  -14.6971   -7.6575   -3.9695 C   0  0  2  0  0  0  0  0  0  0  0  0
  -13.5090   -8.4606   -4.5153 C   0  0  1  0  0  0  0  0  0  0  0  0
  -12.8873   -7.7296   -5.7102 C   0  0  1  0  0  0  0  0  0  0  0  0
  -11.7916   -8.5080   -6.4200 C   0  0  0  0  0  0  0  0  0  0  0  0
  -16.7193   -6.4799   -4.5784 O   0  0  0  0  0  0  0  0  0  0  0  0
  -15.2325   -8.3937   -2.7806 N   0  3  0  0  0  0  0  0  0  0  0  0
  -12.5415   -8.6132   -3.4844 O   0  0  0  0  0  0  0  0  0  0  0  0
  -13.9047   -7.4322   -6.6873 O   0  0  0  0  0  0  0  0  0  0  0  0
  -10.6950   -8.7520   -5.5449 O   0  0  0  0  0  0  0  0  0  0  0  0
  -14.4432   -3.8538   -7.5335 C   0  0  2  0  0  0  0  0  0  0  0  0
  -13.7151   -2.7479   -8.3093 C   0  0  0  0  0  0  0  0  0  0  0  0
  -12.9267   -1.8204   -7.3887 C   0  0  1  0  0  0  0  0  0  0  0  0
  -11.9436   -2.6612   -6.5858 C   0  0  2  0  0  0  0  0  0  0  0  0
  -12.7164   -3.6307   -5.6880 C   0  0  1  0  0  0  0  0  0  0  0  0
  -13.5471   -4.6079   -6.5384 C   0  0  1  0  0  0  0  0  0  0  0  0
  -15.0618   -4.8432   -8.4788 N   0  3  0  0  0  0  0  0  0  0  0  0
  -12.2221   -0.7547   -8.1735 N   0  3  0  0  0  0  0  0  0  0  0  0
  -11.8004   -4.3463   -4.8690 O   0  0  0  0  0  0  0  0  0  0  0  0
  -11.0960   -1.8180   -5.7845 O   0  0  0  0  0  0  0  0  0  0  0  0
  -14.3991   -5.3969   -5.6820 O   0  0  0  0  0  0  0  0  0  0  0  0
   -9.8398   -2.3794   -5.5214 C   0  0  2  0  0  0  0  0  0  0  0  0
   -8.9912   -1.3996   -4.7041 C   0  0  1  0  0  0  0  0  0  0  0  0
   -8.4901   -0.2480   -5.5760 C   0  0  0  0  0  0  0  0  0  0  0  0
   -7.7867   -0.8217   -6.7954 C   0  0  1  0  0  0  0  0  0  0  0  0
   -8.7540   -1.7101   -7.5581 C   0  0  1  0  0  0  0  0  0  0  0  0
   -8.1094   -2.3102   -8.7944 C   0  0  0  0  0  0  0  0  0  0  0  0
   -9.8118   -0.8473   -3.5793 N   0  3  0  0  0  0  0  0  0  0  0  0
   -6.8864   -3.0702   -8.3591 N   0  3  0  0  0  0  0  0  0  0  0  0
   -7.3231    0.2252   -7.6363 O   0  0  0  0  0  0  0  0  0  0  0  0
   -9.1745   -2.7923   -6.7103 O   0  0  0  0  0  0  0  0  0  0  0  0
  1  2  1  0  0  0  0
  1 22  1  1  0  0  0
  1 10  1  0  0  0  0
  2  3  1  0  0  0  0
  2  7  1  1  0  0  0
  3  4  1  0  0  0  0
  3  8  1  1  0  0  0
  4  5  1  0  0  0  0
  4  9  1  1  0  0  0
  5  6  1  6  0  0  0
  5 10  1  0  0  0  0
  6 11  1  0  0  0  0
 12 13  1  0  0  0  0
 12 17  1  0  0  0  0
 12 18  1  6  0  0  0
 13 14  1  0  0  0  0
 14 15  1  0  0  0  0
 14 19  1  6  0  0  0
 15 16  1  0  0  0  0
 15 21  1  1  0  0  0
 16 17  1  0  0  0  0
 16 20  1  6  0  0  0
 17 22  1  1  0  0  0
 23 21  1  6  0  0  0
 23 24  1  0  0  0  0
 23 32  1  0  0  0  0
 24 25  1  0  0  0  0
 24 29  1  1  0  0  0
 25 26  1  0  0  0  0
 26 27  1  0  0  0  0
 26 31  1  6  0  0  0
 27 28  1  6  0  0  0
 27 32  1  0  0  0  0
 28 30  1  0  0  0  0
M  CHG  5   8   1  18   1  19   1  29   1  30   1
M  END
>  <CHROM.1>
174.68116922,-52.82860262,-174.60629621,-59.34023833,-62.34716797,177.01834277
87.37190639,-68.41748431,-152.18209028,-62.65558699,77.08405149,178.21096534
-67.14802995,-58.13877952,56.94081277,-87.95159876,-11.90881210,-4.32142402
-6.08465699,2.28424653,0.15650903,2.71390999

>  <Name>
2tob cryst

>  <RI>
0

>  <Rbt.Current_Directory>
/home/itssahil/PROJECTS/Mol_Feturizer/New_Systems/rnas/2tob

>  <Rbt.Executable>
rbdock ($Id: //depot/dev/client3/rdock/2013.1/src/exe/rbdock.cxx#4 $)

>  <Rbt.Library>
libRbt.so (2013.1, Build901 2013/11/27)

>  <Rbt.Parameter_File>
/export/apps/rDock/src/rDock_2013.1_src/data/scripts/dock_solv.prm

>  <Rbt.Receptor>
prm/pocket_docking_5.prm

>  <SCORE>
-50.286

>  <SCORE.INTER>
-29.5475

>  <SCORE.INTER.CONST>
1

>  <SCORE.INTER.POLAR>
-5.078

>  <SCORE.INTER.ROT>
6

>  <SCORE.INTER.SOLV>
21.0367

>  <SCORE.INTER.VDW>
-17.3839

>  <SCORE.INTER.norm>
-0.923359

>  <SCORE.INTRA>
-20.7385

>  <SCORE.INTRA.DIHEDRAL>
-9.62118

>  <SCORE.INTRA.DIHEDRAL.0>
18.4221

>  <SCORE.INTRA.POLAR>
1.46257

>  <SCORE.INTRA.POLAR.0>
-1.57101

>  <SCORE.INTRA.REPUL>
-0.730195

>  <SCORE.INTRA.REPUL.0>
0.730195

>  <SCORE.INTRA.SOLV>
-6.16227

>  <SCORE.INTRA.SOLV.lig_0>
-127.221

>  <SCORE.INTRA.VDW>
-14.1685

>  <SCORE.INTRA.VDW.0>
10.8385

>  <SCORE.INTRA.norm>
-0.648079

>  <SCORE.RESTR>
0

>  <SCORE.RESTR.CAVITY>
0

>  <SCORE.RESTR.norm>
0

>  <SCORE.SYSTEM>
0

>  <SCORE.SYSTEM.CONST>
0

>  <SCORE.SYSTEM.DIHEDRAL>
0

>  <SCORE.SYSTEM.SOLV>
0

>  <SCORE.SYSTEM.norm>
0

>  <SCORE.heavy>
32

>  <SCORE.norm>
-1.57144

>  <RMSD>
8.374

$$$$
2tob cryst
 OpenBabel11021811463D
libRbt.so/2013.1/901 2013/11/27
 32 34  0  0  0  0  0  0  0  0999 V2000
  -11.0016   -1.8091   -7.0542 C   0  0  2  0  0  0  0  0  0  0  0  0
  -12.3896   -2.4367   -7.1349 C   0  0  1  0  0  0  0  0  0  0  0  0
  -12.9199   -2.2858   -8.5610 C   0  0  2  0  0  0  0  0  0  0  0  0
  -12.8986   -0.8153   -8.9990 C   0  0  1  0  0  0  0  0  0  0  0  0
  -11.5053   -0.2201   -8.7684 C   0  0  1  0  0  0  0  0  0  0  0  0
  -11.4104    1.2736   -9.0331 C   0  0  0  0  0  0  0  0  0  0  0  0
  -12.3212   -3.8173   -6.7882 O   0  0  0  0  0  0  0  0  0  0  0  0
  -14.2863   -2.8244   -8.8516 N   0  3  0  0  0  0  0  0  0  0  0  0
  -13.2354   -0.7390  -10.3785 O   0  0  0  0  0  0  0  0  0  0  0  0
  -11.0967   -0.4412   -7.4037 O   0  0  0  0  0  0  0  0  0  0  0  0
  -10.2567    1.5784   -9.8102 O   0  0  0  0  0  0  0  0  0  0  0  0
   -8.0157   -3.6212   -7.9560 C   0  0  2  0  0  0  0  0  0  0  0  0
   -6.4974   -3.5053   -8.1471 C   0  0  0  0  0  0  0  0  0  0  0  0
   -6.1279   -2.5054   -9.2394 C   0  0  1  0  0  0  0  0  0  0  0  0
   -6.7374   -1.1565   -8.8831 C   0  0  2  0  0  0  0  0  0  0  0  0
   -8.2638   -1.2714   -8.8803 C   0  0  1  0  0  0  0  0  0  0  0  0
   -8.7279   -2.2679   -7.8034 C   0  0  1  0  0  0  0  0  0  0  0  0
   -8.3346   -4.4769   -6.7639 N   0  3  0  0  0  0  0  0  0  0  0  0
   -4.6403   -2.4088   -9.3998 N   0  3  0  0  0  0  0  0  0  0  0  0
   -8.8323    0.0102   -8.6434 O   0  0  0  0  0  0  0  0  0  0  0  0
   -6.3215   -0.1508   -9.8250 O   0  0  0  0  0  0  0  0  0  0  0  0
  -10.1471   -2.4955   -7.9286 O   0  0  0  0  0  0  0  0  0  0  0  0
   -5.4412    0.7931   -9.2801 C   0  0  2  0  0  0  0  0  0  0  0  0
   -5.9404    2.2093   -9.5854 C   0  0  1  0  0  0  0  0  0  0  0  0
   -5.7013    2.5714  -11.0514 C   0  0  0  0  0  0  0  0  0  0  0  0
   -4.2371    2.3364  -11.3856 C   0  0  1  0  0  0  0  0  0  0  0  0
   -3.8896    0.8833  -11.1130 C   0  0  1  0  0  0  0  0  0  0  0  0
   -2.4365    0.5838  -11.4341 C   0  0  0  0  0  0  0  0  0  0  0  0
   -7.4057    2.2966   -9.2873 N   0  3  0  0  0  0  0  0  0  0  0  0
   -2.2677   -0.9104  -11.4763 N   0  3  0  0  0  0  0  0  0  0  0  0
   -3.9852    2.6482  -12.7485 O   0  0  0  0  0  0  0  0  0  0  0  0
   -4.1015    0.5974   -9.7201 O   0  0  0  0  0  0  0  0  0  0  0  0
  1  2  1  0  0  0  0
  1 22  1  6  0  0  0
  1 10  1  0  0  0  0
  2  3  1  0  0  0  0
  2  7  1  6  0  0  0
  3  4  1  0  0  0  0
  3  8  1  1  0  0  0
  4  5  1  0  0  0  0
  4  9  1  6  0  0  0
  5  6  1  1  0  0  0
  5 10  1  0  0  0  0
  6 11  1  0  0  0  0
 12 13  1  0  0  0  0
 12 17  1  0  0  0  0
 12 18  1  1  0  0  0
 13 14  1  0  0  0  0
 14 15  1  0  0  0  0
 14 19  1  1  0  0  0
 15 16  1  0  0  0  0
 15 21  1  6  0  0  0
 16 17  1  0  0  0  0
 16 20  1  1  0  0  0
 17 22  1  6  0  0  0
 23 21  1  6  0  0  0
 23 24  1  0  0  0  0
 23 32  1  0  0  0  0
 24 25  1  0  0  0  0
 24 29  1  6  0  0  0
 25 26  1  0  0  0  0
 26 27  1  0  0  0  0
 26 31  1  6  0  0  0
 27 28  1  1  0  0  0
 27 32  1  0  0  0  0
 28 30  1  0  0  0  0
M  CHG  5   8   1  18   1  19   1  29   1  30   1
M  END
>  <CHROM.1>
-166.69108253,71.89617845,-157.77438112,67.79231015,-133.94527539,179.83050674
-75.73235444,-124.60082152,-110.22535438,-60.05353992,138.65961511,-129.31668719
-163.59648434,-70.42391335,-165.81490965,22.23918294,-8.18402502,-0.70684380
-9.17927682,-2.70891327,0.14822340,-0.45414512

>  <Name>
2tob cryst

>  <RI>
0

>  <Rbt.Current_Directory>
/home/itssahil/PROJECTS/Mol_Feturizer/New_Systems/rnas/2tob

>  <Rbt.Executable>
rbdock ($Id: //depot/dev/client3/rdock/2013.1/src/exe/rbdock.cxx#4 $)

>  <Rbt.Library>
libRbt.so (2013.1, Build901 2013/11/27)

>  <Rbt.Parameter_File>
/export/apps/rDock/src/rDock_2013.1_src/data/scripts/dock_solv.prm

>  <Rbt.Receptor>
prm/blind_docking_60.prm

>  <SCORE>
23.3834

>  <SCORE.INTER>
25.6621

>  <SCORE.INTER.CONST>
1

>  <SCORE.INTER.POLAR>
-7.02625

>  <SCORE.INTER.ROT>
6

>  <SCORE.INTER.SOLV>
45.3052

>  <SCORE.INTER.VDW>
17.8272

>  <SCORE.INTER.norm>
0.801941

>  <SCORE.INTRA>
-8.22235

>  <SCORE.INTRA.DIHEDRAL>
16.6911

>  <SCORE.INTRA.DIHEDRAL.0>
18.4221

>  <SCORE.INTRA.POLAR>
-0.0618428

>  <SCORE.INTRA.POLAR.0>
-1.57101

>  <SCORE.INTRA.REPUL>
-0.631464

>  <SCORE.INTRA.REPUL.0>
0.730195

>  <SCORE.INTRA.SOLV>
2.37199

>  <SCORE.INTRA.SOLV.lig_0>
-127.221

>  <SCORE.INTRA.VDW>
-14.3863

>  <SCORE.INTRA.VDW.0>
10.8385

>  <SCORE.INTRA.norm>
-0.256948

>  <SCORE.RESTR>
5.94367

>  <SCORE.RESTR.CAVITY>
5.94367

>  <SCORE.RESTR.norm>
0.18574

>  <SCORE.SYSTEM>
0

>  <SCORE.SYSTEM.CONST>
0

>  <SCORE.SYSTEM.DIHEDRAL>
0

>  <SCORE.SYSTEM.SOLV>
0

>  <SCORE.SYSTEM.norm>
0

>  <SCORE.heavy>
32

>  <SCORE.norm>
0.730733

>  <RMSD>
8.376

$$$$
2tob cryst
 OpenBabel11021811463D
libRbt.so/2013.1/901 2013/11/27
 32 34  0  0  0  0  0  0  0  0999 V2000
  -14.7242   -6.3763   -6.3606 C   0  0  2  0  0  0  0  0  0  0  0  0
  -15.3198   -7.1109   -5.1637 C   0  0  1  0  0  0  0  0  0  0  0  0
  -14.3348   -7.0372   -3.9965 C   0  0  2  0  0  0  0  0  0  0  0  0
  -12.9583   -7.5759   -4.4084 C   0  0  1  0  0  0  0  0  0  0  0  0
  -12.4853   -6.8799   -5.6893 C   0  0  1  0  0  0  0  0  0  0  0  0
  -11.1966   -7.4409   -6.2678 C   0  0  0  0  0  0  0  0  0  0  0  0
  -16.5575   -6.5113   -4.7903 O   0  0  0  0  0  0  0  0  0  0  0  0
  -14.7228   -7.7167   -2.7200 N   0  3  0  0  0  0  0  0  0  0  0  0
  -12.0332   -7.3334   -3.3559 O   0  0  0  0  0  0  0  0  0  0  0  0
  -13.4975   -6.9892   -6.7099 O   0  0  0  0  0  0  0  0  0  0  0  0
  -11.3776   -8.7863   -6.6978 O   0  0  0  0  0  0  0  0  0  0  0  0
  -15.1709   -3.3618   -7.6322 C   0  0  2  0  0  0  0  0  0  0  0  0
  -14.7359   -2.1698   -8.4953 C   0  0  0  0  0  0  0  0  0  0  0  0
  -13.7281   -1.2755   -7.7784 C   0  0  1  0  0  0  0  0  0  0  0  0
  -12.5299   -2.1253   -7.3784 C   0  0  2  0  0  0  0  0  0  0  0  0
  -12.9739   -3.1923   -6.3746 C   0  0  1  0  0  0  0  0  0  0  0  0
  -13.9996   -4.1432   -7.0162 C   0  0  1  0  0  0  0  0  0  0  0  0
  -16.0228   -4.3080   -8.4285 N   0  3  0  0  0  0  0  0  0  0  0  0
  -13.3173   -0.1240   -8.6463 N   0  3  0  0  0  0  0  0  0  0  0  0
  -11.8375   -3.9217   -5.9287 O   0  0  0  0  0  0  0  0  0  0  0  0
  -11.4997   -1.3036   -6.7995 O   0  0  0  0  0  0  0  0  0  0  0  0
  -14.5358   -5.0311   -6.0132 O   0  0  0  0  0  0  0  0  0  0  0  0
  -10.2033   -1.7457   -7.0932 C   0  0  2  0  0  0  0  0  0  0  0  0
   -9.2752   -1.4662   -5.9064 C   0  0  1  0  0  0  0  0  0  0  0  0
   -8.9367    0.0219   -5.8131 C   0  0  0  0  0  0  0  0  0  0  0  0
   -8.3982    0.4909   -7.1550 C   0  0  1  0  0  0  0  0  0  0  0  0
   -9.4386    0.2286   -8.2299 C   0  0  1  0  0  0  0  0  0  0  0  0
   -8.9599    0.6825   -9.5971 C   0  0  0  0  0  0  0  0  0  0  0  0
   -9.9425   -1.9018   -4.6381 N   0  3  0  0  0  0  0  0  0  0  0  0
   -8.7944    2.1772   -9.5595 N   0  3  0  0  0  0  0  0  0  0  0  0
   -8.0893    1.8766   -7.1063 O   0  0  0  0  0  0  0  0  0  0  0  0
   -9.7027   -1.1828   -8.3012 O   0  0  0  0  0  0  0  0  0  0  0  0
  1  2  1  0  0  0  0
  1 22  1  1  0  0  0
  1 10  1  0  0  0  0
  2  3  1  0  0  0  0
  2  7  1  1  0  0  0
  3  4  1  0  0  0  0
  3  8  1  1  0  0  0
  4  5  1  0  0  0  0
  4  9  1  1  0  0  0
  5  6  1  6  0  0  0
  5 10  1  0  0  0  0
  6 11  1  0  0  0  0
 12 13  1  0  0  0  0
 12 17  1  0  0  0  0
 12 18  1  6  0  0  0
 13 14  1  0  0  0  0
 14 15  1  0  0  0  0
 14 19  1  6  0  0  0
 15 16  1  0  0  0  0
 15 21  1  1  0  0  0
 16 17  1  0  0  0  0
 16 20  1  6  0  0  0
 17 22  1  1  0  0  0
 23 21  1  1  0  0  0
 23 24  1  0  0  0  0
 23 32  1  0  0  0  0
 24 25  1  0  0  0  0
 24 29  1  1  0  0  0
 25 26  1  0  0  0  0
 26 27  1  0  0  0  0
 26 31  1  1  0  0  0
 27 28  1  6  0  0  0
 27 32  1  0  0  0  0
 28 30  1  0  0  0  0
M  CHG  5   8   1  18   1  19   1  29   1  30   1
M  END
>  <CHROM.1>
-178.92380527,-55.33728719,-170.26554680,178.55339623,64.79273453,-175.96288295
159.97876870,176.17985205,-145.72082881,-59.28483650,99.70776828,-145.82894021
-80.39997364,61.54845530,-64.59958152,42.03903272,-12.21847194,-3.49151574
-6.55027216,2.12544762,0.31874110,2.60137216

>  <Name>
2tob cryst

>  <RI>
0

>  <Rbt.Current_Directory>
/home/itssahil/PROJECTS/Mol_Feturizer/New_Systems/rnas/2tob

>  <Rbt.Executable>
rbdock ($Id: //depot/dev/client3/rdock/2013.1/src/exe/rbdock.cxx#4 $)

>  <Rbt.Library>
libRbt.so (2013.1, Build901 2013/11/27)

>  <Rbt.Parameter_File>
/export/apps/rDock/src/rDock_2013.1_src/data/scripts/dock_solv.prm

>  <Rbt.Receptor>
prm/pocket_docking_6.prm

>  <SCORE>
-50.1806

>  <SCORE.INTER>
-27.4139

>  <SCORE.INTER.CONST>
1

>  <SCORE.INTER.POLAR>
-3.84991

>  <SCORE.INTER.ROT>
6

>  <SCORE.INTER.SOLV>
21.7186

>  <SCORE.INTER.VDW>
-20.2824

>  <SCORE.INTER.norm>
-0.856685

>  <SCORE.INTRA>
-22.8354

>  <SCORE.INTRA.DIHEDRAL>
-0.988731

>  <SCORE.INTRA.DIHEDRAL.0>
18.4221

>  <SCORE.INTRA.POLAR>
-0.580838

>  <SCORE.INTRA.POLAR.0>
-1.57101

>  <SCORE.INTRA.REPUL>
-0.730195

>  <SCORE.INTRA.REPUL.0>
0.730195

>  <SCORE.INTRA.SOLV>
-4.42428

>  <SCORE.INTRA.SOLV.lig_0>
-127.221

>  <SCORE.INTRA.VDW>
-14.5031

>  <SCORE.INTRA.VDW.0>
10.8385

>  <SCORE.INTRA.norm>
-0.713606

>  <SCORE.RESTR>
0.068734

>  <SCORE.RESTR.CAVITY>
0.068734

>  <SCORE.RESTR.norm>
0.00214794

>  <SCORE.SYSTEM>
0

>  <SCORE.SYSTEM.CONST>
0

>  <SCORE.SYSTEM.DIHEDRAL>
0

>  <SCORE.SYSTEM.SOLV>
0

>  <SCORE.SYSTEM.norm>
0

>  <SCORE.heavy>
32

>  <SCORE.norm>
-1.56814

>  <RMSD>
8.382

$$$$
2tob cryst
 OpenBabel11021811463D
libRbt.so/2013.1/901 2013/11/27
 32 34  0  0  0  0  0  0  0  0999 V2000
  -15.3667   -4.8811   -7.9357 C   0  0  2  0  0  0  0  0  0  0  0  0
  -16.4197   -5.8168   -7.3503 C   0  0  1  0  0  0  0  0  0  0  0  0
  -15.8209   -7.2175   -7.2202 C   0  0  2  0  0  0  0  0  0  0  0  0
  -15.2677   -7.7025   -8.5668 C   0  0  1  0  0  0  0  0  0  0  0  0
  -14.3168   -6.6523   -9.1513 C   0  0  1  0  0  0  0  0  0  0  0  0
  -13.8229   -6.9660  -10.5541 C   0  0  0  0  0  0  0  0  0  0  0  0
  -16.8319   -5.3464   -6.0698 O   0  0  0  0  0  0  0  0  0  0  0  0
  -16.7026   -8.2992   -6.6776 N   0  3  0  0  0  0  0  0  0  0  0  0
  -14.5726   -8.9270   -8.3670 O   0  0  0  0  0  0  0  0  0  0  0  0
  -14.9740   -5.3703   -9.2041 O   0  0  0  0  0  0  0  0  0  0  0  0
  -14.8774   -6.8400  -11.5027 O   0  0  0  0  0  0  0  0  0  0  0  0
  -13.7765   -3.1243   -5.4234 C   0  0  2  0  0  0  0  0  0  0  0  0
  -12.8723   -1.9534   -5.0152 C   0  0  0  0  0  0  0  0  0  0  0  0
  -11.4160   -2.1843   -5.4092 C   0  0  1  0  0  0  0  0  0  0  0  0
  -11.3558   -2.4217   -6.9118 C   0  0  2  0  0  0  0  0  0  0  0  0
  -12.1205   -3.7022   -7.2566 C   0  0  1  0  0  0  0  0  0  0  0  0
  -13.6075   -3.5586   -6.8879 C   0  0  1  0  0  0  0  0  0  0  0  0
  -15.2195   -2.7883   -5.1780 N   0  3  0  0  0  0  0  0  0  0  0  0
  -10.5582   -1.0233   -5.0036 N   0  3  0  0  0  0  0  0  0  0  0  0
  -11.9813   -3.9746   -8.6453 O   0  0  0  0  0  0  0  0  0  0  0  0
   -9.9895   -2.5313   -7.3506 O   0  0  0  0  0  0  0  0  0  0  0  0
  -14.2764   -4.8260   -7.0560 O   0  0  0  0  0  0  0  0  0  0  0  0
   -9.7988   -2.1406   -8.6824 C   0  0  2  0  0  0  0  0  0  0  0  0
   -8.3251   -2.3054   -9.0686 C   0  0  1  0  0  0  0  0  0  0  0  0
   -7.4666   -1.2083   -8.4386 C   0  0  0  0  0  0  0  0  0  0  0  0
   -8.0600    0.1463   -8.7907 C   0  0  1  0  0  0  0  0  0  0  0  0
   -9.4919    0.2101   -8.2884 C   0  0  1  0  0  0  0  0  0  0  0  0
  -10.1391    1.5459   -8.6060 C   0  0  0  0  0  0  0  0  0  0  0  0
   -7.8350   -3.6432   -8.6062 N   0  3  0  0  0  0  0  0  0  0  0  0
  -11.6178    1.3202   -8.7656 N   0  3  0  0  0  0  0  0  0  0  0  0
   -7.2932    1.1888   -8.2048 O   0  0  0  0  0  0  0  0  0  0  0  0
  -10.2661   -0.8185   -8.9282 O   0  0  0  0  0  0  0  0  0  0  0  0
  1  2  1  0  0  0  0
  1 22  1  1  0  0  0
  1 10  1  0  0  0  0
  2  3  1  0  0  0  0
  2  7  1  1  0  0  0
  3  4  1  0  0  0  0
  3  8  1  6  0  0  0
  4  5  1  0  0  0  0
  4  9  1  1  0  0  0
  5  6  1  6  0  0  0
  5 10  1  0  0  0  0
  6 11  1  0  0  0  0
 12 13  1  0  0  0  0
 12 17  1  0  0  0  0
 12 18  1  6  0  0  0
 13 14  1  0  0  0  0
 14 15  1  0  0  0  0
 14 19  1  6  0  0  0
 15 16  1  0  0  0  0
 15 21  1  1  0  0  0
 16 17  1  0  0  0  0
 16 20  1  6  0  0  0
 17 22  1  1  0  0  0
 23 21  1  1  0  0  0
 23 24  1  0  0  0  0
 23 32  1  0  0  0  0
 24 25  1  0  0  0  0
 24 29  1  1  0  0  0
 25 26  1  0  0  0  0
 26 27  1  0  0  0  0
 26 31  1  1  0  0  0
 27 28  1  6  0  0  0
 27 32  1  0  0  0  0
 28 30  1  0  0  0  0
M  CHG  5   8   1  18   1  19   1  29   1  30   1
M  END
>  <CHROM.1>
-142.50507020,179.86594637,-178.36428246,-59.06059239,69.98231181,-63.32266157
61.04552196,39.04329266,-152.28625600,-62.35312434,116.81487398,-179.29722598
162.62565339,-57.00869915,150.75559791,116.72512318,-12.41325722,-3.51113024
-7.78402163,2.59013394,-0.58544429,-2.42589810

>  <Name>
2tob cryst

>  <RI>
0

>  <Rbt.Current_Directory>
/home/itssahil/PROJECTS/Mol_Feturizer/New_Systems/rnas/2tob

>  <Rbt.Executable>
rbdock ($Id: //depot/dev/client3/rdock/2013.1/src/exe/rbdock.cxx#4 $)

>  <Rbt.Library>
libRbt.so (2013.1, Build901 2013/11/27)

>  <Rbt.Parameter_File>
/export/apps/rDock/src/rDock_2013.1_src/data/scripts/dock_solv.prm

>  <Rbt.Receptor>
prm/pocket_docking_6.prm

>  <SCORE>
-47.6701

>  <SCORE.INTER>
-29.0114

>  <SCORE.INTER.CONST>
1

>  <SCORE.INTER.POLAR>
-4.81526

>  <SCORE.INTER.ROT>
6

>  <SCORE.INTER.SOLV>
29.5181

>  <SCORE.INTER.VDW>
-20.7294

>  <SCORE.INTER.norm>
-0.906606

>  <SCORE.INTRA>
-18.6587

>  <SCORE.INTRA.DIHEDRAL>
5.37465

>  <SCORE.INTRA.DIHEDRAL.0>
18.4221

>  <SCORE.INTRA.POLAR>
0.0739111

>  <SCORE.INTRA.POLAR.0>
-1.57101

>  <SCORE.INTRA.REPUL>
-0.730195

>  <SCORE.INTRA.REPUL.0>
0.730195

>  <SCORE.INTRA.SOLV>
-6.04428

>  <SCORE.INTRA.SOLV.lig_0>
-127.221

>  <SCORE.INTRA.VDW>
-14.9242

>  <SCORE.INTRA.VDW.0>
10.8385

>  <SCORE.INTRA.norm>
-0.583085

>  <SCORE.RESTR>
0

>  <SCORE.RESTR.CAVITY>
0

>  <SCORE.RESTR.norm>
0

>  <SCORE.SYSTEM>
0

>  <SCORE.SYSTEM.CONST>
0

>  <SCORE.SYSTEM.DIHEDRAL>
0

>  <SCORE.SYSTEM.SOLV>
0

>  <SCORE.SYSTEM.norm>
0

>  <SCORE.heavy>
32

>  <SCORE.norm>
-1.48969

>  <RMSD>
8.386

$$$$
2tob cryst
 OpenBabel11021811463D
libRbt.so/2013.1/901 2013/11/27
 32 34  0  0  0  0  0  0  0  0999 V2000
  -11.4916   -6.3775   -6.3334 C   0  0  2  0  0  0  0  0  0  0  0  0
  -11.1742   -7.8105   -5.9176 C   0  0  1  0  0  0  0  0  0  0  0  0
  -12.1508   -8.7572   -6.6160 C   0  0  2  0  0  0  0  0  0  0  0  0
  -13.6031   -8.3549   -6.3268 C   0  0  1  0  0  0  0  0  0  0  0  0
  -13.8098   -6.8710   -6.6493 C   0  0  1  0  0  0  0  0  0  0  0  0
  -15.1765   -6.3303   -6.2625 C   0  0  0  0  0  0  0  0  0  0  0  0
   -9.8368   -8.1393   -6.2836 O   0  0  0  0  0  0  0  0  0  0  0  0
  -12.0211  -10.2208   -6.3280 N   0  3  0  0  0  0  0  0  0  0  0  0
  -14.4706   -9.1494   -7.1258 O   0  0  0  0  0  0  0  0  0  0  0  0
  -12.8232   -6.0769   -5.9606 O   0  0  0  0  0  0  0  0  0  0  0  0
  -15.2658   -4.9356   -6.5358 O   0  0  0  0  0  0  0  0  0  0  0  0
  -12.9165   -4.6663   -8.5582 C   0  0  2  0  0  0  0  0  0  0  0  0
  -13.2199   -3.2011   -8.8990 C   0  0  0  0  0  0  0  0  0  0  0  0
  -12.5817   -2.2337   -7.9059 C   0  0  1  0  0  0  0  0  0  0  0  0
  -11.0809   -2.4887   -7.8823 C   0  0  2  0  0  0  0  0  0  0  0  0
  -10.8123   -3.9036   -7.3634 C   0  0  1  0  0  0  0  0  0  0  0  0
  -11.4270   -4.9507   -8.3087 C   0  0  1  0  0  0  0  0  0  0  0  0
  -13.4106   -5.5754   -9.6467 N   0  3  0  0  0  0  0  0  0  0  0  0
  -12.8896   -0.8112   -8.2665 N   0  3  0  0  0  0  0  0  0  0  0  0
   -9.4093   -4.1054   -7.2501 O   0  0  0  0  0  0  0  0  0  0  0  0
  -10.4186   -1.5236   -7.0449 O   0  0  0  0  0  0  0  0  0  0  0  0
  -11.3173   -6.2634   -7.7199 O   0  0  0  0  0  0  0  0  0  0  0  0
   -9.0611   -1.3594   -7.3499 C   0  0  2  0  0  0  0  0  0  0  0  0
   -8.3054   -0.8595   -6.1142 C   0  0  1  0  0  0  0  0  0  0  0  0
   -8.6054    0.6157   -5.8470 C   0  0  0  0  0  0  0  0  0  0  0  0
   -8.3342    1.4120   -7.1132 C   0  0  1  0  0  0  0  0  0  0  0  0
   -9.1972    0.8691   -8.2389 C   0  0  1  0  0  0  0  0  0  0  0  0
   -8.9749    1.6300   -9.5335 C   0  0  0  0  0  0  0  0  0  0  0  0
   -8.7091   -1.6701   -4.9210 N   0  3  0  0  0  0  0  0  0  0  0  0
   -7.4976    1.6446   -9.8169 N   0  3  0  0  0  0  0  0  0  0  0  0
   -8.6202    2.7874   -6.9024 O   0  0  0  0  0  0  0  0  0  0  0  0
   -8.8604   -0.5087   -8.4736 O   0  0  0  0  0  0  0  0  0  0  0  0
  1  2  1  0  0  0  0
  1 22  1  6  0  0  0
  1 10  1  0  0  0  0
  2  3  1  0  0  0  0
  2  7  1  6  0  0  0
  3  4  1  0  0  0  0
  3  8  1  1  0  0  0
  4  5  1  0  0  0  0
  4  9  1  6  0  0  0
  5  6  1  1  0  0  0
  5 10  1  0  0  0  0
  6 11  1  0  0  0  0
 12 13  1  0  0  0  0
 12 17  1  0  0  0  0
 12 18  1  6  0  0  0
 13 14  1  0  0  0  0
 14 15  1  0  0  0  0
 14 19  1  6  0  0  0
 15 16  1  0  0  0  0
 15 21  1  1  0  0  0
 16 17  1  0  0  0  0
 16 20  1  6  0  0  0
 17 22  1  1  0  0  0
 23 21  1  1  0  0  0
 23 24  1  0  0  0  0
 23 32  1  0  0  0  0
 24 25  1  0  0  0  0
 24 29  1  1  0  0  0
 25 26  1  0  0  0  0
 26 27  1  0  0  0  0
 26 31  1  1  0  0  0
 27 28  1  6  0  0  0
 27 32  1  0  0  0  0
 28 30  1  0  0  0  0
M  CHG  5   8   1  18   1  19   1  29   1  30   1
M  END
>  <CHROM.1>
-173.51695957,-166.23201569,-176.87567179,-56.97462362,177.24614429,-52.68197503
101.01249926,-53.62851373,-157.30194608,-176.57763195,-83.91218175,-154.63409005
-164.39527172,-175.47788355,52.63924477,-161.63719184,-11.16576909,-3.70631457
-7.30325784,-2.05210900,-0.35281176,-0.29149067

>  <Name>
2tob cryst

>  <RI>
0

>  <Rbt.Current_Directory>
/home/itssahil/PROJECTS/Mol_Feturizer/New_Systems/rnas/2tob

>  <Rbt.Executable>
rbdock ($Id: //depot/dev/client3/rdock/2013.1/src/exe/rbdock.cxx#4 $)

>  <Rbt.Library>
libRbt.so (2013.1, Build901 2013/11/27)

>  <Rbt.Parameter_File>
/export/apps/rDock/src/rDock_2013.1_src/data/scripts/dock_solv.prm

>  <Rbt.Receptor>
prm/pocket_docking_3.prm

>  <SCORE>
-44.6655

>  <SCORE.INTER>
-29.1223

>  <SCORE.INTER.CONST>
1

>  <SCORE.INTER.POLAR>
-3.75694

>  <SCORE.INTER.ROT>
6

>  <SCORE.INTER.SOLV>
23.3192

>  <SCORE.INTER.VDW>
-22.2648

>  <SCORE.INTER.norm>
-0.910072

>  <SCORE.INTRA>
-15.7813

>  <SCORE.INTRA.DIHEDRAL>
-4.85539

>  <SCORE.INTRA.DIHEDRAL.0>
18.4221

>  <SCORE.INTRA.POLAR>
1.39668

>  <SCORE.INTRA.POLAR.0>
-1.57101

>  <SCORE.INTRA.REPUL>
-0.730195

>  <SCORE.INTRA.REPUL.0>
0.730195

>  <SCORE.INTRA.SOLV>
-4.13616

>  <SCORE.INTRA.SOLV.lig_0>
-127.221

>  <SCORE.INTRA.VDW>
-12.3832

>  <SCORE.INTRA.VDW.0>
10.8385

>  <SCORE.INTRA.norm>
-0.493164

>  <SCORE.RESTR>
0.238055

>  <SCORE.RESTR.CAVITY>
0.238055

>  <SCORE.RESTR.norm>
0.00743921

>  <SCORE.SYSTEM>
0

>  <SCORE.SYSTEM.CONST>
0

>  <SCORE.SYSTEM.DIHEDRAL>
0

>  <SCORE.SYSTEM.SOLV>
0

>  <SCORE.SYSTEM.norm>
0

>  <SCORE.heavy>
32

>  <SCORE.norm>
-1.3958

>  <RMSD>
8.391

$$$$
2tob cryst
 OpenBabel11021811463D
libRbt.so/2013.1/901 2013/11/27
 32 34  0  0  0  0  0  0  0  0999 V2000
   -9.6813   -0.6136   -5.9169 C   0  0  2  0  0  0  0  0  0  0  0  0
   -9.7780   -0.8370   -4.4110 C   0  0  1  0  0  0  0  0  0  0  0  0
   -8.8017   -1.9432   -4.0102 C   0  0  2  0  0  0  0  0  0  0  0  0
   -9.0565   -3.2184   -4.8247 C   0  0  1  0  0  0  0  0  0  0  0  0
   -9.0711   -2.8898   -6.3216 C   0  0  1  0  0  0  0  0  0  0  0  0
   -9.4596   -4.0561   -7.2154 C   0  0  0  0  0  0  0  0  0  0  0  0
   -9.4565    0.3661   -3.7182 O   0  0  0  0  0  0  0  0  0  0  0  0
   -8.7521   -2.3320   -2.5652 N   0  3  0  0  0  0  0  0  0  0  0  0
   -8.0268   -4.1587   -4.5456 O   0  0  0  0  0  0  0  0  0  0  0  0
  -10.0035   -1.8212   -6.5805 O   0  0  0  0  0  0  0  0  0  0  0  0
   -8.5498   -4.1862   -8.3031 O   0  0  0  0  0  0  0  0  0  0  0  0
   -8.4205    1.8005   -7.5718 C   0  0  2  0  0  0  0  0  0  0  0  0
   -7.9139    2.5217   -8.8281 C   0  0  0  0  0  0  0  0  0  0  0  0
   -6.4549    2.1935   -9.1330 C   0  0  1  0  0  0  0  0  0  0  0  0
   -6.3217    0.6839   -9.2796 C   0  0  2  0  0  0  0  0  0  0  0  0
   -6.6624    0.0103   -7.9479 C   0  0  1  0  0  0  0  0  0  0  0  0
   -8.1243    0.2925   -7.5589 C   0  0  1  0  0  0  0  0  0  0  0  0
   -9.8982    2.0083   -7.4027 N   0  3  0  0  0  0  0  0  0  0  0  0
   -5.9893    2.9065  -10.3671 N   0  3  0  0  0  0  0  0  0  0  0  0
   -6.4437   -1.3904   -8.0589 O   0  0  0  0  0  0  0  0  0  0  0  0
   -4.9850    0.3323   -9.6810 O   0  0  0  0  0  0  0  0  0  0  0  0
   -8.3781   -0.1993   -6.2265 O   0  0  0  0  0  0  0  0  0  0  0  0
   -4.9149   -0.2101  -10.9708 C   0  0  2  0  0  0  0  0  0  0  0  0
   -3.8102   -1.2703  -11.0316 C   0  0  1  0  0  0  0  0  0  0  0  0
   -2.4261   -0.6209  -11.0383 C   0  0  0  0  0  0  0  0  0  0  0  0
   -2.3694    0.4093  -12.1547 C   0  0  1  0  0  0  0  0  0  0  0  0
   -3.4617    1.4419  -11.9373 C   0  0  1  0  0  0  0  0  0  0  0  0
   -3.4529    2.5050  -13.0207 C   0  0  0  0  0  0  0  0  0  0  0  0
   -3.9245   -2.1782   -9.8457 N   0  3  0  0  0  0  0  0  0  0  0  0
   -3.2979    3.8456  -12.3561 N   0  3  0  0  0  0  0  0  0  0  0  0
   -1.0988    1.0442  -12.1769 O   0  0  0  0  0  0  0  0  0  0  0  0
   -4.7434    0.7914  -11.9679 O   0  0  0  0  0  0  0  0  0  0  0  0
  1  2  1  0  0  0  0
  1 22  1  1  0  0  0
  1 10  1  0  0  0  0
  2  3  1  0  0  0  0
  2  7  1  1  0  0  0
  3  4  1  0  0  0  0
  3  8  1  1  0  0  0
  4  5  1  0  0  0  0
  4  9  1  6  0  0  0
  5  6  1  6  0  0  0
  5 10  1  0  0  0  0
  6 11  1  0  0  0  0
 12 13  1  0  0  0  0
 12 17  1  0  0  0  0
 12 18  1  6  0  0  0
 13 14  1  0  0  0  0
 14 15  1  0  0  0  0
 14 19  1  6  0  0  0
 15 16  1  0  0  0  0
 15 21  1  1  0  0  0
 16 17  1  0  0  0  0
 16 20  1  6  0  0  0
 17 22  1  1  0  0  0
 23 21  1  1  0  0  0
 23 24  1  0  0  0  0
 23 32  1  0  0  0  0
 24 25  1  0  0  0  0
 24 29  1  1  0  0  0
 25 26  1  0  0  0  0
 26 27  1  0  0  0  0
 26 31  1  1  0  0  0
 27 28  1  6  0  0  0
 27 32  1  0  0  0  0
 28 30  1  0  0  0  0
M  CHG  5   8   1  18   1  19   1  29   1  30   1
M  END
>  <CHROM.1>
-169.40176117,-66.20192912,63.48431337,171.85856543,-132.35613750,73.37577520
-169.81246687,119.12335226,-113.13075881,-58.79324304,87.83360829,-145.88230411
-155.04413652,-58.11488865,-122.95650272,-57.85807402,-6.66776466,-0.28137822
-8.32646473,2.56076490,-0.74579198,2.82840232

>  <Name>
2tob cryst

>  <RI>
0

>  <Rbt.Current_Directory>
/home/itssahil/PROJECTS/Mol_Feturizer/New_Systems/rnas/2tob

>  <Rbt.Executable>
rbdock ($Id: //depot/dev/client3/rdock/2013.1/src/exe/rbdock.cxx#4 $)

>  <Rbt.Library>
libRbt.so (2013.1, Build901 2013/11/27)

>  <Rbt.Parameter_File>
/export/apps/rDock/src/rDock_2013.1_src/data/scripts/dock_solv.prm

>  <Rbt.Receptor>
prm/blind_docking_40.prm

>  <SCORE>
2.76101

>  <SCORE.INTER>
6.27199

>  <SCORE.INTER.CONST>
1

>  <SCORE.INTER.POLAR>
-3.13446

>  <SCORE.INTER.ROT>
6

>  <SCORE.INTER.SOLV>
41.5531

>  <SCORE.INTER.VDW>
-6.82151

>  <SCORE.INTER.norm>
0.196

>  <SCORE.INTRA>
-10.4379

>  <SCORE.INTRA.DIHEDRAL>
13.341

>  <SCORE.INTRA.DIHEDRAL.0>
18.4221

>  <SCORE.INTRA.POLAR>
0.671874

>  <SCORE.INTRA.POLAR.0>
-1.57101

>  <SCORE.INTRA.REPUL>
-0.730195

>  <SCORE.INTRA.REPUL.0>
0.730195

>  <SCORE.INTRA.SOLV>
-1.24268

>  <SCORE.INTRA.SOLV.lig_0>
-127.221

>  <SCORE.INTRA.VDW>
-15.1205

>  <SCORE.INTRA.VDW.0>
10.8385

>  <SCORE.INTRA.norm>
-0.326185

>  <SCORE.RESTR>
6.92693

>  <SCORE.RESTR.CAVITY>
6.92693

>  <SCORE.RESTR.norm>
0.216467

>  <SCORE.SYSTEM>
0

>  <SCORE.SYSTEM.CONST>
0

>  <SCORE.SYSTEM.DIHEDRAL>
0

>  <SCORE.SYSTEM.SOLV>
0

>  <SCORE.SYSTEM.norm>
0

>  <SCORE.heavy>
32

>  <SCORE.norm>
0.0862815

>  <RMSD>
8.399

$$$$
2tob cryst
 OpenBabel11021811463D
libRbt.so/2013.1/901 2013/11/27
 32 34  0  0  0  0  0  0  0  0999 V2000
   -8.8364   -1.8794   -6.8550 C   0  0  2  0  0  0  0  0  0  0  0  0
   -9.7697   -3.0841   -6.7887 C   0  0  1  0  0  0  0  0  0  0  0  0
  -10.8942   -2.7861   -5.7965 C   0  0  2  0  0  0  0  0  0  0  0  0
  -10.3246   -2.3909   -4.4276 C   0  0  1  0  0  0  0  0  0  0  0  0
   -9.3011   -1.2621   -4.5922 C   0  0  1  0  0  0  0  0  0  0  0  0
   -8.5668   -0.8910   -3.3143 C   0  0  0  0  0  0  0  0  0  0  0  0
  -10.3189   -3.3468   -8.0772 O   0  0  0  0  0  0  0  0  0  0  0  0
  -11.9174   -3.8553   -5.5689 N   0  3  0  0  0  0  0  0  0  0  0  0
  -11.3903   -1.9598   -3.5905 O   0  0  0  0  0  0  0  0  0  0  0  0
   -8.3064   -1.6393   -5.5650 O   0  0  0  0  0  0  0  0  0  0  0  0
   -9.4785   -0.4352   -2.3199 O   0  0  0  0  0  0  0  0  0  0  0  0
   -9.4308    1.4350   -8.2742 C   0  0  2  0  0  0  0  0  0  0  0  0
   -8.6948    2.3859   -9.2278 C   0  0  0  0  0  0  0  0  0  0  0  0
   -7.1853    2.1606   -9.2160 C   0  0  1  0  0  0  0  0  0  0  0  0
   -6.9129    0.7069   -9.5774 C   0  0  2  0  0  0  0  0  0  0  0  0
   -7.5093   -0.2059   -8.5031 C   0  0  1  0  0  0  0  0  0  0  0  0
   -9.0381   -0.0412   -8.4431 C   0  0  1  0  0  0  0  0  0  0  0  0
  -10.9176    1.5660   -8.4405 N   0  3  0  0  0  0  0  0  0  0  0  0
   -6.4938    3.0982  -10.1599 N   0  3  0  0  0  0  0  0  0  0  0  0
   -7.1703   -1.5565   -8.7912 O   0  0  0  0  0  0  0  0  0  0  0  0
   -5.4974    0.4726   -9.6917 O   0  0  0  0  0  0  0  0  0  0  0  0
   -9.5637   -0.7730   -7.3161 O   0  0  0  0  0  0  0  0  0  0  0  0
   -5.1479   -0.2933  -10.8115 C   0  0  2  0  0  0  0  0  0  0  0  0
   -4.1345   -1.3706  -10.4112 C   0  0  1  0  0  0  0  0  0  0  0  0
   -2.7516   -0.7626  -10.1753 C   0  0  0  0  0  0  0  0  0  0  0  0
   -2.3543    0.0498  -11.3972 C   0  0  1  0  0  0  0  0  0  0  0  0
   -3.3962    1.1277  -11.6406 C   0  0  1  0  0  0  0  0  0  0  0  0
   -3.0512    1.9793  -12.8488 C   0  0  0  0  0  0  0  0  0  0  0  0
   -4.5965   -2.0490   -9.1583 N   0  3  0  0  0  0  0  0  0  0  0  0
   -1.7704    2.7105  -12.5524 N   0  3  0  0  0  0  0  0  0  0  0  0
   -1.0784    0.6432  -11.2024 O   0  0  0  0  0  0  0  0  0  0  0  0
   -4.6709    0.5098  -11.8859 O   0  0  0  0  0  0  0  0  0  0  0  0
  1  2  1  0  0  0  0
  1 22  1  1  0  0  0
  1 10  1  0  0  0  0
  2  3  1  0  0  0  0
  2  7  1  6  0  0  0
  3  4  1  0  0  0  0
  3  8  1  1  0  0  0
  4  5  1  0  0  0  0
  4  9  1  1  0  0  0
  5  6  1  1  0  0  0
  5 10  1  0  0  0  0
  6 11  1  0  0  0  0
 12 13  1  0  0  0  0
 12 17  1  0  0  0  0
 12 18  1  6  0  0  0
 13 14  1  0  0  0  0
 14 15  1  0  0  0  0
 14 19  1  6  0  0  0
 15 16  1  0  0  0  0
 15 21  1  1  0  0  0
 16 17  1  0  0  0  0
 16 20  1  6  0  0  0
 17 22  1  1  0  0  0
 23 21  1  1  0  0  0
 23 24  1  0  0  0  0
 23 32  1  0  0  0  0
 24 25  1  0  0  0  0
 24 29  1  1  0  0  0
 25 26  1  0  0  0  0
 26 27  1  0  0  0  0
 26 31  1  1  0  0  0
 27 28  1  6  0  0  0
 27 32  1  0  0  0  0
 28 30  1  0  0  0  0
M  CHG  5   8   1  18   1  19   1  29   1  30   1
M  END
>  <CHROM.1>
-127.31922392,176.74103779,-57.60045788,-175.08501208,-60.94009437,-169.32161427
-82.19173818,135.25926703,-135.88698749,-73.79262941,-147.64296406,-134.88299707
-168.14787232,65.40460337,-64.16271298,172.92184107,-7.21180660,-0.37252199
-8.31189032,-2.50614828,0.47715821,-0.58717043

>  <Name>
2tob cryst

>  <RI>
0

>  <Rbt.Current_Directory>
/home/itssahil/PROJECTS/Mol_Feturizer/New_Systems/rnas/2tob

>  <Rbt.Executable>
rbdock ($Id: //depot/dev/client3/rdock/2013.1/src/exe/rbdock.cxx#4 $)

>  <Rbt.Library>
libRbt.so (2013.1, Build901 2013/11/27)

>  <Rbt.Parameter_File>
/export/apps/rDock/src/rDock_2013.1_src/data/scripts/dock_solv.prm

>  <Rbt.Receptor>
prm/blind_docking_40.prm

>  <SCORE>
30.567

>  <SCORE.INTER>
32.4238

>  <SCORE.INTER.CONST>
1

>  <SCORE.INTER.POLAR>
-3.05514

>  <SCORE.INTER.ROT>
6

>  <SCORE.INTER.SOLV>
36.5032

>  <SCORE.INTER.VDW>
12.032

>  <SCORE.INTER.norm>
1.01324

>  <SCORE.INTRA>
-11.2604

>  <SCORE.INTRA.DIHEDRAL>
11.2221

>  <SCORE.INTRA.DIHEDRAL.0>
18.4221

>  <SCORE.INTRA.POLAR>
-0.111832

>  <SCORE.INTRA.POLAR.0>
-1.57101

>  <SCORE.INTRA.REPUL>
-0.730195

>  <SCORE.INTRA.REPUL.0>
0.730195

>  <SCORE.INTRA.SOLV>
-3.94176

>  <SCORE.INTRA.SOLV.lig_0>
-127.221

>  <SCORE.INTRA.VDW>
-10.8694

>  <SCORE.INTRA.VDW.0>
10.8385

>  <SCORE.INTRA.norm>
-0.351887

>  <SCORE.RESTR>
9.40353

>  <SCORE.RESTR.CAVITY>
9.40353

>  <SCORE.RESTR.norm>
0.29386

>  <SCORE.SYSTEM>
0

>  <SCORE.SYSTEM.CONST>
0

>  <SCORE.SYSTEM.DIHEDRAL>
0

>  <SCORE.SYSTEM.SOLV>
0

>  <SCORE.SYSTEM.norm>
0

>  <SCORE.heavy>
32

>  <SCORE.norm>
0.955218

>  <RMSD>
8.406

$$$$
2tob cryst
 OpenBabel11021811463D
libRbt.so/2013.1/901 2013/11/27
 32 34  0  0  0  0  0  0  0  0999 V2000
  -12.3519   -1.9048   -6.2404 C   0  0  2  0  0  0  0  0  0  0  0  0
  -13.4529   -2.5544   -5.4081 C   0  0  1  0  0  0  0  0  0  0  0  0
  -14.2990   -3.4476   -6.3159 C   0  0  2  0  0  0  0  0  0  0  0  0
  -14.8392   -2.6543   -7.5132 C   0  0  1  0  0  0  0  0  0  0  0  0
  -13.6905   -1.9278   -8.2214 C   0  0  1  0  0  0  0  0  0  0  0  0
  -14.1325   -0.9944   -9.3366 C   0  0  0  0  0  0  0  0  0  0  0  0
  -12.8781   -3.3339   -4.3627 O   0  0  0  0  0  0  0  0  0  0  0  0
  -15.4538   -4.1699   -5.6941 N   0  3  0  0  0  0  0  0  0  0  0  0
  -15.4729   -3.5528   -8.4151 O   0  0  0  0  0  0  0  0  0  0  0  0
  -12.9479   -1.1391   -7.2703 O   0  0  0  0  0  0  0  0  0  0  0  0
  -14.5523    0.2605   -8.8106 O   0  0  0  0  0  0  0  0  0  0  0  0
   -9.4385   -4.0753   -7.0297 C   0  0  2  0  0  0  0  0  0  0  0  0
   -7.9303   -3.9726   -7.2937 C   0  0  0  0  0  0  0  0  0  0  0  0
   -7.5940   -2.8751   -8.2996 C   0  0  1  0  0  0  0  0  0  0  0  0
   -8.1472   -1.5567   -7.7763 C   0  0  2  0  0  0  0  0  0  0  0  0
   -9.6738   -1.6393   -7.6988 C   0  0  1  0  0  0  0  0  0  0  0  0
  -10.1052   -2.7298   -6.7025 C   0  0  1  0  0  0  0  0  0  0  0  0
   -9.7152   -5.0406   -5.9131 N   0  3  0  0  0  0  0  0  0  0  0  0
   -6.1152   -2.7939   -8.5333 N   0  3  0  0  0  0  0  0  0  0  0  0
  -10.1944   -0.3766   -7.3032 O   0  0  0  0  0  0  0  0  0  0  0  0
   -7.7563   -0.4697   -8.6348 O   0  0  0  0  0  0  0  0  0  0  0  0
  -11.5348   -2.9138   -6.7696 O   0  0  0  0  0  0  0  0  0  0  0  0
   -6.5921    0.1843   -8.2110 C   0  0  2  0  0  0  0  0  0  0  0  0
   -6.8417    1.6941   -8.1307 C   0  0  1  0  0  0  0  0  0  0  0  0
   -6.8950    2.3165   -9.5261 C   0  0  0  0  0  0  0  0  0  0  0  0
   -5.6387    1.9276  -10.2886 C   0  0  1  0  0  0  0  0  0  0  0  0
   -5.5485    0.4134  -10.3635 C   0  0  1  0  0  0  0  0  0  0  0  0
   -4.3131   -0.0386  -11.1209 C   0  0  0  0  0  0  0  0  0  0  0  0
   -8.1388    1.9484   -7.4261 N   0  3  0  0  0  0  0  0  0  0  0  0
   -3.2093    0.9439  -10.8394 N   0  3  0  0  0  0  0  0  0  0  0  0
   -5.6655    2.4776  -11.5981 O   0  0  0  0  0  0  0  0  0  0  0  0
   -5.4712   -0.1244   -9.0324 O   0  0  0  0  0  0  0  0  0  0  0  0
  1  2  1  0  0  0  0
  1 22  1  6  0  0  0
  1 10  1  0  0  0  0
  2  3  1  0  0  0  0
  2  7  1  1  0  0  0
  3  4  1  0  0  0  0
  3  8  1  1  0  0  0
  4  5  1  0  0  0  0
  4  9  1  6  0  0  0
  5  6  1  6  0  0  0
  5 10  1  0  0  0  0
  6 11  1  0  0  0  0
 12 13  1  0  0  0  0
 12 17  1  0  0  0  0
 12 18  1  1  0  0  0
 13 14  1  0  0  0  0
 14 15  1  0  0  0  0
 14 19  1  1  0  0  0
 15 16  1  0  0  0  0
 15 21  1  6  0  0  0
 16 17  1  0  0  0  0
 16 20  1  1  0  0  0
 17 22  1  6  0  0  0
 23 21  1  6  0  0  0
 23 24  1  0  0  0  0
 23 32  1  0  0  0  0
 24 25  1  0  0  0  0
 24 29  1  6  0  0  0
 25 26  1  0  0  0  0
 26 27  1  0  0  0  0
 26 31  1  6  0  0  0
 27 28  1  6  0  0  0
 27 32  1  0  0  0  0
 28 30  1  0  0  0  0
M  CHG  5   8   1  18   1  19   1  29   1  30   1
M  END
>  <CHROM.1>
-135.21823701,-59.30217148,71.98484275,63.37213788,81.85869672,-160.69156202
98.87884942,-30.56437033,-94.46830651,168.83405454,166.94751164,-128.17658254
-156.60093007,-174.69644902,34.15114298,159.96295205,-9.72559878,-1.31353813
-8.00124016,2.63389832,-0.09633280,2.60548774

>  <Name>
2tob cryst

>  <RI>
0

>  <Rbt.Current_Directory>
/home/itssahil/PROJECTS/Mol_Feturizer/New_Systems/rnas/2tob

>  <Rbt.Executable>
rbdock ($Id: //depot/dev/client3/rdock/2013.1/src/exe/rbdock.cxx#4 $)

>  <Rbt.Library>
libRbt.so (2013.1, Build901 2013/11/27)

>  <Rbt.Parameter_File>
/export/apps/rDock/src/rDock_2013.1_src/data/scripts/dock_solv.prm

>  <Rbt.Receptor>
prm/blind_docking_80.prm

>  <SCORE>
-19.5168

>  <SCORE.INTER>
-13.8012

>  <SCORE.INTER.CONST>
1

>  <SCORE.INTER.POLAR>
-2.40284

>  <SCORE.INTER.ROT>
6

>  <SCORE.INTER.SOLV>
33.848

>  <SCORE.INTER.VDW>
-20.074

>  <SCORE.INTER.norm>
-0.431289

>  <SCORE.INTRA>
-12.6846

>  <SCORE.INTRA.DIHEDRAL>
12.6814

>  <SCORE.INTRA.DIHEDRAL.0>
18.4221

>  <SCORE.INTRA.POLAR>
-1.58656

>  <SCORE.INTRA.POLAR.0>
-1.57101

>  <SCORE.INTRA.REPUL>
-0.725224

>  <SCORE.INTRA.REPUL.0>
0.730195

>  <SCORE.INTRA.SOLV>
-1.75182

>  <SCORE.INTRA.SOLV.lig_0>
-127.221

>  <SCORE.INTRA.VDW>
-9.12898

>  <SCORE.INTRA.VDW.0>
10.8385

>  <SCORE.INTRA.norm>
-0.396394

>  <SCORE.RESTR>
6.96904

>  <SCORE.RESTR.CAVITY>
6.96904

>  <SCORE.RESTR.norm>
0.217782

>  <SCORE.SYSTEM>
0

>  <SCORE.SYSTEM.CONST>
0

>  <SCORE.SYSTEM.DIHEDRAL>
0

>  <SCORE.SYSTEM.SOLV>
0

>  <SCORE.SYSTEM.norm>
0

>  <SCORE.heavy>
32

>  <SCORE.norm>
-0.6099

>  <RMSD>
8.412

$$$$
2tob cryst
 OpenBabel11021811463D
libRbt.so/2013.1/901 2013/11/27
 32 34  0  0  0  0  0  0  0  0999 V2000
  -10.7586   -6.6611   -5.5207 C   0  0  2  0  0  0  0  0  0  0  0  0
  -10.5780   -8.0845   -6.0385 C   0  0  1  0  0  0  0  0  0  0  0  0
  -11.9386   -8.7818   -6.0569 C   0  0  2  0  0  0  0  0  0  0  0  0
  -12.6006   -8.7248   -4.6738 C   0  0  1  0  0  0  0  0  0  0  0  0
  -12.6297   -7.2789   -4.1662 C   0  0  1  0  0  0  0  0  0  0  0  0
  -13.1339   -7.1255   -2.7406 C   0  0  0  0  0  0  0  0  0  0  0  0
  -10.0301   -8.0589   -7.3538 O   0  0  0  0  0  0  0  0  0  0  0  0
  -11.9804  -10.2051   -6.5199 N   0  3  0  0  0  0  0  0  0  0  0  0
  -13.9264   -9.2292   -4.7747 O   0  0  0  0  0  0  0  0  0  0  0  0
  -11.3042   -6.7144   -4.2160 O   0  0  0  0  0  0  0  0  0  0  0  0
  -13.1590   -5.7545   -2.3567 O   0  0  0  0  0  0  0  0  0  0  0  0
  -11.9529   -3.9760   -5.0849 C   0  0  2  0  0  0  0  0  0  0  0  0
  -11.6139   -2.4938   -4.8767 C   0  0  0  0  0  0  0  0  0  0  0  0
  -10.1540   -2.1853   -5.1973 C   0  0  1  0  0  0  0  0  0  0  0  0
   -9.8757   -2.6122   -6.6320 C   0  0  2  0  0  0  0  0  0  0  0  0
  -10.0497   -4.1279   -6.7558 C   0  0  1  0  0  0  0  0  0  0  0  0
  -11.5017   -4.5316   -6.4450 C   0  0  1  0  0  0  0  0  0  0  0  0
  -13.4285   -4.2077   -4.9291 N   0  3  0  0  0  0  0  0  0  0  0  0
   -9.8533   -0.7310   -4.9907 N   0  3  0  0  0  0  0  0  0  0  0  0
   -9.6953   -4.5370   -8.0707 O   0  0  0  0  0  0  0  0  0  0  0  0
   -8.5415   -2.2368   -7.0199 O   0  0  0  0  0  0  0  0  0  0  0  0
  -11.6084   -5.9696   -6.3956 O   0  0  0  0  0  0  0  0  0  0  0  0
   -8.3902   -2.0662   -8.4022 C   0  0  2  0  0  0  0  0  0  0  0  0
   -6.9016   -2.0017   -8.7601 C   0  0  1  0  0  0  0  0  0  0  0  0
   -6.2962   -0.6591   -8.3497 C   0  0  0  0  0  0  0  0  0  0  0  0
   -7.1335    0.4623   -8.9433 C   0  0  1  0  0  0  0  0  0  0  0  0
   -8.5648    0.3301   -8.4528 C   0  0  1  0  0  0  0  0  0  0  0  0
   -9.4524    1.4289   -9.0086 C   0  0  0  0  0  0  0  0  0  0  0  0
   -6.1722   -3.1073   -8.0607 N   0  3  0  0  0  0  0  0  0  0  0  0
  -10.8850    1.0244   -8.7915 N   0  3  0  0  0  0  0  0  0  0  0  0
   -6.6058    1.7259   -8.5656 O   0  0  0  0  0  0  0  0  0  0  0  0
   -9.1010   -0.9316   -8.8860 O   0  0  0  0  0  0  0  0  0  0  0  0
  1  2  1  0  0  0  0
  1 22  1  6  0  0  0
  1 10  1  0  0  0  0
  2  3  1  0  0  0  0
  2  7  1  6  0  0  0
  3  4  1  0  0  0  0
  3  8  1  1  0  0  0
  4  5  1  0  0  0  0
  4  9  1  6  0  0  0
  5  6  1  1  0  0  0
  5 10  1  0  0  0  0
  6 11  1  0  0  0  0
 12 13  1  0  0  0  0
 12 17  1  0  0  0  0
 12 18  1  6  0  0  0
 13 14  1  0  0  0  0
 14 15  1  0  0  0  0
 14 19  1  6  0  0  0
 15 16  1  0  0  0  0
 15 21  1  1  0  0  0
 16 17  1  0  0  0  0
 16 20  1  6  0  0  0
 17 22  1  1  0  0  0
 23 21  1  1  0  0  0
 23 24  1  0  0  0  0
 23 32  1  0  0  0  0
 24 25  1  0  0  0  0
 24 29  1  1  0  0  0
 25 26  1  0  0  0  0
 26 27  1  0  0  0  0
 26 31  1  1  0  0  0
 27 28  1  6  0  0  0
 27 32  1  0  0  0  0
 28 30  1  0  0  0  0
M  CHG  5   8   1  18   1  19   1  29   1  30   1
M  END
>  <CHROM.1>
-155.17434361,69.28946537,117.54083532,72.21233615,-178.66921166,-67.40548206
29.84508889,-61.90543012,-154.56033360,-179.35436855,-66.11746078,-166.55183848
70.38981801,177.75912966,164.90701572,83.57426479,-10.32370822,-4.01394991
-6.46954877,-2.22079303,0.72947521,0.05132867

>  <Name>
2tob cryst

>  <RI>
3.35201e+07

>  <Rbt.Current_Directory>
/home/itssahil/PROJECTS/Mol_Feturizer/New_Systems/rnas/2tob

>  <Rbt.Executable>
rbdock ($Id: //depot/dev/client3/rdock/2013.1/src/exe/rbdock.cxx#4 $)

>  <Rbt.Library>
libRbt.so (2013.1, Build901 2013/11/27)

>  <Rbt.Parameter_File>
/export/apps/rDock/src/rDock_2013.1_src/data/scripts/dock_solv.prm

>  <Rbt.Receptor>
prm/pocket_docking_4.prm

>  <SCORE>
-56.1783

>  <SCORE.INTER>
-36.1527

>  <SCORE.INTER.CONST>
1

>  <SCORE.INTER.POLAR>
-5.88547

>  <SCORE.INTER.ROT>
6

>  <SCORE.INTER.SOLV>
31.3574

>  <SCORE.INTER.VDW>
-22.536

>  <SCORE.INTER.norm>
-1.12977

>  <SCORE.INTRA>
-20.0518

>  <SCORE.INTRA.DIHEDRAL>
-2.86705

>  <SCORE.INTRA.DIHEDRAL.0>
18.4221

>  <SCORE.INTRA.POLAR>
0.342257

>  <SCORE.INTRA.POLAR.0>
-1.57101

>  <SCORE.INTRA.REPUL>
-0.730195

>  <SCORE.INTRA.REPUL.0>
0.730195

>  <SCORE.INTRA.SOLV>
-3.88151

>  <SCORE.INTRA.SOLV.lig_0>
-127.221

>  <SCORE.INTRA.VDW>
-14.1902

>  <SCORE.INTRA.VDW.0>
10.8385

>  <SCORE.INTRA.norm>
-0.626618

>  <SCORE.RESTR>
0.0260783

>  <SCORE.RESTR.CAVITY>
0.0260783

>  <SCORE.RESTR.norm>
0.000814947

>  <SCORE.SYSTEM>
0

>  <SCORE.SYSTEM.CONST>
0

>  <SCORE.SYSTEM.DIHEDRAL>
0

>  <SCORE.SYSTEM.SOLV>
0

>  <SCORE.SYSTEM.norm>
0

>  <SCORE.heavy>
32

>  <SCORE.norm>
-1.75557

>  <RMSD>
8.430

$$$$
2tob cryst
 OpenBabel11021811463D
libRbt.so/2013.1/901 2013/11/27
 32 34  0  0  0  0  0  0  0  0999 V2000
  -12.0947   -4.2069   -7.7821 C   0  0  2  0  0  0  0  0  0  0  0  0
  -13.5071   -4.2402   -8.3574 C   0  0  1  0  0  0  0  0  0  0  0  0
  -14.1528   -2.8675   -8.1662 C   0  0  2  0  0  0  0  0  0  0  0  0
  -14.1143   -2.4463   -6.6912 C   0  0  1  0  0  0  0  0  0  0  0  0
  -12.6848   -2.5615   -6.1506 C   0  0  1  0  0  0  0  0  0  0  0  0
  -12.5572   -2.3068   -4.6577 C   0  0  0  0  0  0  0  0  0  0  0  0
  -13.4609   -4.5636   -9.7445 O   0  0  0  0  0  0  0  0  0  0  0  0
  -15.5586   -2.6908   -8.6503 N   0  3  0  0  0  0  0  0  0  0  0  0
  -14.5662   -1.1023   -6.5823 O   0  0  0  0  0  0  0  0  0  0  0  0
  -12.1682   -3.8828   -6.4066 O   0  0  0  0  0  0  0  0  0  0  0  0
  -13.0493   -3.4147   -3.9106 O   0  0  0  0  0  0  0  0  0  0  0  0
   -9.1924   -3.9874   -7.6887 C   0  0  2  0  0  0  0  0  0  0  0  0
   -7.7463   -3.6076   -7.3428 C   0  0  0  0  0  0  0  0  0  0  0  0
   -7.1788   -2.5641   -8.3011 C   0  0  1  0  0  0  0  0  0  0  0  0
   -8.0855   -1.3413   -8.2729 C   0  0  2  0  0  0  0  0  0  0  0  0
   -9.4720   -1.7226   -8.7976 C   0  0  1  0  0  0  0  0  0  0  0  0
  -10.1216   -2.7795   -7.8871 C   0  0  1  0  0  0  0  0  0  0  0  0
   -9.7724   -4.8797   -6.6292 N   0  3  0  0  0  0  0  0  0  0  0  0
   -5.7687   -2.2084   -7.9360 N   0  3  0  0  0  0  0  0  0  0  0  0
  -10.2876   -0.5596   -8.8621 O   0  0  0  0  0  0  0  0  0  0  0  0
   -7.5299   -0.2831   -9.0748 O   0  0  0  0  0  0  0  0  0  0  0  0
  -11.3456   -3.2536   -8.4862 O   0  0  0  0  0  0  0  0  0  0  0  0
   -6.4069    0.3232   -8.4970 C   0  0  2  0  0  0  0  0  0  0  0  0
   -6.5806    1.8456   -8.4917 C   0  0  1  0  0  0  0  0  0  0  0  0
   -6.3911    2.4244   -9.8941 C   0  0  0  0  0  0  0  0  0  0  0  0
   -5.0592    1.9466  -10.4497 C   0  0  1  0  0  0  0  0  0  0  0  0
   -5.0439    0.4281  -10.4735 C   0  0  1  0  0  0  0  0  0  0  0  0
   -3.7370   -0.1115  -11.0258 C   0  0  0  0  0  0  0  0  0  0  0  0
   -7.9516    2.1894   -7.9962 N   0  3  0  0  0  0  0  0  0  0  0  0
   -2.8117    1.0527  -11.2526 N   0  3  0  0  0  0  0  0  0  0  0  0
   -4.8604    2.4546  -11.7614 O   0  0  0  0  0  0  0  0  0  0  0  0
   -5.1954   -0.0696   -9.1332 O   0  0  0  0  0  0  0  0  0  0  0  0
  1  2  1  0  0  0  0
  1 22  1  6  0  0  0
  1 10  1  0  0  0  0
  2  3  1  0  0  0  0
  2  7  1  6  0  0  0
  3  4  1  0  0  0  0
  3  8  1  1  0  0  0
  4  5  1  0  0  0  0
  4  9  1  6  0  0  0
  5  6  1  1  0  0  0
  5 10  1  0  0  0  0
  6 11  1  0  0  0  0
 12 13  1  0  0  0  0
 12 17  1  0  0  0  0
 12 18  1  1  0  0  0
 13 14  1  0  0  0  0
 14 15  1  0  0  0  0
 14 19  1  1  0  0  0
 15 16  1  0  0  0  0
 15 21  1  6  0  0  0
 16 17  1  0  0  0  0
 16 20  1  1  0  0  0
 17 22  1  6  0  0  0
 23 21  1  6  0  0  0
 23 24  1  0  0  0  0
 23 32  1  0  0  0  0
 24 25  1  0  0  0  0
 24 29  1  6  0  0  0
 25 26  1  0  0  0  0
 26 27  1  0  0  0  0
 26 31  1  6  0  0  0
 27 28  1  1  0  0  0
 27 32  1  0  0  0  0
 28 30  1  0  0  0  0
M  CHG  5   8   1  18   1  19   1  29   1  30   1
M  END
>  <CHROM.1>
162.71643496,-178.85326295,52.79234586,71.55317680,74.63807499,-51.37460110
109.74097207,43.92080075,-72.27645228,169.14369817,59.98668786,-129.55649129
-160.14754456,65.48347791,5.42569557,-58.18693098,-9.35457745,-1.51778941
-8.29575597,-2.59873511,0.14776443,-0.38836683

>  <Name>
2tob cryst

>  <RI>
0

>  <Rbt.Current_Directory>
/home/itssahil/PROJECTS/Mol_Feturizer/New_Systems/rnas/2tob

>  <Rbt.Executable>
rbdock ($Id: //depot/dev/client3/rdock/2013.1/src/exe/rbdock.cxx#4 $)

>  <Rbt.Library>
libRbt.so (2013.1, Build901 2013/11/27)

>  <Rbt.Parameter_File>
/export/apps/rDock/src/rDock_2013.1_src/data/scripts/dock_solv.prm

>  <Rbt.Receptor>
prm/blind_docking_100.prm

>  <SCORE>
-32.7034

>  <SCORE.INTER>
-28.9517

>  <SCORE.INTER.CONST>
1

>  <SCORE.INTER.POLAR>
-4.15367

>  <SCORE.INTER.ROT>
6

>  <SCORE.INTER.SOLV>
36.7807

>  <SCORE.INTER.VDW>
-25.3158

>  <SCORE.INTER.norm>
-0.904739

>  <SCORE.INTRA>
-8.98215

>  <SCORE.INTRA.DIHEDRAL>
3.00056

>  <SCORE.INTRA.DIHEDRAL.0>
18.4221

>  <SCORE.INTRA.POLAR>
-0.504251

>  <SCORE.INTRA.POLAR.0>
-1.57101

>  <SCORE.INTRA.REPUL>
-0.730195

>  <SCORE.INTRA.REPUL.0>
0.730195

>  <SCORE.INTRA.SOLV>
1.54988

>  <SCORE.INTRA.SOLV.lig_0>
-127.221

>  <SCORE.INTRA.VDW>
-5.89194

>  <SCORE.INTRA.VDW.0>
10.8385

>  <SCORE.INTRA.norm>
-0.280692

>  <SCORE.RESTR>
5.23045

>  <SCORE.RESTR.CAVITY>
5.23045

>  <SCORE.RESTR.norm>
0.163452

>  <SCORE.SYSTEM>
0

>  <SCORE.SYSTEM.CONST>
0

>  <SCORE.SYSTEM.DIHEDRAL>
0

>  <SCORE.SYSTEM.SOLV>
0

>  <SCORE.SYSTEM.norm>
0

>  <SCORE.heavy>
32

>  <SCORE.norm>
-1.02198

>  <RMSD>
8.431

$$$$
2tob cryst
 OpenBabel11021811463D
libRbt.so/2013.1/901 2013/11/27
 32 34  0  0  0  0  0  0  0  0999 V2000
  -11.4620   -6.6408   -6.0784 C   0  0  2  0  0  0  0  0  0  0  0  0
  -11.1995   -8.0537   -5.5666 C   0  0  1  0  0  0  0  0  0  0  0  0
  -12.1387   -9.0235   -6.2844 C   0  0  2  0  0  0  0  0  0  0  0  0
  -13.6011   -8.5878   -6.1235 C   0  0  1  0  0  0  0  0  0  0  0  0
  -13.7592   -7.1205   -6.5369 C   0  0  1  0  0  0  0  0  0  0  0  0
  -15.1412   -6.5425   -6.2797 C   0  0  0  0  0  0  0  0  0  0  0  0
   -9.8448   -8.4186   -5.8162 O   0  0  0  0  0  0  0  0  0  0  0  0
  -12.0545  -10.4712   -5.9119 N   0  3  0  0  0  0  0  0  0  0  0  0
  -14.4218   -9.4123   -6.9414 O   0  0  0  0  0  0  0  0  0  0  0  0
  -12.8119   -6.3038   -5.8201 O   0  0  0  0  0  0  0  0  0  0  0  0
  -15.1325   -5.1257   -6.4221 O   0  0  0  0  0  0  0  0  0  0  0  0
  -12.6484   -5.0030   -8.5076 C   0  0  2  0  0  0  0  0  0  0  0  0
  -12.8708   -3.5480   -8.9418 C   0  0  0  0  0  0  0  0  0  0  0  0
  -12.2941   -2.5521   -7.9393 C   0  0  1  0  0  0  0  0  0  0  0  0
  -10.8110   -2.8487   -7.7651 C   0  0  2  0  0  0  0  0  0  0  0  0
  -10.6378   -4.2438   -7.1593 C   0  0  1  0  0  0  0  0  0  0  0  0
  -11.1981   -5.3176   -8.1084 C   0  0  1  0  0  0  0  0  0  0  0  0
  -13.0710   -5.9494   -9.5944 N   0  3  0  0  0  0  0  0  0  0  0  0
  -12.5206   -1.1407   -8.3916 N   0  3  0  0  0  0  0  0  0  0  0  0
   -9.2584   -4.4801   -6.9074 O   0  0  0  0  0  0  0  0  0  0  0  0
  -10.1962   -1.8634   -6.9151 O   0  0  0  0  0  0  0  0  0  0  0  0
  -11.1861   -6.6027   -7.4525 O   0  0  0  0  0  0  0  0  0  0  0  0
   -8.7960   -1.8915   -6.9516 C   0  0  2  0  0  0  0  0  0  0  0  0
   -8.2271   -1.0690   -5.7906 C   0  0  1  0  0  0  0  0  0  0  0  0
   -8.3799    0.4294   -6.0530 C   0  0  0  0  0  0  0  0  0  0  0  0
   -7.7766    0.7573   -7.4092 C   0  0  1  0  0  0  0  0  0  0  0  0
   -8.4760   -0.0637   -8.4786 C   0  0  1  0  0  0  0  0  0  0  0  0
   -7.9196    0.2247   -9.8611 C   0  0  0  0  0  0  0  0  0  0  0  0
   -8.9477   -1.4256   -4.5268 N   0  3  0  0  0  0  0  0  0  0  0  0
   -8.2103    1.6639  -10.1888 N   0  3  0  0  0  0  0  0  0  0  0  0
   -7.9180    2.1425   -7.6909 O   0  0  0  0  0  0  0  0  0  0  0  0
   -8.2810   -1.4620   -8.2074 O   0  0  0  0  0  0  0  0  0  0  0  0
  1  2  1  0  0  0  0
  1 22  1  6  0  0  0
  1 10  1  0  0  0  0
  2  3  1  0  0  0  0
  2  7  1  6  0  0  0
  3  4  1  0  0  0  0
  3  8  1  1  0  0  0
  4  5  1  0  0  0  0
  4  9  1  6  0  0  0
  5  6  1  1  0  0  0
  5 10  1  0  0  0  0
  6 11  1  0  0  0  0
 12 13  1  0  0  0  0
 12 17  1  0  0  0  0
 12 18  1  6  0  0  0
 13 14  1  0  0  0  0
 14 15  1  0  0  0  0
 14 19  1  6  0  0  0
 15 16  1  0  0  0  0
 15 21  1  1  0  0  0
 16 17  1  0  0  0  0
 16 20  1  6  0  0  0
 17 22  1  1  0  0  0
 23 21  1  6  0  0  0
 23 24  1  0  0  0  0
 23 32  1  0  0  0  0
 24 25  1  0  0  0  0
 24 29  1  1  0  0  0
 25 26  1  0  0  0  0
 26 27  1  0  0  0  0
 26 31  1  6  0  0  0
 27 28  1  6  0  0  0
 27 32  1  0  0  0  0
 28 30  1  0  0  0  0
M  CHG  5   8   1  18   1  19   1  29   1  30   1
M  END
>  <CHROM.1>
-171.99872996,-71.52351930,-66.93129196,-61.81314899,167.80370036,65.47239314
172.86561802,54.30807254,-166.38668190,-61.64164612,-85.22638242,-166.29758294
-174.98864094,63.28531797,-63.86653519,22.52155378,-10.97938041,-4.06125629
-7.21864629,-2.11203773,-0.44370261,-0.41429209

>  <Name>
2tob cryst

>  <RI>
0

>  <Rbt.Current_Directory>
/home/itssahil/PROJECTS/Mol_Feturizer/New_Systems/rnas/2tob

>  <Rbt.Executable>
rbdock ($Id: //depot/dev/client3/rdock/2013.1/src/exe/rbdock.cxx#4 $)

>  <Rbt.Library>
libRbt.so (2013.1, Build901 2013/11/27)

>  <Rbt.Parameter_File>
/export/apps/rDock/src/rDock_2013.1_src/data/scripts/dock_solv.prm

>  <Rbt.Receptor>
prm/pocket_docking_3.prm

>  <SCORE>
-45.1253

>  <SCORE.INTER>
-23.9451

>  <SCORE.INTER.CONST>
1

>  <SCORE.INTER.POLAR>
-3.33293

>  <SCORE.INTER.ROT>
6

>  <SCORE.INTER.SOLV>
21.7416

>  <SCORE.INTER.VDW>
-19.7008

>  <SCORE.INTER.norm>
-0.748284

>  <SCORE.INTRA>
-21.6157

>  <SCORE.INTRA.DIHEDRAL>
-9.13311

>  <SCORE.INTRA.DIHEDRAL.0>
18.4221

>  <SCORE.INTRA.POLAR>
0.593534

>  <SCORE.INTRA.POLAR.0>
-1.57101

>  <SCORE.INTRA.REPUL>
-0.730195

>  <SCORE.INTRA.REPUL.0>
0.730195

>  <SCORE.INTRA.SOLV>
-5.81842

>  <SCORE.INTRA.SOLV.lig_0>
-127.221

>  <SCORE.INTRA.VDW>
-12.507

>  <SCORE.INTRA.VDW.0>
10.8385

>  <SCORE.INTRA.norm>
-0.67549

>  <SCORE.RESTR>
0.435458

>  <SCORE.RESTR.CAVITY>
0.435458

>  <SCORE.RESTR.norm>
0.0136081

>  <SCORE.SYSTEM>
0

>  <SCORE.SYSTEM.CONST>
0

>  <SCORE.SYSTEM.DIHEDRAL>
0

>  <SCORE.SYSTEM.SOLV>
0

>  <SCORE.SYSTEM.norm>
0

>  <SCORE.heavy>
32

>  <SCORE.norm>
-1.41017

>  <RMSD>
8.433

$$$$
2tob cryst
 OpenBabel11021811463D
libRbt.so/2013.1/901 2013/11/27
 32 34  0  0  0  0  0  0  0  0999 V2000
  -11.6214   -7.9610   -8.5084 C   0  0  2  0  0  0  0  0  0  0  0  0
  -11.7220   -8.9732   -9.6453 C   0  0  1  0  0  0  0  0  0  0  0  0
  -12.7977  -10.0029   -9.2985 C   0  0  2  0  0  0  0  0  0  0  0  0
  -12.5134  -10.6532   -7.9381 C   0  0  1  0  0  0  0  0  0  0  0  0
  -12.2979   -9.5707   -6.8748 C   0  0  1  0  0  0  0  0  0  0  0  0
  -11.8655  -10.1023   -5.5181 C   0  0  0  0  0  0  0  0  0  0  0  0
  -12.0615   -8.3097  -10.8599 O   0  0  0  0  0  0  0  0  0  0  0  0
  -13.0447  -11.1036  -10.2831 N   0  3  0  0  0  0  0  0  0  0  0  0
  -13.6182  -11.4727   -7.5775 O   0  0  0  0  0  0  0  0  0  0  0  0
  -11.2852   -8.6442   -7.3156 O   0  0  0  0  0  0  0  0  0  0  0  0
  -12.8881  -10.9069   -4.9397 O   0  0  0  0  0  0  0  0  0  0  0  0
  -14.2484   -5.4062   -7.8667 C   0  0  2  0  0  0  0  0  0  0  0  0
  -14.3189   -3.9363   -7.4311 C   0  0  0  0  0  0  0  0  0  0  0  0
  -13.2426   -3.5856   -6.4074 C   0  0  1  0  0  0  0  0  0  0  0  0
  -11.8823   -3.9117   -7.0085 C   0  0  2  0  0  0  0  0  0  0  0  0
  -11.7845   -5.4182   -7.2613 C   0  0  1  0  0  0  0  0  0  0  0  0
  -12.8424   -5.8631   -8.2866 C   0  0  1  0  0  0  0  0  0  0  0  0
  -15.2036   -5.6694   -8.9951 N   0  3  0  0  0  0  0  0  0  0  0  0
  -13.3319   -2.1440   -6.0049 N   0  3  0  0  0  0  0  0  0  0  0  0
  -10.4799   -5.7334   -7.7312 O   0  0  0  0  0  0  0  0  0  0  0  0
  -10.8268   -3.4916   -6.1247 O   0  0  0  0  0  0  0  0  0  0  0  0
  -12.8529   -7.3026   -8.3833 O   0  0  0  0  0  0  0  0  0  0  0  0
   -9.5934   -3.3270   -6.7684 C   0  0  2  0  0  0  0  0  0  0  0  0
   -8.5305   -2.8892   -5.7553 C   0  0  1  0  0  0  0  0  0  0  0  0
   -8.7195   -1.4244   -5.3599 C   0  0  0  0  0  0  0  0  0  0  0  0
   -8.7728   -0.5757   -6.6200 C   0  0  1  0  0  0  0  0  0  0  0  0
   -9.9114   -1.0604   -7.5007 C   0  0  1  0  0  0  0  0  0  0  0  0
  -10.0200   -0.2454   -8.7767 C   0  0  0  0  0  0  0  0  0  0  0  0
   -8.6245   -3.7476   -4.5314 N   0  3  0  0  0  0  0  0  0  0  0  0
  -11.4768    0.0329   -9.0285 N   0  3  0  0  0  0  0  0  0  0  0  0
   -8.9652    0.7917   -6.2868 O   0  0  0  0  0  0  0  0  0  0  0  0
   -9.6763   -2.4296   -7.8705 O   0  0  0  0  0  0  0  0  0  0  0  0
  1  2  1  0  0  0  0
  1 22  1  1  0  0  0
  1 10  1  0  0  0  0
  2  3  1  0  0  0  0
  2  7  1  6  0  0  0
  3  4  1  0  0  0  0
  3  8  1  6  0  0  0
  4  5  1  0  0  0  0
  4  9  1  1  0  0  0
  5  6  1  1  0  0  0
  5 10  1  0  0  0  0
  6 11  1  0  0  0  0
 12 13  1  0  0  0  0
 12 17  1  0  0  0  0
 12 18  1  6  0  0  0
 13 14  1  0  0  0  0
 14 15  1  0  0  0  0
 14 19  1  6  0  0  0
 15 16  1  0  0  0  0
 15 21  1  1  0  0  0
 16 17  1  0  0  0  0
 16 20  1  6  0  0  0
 17 22  1  1  0  0  0
 23 21  1  1  0  0  0
 23 24  1  0  0  0  0
 23 32  1  0  0  0  0
 24 25  1  0  0  0  0
 24 29  1  1  0  0  0
 25 26  1  0  0  0  0
 26 27  1  0  0  0  0
 26 31  1  1  0  0  0
 27 28  1  6  0  0  0
 27 32  1  0  0  0  0
 28 30  1  0  0  0  0
M  CHG  5   8   1  18   1  19   1  29   1  30   1
M  END
>  <CHROM.1>
-132.22348627,177.85923783,61.59343040,-61.29239115,-64.61571342,178.80081569
62.77551451,-61.07246693,-159.22646662,-60.65791149,-168.33095933,-179.65349857
-172.68484946,-70.54254173,-137.32048530,62.16797747,-11.61889647,-5.48691903
-7.46983001,-2.01440660,-0.78854587,-0.17762899

>  <Name>
2tob cryst

>  <RI>
0

>  <Rbt.Current_Directory>
/home/itssahil/PROJECTS/Mol_Feturizer/New_Systems/rnas/2tob

>  <Rbt.Executable>
rbdock ($Id: //depot/dev/client3/rdock/2013.1/src/exe/rbdock.cxx#4 $)

>  <Rbt.Library>
libRbt.so (2013.1, Build901 2013/11/27)

>  <Rbt.Parameter_File>
/export/apps/rDock/src/rDock_2013.1_src/data/scripts/dock_solv.prm

>  <Rbt.Receptor>
prm/pocket_docking_6.prm

>  <SCORE>
-45.3143

>  <SCORE.INTER>
-27.0157

>  <SCORE.INTER.CONST>
1

>  <SCORE.INTER.POLAR>
-4.39187

>  <SCORE.INTER.ROT>
6

>  <SCORE.INTER.SOLV>
18.8358

>  <SCORE.INTER.VDW>
-17.2495

>  <SCORE.INTER.norm>
-0.84424

>  <SCORE.INTRA>
-18.2986

>  <SCORE.INTRA.DIHEDRAL>
-4.03581

>  <SCORE.INTRA.DIHEDRAL.0>
18.4221

>  <SCORE.INTRA.POLAR>
1.53082

>  <SCORE.INTRA.POLAR.0>
-1.57101

>  <SCORE.INTRA.REPUL>
-0.730195

>  <SCORE.INTRA.REPUL.0>
0.730195

>  <SCORE.INTRA.SOLV>
-9.10645

>  <SCORE.INTRA.SOLV.lig_0>
-127.221

>  <SCORE.INTRA.VDW>
-13.2813

>  <SCORE.INTRA.VDW.0>
10.8385

>  <SCORE.INTRA.norm>
-0.571831

>  <SCORE.RESTR>
0

>  <SCORE.RESTR.CAVITY>
0

>  <SCORE.RESTR.norm>
0

>  <SCORE.SYSTEM>
0

>  <SCORE.SYSTEM.CONST>
0

>  <SCORE.SYSTEM.DIHEDRAL>
0

>  <SCORE.SYSTEM.SOLV>
0

>  <SCORE.SYSTEM.norm>
0

>  <SCORE.heavy>
32

>  <SCORE.norm>
-1.41607

>  <RMSD>
8.433

$$$$
2tob cryst
 OpenBabel11021811463D
libRbt.so/2013.1/901 2013/11/27
 32 34  0  0  0  0  0  0  0  0999 V2000
  -11.0671   -7.7958   -7.7592 C   0  0  2  0  0  0  0  0  0  0  0  0
  -11.0620   -8.5037   -9.1105 C   0  0  1  0  0  0  0  0  0  0  0  0
  -12.2957   -9.4018   -9.2044 C   0  0  2  0  0  0  0  0  0  0  0  0
  -12.3566  -10.3725   -8.0175 C   0  0  1  0  0  0  0  0  0  0  0  0
  -12.2275   -9.5988   -6.7008 C   0  0  1  0  0  0  0  0  0  0  0  0
  -12.1297  -10.4776   -5.4647 C   0  0  0  0  0  0  0  0  0  0  0  0
  -11.0815   -7.5438  -10.1636 O   0  0  0  0  0  0  0  0  0  0  0  0
  -12.4728  -10.2055  -10.4552 N   0  3  0  0  0  0  0  0  0  0  0  0
  -13.5972  -11.0668   -8.0513 O   0  0  0  0  0  0  0  0  0  0  0  0
  -11.0488   -8.7693   -6.7324 O   0  0  0  0  0  0  0  0  0  0  0  0
  -13.2972  -11.2800   -5.3196 O   0  0  0  0  0  0  0  0  0  0  0  0
  -13.5425   -5.0364   -8.1355 C   0  0  2  0  0  0  0  0  0  0  0  0
  -13.5727   -3.5142   -8.3283 C   0  0  0  0  0  0  0  0  0  0  0  0
  -12.6018   -2.7951   -7.3958 C   0  0  1  0  0  0  0  0  0  0  0  0
  -11.2039   -3.3479   -7.6373 C   0  0  2  0  0  0  0  0  0  0  0  0
  -11.1700   -4.8310   -7.2603 C   0  0  1  0  0  0  0  0  0  0  0  0
  -12.1281   -5.6373   -8.1547 C   0  0  1  0  0  0  0  0  0  0  0  0
  -14.3760   -5.7184   -9.1822 N   0  3  0  0  0  0  0  0  0  0  0  0
  -12.6485   -1.3119   -7.6100 N   0  3  0  0  0  0  0  0  0  0  0  0
   -9.8417   -5.3209   -7.3939 O   0  0  0  0  0  0  0  0  0  0  0  0
  -10.2334   -2.6208   -6.8621 O   0  0  0  0  0  0  0  0  0  0  0  0
  -12.2154   -6.9956   -7.6761 O   0  0  0  0  0  0  0  0  0  0  0  0
   -8.9803   -2.5295   -7.4819 C   0  0  2  0  0  0  0  0  0  0  0  0
   -7.9326   -2.0491   -6.4722 C   0  0  1  0  0  0  0  0  0  0  0  0
   -8.0943   -0.5568   -6.1815 C   0  0  0  0  0  0  0  0  0  0  0  0
   -8.0941    0.2053   -7.4968 C   0  0  1  0  0  0  0  0  0  0  0  0
   -9.2218   -0.3109   -8.3733 C   0  0  1  0  0  0  0  0  0  0  0  0
   -9.2774    0.4179   -9.7037 C   0  0  0  0  0  0  0  0  0  0  0  0
   -8.0793   -2.8200   -5.1963 N   0  3  0  0  0  0  0  0  0  0  0  0
   -9.8364    1.7927   -9.4581 N   0  3  0  0  0  0  0  0  0  0  0  0
   -8.2600    1.5964   -7.2616 O   0  0  0  0  0  0  0  0  0  0  0  0
   -9.0124   -1.7073   -8.6437 O   0  0  0  0  0  0  0  0  0  0  0  0
  1  2  1  0  0  0  0
  1 22  1  1  0  0  0
  1 10  1  0  0  0  0
  2  3  1  0  0  0  0
  2  7  1  6  0  0  0
  3  4  1  0  0  0  0
  3  8  1  6  0  0  0
  4  5  1  0  0  0  0
  4  9  1  1  0  0  0
  5  6  1  1  0  0  0
  5 10  1  0  0  0  0
  6 11  1  0  0  0  0
 12 13  1  0  0  0  0
 12 17  1  0  0  0  0
 12 18  1  6  0  0  0
 13 14  1  0  0  0  0
 14 15  1  0  0  0  0
 14 19  1  6  0  0  0
 15 16  1  0  0  0  0
 15 21  1  1  0  0  0
 16 17  1  0  0  0  0
 16 20  1  6  0  0  0
 17 22  1  1  0  0  0
 23 21  1  1  0  0  0
 23 24  1  0  0  0  0
 23 32  1  0  0  0  0
 24 25  1  0  0  0  0
 24 29  1  1  0  0  0
 25 26  1  0  0  0  0
 26 27  1  0  0  0  0
 26 31  1  1  0  0  0
 27 28  1  6  0  0  0
 27 32  1  0  0  0  0
 28 30  1  0  0  0  0
M  CHG  5   8   1  18   1  19   1  29   1  30   1
M  END
>  <CHROM.1>
-89.51813860,-65.97061673,71.78227570,-171.00871787,-61.00445586,176.08544595
-85.48216523,49.07308966,-147.95713311,71.12094371,172.42771301,-166.52388670
-20.68286707,60.27335103,-74.01623654,-176.67424039,-11.04620497,-4.95041954
-7.78209817,-2.02750578,-0.71561965,-0.30895452

>  <Name>
2tob cryst

>  <RI>
0

>  <Rbt.Current_Directory>
/home/itssahil/PROJECTS/Mol_Feturizer/New_Systems/rnas/2tob

>  <Rbt.Executable>
rbdock ($Id: //depot/dev/client3/rdock/2013.1/src/exe/rbdock.cxx#4 $)

>  <Rbt.Library>
libRbt.so (2013.1, Build901 2013/11/27)

>  <Rbt.Parameter_File>
/export/apps/rDock/src/rDock_2013.1_src/data/scripts/dock_solv.prm

>  <Rbt.Receptor>
prm/pocket_docking_5.prm

>  <SCORE>
-46.3669

>  <SCORE.INTER>
-25.2423

>  <SCORE.INTER.CONST>
1

>  <SCORE.INTER.POLAR>
-3.62496

>  <SCORE.INTER.ROT>
6

>  <SCORE.INTER.SOLV>
23.7481

>  <SCORE.INTER.VDW>
-20.261

>  <SCORE.INTER.norm>
-0.78882

>  <SCORE.INTRA>
-21.1247

>  <SCORE.INTRA.DIHEDRAL>
-3.05435

>  <SCORE.INTRA.DIHEDRAL.0>
18.4221

>  <SCORE.INTRA.POLAR>
0.0013812

>  <SCORE.INTRA.POLAR.0>
-1.57101

>  <SCORE.INTRA.REPUL>
-0.704964

>  <SCORE.INTRA.REPUL.0>
0.730195

>  <SCORE.INTRA.SOLV>
-5.02985

>  <SCORE.INTRA.SOLV.lig_0>
-127.221

>  <SCORE.INTRA.VDW>
-13.5625

>  <SCORE.INTRA.VDW.0>
10.8385

>  <SCORE.INTRA.norm>
-0.660146

>  <SCORE.RESTR>
0

>  <SCORE.RESTR.CAVITY>
0

>  <SCORE.RESTR.norm>
0

>  <SCORE.SYSTEM>
0

>  <SCORE.SYSTEM.CONST>
0

>  <SCORE.SYSTEM.DIHEDRAL>
0

>  <SCORE.SYSTEM.SOLV>
0

>  <SCORE.SYSTEM.norm>
0

>  <SCORE.heavy>
32

>  <SCORE.norm>
-1.44897

>  <RMSD>
8.436

$$$$
2tob cryst
 OpenBabel11021811463D
libRbt.so/2013.1/901 2013/11/27
 32 34  0  0  0  0  0  0  0  0999 V2000
  -14.5336   -5.8110   -6.8186 C   0  0  2  0  0  0  0  0  0  0  0  0
  -15.9718   -6.2679   -6.5950 C   0  0  1  0  0  0  0  0  0  0  0  0
  -16.3462   -6.0285   -5.1320 C   0  0  2  0  0  0  0  0  0  0  0  0
  -15.3449   -6.7135   -4.1926 C   0  0  1  0  0  0  0  0  0  0  0  0
  -13.9151   -6.3037   -4.5621 C   0  0  1  0  0  0  0  0  0  0  0  0
  -12.8329   -7.0375   -3.7872 C   0  0  0  0  0  0  0  0  0  0  0  0
  -16.8527   -5.5384   -7.4450 O   0  0  0  0  0  0  0  0  0  0  0  0
  -17.7217   -6.4279   -4.6957 N   0  3  0  0  0  0  0  0  0  0  0  0
  -15.6284   -6.3273   -2.8537 O   0  0  0  0  0  0  0  0  0  0  0  0
  -13.6808   -6.5484   -5.9633 O   0  0  0  0  0  0  0  0  0  0  0  0
  -12.9015   -8.4398   -4.0253 O   0  0  0  0  0  0  0  0  0  0  0  0
  -14.6614   -2.2796   -7.6053 C   0  0  2  0  0  0  0  0  0  0  0  0
  -13.9771   -1.1611   -8.4027 C   0  0  0  0  0  0  0  0  0  0  0  0
  -12.5249   -0.9566   -7.9799 C   0  0  1  0  0  0  0  0  0  0  0  0
  -11.7847   -2.2766   -8.1465 C   0  0  2  0  0  0  0  0  0  0  0  0
  -12.3831   -3.3196   -7.1994 C   0  0  1  0  0  0  0  0  0  0  0  0
  -13.8565   -3.5877   -7.5534 C   0  0  1  0  0  0  0  0  0  0  0  0
  -16.0253   -2.5684   -8.1637 N   0  3  0  0  0  0  0  0  0  0  0  0
  -11.8807    0.1368   -8.7786 N   0  3  0  0  0  0  0  0  0  0  0  0
  -11.6290   -4.5221   -7.2857 O   0  0  0  0  0  0  0  0  0  0  0  0
  -10.3827   -2.1069   -7.8690 O   0  0  0  0  0  0  0  0  0  0  0  0
  -14.4523   -4.4372   -6.5508 O   0  0  0  0  0  0  0  0  0  0  0  0
   -9.5864   -2.0741   -9.0212 C   0  0  2  0  0  0  0  0  0  0  0  0
   -8.3151   -2.9006   -8.8006 C   0  0  1  0  0  0  0  0  0  0  0  0
   -7.3339   -2.1650   -7.8876 C   0  0  0  0  0  0  0  0  0  0  0  0
   -7.0883   -0.7727   -8.4463 C   0  0  1  0  0  0  0  0  0  0  0  0
   -8.4112   -0.0331   -8.5435 C   0  0  1  0  0  0  0  0  0  0  0  0
   -8.2304    1.3709   -9.0915 C   0  0  0  0  0  0  0  0  0  0  0  0
   -8.6764   -4.2155   -8.1807 N   0  3  0  0  0  0  0  0  0  0  0  0
   -9.3376    2.2300   -8.5446 N   0  3  0  0  0  0  0  0  0  0  0  0
   -6.1917   -0.0558   -7.6096 O   0  0  0  0  0  0  0  0  0  0  0  0
   -9.2889   -0.7442   -9.4328 O   0  0  0  0  0  0  0  0  0  0  0  0
  1  2  1  0  0  0  0
  1 22  1  1  0  0  0
  1 10  1  0  0  0  0
  2  3  1  0  0  0  0
  2  7  1  6  0  0  0
  3  4  1  0  0  0  0
  3  8  1  6  0  0  0
  4  5  1  0  0  0  0
  4  9  1  1  0  0  0
  5  6  1  1  0  0  0
  5 10  1  0  0  0  0
  6 11  1  0  0  0  0
 12 13  1  0  0  0  0
 12 17  1  0  0  0  0
 12 18  1  6  0  0  0
 13 14  1  0  0  0  0
 14 15  1  0  0  0  0
 14 19  1  6  0  0  0
 15 16  1  0  0  0  0
 15 21  1  1  0  0  0
 16 17  1  0  0  0  0
 16 20  1  6  0  0  0
 17 22  1  1  0  0  0
 23 21  1  1  0  0  0
 23 24  1  0  0  0  0
 23 32  1  0  0  0  0
 24 25  1  0  0  0  0
 24 29  1  1  0  0  0
 25 26  1  0  0  0  0
 26 27  1  0  0  0  0
 26 31  1  1  0  0  0
 27 28  1  6  0  0  0
 27 32  1  0  0  0  0
 28 30  1  0  0  0  0
M  CHG  5   8   1  18   1  19   1  29   1  30   1
M  END
>  <CHROM.1>
-128.19656497,63.64438411,69.75408293,176.85945889,60.85065438,177.83783115
-71.13071318,-12.39830162,-103.91179826,179.31241451,140.96174275,-137.59047529
-156.28560853,-85.46867810,-152.20178700,125.11018835,-12.26187480,-3.38363475
-7.07737403,2.35959823,0.02402920,2.59475833

>  <Name>
2tob cryst

>  <RI>
0

>  <Rbt.Current_Directory>
/home/itssahil/PROJECTS/Mol_Feturizer/New_Systems/rnas/2tob

>  <Rbt.Executable>
rbdock ($Id: //depot/dev/client3/rdock/2013.1/src/exe/rbdock.cxx#4 $)

>  <Rbt.Library>
libRbt.so (2013.1, Build901 2013/11/27)

>  <Rbt.Parameter_File>
/export/apps/rDock/src/rDock_2013.1_src/data/scripts/dock_solv.prm

>  <Rbt.Receptor>
prm/pocket_docking_6.prm

>  <SCORE>
-45.0492

>  <SCORE.INTER>
-31.5439

>  <SCORE.INTER.CONST>
1

>  <SCORE.INTER.POLAR>
-6.4872

>  <SCORE.INTER.ROT>
6

>  <SCORE.INTER.SOLV>
29.1746

>  <SCORE.INTER.VDW>
-16.7302

>  <SCORE.INTER.norm>
-0.985747

>  <SCORE.INTRA>
-13.5053

>  <SCORE.INTRA.DIHEDRAL>
19.2805

>  <SCORE.INTRA.DIHEDRAL.0>
18.4221

>  <SCORE.INTRA.POLAR>
-1.40917

>  <SCORE.INTRA.POLAR.0>
-1.57101

>  <SCORE.INTRA.REPUL>
-0.730195

>  <SCORE.INTRA.REPUL.0>
0.730195

>  <SCORE.INTRA.SOLV>
0.0374952

>  <SCORE.INTRA.SOLV.lig_0>
-127.221

>  <SCORE.INTRA.VDW>
-14.7222

>  <SCORE.INTRA.VDW.0>
10.8385

>  <SCORE.INTRA.norm>
-0.422041

>  <SCORE.RESTR>
0

>  <SCORE.RESTR.CAVITY>
0

>  <SCORE.RESTR.norm>
0

>  <SCORE.SYSTEM>
0

>  <SCORE.SYSTEM.CONST>
0

>  <SCORE.SYSTEM.DIHEDRAL>
0

>  <SCORE.SYSTEM.SOLV>
0

>  <SCORE.SYSTEM.norm>
0

>  <SCORE.heavy>
32

>  <SCORE.norm>
-1.40779

>  <RMSD>
8.438

$$$$
2tob cryst
 OpenBabel11021811463D
libRbt.so/2013.1/901 2013/11/27
 32 34  0  0  0  0  0  0  0  0999 V2000
  -10.8736   -6.1175   -4.5273 C   0  0  2  0  0  0  0  0  0  0  0  0
  -10.3410   -7.5181   -4.8126 C   0  0  1  0  0  0  0  0  0  0  0  0
  -11.5082   -8.4198   -5.2157 C   0  0  2  0  0  0  0  0  0  0  0  0
  -12.6078   -8.4012   -4.1456 C   0  0  1  0  0  0  0  0  0  0  0  0
  -12.9989   -6.9552   -3.8215 C   0  0  1  0  0  0  0  0  0  0  0  0
  -13.9791   -6.8148   -2.6683 C   0  0  0  0  0  0  0  0  0  0  0  0
   -9.3816   -7.4697   -5.8653 O   0  0  0  0  0  0  0  0  0  0  0  0
  -11.2012   -9.8525   -5.5238 N   0  3  0  0  0  0  0  0  0  0  0  0
  -13.7394   -9.1111   -4.6333 O   0  0  0  0  0  0  0  0  0  0  0  0
  -11.8235   -6.1932   -3.4811 O   0  0  0  0  0  0  0  0  0  0  0  0
  -13.4712   -7.4375   -1.4927 O   0  0  0  0  0  0  0  0  0  0  0  0
  -11.8226   -3.4604   -4.6727 C   0  0  2  0  0  0  0  0  0  0  0  0
  -11.4950   -1.9612   -4.6633 C   0  0  0  0  0  0  0  0  0  0  0  0
  -10.0338   -1.6877   -5.0090 C   0  0  1  0  0  0  0  0  0  0  0  0
   -9.7383   -2.3020   -6.3704 C   0  0  2  0  0  0  0  0  0  0  0  0
   -9.9015   -3.8219   -6.2901 C   0  0  1  0  0  0  0  0  0  0  0  0
  -11.3541   -4.1909   -5.9411 C   0  0  1  0  0  0  0  0  0  0  0  0
  -13.2982   -3.6801   -4.5007 N   0  3  0  0  0  0  0  0  0  0  0  0
   -9.7443   -0.2166   -4.9979 N   0  3  0  0  0  0  0  0  0  0  0  0
   -9.5312   -4.4019   -7.5345 O   0  0  0  0  0  0  0  0  0  0  0  0
   -8.4026   -1.9723   -6.7931 O   0  0  0  0  0  0  0  0  0  0  0  0
  -11.4523   -5.6099   -5.6991 O   0  0  0  0  0  0  0  0  0  0  0  0
   -8.2399   -1.9821   -8.1845 C   0  0  2  0  0  0  0  0  0  0  0  0
   -6.8010   -1.5976   -8.5444 C   0  0  1  0  0  0  0  0  0  0  0  0
   -6.5686   -0.0989   -8.3506 C   0  0  0  0  0  0  0  0  0  0  0  0
   -7.6337    0.6691   -9.1165 C   0  0  1  0  0  0  0  0  0  0  0  0
   -9.0060    0.2547   -8.6149 C   0  0  1  0  0  0  0  0  0  0  0  0
  -10.1157    0.9941   -9.3401 C   0  0  0  0  0  0  0  0  0  0  0  0
   -5.8487   -2.3617   -7.6767 N   0  3  0  0  0  0  0  0  0  0  0  0
  -11.4303    0.4168   -8.8913 N   0  3  0  0  0  0  0  0  0  0  0  0
   -7.4553    2.0677   -8.9426 O   0  0  0  0  0  0  0  0  0  0  0  0
   -9.1906   -1.1526   -8.8440 O   0  0  0  0  0  0  0  0  0  0  0  0
  1  2  1  0  0  0  0
  1 22  1  6  0  0  0
  1 10  1  0  0  0  0
  2  3  1  0  0  0  0
  2  7  1  6  0  0  0
  3  4  1  0  0  0  0
  3  8  1  1  0  0  0
  4  5  1  0  0  0  0
  4  9  1  6  0  0  0
  5  6  1  1  0  0  0
  5 10  1  0  0  0  0
  6 11  1  0  0  0  0
 12 13  1  0  0  0  0
 12 17  1  0  0  0  0
 12 18  1  6  0  0  0
 13 14  1  0  0  0  0
 14 15  1  0  0  0  0
 14 19  1  6  0  0  0
 15 16  1  0  0  0  0
 15 21  1  1  0  0  0
 16 17  1  0  0  0  0
 16 20  1  6  0  0  0
 17 22  1  1  0  0  0
 23 21  1  1  0  0  0
 23 24  1  0  0  0  0
 23 32  1  0  0  0  0
 24 25  1  0  0  0  0
 24 29  1  1  0  0  0
 25 26  1  0  0  0  0
 26 27  1  0  0  0  0
 26 31  1  1  0  0  0
 27 28  1  6  0  0  0
 27 32  1  0  0  0  0
 28 30  1  0  0  0  0
M  CHG  5   8   1  18   1  19   1  29   1  30   1
M  END
>  <CHROM.1>
-146.49486915,60.17979981,-52.19755798,-59.51104143,56.03267553,63.99254174
-179.26371933,-71.01989615,-154.26231900,-173.69864827,-50.36243331,179.00846080
36.45311397,178.30693588,173.88103696,-38.73078662,-10.35697871,-3.78332547
-6.09500701,-2.11340941,0.60692055,-0.18112801

>  <Name>
2tob cryst

>  <RI>
0

>  <Rbt.Current_Directory>
/home/itssahil/PROJECTS/Mol_Feturizer/New_Systems/rnas/2tob

>  <Rbt.Executable>
rbdock ($Id: //depot/dev/client3/rdock/2013.1/src/exe/rbdock.cxx#4 $)

>  <Rbt.Library>
libRbt.so (2013.1, Build901 2013/11/27)

>  <Rbt.Parameter_File>
/export/apps/rDock/src/rDock_2013.1_src/data/scripts/dock_solv.prm

>  <Rbt.Receptor>
prm/pocket_docking_5.prm

>  <SCORE>
-60.9936

>  <SCORE.INTER>
-41.3872

>  <SCORE.INTER.CONST>
1

>  <SCORE.INTER.POLAR>
-6.30829

>  <SCORE.INTER.ROT>
6

>  <SCORE.INTER.SOLV>
31.6634

>  <SCORE.INTER.VDW>
-24.7183

>  <SCORE.INTER.norm>
-1.29335

>  <SCORE.INTRA>
-19.6064

>  <SCORE.INTRA.DIHEDRAL>
-7.56093

>  <SCORE.INTRA.DIHEDRAL.0>
18.4221

>  <SCORE.INTRA.POLAR>
1.3927

>  <SCORE.INTRA.POLAR.0>
-1.57101

>  <SCORE.INTRA.REPUL>
-0.730195

>  <SCORE.INTRA.REPUL.0>
0.730195

>  <SCORE.INTRA.SOLV>
-5.82725

>  <SCORE.INTRA.SOLV.lig_0>
-127.221

>  <SCORE.INTRA.VDW>
-13.9965

>  <SCORE.INTRA.VDW.0>
10.8385

>  <SCORE.INTRA.norm>
-0.6127

>  <SCORE.RESTR>
0

>  <SCORE.RESTR.CAVITY>
0

>  <SCORE.RESTR.norm>
0

>  <SCORE.SYSTEM>
0

>  <SCORE.SYSTEM.CONST>
0

>  <SCORE.SYSTEM.DIHEDRAL>
0

>  <SCORE.SYSTEM.SOLV>
0

>  <SCORE.SYSTEM.norm>
0

>  <SCORE.heavy>
32

>  <SCORE.norm>
-1.90605

>  <RMSD>
8.441

$$$$
2tob cryst
 OpenBabel11021811463D
libRbt.so/2013.1/901 2013/11/27
 32 34  0  0  0  0  0  0  0  0999 V2000
  -11.3412   -7.9027   -7.2742 C   0  0  2  0  0  0  0  0  0  0  0  0
  -11.4955   -8.4667   -8.6831 C   0  0  1  0  0  0  0  0  0  0  0  0
  -12.7738   -9.3032   -8.7449 C   0  0  2  0  0  0  0  0  0  0  0  0
  -12.7698  -10.3884   -7.6600 C   0  0  1  0  0  0  0  0  0  0  0  0
  -12.4820   -9.7603   -6.2919 C   0  0  1  0  0  0  0  0  0  0  0  0
  -12.3113  -10.7653   -5.1646 C   0  0  0  0  0  0  0  0  0  0  0  0
  -11.5676   -7.4031   -9.6287 O   0  0  0  0  0  0  0  0  0  0  0  0
  -13.1046   -9.9660  -10.0461 N   0  3  0  0  0  0  0  0  0  0  0  0
  -14.0396  -11.0283   -7.6415 O   0  0  0  0  0  0  0  0  0  0  0  0
  -11.2734   -8.9771   -6.3557 O   0  0  0  0  0  0  0  0  0  0  0  0
  -12.1327  -10.1022   -3.9171 O   0  0  0  0  0  0  0  0  0  0  0  0
  -13.8943   -5.2163   -7.4929 C   0  0  2  0  0  0  0  0  0  0  0  0
  -14.0146   -3.7222   -7.8222 C   0  0  0  0  0  0  0  0  0  0  0  0
  -12.9854   -2.8814   -7.0719 C   0  0  1  0  0  0  0  0  0  0  0  0
  -11.5966   -3.4046   -7.4118 C   0  0  2  0  0  0  0  0  0  0  0  0
  -11.4550   -4.8418   -6.9042 C   0  0  1  0  0  0  0  0  0  0  0  0
  -12.4636   -5.7652   -7.6100 C   0  0  1  0  0  0  0  0  0  0  0  0
  -14.8007   -6.0265   -8.3746 N   0  3  0  0  0  0  0  0  0  0  0  0
  -13.1226   -1.4287   -7.4169 N   0  3  0  0  0  0  0  0  0  0  0  0
  -10.1270   -5.2945   -7.1356 O   0  0  0  0  0  0  0  0  0  0  0  0
  -10.5845   -2.5712   -6.8179 O   0  0  0  0  0  0  0  0  0  0  0  0
  -12.4374   -7.0726   -7.0004 O   0  0  0  0  0  0  0  0  0  0  0  0
   -9.4350   -2.4416   -7.6082 C   0  0  2  0  0  0  0  0  0  0  0  0
   -8.1883   -2.4277   -6.7173 C   0  0  1  0  0  0  0  0  0  0  0  0
   -8.0509   -1.0918   -5.9865 C   0  0  0  0  0  0  0  0  0  0  0  0
   -8.1078    0.0360   -7.0041 C   0  0  1  0  0  0  0  0  0  0  0  0
   -9.4197   -0.0436   -7.7651 C   0  0  1  0  0  0  0  0  0  0  0  0
   -9.5388    1.0641   -8.7961 C   0  0  0  0  0  0  0  0  0  0  0  0
   -8.2815   -3.5340   -5.7119 N   0  3  0  0  0  0  0  0  0  0  0  0
  -10.9870    1.1843   -9.1849 N   0  3  0  0  0  0  0  0  0  0  0  0
   -7.9996    1.2942   -6.3536 O   0  0  0  0  0  0  0  0  0  0  0  0
   -9.4914   -1.3010   -8.4583 O   0  0  0  0  0  0  0  0  0  0  0  0
  1  2  1  0  0  0  0
  1 22  1  1  0  0  0
  1 10  1  0  0  0  0
  2  3  1  0  0  0  0
  2  7  1  6  0  0  0
  3  4  1  0  0  0  0
  3  8  1  6  0  0  0
  4  5  1  0  0  0  0
  4  9  1  1  0  0  0
  5  6  1  1  0  0  0
  5 10  1  0  0  0  0
  6 11  1  0  0  0  0
 12 13  1  0  0  0  0
 12 17  1  0  0  0  0
 12 18  1  6  0  0  0
 13 14  1  0  0  0  0
 14 15  1  0  0  0  0
 14 19  1  6  0  0  0
 15 16  1  0  0  0  0
 15 21  1  1  0  0  0
 16 17  1  0  0  0  0
 16 20  1  6  0  0  0
 17 22  1  1  0  0  0
 23 21  1  1  0  0  0
 23 24  1  0  0  0  0
 23 32  1  0  0  0  0
 24 25  1  0  0  0  0
 24 29  1  1  0  0  0
 25 26  1  0  0  0  0
 26 27  1  0  0  0  0
 26 31  1  1  0  0  0
 27 28  1  6  0  0  0
 27 32  1  0  0  0  0
 28 30  1  0  0  0  0
M  CHG  5   8   1  18   1  19   1  29   1  30   1
M  END
>  <CHROM.1>
-75.69545781,65.04339878,-57.59658226,-59.18808648,-176.28747791,178.37429608
-178.72967776,-66.24078887,-144.91830550,168.46074045,164.46153494,-142.21461517
-80.53154846,-62.57864162,-162.47570148,179.43517799,-11.33874413,-4.99653173
-7.38006705,-1.98553332,-0.59462738,-0.25892210

>  <Name>
2tob cryst

>  <RI>
2.10184e+07

>  <Rbt.Current_Directory>
/home/itssahil/PROJECTS/Mol_Feturizer/New_Systems/rnas/2tob

>  <Rbt.Executable>
rbdock ($Id: //depot/dev/client3/rdock/2013.1/src/exe/rbdock.cxx#4 $)

>  <Rbt.Library>
libRbt.so (2013.1, Build901 2013/11/27)

>  <Rbt.Parameter_File>
/export/apps/rDock/src/rDock_2013.1_src/data/scripts/dock_solv.prm

>  <Rbt.Receptor>
prm/pocket_docking_7.prm

>  <SCORE>
-47.0941

>  <SCORE.INTER>
-26.2798

>  <SCORE.INTER.CONST>
1

>  <SCORE.INTER.POLAR>
-4.517

>  <SCORE.INTER.ROT>
6

>  <SCORE.INTER.SOLV>
23.5747

>  <SCORE.INTER.VDW>
-17.9214

>  <SCORE.INTER.norm>
-0.821245

>  <SCORE.INTRA>
-20.8142

>  <SCORE.INTRA.DIHEDRAL>
-3.50963

>  <SCORE.INTRA.DIHEDRAL.0>
18.4221

>  <SCORE.INTRA.POLAR>
0.435023

>  <SCORE.INTRA.POLAR.0>
-1.57101

>  <SCORE.INTRA.REPUL>
-0.718011

>  <SCORE.INTRA.REPUL.0>
0.730195

>  <SCORE.INTRA.SOLV>
-4.24423

>  <SCORE.INTRA.SOLV.lig_0>
-127.221

>  <SCORE.INTRA.VDW>
-14.8263

>  <SCORE.INTRA.VDW.0>
10.8385

>  <SCORE.INTRA.norm>
-0.650445

>  <SCORE.RESTR>
0

>  <SCORE.RESTR.CAVITY>
0

>  <SCORE.RESTR.norm>
0

>  <SCORE.SYSTEM>
0

>  <SCORE.SYSTEM.CONST>
0

>  <SCORE.SYSTEM.DIHEDRAL>
0

>  <SCORE.SYSTEM.SOLV>
0

>  <SCORE.SYSTEM.norm>
0

>  <SCORE.heavy>
32

>  <SCORE.norm>
-1.47169

>  <RMSD>
8.450

$$$$
2tob cryst
 OpenBabel11021811463D
libRbt.so/2013.1/901 2013/11/27
 32 34  0  0  0  0  0  0  0  0999 V2000
  -11.1563   -1.9043   -9.2816 C   0  0  2  0  0  0  0  0  0  0  0  0
  -12.1874   -0.8154   -9.5616 C   0  0  1  0  0  0  0  0  0  0  0  0
  -13.4083   -1.0479   -8.6712 C   0  0  2  0  0  0  0  0  0  0  0  0
  -13.9634   -2.4653   -8.8641 C   0  0  1  0  0  0  0  0  0  0  0  0
  -12.8414   -3.4952   -8.6927 C   0  0  1  0  0  0  0  0  0  0  0  0
  -13.2502   -4.9252   -9.0059 C   0  0  0  0  0  0  0  0  0  0  0  0
  -11.6281    0.4669   -9.2901 O   0  0  0  0  0  0  0  0  0  0  0  0
  -14.5531   -0.0921   -8.8035 N   0  3  0  0  0  0  0  0  0  0  0  0
  -14.9843   -2.6970   -7.9016 O   0  0  0  0  0  0  0  0  0  0  0  0
  -11.7360   -3.1654   -9.5573 O   0  0  0  0  0  0  0  0  0  0  0  0
  -14.2876   -5.3587   -8.1320 O   0  0  0  0  0  0  0  0  0  0  0  0
   -8.7189   -3.0020   -7.4606 C   0  0  2  0  0  0  0  0  0  0  0  0
   -7.1844   -2.9816   -7.4551 C   0  0  0  0  0  0  0  0  0  0  0  0
   -6.6132   -2.2235   -8.6502 C   0  0  1  0  0  0  0  0  0  0  0  0
   -7.1774   -0.8095   -8.6375 C   0  0  2  0  0  0  0  0  0  0  0  0
   -8.6954   -0.8646   -8.8273 C   0  0  1  0  0  0  0  0  0  0  0  0
   -9.3580   -1.6188   -7.6611 C   0  0  1  0  0  0  0  0  0  0  0  0
   -9.2440   -3.6017   -6.1878 N   0  3  0  0  0  0  0  0  0  0  0  0
   -5.1142   -2.2150   -8.6157 N   0  3  0  0  0  0  0  0  0  0  0  0
   -9.2079    0.4591   -8.9125 O   0  0  0  0  0  0  0  0  0  0  0  0
   -6.5795   -0.0186   -9.6808 O   0  0  0  0  0  0  0  0  0  0  0  0
  -10.7603   -1.8129   -7.9398 O   0  0  0  0  0  0  0  0  0  0  0  0
   -5.5070    0.7672   -9.2393 C   0  0  2  0  0  0  0  0  0  0  0  0
   -5.7502    2.2351   -9.6054 C   0  0  1  0  0  0  0  0  0  0  0  0
   -5.5367    2.4703  -11.1010 C   0  0  0  0  0  0  0  0  0  0  0  0
   -4.1652    1.9446  -11.4928 C   0  0  1  0  0  0  0  0  0  0  0  0
   -4.0796    0.4677  -11.1493 C   0  0  1  0  0  0  0  0  0  0  0  0
   -2.7304   -0.1184  -11.5235 C   0  0  0  0  0  0  0  0  0  0  0  0
   -7.1526    2.6144   -9.2406 N   0  3  0  0  0  0  0  0  0  0  0  0
   -1.6959    0.9639  -11.3762 N   0  3  0  0  0  0  0  0  0  0  0  0
   -3.9425    2.1333  -12.8830 O   0  0  0  0  0  0  0  0  0  0  0  0
   -4.2566    0.2983   -9.7327 O   0  0  0  0  0  0  0  0  0  0  0  0
  1  2  1  0  0  0  0
  1 22  1  1  0  0  0
  1 10  1  0  0  0  0
  2  3  1  0  0  0  0
  2  7  1  1  0  0  0
  3  4  1  0  0  0  0
  3  8  1  6  0  0  0
  4  5  1  0  0  0  0
  4  9  1  1  0  0  0
  5  6  1  6  0  0  0
  5 10  1  0  0  0  0
  6 11  1  0  0  0  0
 12 13  1  0  0  0  0
 12 17  1  0  0  0  0
 12 18  1  1  0  0  0
 13 14  1  0  0  0  0
 14 15  1  0  0  0  0
 14 19  1  1  0  0  0
 15 16  1  0  0  0  0
 15 21  1  6  0  0  0
 16 17  1  0  0  0  0
 16 20  1  1  0  0  0
 17 22  1  6  0  0  0
 23 21  1  6  0  0  0
 23 24  1  0  0  0  0
 23 32  1  0  0  0  0
 24 25  1  0  0  0  0
 24 29  1  6  0  0  0
 25 26  1  0  0  0  0
 26 27  1  0  0  0  0
 26 31  1  6  0  0  0
 27 28  1  1  0  0  0
 27 32  1  0  0  0  0
 28 30  1  0  0  0  0
M  CHG  5   8   1  18   1  19   1  29   1  30   1
M  END
>  <CHROM.1>
-122.22855863,-80.06621540,-177.88238662,-35.80205480,-61.45524290,58.33472797
177.49759612,-35.78369879,-96.71213507,152.30048028,-92.68767399,-125.28012430
-41.24680227,-67.93074241,31.52919955,173.67459733,-8.69728035,-0.93734277
-9.21632202,2.69135722,-0.05319392,2.69986441

>  <Name>
2tob cryst

>  <RI>
0

>  <Rbt.Current_Directory>
/home/itssahil/PROJECTS/Mol_Feturizer/New_Systems/rnas/2tob

>  <Rbt.Executable>
rbdock ($Id: //depot/dev/client3/rdock/2013.1/src/exe/rbdock.cxx#4 $)

>  <Rbt.Library>
libRbt.so (2013.1, Build901 2013/11/27)

>  <Rbt.Parameter_File>
/export/apps/rDock/src/rDock_2013.1_src/data/scripts/dock_solv.prm

>  <Rbt.Receptor>
prm/blind_docking_60.prm

>  <SCORE>
-27.4065

>  <SCORE.INTER>
-23.2517

>  <SCORE.INTER.CONST>
1

>  <SCORE.INTER.POLAR>
-4.18706

>  <SCORE.INTER.ROT>
6

>  <SCORE.INTER.SOLV>
43.4975

>  <SCORE.INTER.VDW>
-23.6434

>  <SCORE.INTER.norm>
-0.726616

>  <SCORE.INTRA>
-12.6012

>  <SCORE.INTRA.DIHEDRAL>
17.2519

>  <SCORE.INTRA.DIHEDRAL.0>
18.4221

>  <SCORE.INTRA.POLAR>
-1.90096

>  <SCORE.INTRA.POLAR.0>
-1.57101

>  <SCORE.INTRA.REPUL>
-0.730195

>  <SCORE.INTRA.REPUL.0>
0.730195

>  <SCORE.INTRA.SOLV>
-1.9298

>  <SCORE.INTRA.SOLV.lig_0>
-127.221

>  <SCORE.INTRA.VDW>
-10.148

>  <SCORE.INTRA.VDW.0>
10.8385

>  <SCORE.INTRA.norm>
-0.393787

>  <SCORE.RESTR>
8.44636

>  <SCORE.RESTR.CAVITY>
8.44636

>  <SCORE.RESTR.norm>
0.263949

>  <SCORE.SYSTEM>
0

>  <SCORE.SYSTEM.CONST>
0

>  <SCORE.SYSTEM.DIHEDRAL>
0

>  <SCORE.SYSTEM.SOLV>
0

>  <SCORE.SYSTEM.norm>
0

>  <SCORE.heavy>
32

>  <SCORE.norm>
-0.856454

>  <RMSD>
8.454

$$$$
2tob cryst
 OpenBabel11021811463D
libRbt.so/2013.1/901 2013/11/27
 32 34  0  0  0  0  0  0  0  0999 V2000
  -12.8668   -9.0855   -8.7997 C   0  0  2  0  0  0  0  0  0  0  0  0
  -12.7105  -10.3045   -9.7033 C   0  0  1  0  0  0  0  0  0  0  0  0
  -11.9784   -9.8857  -10.9786 C   0  0  2  0  0  0  0  0  0  0  0  0
  -12.6998   -8.7178  -11.6642 C   0  0  1  0  0  0  0  0  0  0  0  0
  -12.9339   -7.5843  -10.6595 C   0  0  1  0  0  0  0  0  0  0  0  0
  -13.7710   -6.4347  -11.1959 C   0  0  0  0  0  0  0  0  0  0  0  0
  -11.9681  -11.3180   -9.0304 O   0  0  0  0  0  0  0  0  0  0  0  0
  -11.7366  -10.9389  -12.0150 N   0  3  0  0  0  0  0  0  0  0  0  0
  -11.9007   -8.2505  -12.7437 O   0  0  0  0  0  0  0  0  0  0  0  0
  -13.6049   -8.0953   -9.4904 O   0  0  0  0  0  0  0  0  0  0  0  0
  -13.3033   -6.0211  -12.4757 O   0  0  0  0  0  0  0  0  0  0  0  0
  -11.2704   -8.2781   -6.0896 C   0  0  2  0  0  0  0  0  0  0  0  0
  -10.8537   -7.3169   -4.9681 C   0  0  0  0  0  0  0  0  0  0  0  0
   -9.6990   -6.4101   -5.3848 C   0  0  1  0  0  0  0  0  0  0  0  0
  -10.1149   -5.6441   -6.6331 C   0  0  2  0  0  0  0  0  0  0  0  0
  -10.3467   -6.6289   -7.7819 C   0  0  1  0  0  0  0  0  0  0  0  0
  -11.5001   -7.5899   -7.4444 C   0  0  1  0  0  0  0  0  0  0  0  0
  -12.5135   -9.0291   -5.7074 N   0  3  0  0  0  0  0  0  0  0  0  0
   -9.3176   -5.4791   -4.2730 N   0  3  0  0  0  0  0  0  0  0  0  0
  -10.6398   -5.9056   -8.9706 O   0  0  0  0  0  0  0  0  0  0  0  0
   -9.1019   -4.6898   -7.0000 O   0  0  0  0  0  0  0  0  0  0  0  0
  -11.5916   -8.6160   -8.4546 O   0  0  0  0  0  0  0  0  0  0  0  0
   -9.5680   -3.6836   -7.8561 C   0  0  2  0  0  0  0  0  0  0  0  0
   -8.4896   -2.6098   -8.0350 C   0  0  1  0  0  0  0  0  0  0  0  0
   -8.3718   -1.7369   -6.7853 C   0  0  0  0  0  0  0  0  0  0  0  0
   -9.7465   -1.1930   -6.4315 C   0  0  1  0  0  0  0  0  0  0  0  0
  -10.6997   -2.3536   -6.2053 C   0  0  1  0  0  0  0  0  0  0  0  0
  -12.0929   -1.8730   -5.8416 C   0  0  0  0  0  0  0  0  0  0  0  0
   -7.1711   -3.2673   -8.3049 N   0  3  0  0  0  0  0  0  0  0  0  0
  -12.0712   -1.4279   -4.4048 N   0  3  0  0  0  0  0  0  0  0  0  0
   -9.6739   -0.3896   -5.2622 O   0  0  0  0  0  0  0  0  0  0  0  0
  -10.8011   -3.1273   -7.4127 O   0  0  0  0  0  0  0  0  0  0  0  0
  1  2  1  0  0  0  0
  1 22  1  6  0  0  0
  1 10  1  0  0  0  0
  2  3  1  0  0  0  0
  2  7  1  1  0  0  0
  3  4  1  0  0  0  0
  3  8  1  6  0  0  0
  4  5  1  0  0  0  0
  4  9  1  6  0  0  0
  5  6  1  6  0  0  0
  5 10  1  0  0  0  0
  6 11  1  0  0  0  0
 12 13  1  0  0  0  0
 12 17  1  0  0  0  0
 12 18  1  1  0  0  0
 13 14  1  0  0  0  0
 14 15  1  0  0  0  0
 14 19  1  1  0  0  0
 15 16  1  0  0  0  0
 15 21  1  6  0  0  0
 16 17  1  0  0  0  0
 16 20  1  6  0  0  0
 17 22  1  6  0  0  0
 23 21  1  1  0  0  0
 23 24  1  0  0  0  0
 23 32  1  0  0  0  0
 24 25  1  0  0  0  0
 24 29  1  1  0  0  0
 25 26  1  0  0  0  0
 26 27  1  0  0  0  0
 26 31  1  1  0  0  0
 27 28  1  6  0  0  0
 27 32  1  0  0  0  0
 28 30  1  0  0  0  0
M  CHG  5   8   1  18   1  19   1  29   1  30   1
M  END
>  <CHROM.1>
-170.92917175,-47.27850119,55.05463750,173.42180193,-47.86304530,-179.25944519
-45.51495182,164.05139514,-161.29387964,-60.38219938,93.99958277,172.01955318
58.98885648,66.69332441,-76.42900170,176.08985460,-11.09738556,-6.05315977
-8.07592652,-3.04209744,-1.25610063,-0.89006246

>  <Name>
2tob cryst

>  <RI>
3.75586e+07

>  <Rbt.Current_Directory>
/home/itssahil/PROJECTS/Mol_Feturizer/New_Systems/rnas/2tob

>  <Rbt.Executable>
rbdock ($Id: //depot/dev/client3/rdock/2013.1/src/exe/rbdock.cxx#4 $)

>  <Rbt.Library>
libRbt.so (2013.1, Build901 2013/11/27)

>  <Rbt.Parameter_File>
/export/apps/rDock/src/rDock_2013.1_src/data/scripts/dock_solv.prm

>  <Rbt.Receptor>
prm/pocket_docking_8.prm

>  <SCORE>
-53.3902

>  <SCORE.INTER>
-28.6687

>  <SCORE.INTER.CONST>
1

>  <SCORE.INTER.POLAR>
-4.74925

>  <SCORE.INTER.ROT>
6

>  <SCORE.INTER.SOLV>
23.9573

>  <SCORE.INTER.VDW>
-18.8674

>  <SCORE.INTER.norm>
-0.895896

>  <SCORE.INTRA>
-24.7216

>  <SCORE.INTRA.DIHEDRAL>
-7.74219

>  <SCORE.INTRA.DIHEDRAL.0>
18.4221

>  <SCORE.INTRA.POLAR>
0.227122

>  <SCORE.INTRA.POLAR.0>
-1.57101

>  <SCORE.INTRA.REPUL>
-0.730195

>  <SCORE.INTRA.REPUL.0>
0.730195

>  <SCORE.INTRA.SOLV>
-7.0425

>  <SCORE.INTRA.SOLV.lig_0>
-127.221

>  <SCORE.INTRA.VDW>
-14.4504

>  <SCORE.INTRA.VDW.0>
10.8385

>  <SCORE.INTRA.norm>
-0.772549

>  <SCORE.RESTR>
0

>  <SCORE.RESTR.CAVITY>
0

>  <SCORE.RESTR.norm>
0

>  <SCORE.SYSTEM>
0

>  <SCORE.SYSTEM.CONST>
0

>  <SCORE.SYSTEM.DIHEDRAL>
0

>  <SCORE.SYSTEM.SOLV>
0

>  <SCORE.SYSTEM.norm>
0

>  <SCORE.heavy>
32

>  <SCORE.norm>
-1.66844

>  <RMSD>
8.468

$$$$
2tob cryst
 OpenBabel11021811463D
libRbt.so/2013.1/901 2013/11/27
 32 34  0  0  0  0  0  0  0  0999 V2000
  -14.3376   -5.1962   -6.4634 C   0  0  2  0  0  0  0  0  0  0  0  0
  -14.8835   -4.5045   -7.7086 C   0  0  1  0  0  0  0  0  0  0  0  0
  -15.8825   -3.4291   -7.2806 C   0  0  2  0  0  0  0  0  0  0  0  0
  -16.9829   -4.0273   -6.3941 C   0  0  1  0  0  0  0  0  0  0  0  0
  -16.3547   -4.8132   -5.2380 C   0  0  1  0  0  0  0  0  0  0  0  0
  -17.3543   -5.5698   -4.3787 C   0  0  0  0  0  0  0  0  0  0  0  0
  -13.8169   -3.9089   -8.4424 O   0  0  0  0  0  0  0  0  0  0  0  0
  -16.5525   -2.6380   -8.3610 N   0  3  0  0  0  0  0  0  0  0  0  0
  -17.7879   -2.9730   -5.8818 O   0  0  0  0  0  0  0  0  0  0  0  0
  -15.4148   -5.7772   -5.7531 O   0  0  0  0  0  0  0  0  0  0  0  0
  -17.9090   -6.6685   -5.0949 O   0  0  0  0  0  0  0  0  0  0  0  0
  -11.6876   -5.5142   -6.2032 C   0  0  2  0  0  0  0  0  0  0  0  0
  -10.2329   -5.4922   -6.6917 C   0  0  0  0  0  0  0  0  0  0  0  0
  -10.0045   -4.4436   -7.7769 C   0  0  1  0  0  0  0  0  0  0  0  0
  -10.4160   -3.0847   -7.2272 C   0  0  2  0  0  0  0  0  0  0  0  0
  -11.9158   -3.0915   -6.9210 C   0  0  1  0  0  0  0  0  0  0  0  0
  -12.2393   -4.1288   -5.8315 C   0  0  1  0  0  0  0  0  0  0  0  0
  -11.8348   -6.4303   -5.0224 N   0  3  0  0  0  0  0  0  0  0  0  0
   -8.5754   -4.4407   -8.2303 N   0  3  0  0  0  0  0  0  0  0  0  0
  -12.3166   -1.7936   -6.5002 O   0  0  0  0  0  0  0  0  0  0  0  0
  -10.1119   -2.0446   -8.1745 O   0  0  0  0  0  0  0  0  0  0  0  0
  -13.6693   -4.2459   -5.6786 O   0  0  0  0  0  0  0  0  0  0  0  0
   -9.5071   -0.9219   -7.5945 C   0  0  2  0  0  0  0  0  0  0  0  0
   -9.8564    0.3337   -8.4003 C   0  0  1  0  0  0  0  0  0  0  0  0
   -9.0790    0.3751   -9.7162 C   0  0  0  0  0  0  0  0  0  0  0  0
   -7.5970    0.2118   -9.4197 C   0  0  1  0  0  0  0  0  0  0  0  0
   -7.3756   -1.1016   -8.6898 C   0  0  1  0  0  0  0  0  0  0  0  0
   -5.9088   -1.3255   -8.3698 C   0  0  0  0  0  0  0  0  0  0  0  0
  -11.3252    0.3456   -8.6933 N   0  3  0  0  0  0  0  0  0  0  0  0
   -5.6667   -2.8090   -8.3103 N   0  3  0  0  0  0  0  0  0  0  0  0
   -6.8471    0.2290  -10.6260 O   0  0  0  0  0  0  0  0  0  0  0  0
   -8.1002   -1.0832   -7.4482 O   0  0  0  0  0  0  0  0  0  0  0  0
  1  2  1  0  0  0  0
  1 22  1  1  0  0  0
  1 10  1  0  0  0  0
  2  3  1  0  0  0  0
  2  7  1  1  0  0  0
  3  4  1  0  0  0  0
  3  8  1  6  0  0  0
  4  5  1  0  0  0  0
  4  9  1  1  0  0  0
  5  6  1  6  0  0  0
  5 10  1  0  0  0  0
  6 11  1  0  0  0  0
 12 13  1  0  0  0  0
 12 17  1  0  0  0  0
 12 18  1  1  0  0  0
 13 14  1  0  0  0  0
 14 15  1  0  0  0  0
 14 19  1  1  0  0  0
 15 16  1  0  0  0  0
 15 21  1  6  0  0  0
 16 17  1  0  0  0  0
 16 20  1  1  0  0  0
 17 22  1  6  0  0  0
 23 21  1  6  0  0  0
 23 24  1  0  0  0  0
 23 32  1  0  0  0  0
 24 25  1  0  0  0  0
 24 29  1  6  0  0  0
 25 26  1  0  0  0  0
 26 27  1  0  0  0  0
 26 31  1  6  0  0  0
 27 28  1  1  0  0  0
 27 32  1  0  0  0  0
 28 30  1  0  0  0  0
M  CHG  5   8   1  18   1  19   1  29   1  30   1
M  END
>  <CHROM.1>
-95.58854990,177.89756799,-22.57649095,-173.96234005,70.07333970,68.06746946
-53.79264892,175.64872415,-135.09723016,-62.26312878,-31.12716062,-151.02606111
-35.44731969,178.97501580,-152.10148556,45.11402914,-11.93677048,-3.12894627
-7.27439053,-2.64538540,0.09673236,-0.47217805

>  <Name>
2tob cryst

>  <RI>
0

>  <Rbt.Current_Directory>
/home/itssahil/PROJECTS/Mol_Feturizer/New_Systems/rnas/2tob

>  <Rbt.Executable>
rbdock ($Id: //depot/dev/client3/rdock/2013.1/src/exe/rbdock.cxx#4 $)

>  <Rbt.Library>
libRbt.so (2013.1, Build901 2013/11/27)

>  <Rbt.Parameter_File>
/export/apps/rDock/src/rDock_2013.1_src/data/scripts/dock_solv.prm

>  <Rbt.Receptor>
prm/pocket_docking_6.prm

>  <SCORE>
-59.5

>  <SCORE.INTER>
-51.1493

>  <SCORE.INTER.CONST>
1

>  <SCORE.INTER.POLAR>
-9.2691

>  <SCORE.INTER.ROT>
6

>  <SCORE.INTER.SOLV>
36.6287

>  <SCORE.INTER.VDW>
-23.0121

>  <SCORE.INTER.norm>
-1.59841

>  <SCORE.INTRA>
-8.35074

>  <SCORE.INTRA.DIHEDRAL>
6.90286

>  <SCORE.INTRA.DIHEDRAL.0>
18.4221

>  <SCORE.INTRA.POLAR>
1.40843

>  <SCORE.INTRA.POLAR.0>
-1.57101

>  <SCORE.INTRA.REPUL>
-0.730195

>  <SCORE.INTRA.REPUL.0>
0.730195

>  <SCORE.INTRA.SOLV>
-1.40609

>  <SCORE.INTRA.SOLV.lig_0>
-127.221

>  <SCORE.INTRA.VDW>
-12.2368

>  <SCORE.INTRA.VDW.0>
10.8385

>  <SCORE.INTRA.norm>
-0.260961

>  <SCORE.RESTR>
0

>  <SCORE.RESTR.CAVITY>
0

>  <SCORE.RESTR.norm>
0

>  <SCORE.SYSTEM>
0

>  <SCORE.SYSTEM.CONST>
0

>  <SCORE.SYSTEM.DIHEDRAL>
0

>  <SCORE.SYSTEM.SOLV>
0

>  <SCORE.SYSTEM.norm>
0

>  <SCORE.heavy>
32

>  <SCORE.norm>
-1.85938

>  <RMSD>
8.475

$$$$
2tob cryst
 OpenBabel11021811463D
libRbt.so/2013.1/901 2013/11/27
 32 34  0  0  0  0  0  0  0  0999 V2000
  -12.1413   -6.5392   -6.5104 C   0  0  2  0  0  0  0  0  0  0  0  0
  -11.6882   -7.9256   -6.0636 C   0  0  1  0  0  0  0  0  0  0  0  0
  -12.4147   -8.9785   -6.9010 C   0  0  2  0  0  0  0  0  0  0  0  0
  -13.9350   -8.7876   -6.8197 C   0  0  1  0  0  0  0  0  0  0  0  0
  -14.2999   -7.3381   -7.1580 C   0  0  1  0  0  0  0  0  0  0  0  0
  -15.7696   -7.0010   -6.9669 C   0  0  0  0  0  0  0  0  0  0  0  0
  -10.2799   -8.0574   -6.2368 O   0  0  0  0  0  0  0  0  0  0  0  0
  -12.1232  -10.4175   -6.6076 N   0  3  0  0  0  0  0  0  0  0  0  0
  -14.5618   -9.6720   -7.7401 O   0  0  0  0  0  0  0  0  0  0  0  0
  -13.5409   -6.4346   -6.3298 O   0  0  0  0  0  0  0  0  0  0  0  0
  -16.1293   -5.8524   -7.7279 O   0  0  0  0  0  0  0  0  0  0  0  0
  -13.3165   -4.6444   -8.5814 C   0  0  2  0  0  0  0  0  0  0  0  0
  -13.5388   -3.1526   -8.8644 C   0  0  0  0  0  0  0  0  0  0  0  0
  -12.8037   -2.2605   -7.8678 C   0  0  1  0  0  0  0  0  0  0  0  0
  -11.3223   -2.6090   -7.9116 C   0  0  2  0  0  0  0  0  0  0  0  0
  -11.1247   -4.0544   -7.4478 C   0  0  1  0  0  0  0  0  0  0  0  0
  -11.8397   -5.0291   -8.4000 C   0  0  1  0  0  0  0  0  0  0  0  0
  -13.9077   -5.4841   -9.6772 N   0  3  0  0  0  0  0  0  0  0  0  0
  -13.0341   -0.8104   -8.1717 N   0  3  0  0  0  0  0  0  0  0  0  0
   -9.7341   -4.3468   -7.3964 O   0  0  0  0  0  0  0  0  0  0  0  0
  -10.5691   -1.7154   -7.0715 O   0  0  0  0  0  0  0  0  0  0  0  0
  -11.7915   -6.3650   -7.8569 O   0  0  0  0  0  0  0  0  0  0  0  0
   -9.1841   -1.8056   -7.2625 C   0  0  2  0  0  0  0  0  0  0  0  0
   -8.4516   -1.3176   -6.0082 C   0  0  1  0  0  0  0  0  0  0  0  0
   -8.5146    0.2057   -5.8937 C   0  0  0  0  0  0  0  0  0  0  0  0
   -8.0145    0.8196   -7.1913 C   0  0  1  0  0  0  0  0  0  0  0  0
   -8.8682    0.3176   -8.3428 C   0  0  1  0  0  0  0  0  0  0  0  0
   -8.4201    0.9020   -9.6701 C   0  0  0  0  0  0  0  0  0  0  0  0
   -9.0787   -1.9310   -4.7941 N   0  3  0  0  0  0  0  0  0  0  0  0
   -8.5919    2.3950   -9.6030 N   0  3  0  0  0  0  0  0  0  0  0  0
   -8.0765    2.2372   -7.1232 O   0  0  0  0  0  0  0  0  0  0  0  0
   -8.7550   -1.1129   -8.4298 O   0  0  0  0  0  0  0  0  0  0  0  0
  1  2  1  0  0  0  0
  1 22  1  6  0  0  0
  1 10  1  0  0  0  0
  2  3  1  0  0  0  0
  2  7  1  6  0  0  0
  3  4  1  0  0  0  0
  3  8  1  1  0  0  0
  4  5  1  0  0  0  0
  4  9  1  6  0  0  0
  5  6  1  1  0  0  0
  5 10  1  0  0  0  0
  6 11  1  0  0  0  0
 12 13  1  0  0  0  0
 12 17  1  0  0  0  0
 12 18  1  6  0  0  0
 13 14  1  0  0  0  0
 14 15  1  0  0  0  0
 14 19  1  6  0  0  0
 15 16  1  0  0  0  0
 15 21  1  1  0  0  0
 16 17  1  0  0  0  0
 16 20  1  6  0  0  0
 17 22  1  1  0  0  0
 23 21  1  1  0  0  0
 23 24  1  0  0  0  0
 23 32  1  0  0  0  0
 24 25  1  0  0  0  0
 24 29  1  1  0  0  0
 25 26  1  0  0  0  0
 26 27  1  0  0  0  0
 26 31  1  1  0  0  0
 27 28  1  6  0  0  0
 27 32  1  0  0  0  0
 28 30  1  0  0  0  0
M  CHG  5   8   1  18   1  19   1  29   1  30   1
M  END
>  <CHROM.1>
-165.85316460,-166.03483660,178.03648955,-178.77129913,-158.89039710,179.88875902
-111.97726271,58.75529166,-168.20692235,169.19347008,-73.44014017,-156.35314254
-168.21433249,54.27340733,-62.20446942,38.30145082,-11.44045561,-3.96739505
-7.46052023,-2.12453994,-0.40919496,-0.30678188

>  <Name>
2tob cryst

>  <RI>
3.35201e+07

>  <Rbt.Current_Directory>
/home/itssahil/PROJECTS/Mol_Feturizer/New_Systems/rnas/2tob

>  <Rbt.Executable>
rbdock ($Id: //depot/dev/client3/rdock/2013.1/src/exe/rbdock.cxx#4 $)

>  <Rbt.Library>
libRbt.so (2013.1, Build901 2013/11/27)

>  <Rbt.Parameter_File>
/export/apps/rDock/src/rDock_2013.1_src/data/scripts/dock_solv.prm

>  <Rbt.Receptor>
prm/pocket_docking_4.prm

>  <SCORE>
-52.4587

>  <SCORE.INTER>
-31.0301

>  <SCORE.INTER.CONST>
1

>  <SCORE.INTER.POLAR>
-4.55575

>  <SCORE.INTER.ROT>
6

>  <SCORE.INTER.SOLV>
23.3106

>  <SCORE.INTER.VDW>
-20.8711

>  <SCORE.INTER.norm>
-0.969691

>  <SCORE.INTRA>
-21.4285

>  <SCORE.INTRA.DIHEDRAL>
-5.50477

>  <SCORE.INTRA.DIHEDRAL.0>
18.4221

>  <SCORE.INTRA.POLAR>
-0.468857

>  <SCORE.INTRA.POLAR.0>
-1.57101

>  <SCORE.INTRA.REPUL>
-0.730195

>  <SCORE.INTRA.REPUL.0>
0.730195

>  <SCORE.INTRA.SOLV>
-3.35651

>  <SCORE.INTRA.SOLV.lig_0>
-127.221

>  <SCORE.INTRA.VDW>
-11.7528

>  <SCORE.INTRA.VDW.0>
10.8385

>  <SCORE.INTRA.norm>
-0.669642

>  <SCORE.RESTR>
0

>  <SCORE.RESTR.CAVITY>
0

>  <SCORE.RESTR.norm>
0

>  <SCORE.SYSTEM>
0

>  <SCORE.SYSTEM.CONST>
0

>  <SCORE.SYSTEM.DIHEDRAL>
0

>  <SCORE.SYSTEM.SOLV>
0

>  <SCORE.SYSTEM.norm>
0

>  <SCORE.heavy>
32

>  <SCORE.norm>
-1.63933

>  <RMSD>
8.493

$$$$
2tob cryst
 OpenBabel11021811463D
libRbt.so/2013.1/901 2013/11/27
 32 34  0  0  0  0  0  0  0  0999 V2000
  -11.6375   -7.2973   -6.1487 C   0  0  2  0  0  0  0  0  0  0  0  0
  -11.4570   -8.5513   -6.9983 C   0  0  1  0  0  0  0  0  0  0  0  0
  -12.7687   -9.3368   -7.0078 C   0  0  2  0  0  0  0  0  0  0  0  0
  -13.2336   -9.6414   -5.5775 C   0  0  1  0  0  0  0  0  0  0  0  0
  -13.2669   -8.3509   -4.7515 C   0  0  1  0  0  0  0  0  0  0  0  0
  -13.5747   -8.5583   -3.2776 C   0  0  0  0  0  0  0  0  0  0  0  0
  -11.0998   -8.1906   -8.3299 O   0  0  0  0  0  0  0  0  0  0  0  0
  -12.8005  -10.6211   -7.7768 N   0  3  0  0  0  0  0  0  0  0  0  0
  -14.5324  -10.2184   -5.6266 O   0  0  0  0  0  0  0  0  0  0  0  0
  -11.9924   -7.6822   -4.8340 O   0  0  0  0  0  0  0  0  0  0  0  0
  -14.9269   -8.9654   -3.0947 O   0  0  0  0  0  0  0  0  0  0  0  0
  -13.4548   -4.6972   -8.1012 C   0  0  2  0  0  0  0  0  0  0  0  0
  -13.2709   -3.2484   -8.5727 C   0  0  0  0  0  0  0  0  0  0  0  0
  -12.7594   -2.3396   -7.4583 C   0  0  1  0  0  0  0  0  0  0  0  0
  -11.4503   -2.9125   -6.9329 C   0  0  2  0  0  0  0  0  0  0  0  0
  -11.7094   -4.2850   -6.3066 C   0  0  1  0  0  0  0  0  0  0  0  0
  -12.2337   -5.2710   -7.3653 C   0  0  1  0  0  0  0  0  0  0  0  0
  -13.7900   -5.5916   -9.2601 N   0  3  0  0  0  0  0  0  0  0  0  0
  -12.5839   -0.9335   -7.9485 N   0  3  0  0  0  0  0  0  0  0  0  0
  -10.5051   -4.7749   -5.7306 O   0  0  0  0  0  0  0  0  0  0  0  0
  -10.8685   -2.0284   -5.9575 O   0  0  0  0  0  0  0  0  0  0  0  0
  -12.6357   -6.5019   -6.7289 O   0  0  0  0  0  0  0  0  0  0  0  0
   -9.5400   -2.3427   -5.6426 C   0  0  2  0  0  0  0  0  0  0  0  0
   -8.9442   -1.2520   -4.7463 C   0  0  1  0  0  0  0  0  0  0  0  0
   -8.6401    0.0129   -5.5495 C   0  0  0  0  0  0  0  0  0  0  0  0
   -7.7779   -0.3570   -6.7456 C   0  0  1  0  0  0  0  0  0  0  0  0
   -8.5109   -1.3839   -7.5911 C   0  0  1  0  0  0  0  0  0  0  0  0
   -7.7002   -1.7905   -8.8083 C   0  0  0  0  0  0  0  0  0  0  0  0
   -9.9122   -0.9220   -3.6519 N   0  3  0  0  0  0  0  0  0  0  0  0
   -6.6733   -2.7979   -8.3682 N   0  3  0  0  0  0  0  0  0  0  0  0
   -7.4913    0.7966   -7.5234 O   0  0  0  0  0  0  0  0  0  0  0  0
   -8.7486   -2.5640   -6.8051 O   0  0  0  0  0  0  0  0  0  0  0  0
  1  2  1  0  0  0  0
  1 22  1  6  0  0  0
  1 10  1  0  0  0  0
  2  3  1  0  0  0  0
  2  7  1  6  0  0  0
  3  4  1  0  0  0  0
  3  8  1  6  0  0  0
  4  5  1  0  0  0  0
  4  9  1  6  0  0  0
  5  6  1  1  0  0  0
  5 10  1  0  0  0  0
  6 11  1  0  0  0  0
 12 13  1  0  0  0  0
 12 17  1  0  0  0  0
 12 18  1  6  0  0  0
 13 14  1  0  0  0  0
 14 15  1  0  0  0  0
 14 19  1  6  0  0  0
 15 16  1  0  0  0  0
 15 21  1  1  0  0  0
 16 17  1  0  0  0  0
 16 20  1  6  0  0  0
 17 22  1  1  0  0  0
 23 21  1  6  0  0  0
 23 24  1  0  0  0  0
 23 32  1  0  0  0  0
 24 25  1  0  0  0  0
 24 29  1  1  0  0  0
 25 26  1  0  0  0  0
 26 27  1  0  0  0  0
 26 31  1  6  0  0  0
 27 28  1  6  0  0  0
 27 32  1  0  0  0  0
 28 30  1  0  0  0  0
M  CHG  5   8   1  18   1  19   1  29   1  30   1
M  END
>  <CHROM.1>
-109.01958394,-57.66623132,64.24151407,72.88863298,-69.53965263,53.30819648
-46.68541771,-58.41675441,-167.19144668,-60.04121481,171.47888635,172.54935446
165.76508113,-57.77289848,79.97158109,135.48323724,-11.27241948,-4.79691839
-6.54918203,2.98284762,-1.05506027,-1.86914793

>  <Name>
2tob cryst

>  <RI>
2.10184e+07

>  <Rbt.Current_Directory>
/home/itssahil/PROJECTS/Mol_Feturizer/New_Systems/rnas/2tob

>  <Rbt.Executable>
rbdock ($Id: //depot/dev/client3/rdock/2013.1/src/exe/rbdock.cxx#4 $)

>  <Rbt.Library>
libRbt.so (2013.1, Build901 2013/11/27)

>  <Rbt.Parameter_File>
/export/apps/rDock/src/rDock_2013.1_src/data/scripts/dock_solv.prm

>  <Rbt.Receptor>
prm/pocket_docking_7.prm

>  <SCORE>
-45.4128

>  <SCORE.INTER>
-25.4023

>  <SCORE.INTER.CONST>
1

>  <SCORE.INTER.POLAR>
-4.09312

>  <SCORE.INTER.ROT>
6

>  <SCORE.INTER.SOLV>
21.9979

>  <SCORE.INTER.VDW>
-18.2238

>  <SCORE.INTER.norm>
-0.793822

>  <SCORE.INTRA>
-20.0106

>  <SCORE.INTRA.DIHEDRAL>
-3.50508

>  <SCORE.INTRA.DIHEDRAL.0>
18.4221

>  <SCORE.INTRA.POLAR>
0.609834

>  <SCORE.INTRA.POLAR.0>
-1.57101

>  <SCORE.INTRA.REPUL>
-0.730195

>  <SCORE.INTRA.REPUL.0>
0.730195

>  <SCORE.INTRA.SOLV>
-8.09281

>  <SCORE.INTRA.SOLV.lig_0>
-127.221

>  <SCORE.INTRA.VDW>
-12.6341

>  <SCORE.INTRA.VDW.0>
10.8385

>  <SCORE.INTRA.norm>
-0.62533

>  <SCORE.RESTR>
0

>  <SCORE.RESTR.CAVITY>
0

>  <SCORE.RESTR.norm>
0

>  <SCORE.SYSTEM>
0

>  <SCORE.SYSTEM.CONST>
0

>  <SCORE.SYSTEM.DIHEDRAL>
0

>  <SCORE.SYSTEM.SOLV>
0

>  <SCORE.SYSTEM.norm>
0

>  <SCORE.heavy>
32

>  <SCORE.norm>
-1.41915

>  <RMSD>
8.493

$$$$
2tob cryst
 OpenBabel11021811463D
libRbt.so/2013.1/901 2013/11/27
 32 34  0  0  0  0  0  0  0  0999 V2000
  -13.2369   -4.9855   -8.0114 C   0  0  2  0  0  0  0  0  0  0  0  0
  -14.7526   -5.1290   -7.9171 C   0  0  1  0  0  0  0  0  0  0  0  0
  -15.0834   -6.4556   -7.2325 C   0  0  2  0  0  0  0  0  0  0  0  0
  -14.4127   -7.6282   -7.9603 C   0  0  1  0  0  0  0  0  0  0  0  0
  -12.9147   -7.3519   -8.1294 C   0  0  1  0  0  0  0  0  0  0  0  0
  -12.1778   -8.3844   -8.9667 C   0  0  0  0  0  0  0  0  0  0  0  0
  -15.2987   -4.0481   -7.1661 O   0  0  0  0  0  0  0  0  0  0  0  0
  -16.5295   -6.8009   -7.0555 N   0  3  0  0  0  0  0  0  0  0  0  0
  -14.6032   -8.8143   -7.1994 O   0  0  0  0  0  0  0  0  0  0  0  0
  -12.7200   -6.0699   -8.7594 O   0  0  0  0  0  0  0  0  0  0  0  0
  -10.7689   -8.1977   -8.8770 O   0  0  0  0  0  0  0  0  0  0  0  0
  -10.4548   -5.6782   -7.2031 C   0  0  2  0  0  0  0  0  0  0  0  0
   -8.9848   -5.2754   -7.3819 C   0  0  0  0  0  0  0  0  0  0  0  0
   -8.8375   -3.9120   -8.0518 C   0  0  1  0  0  0  0  0  0  0  0  0
   -9.5875   -2.8825   -7.2178 C   0  0  2  0  0  0  0  0  0  0  0  0
  -11.0807   -3.2195   -7.2141 C   0  0  1  0  0  0  0  0  0  0  0  0
  -11.3232   -4.5886   -6.5547 C   0  0  1  0  0  0  0  0  0  0  0  0
  -10.5631   -6.9359   -6.3897 N   0  3  0  0  0  0  0  0  0  0  0  0
   -7.3928   -3.5424   -8.2080 N   0  3  0  0  0  0  0  0  0  0  0  0
  -11.7911   -2.2041   -6.5168 O   0  0  0  0  0  0  0  0  0  0  0  0
   -9.3831   -1.5596   -7.7466 O   0  0  0  0  0  0  0  0  0  0  0  0
  -12.7060   -4.9686   -6.7139 O   0  0  0  0  0  0  0  0  0  0  0  0
   -8.2149   -0.9457   -7.2762 C   0  0  2  0  0  0  0  0  0  0  0  0
   -8.5686    0.1154   -6.2289 C   0  0  1  0  0  0  0  0  0  0  0  0
   -9.1675    1.3584   -6.8876 C   0  0  0  0  0  0  0  0  0  0  0  0
   -8.2250    1.8422   -7.9779 C   0  0  1  0  0  0  0  0  0  0  0  0
   -8.0175    0.7282   -8.9891 C   0  0  1  0  0  0  0  0  0  0  0  0
   -7.0866    1.1538  -10.1100 C   0  0  0  0  0  0  0  0  0  0  0  0
   -9.5560   -0.4531   -5.2566 N   0  3  0  0  0  0  0  0  0  0  0  0
   -5.6767    1.1054   -9.5875 N   0  3  0  0  0  0  0  0  0  0  0  0
   -8.7621    2.9887   -8.6221 O   0  0  0  0  0  0  0  0  0  0  0  0
   -7.4271   -0.4061   -8.3320 O   0  0  0  0  0  0  0  0  0  0  0  0
  1  2  1  0  0  0  0
  1 22  1  1  0  0  0
  1 10  1  0  0  0  0
  2  3  1  0  0  0  0
  2  7  1  1  0  0  0
  3  4  1  0  0  0  0
  3  8  1  6  0  0  0
  4  5  1  0  0  0  0
  4  9  1  1  0  0  0
  5  6  1  6  0  0  0
  5 10  1  0  0  0  0
  6 11  1  0  0  0  0
 12 13  1  0  0  0  0
 12 17  1  0  0  0  0
 12 18  1  1  0  0  0
 13 14  1  0  0  0  0
 14 15  1  0  0  0  0
 14 19  1  1  0  0  0
 15 16  1  0  0  0  0
 15 21  1  6  0  0  0
 16 17  1  0  0  0  0
 16 20  1  1  0  0  0
 17 22  1  6  0  0  0
 23 21  1  6  0  0  0
 23 24  1  0  0  0  0
 23 32  1  0  0  0  0
 24 25  1  0  0  0  0
 24 29  1  1  0  0  0
 25 26  1  0  0  0  0
 26 27  1  0  0  0  0
 26 31  1  6  0  0  0
 27 28  1  6  0  0  0
 27 32  1  0  0  0  0
 28 30  1  0  0  0  0
M  CHG  5   8   1  18   1  19   1  29   1  30   1
M  END
>  <CHROM.1>
-168.50739287,-178.30849478,-65.53425032,-179.12383023,-169.42787259,-71.16205763
-75.87710731,61.32672206,-85.33235708,-176.09798091,-66.92826646,-104.58309693
-56.85220373,46.42657992,77.32033398,38.87221087,-10.80091008,-3.48205404
-7.67094041,2.25053869,-0.23693134,-3.02465615

>  <Name>
2tob cryst

>  <RI>
0

>  <Rbt.Current_Directory>
/home/itssahil/PROJECTS/Mol_Feturizer/New_Systems/rnas/2tob

>  <Rbt.Executable>
rbdock ($Id: //depot/dev/client3/rdock/2013.1/src/exe/rbdock.cxx#4 $)

>  <Rbt.Library>
libRbt.so (2013.1, Build901 2013/11/27)

>  <Rbt.Parameter_File>
/export/apps/rDock/src/rDock_2013.1_src/data/scripts/dock_solv.prm

>  <Rbt.Receptor>
prm/pocket_docking_3.prm

>  <SCORE>
-49.1981

>  <SCORE.INTER>
-26.601

>  <SCORE.INTER.CONST>
1

>  <SCORE.INTER.POLAR>
-3.07906

>  <SCORE.INTER.ROT>
6

>  <SCORE.INTER.SOLV>
25.8687

>  <SCORE.INTER.VDW>
-23.6934

>  <SCORE.INTER.norm>
-0.831282

>  <SCORE.INTRA>
-23.6695

>  <SCORE.INTRA.DIHEDRAL>
-4.00594

>  <SCORE.INTRA.DIHEDRAL.0>
18.4221

>  <SCORE.INTRA.POLAR>
-1.3252

>  <SCORE.INTRA.POLAR.0>
-1.57101

>  <SCORE.INTRA.REPUL>
-0.730195

>  <SCORE.INTRA.REPUL.0>
0.730195

>  <SCORE.INTRA.SOLV>
0.688187

>  <SCORE.INTRA.SOLV.lig_0>
-127.221

>  <SCORE.INTRA.VDW>
-13.854

>  <SCORE.INTRA.VDW.0>
10.8385

>  <SCORE.INTRA.norm>
-0.739673

>  <SCORE.RESTR>
1.0725

>  <SCORE.RESTR.CAVITY>
1.0725

>  <SCORE.RESTR.norm>
0.0335156

>  <SCORE.SYSTEM>
0

>  <SCORE.SYSTEM.CONST>
0

>  <SCORE.SYSTEM.DIHEDRAL>
0

>  <SCORE.SYSTEM.SOLV>
0

>  <SCORE.SYSTEM.norm>
0

>  <SCORE.heavy>
32

>  <SCORE.norm>
-1.53744

>  <RMSD>
8.495

$$$$
2tob cryst
 OpenBabel11021811463D
libRbt.so/2013.1/901 2013/11/27
 32 34  0  0  0  0  0  0  0  0999 V2000
  -11.7713   -6.3163   -5.5192 C   0  0  2  0  0  0  0  0  0  0  0  0
  -11.1751   -7.6643   -5.9121 C   0  0  1  0  0  0  0  0  0  0  0  0
  -12.2797   -8.5423   -6.5010 C   0  0  2  0  0  0  0  0  0  0  0  0
  -13.4571   -8.6672   -5.5249 C   0  0  1  0  0  0  0  0  0  0  0  0
  -13.9167   -7.2753   -5.0776 C   0  0  1  0  0  0  0  0  0  0  0  0
  -14.9851   -7.2856   -3.9966 C   0  0  0  0  0  0  0  0  0  0  0  0
  -10.1410   -7.4780   -6.8747 O   0  0  0  0  0  0  0  0  0  0  0  0
  -11.9057   -9.9248   -6.9376 N   0  3  0  0  0  0  0  0  0  0  0  0
  -14.5259   -9.3445   -6.1740 O   0  0  0  0  0  0  0  0  0  0  0  0
  -12.7948   -6.5289   -4.5653 O   0  0  0  0  0  0  0  0  0  0  0  0
  -14.5798   -8.0864   -2.8910 O   0  0  0  0  0  0  0  0  0  0  0  0
  -12.4886   -3.5040   -5.6900 C   0  0  2  0  0  0  0  0  0  0  0  0
  -11.9641   -2.0634   -5.6235 C   0  0  0  0  0  0  0  0  0  0  0  0
  -10.4455   -1.9953   -5.7595 C   0  0  1  0  0  0  0  0  0  0  0  0
  -10.0495   -2.6599   -7.0708 C   0  0  2  0  0  0  0  0  0  0  0  0
  -10.4282   -4.1424   -7.0258 C   0  0  1  0  0  0  0  0  0  0  0  0
  -11.9519   -4.3062   -6.8860 C   0  0  1  0  0  0  0  0  0  0  0  0
  -13.9898   -3.5188   -5.7276 N   0  3  0  0  0  0  0  0  0  0  0  0
   -9.9625   -0.5773   -5.6968 N   0  3  0  0  0  0  0  0  0  0  0  0
   -9.9705   -4.7818   -8.2106 O   0  0  0  0  0  0  0  0  0  0  0  0
   -8.6356   -2.5200   -7.3002 O   0  0  0  0  0  0  0  0  0  0  0  0
  -12.2755   -5.6957   -6.6709 O   0  0  0  0  0  0  0  0  0  0  0  0
   -8.3127   -2.2348   -8.6332 C   0  0  2  0  0  0  0  0  0  0  0  0
   -6.7963   -2.0698   -8.7790 C   0  0  1  0  0  0  0  0  0  0  0  0
   -6.3309   -0.7353   -8.1959 C   0  0  0  0  0  0  0  0  0  0  0  0
   -7.1469    0.3866   -8.8174 C   0  0  1  0  0  0  0  0  0  0  0  0
   -8.6203    0.1466   -8.5376 C   0  0  1  0  0  0  0  0  0  0  0  0
   -9.4897    1.2407   -9.1303 C   0  0  0  0  0  0  0  0  0  0  0  0
   -6.1020   -3.1896   -8.0665 N   0  3  0  0  0  0  0  0  0  0  0  0
   -9.0815    2.5479   -8.5078 N   0  3  0  0  0  0  0  0  0  0  0  0
   -6.7494    1.6413   -8.2827 O   0  0  0  0  0  0  0  0  0  0  0  0
   -9.0188   -1.1021   -9.1282 O   0  0  0  0  0  0  0  0  0  0  0  0
  1  2  1  0  0  0  0
  1 22  1  6  0  0  0
  1 10  1  0  0  0  0
  2  3  1  0  0  0  0
  2  7  1  6  0  0  0
  3  4  1  0  0  0  0
  3  8  1  1  0  0  0
  4  5  1  0  0  0  0
  4  9  1  6  0  0  0
  5  6  1  1  0  0  0
  5 10  1  0  0  0  0
  6 11  1  0  0  0  0
 12 13  1  0  0  0  0
 12 17  1  0  0  0  0
 12 18  1  6  0  0  0
 13 14  1  0  0  0  0
 14 15  1  0  0  0  0
 14 19  1  6  0  0  0
 15 16  1  0  0  0  0
 15 21  1  1  0  0  0
 16 17  1  0  0  0  0
 16 20  1  6  0  0  0
 17 22  1  1  0  0  0
 23 21  1  1  0  0  0
 23 24  1  0  0  0  0
 23 32  1  0  0  0  0
 24 25  1  0  0  0  0
 24 29  1  1  0  0  0
 25 26  1  0  0  0  0
 26 27  1  0  0  0  0
 26 31  1  1  0  0  0
 27 28  1  6  0  0  0
 27 32  1  0  0  0  0
 28 30  1  0  0  0  0
M  CHG  5   8   1  18   1  19   1  29   1  30   1
M  END
>  <CHROM.1>
-133.39377134,-36.09703467,-37.94797293,-53.04071274,52.67932702,-61.30271940
60.53823395,79.54348034,-139.27949736,-54.71417942,-59.47423051,178.64509446
-59.90433672,-57.18480552,-60.23022852,165.98892611,-10.67122178,-3.95630191
-6.80220147,-2.23544600,0.52636602,0.02027701

>  <Name>
2tob cryst

>  <RI>
0

>  <Rbt.Current_Directory>
/home/itssahil/PROJECTS/Mol_Feturizer/New_Systems/rnas/2tob

>  <Rbt.Executable>
rbdock ($Id: //depot/dev/client3/rdock/2013.1/src/exe/rbdock.cxx#4 $)

>  <Rbt.Library>
libRbt.so (2013.1, Build901 2013/11/27)

>  <Rbt.Parameter_File>
/export/apps/rDock/src/rDock_2013.1_src/data/scripts/dock_solv.prm

>  <Rbt.Receptor>
prm/pocket_docking_3.prm

>  <SCORE>
-47.4576

>  <SCORE.INTER>
-29.2802

>  <SCORE.INTER.CONST>
1

>  <SCORE.INTER.POLAR>
-5.35141

>  <SCORE.INTER.ROT>
6

>  <SCORE.INTER.SOLV>
31.8582

>  <SCORE.INTER.VDW>
-19.9015

>  <SCORE.INTER.norm>
-0.915007

>  <SCORE.INTRA>
-19.4893

>  <SCORE.INTRA.DIHEDRAL>
-0.868274

>  <SCORE.INTRA.DIHEDRAL.0>
18.4221

>  <SCORE.INTRA.POLAR>
-0.067234

>  <SCORE.INTRA.POLAR.0>
-1.57101

>  <SCORE.INTRA.REPUL>
-0.730195

>  <SCORE.INTRA.REPUL.0>
0.730195

>  <SCORE.INTRA.SOLV>
-3.22726

>  <SCORE.INTRA.SOLV.lig_0>
-127.221

>  <SCORE.INTRA.VDW>
-13.5619

>  <SCORE.INTRA.VDW.0>
10.8385

>  <SCORE.INTRA.norm>
-0.60904

>  <SCORE.RESTR>
1.31186

>  <SCORE.RESTR.CAVITY>
1.31186

>  <SCORE.RESTR.norm>
0.0409956

>  <SCORE.SYSTEM>
0

>  <SCORE.SYSTEM.CONST>
0

>  <SCORE.SYSTEM.DIHEDRAL>
0

>  <SCORE.SYSTEM.SOLV>
0

>  <SCORE.SYSTEM.norm>
0

>  <SCORE.heavy>
32

>  <SCORE.norm>
-1.48305

>  <RMSD>
8.497

$$$$
2tob cryst
 OpenBabel11021811463D
libRbt.so/2013.1/901 2013/11/27
 32 34  0  0  0  0  0  0  0  0999 V2000
  -12.3607   -6.9383   -6.5926 C   0  0  2  0  0  0  0  0  0  0  0  0
  -11.9849   -8.3486   -6.1489 C   0  0  1  0  0  0  0  0  0  0  0  0
  -12.5520   -9.3520   -7.1534 C   0  0  2  0  0  0  0  0  0  0  0  0
  -14.0646   -9.1586   -7.3243 C   0  0  1  0  0  0  0  0  0  0  0  0
  -14.3724   -7.6913   -7.6428 C   0  0  1  0  0  0  0  0  0  0  0  0
  -15.8546   -7.3579   -7.6892 C   0  0  0  0  0  0  0  0  0  0  0  0
  -10.5672   -8.4778   -6.0844 O   0  0  0  0  0  0  0  0  0  0  0  0
  -12.3089  -10.8060   -6.8913 N   0  3  0  0  0  0  0  0  0  0  0  0
  -14.5201   -9.9898   -8.3845 O   0  0  0  0  0  0  0  0  0  0  0  0
  -13.7710   -6.8368   -6.6496 O   0  0  0  0  0  0  0  0  0  0  0  0
  -16.0625   -6.0415   -8.1907 O   0  0  0  0  0  0  0  0  0  0  0  0
  -13.0189   -4.8134   -8.7146 C   0  0  2  0  0  0  0  0  0  0  0  0
  -13.0879   -3.2920   -8.9037 C   0  0  0  0  0  0  0  0  0  0  0  0
  -12.5282   -2.5352   -7.7024 C   0  0  1  0  0  0  0  0  0  0  0  0
  -11.0941   -2.9916   -7.4717 C   0  0  2  0  0  0  0  0  0  0  0  0
  -11.0847   -4.4783   -7.1072 C   0  0  1  0  0  0  0  0  0  0  0  0
  -11.6390   -5.3221   -8.2685 C   0  0  1  0  0  0  0  0  0  0  0  0
  -13.4143   -5.5216   -9.9784 N   0  3  0  0  0  0  0  0  0  0  0  0
  -12.6030   -1.0532   -7.9173 N   0  3  0  0  0  0  0  0  0  0  0  0
   -9.7560   -4.8790   -6.7974 O   0  0  0  0  0  0  0  0  0  0  0  0
  -10.4836   -2.2231   -6.4190 O   0  0  0  0  0  0  0  0  0  0  0  0
  -11.7856   -6.6945   -7.8478 O   0  0  0  0  0  0  0  0  0  0  0  0
   -9.0976   -2.0803   -6.5651 C   0  0  2  0  0  0  0  0  0  0  0  0
   -8.4923   -1.5165   -5.2753 C   0  0  1  0  0  0  0  0  0  0  0  0
   -8.8078   -0.0279   -5.1260 C   0  0  0  0  0  0  0  0  0  0  0  0
   -8.3772    0.6973   -6.3908 C   0  0  1  0  0  0  0  0  0  0  0  0
   -9.1026    0.0968   -7.5823 C   0  0  1  0  0  0  0  0  0  0  0  0
   -8.7175    0.7853   -8.8792 C   0  0  0  0  0  0  0  0  0  0  0  0
   -9.0458   -2.2594   -4.0983 N   0  3  0  0  0  0  0  0  0  0  0  0
   -9.8437    0.5966   -9.8585 N   0  3  0  0  0  0  0  0  0  0  0  0
   -8.6729    2.0832   -6.2905 O   0  0  0  0  0  0  0  0  0  0  0  0
   -8.7537   -1.2928   -7.7001 O   0  0  0  0  0  0  0  0  0  0  0  0
  1  2  1  0  0  0  0
  1 22  1  6  0  0  0
  1 10  1  0  0  0  0
  2  3  1  0  0  0  0
  2  7  1  6  0  0  0
  3  4  1  0  0  0  0
  3  8  1  1  0  0  0
  4  5  1  0  0  0  0
  4  9  1  6  0  0  0
  5  6  1  1  0  0  0
  5 10  1  0  0  0  0
  6 11  1  0  0  0  0
 12 13  1  0  0  0  0
 12 17  1  0  0  0  0
 12 18  1  6  0  0  0
 13 14  1  0  0  0  0
 14 15  1  0  0  0  0
 14 19  1  6  0  0  0
 15 16  1  0  0  0  0
 15 21  1  1  0  0  0
 16 17  1  0  0  0  0
 16 20  1  6  0  0  0
 17 22  1  1  0  0  0
 23 21  1  1  0  0  0
 23 24  1  0  0  0  0
 23 32  1  0  0  0  0
 24 25  1  0  0  0  0
 24 29  1  1  0  0  0
 25 26  1  0  0  0  0
 26 27  1  0  0  0  0
 26 31  1  1  0  0  0
 27 28  1  6  0  0  0
 27 32  1  0  0  0  0
 28 30  1  0  0  0  0
M  CHG  5   8   1  18   1  19   1  29   1  30   1
M  END
>  <CHROM.1>
-160.52537114,-170.53695674,-67.75022657,179.88342303,-170.94480394,-59.49659043
77.26407365,-61.24127874,-150.25804743,-178.19448608,-76.57353451,-168.14923207
75.18141802,177.78476068,-155.43118856,171.79509773,-11.50632236,-4.31864876
-7.31471149,-2.17523742,-0.62179481,-0.32267549

>  <Name>
2tob cryst

>  <RI>
0

>  <Rbt.Current_Directory>
/home/itssahil/PROJECTS/Mol_Feturizer/New_Systems/rnas/2tob

>  <Rbt.Executable>
rbdock ($Id: //depot/dev/client3/rdock/2013.1/src/exe/rbdock.cxx#4 $)

>  <Rbt.Library>
libRbt.so (2013.1, Build901 2013/11/27)

>  <Rbt.Parameter_File>
/export/apps/rDock/src/rDock_2013.1_src/data/scripts/dock_solv.prm

>  <Rbt.Receptor>
prm/pocket_docking_6.prm

>  <SCORE>
-51.5248

>  <SCORE.INTER>
-32.0865

>  <SCORE.INTER.CONST>
1

>  <SCORE.INTER.POLAR>
-5.17295

>  <SCORE.INTER.ROT>
6

>  <SCORE.INTER.SOLV>
22.8011

>  <SCORE.INTER.VDW>
-19.3482

>  <SCORE.INTER.norm>
-1.0027

>  <SCORE.INTRA>
-19.4383

>  <SCORE.INTRA.DIHEDRAL>
-6.81144

>  <SCORE.INTRA.DIHEDRAL.0>
18.4221

>  <SCORE.INTRA.POLAR>
1.39218

>  <SCORE.INTRA.POLAR.0>
-1.57101

>  <SCORE.INTRA.REPUL>
-0.730195

>  <SCORE.INTRA.REPUL.0>
0.730195

>  <SCORE.INTRA.SOLV>
-3.80221

>  <SCORE.INTRA.SOLV.lig_0>
-127.221

>  <SCORE.INTRA.VDW>
-15.2139

>  <SCORE.INTRA.VDW.0>
10.8385

>  <SCORE.INTRA.norm>
-0.607447

>  <SCORE.RESTR>
0

>  <SCORE.RESTR.CAVITY>
0

>  <SCORE.RESTR.norm>
0

>  <SCORE.SYSTEM>
0

>  <SCORE.SYSTEM.CONST>
0

>  <SCORE.SYSTEM.DIHEDRAL>
0

>  <SCORE.SYSTEM.SOLV>
0

>  <SCORE.SYSTEM.norm>
0

>  <SCORE.heavy>
32

>  <SCORE.norm>
-1.61015

>  <RMSD>
8.501

$$$$
2tob cryst
 OpenBabel11021811463D
libRbt.so/2013.1/901 2013/11/27
 32 34  0  0  0  0  0  0  0  0999 V2000
  -12.1523   -6.3681   -6.1215 C   0  0  2  0  0  0  0  0  0  0  0  0
  -11.4600   -7.7152   -5.9397 C   0  0  1  0  0  0  0  0  0  0  0  0
  -12.4930   -8.8300   -6.1068 C   0  0  2  0  0  0  0  0  0  0  0  0
  -13.6751   -8.6276   -5.1496 C   0  0  1  0  0  0  0  0  0  0  0  0
  -14.2350   -7.2090   -5.3012 C   0  0  1  0  0  0  0  0  0  0  0  0
  -15.3178   -6.8521   -4.2962 C   0  0  0  0  0  0  0  0  0  0  0  0
  -10.4252   -7.8659   -6.9077 O   0  0  0  0  0  0  0  0  0  0  0  0
  -12.0193  -10.2415   -5.9481 N   0  3  0  0  0  0  0  0  0  0  0  0
  -14.6848   -9.5816   -5.4538 O   0  0  0  0  0  0  0  0  0  0  0  0
  -13.1746   -6.2440   -5.1508 O   0  0  0  0  0  0  0  0  0  0  0  0
  -15.6609   -5.4731   -4.3890 O   0  0  0  0  0  0  0  0  0  0  0  0
  -13.8593   -4.2493   -7.8547 C   0  0  2  0  0  0  0  0  0  0  0  0
  -13.7754   -2.7802   -8.2902 C   0  0  0  0  0  0  0  0  0  0  0  0
  -12.5141   -2.0956   -7.7709 C   0  0  1  0  0  0  0  0  0  0  0  0
  -11.3045   -2.8796   -8.2611 C   0  0  2  0  0  0  0  0  0  0  0  0
  -11.3301   -4.2862   -7.6577 C   0  0  1  0  0  0  0  0  0  0  0  0
  -12.5783   -5.0529   -8.1290 C   0  0  1  0  0  0  0  0  0  0  0  0
  -15.0166   -4.9337   -8.5237 N   0  3  0  0  0  0  0  0  0  0  0  0
  -12.4561   -0.6649   -8.2160 N   0  3  0  0  0  0  0  0  0  0  0  0
  -10.1507   -4.9835   -8.0382 O   0  0  0  0  0  0  0  0  0  0  0  0
  -10.0857   -2.2084   -7.8929 O   0  0  0  0  0  0  0  0  0  0  0  0
  -12.6783   -6.3053   -7.4196 O   0  0  0  0  0  0  0  0  0  0  0  0
   -9.4273   -1.6141   -8.9773 C   0  0  2  0  0  0  0  0  0  0  0  0
   -7.9215   -1.8826   -8.8843 C   0  0  1  0  0  0  0  0  0  0  0  0
   -7.2773   -1.0242   -7.7954 C   0  0  0  0  0  0  0  0  0  0  0  0
   -7.6416    0.4322   -8.0345 C   0  0  1  0  0  0  0  0  0  0  0  0
   -9.1535    0.5764   -8.0277 C   0  0  1  0  0  0  0  0  0  0  0  0
   -9.5811    2.0147   -8.2565 C   0  0  0  0  0  0  0  0  0  0  0  0
   -7.6912   -3.3297   -8.5740 N   0  3  0  0  0  0  0  0  0  0  0  0
   -8.9970    2.4713   -9.5654 N   0  3  0  0  0  0  0  0  0  0  0  0
   -7.0709    1.2558   -7.0276 O   0  0  0  0  0  0  0  0  0  0  0  0
   -9.7118   -0.2233   -9.0839 O   0  0  0  0  0  0  0  0  0  0  0  0
  1  2  1  0  0  0  0
  1 22  1  6  0  0  0
  1 10  1  0  0  0  0
  2  3  1  0  0  0  0
  2  7  1  6  0  0  0
  3  4  1  0  0  0  0
  3  8  1  1  0  0  0
  4  5  1  0  0  0  0
  4  9  1  6  0  0  0
  5  6  1  1  0  0  0
  5 10  1  0  0  0  0
  6 11  1  0  0  0  0
 12 13  1  0  0  0  0
 12 17  1  0  0  0  0
 12 18  1  6  0  0  0
 13 14  1  0  0  0  0
 14 15  1  0  0  0  0
 14 19  1  6  0  0  0
 15 16  1  0  0  0  0
 15 21  1  1  0  0  0
 16 17  1  0  0  0  0
 16 20  1  6  0  0  0
 17 22  1  1  0  0  0
 23 21  1  1  0  0  0
 23 24  1  0  0  0  0
 23 32  1  0  0  0  0
 24 25  1  0  0  0  0
 24 29  1  1  0  0  0
 25 26  1  0  0  0  0
 26 27  1  0  0  0  0
 26 31  1  1  0  0  0
 27 28  1  6  0  0  0
 27 32  1  0  0  0  0
 28 30  1  0  0  0  0
M  CHG  5   8   1  18   1  19   1  29   1  30   1
M  END
>  <CHROM.1>
-140.26766767,-177.64773132,71.39191620,67.33594743,172.46120643,-175.00951667
48.82476364,-112.20630196,-107.94220802,178.69875510,-91.80528767,-136.96374245
-97.86019299,173.56118820,57.39654791,171.16830061,-11.42217517,-3.97766643
-7.28316720,-2.08668319,0.14217166,-0.23787340

>  <Name>
2tob cryst

>  <RI>
2.9538e+07

>  <Rbt.Current_Directory>
/home/itssahil/PROJECTS/Mol_Feturizer/New_Systems/rnas/2tob

>  <Rbt.Executable>
rbdock ($Id: //depot/dev/client3/rdock/2013.1/src/exe/rbdock.cxx#4 $)

>  <Rbt.Library>
libRbt.so (2013.1, Build901 2013/11/27)

>  <Rbt.Parameter_File>
/export/apps/rDock/src/rDock_2013.1_src/data/scripts/dock_solv.prm

>  <Rbt.Receptor>
prm/pocket_docking_2.prm

>  <SCORE>
-57.8423

>  <SCORE.INTER>
-44.4935

>  <SCORE.INTER.CONST>
1

>  <SCORE.INTER.POLAR>
-8.007

>  <SCORE.INTER.ROT>
6

>  <SCORE.INTER.SOLV>
29.4883

>  <SCORE.INTER.VDW>
-20.4017

>  <SCORE.INTER.norm>
-1.39042

>  <SCORE.INTRA>
-16.8361

>  <SCORE.INTRA.DIHEDRAL>
10.9216

>  <SCORE.INTRA.DIHEDRAL.0>
18.4221

>  <SCORE.INTRA.POLAR>
-1.32137

>  <SCORE.INTRA.POLAR.0>
-1.57101

>  <SCORE.INTRA.REPUL>
-0.730195

>  <SCORE.INTRA.REPUL.0>
0.730195

>  <SCORE.INTRA.SOLV>
-2.54884

>  <SCORE.INTRA.SOLV.lig_0>
-127.221

>  <SCORE.INTRA.VDW>
-12.8789

>  <SCORE.INTRA.VDW.0>
10.8385

>  <SCORE.INTRA.norm>
-0.526129

>  <SCORE.RESTR>
3.48735

>  <SCORE.RESTR.CAVITY>
3.48735

>  <SCORE.RESTR.norm>
0.10898

>  <SCORE.SYSTEM>
0

>  <SCORE.SYSTEM.CONST>
0

>  <SCORE.SYSTEM.DIHEDRAL>
0

>  <SCORE.SYSTEM.SOLV>
0

>  <SCORE.SYSTEM.norm>
0

>  <SCORE.heavy>
32

>  <SCORE.norm>
-1.80757

>  <RMSD>
8.505

$$$$
2tob cryst
 OpenBabel11021811463D
libRbt.so/2013.1/901 2013/11/27
 32 34  0  0  0  0  0  0  0  0999 V2000
  -15.7203   -5.2212   -6.0260 C   0  0  2  0  0  0  0  0  0  0  0  0
  -16.2719   -5.7910   -4.7229 C   0  0  1  0  0  0  0  0  0  0  0  0
  -15.1590   -6.5557   -4.0058 C   0  0  2  0  0  0  0  0  0  0  0  0
  -14.5543   -7.6276   -4.9222 C   0  0  1  0  0  0  0  0  0  0  0  0
  -14.1415   -7.0018   -6.2589 C   0  0  1  0  0  0  0  0  0  0  0  0
  -13.6629   -8.0025   -7.2980 C   0  0  0  0  0  0  0  0  0  0  0  0
  -16.7464   -4.7353   -3.8916 O   0  0  0  0  0  0  0  0  0  0  0  0
  -15.4990   -7.2131   -2.7042 N   0  3  0  0  0  0  0  0  0  0  0  0
  -13.4184   -8.1956   -4.2824 O   0  0  0  0  0  0  0  0  0  0  0  0
  -15.2553   -6.2878   -6.8315 O   0  0  0  0  0  0  0  0  0  0  0  0
  -13.1065   -7.3349   -8.4261 O   0  0  0  0  0  0  0  0  0  0  0  0
  -14.7566   -2.9176   -7.6750 C   0  0  2  0  0  0  0  0  0  0  0  0
  -13.9700   -2.0815   -8.6935 C   0  0  0  0  0  0  0  0  0  0  0  0
  -12.7907   -1.3534   -8.0543 C   0  0  1  0  0  0  0  0  0  0  0  0
  -11.8927   -2.3856   -7.3864 C   0  0  2  0  0  0  0  0  0  0  0  0
  -12.6602   -3.0728   -6.2543 C   0  0  1  0  0  0  0  0  0  0  0  0
  -13.8760   -3.8343   -6.8112 C   0  0  1  0  0  0  0  0  0  0  0  0
  -15.7968   -3.7514   -8.3664 N   0  3  0  0  0  0  0  0  0  0  0  0
  -12.0382   -0.5502   -9.0726 N   0  3  0  0  0  0  0  0  0  0  0  0
  -11.7908   -3.9659   -5.5698 O   0  0  0  0  0  0  0  0  0  0  0  0
  -10.7052   -1.7600   -6.8668 O   0  0  0  0  0  0  0  0  0  0  0  0
  -14.6828   -4.3286   -5.7219 O   0  0  0  0  0  0  0  0  0  0  0  0
   -9.7411   -1.4930   -7.8476 C   0  0  2  0  0  0  0  0  0  0  0  0
   -8.3509   -1.8785   -7.3312 C   0  0  1  0  0  0  0  0  0  0  0  0
   -7.8451   -0.8630   -6.3063 C   0  0  0  0  0  0  0  0  0  0  0  0
   -7.9265    0.5300   -6.9096 C   0  0  1  0  0  0  0  0  0  0  0  0
   -9.3634    0.8182   -7.3084 C   0  0  1  0  0  0  0  0  0  0  0  0
   -9.5109    2.2021   -7.9143 C   0  0  0  0  0  0  0  0  0  0  0  0
   -8.4130   -3.2334   -6.6956 N   0  3  0  0  0  0  0  0  0  0  0  0
   -8.9096    2.1731   -9.2929 N   0  3  0  0  0  0  0  0  0  0  0  0
   -7.4785    1.5005   -5.9740 O   0  0  0  0  0  0  0  0  0  0  0  0
   -9.7850   -0.1414   -8.2924 O   0  0  0  0  0  0  0  0  0  0  0  0
  1  2  1  0  0  0  0
  1 22  1  1  0  0  0
  1 10  1  0  0  0  0
  2  3  1  0  0  0  0
  2  7  1  1  0  0  0
  3  4  1  0  0  0  0
  3  8  1  1  0  0  0
  4  5  1  0  0  0  0
  4  9  1  1  0  0  0
  5  6  1  6  0  0  0
  5 10  1  0  0  0  0
  6 11  1  0  0  0  0
 12 13  1  0  0  0  0
 12 17  1  0  0  0  0
 12 18  1  6  0  0  0
 13 14  1  0  0  0  0
 14 15  1  0  0  0  0
 14 19  1  6  0  0  0
 15 16  1  0  0  0  0
 15 21  1  1  0  0  0
 16 17  1  0  0  0  0
 16 20  1  6  0  0  0
 17 22  1  1  0  0  0
 23 21  1  1  0  0  0
 23 24  1  0  0  0  0
 23 32  1  0  0  0  0
 24 25  1  0  0  0  0
 24 29  1  1  0  0  0
 25 26  1  0  0  0  0
 26 27  1  0  0  0  0
 26 31  1  1  0  0  0
 27 28  1  6  0  0  0
 27 32  1  0  0  0  0
 28 30  1  0  0  0  0
M  CHG  5   8   1  18   1  19   1  29   1  30   1
M  END
>  <CHROM.1>
170.31427907,-59.13646103,63.94965125,-56.81699396,-170.97902621,-56.04528372
-6.20380162,51.00745467,-78.60432210,178.95806028,68.32243154,-136.46528052
179.51438024,-179.50704931,73.18718812,-87.72258944,-12.36131280,-3.26901879
-6.67211256,2.30493878,0.30116785,2.55805704

>  <Name>
2tob cryst

>  <RI>
2.10184e+07

>  <Rbt.Current_Directory>
/home/itssahil/PROJECTS/Mol_Feturizer/New_Systems/rnas/2tob

>  <Rbt.Executable>
rbdock ($Id: //depot/dev/client3/rdock/2013.1/src/exe/rbdock.cxx#4 $)

>  <Rbt.Library>
libRbt.so (2013.1, Build901 2013/11/27)

>  <Rbt.Parameter_File>
/export/apps/rDock/src/rDock_2013.1_src/data/scripts/dock_solv.prm

>  <Rbt.Receptor>
prm/pocket_docking_7.prm

>  <SCORE>
-48.4803

>  <SCORE.INTER>
-30.0429

>  <SCORE.INTER.CONST>
1

>  <SCORE.INTER.POLAR>
-4.70805

>  <SCORE.INTER.ROT>
6

>  <SCORE.INTER.SOLV>
21.4992

>  <SCORE.INTER.VDW>
-19.1015

>  <SCORE.INTER.norm>
-0.938842

>  <SCORE.INTRA>
-18.4373

>  <SCORE.INTRA.DIHEDRAL>
-3.76594

>  <SCORE.INTRA.DIHEDRAL.0>
18.4221

>  <SCORE.INTRA.POLAR>
-0.404026

>  <SCORE.INTRA.POLAR.0>
-1.57101

>  <SCORE.INTRA.REPUL>
-0.730195

>  <SCORE.INTRA.REPUL.0>
0.730195

>  <SCORE.INTRA.SOLV>
-1.28229

>  <SCORE.INTRA.SOLV.lig_0>
-127.221

>  <SCORE.INTRA.VDW>
-10.8885

>  <SCORE.INTRA.VDW.0>
10.8385

>  <SCORE.INTRA.norm>
-0.576166

>  <SCORE.RESTR>
0

>  <SCORE.RESTR.CAVITY>
0

>  <SCORE.RESTR.norm>
0

>  <SCORE.SYSTEM>
0

>  <SCORE.SYSTEM.CONST>
0

>  <SCORE.SYSTEM.DIHEDRAL>
0

>  <SCORE.SYSTEM.SOLV>
0

>  <SCORE.SYSTEM.norm>
0

>  <SCORE.heavy>
32

>  <SCORE.norm>
-1.51501

>  <RMSD>
8.519

$$$$
2tob cryst
 OpenBabel11021811463D
libRbt.so/2013.1/901 2013/11/27
 32 34  0  0  0  0  0  0  0  0999 V2000
   -9.5168   -1.4063   -6.5959 C   0  0  2  0  0  0  0  0  0  0  0  0
   -9.0074   -2.5996   -5.7939 C   0  0  1  0  0  0  0  0  0  0  0  0
   -9.9483   -3.7842   -6.0157 C   0  0  2  0  0  0  0  0  0  0  0  0
  -11.3952   -3.4040   -5.6745 C   0  0  1  0  0  0  0  0  0  0  0  0
  -11.7906   -2.1248   -6.4202 C   0  0  1  0  0  0  0  0  0  0  0  0
  -13.1571   -1.5766   -6.0430 C   0  0  0  0  0  0  0  0  0  0  0  0
   -7.6900   -2.9432   -6.2148 O   0  0  0  0  0  0  0  0  0  0  0  0
   -9.6349   -5.0604   -5.2983 N   0  3  0  0  0  0  0  0  0  0  0  0
  -12.2553   -4.4710   -6.0540 O   0  0  0  0  0  0  0  0  0  0  0  0
  -10.8247   -1.0866   -6.1604 O   0  0  0  0  0  0  0  0  0  0  0  0
  -13.2824   -1.4565   -4.6296 O   0  0  0  0  0  0  0  0  0  0  0  0
   -9.6355    0.6113   -8.4602 C   0  0  2  0  0  0  0  0  0  0  0  0
   -9.0080    1.8141   -9.1776 C   0  0  0  0  0  0  0  0  0  0  0  0
   -7.4827    1.7743   -9.1443 C   0  0  1  0  0  0  0  0  0  0  0  0
   -7.0216    0.4650   -9.7696 C   0  0  2  0  0  0  0  0  0  0  0  0
   -7.5178   -0.7080   -8.9205 C   0  0  1  0  0  0  0  0  0  0  0  0
   -9.0560   -0.7438   -8.8960 C   0  0  1  0  0  0  0  0  0  0  0  0
  -11.1235    0.5927   -8.6623 N   0  3  0  0  0  0  0  0  0  0  0  0
   -6.8977    2.9570   -9.8566 N   0  3  0  0  0  0  0  0  0  0  0  0
   -7.0051   -1.9237   -9.4509 O   0  0  0  0  0  0  0  0  0  0  0  0
   -5.5860    0.4302   -9.8657 O   0  0  0  0  0  0  0  0  0  0  0  0
   -9.5059   -1.7426   -7.9570 O   0  0  0  0  0  0  0  0  0  0  0  0
   -5.1185   -0.3050  -10.9628 C   0  0  2  0  0  0  0  0  0  0  0  0
   -3.9908   -1.2431  -10.5200 C   0  0  1  0  0  0  0  0  0  0  0  0
   -2.6988   -0.4663  -10.2653 C   0  0  0  0  0  0  0  0  0  0  0  0
   -2.3745    0.3689  -11.4934 C   0  0  1  0  0  0  0  0  0  0  0  0
   -3.5343    1.3067  -11.7800 C   0  0  1  0  0  0  0  0  0  0  0  0
   -3.2670    2.1746  -12.9963 C   0  0  0  0  0  0  0  0  0  0  0  0
   -4.3965   -1.9528   -9.2648 N   0  3  0  0  0  0  0  0  0  0  0  0
   -2.1320    3.1044  -12.6642 N   0  3  0  0  0  0  0  0  0  0  0  0
   -1.1859    1.1174  -11.2820 O   0  0  0  0  0  0  0  0  0  0  0  0
   -4.7175    0.5331  -12.0415 O   0  0  0  0  0  0  0  0  0  0  0  0
  1  2  1  0  0  0  0
  1 22  1  6  0  0  0
  1 10  1  0  0  0  0
  2  3  1  0  0  0  0
  2  7  1  6  0  0  0
  3  4  1  0  0  0  0
  3  8  1  1  0  0  0
  4  5  1  0  0  0  0
  4  9  1  6  0  0  0
  5  6  1  1  0  0  0
  5 10  1  0  0  0  0
  6 11  1  0  0  0  0
 12 13  1  0  0  0  0
 12 17  1  0  0  0  0
 12 18  1  6  0  0  0
 13 14  1  0  0  0  0
 14 15  1  0  0  0  0
 14 19  1  6  0  0  0
 15 16  1  0  0  0  0
 15 21  1  1  0  0  0
 16 17  1  0  0  0  0
 16 20  1  6  0  0  0
 17 22  1  1  0  0  0
 23 21  1  1  0  0  0
 23 24  1  0  0  0  0
 23 32  1  0  0  0  0
 24 25  1  0  0  0  0
 24 29  1  1  0  0  0
 25 26  1  0  0  0  0
 26 27  1  0  0  0  0
 26 31  1  1  0  0  0
 27 28  1  6  0  0  0
 27 32  1  0  0  0  0
 28 30  1  0  0  0  0
M  CHG  5   8   1  18   1  19   1  29   1  30   1
M  END
>  <CHROM.1>
-138.78929595,-57.56097080,75.34534830,-58.80725691,50.93540096,176.14447889
-94.18746290,38.14722850,-148.74458136,-151.42911966,-41.03934825,-133.53191197
-60.73046541,67.32864851,-66.62816193,54.53076320,-7.55449953,-0.69411282
-8.68425277,-2.54617442,0.37001556,-0.48891747

>  <Name>
2tob cryst

>  <RI>
0

>  <Rbt.Current_Directory>
/home/itssahil/PROJECTS/Mol_Feturizer/New_Systems/rnas/2tob

>  <Rbt.Executable>
rbdock ($Id: //depot/dev/client3/rdock/2013.1/src/exe/rbdock.cxx#4 $)

>  <Rbt.Library>
libRbt.so (2013.1, Build901 2013/11/27)

>  <Rbt.Parameter_File>
/export/apps/rDock/src/rDock_2013.1_src/data/scripts/dock_solv.prm

>  <Rbt.Receptor>
prm/blind_docking_100.prm

>  <SCORE>
17.1369

>  <SCORE.INTER>
23.679

>  <SCORE.INTER.CONST>
1

>  <SCORE.INTER.POLAR>
-5.42221

>  <SCORE.INTER.ROT>
6

>  <SCORE.INTER.SOLV>
38.75

>  <SCORE.INTER.VDW>
13.3434

>  <SCORE.INTER.norm>
0.739968

>  <SCORE.INTRA>
-14.2454

>  <SCORE.INTRA.DIHEDRAL>
6.97376

>  <SCORE.INTRA.DIHEDRAL.0>
18.4221

>  <SCORE.INTRA.POLAR>
0.0906548

>  <SCORE.INTRA.POLAR.0>
-1.57101

>  <SCORE.INTRA.REPUL>
-0.730195

>  <SCORE.INTRA.REPUL.0>
0.730195

>  <SCORE.INTRA.SOLV>
-2.15376

>  <SCORE.INTRA.SOLV.lig_0>
-127.221

>  <SCORE.INTRA.VDW>
-13.3127

>  <SCORE.INTRA.VDW.0>
10.8385

>  <SCORE.INTRA.norm>
-0.445169

>  <SCORE.RESTR>
7.70337

>  <SCORE.RESTR.CAVITY>
7.70337

>  <SCORE.RESTR.norm>
0.24073

>  <SCORE.SYSTEM>
0

>  <SCORE.SYSTEM.CONST>
0

>  <SCORE.SYSTEM.DIHEDRAL>
0

>  <SCORE.SYSTEM.SOLV>
0

>  <SCORE.SYSTEM.norm>
0

>  <SCORE.heavy>
32

>  <SCORE.norm>
0.535529

>  <RMSD>
8.521

$$$$
2tob cryst
 OpenBabel11021811463D
libRbt.so/2013.1/901 2013/11/27
 32 34  0  0  0  0  0  0  0  0999 V2000
  -14.3049   -3.9271   -5.5885 C   0  0  2  0  0  0  0  0  0  0  0  0
  -15.2008   -2.7177   -5.8371 C   0  0  1  0  0  0  0  0  0  0  0  0
  -15.8648   -2.3137   -4.5205 C   0  0  2  0  0  0  0  0  0  0  0  0
  -16.6148   -3.5000   -3.9001 C   0  0  1  0  0  0  0  0  0  0  0  0
  -15.6844   -4.7139   -3.8011 C   0  0  1  0  0  0  0  0  0  0  0  0
  -16.3663   -5.9894   -3.3338 C   0  0  0  0  0  0  0  0  0  0  0  0
  -14.4263   -1.6328   -6.3408 O   0  0  0  0  0  0  0  0  0  0  0  0
  -16.8055   -1.1491   -4.5489 N   0  3  0  0  0  0  0  0  0  0  0  0
  -17.0704   -3.1322   -2.6042 O   0  0  0  0  0  0  0  0  0  0  0  0
  -15.0964   -4.9882   -5.0884 O   0  0  0  0  0  0  0  0  0  0  0  0
  -17.1397   -5.7506   -2.1622 O   0  0  0  0  0  0  0  0  0  0  0  0
  -11.6281   -5.0831   -5.5025 C   0  0  2  0  0  0  0  0  0  0  0  0
  -10.3089   -5.2547   -6.2674 C   0  0  0  0  0  0  0  0  0  0  0  0
  -10.1872   -4.2784   -7.4342 C   0  0  1  0  0  0  0  0  0  0  0  0
  -10.3232   -2.8620   -6.8926 C   0  0  2  0  0  0  0  0  0  0  0  0
  -11.7214   -2.6757   -6.2980 C   0  0  1  0  0  0  0  0  0  0  0  0
  -11.9336   -3.6292   -5.1090 C   0  0  1  0  0  0  0  0  0  0  0  0
  -11.6366   -5.9348   -4.2656 N   0  3  0  0  0  0  0  0  0  0  0  0
   -8.8878   -4.4649   -8.1588 N   0  3  0  0  0  0  0  0  0  0  0  0
  -11.8800   -1.3254   -5.8811 O   0  0  0  0  0  0  0  0  0  0  0  0
  -10.1011   -1.8987   -7.9386 O   0  0  0  0  0  0  0  0  0  0  0  0
  -13.3073   -3.5659   -4.6720 O   0  0  0  0  0  0  0  0  0  0  0  0
   -9.5337   -0.7017   -7.4827 C   0  0  2  0  0  0  0  0  0  0  0  0
   -9.9286    0.4503   -8.4127 C   0  0  1  0  0  0  0  0  0  0  0  0
   -9.1568    0.3807   -9.7307 C   0  0  0  0  0  0  0  0  0  0  0  0
   -7.6693    0.2998   -9.4283 C   0  0  1  0  0  0  0  0  0  0  0  0
   -7.4005   -0.9218   -8.5670 C   0  0  1  0  0  0  0  0  0  0  0  0
   -5.9259   -1.0610   -8.2348 C   0  0  0  0  0  0  0  0  0  0  0  0
  -11.3978    0.3816   -8.6959 N   0  3  0  0  0  0  0  0  0  0  0  0
   -5.6008   -2.5282   -8.1661 N   0  3  0  0  0  0  0  0  0  0  0  0
   -6.9238    0.2167  -10.6347 O   0  0  0  0  0  0  0  0  0  0  0  0
   -8.1217   -0.7987   -7.3294 O   0  0  0  0  0  0  0  0  0  0  0  0
  1  2  1  0  0  0  0
  1 22  1  1  0  0  0
  1 10  1  0  0  0  0
  2  3  1  0  0  0  0
  2  7  1  1  0  0  0
  3  4  1  0  0  0  0
  3  8  1  6  0  0  0
  4  5  1  0  0  0  0
  4  9  1  1  0  0  0
  5  6  1  6  0  0  0
  5 10  1  0  0  0  0
  6 11  1  0  0  0  0
 12 13  1  0  0  0  0
 12 17  1  0  0  0  0
 12 18  1  1  0  0  0
 13 14  1  0  0  0  0
 14 15  1  0  0  0  0
 14 19  1  1  0  0  0
 15 16  1  0  0  0  0
 15 21  1  6  0  0  0
 16 17  1  0  0  0  0
 16 20  1  1  0  0  0
 17 22  1  6  0  0  0
 23 21  1  6  0  0  0
 23 24  1  0  0  0  0
 23 32  1  0  0  0  0
 24 25  1  0  0  0  0
 24 29  1  6  0  0  0
 25 26  1  0  0  0  0
 26 27  1  0  0  0  0
 26 31  1  6  0  0  0
 27 28  1  1  0  0  0
 27 32  1  0  0  0  0
 28 30  1  0  0  0  0
M  CHG  5   8   1  18   1  19   1  29   1  30   1
M  END
>  <CHROM.1>
-118.13068435,-56.84439962,22.98786883,-171.26309314,-49.22979291,179.27580418
179.89248151,-65.47388221,-148.81029687,-56.13306827,-60.49491534,-153.06768041
-49.70093052,179.11482836,-146.20498632,-72.47971904,-11.82925230,-2.65900004
-6.31986694,-2.62707393,0.36776402,-0.43586298

>  <Name>
2tob cryst

>  <RI>
2.10184e+07

>  <Rbt.Current_Directory>
/home/itssahil/PROJECTS/Mol_Feturizer/New_Systems/rnas/2tob

>  <Rbt.Executable>
rbdock ($Id: //depot/dev/client3/rdock/2013.1/src/exe/rbdock.cxx#4 $)

>  <Rbt.Library>
libRbt.so (2013.1, Build901 2013/11/27)

>  <Rbt.Parameter_File>
/export/apps/rDock/src/rDock_2013.1_src/data/scripts/dock_solv.prm

>  <Rbt.Receptor>
prm/pocket_docking_7.prm

>  <SCORE>
-58.7768

>  <SCORE.INTER>
-40.7242

>  <SCORE.INTER.CONST>
1

>  <SCORE.INTER.POLAR>
-7.59684

>  <SCORE.INTER.ROT>
6

>  <SCORE.INTER.SOLV>
34.7547

>  <SCORE.INTER.VDW>
-21.0116

>  <SCORE.INTER.norm>
-1.27263

>  <SCORE.INTRA>
-18.0538

>  <SCORE.INTRA.DIHEDRAL>
2.91729

>  <SCORE.INTRA.DIHEDRAL.0>
18.4221

>  <SCORE.INTRA.POLAR>
-0.00356709

>  <SCORE.INTRA.POLAR.0>
-1.57101

>  <SCORE.INTRA.REPUL>
-0.730195

>  <SCORE.INTRA.REPUL.0>
0.730195

>  <SCORE.INTRA.SOLV>
-4.84316

>  <SCORE.INTRA.SOLV.lig_0>
-127.221

>  <SCORE.INTRA.VDW>
-13.4277

>  <SCORE.INTRA.VDW.0>
10.8385

>  <SCORE.INTRA.norm>
-0.564181

>  <SCORE.RESTR>
0.00113865

>  <SCORE.RESTR.CAVITY>
0.00113865

>  <SCORE.RESTR.norm>
3.55827e-05

>  <SCORE.SYSTEM>
0

>  <SCORE.SYSTEM.CONST>
0

>  <SCORE.SYSTEM.DIHEDRAL>
0

>  <SCORE.SYSTEM.SOLV>
0

>  <SCORE.SYSTEM.norm>
0

>  <SCORE.heavy>
32

>  <SCORE.norm>
-1.83678

>  <RMSD>
8.523

$$$$
2tob cryst
 OpenBabel11021811463D
libRbt.so/2013.1/901 2013/11/27
 32 34  0  0  0  0  0  0  0  0999 V2000
   -8.2167   -1.5690   -6.9797 C   0  0  2  0  0  0  0  0  0  0  0  0
   -9.0597   -2.3173   -8.0075 C   0  0  1  0  0  0  0  0  0  0  0  0
  -10.5311   -1.9586   -7.7977 C   0  0  2  0  0  0  0  0  0  0  0  0
  -10.9604   -2.2367   -6.3510 C   0  0  1  0  0  0  0  0  0  0  0  0
   -9.9914   -1.5573   -5.3773 C   0  0  1  0  0  0  0  0  0  0  0  0
  -10.2389   -1.8875   -3.9145 C   0  0  0  0  0  0  0  0  0  0  0  0
   -8.6569   -1.9545   -9.3254 O   0  0  0  0  0  0  0  0  0  0  0  0
  -11.5362   -2.6051   -8.6998 N   0  3  0  0  0  0  0  0  0  0  0  0
  -12.2760   -1.7339   -6.1545 O   0  0  0  0  0  0  0  0  0  0  0  0
   -8.6368   -1.9453   -5.6818 O   0  0  0  0  0  0  0  0  0  0  0  0
  -11.4193   -1.2458   -3.4427 O   0  0  0  0  0  0  0  0  0  0  0  0
   -8.0630    1.8967   -8.3457 C   0  0  2  0  0  0  0  0  0  0  0  0
   -7.3148    2.6605   -9.4466 C   0  0  0  0  0  0  0  0  0  0  0  0
   -5.8546    2.2307   -9.5568 C   0  0  1  0  0  0  0  0  0  0  0  0
   -5.8125    0.7298   -9.8093 C   0  0  2  0  0  0  0  0  0  0  0  0
   -6.4054   -0.0065   -8.6053 C   0  0  1  0  0  0  0  0  0  0  0  0
   -7.8850    0.3718   -8.4165 C   0  0  1  0  0  0  0  0  0  0  0  0
   -9.5294    2.2184   -8.3822 N   0  3  0  0  0  0  0  0  0  0  0  0
   -5.1509    2.9883  -10.6426 N   0  3  0  0  0  0  0  0  0  0  0  0
   -6.2765   -1.4091   -8.8006 O   0  0  0  0  0  0  0  0  0  0  0  0
   -4.4594    0.2942  -10.0348 O   0  0  0  0  0  0  0  0  0  0  0  0
   -8.3790   -0.1914   -7.1834 O   0  0  0  0  0  0  0  0  0  0  0  0
   -4.3179   -0.5232  -11.1637 C   0  0  2  0  0  0  0  0  0  0  0  0
   -3.6227   -1.8325  -10.7761 C   0  0  1  0  0  0  0  0  0  0  0  0
   -2.1299   -1.6098  -10.5319 C   0  0  0  0  0  0  0  0  0  0  0  0
   -1.5295   -0.9153  -11.7435 C   0  0  1  0  0  0  0  0  0  0  0  0
   -2.2526    0.4002  -11.9742 C   0  0  1  0  0  0  0  0  0  0  0  0
   -1.6924    1.1461  -13.1717 C   0  0  0  0  0  0  0  0  0  0  0  0
   -4.2507   -2.3812   -9.5318 N   0  3  0  0  0  0  0  0  0  0  0  0
   -2.1833    2.5666  -13.1064 N   0  3  0  0  0  0  0  0  0  0  0  0
   -0.1436   -0.6783  -11.5406 O   0  0  0  0  0  0  0  0  0  0  0  0
   -3.6435    0.1398  -12.2279 O   0  0  0  0  0  0  0  0  0  0  0  0
  1  2  1  0  0  0  0
  1 22  1  1  0  0  0
  1 10  1  0  0  0  0
  2  3  1  0  0  0  0
  2  7  1  6  0  0  0
  3  4  1  0  0  0  0
  3  8  1  6  0  0  0
  4  5  1  0  0  0  0
  4  9  1  6  0  0  0
  5  6  1  1  0  0  0
  5 10  1  0  0  0  0
  6 11  1  0  0  0  0
 12 13  1  0  0  0  0
 12 17  1  0  0  0  0
 12 18  1  6  0  0  0
 13 14  1  0  0  0  0
 14 15  1  0  0  0  0
 14 19  1  6  0  0  0
 15 16  1  0  0  0  0
 15 21  1  1  0  0  0
 16 17  1  0  0  0  0
 16 20  1  6  0  0  0
 17 22  1  1  0  0  0
 23 21  1  1  0  0  0
 23 24  1  0  0  0  0
 23 32  1  0  0  0  0
 24 25  1  0  0  0  0
 24 29  1  1  0  0  0
 25 26  1  0  0  0  0
 26 27  1  0  0  0  0
 26 31  1  1  0  0  0
 27 28  1  6  0  0  0
 27 32  1  0  0  0  0
 28 30  1  0  0  0  0
M  CHG  5   8   1  18   1  19   1  29   1  30   1
M  END
>  <CHROM.1>
-65.66168115,176.54035929,141.97284378,-56.13609664,-72.17754812,-60.66583830
9.01312002,-70.11387084,-131.75034715,152.83153676,-174.92353553,-126.24585624
90.35791391,67.52287125,-164.70919651,-55.66588183,-6.66451991,-0.39944334
-8.95989714,-2.77221678,0.52516513,-0.33775598

>  <Name>
2tob cryst

>  <RI>
0

>  <Rbt.Current_Directory>
/home/itssahil/PROJECTS/Mol_Feturizer/New_Systems/rnas/2tob

>  <Rbt.Executable>
rbdock ($Id: //depot/dev/client3/rdock/2013.1/src/exe/rbdock.cxx#4 $)

>  <Rbt.Library>
libRbt.so (2013.1, Build901 2013/11/27)

>  <Rbt.Parameter_File>
/export/apps/rDock/src/rDock_2013.1_src/data/scripts/dock_solv.prm

>  <Rbt.Receptor>
prm/blind_docking_40.prm

>  <SCORE>
10.0478

>  <SCORE.INTER>
5.87515

>  <SCORE.INTER.CONST>
1

>  <SCORE.INTER.POLAR>
-5.68861

>  <SCORE.INTER.ROT>
6

>  <SCORE.INTER.SOLV>
36.6557

>  <SCORE.INTER.VDW>
3.06022

>  <SCORE.INTER.norm>
0.183598

>  <SCORE.INTRA>
-4.16923

>  <SCORE.INTRA.DIHEDRAL>
8.12901

>  <SCORE.INTRA.DIHEDRAL.0>
18.4221

>  <SCORE.INTRA.POLAR>
1.2314

>  <SCORE.INTRA.POLAR.0>
-1.57101

>  <SCORE.INTRA.REPUL>
-0.730195

>  <SCORE.INTRA.REPUL.0>
0.730195

>  <SCORE.INTRA.SOLV>
-1.70029

>  <SCORE.INTRA.SOLV.lig_0>
-127.221

>  <SCORE.INTRA.VDW>
-7.91938

>  <SCORE.INTRA.VDW.0>
10.8385

>  <SCORE.INTRA.norm>
-0.130288

>  <SCORE.RESTR>
8.34185

>  <SCORE.RESTR.CAVITY>
8.34185

>  <SCORE.RESTR.norm>
0.260683

>  <SCORE.SYSTEM>
0

>  <SCORE.SYSTEM.CONST>
0

>  <SCORE.SYSTEM.DIHEDRAL>
0

>  <SCORE.SYSTEM.SOLV>
0

>  <SCORE.SYSTEM.norm>
0

>  <SCORE.heavy>
32

>  <SCORE.norm>
0.313993

>  <RMSD>
8.524

$$$$
2tob cryst
 OpenBabel11021811463D
libRbt.so/2013.1/901 2013/11/27
 32 34  0  0  0  0  0  0  0  0999 V2000
  -10.0108   -1.0469   -6.5795 C   0  0  2  0  0  0  0  0  0  0  0  0
   -9.2123   -1.6642   -5.4357 C   0  0  1  0  0  0  0  0  0  0  0  0
   -9.4456   -3.1752   -5.4271 C   0  0  2  0  0  0  0  0  0  0  0  0
  -10.9444   -3.4963   -5.3558 C   0  0  1  0  0  0  0  0  0  0  0  0
  -11.6952   -2.7395   -6.4569 C   0  0  1  0  0  0  0  0  0  0  0  0
  -13.2078   -2.8713   -6.3880 C   0  0  0  0  0  0  0  0  0  0  0  0
   -7.8243   -1.3903   -5.6069 O   0  0  0  0  0  0  0  0  0  0  0  0
   -8.7607   -3.9749   -4.3626 N   0  3  0  0  0  0  0  0  0  0  0  0
  -11.1254   -4.8970   -5.5213 O   0  0  0  0  0  0  0  0  0  0  0  0
  -11.3831   -1.3338   -6.3869 O   0  0  0  0  0  0  0  0  0  0  0  0
  -13.8230   -2.2411   -7.5071 O   0  0  0  0  0  0  0  0  0  0  0  0
   -9.5813    0.7356   -8.4527 C   0  0  2  0  0  0  0  0  0  0  0  0
   -8.8972    1.8635   -9.2368 C   0  0  0  0  0  0  0  0  0  0  0  0
   -7.3752    1.7712   -9.1711 C   0  0  1  0  0  0  0  0  0  0  0  0
   -6.9527    0.4067   -9.6979 C   0  0  2  0  0  0  0  0  0  0  0  0
   -7.5067   -0.6874   -8.7818 C   0  0  1  0  0  0  0  0  0  0  0  0
   -9.0453   -0.6659   -8.7850 C   0  0  1  0  0  0  0  0  0  0  0  0
  -11.0653    0.7569   -8.6820 N   0  3  0  0  0  0  0  0  0  0  0  0
   -6.7346    2.8809   -9.9497 N   0  3  0  0  0  0  0  0  0  0  0  0
   -7.0307   -1.9539   -9.2193 O   0  0  0  0  0  0  0  0  0  0  0  0
   -5.5179    0.3137   -9.7635 O   0  0  0  0  0  0  0  0  0  0  0  0
   -9.5480   -1.5819   -7.7900 O   0  0  0  0  0  0  0  0  0  0  0  0
   -5.0346    0.0522  -11.0521 C   0  0  2  0  0  0  0  0  0  0  0  0
   -3.8052   -0.8590  -10.9734 C   0  0  1  0  0  0  0  0  0  0  0  0
   -2.5810   -0.0874  -10.4796 C   0  0  0  0  0  0  0  0  0  0  0  0
   -2.3928    1.1472  -11.3463 C   0  0  1  0  0  0  0  0  0  0  0  0
   -3.6469    2.0011  -11.2782 C   0  0  1  0  0  0  0  0  0  0  0  0
   -3.5178    3.2563  -12.1219 C   0  0  0  0  0  0  0  0  0  0  0  0
   -4.0849   -1.9941  -10.0370 N   0  3  0  0  0  0  0  0  0  0  0  0
   -3.4829    2.8434  -13.5680 N   0  3  0  0  0  0  0  0  0  0  0  0
   -1.2707    1.8964  -10.9016 O   0  0  0  0  0  0  0  0  0  0  0  0
   -4.7635    1.2462  -11.7785 O   0  0  0  0  0  0  0  0  0  0  0  0
  1  2  1  0  0  0  0
  1 22  1  6  0  0  0
  1 10  1  0  0  0  0
  2  3  1  0  0  0  0
  2  7  1  6  0  0  0
  3  4  1  0  0  0  0
  3  8  1  1  0  0  0
  4  5  1  0  0  0  0
  4  9  1  6  0  0  0
  5  6  1  1  0  0  0
  5 10  1  0  0  0  0
  6 11  1  0  0  0  0
 12 13  1  0  0  0  0
 12 17  1  0  0  0  0
 12 18  1  6  0  0  0
 13 14  1  0  0  0  0
 14 15  1  0  0  0  0
 14 19  1  6  0  0  0
 15 16  1  0  0  0  0
 15 21  1  1  0  0  0
 16 17  1  0  0  0  0
 16 20  1  6  0  0  0
 17 22  1  1  0  0  0
 23 21  1  1  0  0  0
 23 24  1  0  0  0  0
 23 32  1  0  0  0  0
 24 25  1  0  0  0  0
 24 29  1  1  0  0  0
 25 26  1  0  0  0  0
 26 27  1  0  0  0  0
 26 31  1  1  0  0  0
 27 28  1  6  0  0  0
 27 32  1  0  0  0  0
 28 30  1  0  0  0  0
M  CHG  5   8   1  18   1  19   1  29   1  30   1
M  END
>  <CHROM.1>
-121.84866358,55.38489699,-90.02890733,-179.10973407,-174.87108633,-171.36760963
152.80705503,49.15529012,-120.95159364,-165.47021181,-19.13696642,-144.29286126
106.56764311,-50.51485395,68.00180769,34.40857799,-7.54588291,-0.50006094
-8.68849455,2.44690937,-0.21254786,2.48273652

>  <Name>
2tob cryst

>  <RI>
0

>  <Rbt.Current_Directory>
/home/itssahil/PROJECTS/Mol_Feturizer/New_Systems/rnas/2tob

>  <Rbt.Executable>
rbdock ($Id: //depot/dev/client3/rdock/2013.1/src/exe/rbdock.cxx#4 $)

>  <Rbt.Library>
libRbt.so (2013.1, Build901 2013/11/27)

>  <Rbt.Parameter_File>
/export/apps/rDock/src/rDock_2013.1_src/data/scripts/dock_solv.prm

>  <Rbt.Receptor>
prm/blind_docking_40.prm

>  <SCORE>
16.9382

>  <SCORE.INTER>
15.169

>  <SCORE.INTER.CONST>
1

>  <SCORE.INTER.POLAR>
-5.61737

>  <SCORE.INTER.ROT>
6

>  <SCORE.INTER.SOLV>
39.6932

>  <SCORE.INTER.VDW>
8.0062

>  <SCORE.INTER.norm>
0.474032

>  <SCORE.INTRA>
-8.4208

>  <SCORE.INTRA.DIHEDRAL>
16.5599

>  <SCORE.INTRA.DIHEDRAL.0>
18.4221

>  <SCORE.INTRA.POLAR>
-0.0540247

>  <SCORE.INTRA.POLAR.0>
-1.57101

>  <SCORE.INTRA.REPUL>
-0.730195

>  <SCORE.INTRA.REPUL.0>
0.730195

>  <SCORE.INTRA.SOLV>
-3.00942

>  <SCORE.INTRA.SOLV.lig_0>
-127.221

>  <SCORE.INTRA.VDW>
-11.3614

>  <SCORE.INTRA.VDW.0>
10.8385

>  <SCORE.INTRA.norm>
-0.26315

>  <SCORE.RESTR>
10.19

>  <SCORE.RESTR.CAVITY>
10.19

>  <SCORE.RESTR.norm>
0.318438

>  <SCORE.SYSTEM>
0

>  <SCORE.SYSTEM.CONST>
0

>  <SCORE.SYSTEM.DIHEDRAL>
0

>  <SCORE.SYSTEM.SOLV>
0

>  <SCORE.SYSTEM.norm>
0

>  <SCORE.heavy>
32

>  <SCORE.norm>
0.52932

>  <RMSD>
8.525

$$$$
2tob cryst
 OpenBabel11021811463D
libRbt.so/2013.1/901 2013/11/27
 32 34  0  0  0  0  0  0  0  0999 V2000
  -14.1487   -4.3526   -5.8625 C   0  0  2  0  0  0  0  0  0  0  0  0
  -15.2800   -3.3309   -5.8066 C   0  0  1  0  0  0  0  0  0  0  0  0
  -15.9468   -3.4042   -4.4327 C   0  0  2  0  0  0  0  0  0  0  0  0
  -16.4124   -4.8340   -4.1269 C   0  0  1  0  0  0  0  0  0  0  0  0
  -15.2538   -5.8167   -4.3287 C   0  0  1  0  0  0  0  0  0  0  0  0
  -15.6423   -7.2798   -4.1931 C   0  0  0  0  0  0  0  0  0  0  0  0
  -14.7644   -2.0204   -6.0244 O   0  0  0  0  0  0  0  0  0  0  0  0
  -17.1022   -2.4875   -4.1747 N   0  3  0  0  0  0  0  0  0  0  0  0
  -16.8690   -4.8937   -2.7815 O   0  0  0  0  0  0  0  0  0  0  0  0
  -14.6860   -5.6431   -5.6424 O   0  0  0  0  0  0  0  0  0  0  0  0
  -14.5003   -8.1212   -4.3178 O   0  0  0  0  0  0  0  0  0  0  0  0
  -11.3825   -5.3610   -5.7339 C   0  0  2  0  0  0  0  0  0  0  0  0
  -10.0336   -5.3880   -6.4653 C   0  0  0  0  0  0  0  0  0  0  0  0
   -9.9601   -4.3467   -7.5787 C   0  0  1  0  0  0  0  0  0  0  0  0
  -10.2248   -2.9752   -6.9732 C   0  0  2  0  0  0  0  0  0  0  0  0
  -11.6489   -2.9312   -6.4136 C   0  0  1  0  0  0  0  0  0  0  0  0
  -11.8150   -3.9580   -5.2796 C   0  0  1  0  0  0  0  0  0  0  0  0
  -11.3552   -6.2728   -4.5409 N   0  3  0  0  0  0  0  0  0  0  0  0
   -8.6309   -4.3921   -8.2712 N   0  3  0  0  0  0  0  0  0  0  0  0
  -11.9273   -1.6209   -5.9365 O   0  0  0  0  0  0  0  0  0  0  0  0
  -10.0533   -1.9451   -7.9637 O   0  0  0  0  0  0  0  0  0  0  0  0
  -13.2005   -4.0265   -4.8826 O   0  0  0  0  0  0  0  0  0  0  0  0
   -9.5168   -0.7586   -7.4468 C   0  0  2  0  0  0  0  0  0  0  0  0
   -9.9099    0.4237   -8.3386 C   0  0  1  0  0  0  0  0  0  0  0  0
   -9.1075    0.4201   -9.6400 C   0  0  0  0  0  0  0  0  0  0  0  0
   -7.6260    0.3508   -9.3065 C   0  0  1  0  0  0  0  0  0  0  0  0
   -7.3561   -0.9004   -8.4890 C   0  0  1  0  0  0  0  0  0  0  0  0
   -5.8873   -1.0293   -8.1285 C   0  0  0  0  0  0  0  0  0  0  0  0
  -11.3710    0.3430   -8.6585 N   0  3  0  0  0  0  0  0  0  0  0  0
   -5.5249   -2.4888   -8.1674 N   0  3  0  0  0  0  0  0  0  0  0  0
   -6.8520    0.3287  -10.4976 O   0  0  0  0  0  0  0  0  0  0  0  0
   -8.1072   -0.8392   -7.2647 O   0  0  0  0  0  0  0  0  0  0  0  0
  1  2  1  0  0  0  0
  1 22  1  1  0  0  0
  1 10  1  0  0  0  0
  2  3  1  0  0  0  0
  2  7  1  1  0  0  0
  3  4  1  0  0  0  0
  3  8  1  6  0  0  0
  4  5  1  0  0  0  0
  4  9  1  1  0  0  0
  5  6  1  6  0  0  0
  5 10  1  0  0  0  0
  6 11  1  0  0  0  0
 12 13  1  0  0  0  0
 12 17  1  0  0  0  0
 12 18  1  1  0  0  0
 13 14  1  0  0  0  0
 14 15  1  0  0  0  0
 14 19  1  1  0  0  0
 15 16  1  0  0  0  0
 15 21  1  6  0  0  0
 16 17  1  0  0  0  0
 16 20  1  1  0  0  0
 17 22  1  6  0  0  0
 23 21  1  6  0  0  0
 23 24  1  0  0  0  0
 23 32  1  0  0  0  0
 24 25  1  0  0  0  0
 24 29  1  6  0  0  0
 25 26  1  0  0  0  0
 26 27  1  0  0  0  0
 26 31  1  6  0  0  0
 27 28  1  1  0  0  0
 27 32  1  0  0  0  0
 28 30  1  0  0  0  0
M  CHG  5   8   1  18   1  19   1  29   1  30   1
M  END
>  <CHROM.1>
-130.22177360,-44.31296849,58.43709346,-60.58577686,-176.66865678,66.27069366
-57.25453390,169.63411949,-144.97897609,60.48009339,-63.66191314,-155.79238814
-44.98155340,85.62827511,-143.88485138,48.02282417,-11.63077326,-3.11507835
-6.47843809,2.54093888,-0.33101778,2.79412728

>  <Name>
2tob cryst

>  <RI>
2.10184e+07

>  <Rbt.Current_Directory>
/home/itssahil/PROJECTS/Mol_Feturizer/New_Systems/rnas/2tob

>  <Rbt.Executable>
rbdock ($Id: //depot/dev/client3/rdock/2013.1/src/exe/rbdock.cxx#4 $)

>  <Rbt.Library>
libRbt.so (2013.1, Build901 2013/11/27)

>  <Rbt.Parameter_File>
/export/apps/rDock/src/rDock_2013.1_src/data/scripts/dock_solv.prm

>  <Rbt.Receptor>
prm/pocket_docking_7.prm

>  <SCORE>
-51.8542

>  <SCORE.INTER>
-36.2023

>  <SCORE.INTER.CONST>
1

>  <SCORE.INTER.POLAR>
-7.1171

>  <SCORE.INTER.ROT>
6

>  <SCORE.INTER.SOLV>
31.9615

>  <SCORE.INTER.VDW>
-18.665

>  <SCORE.INTER.norm>
-1.13132

>  <SCORE.INTRA>
-15.6519

>  <SCORE.INTRA.DIHEDRAL>
4.36554

>  <SCORE.INTRA.DIHEDRAL.0>
18.4221

>  <SCORE.INTRA.POLAR>
0.894116

>  <SCORE.INTRA.POLAR.0>
-1.57101

>  <SCORE.INTRA.REPUL>
-0.730195

>  <SCORE.INTRA.REPUL.0>
0.730195

>  <SCORE.INTRA.SOLV>
-3.17102

>  <SCORE.INTRA.SOLV.lig_0>
-127.221

>  <SCORE.INTRA.VDW>
-15.6382

>  <SCORE.INTRA.VDW.0>
10.8385

>  <SCORE.INTRA.norm>
-0.489121

>  <SCORE.RESTR>
0

>  <SCORE.RESTR.CAVITY>
0

>  <SCORE.RESTR.norm>
0

>  <SCORE.SYSTEM>
0

>  <SCORE.SYSTEM.CONST>
0

>  <SCORE.SYSTEM.DIHEDRAL>
0

>  <SCORE.SYSTEM.SOLV>
0

>  <SCORE.SYSTEM.norm>
0

>  <SCORE.heavy>
32

>  <SCORE.norm>
-1.62044

>  <RMSD>
8.534

$$$$
2tob cryst
 OpenBabel11021811463D
libRbt.so/2013.1/901 2013/11/27
 32 34  0  0  0  0  0  0  0  0999 V2000
   -9.0722   -0.6518   -5.9610 C   0  0  2  0  0  0  0  0  0  0  0  0
   -8.5875   -2.0982   -5.9686 C   0  0  1  0  0  0  0  0  0  0  0  0
   -8.0531   -2.4347   -7.3611 C   0  0  2  0  0  0  0  0  0  0  0  0
   -9.1106   -2.1494   -8.4358 C   0  0  1  0  0  0  0  0  0  0  0  0
   -9.6408   -0.7196   -8.2825 C   0  0  1  0  0  0  0  0  0  0  0  0
  -10.7986   -0.3783   -9.2062 C   0  0  0  0  0  0  0  0  0  0  0  0
   -7.5566   -2.2719   -5.0002 O   0  0  0  0  0  0  0  0  0  0  0  0
   -7.5404   -3.8229   -7.5885 N   0  3  0  0  0  0  0  0  0  0  0  0
   -8.5206   -2.3118   -9.7194 O   0  0  0  0  0  0  0  0  0  0  0  0
  -10.0928   -0.5059   -6.9304 O   0  0  0  0  0  0  0  0  0  0  0  0
  -10.6792    0.9527   -9.6981 O   0  0  0  0  0  0  0  0  0  0  0  0
   -8.1979    2.0864   -7.7117 C   0  0  2  0  0  0  0  0  0  0  0  0
   -7.7681    2.7581   -9.0229 C   0  0  0  0  0  0  0  0  0  0  0  0
   -6.2947    2.5164   -9.3391 C   0  0  1  0  0  0  0  0  0  0  0  0
   -6.0541    1.0139   -9.3916 C   0  0  2  0  0  0  0  0  0  0  0  0
   -6.3205    0.4064   -8.0121 C   0  0  1  0  0  0  0  0  0  0  0  0
   -7.7918    0.6077   -7.6088 C   0  0  1  0  0  0  0  0  0  0  0  0
   -9.6835    2.1981   -7.5227 N   0  3  0  0  0  0  0  0  0  0  0  0
   -5.9049    3.1785  -10.6267 N   0  3  0  0  0  0  0  0  0  0  0  0
   -6.0018   -0.9791   -8.0379 O   0  0  0  0  0  0  0  0  0  0  0  0
   -4.7027    0.7337   -9.8000 O   0  0  0  0  0  0  0  0  0  0  0  0
   -7.9849    0.1874   -6.2421 O   0  0  0  0  0  0  0  0  0  0  0  0
   -4.5941    0.3524  -11.1436 C   0  0  2  0  0  0  0  0  0  0  0  0
   -3.4858   -0.6940  -11.3011 C   0  0  1  0  0  0  0  0  0  0  0  0
   -2.1035   -0.0504  -11.1887 C   0  0  0  0  0  0  0  0  0  0  0  0
   -2.0170    1.1081  -12.1692 C   0  0  1  0  0  0  0  0  0  0  0  0
   -3.1174    2.1079  -11.8593 C   0  0  1  0  0  0  0  0  0  0  0  0
   -3.0797    3.2950  -12.8046 C   0  0  0  0  0  0  0  0  0  0  0  0
   -3.6322   -1.7394  -10.2385 N   0  3  0  0  0  0  0  0  0  0  0  0
   -3.1096    2.7690  -14.2136 N   0  3  0  0  0  0  0  0  0  0  0  0
   -0.7477    1.7393  -12.0772 O   0  0  0  0  0  0  0  0  0  0  0  0
   -4.3962    1.4676  -12.0060 O   0  0  0  0  0  0  0  0  0  0  0  0
  1  2  1  0  0  0  0
  1 22  1  6  0  0  0
  1 10  1  0  0  0  0
  2  3  1  0  0  0  0
  2  7  1  1  0  0  0
  3  4  1  0  0  0  0
  3  8  1  1  0  0  0
  4  5  1  0  0  0  0
  4  9  1  6  0  0  0
  5  6  1  6  0  0  0
  5 10  1  0  0  0  0
  6 11  1  0  0  0  0
 12 13  1  0  0  0  0
 12 17  1  0  0  0  0
 12 18  1  6  0  0  0
 13 14  1  0  0  0  0
 14 15  1  0  0  0  0
 14 19  1  6  0  0  0
 15 16  1  0  0  0  0
 15 21  1  1  0  0  0
 16 17  1  0  0  0  0
 16 20  1  6  0  0  0
 17 22  1  1  0  0  0
 23 21  1  1  0  0  0
 23 24  1  0  0  0  0
 23 32  1  0  0  0  0
 24 25  1  0  0  0  0
 24 29  1  1  0  0  0
 25 26  1  0  0  0  0
 26 27  1  0  0  0  0
 26 31  1  1  0  0  0
 27 28  1  6  0  0  0
 27 32  1  0  0  0  0
 28 30  1  0  0  0  0
M  CHG  5   8   1  18   1  19   1  29   1  30   1
M  END
>  <CHROM.1>
95.41870575,81.50358599,-85.93239747,-168.72016980,-141.00327039,-160.36593349
57.90751989,15.41769582,-101.72278082,169.07093925,106.59986201,-144.90154192
103.24866580,-48.47595480,53.84022074,59.98926925,-6.45594572,0.25808984
-9.27900938,-2.54555285,0.45193394,-0.51324139

>  <Name>
2tob cryst

>  <RI>
0

>  <Rbt.Current_Directory>
/home/itssahil/PROJECTS/Mol_Feturizer/New_Systems/rnas/2tob

>  <Rbt.Executable>
rbdock ($Id: //depot/dev/client3/rdock/2013.1/src/exe/rbdock.cxx#4 $)

>  <Rbt.Library>
libRbt.so (2013.1, Build901 2013/11/27)

>  <Rbt.Parameter_File>
/export/apps/rDock/src/rDock_2013.1_src/data/scripts/dock_solv.prm

>  <Rbt.Receptor>
prm/blind_docking_60.prm

>  <SCORE>
5.15245

>  <SCORE.INTER>
-7.48721

>  <SCORE.INTER.CONST>
1

>  <SCORE.INTER.POLAR>
-4.31725

>  <SCORE.INTER.ROT>
6

>  <SCORE.INTER.SOLV>
52.1401

>  <SCORE.INTER.VDW>
-15.5807

>  <SCORE.INTER.norm>
-0.233975

>  <SCORE.INTRA>
5.36633

>  <SCORE.INTRA.DIHEDRAL>
19.8198

>  <SCORE.INTRA.DIHEDRAL.0>
18.4221

>  <SCORE.INTRA.POLAR>
-1.17757

>  <SCORE.INTRA.POLAR.0>
-1.57101

>  <SCORE.INTRA.REPUL>
-0.730195

>  <SCORE.INTRA.REPUL.0>
0.730195

>  <SCORE.INTRA.SOLV>
5.31918

>  <SCORE.INTRA.SOLV.lig_0>
-127.221

>  <SCORE.INTRA.VDW>
0.451559

>  <SCORE.INTRA.VDW.0>
10.8385

>  <SCORE.INTRA.norm>
0.167698

>  <SCORE.RESTR>
7.27333

>  <SCORE.RESTR.CAVITY>
7.27333

>  <SCORE.RESTR.norm>
0.227292

>  <SCORE.SYSTEM>
0

>  <SCORE.SYSTEM.CONST>
0

>  <SCORE.SYSTEM.DIHEDRAL>
0

>  <SCORE.SYSTEM.SOLV>
0

>  <SCORE.SYSTEM.norm>
0

>  <SCORE.heavy>
32

>  <SCORE.norm>
0.161014

>  <RMSD>
8.535

$$$$
2tob cryst
 OpenBabel11021811463D
libRbt.so/2013.1/901 2013/11/27
 32 34  0  0  0  0  0  0  0  0999 V2000
  -13.8948   -4.1934   -5.5286 C   0  0  2  0  0  0  0  0  0  0  0  0
  -15.2281   -3.9354   -4.8339 C   0  0  1  0  0  0  0  0  0  0  0  0
  -15.4244   -4.9791   -3.7341 C   0  0  2  0  0  0  0  0  0  0  0  0
  -15.3074   -6.3999   -4.3019 C   0  0  1  0  0  0  0  0  0  0  0  0
  -14.0025   -6.5420   -5.0931 C   0  0  1  0  0  0  0  0  0  0  0  0
  -13.8529   -7.8675   -5.8217 C   0  0  0  0  0  0  0  0  0  0  0  0
  -15.2373   -2.6280   -4.2669 O   0  0  0  0  0  0  0  0  0  0  0  0
  -16.6896   -4.9139   -2.9362 N   0  3  0  0  0  0  0  0  0  0  0  0
  -15.3254   -7.3304   -3.2267 O   0  0  0  0  0  0  0  0  0  0  0  0
  -13.9110   -5.4961   -6.0810 O   0  0  0  0  0  0  0  0  0  0  0  0
  -14.0699   -8.9605   -4.9352 O   0  0  0  0  0  0  0  0  0  0  0  0
  -11.0165   -5.2827   -5.5322 C   0  0  2  0  0  0  0  0  0  0  0  0
   -9.7206   -5.2344   -6.3529 C   0  0  0  0  0  0  0  0  0  0  0  0
   -9.7954   -4.2196   -7.4903 C   0  0  1  0  0  0  0  0  0  0  0  0
  -10.1165   -2.8547   -6.8971 C   0  0  2  0  0  0  0  0  0  0  0  0
  -11.4999   -2.8957   -6.2431 C   0  0  1  0  0  0  0  0  0  0  0  0
  -11.5168   -3.9020   -5.0791 C   0  0  1  0  0  0  0  0  0  0  0  0
  -10.8452   -6.1593   -4.3249 N   0  3  0  0  0  0  0  0  0  0  0  0
   -8.5153   -4.1900   -8.2704 N   0  3  0  0  0  0  0  0  0  0  0  0
  -11.8388   -1.5961   -5.7758 O   0  0  0  0  0  0  0  0  0  0  0  0
  -10.0850   -1.8410   -7.9184 O   0  0  0  0  0  0  0  0  0  0  0  0
  -12.8645   -4.0567   -4.5875 O   0  0  0  0  0  0  0  0  0  0  0  0
   -9.5144   -0.6355   -7.4897 C   0  0  2  0  0  0  0  0  0  0  0  0
   -9.9055    0.4961   -8.4460 C   0  0  1  0  0  0  0  0  0  0  0  0
   -9.1335    0.3941   -9.7617 C   0  0  0  0  0  0  0  0  0  0  0  0
   -7.6463    0.3159   -9.4569 C   0  0  1  0  0  0  0  0  0  0  0  0
   -7.3813   -0.8865   -8.5677 C   0  0  1  0  0  0  0  0  0  0  0  0
   -5.9072   -1.0223   -8.2318 C   0  0  0  0  0  0  0  0  0  0  0  0
  -11.3748    0.4251   -8.7282 N   0  3  0  0  0  0  0  0  0  0  0  0
   -5.5732   -2.4884   -8.1874 N   0  3  0  0  0  0  0  0  0  0  0  0
   -6.9005    0.2030  -10.6607 O   0  0  0  0  0  0  0  0  0  0  0  0
   -8.1027   -0.7330   -7.3336 O   0  0  0  0  0  0  0  0  0  0  0  0
  1  2  1  0  0  0  0
  1 22  1  1  0  0  0
  1 10  1  0  0  0  0
  2  3  1  0  0  0  0
  2  7  1  1  0  0  0
  3  4  1  0  0  0  0
  3  8  1  6  0  0  0
  4  5  1  0  0  0  0
  4  9  1  1  0  0  0
  5  6  1  6  0  0  0
  5 10  1  0  0  0  0
  6 11  1  0  0  0  0
 12 13  1  0  0  0  0
 12 17  1  0  0  0  0
 12 18  1  1  0  0  0
 13 14  1  0  0  0  0
 14 15  1  0  0  0  0
 14 19  1  1  0  0  0
 15 16  1  0  0  0  0
 15 21  1  6  0  0  0
 16 17  1  0  0  0  0
 16 20  1  1  0  0  0
 17 22  1  6  0  0  0
 23 21  1  6  0  0  0
 23 24  1  0  0  0  0
 23 32  1  0  0  0  0
 24 25  1  0  0  0  0
 24 29  1  6  0  0  0
 25 26  1  0  0  0  0
 26 27  1  0  0  0  0
 26 31  1  6  0  0  0
 27 28  1  1  0  0  0
 27 32  1  0  0  0  0
 28 30  1  0  0  0  0
M  CHG  5   8   1  18   1  19   1  29   1  30   1
M  END
>  <CHROM.1>
-163.71865747,175.56915496,-50.79738626,-170.54481101,-51.78823211,-177.62189753
63.61718251,-97.11447534,-140.74634077,179.08366081,-76.89716733,-162.32025005
-48.77372542,177.97681843,-143.82086505,167.91556053,-11.33150994,-3.44517572
-6.42297626,2.43391782,-0.39563622,2.86654841

>  <Name>
2tob cryst

>  <RI>
0

>  <Rbt.Current_Directory>
/home/itssahil/PROJECTS/Mol_Feturizer/New_Systems/rnas/2tob

>  <Rbt.Executable>
rbdock ($Id: //depot/dev/client3/rdock/2013.1/src/exe/rbdock.cxx#4 $)

>  <Rbt.Library>
libRbt.so (2013.1, Build901 2013/11/27)

>  <Rbt.Parameter_File>
/export/apps/rDock/src/rDock_2013.1_src/data/scripts/dock_solv.prm

>  <Rbt.Receptor>
prm/pocket_docking_6.prm

>  <SCORE>
-56.6858

>  <SCORE.INTER>
-39.0035

>  <SCORE.INTER.CONST>
1

>  <SCORE.INTER.POLAR>
-7.24668

>  <SCORE.INTER.ROT>
6

>  <SCORE.INTER.SOLV>
31.4835

>  <SCORE.INTER.VDW>
-19.9413

>  <SCORE.INTER.norm>
-1.21886

>  <SCORE.INTRA>
-17.6823

>  <SCORE.INTRA.DIHEDRAL>
-1.3253

>  <SCORE.INTRA.DIHEDRAL.0>
18.4221

>  <SCORE.INTRA.POLAR>
0.741766

>  <SCORE.INTRA.POLAR.0>
-1.57101

>  <SCORE.INTRA.REPUL>
-0.730195

>  <SCORE.INTRA.REPUL.0>
0.730195

>  <SCORE.INTRA.SOLV>
-2.33136

>  <SCORE.INTRA.SOLV.lig_0>
-127.221

>  <SCORE.INTRA.VDW>
-14.725

>  <SCORE.INTRA.VDW.0>
10.8385

>  <SCORE.INTRA.norm>
-0.552571

>  <SCORE.RESTR>
0

>  <SCORE.RESTR.CAVITY>
0

>  <SCORE.RESTR.norm>
0

>  <SCORE.SYSTEM>
0

>  <SCORE.SYSTEM.CONST>
0

>  <SCORE.SYSTEM.DIHEDRAL>
0

>  <SCORE.SYSTEM.SOLV>
0

>  <SCORE.SYSTEM.norm>
0

>  <SCORE.heavy>
32

>  <SCORE.norm>
-1.77143

>  <RMSD>
8.549

$$$$
2tob cryst
 OpenBabel11021811463D
libRbt.so/2013.1/901 2013/11/27
 32 34  0  0  0  0  0  0  0  0999 V2000
  -14.4533   -4.2039   -6.3501 C   0  0  2  0  0  0  0  0  0  0  0  0
  -15.8481   -3.7731   -5.9074 C   0  0  1  0  0  0  0  0  0  0  0  0
  -16.3217   -4.7011   -4.7883 C   0  0  2  0  0  0  0  0  0  0  0  0
  -16.2582   -6.1687   -5.2319 C   0  0  1  0  0  0  0  0  0  0  0  0
  -14.8643   -6.4898   -5.7821 C   0  0  1  0  0  0  0  0  0  0  0  0
  -14.7334   -7.8790   -6.3847 C   0  0  0  0  0  0  0  0  0  0  0  0
  -15.8170   -2.4276   -5.4390 O   0  0  0  0  0  0  0  0  0  0  0  0
  -17.6855   -4.4592   -4.2197 N   0  3  0  0  0  0  0  0  0  0  0  0
  -16.5415   -7.0018   -4.1148 O   0  0  0  0  0  0  0  0  0  0  0  0
  -14.5112   -5.5413   -6.8087 O   0  0  0  0  0  0  0  0  0  0  0  0
  -13.3959   -8.1242   -6.8073 O   0  0  0  0  0  0  0  0  0  0  0  0
  -11.6910   -5.3916   -5.9885 C   0  0  2  0  0  0  0  0  0  0  0  0
  -10.2845   -5.3987   -6.6023 C   0  0  0  0  0  0  0  0  0  0  0  0
  -10.1188   -4.3285   -7.6777 C   0  0  1  0  0  0  0  0  0  0  0  0
  -10.4381   -2.9734   -7.0614 C   0  0  2  0  0  0  0  0  0  0  0  0
  -11.9050   -2.9448   -6.6247 C   0  0  1  0  0  0  0  0  0  0  0  0
  -12.1646   -4.0012   -5.5363 C   0  0  1  0  0  0  0  0  0  0  0  0
  -11.7633   -6.3343   -4.8217 N   0  3  0  0  0  0  0  0  0  0  0  0
   -8.7352   -4.3550   -8.2549 N   0  3  0  0  0  0  0  0  0  0  0  0
  -12.2268   -1.6477   -6.1391 O   0  0  0  0  0  0  0  0  0  0  0  0
  -10.1854   -1.9176   -8.0063 O   0  0  0  0  0  0  0  0  0  0  0  0
  -13.5788   -4.0807   -5.2612 O   0  0  0  0  0  0  0  0  0  0  0  0
   -9.6975   -0.7452   -7.4147 C   0  0  2  0  0  0  0  0  0  0  0  0
  -10.0902    0.4694   -8.2624 C   0  0  1  0  0  0  0  0  0  0  0  0
   -9.2439    0.5484   -9.5333 C   0  0  0  0  0  0  0  0  0  0  0  0
   -7.7734    0.4985   -9.1513 C   0  0  1  0  0  0  0  0  0  0  0  0
   -7.4995   -0.7841   -8.3855 C   0  0  1  0  0  0  0  0  0  0  0  0
   -6.0410   -0.8951   -7.9798 C   0  0  0  0  0  0  0  0  0  0  0  0
  -11.5369    0.3693   -8.6373 N   0  3  0  0  0  0  0  0  0  0  0  0
   -5.6467   -2.3449   -8.0531 N   0  3  0  0  0  0  0  0  0  0  0  0
   -6.9589    0.5530  -10.3139 O   0  0  0  0  0  0  0  0  0  0  0  0
   -8.2933   -0.8006   -7.1869 O   0  0  0  0  0  0  0  0  0  0  0  0
  1  2  1  0  0  0  0
  1 22  1  1  0  0  0
  1 10  1  0  0  0  0
  2  3  1  0  0  0  0
  2  7  1  1  0  0  0
  3  4  1  0  0  0  0
  3  8  1  6  0  0  0
  4  5  1  0  0  0  0
  4  9  1  1  0  0  0
  5  6  1  6  0  0  0
  5 10  1  0  0  0  0
  6 11  1  0  0  0  0
 12 13  1  0  0  0  0
 12 17  1  0  0  0  0
 12 18  1  1  0  0  0
 13 14  1  0  0  0  0
 14 15  1  0  0  0  0
 14 19  1  1  0  0  0
 15 16  1  0  0  0  0
 15 21  1  6  0  0  0
 16 17  1  0  0  0  0
 16 20  1  1  0  0  0
 17 22  1  6  0  0  0
 23 21  1  6  0  0  0
 23 24  1  0  0  0  0
 23 32  1  0  0  0  0
 24 25  1  0  0  0  0
 24 29  1  6  0  0  0
 25 26  1  0  0  0  0
 26 27  1  0  0  0  0
 26 31  1  6  0  0  0
 27 28  1  1  0  0  0
 27 32  1  0  0  0  0
 28 30  1  0  0  0  0
M  CHG  5   8   1  18   1  19   1  29   1  30   1
M  END
>  <CHROM.1>
-159.88004061,177.87164167,-163.41808030,71.15158465,-176.93011976,-60.10234121
59.61082306,172.60745612,-144.94243824,60.63429369,-71.98245507,-152.36467437
77.16151066,-80.19356334,-144.82747041,165.73900148,-11.76947466,-3.36665697
-6.83010788,2.52285960,-0.28823783,2.94302267

>  <Name>
2tob cryst

>  <RI>
0

>  <Rbt.Current_Directory>
/home/itssahil/PROJECTS/Mol_Feturizer/New_Systems/rnas/2tob

>  <Rbt.Executable>
rbdock ($Id: //depot/dev/client3/rdock/2013.1/src/exe/rbdock.cxx#4 $)

>  <Rbt.Library>
libRbt.so (2013.1, Build901 2013/11/27)

>  <Rbt.Parameter_File>
/export/apps/rDock/src/rDock_2013.1_src/data/scripts/dock_solv.prm

>  <Rbt.Receptor>
prm/pocket_docking_6.prm

>  <SCORE>
-43.8087

>  <SCORE.INTER>
-29.2144

>  <SCORE.INTER.CONST>
1

>  <SCORE.INTER.POLAR>
-6.51064

>  <SCORE.INTER.ROT>
6

>  <SCORE.INTER.SOLV>
30.5118

>  <SCORE.INTER.VDW>
-15.5448

>  <SCORE.INTER.norm>
-0.912951

>  <SCORE.INTRA>
-14.5943

>  <SCORE.INTRA.DIHEDRAL>
-0.319892

>  <SCORE.INTRA.DIHEDRAL.0>
18.4221

>  <SCORE.INTRA.POLAR>
1.44648

>  <SCORE.INTRA.POLAR.0>
-1.57101

>  <SCORE.INTRA.REPUL>
-0.729313

>  <SCORE.INTRA.REPUL.0>
0.730195

>  <SCORE.INTRA.SOLV>
-0.991353

>  <SCORE.INTRA.SOLV.lig_0>
-127.221

>  <SCORE.INTRA.VDW>
-15.2102

>  <SCORE.INTRA.VDW.0>
10.8385

>  <SCORE.INTRA.norm>
-0.456073

>  <SCORE.RESTR>
0

>  <SCORE.RESTR.CAVITY>
0

>  <SCORE.RESTR.norm>
0

>  <SCORE.SYSTEM>
0

>  <SCORE.SYSTEM.CONST>
0

>  <SCORE.SYSTEM.DIHEDRAL>
0

>  <SCORE.SYSTEM.SOLV>
0

>  <SCORE.SYSTEM.norm>
0

>  <SCORE.heavy>
32

>  <SCORE.norm>
-1.36902

>  <RMSD>
8.555

$$$$
2tob cryst
 OpenBabel11021811463D
libRbt.so/2013.1/901 2013/11/27
 32 34  0  0  0  0  0  0  0  0999 V2000
  -11.0077   -6.6049   -5.3677 C   0  0  2  0  0  0  0  0  0  0  0  0
  -11.1905   -8.0935   -5.6465 C   0  0  1  0  0  0  0  0  0  0  0  0
  -12.5930   -8.5121   -5.2044 C   0  0  2  0  0  0  0  0  0  0  0  0
  -12.8363   -8.1413   -3.7354 C   0  0  1  0  0  0  0  0  0  0  0  0
  -12.5089   -6.6615   -3.5075 C   0  0  1  0  0  0  0  0  0  0  0  0
  -12.5762   -6.2215   -2.0542 C   0  0  0  0  0  0  0  0  0  0  0  0
  -11.0248   -8.3527   -7.0379 O   0  0  0  0  0  0  0  0  0  0  0  0
  -12.9722   -9.9503   -5.3764 N   0  3  0  0  0  0  0  0  0  0  0  0
  -14.1993   -8.3903   -3.4154 O   0  0  0  0  0  0  0  0  0  0  0  0
  -11.1783   -6.3743   -3.9819 O   0  0  0  0  0  0  0  0  0  0  0  0
  -13.9197   -6.2343   -1.5825 O   0  0  0  0  0  0  0  0  0  0  0  0
  -12.1471   -3.7796   -4.9676 C   0  0  2  0  0  0  0  0  0  0  0  0
  -11.7064   -2.3124   -4.8778 C   0  0  0  0  0  0  0  0  0  0  0  0
  -10.2318   -2.1304   -5.2268 C   0  0  1  0  0  0  0  0  0  0  0  0
   -9.9960   -2.6861   -6.6245 C   0  0  2  0  0  0  0  0  0  0  0  0
  -10.2735   -4.1915   -6.6281 C   0  0  1  0  0  0  0  0  0  0  0  0
  -11.7468   -4.4694   -6.2813 C   0  0  1  0  0  0  0  0  0  0  0  0
  -13.6335   -3.8970   -4.7888 N   0  3  0  0  0  0  0  0  0  0  0  0
   -9.8313   -0.6883   -5.1363 N   0  3  0  0  0  0  0  0  0  0  0  0
   -9.9594   -4.7254   -7.9081 O   0  0  0  0  0  0  0  0  0  0  0  0
   -8.6429   -2.4343   -7.0455 O   0  0  0  0  0  0  0  0  0  0  0  0
  -11.9503   -5.8885   -6.1186 O   0  0  0  0  0  0  0  0  0  0  0  0
   -8.5462   -1.9751   -8.3655 C   0  0  2  0  0  0  0  0  0  0  0  0
   -7.0769   -1.7357   -8.7284 C   0  0  1  0  0  0  0  0  0  0  0  0
   -6.5467   -0.4662   -8.0613 C   0  0  0  0  0  0  0  0  0  0  0  0
   -7.4728    0.6916   -8.3968 C   0  0  1  0  0  0  0  0  0  0  0  0
   -8.8765    0.3630   -7.9191 C   0  0  1  0  0  0  0  0  0  0  0  0
   -9.8500    1.4877   -8.2215 C   0  0  0  0  0  0  0  0  0  0  0  0
   -6.2561   -2.9073   -8.2841 N   0  3  0  0  0  0  0  0  0  0  0  0
  -10.0180    1.5690   -9.7142 N   0  3  0  0  0  0  0  0  0  0  0  0
   -7.0160    1.8852   -7.7765 O   0  0  0  0  0  0  0  0  0  0  0  0
   -9.3435   -0.8179   -8.5932 O   0  0  0  0  0  0  0  0  0  0  0  0
  1  2  1  0  0  0  0
  1 22  1  6  0  0  0
  1 10  1  0  0  0  0
  2  3  1  0  0  0  0
  2  7  1  6  0  0  0
  3  4  1  0  0  0  0
  3  8  1  1  0  0  0
  4  5  1  0  0  0  0
  4  9  1  6  0  0  0
  5  6  1  1  0  0  0
  5 10  1  0  0  0  0
  6 11  1  0  0  0  0
 12 13  1  0  0  0  0
 12 17  1  0  0  0  0
 12 18  1  6  0  0  0
 13 14  1  0  0  0  0
 14 15  1  0  0  0  0
 14 19  1  6  0  0  0
 15 16  1  0  0  0  0
 15 21  1  1  0  0  0
 16 17  1  0  0  0  0
 16 20  1  6  0  0  0
 17 22  1  1  0  0  0
 23 21  1  1  0  0  0
 23 24  1  0  0  0  0
 23 32  1  0  0  0  0
 24 25  1  0  0  0  0
 24 29  1  1  0  0  0
 25 26  1  0  0  0  0
 26 27  1  0  0  0  0
 26 31  1  1  0  0  0
 27 28  1  6  0  0  0
 27 32  1  0  0  0  0
 28 30  1  0  0  0  0
M  CHG  5   8   1  18   1  19   1  29   1  30   1
M  END
>  <CHROM.1>
-164.37423951,64.83820268,58.71540142,-57.17362641,-68.81781630,178.68556019
-61.92341406,176.55437960,-135.86197178,-58.75332023,-76.39500749,-179.93390905
73.59733326,171.09958196,67.72010777,-133.98854481,-10.55772787,-3.84251730
-6.14741486,-2.30661417,0.80416788,0.09374917

>  <Name>
2tob cryst

>  <RI>
0

>  <Rbt.Current_Directory>
/home/itssahil/PROJECTS/Mol_Feturizer/New_Systems/rnas/2tob

>  <Rbt.Executable>
rbdock ($Id: //depot/dev/client3/rdock/2013.1/src/exe/rbdock.cxx#4 $)

>  <Rbt.Library>
libRbt.so (2013.1, Build901 2013/11/27)

>  <Rbt.Parameter_File>
/export/apps/rDock/src/rDock_2013.1_src/data/scripts/dock_solv.prm

>  <Rbt.Receptor>
prm/pocket_docking_6.prm

>  <SCORE>
-48.7271

>  <SCORE.INTER>
-30.9169

>  <SCORE.INTER.CONST>
1

>  <SCORE.INTER.POLAR>
-4.9332

>  <SCORE.INTER.ROT>
6

>  <SCORE.INTER.SOLV>
29.0634

>  <SCORE.INTER.VDW>
-21.455

>  <SCORE.INTER.norm>
-0.966152

>  <SCORE.INTRA>
-17.8102

>  <SCORE.INTRA.DIHEDRAL>
-5.1247

>  <SCORE.INTRA.DIHEDRAL.0>
18.4221

>  <SCORE.INTRA.POLAR>
1.47314

>  <SCORE.INTRA.POLAR.0>
-1.57101

>  <SCORE.INTRA.REPUL>
-0.730195

>  <SCORE.INTRA.REPUL.0>
0.730195

>  <SCORE.INTRA.SOLV>
-3.6265

>  <SCORE.INTRA.SOLV.lig_0>
-127.221

>  <SCORE.INTRA.VDW>
-14.7923

>  <SCORE.INTRA.VDW.0>
10.8385

>  <SCORE.INTRA.norm>
-0.556569

>  <SCORE.RESTR>
0

>  <SCORE.RESTR.CAVITY>
0

>  <SCORE.RESTR.norm>
0

>  <SCORE.SYSTEM>
0

>  <SCORE.SYSTEM.CONST>
0

>  <SCORE.SYSTEM.DIHEDRAL>
0

>  <SCORE.SYSTEM.SOLV>
0

>  <SCORE.SYSTEM.norm>
0

>  <SCORE.heavy>
32

>  <SCORE.norm>
-1.52272

>  <RMSD>
8.559

$$$$
2tob cryst
 OpenBabel11021811463D
libRbt.so/2013.1/901 2013/11/27
 32 34  0  0  0  0  0  0  0  0999 V2000
  -12.6081   -6.1963   -4.9745 C   0  0  2  0  0  0  0  0  0  0  0  0
  -11.9362   -7.3725   -5.6759 C   0  0  1  0  0  0  0  0  0  0  0  0
  -13.0059   -8.2038   -6.3848 C   0  0  2  0  0  0  0  0  0  0  0  0
  -14.1020   -8.6364   -5.4019 C   0  0  1  0  0  0  0  0  0  0  0  0
  -14.6378   -7.4164   -4.6446 C   0  0  1  0  0  0  0  0  0  0  0  0
  -15.6274   -7.7495   -3.5402 C   0  0  0  0  0  0  0  0  0  0  0  0
  -10.9864   -6.8959   -6.6254 O   0  0  0  0  0  0  0  0  0  0  0  0
  -12.5552   -9.4245   -7.1254 N   0  3  0  0  0  0  0  0  0  0  0  0
  -15.1557   -9.2564   -6.1282 O   0  0  0  0  0  0  0  0  0  0  0  0
  -13.5457   -6.6956   -4.0396 O   0  0  0  0  0  0  0  0  0  0  0  0
  -16.7870   -8.3818   -4.0725 O   0  0  0  0  0  0  0  0  0  0  0  0
  -12.9800   -3.3529   -4.6871 C   0  0  2  0  0  0  0  0  0  0  0  0
  -12.2927   -1.9854   -4.5743 C   0  0  0  0  0  0  0  0  0  0  0  0
  -10.8416   -2.0283   -5.0454 C   0  0  1  0  0  0  0  0  0  0  0  0
  -10.8165   -2.5346   -6.4810 C   0  0  2  0  0  0  0  0  0  0  0  0
  -11.3430   -3.9713   -6.5243 C   0  0  1  0  0  0  0  0  0  0  0  0
  -12.8091   -4.0229   -6.0596 C   0  0  1  0  0  0  0  0  0  0  0  0
  -14.4456   -3.2347   -4.3816 N   0  3  0  0  0  0  0  0  0  0  0  0
  -10.1980   -0.6791   -4.9294 N   0  3  0  0  0  0  0  0  0  0  0  0
  -11.2279   -4.4755   -7.8488 O   0  0  0  0  0  0  0  0  0  0  0  0
   -9.4789   -2.4846   -7.0099 O   0  0  0  0  0  0  0  0  0  0  0  0
  -13.2349   -5.3963   -5.9403 O   0  0  0  0  0  0  0  0  0  0  0  0
   -9.4353   -2.3509   -8.4038 C   0  0  2  0  0  0  0  0  0  0  0  0
   -8.0066   -2.5845   -8.9060 C   0  0  1  0  0  0  0  0  0  0  0  0
   -7.1100   -1.3881   -8.5863 C   0  0  0  0  0  0  0  0  0  0  0  0
   -7.7642   -0.1241   -9.1204 C   0  0  1  0  0  0  0  0  0  0  0  0
   -9.1372    0.0321   -8.4903 C   0  0  1  0  0  0  0  0  0  0  0  0
   -9.8411    1.2841   -8.9815 C   0  0  0  0  0  0  0  0  0  0  0  0
   -7.4441   -3.8114   -8.2564 N   0  3  0  0  0  0  0  0  0  0  0  0
  -11.3243    1.0547   -8.8790 N   0  3  0  0  0  0  0  0  0  0  0  0
   -6.9622    1.0103   -8.8238 O   0  0  0  0  0  0  0  0  0  0  0  0
   -9.9525   -1.0988   -8.8413 O   0  0  0  0  0  0  0  0  0  0  0  0
  1  2  1  0  0  0  0
  1 22  1  6  0  0  0
  1 10  1  0  0  0  0
  2  3  1  0  0  0  0
  2  7  1  6  0  0  0
  3  4  1  0  0  0  0
  3  8  1  1  0  0  0
  4  5  1  0  0  0  0
  4  9  1  6  0  0  0
  5  6  1  1  0  0  0
  5 10  1  0  0  0  0
  6 11  1  0  0  0  0
 12 13  1  0  0  0  0
 12 17  1  0  0  0  0
 12 18  1  6  0  0  0
 13 14  1  0  0  0  0
 14 15  1  0  0  0  0
 14 19  1  6  0  0  0
 15 16  1  0  0  0  0
 15 21  1  1  0  0  0
 16 17  1  0  0  0  0
 16 20  1  6  0  0  0
 17 22  1  1  0  0  0
 23 21  1  1  0  0  0
 23 24  1  0  0  0  0
 23 32  1  0  0  0  0
 24 25  1  0  0  0  0
 24 29  1  1  0  0  0
 25 26  1  0  0  0  0
 26 27  1  0  0  0  0
 26 31  1  1  0  0  0
 27 28  1  6  0  0  0
 27 32  1  0  0  0  0
 28 30  1  0  0  0  0
M  CHG  5   8   1  18   1  19   1  29   1  30   1
M  END
>  <CHROM.1>
-119.80404553,179.91680089,168.35716108,-171.89712124,-61.96735447,-173.46802940
61.54786023,-81.65515607,-153.28454466,172.51267880,-56.73573930,-168.80798813
142.68762013,-57.67641768,153.33174062,-27.67830348,-11.50938067,-4.03520506
-6.54943701,2.36157176,-0.63820211,-3.01441307

>  <Name>
2tob cryst

>  <RI>
0

>  <Rbt.Current_Directory>
/home/itssahil/PROJECTS/Mol_Feturizer/New_Systems/rnas/2tob

>  <Rbt.Executable>
rbdock ($Id: //depot/dev/client3/rdock/2013.1/src/exe/rbdock.cxx#4 $)

>  <Rbt.Library>
libRbt.so (2013.1, Build901 2013/11/27)

>  <Rbt.Parameter_File>
/export/apps/rDock/src/rDock_2013.1_src/data/scripts/dock_solv.prm

>  <Rbt.Receptor>
prm/pocket_docking_5.prm

>  <SCORE>
-53.5579

>  <SCORE.INTER>
-33.5426

>  <SCORE.INTER.CONST>
1

>  <SCORE.INTER.POLAR>
-5.66559

>  <SCORE.INTER.ROT>
6

>  <SCORE.INTER.SOLV>
27.3027

>  <SCORE.INTER.VDW>
-20.1773

>  <SCORE.INTER.norm>
-1.04821

>  <SCORE.INTRA>
-20.0153

>  <SCORE.INTRA.DIHEDRAL>
1.4921

>  <SCORE.INTRA.DIHEDRAL.0>
18.4221

>  <SCORE.INTRA.POLAR>
-0.213137

>  <SCORE.INTRA.POLAR.0>
-1.57101

>  <SCORE.INTRA.REPUL>
-0.730195

>  <SCORE.INTRA.REPUL.0>
0.730195

>  <SCORE.INTRA.SOLV>
-6.09251

>  <SCORE.INTRA.SOLV.lig_0>
-127.221

>  <SCORE.INTRA.VDW>
-13.3395

>  <SCORE.INTRA.VDW.0>
10.8385

>  <SCORE.INTRA.norm>
-0.625479

>  <SCORE.RESTR>
0

>  <SCORE.RESTR.CAVITY>
0

>  <SCORE.RESTR.norm>
0

>  <SCORE.SYSTEM>
0

>  <SCORE.SYSTEM.CONST>
0

>  <SCORE.SYSTEM.DIHEDRAL>
0

>  <SCORE.SYSTEM.SOLV>
0

>  <SCORE.SYSTEM.norm>
0

>  <SCORE.heavy>
32

>  <SCORE.norm>
-1.67368

>  <RMSD>
8.561

$$$$
2tob cryst
 OpenBabel11021811463D
libRbt.so/2013.1/901 2013/11/27
 32 34  0  0  0  0  0  0  0  0999 V2000
  -11.2916   -5.5487   -3.4732 C   0  0  2  0  0  0  0  0  0  0  0  0
  -10.6433   -6.5771   -2.5517 C   0  0  1  0  0  0  0  0  0  0  0  0
  -11.5912   -7.7658   -2.3907 C   0  0  2  0  0  0  0  0  0  0  0  0
  -12.9694   -7.3031   -1.8998 C   0  0  1  0  0  0  0  0  0  0  0  0
  -13.4973   -6.1817   -2.8013 C   0  0  1  0  0  0  0  0  0  0  0  0
  -14.7927   -5.5486   -2.3204 C   0  0  0  0  0  0  0  0  0  0  0  0
   -9.4063   -7.0168   -3.1059 O   0  0  0  0  0  0  0  0  0  0  0  0
  -11.1488   -8.8882   -1.5039 N   0  3  0  0  0  0  0  0  0  0  0  0
  -13.8646   -8.4077   -1.9267 O   0  0  0  0  0  0  0  0  0  0  0  0
  -12.5166   -5.1299   -2.9018 O   0  0  0  0  0  0  0  0  0  0  0  0
  -15.3198   -4.6635   -3.3036 O   0  0  0  0  0  0  0  0  0  0  0  0
  -12.9962   -4.4766   -5.6248 C   0  0  2  0  0  0  0  0  0  0  0  0
  -13.1897   -3.2965   -6.5866 C   0  0  0  0  0  0  0  0  0  0  0  0
  -11.9531   -2.4052   -6.6624 C   0  0  1  0  0  0  0  0  0  0  0  0
  -10.7670   -3.2623   -7.0824 C   0  0  2  0  0  0  0  0  0  0  0  0
  -10.4930   -4.3161   -6.0064 C   0  0  1  0  0  0  0  0  0  0  0  0
  -11.6969   -5.2632   -5.8598 C   0  0  1  0  0  0  0  0  0  0  0  0
  -14.1600   -5.4221   -5.7073 N   0  3  0  0  0  0  0  0  0  0  0  0
  -12.1686   -1.2654   -7.6124 N   0  3  0  0  0  0  0  0  0  0  0  0
   -9.3268   -5.0518   -6.3537 O   0  0  0  0  0  0  0  0  0  0  0  0
   -9.5988   -2.4450   -7.2793 O   0  0  0  0  0  0  0  0  0  0  0  0
  -11.4953   -6.1370   -4.7294 O   0  0  0  0  0  0  0  0  0  0  0  0
   -9.3789   -2.1008   -8.6194 C   0  0  2  0  0  0  0  0  0  0  0  0
   -8.0448   -2.6848   -9.0959 C   0  0  1  0  0  0  0  0  0  0  0  0
   -6.8654   -1.9024   -8.5174 C   0  0  0  0  0  0  0  0  0  0  0  0
   -7.0515   -0.4263   -8.8292 C   0  0  1  0  0  0  0  0  0  0  0  0
   -8.3689    0.0465   -8.2397 C   0  0  1  0  0  0  0  0  0  0  0  0
   -8.6099    1.5199   -8.5138 C   0  0  0  0  0  0  0  0  0  0  0  0
   -7.9458   -4.1167   -8.6676 N   0  3  0  0  0  0  0  0  0  0  0  0
   -9.3433    2.0987   -7.3347 N   0  3  0  0  0  0  0  0  0  0  0  0
   -5.9782    0.3318   -8.2893 O   0  0  0  0  0  0  0  0  0  0  0  0
   -9.4482   -0.6950   -8.8330 O   0  0  0  0  0  0  0  0  0  0  0  0
  1  2  1  0  0  0  0
  1 22  1  6  0  0  0
  1 10  1  0  0  0  0
  2  3  1  0  0  0  0
  2  7  1  6  0  0  0
  3  4  1  0  0  0  0
  3  8  1  1  0  0  0
  4  5  1  0  0  0  0
  4  9  1  6  0  0  0
  5  6  1  1  0  0  0
  5 10  1  0  0  0  0
  6 11  1  0  0  0  0
 12 13  1  0  0  0  0
 12 17  1  0  0  0  0
 12 18  1  6  0  0  0
 13 14  1  0  0  0  0
 14 15  1  0  0  0  0
 14 19  1  6  0  0  0
 15 16  1  0  0  0  0
 15 21  1  1  0  0  0
 16 17  1  0  0  0  0
 16 20  1  6  0  0  0
 17 22  1  1  0  0  0
 23 21  1  1  0  0  0
 23 24  1  0  0  0  0
 23 32  1  0  0  0  0
 24 25  1  0  0  0  0
 24 29  1  1  0  0  0
 25 26  1  0  0  0  0
 26 27  1  0  0  0  0
 26 31  1  1  0  0  0
 27 28  1  6  0  0  0
 27 32  1  0  0  0  0
 28 30  1  0  0  0  0
M  CHG  5   8   1  18   1  19   1  29   1  30   1
M  END
>  <CHROM.1>
-160.88854765,-178.05235917,59.05844752,178.91295844,-171.31781553,-177.66224482
154.22243076,-20.90578487,-97.25772723,-69.94077067,-63.63933262,-117.42377986
-172.92321670,67.87560452,-146.00051530,64.01014497,-10.81780034,-3.89792917
-5.68986848,-2.07410405,0.25572452,-0.59251430

>  <Name>
2tob cryst

>  <RI>
0

>  <Rbt.Current_Directory>
/home/itssahil/PROJECTS/Mol_Feturizer/New_Systems/rnas/2tob

>  <Rbt.Executable>
rbdock ($Id: //depot/dev/client3/rdock/2013.1/src/exe/rbdock.cxx#4 $)

>  <Rbt.Library>
libRbt.so (2013.1, Build901 2013/11/27)

>  <Rbt.Parameter_File>
/export/apps/rDock/src/rDock_2013.1_src/data/scripts/dock_solv.prm

>  <Rbt.Receptor>
prm/pocket_docking_5.prm

>  <SCORE>
-44.6505

>  <SCORE.INTER>
-25.1097

>  <SCORE.INTER.CONST>
1

>  <SCORE.INTER.POLAR>
-4.15769

>  <SCORE.INTER.ROT>
6

>  <SCORE.INTER.SOLV>
26.6623

>  <SCORE.INTER.VDW>
-19.3683

>  <SCORE.INTER.norm>
-0.784679

>  <SCORE.INTRA>
-19.5408

>  <SCORE.INTRA.DIHEDRAL>
3.90676

>  <SCORE.INTRA.DIHEDRAL.0>
18.4221

>  <SCORE.INTRA.POLAR>
-1.23308

>  <SCORE.INTRA.POLAR.0>
-1.57101

>  <SCORE.INTRA.REPUL>
-0.730195

>  <SCORE.INTRA.REPUL.0>
0.730195

>  <SCORE.INTRA.SOLV>
-0.0924329

>  <SCORE.INTRA.SOLV.lig_0>
-127.221

>  <SCORE.INTRA.VDW>
-13.6045

>  <SCORE.INTRA.VDW.0>
10.8385

>  <SCORE.INTRA.norm>
-0.610651

>  <SCORE.RESTR>
0

>  <SCORE.RESTR.CAVITY>
0

>  <SCORE.RESTR.norm>
0

>  <SCORE.SYSTEM>
0

>  <SCORE.SYSTEM.CONST>
0

>  <SCORE.SYSTEM.DIHEDRAL>
0

>  <SCORE.SYSTEM.SOLV>
0

>  <SCORE.SYSTEM.norm>
0

>  <SCORE.heavy>
32

>  <SCORE.norm>
-1.39533

>  <RMSD>
8.575

$$$$
2tob cryst
 OpenBabel11021811463D
libRbt.so/2013.1/901 2013/11/27
 32 34  0  0  0  0  0  0  0  0999 V2000
  -10.0026   -6.6547   -4.3300 C   0  0  2  0  0  0  0  0  0  0  0  0
   -9.4438   -8.0561   -4.5560 C   0  0  1  0  0  0  0  0  0  0  0  0
  -10.6055   -9.0477   -4.6257 C   0  0  2  0  0  0  0  0  0  0  0  0
  -11.4862   -8.9465   -3.3732 C   0  0  1  0  0  0  0  0  0  0  0  0
  -11.9020   -7.4896   -3.1415 C   0  0  1  0  0  0  0  0  0  0  0  0
  -12.6580   -7.2526   -1.8445 C   0  0  0  0  0  0  0  0  0  0  0  0
   -8.7017   -8.0946   -5.7719 O   0  0  0  0  0  0  0  0  0  0  0  0
  -10.2702  -10.4930   -4.8270 N   0  3  0  0  0  0  0  0  0  0  0  0
  -12.6410   -9.7566   -3.5534 O   0  0  0  0  0  0  0  0  0  0  0  0
  -10.7349   -6.6437   -3.1192 O   0  0  0  0  0  0  0  0  0  0  0  0
  -13.9799   -7.7757   -1.9254 O   0  0  0  0  0  0  0  0  0  0  0  0
  -11.4474   -4.1456   -4.5787 C   0  0  2  0  0  0  0  0  0  0  0  0
  -11.3153   -2.6226   -4.7131 C   0  0  0  0  0  0  0  0  0  0  0  0
   -9.9072   -2.1994   -5.1223 C   0  0  1  0  0  0  0  0  0  0  0  0
   -9.5568   -2.8948   -6.4306 C   0  0  2  0  0  0  0  0  0  0  0  0
   -9.5218   -4.4091   -6.2097 C   0  0  1  0  0  0  0  0  0  0  0  0
  -10.9091   -4.9252   -5.7888 C   0  0  1  0  0  0  0  0  0  0  0  0
  -12.8795   -4.5335   -4.3469 N   0  3  0  0  0  0  0  0  0  0  0  0
   -9.8092   -0.7088   -5.2514 N   0  3  0  0  0  0  0  0  0  0  0  0
   -9.0999   -5.0503   -7.4067 O   0  0  0  0  0  0  0  0  0  0  0  0
   -8.2815   -2.4392   -6.9181 O   0  0  0  0  0  0  0  0  0  0  0  0
  -10.8200   -6.3166   -5.4177 O   0  0  0  0  0  0  0  0  0  0  0  0
   -8.2373   -2.2920   -8.3105 C   0  0  2  0  0  0  0  0  0  0  0  0
   -6.7873   -2.1066   -8.7698 C   0  0  1  0  0  0  0  0  0  0  0  0
   -6.2784   -0.7058   -8.4287 C   0  0  0  0  0  0  0  0  0  0  0  0
   -7.2497    0.3219   -8.9864 C   0  0  1  0  0  0  0  0  0  0  0  0
   -8.6281    0.0776   -8.3974 C   0  0  1  0  0  0  0  0  0  0  0  0
   -9.6448    1.0795   -8.9137 C   0  0  0  0  0  0  0  0  0  0  0  0
   -5.9177   -3.1254   -8.0994 N   0  3  0  0  0  0  0  0  0  0  0  0
  -10.8737    0.3206   -9.3343 N   0  3  0  0  0  0  0  0  0  0  0  0
   -6.8131    1.6364   -8.6709 O   0  0  0  0  0  0  0  0  0  0  0  0
   -9.0768   -1.2371   -8.7678 O   0  0  0  0  0  0  0  0  0  0  0  0
  1  2  1  0  0  0  0
  1 22  1  6  0  0  0
  1 10  1  0  0  0  0
  2  3  1  0  0  0  0
  2  7  1  6  0  0  0
  3  4  1  0  0  0  0
  3  8  1  1  0  0  0
  4  5  1  0  0  0  0
  4  9  1  6  0  0  0
  5  6  1  1  0  0  0
  5 10  1  0  0  0  0
  6 11  1  0  0  0  0
 12 13  1  0  0  0  0
 12 17  1  0  0  0  0
 12 18  1  6  0  0  0
 13 14  1  0  0  0  0
 14 15  1  0  0  0  0
 14 19  1  6  0  0  0
 15 16  1  0  0  0  0
 15 21  1  1  0  0  0
 16 17  1  0  0  0  0
 16 20  1  6  0  0  0
 17 22  1  1  0  0  0
 23 21  1  1  0  0  0
 23 24  1  0  0  0  0
 23 32  1  0  0  0  0
 24 25  1  0  0  0  0
 24 29  1  1  0  0  0
 25 26  1  0  0  0  0
 26 27  1  0  0  0  0
 26 31  1  1  0  0  0
 27 28  1  6  0  0  0
 27 32  1  0  0  0  0
 28 30  1  0  0  0  0
M  CHG  5   8   1  18   1  19   1  29   1  30   1
M  END
>  <CHROM.1>
-149.39744430,173.14926819,-58.04920411,74.06987676,-72.73379623,-59.66546395
-174.00404286,-172.65899358,-141.66573675,69.36200288,-59.33922051,-167.70093808
72.41379892,67.86566500,132.75056221,79.29074627,-9.87448767,-4.29298053
-5.94011542,-2.01503616,0.60224206,-0.28127095

>  <Name>
2tob cryst

>  <RI>
0

>  <Rbt.Current_Directory>
/home/itssahil/PROJECTS/Mol_Feturizer/New_Systems/rnas/2tob

>  <Rbt.Executable>
rbdock ($Id: //depot/dev/client3/rdock/2013.1/src/exe/rbdock.cxx#4 $)

>  <Rbt.Library>
libRbt.so (2013.1, Build901 2013/11/27)

>  <Rbt.Parameter_File>
/export/apps/rDock/src/rDock_2013.1_src/data/scripts/dock_solv.prm

>  <Rbt.Receptor>
prm/pocket_docking_5.prm

>  <SCORE>
-58.8643

>  <SCORE.INTER>
-43.4464

>  <SCORE.INTER.CONST>
1

>  <SCORE.INTER.POLAR>
-7.00895

>  <SCORE.INTER.ROT>
6

>  <SCORE.INTER.SOLV>
32.3379

>  <SCORE.INTER.VDW>
-23.9804

>  <SCORE.INTER.norm>
-1.3577

>  <SCORE.INTRA>
-15.4179

>  <SCORE.INTRA.DIHEDRAL>
-0.0600287

>  <SCORE.INTRA.DIHEDRAL.0>
18.4221

>  <SCORE.INTRA.POLAR>
1.35453

>  <SCORE.INTRA.POLAR.0>
-1.57101

>  <SCORE.INTRA.REPUL>
-0.730195

>  <SCORE.INTRA.REPUL.0>
0.730195

>  <SCORE.INTRA.SOLV>
-3.06886

>  <SCORE.INTRA.SOLV.lig_0>
-127.221

>  <SCORE.INTRA.VDW>
-14.8079

>  <SCORE.INTRA.VDW.0>
10.8385

>  <SCORE.INTRA.norm>
-0.48181

>  <SCORE.RESTR>
0

>  <SCORE.RESTR.CAVITY>
0

>  <SCORE.RESTR.norm>
0

>  <SCORE.SYSTEM>
0

>  <SCORE.SYSTEM.CONST>
0

>  <SCORE.SYSTEM.DIHEDRAL>
0

>  <SCORE.SYSTEM.SOLV>
0

>  <SCORE.SYSTEM.norm>
0

>  <SCORE.heavy>
32

>  <SCORE.norm>
-1.83951

>  <RMSD>
8.587

$$$$
2tob cryst
 OpenBabel11021811463D
libRbt.so/2013.1/901 2013/11/27
 32 34  0  0  0  0  0  0  0  0999 V2000
  -10.3724   -1.3958   -8.8697 C   0  0  2  0  0  0  0  0  0  0  0  0
  -11.8427   -0.9895   -8.8505 C   0  0  1  0  0  0  0  0  0  0  0  0
  -12.4897   -1.5298   -7.5749 C   0  0  2  0  0  0  0  0  0  0  0  0
  -12.2834   -3.0458   -7.4575 C   0  0  1  0  0  0  0  0  0  0  0  0
  -10.7973   -3.3860   -7.6143 C   0  0  1  0  0  0  0  0  0  0  0  0
  -10.4968   -4.8752   -7.6594 C   0  0  0  0  0  0  0  0  0  0  0  0
  -11.9563    0.4306   -8.8861 O   0  0  0  0  0  0  0  0  0  0  0  0
  -13.9468   -1.2544   -7.3682 N   0  3  0  0  0  0  0  0  0  0  0  0
  -12.7473   -3.4782   -6.1846 O   0  0  0  0  0  0  0  0  0  0  0  0
  -10.2872   -2.8079   -8.8324 O   0  0  0  0  0  0  0  0  0  0  0  0
  -11.3025   -5.5254   -8.6371 O   0  0  0  0  0  0  0  0  0  0  0  0
   -7.8268   -2.2891   -7.6122 C   0  0  2  0  0  0  0  0  0  0  0  0
   -6.3275   -2.4875   -7.8728 C   0  0  0  0  0  0  0  0  0  0  0  0
   -5.8737   -1.8196   -9.1679 C   0  0  1  0  0  0  0  0  0  0  0  0
   -6.2234   -0.3396   -9.0943 C   0  0  2  0  0  0  0  0  0  0  0  0
   -7.7436   -0.1782   -9.0172 C   0  0  1  0  0  0  0  0  0  0  0  0
   -8.2910   -0.8292   -7.7348 C   0  0  1  0  0  0  0  0  0  0  0  0
   -8.1999   -2.8066   -6.2527 N   0  3  0  0  0  0  0  0  0  0  0  0
   -4.4057   -2.0247   -9.3936 N   0  3  0  0  0  0  0  0  0  0  0  0
   -8.0726    1.2049   -9.0467 O   0  0  0  0  0  0  0  0  0  0  0  0
   -5.7124    0.3570  -10.2454 O   0  0  0  0  0  0  0  0  0  0  0  0
   -9.7336   -0.8219   -7.7615 O   0  0  0  0  0  0  0  0  0  0  0  0
   -4.5512    1.0946   -9.9805 C   0  0  2  0  0  0  0  0  0  0  0  0
   -4.6379    2.4658  -10.6590 C   0  0  1  0  0  0  0  0  0  0  0  0
   -4.4290    2.3451  -12.1688 C   0  0  0  0  0  0  0  0  0  0  0  0
   -3.1318    1.5967  -12.4296 C   0  0  1  0  0  0  0  0  0  0  0  0
   -3.2032    0.2295  -11.7719 C   0  0  1  0  0  0  0  0  0  0  0  0
   -1.9345   -0.5713  -12.0026 C   0  0  0  0  0  0  0  0  0  0  0  0
   -5.9824    3.0699  -10.3927 N   0  3  0  0  0  0  0  0  0  0  0  0
   -1.5153   -0.3769  -13.4342 N   0  3  0  0  0  0  0  0  0  0  0  0
   -2.9168    1.4527  -13.8264 O   0  0  0  0  0  0  0  0  0  0  0  0
   -3.3702    0.3927  -10.3534 O   0  0  0  0  0  0  0  0  0  0  0  0
  1  2  1  0  0  0  0
  1 22  1  1  0  0  0
  1 10  1  0  0  0  0
  2  3  1  0  0  0  0
  2  7  1  1  0  0  0
  3  4  1  0  0  0  0
  3  8  1  6  0  0  0
  4  5  1  0  0  0  0
  4  9  1  1  0  0  0
  5  6  1  6  0  0  0
  5 10  1  0  0  0  0
  6 11  1  0  0  0  0
 12 13  1  0  0  0  0
 12 17  1  0  0  0  0
 12 18  1  1  0  0  0
 13 14  1  0  0  0  0
 14 15  1  0  0  0  0
 14 19  1  1  0  0  0
 15 16  1  0  0  0  0
 15 21  1  6  0  0  0
 16 17  1  0  0  0  0
 16 20  1  1  0  0  0
 17 22  1  6  0  0  0
 23 21  1  6  0  0  0
 23 24  1  0  0  0  0
 23 32  1  0  0  0  0
 24 25  1  0  0  0  0
 24 29  1  6  0  0  0
 25 26  1  0  0  0  0
 26 27  1  0  0  0  0
 26 31  1  6  0  0  0
 27 28  1  1  0  0  0
 27 32  1  0  0  0  0
 28 30  1  0  0  0  0
M  CHG  5   8   1  18   1  19   1  29   1  30   1
M  END
>  <CHROM.1>
-166.74768609,84.88163456,-25.21643673,179.78687681,52.03994499,-60.68488240
112.89831245,6.89091817,-102.85966560,-178.32549494,-66.70173714,-137.08503182
-79.24133240,67.14321344,-42.07142862,-156.96132555,-7.60764940,-0.88409833
-9.32582732,2.65448622,-0.33078271,2.81209876

>  <Name>
2tob cryst

>  <RI>
0

>  <Rbt.Current_Directory>
/home/itssahil/PROJECTS/Mol_Feturizer/New_Systems/rnas/2tob

>  <Rbt.Executable>
rbdock ($Id: //depot/dev/client3/rdock/2013.1/src/exe/rbdock.cxx#4 $)

>  <Rbt.Library>
libRbt.so (2013.1, Build901 2013/11/27)

>  <Rbt.Parameter_File>
/export/apps/rDock/src/rDock_2013.1_src/data/scripts/dock_solv.prm

>  <Rbt.Receptor>
prm/blind_docking_40.prm

>  <SCORE>
-11.7421

>  <SCORE.INTER>
-15.0438

>  <SCORE.INTER.CONST>
1

>  <SCORE.INTER.POLAR>
-6.44019

>  <SCORE.INTER.ROT>
6

>  <SCORE.INTER.SOLV>
40.8302

>  <SCORE.INTER.VDW>
-9.77198

>  <SCORE.INTER.norm>
-0.47012

>  <SCORE.INTRA>
-5.14851

>  <SCORE.INTRA.DIHEDRAL>
9.64805

>  <SCORE.INTRA.DIHEDRAL.0>
18.4221

>  <SCORE.INTRA.POLAR>
0.582022

>  <SCORE.INTRA.POLAR.0>
-1.57101

>  <SCORE.INTRA.REPUL>
-0.730195

>  <SCORE.INTRA.REPUL.0>
0.730195

>  <SCORE.INTRA.SOLV>
0.574369

>  <SCORE.INTRA.SOLV.lig_0>
-127.221

>  <SCORE.INTRA.VDW>
-8.58762

>  <SCORE.INTRA.VDW.0>
10.8385

>  <SCORE.INTRA.norm>
-0.160891

>  <SCORE.RESTR>
8.45022

>  <SCORE.RESTR.CAVITY>
8.45022

>  <SCORE.RESTR.norm>
0.264069

>  <SCORE.SYSTEM>
0

>  <SCORE.SYSTEM.CONST>
0

>  <SCORE.SYSTEM.DIHEDRAL>
0

>  <SCORE.SYSTEM.SOLV>
0

>  <SCORE.SYSTEM.norm>
0

>  <SCORE.heavy>
32

>  <SCORE.norm>
-0.366942

>  <RMSD>
8.607

$$$$
2tob cryst
 OpenBabel11021811463D
libRbt.so/2013.1/901 2013/11/27
 32 34  0  0  0  0  0  0  0  0999 V2000
  -10.8906   -6.3431   -4.6125 C   0  0  2  0  0  0  0  0  0  0  0  0
  -10.5728   -7.7456   -5.1213 C   0  0  1  0  0  0  0  0  0  0  0  0
  -11.8510   -8.5842   -5.0944 C   0  0  2  0  0  0  0  0  0  0  0  0
  -12.4776   -8.5805   -3.6937 C   0  0  1  0  0  0  0  0  0  0  0  0
  -12.6474   -7.1397   -3.1996 C   0  0  1  0  0  0  0  0  0  0  0  0
  -13.1262   -7.0228   -1.7618 C   0  0  0  0  0  0  0  0  0  0  0  0
  -10.0667   -7.6784   -6.4518 O   0  0  0  0  0  0  0  0  0  0  0  0
  -11.7528  -10.0096   -5.5420 N   0  3  0  0  0  0  0  0  0  0  0  0
  -13.7440   -9.2247   -3.7521 O   0  0  0  0  0  0  0  0  0  0  0  0
  -11.3917   -6.4376   -3.2925 O   0  0  0  0  0  0  0  0  0  0  0  0
  -14.4737   -7.4664   -1.6387 O   0  0  0  0  0  0  0  0  0  0  0  0
  -11.9928   -3.5363   -4.5465 C   0  0  2  0  0  0  0  0  0  0  0  0
  -11.5764   -2.0628   -4.6496 C   0  0  0  0  0  0  0  0  0  0  0  0
  -10.1330   -1.9025   -5.1188 C   0  0  1  0  0  0  0  0  0  0  0  0
   -9.9819   -2.6071   -6.4600 C   0  0  2  0  0  0  0  0  0  0  0  0
  -10.2289   -4.1069   -6.2787 C   0  0  1  0  0  0  0  0  0  0  0  0
  -11.6692   -4.3627   -5.8012 C   0  0  1  0  0  0  0  0  0  0  0  0
  -13.4609   -3.6514   -4.2523 N   0  3  0  0  0  0  0  0  0  0  0  0
   -9.7561   -0.4545   -5.2157 N   0  3  0  0  0  0  0  0  0  0  0  0
   -9.9922   -4.7757   -7.5110 O   0  0  0  0  0  0  0  0  0  0  0  0
   -8.6659   -2.3870   -6.9998 O   0  0  0  0  0  0  0  0  0  0  0  0
  -11.8328   -5.7574   -5.4697 O   0  0  0  0  0  0  0  0  0  0  0  0
   -8.6743   -1.9796   -8.3401 C   0  0  2  0  0  0  0  0  0  0  0  0
   -7.2367   -1.8166   -8.8449 C   0  0  1  0  0  0  0  0  0  0  0  0
   -6.5970   -0.5482   -8.2795 C   0  0  0  0  0  0  0  0  0  0  0  0
   -7.5038    0.6357   -8.5743 C   0  0  1  0  0  0  0  0  0  0  0  0
   -8.8690    0.3849   -7.9577 C   0  0  1  0  0  0  0  0  0  0  0  0
   -9.8211    1.5390   -8.2139 C   0  0  0  0  0  0  0  0  0  0  0  0
   -6.4253   -3.0059   -8.4318 N   0  3  0  0  0  0  0  0  0  0  0  0
  -10.0930    1.5987   -9.6922 N   0  3  0  0  0  0  0  0  0  0  0  0
   -6.9445    1.8298   -8.0457 O   0  0  0  0  0  0  0  0  0  0  0  0
   -9.4429   -0.7979   -8.5394 O   0  0  0  0  0  0  0  0  0  0  0  0
  1  2  1  0  0  0  0
  1 22  1  6  0  0  0
  1 10  1  0  0  0  0
  2  3  1  0  0  0  0
  2  7  1  6  0  0  0
  3  4  1  0  0  0  0
  3  8  1  1  0  0  0
  4  5  1  0  0  0  0
  4  9  1  6  0  0  0
  5  6  1  1  0  0  0
  5 10  1  0  0  0  0
  6 11  1  0  0  0  0
 12 13  1  0  0  0  0
 12 17  1  0  0  0  0
 12 18  1  6  0  0  0
 13 14  1  0  0  0  0
 14 15  1  0  0  0  0
 14 19  1  6  0  0  0
 15 16  1  0  0  0  0
 15 21  1  1  0  0  0
 16 17  1  0  0  0  0
 16 20  1  6  0  0  0
 17 22  1  1  0  0  0
 23 21  1  1  0  0  0
 23 24  1  0  0  0  0
 23 32  1  0  0  0  0
 24 25  1  0  0  0  0
 24 29  1  1  0  0  0
 25 26  1  0  0  0  0
 26 27  1  0  0  0  0
 26 31  1  1  0  0  0
 27 28  1  6  0  0  0
 27 32  1  0  0  0  0
 28 30  1  0  0  0  0
M  CHG  5   8   1  18   1  19   1  29   1  30   1
M  END
>  <CHROM.1>
-139.71230620,174.35245883,-165.28222488,-55.56131592,-68.87519732,51.78804270
177.63894232,59.93150516,-131.39951547,175.52451659,-70.73509779,-178.03520031
-164.50333375,65.19956608,66.13746169,102.47549201,-10.45006100,-3.89886906
-5.99268158,-2.19396698,0.75182252,-0.05274232

>  <Name>
2tob cryst

>  <RI>
2.10184e+07

>  <Rbt.Current_Directory>
/home/itssahil/PROJECTS/Mol_Feturizer/New_Systems/rnas/2tob

>  <Rbt.Executable>
rbdock ($Id: //depot/dev/client3/rdock/2013.1/src/exe/rbdock.cxx#4 $)

>  <Rbt.Library>
libRbt.so (2013.1, Build901 2013/11/27)

>  <Rbt.Parameter_File>
/export/apps/rDock/src/rDock_2013.1_src/data/scripts/dock_solv.prm

>  <Rbt.Receptor>
prm/pocket_docking_7.prm

>  <SCORE>
-58.6466

>  <SCORE.INTER>
-38.6469

>  <SCORE.INTER.CONST>
1

>  <SCORE.INTER.POLAR>
-6.34553

>  <SCORE.INTER.ROT>
6

>  <SCORE.INTER.SOLV>
30.0298

>  <SCORE.INTER.VDW>
-22.2228

>  <SCORE.INTER.norm>
-1.20771

>  <SCORE.INTRA>
-19.9997

>  <SCORE.INTRA.DIHEDRAL>
-0.41664

>  <SCORE.INTRA.DIHEDRAL.0>
18.4221

>  <SCORE.INTRA.POLAR>
0.1013

>  <SCORE.INTRA.POLAR.0>
-1.57101

>  <SCORE.INTRA.REPUL>
-0.730195

>  <SCORE.INTRA.REPUL.0>
0.730195

>  <SCORE.INTRA.SOLV>
-3.50232

>  <SCORE.INTRA.SOLV.lig_0>
-127.221

>  <SCORE.INTRA.VDW>
-14.7337

>  <SCORE.INTRA.VDW.0>
10.8385

>  <SCORE.INTRA.norm>
-0.624991

>  <SCORE.RESTR>
0

>  <SCORE.RESTR.CAVITY>
0

>  <SCORE.RESTR.norm>
0

>  <SCORE.SYSTEM>
0

>  <SCORE.SYSTEM.CONST>
0

>  <SCORE.SYSTEM.DIHEDRAL>
0

>  <SCORE.SYSTEM.SOLV>
0

>  <SCORE.SYSTEM.norm>
0

>  <SCORE.heavy>
32

>  <SCORE.norm>
-1.83271

>  <RMSD>
8.607

$$$$
2tob cryst
 OpenBabel11021811463D
libRbt.so/2013.1/901 2013/11/27
 32 34  0  0  0  0  0  0  0  0999 V2000
  -10.3303   -7.3221   -4.4487 C   0  0  2  0  0  0  0  0  0  0  0  0
   -9.2512   -8.3933   -4.5708 C   0  0  1  0  0  0  0  0  0  0  0  0
   -9.9224   -9.7543   -4.7569 C   0  0  2  0  0  0  0  0  0  0  0  0
  -10.9191  -10.0315   -3.6235 C   0  0  1  0  0  0  0  0  0  0  0  0
  -11.8896   -8.8541   -3.4798 C   0  0  1  0  0  0  0  0  0  0  0  0
  -12.8300   -8.9590   -2.2903 C   0  0  0  0  0  0  0  0  0  0  0  0
   -8.4099   -8.1127   -5.6863 O   0  0  0  0  0  0  0  0  0  0  0  0
   -9.0336  -10.9529   -4.8806 N   0  3  0  0  0  0  0  0  0  0  0  0
  -11.6406  -11.2198   -3.9228 O   0  0  0  0  0  0  0  0  0  0  0  0
  -11.1514   -7.6242   -3.3365 O   0  0  0  0  0  0  0  0  0  0  0  0
  -12.0981   -9.0739   -1.0742 O   0  0  0  0  0  0  0  0  0  0  0  0
  -12.4533   -5.4047   -5.0646 C   0  0  2  0  0  0  0  0  0  0  0  0
  -12.7714   -3.9222   -5.3018 C   0  0  0  0  0  0  0  0  0  0  0  0
  -11.5135   -3.0950   -5.5519 C   0  0  1  0  0  0  0  0  0  0  0  0
  -10.7741   -3.6913   -6.7418 C   0  0  2  0  0  0  0  0  0  0  0  0
  -10.3146   -5.1103   -6.3975 C   0  0  1  0  0  0  0  0  0  0  0  0
  -11.5265   -6.0188   -6.1257 C   0  0  1  0  0  0  0  0  0  0  0  0
  -13.7176   -6.2121   -4.9957 N   0  3  0  0  0  0  0  0  0  0  0  0
  -11.8547   -1.6538   -5.7858 N   0  3  0  0  0  0  0  0  0  0  0  0
   -9.5413   -5.6289   -7.4722 O   0  0  0  0  0  0  0  0  0  0  0  0
   -9.6391   -2.8774   -7.0895 O   0  0  0  0  0  0  0  0  0  0  0  0
  -11.0762   -7.2990   -5.6356 O   0  0  0  0  0  0  0  0  0  0  0  0
   -9.5379   -2.6197   -8.4628 C   0  0  2  0  0  0  0  0  0  0  0  0
   -8.0700   -2.6802   -8.8983 C   0  0  1  0  0  0  0  0  0  0  0  0
   -7.3071   -1.4407   -8.4300 C   0  0  0  0  0  0  0  0  0  0  0  0
   -8.0494   -0.1986   -8.8960 C   0  0  1  0  0  0  0  0  0  0  0  0
   -9.4611   -0.2211   -8.3364 C   0  0  1  0  0  0  0  0  0  0  0  0
  -10.2537    1.0009   -8.7635 C   0  0  0  0  0  0  0  0  0  0  0  0
   -7.4282   -3.9037   -8.3198 N   0  3  0  0  0  0  0  0  0  0  0  0
  -11.7063    0.6149   -8.8260 N   0  3  0  0  0  0  0  0  0  0  0  0
   -7.3735    0.9728   -8.4613 O   0  0  0  0  0  0  0  0  0  0  0  0
  -10.1477   -1.3855   -8.8258 O   0  0  0  0  0  0  0  0  0  0  0  0
  1  2  1  0  0  0  0
  1 22  1  6  0  0  0
  1 10  1  0  0  0  0
  2  3  1  0  0  0  0
  2  7  1  6  0  0  0
  3  4  1  0  0  0  0
  3  8  1  1  0  0  0
  4  5  1  0  0  0  0
  4  9  1  6  0  0  0
  5  6  1  1  0  0  0
  5 10  1  0  0  0  0
  6 11  1  0  0  0  0
 12 13  1  0  0  0  0
 12 17  1  0  0  0  0
 12 18  1  6  0  0  0
 13 14  1  0  0  0  0
 14 15  1  0  0  0  0
 14 19  1  6  0  0  0
 15 16  1  0  0  0  0
 15 21  1  1  0  0  0
 16 17  1  0  0  0  0
 16 20  1  6  0  0  0
 17 22  1  1  0  0  0
 23 21  1  1  0  0  0
 23 24  1  0  0  0  0
 23 32  1  0  0  0  0
 24 25  1  0  0  0  0
 24 29  1  1  0  0  0
 25 26  1  0  0  0  0
 26 27  1  0  0  0  0
 26 31  1  1  0  0  0
 27 28  1  6  0  0  0
 27 32  1  0  0  0  0
 28 30  1  0  0  0  0
M  CHG  5   8   1  18   1  19   1  29   1  30   1
M  END
>  <CHROM.1>
-142.79627780,51.12359752,-52.61932136,76.26660680,57.77361165,179.51924813
57.99039048,-47.56056994,-133.33571536,-64.22807542,-61.47862215,-140.57069319
-101.70830087,175.16916282,150.85574297,-153.32959786,-10.37747875,-5.05510765
-6.07019691,-1.78001434,0.49641904,-0.39861141

>  <Name>
2tob cryst

>  <RI>
2.10184e+07

>  <Rbt.Current_Directory>
/home/itssahil/PROJECTS/Mol_Feturizer/New_Systems/rnas/2tob

>  <Rbt.Executable>
rbdock ($Id: //depot/dev/client3/rdock/2013.1/src/exe/rbdock.cxx#4 $)

>  <Rbt.Library>
libRbt.so (2013.1, Build901 2013/11/27)

>  <Rbt.Parameter_File>
/export/apps/rDock/src/rDock_2013.1_src/data/scripts/dock_solv.prm

>  <Rbt.Receptor>
prm/pocket_docking_7.prm

>  <SCORE>
-48.6292

>  <SCORE.INTER>
-33.4255

>  <SCORE.INTER.CONST>
1

>  <SCORE.INTER.POLAR>
-6.32907

>  <SCORE.INTER.ROT>
6

>  <SCORE.INTER.SOLV>
31.9702

>  <SCORE.INTER.VDW>
-19.4436

>  <SCORE.INTER.norm>
-1.04455

>  <SCORE.INTRA>
-15.2037

>  <SCORE.INTRA.DIHEDRAL>
7.45418

>  <SCORE.INTRA.DIHEDRAL.0>
18.4221

>  <SCORE.INTRA.POLAR>
0.0779984

>  <SCORE.INTRA.POLAR.0>
-1.57101

>  <SCORE.INTRA.REPUL>
-0.730195

>  <SCORE.INTRA.REPUL.0>
0.730195

>  <SCORE.INTRA.SOLV>
-1.6431

>  <SCORE.INTRA.SOLV.lig_0>
-127.221

>  <SCORE.INTRA.VDW>
-14.7234

>  <SCORE.INTRA.VDW.0>
10.8385

>  <SCORE.INTRA.norm>
-0.475114

>  <SCORE.RESTR>
0

>  <SCORE.RESTR.CAVITY>
0

>  <SCORE.RESTR.norm>
0

>  <SCORE.SYSTEM>
0

>  <SCORE.SYSTEM.CONST>
0

>  <SCORE.SYSTEM.DIHEDRAL>
0

>  <SCORE.SYSTEM.SOLV>
0

>  <SCORE.SYSTEM.norm>
0

>  <SCORE.heavy>
32

>  <SCORE.norm>
-1.51966

>  <RMSD>
8.635

$$$$
2tob cryst
 OpenBabel11021811463D
libRbt.so/2013.1/901 2013/11/27
 32 34  0  0  0  0  0  0  0  0999 V2000
   -8.7154   -1.3679   -7.4110 C   0  0  2  0  0  0  0  0  0  0  0  0
  -10.1797   -1.6458   -7.7362 C   0  0  1  0  0  0  0  0  0  0  0  0
  -10.7458   -0.4636   -8.5233 C   0  0  2  0  0  0  0  0  0  0  0  0
  -10.5387    0.8509   -7.7592 C   0  0  1  0  0  0  0  0  0  0  0  0
   -9.0671    0.9965   -7.3566 C   0  0  1  0  0  0  0  0  0  0  0  0
   -8.7763    2.1949   -6.4680 C   0  0  0  0  0  0  0  0  0  0  0  0
  -10.2896   -2.8381   -8.5089 O   0  0  0  0  0  0  0  0  0  0  0  0
  -12.1855   -0.5286   -8.9292 N   0  3  0  0  0  0  0  0  0  0  0  0
  -10.9218    1.9363   -8.5944 O   0  0  0  0  0  0  0  0  0  0  0  0
   -8.6338   -0.1804   -6.6457 O   0  0  0  0  0  0  0  0  0  0  0  0
   -7.4901    2.0805   -5.8678 O   0  0  0  0  0  0  0  0  0  0  0  0
   -6.1087   -2.6205   -9.1806 C   0  0  2  0  0  0  0  0  0  0  0  0
   -4.6020   -2.6886   -9.4643 C   0  0  0  0  0  0  0  0  0  0  0  0
   -4.1020   -1.4629  -10.2238 C   0  0  1  0  0  0  0  0  0  0  0  0
   -4.4491   -0.2207   -9.4148 C   0  0  2  0  0  0  0  0  0  0  0  0
   -5.9705   -0.0903   -9.3083 C   0  0  1  0  0  0  0  0  0  0  0  0
   -6.5637   -1.2931   -8.5537 C   0  0  1  0  0  0  0  0  0  0  0  0
   -6.5299   -3.7513   -8.2867 N   0  3  0  0  0  0  0  0  0  0  0  0
   -2.6277   -1.5539  -10.4816 N   0  3  0  0  0  0  0  0  0  0  0  0
   -6.2938    1.1207   -8.6368 O   0  0  0  0  0  0  0  0  0  0  0  0
   -3.8967    0.9551  -10.0344 O   0  0  0  0  0  0  0  0  0  0  0  0
   -8.0045   -1.2439   -8.6130 O   0  0  0  0  0  0  0  0  0  0  0  0
   -4.4835    1.2626  -11.2688 C   0  0  2  0  0  0  0  0  0  0  0  0
   -3.5562    2.1796  -12.0733 C   0  0  1  0  0  0  0  0  0  0  0  0
   -3.5698    3.6020  -11.5129 C   0  0  0  0  0  0  0  0  0  0  0  0
   -5.0087    4.0847  -11.4257 C   0  0  1  0  0  0  0  0  0  0  0  0
   -5.8008    3.1366  -10.5424 C   0  0  1  0  0  0  0  0  0  0  0  0
   -7.2496    3.5701  -10.4112 C   0  0  0  0  0  0  0  0  0  0  0  0
   -2.1588    1.6425  -12.0248 N   0  3  0  0  0  0  0  0  0  0  0  0
   -7.9711    2.5389   -9.5871 N   0  3  0  0  0  0  0  0  0  0  0  0
   -5.0569    5.4001  -10.8916 O   0  0  0  0  0  0  0  0  0  0  0  0
   -5.7847    1.8213  -11.1226 O   0  0  0  0  0  0  0  0  0  0  0  0
  1  2  1  0  0  0  0
  1 22  1  6  0  0  0
  1 10  1  0  0  0  0
  2  3  1  0  0  0  0
  2  7  1  6  0  0  0
  3  4  1  0  0  0  0
  3  8  1  1  0  0  0
  4  5  1  0  0  0  0
  4  9  1  6  0  0  0
  5  6  1  1  0  0  0
  5 10  1  0  0  0  0
  6 11  1  0  0  0  0
 12 13  1  0  0  0  0
 12 17  1  0  0  0  0
 12 18  1  1  0  0  0
 13 14  1  0  0  0  0
 14 15  1  0  0  0  0
 14 19  1  1  0  0  0
 15 16  1  0  0  0  0
 15 21  1  6  0  0  0
 16 17  1  0  0  0  0
 16 20  1  1  0  0  0
 17 22  1  6  0  0  0
 23 21  1  1  0  0  0
 23 24  1  0  0  0  0
 23 32  1  0  0  0  0
 24 25  1  0  0  0  0
 24 29  1  1  0  0  0
 25 26  1  0  0  0  0
 26 27  1  0  0  0  0
 26 31  1  1  0  0  0
 27 28  1  6  0  0  0
 27 32  1  0  0  0  0
 28 30  1  0  0  0  0
M  CHG  5   8   1  18   1  19   1  29   1  30   1
M  END
>  <CHROM.1>
-165.69491301,-166.26191448,-151.91719541,-45.13035049,165.32998500,-169.02242401
69.16060918,-35.70544711,67.19698245,30.87369113,109.39498616,-160.21124786
-41.57562515,67.67519359,176.93951723,-70.35367835,-6.80850250,0.55343688
-9.26752349,-2.68472331,0.41325728,-0.20283913

>  <Name>
2tob cryst

>  <RI>
0

>  <Rbt.Current_Directory>
/home/itssahil/PROJECTS/Mol_Feturizer/New_Systems/rnas/2tob

>  <Rbt.Executable>
rbdock ($Id: //depot/dev/client3/rdock/2013.1/src/exe/rbdock.cxx#4 $)

>  <Rbt.Library>
libRbt.so (2013.1, Build901 2013/11/27)

>  <Rbt.Parameter_File>
/export/apps/rDock/src/rDock_2013.1_src/data/scripts/dock_solv.prm

>  <Rbt.Receptor>
prm/blind_docking_60.prm

>  <SCORE>
119.342

>  <SCORE.INTER>
117.549

>  <SCORE.INTER.CONST>
1

>  <SCORE.INTER.POLAR>
-4.34415

>  <SCORE.INTER.ROT>
6

>  <SCORE.INTER.SOLV>
46.4445

>  <SCORE.INTER.VDW>
69.7647

>  <SCORE.INTER.norm>
3.67339

>  <SCORE.INTRA>
-6.41707

>  <SCORE.INTRA.DIHEDRAL>
2.45371

>  <SCORE.INTRA.DIHEDRAL.0>
18.4221

>  <SCORE.INTRA.POLAR>
0.834678

>  <SCORE.INTRA.POLAR.0>
-1.57101

>  <SCORE.INTRA.REPUL>
-0.644401

>  <SCORE.INTRA.REPUL.0>
0.730195

>  <SCORE.INTRA.SOLV>
6.11157

>  <SCORE.INTRA.SOLV.lig_0>
-127.221

>  <SCORE.INTRA.VDW>
-10.3156

>  <SCORE.INTRA.VDW.0>
10.8385

>  <SCORE.INTRA.norm>
-0.200533

>  <SCORE.RESTR>
8.21002

>  <SCORE.RESTR.CAVITY>
8.21002

>  <SCORE.RESTR.norm>
0.256563

>  <SCORE.SYSTEM>
0

>  <SCORE.SYSTEM.CONST>
0

>  <SCORE.SYSTEM.DIHEDRAL>
0

>  <SCORE.SYSTEM.SOLV>
0

>  <SCORE.SYSTEM.norm>
0

>  <SCORE.heavy>
32

>  <SCORE.norm>
3.72942

>  <RMSD>
8.657

$$$$
2tob cryst
 OpenBabel11021811463D
libRbt.so/2013.1/901 2013/11/27
 32 34  0  0  0  0  0  0  0  0999 V2000
  -13.7253   -4.3780   -6.1376 C   0  0  2  0  0  0  0  0  0  0  0  0
  -14.5397   -5.6485   -5.9152 C   0  0  1  0  0  0  0  0  0  0  0  0
  -15.2708   -6.0019   -7.2107 C   0  0  2  0  0  0  0  0  0  0  0  0
  -16.1204   -4.8208   -7.6983 C   0  0  1  0  0  0  0  0  0  0  0  0
  -15.2617   -3.5536   -7.7738 C   0  0  1  0  0  0  0  0  0  0  0  0
  -16.0376   -2.2899   -8.1072 C   0  0  0  0  0  0  0  0  0  0  0  0
  -13.6787   -6.7197   -5.5383 O   0  0  0  0  0  0  0  0  0  0  0  0
  -16.1471   -7.2159   -7.2015 N   0  3  0  0  0  0  0  0  0  0  0  0
  -16.6442   -5.1279   -8.9843 O   0  0  0  0  0  0  0  0  0  0  0  0
  -14.6019   -3.3318   -6.5113 O   0  0  0  0  0  0  0  0  0  0  0  0
  -17.4339   -2.5584   -8.1858 O   0  0  0  0  0  0  0  0  0  0  0  0
  -10.4799   -5.3575   -7.0987 C   0  0  2  0  0  0  0  0  0  0  0  0
   -8.9985   -4.9681   -7.1937 C   0  0  0  0  0  0  0  0  0  0  0  0
   -8.7586   -3.8547   -8.2097 C   0  0  1  0  0  0  0  0  0  0  0  0
   -9.6137   -2.6564   -7.8213 C   0  0  2  0  0  0  0  0  0  0  0  0
  -11.0940   -3.0349   -7.9144 C   0  0  1  0  0  0  0  0  0  0  0  0
  -11.4268   -4.1604   -6.9192 C   0  0  1  0  0  0  0  0  0  0  0  0
  -10.7005   -6.3265   -5.9728 N   0  3  0  0  0  0  0  0  0  0  0  0
   -7.3055   -3.4914   -8.2770 N   0  3  0  0  0  0  0  0  0  0  0  0
  -11.8912   -1.8883   -7.6460 O   0  0  0  0  0  0  0  0  0  0  0  0
   -9.3366   -1.5384   -8.6843 O   0  0  0  0  0  0  0  0  0  0  0  0
  -12.7755   -4.6232   -7.1393 O   0  0  0  0  0  0  0  0  0  0  0  0
   -8.7708   -0.4450   -8.0156 C   0  0  2  0  0  0  0  0  0  0  0  0
   -9.3169    0.8626   -8.5986 C   0  0  1  0  0  0  0  0  0  0  0  0
   -8.6989    1.1539   -9.9664 C   0  0  0  0  0  0  0  0  0  0  0  0
   -7.1845    1.1052   -9.8446 C   0  0  1  0  0  0  0  0  0  0  0  0
   -6.7684   -0.2625   -9.3318 C   0  0  1  0  0  0  0  0  0  0  0  0
   -5.2610   -0.3756   -9.1938 C   0  0  0  0  0  0  0  0  0  0  0  0
  -10.8048    0.7629   -8.7395 N   0  3  0  0  0  0  0  0  0  0  0  0
   -4.6658   -0.3723  -10.5753 N   0  3  0  0  0  0  0  0  0  0  0  0
   -6.5792    1.3557  -11.1051 O   0  0  0  0  0  0  0  0  0  0  0  0
   -7.3478   -0.4797   -8.0340 O   0  0  0  0  0  0  0  0  0  0  0  0
  1  2  1  0  0  0  0
  1 22  1  6  0  0  0
  1 10  1  0  0  0  0
  2  3  1  0  0  0  0
  2  7  1  6  0  0  0
  3  4  1  0  0  0  0
  3  8  1  1  0  0  0
  4  5  1  0  0  0  0
  4  9  1  6  0  0  0
  5  6  1  1  0  0  0
  5 10  1  0  0  0  0
  6 11  1  0  0  0  0
 12 13  1  0  0  0  0
 12 17  1  0  0  0  0
 12 18  1  1  0  0  0
 13 14  1  0  0  0  0
 14 15  1  0  0  0  0
 14 19  1  1  0  0  0
 15 16  1  0  0  0  0
 15 21  1  6  0  0  0
 16 17  1  0  0  0  0
 16 20  1  1  0  0  0
 17 22  1  6  0  0  0
 23 21  1  6  0  0  0
 23 24  1  0  0  0  0
 23 32  1  0  0  0  0
 24 25  1  0  0  0  0
 24 29  1  6  0  0  0
 25 26  1  0  0  0  0
 26 27  1  0  0  0  0
 26 31  1  6  0  0  0
 27 28  1  1  0  0  0
 27 32  1  0  0  0  0
 28 30  1  0  0  0  0
M  CHG  5   8   1  18   1  19   1  29   1  30   1
M  END
>  <CHROM.1>
-135.21168087,76.48821175,60.25268118,-65.56041837,4.09909411,-60.12859613
-169.21876421,-156.12264457,-115.49214657,-176.01755948,125.88745547,-142.78160071
99.92455927,149.78970961,-68.90032992,-106.01239813,-11.18239680,-2.83390455
-8.00246697,-2.55850494,0.00669960,-0.42221890

>  <Name>
2tob cryst

>  <RI>
0

>  <Rbt.Current_Directory>
/home/itssahil/PROJECTS/Mol_Feturizer/New_Systems/rnas/2tob

>  <Rbt.Executable>
rbdock ($Id: //depot/dev/client3/rdock/2013.1/src/exe/rbdock.cxx#4 $)

>  <Rbt.Library>
libRbt.so (2013.1, Build901 2013/11/27)

>  <Rbt.Parameter_File>
/export/apps/rDock/src/rDock_2013.1_src/data/scripts/dock_solv.prm

>  <Rbt.Receptor>
prm/pocket_docking_5.prm

>  <SCORE>
-48.3124

>  <SCORE.INTER>
-37.7084

>  <SCORE.INTER.CONST>
1

>  <SCORE.INTER.POLAR>
-6.207

>  <SCORE.INTER.ROT>
6

>  <SCORE.INTER.SOLV>
30.136

>  <SCORE.INTER.VDW>
-22.0942

>  <SCORE.INTER.norm>
-1.17839

>  <SCORE.INTRA>
-10.604

>  <SCORE.INTRA.DIHEDRAL>
24.7899

>  <SCORE.INTRA.DIHEDRAL.0>
18.4221

>  <SCORE.INTRA.POLAR>
-1.54309

>  <SCORE.INTRA.POLAR.0>
-1.57101

>  <SCORE.INTRA.REPUL>
-0.730195

>  <SCORE.INTRA.REPUL.0>
0.730195

>  <SCORE.INTRA.SOLV>
-0.624904

>  <SCORE.INTRA.SOLV.lig_0>
-127.221

>  <SCORE.INTRA.VDW>
-13.789

>  <SCORE.INTRA.VDW.0>
10.8385

>  <SCORE.INTRA.norm>
-0.331375

>  <SCORE.RESTR>
0

>  <SCORE.RESTR.CAVITY>
0

>  <SCORE.RESTR.norm>
0

>  <SCORE.SYSTEM>
0

>  <SCORE.SYSTEM.CONST>
0

>  <SCORE.SYSTEM.DIHEDRAL>
0

>  <SCORE.SYSTEM.SOLV>
0

>  <SCORE.SYSTEM.norm>
0

>  <SCORE.heavy>
32

>  <SCORE.norm>
-1.50976

>  <RMSD>
8.695

$$$$
2tob cryst
 OpenBabel11021811463D
libRbt.so/2013.1/901 2013/11/27
 32 34  0  0  0  0  0  0  0  0999 V2000
  -11.4864   -3.0782   -7.0670 C   0  0  2  0  0  0  0  0  0  0  0  0
  -11.7435   -4.3728   -7.8319 C   0  0  1  0  0  0  0  0  0  0  0  0
  -12.6362   -4.0687   -9.0353 C   0  0  2  0  0  0  0  0  0  0  0  0
  -13.9264   -3.3646   -8.5945 C   0  0  1  0  0  0  0  0  0  0  0  0
  -13.5887   -2.1484   -7.7252 C   0  0  1  0  0  0  0  0  0  0  0  0
  -14.7980   -1.4604   -7.1135 C   0  0  0  0  0  0  0  0  0  0  0  0
  -10.5091   -4.9308   -8.2744 O   0  0  0  0  0  0  0  0  0  0  0  0
  -13.0252   -5.2158   -9.9155 N   0  3  0  0  0  0  0  0  0  0  0  0
  -14.6443   -2.9495   -9.7498 O   0  0  0  0  0  0  0  0  0  0  0  0
  -12.7258   -2.5447   -6.6405 O   0  0  0  0  0  0  0  0  0  0  0  0
  -15.9824   -2.2162   -7.3454 O   0  0  0  0  0  0  0  0  0  0  0  0
   -8.7017   -3.2776   -7.5300 C   0  0  2  0  0  0  0  0  0  0  0  0
   -7.1709   -3.1716   -7.5524 C   0  0  0  0  0  0  0  0  0  0  0  0
   -6.6681   -2.3264   -8.7195 C   0  0  1  0  0  0  0  0  0  0  0  0
   -7.3090   -0.9485   -8.6271 C   0  0  2  0  0  0  0  0  0  0  0  0
   -8.8253   -1.0794   -8.7910 C   0  0  1  0  0  0  0  0  0  0  0  0
   -9.4202   -1.9244   -7.6507 C   0  0  1  0  0  0  0  0  0  0  0  0
   -9.1657   -3.9657   -6.2784 N   0  3  0  0  0  0  0  0  0  0  0  0
   -5.1715   -2.2356   -8.7128 N   0  3  0  0  0  0  0  0  0  0  0  0
   -9.4116    0.2160   -8.8018 O   0  0  0  0  0  0  0  0  0  0  0  0
   -6.7780   -0.0765   -9.6416 O   0  0  0  0  0  0  0  0  0  0  0  0
  -10.8154   -2.1833   -7.9122 O   0  0  0  0  0  0  0  0  0  0  0  0
   -5.7060    0.7082   -9.1968 C   0  0  2  0  0  0  0  0  0  0  0  0
   -5.9138    2.1653   -9.6230 C   0  0  1  0  0  0  0  0  0  0  0  0
   -5.6525    2.3421  -11.1190 C   0  0  0  0  0  0  0  0  0  0  0  0
   -4.2789    1.7811  -11.4501 C   0  0  1  0  0  0  0  0  0  0  0  0
   -4.2281    0.3166  -11.0509 C   0  0  1  0  0  0  0  0  0  0  0  0
   -2.8783   -0.3037  -11.3629 C   0  0  0  0  0  0  0  0  0  0  0  0
   -7.3198    2.5795   -9.3145 N   0  3  0  0  0  0  0  0  0  0  0  0
   -1.8486    0.7929  -11.3524 N   0  3  0  0  0  0  0  0  0  0  0  0
   -4.0122    1.9152  -12.8389 O   0  0  0  0  0  0  0  0  0  0  0  0
   -4.4496    0.2021   -9.6350 O   0  0  0  0  0  0  0  0  0  0  0  0
  1  2  1  0  0  0  0
  1 22  1  6  0  0  0
  1 10  1  0  0  0  0
  2  3  1  0  0  0  0
  2  7  1  6  0  0  0
  3  4  1  0  0  0  0
  3  8  1  1  0  0  0
  4  5  1  0  0  0  0
  4  9  1  6  0  0  0
  5  6  1  1  0  0  0
  5 10  1  0  0  0  0
  6 11  1  0  0  0  0
 12 13  1  0  0  0  0
 12 17  1  0  0  0  0
 12 18  1  1  0  0  0
 13 14  1  0  0  0  0
 14 15  1  0  0  0  0
 14 19  1  1  0  0  0
 15 16  1  0  0  0  0
 15 21  1  6  0  0  0
 16 17  1  0  0  0  0
 16 20  1  1  0  0  0
 17 22  1  6  0  0  0
 23 21  1  6  0  0  0
 23 24  1  0  0  0  0
 23 32  1  0  0  0  0
 24 25  1  0  0  0  0
 24 29  1  6  0  0  0
 25 26  1  0  0  0  0
 26 27  1  0  0  0  0
 26 31  1  6  0  0  0
 27 28  1  1  0  0  0
 27 32  1  0  0  0  0
 28 30  1  0  0  0  0
M  CHG  5   8   1  18   1  19   1  29   1  30   1
M  END
>  <CHROM.1>
-107.81955509,179.39502792,165.68264185,-57.98013413,7.79614768,-59.48968727
47.25217499,113.49287933,-94.31862393,178.87475266,50.91501194,-132.85340322
-159.20033055,72.23047917,26.22718785,52.57336576,-8.79148195,-1.40422387
-8.97189448,-2.64973728,0.11178724,-0.37787366

>  <Name>
2tob cryst

>  <RI>
0

>  <Rbt.Current_Directory>
/home/itssahil/PROJECTS/Mol_Feturizer/New_Systems/rnas/2tob

>  <Rbt.Executable>
rbdock ($Id: //depot/dev/client3/rdock/2013.1/src/exe/rbdock.cxx#4 $)

>  <Rbt.Library>
libRbt.so (2013.1, Build901 2013/11/27)

>  <Rbt.Parameter_File>
/export/apps/rDock/src/rDock_2013.1_src/data/scripts/dock_solv.prm

>  <Rbt.Receptor>
prm/blind_docking_80.prm

>  <SCORE>
10.2192

>  <SCORE.INTER>
1.31814

>  <SCORE.INTER.CONST>
1

>  <SCORE.INTER.POLAR>
-2.64261

>  <SCORE.INTER.ROT>
6

>  <SCORE.INTER.SOLV>
36.8776

>  <SCORE.INTER.VDW>
-10.2051

>  <SCORE.INTER.norm>
0.041192

>  <SCORE.INTRA>
4.96792

>  <SCORE.INTRA.DIHEDRAL>
13.7428

>  <SCORE.INTRA.DIHEDRAL.0>
18.4221

>  <SCORE.INTRA.POLAR>
-0.771523

>  <SCORE.INTRA.POLAR.0>
-1.57101

>  <SCORE.INTRA.REPUL>
-0.730195

>  <SCORE.INTRA.REPUL.0>
0.730195

>  <SCORE.INTRA.SOLV>
2.93111

>  <SCORE.INTRA.SOLV.lig_0>
-127.221

>  <SCORE.INTRA.VDW>
2.90513

>  <SCORE.INTRA.VDW.0>
10.8385

>  <SCORE.INTRA.norm>
0.155247

>  <SCORE.RESTR>
3.93317

>  <SCORE.RESTR.CAVITY>
3.93317

>  <SCORE.RESTR.norm>
0.122912

>  <SCORE.SYSTEM>
0

>  <SCORE.SYSTEM.CONST>
0

>  <SCORE.SYSTEM.DIHEDRAL>
0

>  <SCORE.SYSTEM.SOLV>
0

>  <SCORE.SYSTEM.norm>
0

>  <SCORE.heavy>
32

>  <SCORE.norm>
0.319351

>  <RMSD>
8.697

$$$$
2tob cryst
 OpenBabel11021811463D
libRbt.so/2013.1/901 2013/11/27
 32 34  0  0  0  0  0  0  0  0999 V2000
   -9.4015   -0.4337   -5.9501 C   0  0  2  0  0  0  0  0  0  0  0  0
   -9.4520   -1.4811   -4.8421 C   0  0  1  0  0  0  0  0  0  0  0  0
   -8.9732   -2.8202   -5.4035 C   0  0  2  0  0  0  0  0  0  0  0  0
   -9.7876   -3.2159   -6.6424 C   0  0  1  0  0  0  0  0  0  0  0  0
   -9.7954   -2.0645   -7.6538 C   0  0  1  0  0  0  0  0  0  0  0  0
  -10.6946   -2.2941   -8.8575 C   0  0  0  0  0  0  0  0  0  0  0  0
   -8.6161   -1.0846   -3.7582 O   0  0  0  0  0  0  0  0  0  0  0  0
   -8.9620   -3.9951   -4.4755 N   0  3  0  0  0  0  0  0  0  0  0  0
   -9.2037   -4.3720   -7.2295 O   0  0  0  0  0  0  0  0  0  0  0  0
  -10.2373   -0.8511   -7.0130 O   0  0  0  0  0  0  0  0  0  0  0  0
  -12.0669   -2.2610   -8.4787 O   0  0  0  0  0  0  0  0  0  0  0  0
   -8.2830    1.6917   -7.7252 C   0  0  2  0  0  0  0  0  0  0  0  0
   -7.8227    2.4603   -8.9713 C   0  0  0  0  0  0  0  0  0  0  0  0
   -6.3323    2.2774   -9.2442 C   0  0  1  0  0  0  0  0  0  0  0  0
   -6.0482    0.7884   -9.3860 C   0  0  2  0  0  0  0  0  0  0  0  0
   -6.3496    0.0835   -8.0611 C   0  0  1  0  0  0  0  0  0  0  0  0
   -7.8402    0.2202   -7.7040 C   0  0  1  0  0  0  0  0  0  0  0  0
   -9.7772    1.7531   -7.5883 N   0  3  0  0  0  0  0  0  0  0  0  0
   -5.9126    3.0338  -10.4689 N   0  3  0  0  0  0  0  0  0  0  0  0
   -5.9918   -1.2888   -8.1655 O   0  0  0  0  0  0  0  0  0  0  0  0
   -4.6750    0.5703   -9.7580 O   0  0  0  0  0  0  0  0  0  0  0  0
   -8.0731   -0.2953   -6.3767 O   0  0  0  0  0  0  0  0  0  0  0  0
   -4.5039    0.2942  -11.1208 C   0  0  2  0  0  0  0  0  0  0  0  0
   -3.2381   -0.5439  -11.3284 C   0  0  1  0  0  0  0  0  0  0  0  0
   -1.9810    0.3105  -11.1629 C   0  0  0  0  0  0  0  0  0  0  0  0
   -2.0859    1.5247  -12.0715 C   0  0  1  0  0  0  0  0  0  0  0  0
   -3.3365    2.3090  -11.7144 C   0  0  1  0  0  0  0  0  0  0  0  0
   -3.4943    3.5412  -12.5867 C   0  0  0  0  0  0  0  0  0  0  0  0
   -3.2109   -1.6617  -10.3317 N   0  3  0  0  0  0  0  0  0  0  0  0
   -3.9565    3.0929  -13.9462 N   0  3  0  0  0  0  0  0  0  0  0  0
   -0.9382    2.3495  -11.9282 O   0  0  0  0  0  0  0  0  0  0  0  0
   -4.4920    1.4771  -11.9129 O   0  0  0  0  0  0  0  0  0  0  0  0
  1  2  1  0  0  0  0
  1 22  1  6  0  0  0
  1 10  1  0  0  0  0
  2  3  1  0  0  0  0
  2  7  1  1  0  0  0
  3  4  1  0  0  0  0
  3  8  1  1  0  0  0
  4  5  1  0  0  0  0
  4  9  1  6  0  0  0
  5  6  1  6  0  0  0
  5 10  1  0  0  0  0
  6 11  1  0  0  0  0
 12 13  1  0  0  0  0
 12 17  1  0  0  0  0
 12 18  1  6  0  0  0
 13 14  1  0  0  0  0
 14 15  1  0  0  0  0
 14 19  1  6  0  0  0
 15 16  1  0  0  0  0
 15 21  1  1  0  0  0
 16 17  1  0  0  0  0
 16 20  1  6  0  0  0
 17 22  1  1  0  0  0
 23 21  1  1  0  0  0
 23 24  1  0  0  0  0
 23 32  1  0  0  0  0
 24 25  1  0  0  0  0
 24 29  1  1  0  0  0
 25 26  1  0  0  0  0
 26 27  1  0  0  0  0
 26 31  1  1  0  0  0
 27 28  1  6  0  0  0
 27 32  1  0  0  0  0
 28 30  1  0  0  0  0
M  CHG  5   8   1  18   1  19   1  29   1  30   1
M  END
>  <CHROM.1>
156.71139587,61.59546059,-165.91076732,177.64690721,69.37923814,179.97014948
97.77289805,-109.74178804,-101.19038024,177.20537172,67.73058141,-153.29452462
-31.41371058,-58.66803675,75.05766331,50.32626832,-6.74851104,-0.04967166
-8.80565929,2.44125785,-0.44593520,2.64980120

>  <Name>
2tob cryst

>  <RI>
0

>  <Rbt.Current_Directory>
/home/itssahil/PROJECTS/Mol_Feturizer/New_Systems/rnas/2tob

>  <Rbt.Executable>
rbdock ($Id: //depot/dev/client3/rdock/2013.1/src/exe/rbdock.cxx#4 $)

>  <Rbt.Library>
libRbt.so (2013.1, Build901 2013/11/27)

>  <Rbt.Parameter_File>
/export/apps/rDock/src/rDock_2013.1_src/data/scripts/dock_solv.prm

>  <Rbt.Receptor>
prm/blind_docking_40.prm

>  <SCORE>
-21.4464

>  <SCORE.INTER>
-15.3781

>  <SCORE.INTER.CONST>
1

>  <SCORE.INTER.POLAR>
-2.33119

>  <SCORE.INTER.ROT>
6

>  <SCORE.INTER.SOLV>
35.1299

>  <SCORE.INTER.VDW>
-21.7913

>  <SCORE.INTER.norm>
-0.480564

>  <SCORE.INTRA>
-14.5086

>  <SCORE.INTRA.DIHEDRAL>
2.26572

>  <SCORE.INTRA.DIHEDRAL.0>
18.4221

>  <SCORE.INTRA.POLAR>
-0.163005

>  <SCORE.INTRA.POLAR.0>
-1.57101

>  <SCORE.INTRA.REPUL>
-0.730195

>  <SCORE.INTRA.REPUL.0>
0.730195

>  <SCORE.INTRA.SOLV>
0.00485487

>  <SCORE.INTRA.SOLV.lig_0>
-127.221

>  <SCORE.INTRA.VDW>
-11.4387

>  <SCORE.INTRA.VDW.0>
10.8385

>  <SCORE.INTRA.norm>
-0.453395

>  <SCORE.RESTR>
8.44027

>  <SCORE.RESTR.CAVITY>
8.44027

>  <SCORE.RESTR.norm>
0.263758

>  <SCORE.SYSTEM>
0

>  <SCORE.SYSTEM.CONST>
0

>  <SCORE.SYSTEM.DIHEDRAL>
0

>  <SCORE.SYSTEM.SOLV>
0

>  <SCORE.SYSTEM.norm>
0

>  <SCORE.heavy>
32

>  <SCORE.norm>
-0.670201

>  <RMSD>
8.698

$$$$
2tob cryst
 OpenBabel11021811463D
libRbt.so/2013.1/901 2013/11/27
 32 34  0  0  0  0  0  0  0  0999 V2000
  -15.8165   -4.5459   -4.7791 C   0  0  2  0  0  0  0  0  0  0  0  0
  -17.1504   -4.6381   -4.0448 C   0  0  1  0  0  0  0  0  0  0  0  0
  -17.2116   -3.5352   -2.9876 C   0  0  2  0  0  0  0  0  0  0  0  0
  -16.0014   -3.6118   -2.0474 C   0  0  1  0  0  0  0  0  0  0  0  0
  -14.7048   -3.6436   -2.8640 C   0  0  1  0  0  0  0  0  0  0  0  0
  -13.4489   -3.8654   -2.0372 C   0  0  0  0  0  0  0  0  0  0  0  0
  -18.2260   -4.4841   -4.9669 O   0  0  0  0  0  0  0  0  0  0  0  0
  -18.4413   -3.4602   -2.1366 N   0  3  0  0  0  0  0  0  0  0  0  0
  -16.0074   -2.4753   -1.1927 O   0  0  0  0  0  0  0  0  0  0  0  0
  -14.7668   -4.7004   -3.8427 O   0  0  0  0  0  0  0  0  0  0  0  0
  -13.2515   -2.7955   -1.1185 O   0  0  0  0  0  0  0  0  0  0  0  0
  -15.4269   -2.3470   -7.6114 C   0  0  2  0  0  0  0  0  0  0  0  0
  -14.4361   -1.8369   -8.6665 C   0  0  0  0  0  0  0  0  0  0  0  0
  -13.2474   -1.1133   -8.0397 C   0  0  1  0  0  0  0  0  0  0  0  0
  -12.5652   -2.0633   -7.0650 C   0  0  2  0  0  0  0  0  0  0  0  0
  -13.5302   -2.4061   -5.9272 C   0  0  1  0  0  0  0  0  0  0  0  0
  -14.7678   -3.1405   -6.4722 C   0  0  1  0  0  0  0  0  0  0  0  0
  -16.4864   -3.1989   -8.2493 N   0  3  0  0  0  0  0  0  0  0  0  0
  -12.2945   -0.6317   -9.0923 N   0  3  0  0  0  0  0  0  0  0  0  0
  -12.8600   -3.2145   -4.9684 O   0  0  0  0  0  0  0  0  0  0  0  0
  -11.3690   -1.4658   -6.5323 O   0  0  0  0  0  0  0  0  0  0  0  0
  -15.7421   -3.3013   -5.4203 O   0  0  0  0  0  0  0  0  0  0  0  0
  -10.2173   -1.7726   -7.2686 C   0  0  2  0  0  0  0  0  0  0  0  0
   -9.0564   -2.0807   -6.3172 C   0  0  1  0  0  0  0  0  0  0  0  0
   -8.5190   -0.8017   -5.6747 C   0  0  0  0  0  0  0  0  0  0  0  0
   -8.1845    0.1981   -6.7698 C   0  0  1  0  0  0  0  0  0  0  0  0
   -9.4318    0.4756   -7.5908 C   0  0  1  0  0  0  0  0  0  0  0  0
   -9.1622    1.4750   -8.7011 C   0  0  0  0  0  0  0  0  0  0  0  0
   -9.5258   -3.0137   -5.2435 N   0  3  0  0  0  0  0  0  0  0  0  0
   -8.8412    0.7046   -9.9527 N   0  3  0  0  0  0  0  0  0  0  0  0
   -7.6974    1.4065   -6.2036 O   0  0  0  0  0  0  0  0  0  0  0  0
   -9.8828   -0.7471   -8.1978 O   0  0  0  0  0  0  0  0  0  0  0  0
  1  2  1  0  0  0  0
  1 22  1  1  0  0  0
  1 10  1  0  0  0  0
  2  3  1  0  0  0  0
  2  7  1  6  0  0  0
  3  4  1  0  0  0  0
  3  8  1  1  0  0  0
  4  5  1  0  0  0  0
  4  9  1  1  0  0  0
  5  6  1  1  0  0  0
  5 10  1  0  0  0  0
  6 11  1  0  0  0  0
 12 13  1  0  0  0  0
 12 17  1  0  0  0  0
 12 18  1  6  0  0  0
 13 14  1  0  0  0  0
 14 15  1  0  0  0  0
 14 19  1  6  0  0  0
 15 16  1  0  0  0  0
 15 21  1  1  0  0  0
 16 17  1  0  0  0  0
 16 20  1  1  0  0  0
 17 22  1  1  0  0  0
 23 21  1  1  0  0  0
 23 24  1  0  0  0  0
 23 32  1  0  0  0  0
 24 25  1  0  0  0  0
 24 29  1  1  0  0  0
 25 26  1  0  0  0  0
 26 27  1  0  0  0  0
 26 31  1  1  0  0  0
 27 28  1  6  0  0  0
 27 32  1  0  0  0  0
 28 30  1  0  0  0  0
M  CHG  5   8   1  18   1  19   1  29   1  30   1
M  END
>  <CHROM.1>
-162.48103018,-56.55556724,-62.16514366,-174.02637012,-62.83129396,-176.08401034
29.82279396,69.20388428,-91.94433902,-62.65098866,138.57473595,-137.94321563
59.17261206,-69.75475849,94.32129849,34.23223817,-13.07739415,-2.20222677
-5.66868363,2.55993351,0.34897745,1.79791742

>  <Name>
2tob cryst

>  <RI>
3.75586e+07

>  <Rbt.Current_Directory>
/home/itssahil/PROJECTS/Mol_Feturizer/New_Systems/rnas/2tob

>  <Rbt.Executable>
rbdock ($Id: //depot/dev/client3/rdock/2013.1/src/exe/rbdock.cxx#4 $)

>  <Rbt.Library>
libRbt.so (2013.1, Build901 2013/11/27)

>  <Rbt.Parameter_File>
/export/apps/rDock/src/rDock_2013.1_src/data/scripts/dock_solv.prm

>  <Rbt.Receptor>
prm/pocket_docking_8.prm

>  <SCORE>
-44.1495

>  <SCORE.INTER>
-28.5611

>  <SCORE.INTER.CONST>
1

>  <SCORE.INTER.POLAR>
-4.07855

>  <SCORE.INTER.ROT>
6

>  <SCORE.INTER.SOLV>
19.4692

>  <SCORE.INTER.VDW>
-19.5354

>  <SCORE.INTER.norm>
-0.892536

>  <SCORE.INTRA>
-15.5884

>  <SCORE.INTRA.DIHEDRAL>
5.84453

>  <SCORE.INTRA.DIHEDRAL.0>
18.4221

>  <SCORE.INTRA.POLAR>
-0.127049

>  <SCORE.INTRA.POLAR.0>
-1.57101

>  <SCORE.INTRA.REPUL>
-0.730195

>  <SCORE.INTRA.REPUL.0>
0.730195

>  <SCORE.INTRA.SOLV>
-1.08346

>  <SCORE.INTRA.SOLV.lig_0>
-127.221

>  <SCORE.INTRA.VDW>
-13.8859

>  <SCORE.INTRA.VDW.0>
10.8385

>  <SCORE.INTRA.norm>
-0.487136

>  <SCORE.RESTR>
0

>  <SCORE.RESTR.CAVITY>
0

>  <SCORE.RESTR.norm>
0

>  <SCORE.SYSTEM>
0

>  <SCORE.SYSTEM.CONST>
0

>  <SCORE.SYSTEM.DIHEDRAL>
0

>  <SCORE.SYSTEM.SOLV>
0

>  <SCORE.SYSTEM.norm>
0

>  <SCORE.heavy>
32

>  <SCORE.norm>
-1.37967

>  <RMSD>
8.722

$$$$
2tob cryst
 OpenBabel11021811463D
libRbt.so/2013.1/901 2013/11/27
 32 34  0  0  0  0  0  0  0  0999 V2000
   -9.7335   -1.8686   -8.7703 C   0  0  2  0  0  0  0  0  0  0  0  0
  -11.0619   -1.4940   -8.1206 C   0  0  1  0  0  0  0  0  0  0  0  0
  -10.9388   -1.6649   -6.6062 C   0  0  2  0  0  0  0  0  0  0  0  0
  -10.4756   -3.0844   -6.2524 C   0  0  1  0  0  0  0  0  0  0  0  0
   -9.2085   -3.4337   -7.0405 C   0  0  1  0  0  0  0  0  0  0  0  0
   -8.7445   -4.8716   -6.8756 C   0  0  0  0  0  0  0  0  0  0  0  0
  -11.3914   -0.1424   -8.4293 O   0  0  0  0  0  0  0  0  0  0  0  0
  -12.1474   -1.3634   -5.7755 N   0  3  0  0  0  0  0  0  0  0  0  0
  -10.2111   -3.1499   -4.8567 O   0  0  0  0  0  0  0  0  0  0  0  0
   -9.4290   -3.2124   -8.4479 O   0  0  0  0  0  0  0  0  0  0  0  0
   -9.7795   -5.7822   -7.2324 O   0  0  0  0  0  0  0  0  0  0  0  0
   -8.3092    1.2614   -9.0163 C   0  0  2  0  0  0  0  0  0  0  0  0
   -7.3740    2.2212   -9.7642 C   0  0  0  0  0  0  0  0  0  0  0  0
   -5.9030    1.8680   -9.5620 C   0  0  1  0  0  0  0  0  0  0  0  0
   -5.6863    0.4310  -10.0160 C   0  0  2  0  0  0  0  0  0  0  0  0
   -6.4989   -0.5129   -9.1260 C   0  0  1  0  0  0  0  0  0  0  0  0
   -8.0039   -0.2240   -9.2658 C   0  0  1  0  0  0  0  0  0  0  0  0
   -9.7419    1.5316   -9.3765 N   0  3  0  0  0  0  0  0  0  0  0  0
   -5.0141    2.8176  -10.3078 N   0  3  0  0  0  0  0  0  0  0  0  0
   -6.2199   -1.8592   -9.4887 O   0  0  0  0  0  0  0  0  0  0  0  0
   -4.2902    0.0871   -9.9522 O   0  0  0  0  0  0  0  0  0  0  0  0
   -8.7412   -0.9984   -8.2970 O   0  0  0  0  0  0  0  0  0  0  0  0
   -3.7241   -0.1801  -11.2055 C   0  0  2  0  0  0  0  0  0  0  0  0
   -2.5159   -1.1087  -11.0450 C   0  0  1  0  0  0  0  0  0  0  0  0
   -1.3174   -0.3551  -10.4677 C   0  0  0  0  0  0  0  0  0  0  0  0
   -1.0532    0.8774  -11.3173 C   0  0  1  0  0  0  0  0  0  0  0  0
   -2.2969    1.7491  -11.3331 C   0  0  1  0  0  0  0  0  0  0  0  0
   -2.0929    3.0030  -12.1638 C   0  0  0  0  0  0  0  0  0  0  0  0
   -2.8746   -2.2406  -10.1319 N   0  3  0  0  0  0  0  0  0  0  0  0
   -3.3879    3.3133  -12.8637 N   0  3  0  0  0  0  0  0  0  0  0  0
    0.0465    1.6102  -10.7961 O   0  0  0  0  0  0  0  0  0  0  0  0
   -3.3873    1.0105  -11.9095 O   0  0  0  0  0  0  0  0  0  0  0  0
  1  2  1  0  0  0  0
  1 22  1  1  0  0  0
  1 10  1  0  0  0  0
  2  3  1  0  0  0  0
  2  7  1  1  0  0  0
  3  4  1  0  0  0  0
  3  8  1  1  0  0  0
  4  5  1  0  0  0  0
  4  9  1  1  0  0  0
  5  6  1  6  0  0  0
  5 10  1  0  0  0  0
  6 11  1  0  0  0  0
 12 13  1  0  0  0  0
 12 17  1  0  0  0  0
 12 18  1  6  0  0  0
 13 14  1  0  0  0  0
 14 15  1  0  0  0  0
 14 19  1  6  0  0  0
 15 16  1  0  0  0  0
 15 21  1  1  0  0  0
 16 17  1  0  0  0  0
 16 20  1  6  0  0  0
 17 22  1  1  0  0  0
 23 21  1  1  0  0  0
 23 24  1  0  0  0  0
 23 32  1  0  0  0  0
 24 25  1  0  0  0  0
 24 29  1  1  0  0  0
 25 26  1  0  0  0  0
 26 27  1  0  0  0  0
 26 31  1  1  0  0  0
 27 28  1  6  0  0  0
 27 32  1  0  0  0  0
 28 30  1  0  0  0  0
M  CHG  5   8   1  18   1  19   1  29   1  30   1
M  END
>  <CHROM.1>
-122.45848911,-160.90367423,-152.64142986,63.47270790,56.24837267,-61.53024903
73.09060059,34.38170399,-115.13097056,177.02754622,116.09330656,-154.53844119
-41.89147672,178.38689854,143.88018735,93.75189994,-6.64048445,-0.49553488
-9.22895632,2.59481457,-0.31752592,2.77914089

>  <Name>
2tob cryst

>  <RI>
0

>  <Rbt.Current_Directory>
/home/itssahil/PROJECTS/Mol_Feturizer/New_Systems/rnas/2tob

>  <Rbt.Executable>
rbdock ($Id: //depot/dev/client3/rdock/2013.1/src/exe/rbdock.cxx#4 $)

>  <Rbt.Library>
libRbt.so (2013.1, Build901 2013/11/27)

>  <Rbt.Parameter_File>
/export/apps/rDock/src/rDock_2013.1_src/data/scripts/dock_solv.prm

>  <Rbt.Receptor>
prm/blind_docking_100.prm

>  <SCORE>
14.5505

>  <SCORE.INTER>
12.6083

>  <SCORE.INTER.CONST>
1

>  <SCORE.INTER.POLAR>
-4.77332

>  <SCORE.INTER.ROT>
6

>  <SCORE.INTER.SOLV>
39.3995

>  <SCORE.INTER.VDW>
3.58342

>  <SCORE.INTER.norm>
0.394009

>  <SCORE.INTRA>
-7.83803

>  <SCORE.INTRA.DIHEDRAL>
17.345

>  <SCORE.INTRA.DIHEDRAL.0>
18.4221

>  <SCORE.INTRA.POLAR>
-0.254326

>  <SCORE.INTRA.POLAR.0>
-1.57101

>  <SCORE.INTRA.REPUL>
-0.730195

>  <SCORE.INTRA.REPUL.0>
0.730195

>  <SCORE.INTRA.SOLV>
4.60657

>  <SCORE.INTRA.SOLV.lig_0>
-127.221

>  <SCORE.INTRA.VDW>
-14.2981

>  <SCORE.INTRA.VDW.0>
10.8385

>  <SCORE.INTRA.norm>
-0.244939

>  <SCORE.RESTR>
9.7802

>  <SCORE.RESTR.CAVITY>
9.7802

>  <SCORE.RESTR.norm>
0.305631

>  <SCORE.SYSTEM>
0

>  <SCORE.SYSTEM.CONST>
0

>  <SCORE.SYSTEM.DIHEDRAL>
0

>  <SCORE.SYSTEM.SOLV>
0

>  <SCORE.SYSTEM.norm>
0

>  <SCORE.heavy>
32

>  <SCORE.norm>
0.454702

>  <RMSD>
8.734

$$$$
2tob cryst
 OpenBabel11021811463D
libRbt.so/2013.1/901 2013/11/27
 32 34  0  0  0  0  0  0  0  0999 V2000
   -9.1983   -0.4041   -5.9732 C   0  0  2  0  0  0  0  0  0  0  0  0
   -9.2032   -1.5236   -4.9371 C   0  0  1  0  0  0  0  0  0  0  0  0
   -8.6886   -2.8064   -5.5907 C   0  0  2  0  0  0  0  0  0  0  0  0
   -9.5039   -3.1452   -6.8457 C   0  0  1  0  0  0  0  0  0  0  0  0
   -9.5595   -1.9302   -7.7781 C   0  0  1  0  0  0  0  0  0  0  0  0
  -10.4644   -2.1084   -8.9862 C   0  0  0  0  0  0  0  0  0  0  0  0
   -8.3681   -1.1731   -3.8368 O   0  0  0  0  0  0  0  0  0  0  0  0
   -8.6299   -4.0393   -4.7432 N   0  3  0  0  0  0  0  0  0  0  0  0
   -8.8904   -4.2404   -7.5139 O   0  0  0  0  0  0  0  0  0  0  0  0
  -10.0323   -0.7768   -7.0539 O   0  0  0  0  0  0  0  0  0  0  0  0
  -11.8227   -2.2560   -8.5848 O   0  0  0  0  0  0  0  0  0  0  0  0
   -8.1408    1.7813   -7.7572 C   0  0  2  0  0  0  0  0  0  0  0  0
   -7.7122    2.5495   -9.0147 C   0  0  0  0  0  0  0  0  0  0  0  0
   -6.2239    2.3870   -9.3110 C   0  0  1  0  0  0  0  0  0  0  0  0
   -5.9203    0.9015   -9.4494 C   0  0  2  0  0  0  0  0  0  0  0  0
   -6.1897    0.1996   -8.1160 C   0  0  1  0  0  0  0  0  0  0  0  0
   -7.6761    0.3166   -7.7353 C   0  0  1  0  0  0  0  0  0  0  0  0
   -9.6333    1.8216   -7.5962 N   0  3  0  0  0  0  0  0  0  0  0  0
   -5.8354    3.1425  -10.5464 N   0  3  0  0  0  0  0  0  0  0  0  0
   -5.8135   -1.1678   -8.2189 O   0  0  0  0  0  0  0  0  0  0  0  0
   -4.5503    0.7014   -9.8427 O   0  0  0  0  0  0  0  0  0  0  0  0
   -7.8798   -0.1949   -6.4016 O   0  0  0  0  0  0  0  0  0  0  0  0
   -4.4039    0.3391  -11.1880 C   0  0  2  0  0  0  0  0  0  0  0  0
   -3.2122   -0.6111  -11.3458 C   0  0  1  0  0  0  0  0  0  0  0  0
   -1.8883    0.1436  -11.2218 C   0  0  0  0  0  0  0  0  0  0  0  0
   -1.8928    1.3116  -12.1946 C   0  0  1  0  0  0  0  0  0  0  0  0
   -3.0735    2.2152  -11.8848 C   0  0  1  0  0  0  0  0  0  0  0  0
   -3.1292    3.4075  -12.8225 C   0  0  0  0  0  0  0  0  0  0  0  0
   -3.2772   -1.6720  -10.2904 N   0  3  0  0  0  0  0  0  0  0  0  0
   -3.2410    2.8879  -14.2298 N   0  3  0  0  0  0  0  0  0  0  0  0
   -0.6804    2.0448  -12.0917 O   0  0  0  0  0  0  0  0  0  0  0  0
   -4.2944    1.4725  -12.0425 O   0  0  0  0  0  0  0  0  0  0  0  0
  1  2  1  0  0  0  0
  1 22  1  6  0  0  0
  1 10  1  0  0  0  0
  2  3  1  0  0  0  0
  2  7  1  1  0  0  0
  3  4  1  0  0  0  0
  3  8  1  1  0  0  0
  4  5  1  0  0  0  0
  4  9  1  6  0  0  0
  5  6  1  6  0  0  0
  5 10  1  0  0  0  0
  6 11  1  0  0  0  0
 12 13  1  0  0  0  0
 12 17  1  0  0  0  0
 12 18  1  6  0  0  0
 13 14  1  0  0  0  0
 14 15  1  0  0  0  0
 14 19  1  6  0  0  0
 15 16  1  0  0  0  0
 15 21  1  1  0  0  0
 16 17  1  0  0  0  0
 16 20  1  6  0  0  0
 17 22  1  1  0  0  0
 23 21  1  1  0  0  0
 23 24  1  0  0  0  0
 23 32  1  0  0  0  0
 24 25  1  0  0  0  0
 24 29  1  1  0  0  0
 25 26  1  0  0  0  0
 26 27  1  0  0  0  0
 26 31  1  1  0  0  0
 27 28  1  6  0  0  0
 27 32  1  0  0  0  0
 28 30  1  0  0  0  0
M  CHG  5   8   1  18   1  19   1  29   1  30   1
M  END
>  <CHROM.1>
151.91609262,54.83400249,-177.77731057,-160.34910415,64.55472071,55.60739139
-148.24034283,8.50308446,-104.91089181,176.09381232,70.39360825,-146.47540688
94.29149392,174.97398417,59.15743540,48.46233323,-6.54087235,-0.03377730
-8.91084981,2.47052553,-0.48785476,2.68246014

>  <Name>
2tob cryst

>  <RI>
0

>  <Rbt.Current_Directory>
/home/itssahil/PROJECTS/Mol_Feturizer/New_Systems/rnas/2tob

>  <Rbt.Executable>
rbdock ($Id: //depot/dev/client3/rdock/2013.1/src/exe/rbdock.cxx#4 $)

>  <Rbt.Library>
libRbt.so (2013.1, Build901 2013/11/27)

>  <Rbt.Parameter_File>
/export/apps/rDock/src/rDock_2013.1_src/data/scripts/dock_solv.prm

>  <Rbt.Receptor>
prm/blind_docking_60.prm

>  <SCORE>
-17.3841

>  <SCORE.INTER>
-17.3642

>  <SCORE.INTER.CONST>
1

>  <SCORE.INTER.POLAR>
-3.14566

>  <SCORE.INTER.ROT>
6

>  <SCORE.INTER.SOLV>
42.4145

>  <SCORE.INTER.VDW>
-22.8287

>  <SCORE.INTER.norm>
-0.54263

>  <SCORE.INTRA>
-13.9311

>  <SCORE.INTRA.DIHEDRAL>
5.95971

>  <SCORE.INTRA.DIHEDRAL.0>
18.4221

>  <SCORE.INTRA.POLAR>
-0.330526

>  <SCORE.INTRA.POLAR.0>
-1.57101

>  <SCORE.INTRA.REPUL>
-0.730195

>  <SCORE.INTRA.REPUL.0>
0.730195

>  <SCORE.INTRA.SOLV>
-0.43602

>  <SCORE.INTRA.SOLV.lig_0>
-127.221

>  <SCORE.INTRA.VDW>
-11.9182

>  <SCORE.INTRA.VDW.0>
10.8385

>  <SCORE.INTRA.norm>
-0.435347

>  <SCORE.RESTR>
13.9112

>  <SCORE.RESTR.CAVITY>
13.9112

>  <SCORE.RESTR.norm>
0.434725

>  <SCORE.SYSTEM>
0

>  <SCORE.SYSTEM.CONST>
0

>  <SCORE.SYSTEM.DIHEDRAL>
0

>  <SCORE.SYSTEM.SOLV>
0

>  <SCORE.SYSTEM.norm>
0

>  <SCORE.heavy>
32

>  <SCORE.norm>
-0.543252

>  <RMSD>
8.745

$$$$
2tob cryst
 OpenBabel11021811463D
libRbt.so/2013.1/901 2013/11/27
 32 34  0  0  0  0  0  0  0  0999 V2000
  -12.4110   -7.1458   -6.0342 C   0  0  2  0  0  0  0  0  0  0  0  0
  -11.6470   -8.3368   -5.4643 C   0  0  1  0  0  0  0  0  0  0  0  0
  -12.0973   -9.6066   -6.1870 C   0  0  2  0  0  0  0  0  0  0  0  0
  -13.6204   -9.7729   -6.1017 C   0  0  1  0  0  0  0  0  0  0  0  0
  -14.3145   -8.4896   -6.5709 C   0  0  1  0  0  0  0  0  0  0  0  0
  -15.8238   -8.4920   -6.3910 C   0  0  0  0  0  0  0  0  0  0  0  0
  -10.2460   -8.1488   -5.6450 O   0  0  0  0  0  0  0  0  0  0  0  0
  -11.4766  -10.9014   -5.7625 N   0  3  0  0  0  0  0  0  0  0  0  0
  -14.0130  -10.8643   -6.9246 O   0  0  0  0  0  0  0  0  0  0  0  0
  -13.7972   -7.3576   -5.8436 O   0  0  0  0  0  0  0  0  0  0  0  0
  -16.4381   -9.4239   -7.2753 O   0  0  0  0  0  0  0  0  0  0  0  0
  -13.4780   -5.1564   -8.0502 C   0  0  2  0  0  0  0  0  0  0  0  0
  -13.5574   -3.6525   -8.3453 C   0  0  0  0  0  0  0  0  0  0  0  0
  -12.6653   -2.8342   -7.4157 C   0  0  1  0  0  0  0  0  0  0  0  0
  -11.2362   -3.3418   -7.5503 C   0  0  2  0  0  0  0  0  0  0  0  0
  -11.1642   -4.7948   -7.0741 C   0  0  1  0  0  0  0  0  0  0  0  0
  -12.0422   -5.6968   -7.9592 C   0  0  1  0  0  0  0  0  0  0  0  0
  -14.2284   -5.9392   -9.0892 N   0  3  0  0  0  0  0  0  0  0  0  0
  -12.7585   -1.3712   -7.7303 N   0  3  0  0  0  0  0  0  0  0  0  0
   -9.8127   -5.2356   -7.1089 O   0  0  0  0  0  0  0  0  0  0  0  0
  -10.3365   -2.5258   -6.7781 O   0  0  0  0  0  0  0  0  0  0  0  0
  -12.1013   -7.0239   -7.3961 O   0  0  0  0  0  0  0  0  0  0  0  0
   -9.1866   -2.1448   -7.4818 C   0  0  2  0  0  0  0  0  0  0  0  0
   -8.1236   -1.6309   -6.5050 C   0  0  1  0  0  0  0  0  0  0  0  0
   -8.4822   -0.2380   -5.9867 C   0  0  0  0  0  0  0  0  0  0  0  0
   -8.7412    0.6784   -7.1716 C   0  0  1  0  0  0  0  0  0  0  0  0
   -9.8630    0.0985   -8.0155 C   0  0  1  0  0  0  0  0  0  0  0  0
  -10.1732    0.9749   -9.2155 C   0  0  0  0  0  0  0  0  0  0  0  0
   -8.0114   -2.5753   -5.3478 N   0  3  0  0  0  0  0  0  0  0  0  0
   -8.8814    1.2549   -9.9336 N   0  3  0  0  0  0  0  0  0  0  0  0
   -9.0943    1.9790   -6.7224 O   0  0  0  0  0  0  0  0  0  0  0  0
   -9.4701   -1.1953   -8.5039 O   0  0  0  0  0  0  0  0  0  0  0  0
  1  2  1  0  0  0  0
  1 22  1  6  0  0  0
  1 10  1  0  0  0  0
  2  3  1  0  0  0  0
  2  7  1  6  0  0  0
  3  4  1  0  0  0  0
  3  8  1  1  0  0  0
  4  5  1  0  0  0  0
  4  9  1  6  0  0  0
  5  6  1  1  0  0  0
  5 10  1  0  0  0  0
  6 11  1  0  0  0  0
 12 13  1  0  0  0  0
 12 17  1  0  0  0  0
 12 18  1  6  0  0  0
 13 14  1  0  0  0  0
 14 15  1  0  0  0  0
 14 19  1  6  0  0  0
 15 16  1  0  0  0  0
 15 21  1  1  0  0  0
 16 17  1  0  0  0  0
 16 20  1  6  0  0  0
 17 22  1  1  0  0  0
 23 21  1  1  0  0  0
 23 24  1  0  0  0  0
 23 32  1  0  0  0  0
 24 25  1  0  0  0  0
 24 29  1  1  0  0  0
 25 26  1  0  0  0  0
 26 27  1  0  0  0  0
 26 31  1  1  0  0  0
 27 28  1  6  0  0  0
 27 32  1  0  0  0  0
 28 30  1  0  0  0  0
M  CHG  5   8   1  18   1  19   1  29   1  30   1
M  END
>  <CHROM.1>
-145.93735133,67.81149707,-69.22312256,76.63460173,-68.70951217,51.61467393
-175.80329581,50.54215007,-132.89182146,179.60335080,-71.79781366,-164.25997978
91.05995854,-72.28175786,51.12958954,45.51374316,-11.53576642,-4.68015331
-7.11614297,-2.04711490,-0.40827166,-0.32613705

>  <Name>
2tob cryst

>  <RI>
0

>  <Rbt.Current_Directory>
/home/itssahil/PROJECTS/Mol_Feturizer/New_Systems/rnas/2tob

>  <Rbt.Executable>
rbdock ($Id: //depot/dev/client3/rdock/2013.1/src/exe/rbdock.cxx#4 $)

>  <Rbt.Library>
libRbt.so (2013.1, Build901 2013/11/27)

>  <Rbt.Parameter_File>
/export/apps/rDock/src/rDock_2013.1_src/data/scripts/dock_solv.prm

>  <Rbt.Receptor>
prm/pocket_docking_3.prm

>  <SCORE>
-44.0608

>  <SCORE.INTER>
-26.6892

>  <SCORE.INTER.CONST>
1

>  <SCORE.INTER.POLAR>
-4.44439

>  <SCORE.INTER.ROT>
6

>  <SCORE.INTER.SOLV>
22.3772

>  <SCORE.INTER.VDW>
-18.0372

>  <SCORE.INTER.norm>
-0.834039

>  <SCORE.INTRA>
-17.7097

>  <SCORE.INTRA.DIHEDRAL>
0.399819

>  <SCORE.INTRA.DIHEDRAL.0>
18.4221

>  <SCORE.INTRA.POLAR>
0.557148

>  <SCORE.INTRA.POLAR.0>
-1.57101

>  <SCORE.INTRA.REPUL>
-0.730195

>  <SCORE.INTRA.REPUL.0>
0.730195

>  <SCORE.INTRA.SOLV>
-3.25574

>  <SCORE.INTRA.SOLV.lig_0>
-127.221

>  <SCORE.INTRA.VDW>
-14.5251

>  <SCORE.INTRA.VDW.0>
10.8385

>  <SCORE.INTRA.norm>
-0.553429

>  <SCORE.RESTR>
0.338138

>  <SCORE.RESTR.CAVITY>
0.338138

>  <SCORE.RESTR.norm>
0.0105668

>  <SCORE.SYSTEM>
0

>  <SCORE.SYSTEM.CONST>
0

>  <SCORE.SYSTEM.DIHEDRAL>
0

>  <SCORE.SYSTEM.SOLV>
0

>  <SCORE.SYSTEM.norm>
0

>  <SCORE.heavy>
32

>  <SCORE.norm>
-1.3769

>  <RMSD>
8.753

$$$$
2tob cryst
 OpenBabel11021811463D
libRbt.so/2013.1/901 2013/11/27
 32 34  0  0  0  0  0  0  0  0999 V2000
  -15.2833   -6.1136   -8.0937 C   0  0  2  0  0  0  0  0  0  0  0  0
  -16.3429   -6.6293   -9.0624 C   0  0  1  0  0  0  0  0  0  0  0  0
  -17.4146   -7.3798   -8.2712 C   0  0  2  0  0  0  0  0  0  0  0  0
  -16.7870   -8.4911   -7.4193 C   0  0  1  0  0  0  0  0  0  0  0  0
  -15.6475   -7.9190   -6.5690 C   0  0  1  0  0  0  0  0  0  0  0  0
  -14.8600   -8.9622   -5.7932 C   0  0  0  0  0  0  0  0  0  0  0  0
  -16.9345   -5.5388   -9.7635 O   0  0  0  0  0  0  0  0  0  0  0  0
  -18.5464   -7.9855   -9.0419 N   0  3  0  0  0  0  0  0  0  0  0  0
  -17.7876   -9.0481   -6.5761 O   0  0  0  0  0  0  0  0  0  0  0  0
  -14.7132   -7.2139   -7.4105 O   0  0  0  0  0  0  0  0  0  0  0  0
  -13.9523   -9.6507   -6.6475 O   0  0  0  0  0  0  0  0  0  0  0  0
  -16.0179   -3.2310   -5.8450 C   0  0  2  0  0  0  0  0  0  0  0  0
  -15.2729   -2.0385   -5.2301 C   0  0  0  0  0  0  0  0  0  0  0  0
  -13.8631   -2.4096   -4.7784 C   0  0  1  0  0  0  0  0  0  0  0  0
  -13.1055   -2.9677   -5.9754 C   0  0  2  0  0  0  0  0  0  0  0  0
  -13.7780   -4.2593   -6.4473 C   0  0  1  0  0  0  0  0  0  0  0  0
  -15.2145   -3.9774   -6.9217 C   0  0  1  0  0  0  0  0  0  0  0  0
  -17.3278   -2.7900   -6.4324 N   0  3  0  0  0  0  0  0  0  0  0  0
  -13.1579   -1.2255   -4.1879 N   0  3  0  0  0  0  0  0  0  0  0  0
  -13.0140   -4.8301   -7.5020 O   0  0  0  0  0  0  0  0  0  0  0  0
  -11.7331   -3.2264   -5.6275 O   0  0  0  0  0  0  0  0  0  0  0  0
  -15.8901   -5.2221   -7.1978 O   0  0  0  0  0  0  0  0  0  0  0  0
  -10.9312   -3.5537   -6.7286 C   0  0  2  0  0  0  0  0  0  0  0  0
   -9.5119   -3.8898   -6.2589 C   0  0  1  0  0  0  0  0  0  0  0  0
   -8.7525   -2.6248   -5.8580 C   0  0  0  0  0  0  0  0  0  0  0  0
   -8.8148   -1.6275   -7.0036 C   0  0  1  0  0  0  0  0  0  0  0  0
  -10.2682   -1.3209   -7.3203 C   0  0  1  0  0  0  0  0  0  0  0  0
  -10.3965   -0.3226   -8.4565 C   0  0  0  0  0  0  0  0  0  0  0  0
   -9.5817   -4.8174   -5.0849 N   0  3  0  0  0  0  0  0  0  0  0  0
  -11.8579   -0.0224   -8.6494 N   0  3  0  0  0  0  0  0  0  0  0  0
   -8.1312   -0.4319   -6.6554 O   0  0  0  0  0  0  0  0  0  0  0  0
  -10.9331   -2.5314   -7.7194 O   0  0  0  0  0  0  0  0  0  0  0  0
  1  2  1  0  0  0  0
  1 22  1  1  0  0  0
  1 10  1  0  0  0  0
  2  3  1  0  0  0  0
  2  7  1  1  0  0  0
  3  4  1  0  0  0  0
  3  8  1  6  0  0  0
  4  5  1  0  0  0  0
  4  9  1  1  0  0  0
  5  6  1  6  0  0  0
  5 10  1  0  0  0  0
  6 11  1  0  0  0  0
 12 13  1  0  0  0  0
 12 17  1  0  0  0  0
 12 18  1  6  0  0  0
 13 14  1  0  0  0  0
 14 15  1  0  0  0  0
 14 19  1  6  0  0  0
 15 16  1  0  0  0  0
 15 21  1  1  0  0  0
 16 17  1  0  0  0  0
 16 20  1  6  0  0  0
 17 22  1  1  0  0  0
 23 21  1  1  0  0  0
 23 24  1  0  0  0  0
 23 32  1  0  0  0  0
 24 25  1  0  0  0  0
 24 29  1  1  0  0  0
 25 26  1  0  0  0  0
 26 27  1  0  0  0  0
 26 31  1  1  0  0  0
 27 28  1  6  0  0  0
 27 32  1  0  0  0  0
 28 30  1  0  0  0  0
M  CHG  5   8   1  18   1  19   1  29   1  30   1
M  END
>  <CHROM.1>
-134.66931116,170.56241613,-56.49839921,-54.07631258,77.37502279,-57.08264921
47.87164147,-117.11701235,-171.11238116,-60.74086719,-175.90636714,-176.78581776
58.45302074,-57.48794323,-176.92866162,63.09288581,-13.64400153,-4.45288163
-6.90443945,-2.41706259,-0.17509166,-0.02617936

>  <Name>
2tob cryst

>  <RI>
0

>  <Rbt.Current_Directory>
/home/itssahil/PROJECTS/Mol_Feturizer/New_Systems/rnas/2tob

>  <Rbt.Executable>
rbdock ($Id: //depot/dev/client3/rdock/2013.1/src/exe/rbdock.cxx#4 $)

>  <Rbt.Library>
libRbt.so (2013.1, Build901 2013/11/27)

>  <Rbt.Parameter_File>
/export/apps/rDock/src/rDock_2013.1_src/data/scripts/dock_solv.prm

>  <Rbt.Receptor>
prm/pocket_docking_6.prm

>  <SCORE>
-40.0014

>  <SCORE.INTER>
-22.2494

>  <SCORE.INTER.CONST>
1

>  <SCORE.INTER.POLAR>
-4.62024

>  <SCORE.INTER.ROT>
6

>  <SCORE.INTER.SOLV>
19.3662

>  <SCORE.INTER.VDW>
-13.4875

>  <SCORE.INTER.norm>
-0.695293

>  <SCORE.INTRA>
-17.7521

>  <SCORE.INTRA.DIHEDRAL>
-5.76756

>  <SCORE.INTRA.DIHEDRAL.0>
18.4221

>  <SCORE.INTRA.POLAR>
1.55866

>  <SCORE.INTRA.POLAR.0>
-1.57101

>  <SCORE.INTRA.REPUL>
-0.730195

>  <SCORE.INTRA.REPUL.0>
0.730195

>  <SCORE.INTRA.SOLV>
-10.236

>  <SCORE.INTRA.SOLV.lig_0>
-127.221

>  <SCORE.INTRA.VDW>
-11.3988

>  <SCORE.INTRA.VDW.0>
10.8385

>  <SCORE.INTRA.norm>
-0.554752

>  <SCORE.RESTR>
0

>  <SCORE.RESTR.CAVITY>
0

>  <SCORE.RESTR.norm>
0

>  <SCORE.SYSTEM>
0

>  <SCORE.SYSTEM.CONST>
0

>  <SCORE.SYSTEM.DIHEDRAL>
0

>  <SCORE.SYSTEM.SOLV>
0

>  <SCORE.SYSTEM.norm>
0

>  <SCORE.heavy>
32

>  <SCORE.norm>
-1.25005

>  <RMSD>
8.785

$$$$
2tob cryst
 OpenBabel11021811463D
libRbt.so/2013.1/901 2013/11/27
 32 34  0  0  0  0  0  0  0  0999 V2000
  -11.3352   -8.2093   -4.9905 C   0  0  2  0  0  0  0  0  0  0  0  0
  -11.6137   -9.6476   -4.5655 C   0  0  1  0  0  0  0  0  0  0  0  0
  -12.7887  -10.1872   -5.3817 C   0  0  2  0  0  0  0  0  0  0  0  0
  -14.0134   -9.2726   -5.2468 C   0  0  1  0  0  0  0  0  0  0  0  0
  -13.6239   -7.8251   -5.5662 C   0  0  1  0  0  0  0  0  0  0  0  0
  -14.7293   -6.8107   -5.3228 C   0  0  0  0  0  0  0  0  0  0  0  0
  -10.4599  -10.4538   -4.7880 O   0  0  0  0  0  0  0  0  0  0  0  0
  -13.2380  -11.5883   -5.1046 N   0  3  0  0  0  0  0  0  0  0  0  0
  -15.0208   -9.7131   -6.1487 O   0  0  0  0  0  0  0  0  0  0  0  0
  -12.4948   -7.4314   -4.7610 O   0  0  0  0  0  0  0  0  0  0  0  0
  -15.6753   -6.8267   -6.3870 O   0  0  0  0  0  0  0  0  0  0  0  0
  -11.7374   -6.6339   -8.0153 C   0  0  2  0  0  0  0  0  0  0  0  0
  -11.7089   -5.1906   -8.5360 C   0  0  0  0  0  0  0  0  0  0  0  0
  -11.6812   -4.1688   -7.4027 C   0  0  1  0  0  0  0  0  0  0  0  0
  -10.4706   -4.4560   -6.5252 C   0  0  2  0  0  0  0  0  0  0  0  0
  -10.6247   -5.8354   -5.8795 C   0  0  1  0  0  0  0  0  0  0  0  0
  -10.6646   -6.9338   -6.9565 C   0  0  1  0  0  0  0  0  0  0  0  0
  -11.5890   -7.6078   -9.1488 N   0  3  0  0  0  0  0  0  0  0  0  0
  -11.6480   -2.7695   -7.9403 N   0  3  0  0  0  0  0  0  0  0  0  0
   -9.5420   -6.0608   -4.9857 O   0  0  0  0  0  0  0  0  0  0  0  0
  -10.3358   -3.4483   -5.5065 O   0  0  0  0  0  0  0  0  0  0  0  0
  -10.9830   -8.2026   -6.3476 O   0  0  0  0  0  0  0  0  0  0  0  0
   -9.0108   -3.2364   -5.1040 C   0  0  2  0  0  0  0  0  0  0  0  0
   -8.9173   -1.9540   -4.2705 C   0  0  1  0  0  0  0  0  0  0  0  0
   -9.0324   -0.7137   -5.1569 C   0  0  0  0  0  0  0  0  0  0  0  0
   -8.0089   -0.8103   -6.2768 C   0  0  1  0  0  0  0  0  0  0  0  0
   -8.2566   -2.0807   -7.0714 C   0  0  1  0  0  0  0  0  0  0  0  0
   -7.2662   -2.2315   -8.2118 C   0  0  0  0  0  0  0  0  0  0  0  0
  -10.0172   -1.9388   -3.2538 N   0  3  0  0  0  0  0  0  0  0  0  0
   -7.4897   -3.5765   -8.8475 N   0  3  0  0  0  0  0  0  0  0  0  0
   -8.1018    0.3217   -7.1299 O   0  0  0  0  0  0  0  0  0  0  0  0
   -8.1093   -3.2190   -6.2057 O   0  0  0  0  0  0  0  0  0  0  0  0
  1  2  1  0  0  0  0
  1 22  1  6  0  0  0
  1 10  1  0  0  0  0
  2  3  1  0  0  0  0
  2  7  1  6  0  0  0
  3  4  1  0  0  0  0
  3  8  1  1  0  0  0
  4  5  1  0  0  0  0
  4  9  1  6  0  0  0
  5  6  1  1  0  0  0
  5 10  1  0  0  0  0
  6 11  1  0  0  0  0
 12 13  1  0  0  0  0
 12 17  1  0  0  0  0
 12 18  1  6  0  0  0
 13 14  1  0  0  0  0
 14 15  1  0  0  0  0
 14 19  1  6  0  0  0
 15 16  1  0  0  0  0
 15 21  1  1  0  0  0
 16 17  1  0  0  0  0
 16 20  1  1  0  0  0
 17 22  1  1  0  0  0
 23 21  1  6  0  0  0
 23 24  1  0  0  0  0
 23 32  1  0  0  0  0
 24 25  1  0  0  0  0
 24 29  1  1  0  0  0
 25 26  1  0  0  0  0
 26 27  1  0  0  0  0
 26 31  1  6  0  0  0
 27 28  1  6  0  0  0
 27 32  1  0  0  0  0
 28 30  1  0  0  0  0
M  CHG  5   8   1  18   1  19   1  29   1  30   1
M  END
>  <CHROM.1>
-179.47558061,-58.94259954,-178.91743136,-62.66719654,-78.45388428,175.79502170
56.88623634,-59.20327831,-150.74786024,113.51244135,-114.46429052,167.21308159
69.22994930,176.65795229,174.04857283,-57.68803310,-10.95960824,-5.60755900
-6.17433981,-2.55143912,-0.90008048,-0.97093270

>  <Name>
2tob cryst

>  <RI>
0

>  <Rbt.Current_Directory>
/home/itssahil/PROJECTS/Mol_Feturizer/New_Systems/rnas/2tob

>  <Rbt.Executable>
rbdock ($Id: //depot/dev/client3/rdock/2013.1/src/exe/rbdock.cxx#4 $)

>  <Rbt.Library>
libRbt.so (2013.1, Build901 2013/11/27)

>  <Rbt.Parameter_File>
/export/apps/rDock/src/rDock_2013.1_src/data/scripts/dock_solv.prm

>  <Rbt.Receptor>
prm/pocket_docking_5.prm

>  <SCORE>
-42.1525

>  <SCORE.INTER>
-28.0796

>  <SCORE.INTER.CONST>
1

>  <SCORE.INTER.POLAR>
-4.76826

>  <SCORE.INTER.ROT>
6

>  <SCORE.INTER.SOLV>
19.2709

>  <SCORE.INTER.VDW>
-16.8492

>  <SCORE.INTER.norm>
-0.877488

>  <SCORE.INTRA>
-14.0729

>  <SCORE.INTRA.DIHEDRAL>
1.7254

>  <SCORE.INTRA.DIHEDRAL.0>
18.4221

>  <SCORE.INTRA.POLAR>
1.48537

>  <SCORE.INTRA.POLAR.0>
-1.57101

>  <SCORE.INTRA.REPUL>
-0.722423

>  <SCORE.INTRA.REPUL.0>
0.730195

>  <SCORE.INTRA.SOLV>
-7.88023

>  <SCORE.INTRA.SOLV.lig_0>
-127.221

>  <SCORE.INTRA.VDW>
-12.4336

>  <SCORE.INTRA.VDW.0>
10.8385

>  <SCORE.INTRA.norm>
-0.439777

>  <SCORE.RESTR>
0

>  <SCORE.RESTR.CAVITY>
0

>  <SCORE.RESTR.norm>
0

>  <SCORE.SYSTEM>
0

>  <SCORE.SYSTEM.CONST>
0

>  <SCORE.SYSTEM.DIHEDRAL>
0

>  <SCORE.SYSTEM.SOLV>
0

>  <SCORE.SYSTEM.norm>
0

>  <SCORE.heavy>
32

>  <SCORE.norm>
-1.31726

>  <RMSD>
8.850

$$$$
2tob cryst
 OpenBabel11021811463D
libRbt.so/2013.1/901 2013/11/27
 32 34  0  0  0  0  0  0  0  0999 V2000
  -14.3428   -5.7929   -5.8389 C   0  0  2  0  0  0  0  0  0  0  0  0
  -14.8737   -6.7242   -6.9242 C   0  0  1  0  0  0  0  0  0  0  0  0
  -16.4009   -6.6522   -6.9359 C   0  0  2  0  0  0  0  0  0  0  0  0
  -16.9731   -6.9609   -5.5460 C   0  0  1  0  0  0  0  0  0  0  0  0
  -16.2991   -6.0743   -4.4932 C   0  0  1  0  0  0  0  0  0  0  0  0
  -16.6873   -6.3982   -3.0599 C   0  0  0  0  0  0  0  0  0  0  0  0
  -14.3615   -6.3334   -8.1953 O   0  0  0  0  0  0  0  0  0  0  0  0
  -17.1264   -7.5111   -7.9246 N   0  3  0  0  0  0  0  0  0  0  0  0
  -18.3742   -6.7177   -5.5585 O   0  0  0  0  0  0  0  0  0  0  0  0
  -14.8663   -6.2010   -4.5891 O   0  0  0  0  0  0  0  0  0  0  0  0
  -16.1433   -5.4395   -2.1584 O   0  0  0  0  0  0  0  0  0  0  0  0
  -14.8657   -2.6073   -7.6556 C   0  0  2  0  0  0  0  0  0  0  0  0
  -14.1104   -1.5985   -8.5313 C   0  0  0  0  0  0  0  0  0  0  0  0
  -12.7936   -1.1573   -7.8984 C   0  0  1  0  0  0  0  0  0  0  0  0
  -11.9463   -2.3951   -7.6379 C   0  0  2  0  0  0  0  0  0  0  0  0
  -12.6536   -3.2918   -6.6187 C   0  0  1  0  0  0  0  0  0  0  0  0
  -14.0009   -3.7838   -7.1761 C   0  0  1  0  0  0  0  0  0  0  0  0
  -16.0627   -3.1475   -8.3841 N   0  3  0  0  0  0  0  0  0  0  0  0
  -12.0755   -0.1775   -8.7774 N   0  3  0  0  0  0  0  0  0  0  0  0
  -11.8173   -4.3979   -6.3038 O   0  0  0  0  0  0  0  0  0  0  0  0
  -10.6462   -2.0219   -7.1461 O   0  0  0  0  0  0  0  0  0  0  0  0
  -14.7304   -4.4806   -6.1446 O   0  0  0  0  0  0  0  0  0  0  0  0
   -9.6298   -2.1551   -8.1011 C   0  0  2  0  0  0  0  0  0  0  0  0
   -8.2844   -2.3806   -7.4031 C   0  0  1  0  0  0  0  0  0  0  0  0
   -7.7678   -1.0855   -6.7757 C   0  0  0  0  0  0  0  0  0  0  0  0
   -7.7501    0.0039   -7.8357 C   0  0  1  0  0  0  0  0  0  0  0  0
   -9.1520    0.1820   -8.3922 C   0  0  1  0  0  0  0  0  0  0  0  0
   -9.2006    1.2645   -9.4552 C   0  0  0  0  0  0  0  0  0  0  0  0
   -8.4446   -3.4179   -6.3346 N   0  3  0  0  0  0  0  0  0  0  0  0
   -8.9948    2.5917   -8.7776 N   0  3  0  0  0  0  0  0  0  0  0  0
   -7.2899    1.2272   -7.2791 O   0  0  0  0  0  0  0  0  0  0  0  0
   -9.5833   -1.0492   -8.9964 O   0  0  0  0  0  0  0  0  0  0  0  0
  1  2  1  0  0  0  0
  1 22  1  6  0  0  0
  1 10  1  0  0  0  0
  2  3  1  0  0  0  0
  2  7  1  6  0  0  0
  3  4  1  0  0  0  0
  3  8  1  6  0  0  0
  4  5  1  0  0  0  0
  4  9  1  6  0  0  0
  5  6  1  1  0  0  0
  5 10  1  0  0  0  0
  6 11  1  0  0  0  0
 12 13  1  0  0  0  0
 12 17  1  0  0  0  0
 12 18  1  6  0  0  0
 13 14  1  0  0  0  0
 14 15  1  0  0  0  0
 14 19  1  6  0  0  0
 15 16  1  0  0  0  0
 15 21  1  1  0  0  0
 16 17  1  0  0  0  0
 16 20  1  6  0  0  0
 17 22  1  1  0  0  0
 23 21  1  1  0  0  0
 23 24  1  0  0  0  0
 23 32  1  0  0  0  0
 24 25  1  0  0  0  0
 24 29  1  1  0  0  0
 25 26  1  0  0  0  0
 26 27  1  0  0  0  0
 26 31  1  1  0  0  0
 27 28  1  6  0  0  0
 27 32  1  0  0  0  0
 28 30  1  0  0  0  0
M  CHG  5   8   1  18   1  19   1  29   1  30   1
M  END
>  <CHROM.1>
-77.04548973,59.01217222,60.68634491,174.23187107,-173.33355361,61.97705460
-61.75932905,-103.86564592,-105.18149313,171.75770855,161.19978114,-153.97012743
179.18858239,-53.40866127,-69.98877355,-40.80544887,-12.77254878,-3.26884824
-6.95506411,-2.49413200,-0.37146250,-0.82319915

>  <Name>
2tob cryst

>  <RI>
3.75586e+07

>  <Rbt.Current_Directory>
/home/itssahil/PROJECTS/Mol_Feturizer/New_Systems/rnas/2tob

>  <Rbt.Executable>
rbdock ($Id: //depot/dev/client3/rdock/2013.1/src/exe/rbdock.cxx#4 $)

>  <Rbt.Library>
libRbt.so (2013.1, Build901 2013/11/27)

>  <Rbt.Parameter_File>
/export/apps/rDock/src/rDock_2013.1_src/data/scripts/dock_solv.prm

>  <Rbt.Receptor>
prm/pocket_docking_8.prm

>  <SCORE>
-49.8198

>  <SCORE.INTER>
-33.4907

>  <SCORE.INTER.CONST>
1

>  <SCORE.INTER.POLAR>
-5.01632

>  <SCORE.INTER.ROT>
6

>  <SCORE.INTER.SOLV>
24.5423

>  <SCORE.INTER.VDW>
-21.3868

>  <SCORE.INTER.norm>
-1.04658

>  <SCORE.INTRA>
-16.3291

>  <SCORE.INTRA.DIHEDRAL>
-1.20613

>  <SCORE.INTRA.DIHEDRAL.0>
18.4221

>  <SCORE.INTRA.POLAR>
0.628188

>  <SCORE.INTRA.POLAR.0>
-1.57101

>  <SCORE.INTRA.REPUL>
-0.730195

>  <SCORE.INTRA.REPUL.0>
0.730195

>  <SCORE.INTRA.SOLV>
-1.19655

>  <SCORE.INTRA.SOLV.lig_0>
-127.221

>  <SCORE.INTRA.VDW>
-13.6127

>  <SCORE.INTRA.VDW.0>
10.8385

>  <SCORE.INTRA.norm>
-0.510286

>  <SCORE.RESTR>
0

>  <SCORE.RESTR.CAVITY>
0

>  <SCORE.RESTR.norm>
0

>  <SCORE.SYSTEM>
0

>  <SCORE.SYSTEM.CONST>
0

>  <SCORE.SYSTEM.DIHEDRAL>
0

>  <SCORE.SYSTEM.SOLV>
0

>  <SCORE.SYSTEM.norm>
0

>  <SCORE.heavy>
32

>  <SCORE.norm>
-1.55687

>  <RMSD>
8.855

$$$$
2tob cryst
 OpenBabel11021811463D
libRbt.so/2013.1/901 2013/11/27
 32 34  0  0  0  0  0  0  0  0999 V2000
   -7.5354   -1.9078   -6.9261 C   0  0  2  0  0  0  0  0  0  0  0  0
   -7.7882   -3.4077   -7.0409 C   0  0  1  0  0  0  0  0  0  0  0  0
   -9.1615   -3.7258   -6.4490 C   0  0  2  0  0  0  0  0  0  0  0  0
   -9.2695   -3.2065   -5.0091 C   0  0  1  0  0  0  0  0  0  0  0  0
   -8.8773   -1.7259   -4.9555 C   0  0  1  0  0  0  0  0  0  0  0  0
   -8.8092   -1.1463   -3.5520 C   0  0  0  0  0  0  0  0  0  0  0  0
   -7.7473   -3.8056   -8.4087 O   0  0  0  0  0  0  0  0  0  0  0  0
   -9.5993   -5.1577   -6.4472 N   0  3  0  0  0  0  0  0  0  0  0  0
  -10.6084   -3.3692   -4.5582 O   0  0  0  0  0  0  0  0  0  0  0  0
   -7.5824   -1.5388   -5.5607 O   0  0  0  0  0  0  0  0  0  0  0  0
   -8.3732    0.2090   -3.5840 O   0  0  0  0  0  0  0  0  0  0  0  0
   -8.5740    1.0103   -8.5550 C   0  0  2  0  0  0  0  0  0  0  0  0
   -7.9407    2.0418   -9.4984 C   0  0  0  0  0  0  0  0  0  0  0  0
   -6.4192    1.9289   -9.5391 C   0  0  1  0  0  0  0  0  0  0  0  0
   -6.0529    0.5112   -9.9561 C   0  0  2  0  0  0  0  0  0  0  0  0
   -6.5460   -0.4758   -8.8950 C   0  0  1  0  0  0  0  0  0  0  0  0
   -8.0800   -0.4268   -8.7839 C   0  0  1  0  0  0  0  0  0  0  0  0
  -10.0709    1.0357   -8.6724 N   0  3  0  0  0  0  0  0  0  0  0  0
   -5.8289    2.9436  -10.4719 N   0  3  0  0  0  0  0  0  0  0  0  0
   -6.1184   -1.7881   -9.2373 O   0  0  0  0  0  0  0  0  0  0  0  0
   -4.6285    0.3860  -10.1203 O   0  0  0  0  0  0  0  0  0  0  0  0
   -8.5140   -1.2297   -7.6664 O   0  0  0  0  0  0  0  0  0  0  0  0
   -4.2404    0.1260  -11.4411 C   0  0  2  0  0  0  0  0  0  0  0  0
   -2.8735   -0.5663  -11.4566 C   0  0  1  0  0  0  0  0  0  0  0  0
   -1.7533    0.4236  -11.1357 C   0  0  0  0  0  0  0  0  0  0  0  0
   -1.8640    1.6154  -12.0729 C   0  0  1  0  0  0  0  0  0  0  0  0
   -3.2307    2.2565  -11.9063 C   0  0  1  0  0  0  0  0  0  0  0  0
   -3.4005    3.4604  -12.8152 C   0  0  0  0  0  0  0  0  0  0  0  0
   -2.8622   -1.6706  -10.4446 N   0  3  0  0  0  0  0  0  0  0  0  0
   -2.6446    4.6112  -12.2092 N   0  3  0  0  0  0  0  0  0  0  0  0
   -0.8451    2.5636  -11.7886 O   0  0  0  0  0  0  0  0  0  0  0  0
   -4.2488    1.3001  -12.2462 O   0  0  0  0  0  0  0  0  0  0  0  0
  1  2  1  0  0  0  0
  1 22  1  6  0  0  0
  1 10  1  0  0  0  0
  2  3  1  0  0  0  0
  2  7  1  6  0  0  0
  3  4  1  0  0  0  0
  3  8  1  1  0  0  0
  4  5  1  0  0  0  0
  4  9  1  6  0  0  0
  5  6  1  1  0  0  0
  5 10  1  0  0  0  0
  6 11  1  0  0  0  0
 12 13  1  0  0  0  0
 12 17  1  0  0  0  0
 12 18  1  6  0  0  0
 13 14  1  0  0  0  0
 14 15  1  0  0  0  0
 14 19  1  6  0  0  0
 15 16  1  0  0  0  0
 15 21  1  1  0  0  0
 16 17  1  0  0  0  0
 16 20  1  6  0  0  0
 17 22  1  1  0  0  0
 23 21  1  1  0  0  0
 23 24  1  0  0  0  0
 23 32  1  0  0  0  0
 24 25  1  0  0  0  0
 24 29  1  1  0  0  0
 25 26  1  0  0  0  0
 26 27  1  0  0  0  0
 26 31  1  1  0  0  0
 27 28  1  6  0  0  0
 27 32  1  0  0  0  0
 28 30  1  0  0  0  0
M  CHG  5   8   1  18   1  19   1  29   1  30   1
M  END
>  <CHROM.1>
-117.67567417,-77.95423297,55.81886952,-178.51233156,177.01160256,-179.79070417
101.11518223,18.44511063,-114.64427674,101.71177936,-122.66096946,-155.96063797
83.91476631,67.50803419,-76.95880457,58.06015060,-6.31853038,-0.27411812
-8.77834389,-2.49716798,0.66625802,-0.24197799

>  <Name>
2tob cryst

>  <RI>
0

>  <Rbt.Current_Directory>
/home/itssahil/PROJECTS/Mol_Feturizer/New_Systems/rnas/2tob

>  <Rbt.Executable>
rbdock ($Id: //depot/dev/client3/rdock/2013.1/src/exe/rbdock.cxx#4 $)

>  <Rbt.Library>
libRbt.so (2013.1, Build901 2013/11/27)

>  <Rbt.Parameter_File>
/export/apps/rDock/src/rDock_2013.1_src/data/scripts/dock_solv.prm

>  <Rbt.Receptor>
prm/blind_docking_40.prm

>  <SCORE>
-17.9394

>  <SCORE.INTER>
-24.0472

>  <SCORE.INTER.CONST>
1

>  <SCORE.INTER.POLAR>
-4.41934

>  <SCORE.INTER.ROT>
6

>  <SCORE.INTER.SOLV>
35.5665

>  <SCORE.INTER.VDW>
-20.7558

>  <SCORE.INTER.norm>
-0.751474

>  <SCORE.INTRA>
-5.32321

>  <SCORE.INTRA.DIHEDRAL>
20.8597

>  <SCORE.INTRA.DIHEDRAL.0>
18.4221

>  <SCORE.INTRA.POLAR>
0.0996928

>  <SCORE.INTRA.POLAR.0>
-1.57101

>  <SCORE.INTRA.REPUL>
-0.730195

>  <SCORE.INTRA.REPUL.0>
0.730195

>  <SCORE.INTRA.SOLV>
-3.0921

>  <SCORE.INTRA.SOLV.lig_0>
-127.221

>  <SCORE.INTRA.VDW>
-10.895

>  <SCORE.INTRA.VDW.0>
10.8385

>  <SCORE.INTRA.norm>
-0.16635

>  <SCORE.RESTR>
11.431

>  <SCORE.RESTR.CAVITY>
11.431

>  <SCORE.RESTR.norm>
0.35722

>  <SCORE.SYSTEM>
0

>  <SCORE.SYSTEM.CONST>
0

>  <SCORE.SYSTEM.DIHEDRAL>
0

>  <SCORE.SYSTEM.SOLV>
0

>  <SCORE.SYSTEM.norm>
0

>  <SCORE.heavy>
32

>  <SCORE.norm>
-0.560605

>  <RMSD>
8.943

$$$$
2tob cryst
 OpenBabel11021811463D
libRbt.so/2013.1/901 2013/11/27
 32 34  0  0  0  0  0  0  0  0999 V2000
  -15.0985   -7.2230   -6.6242 C   0  0  2  0  0  0  0  0  0  0  0  0
  -16.1938   -8.2847   -6.6165 C   0  0  1  0  0  0  0  0  0  0  0  0
  -16.0753   -9.1101   -5.3350 C   0  0  2  0  0  0  0  0  0  0  0  0
  -14.6657   -9.6996   -5.1931 C   0  0  1  0  0  0  0  0  0  0  0  0
  -13.6172   -8.5913   -5.3394 C   0  0  1  0  0  0  0  0  0  0  0  0
  -12.1805   -9.0869   -5.3602 C   0  0  0  0  0  0  0  0  0  0  0  0
  -17.4751   -7.6635   -6.6747 O   0  0  0  0  0  0  0  0  0  0  0  0
  -17.0540  -10.2259   -5.1377 N   0  3  0  0  0  0  0  0  0  0  0  0
  -14.5473  -10.3124   -3.9154 O   0  0  0  0  0  0  0  0  0  0  0  0
  -13.8386   -7.8647   -6.5646 O   0  0  0  0  0  0  0  0  0  0  0  0
  -11.9460   -9.9139   -6.4954 O   0  0  0  0  0  0  0  0  0  0  0  0
  -15.3913   -4.2130   -4.4640 C   0  0  2  0  0  0  0  0  0  0  0  0
  -14.7200   -2.8510   -4.2421 C   0  0  0  0  0  0  0  0  0  0  0  0
  -13.2008   -2.9644   -4.1509 C   0  0  1  0  0  0  0  0  0  0  0  0
  -12.6901   -3.6230   -5.4251 C   0  0  2  0  0  0  0  0  0  0  0  0
  -13.2399   -5.0486   -5.5178 C   0  0  1  0  0  0  0  0  0  0  0  0
  -14.7757   -5.0296   -5.6113 C   0  0  1  0  0  0  0  0  0  0  0  0
  -16.8610   -4.0424   -4.7211 N   0  3  0  0  0  0  0  0  0  0  0  0
  -12.5723   -1.6196   -3.9401 N   0  3  0  0  0  0  0  0  0  0  0  0
  -12.6849   -5.6944   -6.6566 O   0  0  0  0  0  0  0  0  0  0  0  0
  -11.2511   -3.6489   -5.4374 O   0  0  0  0  0  0  0  0  0  0  0  0
  -15.2865   -6.3761   -5.5229 O   0  0  0  0  0  0  0  0  0  0  0  0
  -10.7099   -3.9556   -6.6927 C   0  0  2  0  0  0  0  0  0  0  0  0
   -9.2574   -3.4732   -6.7667 C   0  0  1  0  0  0  0  0  0  0  0  0
   -9.1909   -1.9528   -6.9132 C   0  0  0  0  0  0  0  0  0  0  0  0
  -10.0528   -1.5322   -8.0926 C   0  0  1  0  0  0  0  0  0  0  0  0
  -11.4785   -2.0019   -7.8619 C   0  0  1  0  0  0  0  0  0  0  0  0
  -12.3924   -1.6054   -9.0072 C   0  0  0  0  0  0  0  0  0  0  0  0
   -8.5321   -3.8821   -5.5216 N   0  3  0  0  0  0  0  0  0  0  0  0
  -12.8353   -0.1859   -8.7791 N   0  3  0  0  0  0  0  0  0  0  0  0
  -10.0257   -0.1201   -8.2455 O   0  0  0  0  0  0  0  0  0  0  0  0
  -11.4958   -3.4358   -7.7599 O   0  0  0  0  0  0  0  0  0  0  0  0
  1  2  1  0  0  0  0
  1 22  1  1  0  0  0
  1 10  1  0  0  0  0
  2  3  1  0  0  0  0
  2  7  1  1  0  0  0
  3  4  1  0  0  0  0
  3  8  1  6  0  0  0
  4  5  1  0  0  0  0
  4  9  1  1  0  0  0
  5  6  1  6  0  0  0
  5 10  1  0  0  0  0
  6 11  1  0  0  0  0
 12 13  1  0  0  0  0
 12 17  1  0  0  0  0
 12 18  1  6  0  0  0
 13 14  1  0  0  0  0
 14 15  1  0  0  0  0
 14 19  1  6  0  0  0
 15 16  1  0  0  0  0
 15 21  1  1  0  0  0
 16 17  1  0  0  0  0
 16 20  1  6  0  0  0
 17 22  1  1  0  0  0
 23 21  1  1  0  0  0
 23 24  1  0  0  0  0
 23 32  1  0  0  0  0
 24 25  1  0  0  0  0
 24 29  1  1  0  0  0
 25 26  1  0  0  0  0
 26 27  1  0  0  0  0
 26 31  1  1  0  0  0
 27 28  1  6  0  0  0
 27 32  1  0  0  0  0
 28 30  1  0  0  0  0
M  CHG  5   8   1  18   1  19   1  29   1  30   1
M  END
>  <CHROM.1>
-154.26913056,177.51789835,-178.34129033,174.75078636,63.64746060,-61.09444544
-59.37140480,-67.15962693,-166.27496306,-49.50810785,166.32378177,159.31501223
54.20456004,-62.70918125,-83.05995411,-126.33541962,-13.18120758,-5.17346388
-6.08072323,2.12976223,-0.18912516,3.02755520

>  <Name>
2tob cryst

>  <RI>
2.10184e+07

>  <Rbt.Current_Directory>
/home/itssahil/PROJECTS/Mol_Feturizer/New_Systems/rnas/2tob

>  <Rbt.Executable>
rbdock ($Id: //depot/dev/client3/rdock/2013.1/src/exe/rbdock.cxx#4 $)

>  <Rbt.Library>
libRbt.so (2013.1, Build901 2013/11/27)

>  <Rbt.Parameter_File>
/export/apps/rDock/src/rDock_2013.1_src/data/scripts/dock_solv.prm

>  <Rbt.Receptor>
prm/pocket_docking_7.prm

>  <SCORE>
-39.959

>  <SCORE.INTER>
-20.9533

>  <SCORE.INTER.CONST>
1

>  <SCORE.INTER.POLAR>
-4.5223

>  <SCORE.INTER.ROT>
6

>  <SCORE.INTER.SOLV>
17.2192

>  <SCORE.INTER.VDW>
-12.2343

>  <SCORE.INTER.norm>
-0.654791

>  <SCORE.INTRA>
-19.0057

>  <SCORE.INTRA.DIHEDRAL>
-5.54109

>  <SCORE.INTRA.DIHEDRAL.0>
18.4221

>  <SCORE.INTRA.POLAR>
1.11444

>  <SCORE.INTRA.POLAR.0>
-1.57101

>  <SCORE.INTRA.REPUL>
-0.730195

>  <SCORE.INTRA.REPUL.0>
0.730195

>  <SCORE.INTRA.SOLV>
-8.12903

>  <SCORE.INTRA.SOLV.lig_0>
-127.221

>  <SCORE.INTRA.VDW>
-12.3087

>  <SCORE.INTRA.VDW.0>
10.8385

>  <SCORE.INTRA.norm>
-0.593927

>  <SCORE.RESTR>
0

>  <SCORE.RESTR.CAVITY>
0

>  <SCORE.RESTR.norm>
0

>  <SCORE.SYSTEM>
0

>  <SCORE.SYSTEM.CONST>
0

>  <SCORE.SYSTEM.DIHEDRAL>
0

>  <SCORE.SYSTEM.SOLV>
0

>  <SCORE.SYSTEM.norm>
0

>  <SCORE.heavy>
32

>  <SCORE.norm>
-1.24872

>  <RMSD>
8.965

$$$$
2tob cryst
 OpenBabel11021811463D
libRbt.so/2013.1/901 2013/11/27
 32 34  0  0  0  0  0  0  0  0999 V2000
   -7.3230   -2.1536   -6.4706 C   0  0  2  0  0  0  0  0  0  0  0  0
   -8.2564   -3.0009   -7.3296 C   0  0  1  0  0  0  0  0  0  0  0  0
   -9.6884   -2.8309   -6.8217 C   0  0  2  0  0  0  0  0  0  0  0  0
   -9.7809   -3.1627   -5.3264 C   0  0  1  0  0  0  0  0  0  0  0  0
   -8.7273   -2.3678   -4.5473 C   0  0  1  0  0  0  0  0  0  0  0  0
   -8.6335   -2.7284   -3.0738 C   0  0  0  0  0  0  0  0  0  0  0  0
   -8.1742   -2.5886   -8.6912 O   0  0  0  0  0  0  0  0  0  0  0  0
  -10.7667   -3.5977   -7.5225 N   0  3  0  0  0  0  0  0  0  0  0  0
  -11.0820   -2.8300   -4.8587 O   0  0  0  0  0  0  0  0  0  0  0  0
   -7.4242   -2.5815   -5.1256 O   0  0  0  0  0  0  0  0  0  0  0  0
   -8.3403   -1.5776   -2.2880 O   0  0  0  0  0  0  0  0  0  0  0  0
   -8.1034    1.2371   -7.8104 C   0  0  2  0  0  0  0  0  0  0  0  0
   -7.7273    2.1314   -8.9995 C   0  0  0  0  0  0  0  0  0  0  0  0
   -6.2273    2.1166   -9.2808 C   0  0  1  0  0  0  0  0  0  0  0  0
   -5.7974    0.6765   -9.5240 C   0  0  2  0  0  0  0  0  0  0  0  0
   -6.0215   -0.1443   -8.2515 C   0  0  1  0  0  0  0  0  0  0  0  0
   -7.5167   -0.1811   -7.8895 C   0  0  1  0  0  0  0  0  0  0  0  0
   -9.5957    1.1402   -7.6732 N   0  3  0  0  0  0  0  0  0  0  0  0
   -5.8902    2.9933  -10.4496 N   0  3  0  0  0  0  0  0  0  0  0  0
   -5.5298   -1.4638   -8.4493 O   0  0  0  0  0  0  0  0  0  0  0  0
   -4.4111    0.6219   -9.9069 O   0  0  0  0  0  0  0  0  0  0  0  0
   -7.6914   -0.8072   -6.6013 O   0  0  0  0  0  0  0  0  0  0  0  0
   -4.2187    0.3348  -11.2646 C   0  0  2  0  0  0  0  0  0  0  0  0
   -2.9557   -0.5139  -11.4445 C   0  0  1  0  0  0  0  0  0  0  0  0
   -1.6953    0.3324  -11.2634 C   0  0  0  0  0  0  0  0  0  0  0  0
   -1.7757    1.5408  -12.1822 C   0  0  1  0  0  0  0  0  0  0  0  0
   -3.0263    2.3368  -11.8522 C   0  0  1  0  0  0  0  0  0  0  0  0
   -3.1601    3.5638  -12.7357 C   0  0  0  0  0  0  0  0  0  0  0  0
   -2.9539   -1.6247  -10.4396 N   0  3  0  0  0  0  0  0  0  0  0  0
   -2.1249    4.5651  -12.3013 N   0  3  0  0  0  0  0  0  0  0  0  0
   -0.6245    2.3582  -12.0250 O   0  0  0  0  0  0  0  0  0  0  0  0
   -4.1844    1.5119  -12.0647 O   0  0  0  0  0  0  0  0  0  0  0  0
  1  2  1  0  0  0  0
  1 22  1  1  0  0  0
  1 10  1  0  0  0  0
  2  3  1  0  0  0  0
  2  7  1  6  0  0  0
  3  4  1  0  0  0  0
  3  8  1  6  0  0  0
  4  5  1  0  0  0  0
  4  9  1  1  0  0  0
  5  6  1  1  0  0  0
  5 10  1  0  0  0  0
  6 11  1  0  0  0  0
 12 13  1  0  0  0  0
 12 17  1  0  0  0  0
 12 18  1  6  0  0  0
 13 14  1  0  0  0  0
 14 15  1  0  0  0  0
 14 19  1  6  0  0  0
 15 16  1  0  0  0  0
 15 21  1  1  0  0  0
 16 17  1  0  0  0  0
 16 20  1  6  0  0  0
 17 22  1  1  0  0  0
 23 21  1  1  0  0  0
 23 24  1  0  0  0  0
 23 32  1  0  0  0  0
 24 25  1  0  0  0  0
 24 29  1  1  0  0  0
 25 26  1  0  0  0  0
 26 27  1  0  0  0  0
 26 31  1  1  0  0  0
 27 28  1  6  0  0  0
 27 32  1  0  0  0  0
 28 30  1  0  0  0  0
M  CHG  5   8   1  18   1  19   1  29   1  30   1
M  END
>  <CHROM.1>
-66.22502876,173.78822300,-171.27306286,-56.95709716,-144.65869609,65.59593468
-40.04751327,-113.49325607,-106.77989391,-81.58632298,175.00714832,-145.47487463
93.97342695,69.05368530,-72.24437339,-66.03729801,-6.24438800,-0.20751195
-8.57201561,-2.40447037,0.52793061,-0.45717981

>  <Name>
2tob cryst

>  <RI>
2.10184e+07

>  <Rbt.Current_Directory>
/home/itssahil/PROJECTS/Mol_Feturizer/New_Systems/rnas/2tob

>  <Rbt.Executable>
rbdock ($Id: //depot/dev/client3/rdock/2013.1/src/exe/rbdock.cxx#4 $)

>  <Rbt.Library>
libRbt.so (2013.1, Build901 2013/11/27)

>  <Rbt.Parameter_File>
/export/apps/rDock/src/rDock_2013.1_src/data/scripts/dock_solv.prm

>  <Rbt.Receptor>
prm/pocket_docking_7.prm

>  <SCORE>
-42.258

>  <SCORE.INTER>
-23.0185

>  <SCORE.INTER.CONST>
1

>  <SCORE.INTER.POLAR>
-2.96106

>  <SCORE.INTER.ROT>
6

>  <SCORE.INTER.SOLV>
32.1192

>  <SCORE.INTER.VDW>
-23.7819

>  <SCORE.INTER.norm>
-0.719328

>  <SCORE.INTRA>
-19.4113

>  <SCORE.INTRA.DIHEDRAL>
6.36121

>  <SCORE.INTRA.DIHEDRAL.0>
18.4221

>  <SCORE.INTRA.POLAR>
-1.48079

>  <SCORE.INTRA.POLAR.0>
-1.57101

>  <SCORE.INTRA.REPUL>
-0.730195

>  <SCORE.INTRA.REPUL.0>
0.730195

>  <SCORE.INTRA.SOLV>
-2.30292

>  <SCORE.INTRA.SOLV.lig_0>
-127.221

>  <SCORE.INTRA.VDW>
-12.7547

>  <SCORE.INTRA.VDW.0>
10.8385

>  <SCORE.INTRA.norm>
-0.606602

>  <SCORE.RESTR>
0.171744

>  <SCORE.RESTR.CAVITY>
0.171744

>  <SCORE.RESTR.norm>
0.00536699

>  <SCORE.SYSTEM>
0

>  <SCORE.SYSTEM.CONST>
0

>  <SCORE.SYSTEM.DIHEDRAL>
0

>  <SCORE.SYSTEM.SOLV>
0

>  <SCORE.SYSTEM.norm>
0

>  <SCORE.heavy>
32

>  <SCORE.norm>
-1.32056

>  <RMSD>
9.002

$$$$
2tob cryst
 OpenBabel11021811463D
libRbt.so/2013.1/901 2013/11/27
 32 34  0  0  0  0  0  0  0  0999 V2000
  -15.3290   -6.6339   -4.4399 C   0  0  2  0  0  0  0  0  0  0  0  0
  -16.3034   -7.6045   -3.7800 C   0  0  1  0  0  0  0  0  0  0  0  0
  -15.5321   -8.4963   -2.8066 C   0  0  2  0  0  0  0  0  0  0  0  0
  -14.3689   -9.2018   -3.5165 C   0  0  1  0  0  0  0  0  0  0  0  0
  -13.5093   -8.1746   -4.2612 C   0  0  1  0  0  0  0  0  0  0  0  0
  -12.4111   -8.7810   -5.1193 C   0  0  0  0  0  0  0  0  0  0  0  0
  -17.3113   -6.8816   -3.0783 O   0  0  0  0  0  0  0  0  0  0  0  0
  -16.3064   -9.5390   -2.0617 N   0  3  0  0  0  0  0  0  0  0  0  0
  -13.5804   -9.8817   -2.5479 O   0  0  0  0  0  0  0  0  0  0  0  0
  -14.3394   -7.3755   -5.1277 O   0  0  0  0  0  0  0  0  0  0  0  0
  -11.4568   -9.4643   -4.3129 O   0  0  0  0  0  0  0  0  0  0  0  0
  -13.9770   -3.7186   -2.5769 C   0  0  2  0  0  0  0  0  0  0  0  0
  -13.1148   -2.4693   -2.8023 C   0  0  0  0  0  0  0  0  0  0  0  0
  -11.8197   -2.7881   -3.5442 C   0  0  1  0  0  0  0  0  0  0  0  0
  -12.1742   -3.4522   -4.8676 C   0  0  2  0  0  0  0  0  0  0  0  0
  -12.8743   -4.7863   -4.5971 C   0  0  1  0  0  0  0  0  0  0  0  0
  -14.1973   -4.5587   -3.8448 C   0  0  1  0  0  0  0  0  0  0  0  0
  -15.3129   -3.3425   -2.0032 N   0  3  0  0  0  0  0  0  0  0  0  0
  -11.0013   -1.5496   -3.7552 N   0  3  0  0  0  0  0  0  0  0  0  0
  -13.1172   -5.4497   -5.8312 O   0  0  0  0  0  0  0  0  0  0  0  0
  -10.9899   -3.6691   -5.6561 O   0  0  0  0  0  0  0  0  0  0  0  0
  -14.7563   -5.8277   -3.4461 O   0  0  0  0  0  0  0  0  0  0  0  0
  -11.2614   -4.0054   -6.9887 C   0  0  2  0  0  0  0  0  0  0  0  0
   -9.9614   -4.3824   -7.7070 C   0  0  1  0  0  0  0  0  0  0  0  0
   -9.1202   -3.1413   -8.0066 C   0  0  0  0  0  0  0  0  0  0  0  0
   -9.9783   -2.1311   -8.7509 C   0  0  1  0  0  0  0  0  0  0  0  0
  -11.1899   -1.7843   -7.9033 C   0  0  1  0  0  0  0  0  0  0  0  0
  -12.0860   -0.7715   -8.5928 C   0  0  0  0  0  0  0  0  0  0  0  0
   -9.1704   -5.3199   -6.8473 N   0  3  0  0  0  0  0  0  0  0  0  0
  -11.3281    0.5236   -8.6999 N   0  3  0  0  0  0  0  0  0  0  0  0
   -9.2290   -0.9569   -9.0299 O   0  0  0  0  0  0  0  0  0  0  0  0
  -11.9643   -2.9734   -7.6725 O   0  0  0  0  0  0  0  0  0  0  0  0
  1  2  1  0  0  0  0
  1 22  1  1  0  0  0
  1 10  1  0  0  0  0
  2  3  1  0  0  0  0
  2  7  1  1  0  0  0
  3  4  1  0  0  0  0
  3  8  1  6  0  0  0
  4  5  1  0  0  0  0
  4  9  1  1  0  0  0
  5  6  1  6  0  0  0
  5 10  1  0  0  0  0
  6 11  1  0  0  0  0
 12 13  1  0  0  0  0
 12 17  1  0  0  0  0
 12 18  1  6  0  0  0
 13 14  1  0  0  0  0
 14 15  1  0  0  0  0
 14 19  1  6  0  0  0
 15 16  1  0  0  0  0
 15 21  1  6  0  0  0
 16 17  1  0  0  0  0
 16 20  1  6  0  0  0
 17 22  1  1  0  0  0
 23 21  1  1  0  0  0
 23 24  1  0  0  0  0
 23 32  1  0  0  0  0
 24 25  1  0  0  0  0
 24 29  1  1  0  0  0
 25 26  1  0  0  0  0
 26 27  1  0  0  0  0
 26 31  1  1  0  0  0
 27 28  1  6  0  0  0
 27 32  1  0  0  0  0
 28 30  1  0  0  0  0
M  CHG  5   8   1  18   1  19   1  29   1  30   1
M  END
>  <CHROM.1>
-158.10399309,59.98136788,174.71486571,-172.55734642,-64.41840010,-178.32063616
59.75919530,-29.13105811,-166.99508081,82.05696854,165.37411067,-173.18594260
-68.11308375,66.93950622,-65.99347040,43.09411399,-12.77393547,-4.96565225
-5.12383719,2.30542784,-0.73726906,3.06365603

>  <Name>
2tob cryst

>  <RI>
0

>  <Rbt.Current_Directory>
/home/itssahil/PROJECTS/Mol_Feturizer/New_Systems/rnas/2tob

>  <Rbt.Executable>
rbdock ($Id: //depot/dev/client3/rdock/2013.1/src/exe/rbdock.cxx#4 $)

>  <Rbt.Library>
libRbt.so (2013.1, Build901 2013/11/27)

>  <Rbt.Parameter_File>
/export/apps/rDock/src/rDock_2013.1_src/data/scripts/dock_solv.prm

>  <Rbt.Receptor>
prm/pocket_docking_6.prm

>  <SCORE>
-37.4474

>  <SCORE.INTER>
-13.8043

>  <SCORE.INTER.CONST>
1

>  <SCORE.INTER.POLAR>
-3.50517

>  <SCORE.INTER.ROT>
6

>  <SCORE.INTER.SOLV>
16.512

>  <SCORE.INTER.VDW>
-10.623

>  <SCORE.INTER.norm>
-0.431385

>  <SCORE.INTRA>
-23.6431

>  <SCORE.INTRA.DIHEDRAL>
-8.41467

>  <SCORE.INTRA.DIHEDRAL.0>
18.4221

>  <SCORE.INTRA.POLAR>
-0.195151

>  <SCORE.INTRA.POLAR.0>
-1.57101

>  <SCORE.INTRA.REPUL>
-0.709988

>  <SCORE.INTRA.REPUL.0>
0.730195

>  <SCORE.INTRA.SOLV>
-7.35057

>  <SCORE.INTRA.SOLV.lig_0>
-127.221

>  <SCORE.INTRA.VDW>
-11.547

>  <SCORE.INTRA.VDW.0>
10.8385

>  <SCORE.INTRA.norm>
-0.738846

>  <SCORE.RESTR>
0

>  <SCORE.RESTR.CAVITY>
0

>  <SCORE.RESTR.norm>
0

>  <SCORE.SYSTEM>
0

>  <SCORE.SYSTEM.CONST>
0

>  <SCORE.SYSTEM.DIHEDRAL>
0

>  <SCORE.SYSTEM.SOLV>
0

>  <SCORE.SYSTEM.norm>
0

>  <SCORE.heavy>
32

>  <SCORE.norm>
-1.17023

>  <RMSD>
9.121

$$$$
2tob cryst
 OpenBabel11021811463D
libRbt.so/2013.1/901 2013/11/27
 32 34  0  0  0  0  0  0  0  0999 V2000
  -14.2549   -6.7142   -4.8385 C   0  0  2  0  0  0  0  0  0  0  0  0
  -14.6818   -7.6621   -3.7222 C   0  0  1  0  0  0  0  0  0  0  0  0
  -15.3709   -8.8785   -4.3411 C   0  0  2  0  0  0  0  0  0  0  0  0
  -16.5359   -8.4470   -5.2417 C   0  0  1  0  0  0  0  0  0  0  0  0
  -16.0563   -7.4003   -6.2532 C   0  0  1  0  0  0  0  0  0  0  0  0
  -17.1630   -6.7959   -7.1018 C   0  0  0  0  0  0  0  0  0  0  0  0
  -13.5423   -8.0800   -2.9753 O   0  0  0  0  0  0  0  0  0  0  0  0
  -15.8859   -9.9307   -3.4086 N   0  3  0  0  0  0  0  0  0  0  0  0
  -17.0377   -9.5878   -5.9267 O   0  0  0  0  0  0  0  0  0  0  0  0
  -15.4023   -6.3157   -5.5645 O   0  0  0  0  0  0  0  0  0  0  0  0
  -17.8041   -7.7966   -7.8862 O   0  0  0  0  0  0  0  0  0  0  0  0
  -13.6392   -6.5435   -7.9074 C   0  0  2  0  0  0  0  0  0  0  0  0
  -13.2187   -5.5189   -8.9698 C   0  0  0  0  0  0  0  0  0  0  0  0
  -12.9121   -4.1522   -8.3638 C   0  0  1  0  0  0  0  0  0  0  0  0
  -11.8247   -4.3250   -7.3123 C   0  0  2  0  0  0  0  0  0  0  0  0
  -12.3484   -5.2094   -6.1779 C   0  0  1  0  0  0  0  0  0  0  0  0
  -12.6876   -6.6156   -6.7028 C   0  0  1  0  0  0  0  0  0  0  0  0
  -13.7634   -7.9121   -8.5130 N   0  3  0  0  0  0  0  0  0  0  0  0
  -12.4991   -3.1743   -9.4227 N   0  3  0  0  0  0  0  0  0  0  0  0
  -11.3671   -5.2899   -5.1519 O   0  0  0  0  0  0  0  0  0  0  0  0
  -11.4189   -3.0460   -6.7916 O   0  0  0  0  0  0  0  0  0  0  0  0
  -13.3392   -7.3791   -5.6663 O   0  0  0  0  0  0  0  0  0  0  0  0
  -10.3312   -3.1220   -5.9120 C   0  0  2  0  0  0  0  0  0  0  0  0
  -10.2959   -1.8786   -5.0172 C   0  0  1  0  0  0  0  0  0  0  0  0
   -9.8079   -0.6562   -5.7953 C   0  0  0  0  0  0  0  0  0  0  0  0
   -8.4813   -0.9902   -6.4583 C   0  0  1  0  0  0  0  0  0  0  0  0
   -8.6680   -2.1878   -7.3735 C   0  0  1  0  0  0  0  0  0  0  0  0
   -7.3748   -2.5677   -8.0716 C   0  0  0  0  0  0  0  0  0  0  0  0
  -11.6694   -1.6089   -4.4837 N   0  3  0  0  0  0  0  0  0  0  0  0
   -7.6249   -3.8213   -8.8646 N   0  3  0  0  0  0  0  0  0  0  0  0
   -8.0083    0.1220   -7.2047 O   0  0  0  0  0  0  0  0  0  0  0  0
   -9.0979   -3.3178   -6.5957 O   0  0  0  0  0  0  0  0  0  0  0  0
  1  2  1  0  0  0  0
  1 22  1  6  0  0  0
  1 10  1  0  0  0  0
  2  3  1  0  0  0  0
  2  7  1  6  0  0  0
  3  4  1  0  0  0  0
  3  8  1  1  0  0  0
  4  5  1  0  0  0  0
  4  9  1  6  0  0  0
  5  6  1  1  0  0  0
  5 10  1  0  0  0  0
  6 11  1  0  0  0  0
 12 13  1  0  0  0  0
 12 17  1  0  0  0  0
 12 18  1  6  0  0  0
 13 14  1  0  0  0  0
 14 15  1  0  0  0  0
 14 19  1  6  0  0  0
 15 16  1  0  0  0  0
 15 21  1  1  0  0  0
 16 17  1  0  0  0  0
 16 20  1  1  0  0  0
 17 22  1  1  0  0  0
 23 21  1  6  0  0  0
 23 24  1  0  0  0  0
 23 32  1  0  0  0  0
 24 25  1  0  0  0  0
 24 29  1  6  0  0  0
 25 26  1  0  0  0  0
 26 27  1  0  0  0  0
 26 31  1  6  0  0  0
 27 28  1  1  0  0  0
 27 32  1  0  0  0  0
 28 30  1  0  0  0  0
M  CHG  5   8   1  18   1  19   1  29   1  30   1
M  END
>  <CHROM.1>
-173.06787182,-55.46634392,174.98762515,-59.48556456,-61.67067869,177.23299408
-57.31759281,-177.81413439,-174.23601472,-178.87628200,-82.60714020,-158.63520563
-58.99161150,175.71734971,175.49927790,33.38269630,-12.63900070,-5.24405778
-6.38435911,-2.86005199,-0.72170873,-1.38278135

>  <Name>
2tob cryst

>  <RI>
3.75586e+07

>  <Rbt.Current_Directory>
/home/itssahil/PROJECTS/Mol_Feturizer/New_Systems/rnas/2tob

>  <Rbt.Executable>
rbdock ($Id: //depot/dev/client3/rdock/2013.1/src/exe/rbdock.cxx#4 $)

>  <Rbt.Library>
libRbt.so (2013.1, Build901 2013/11/27)

>  <Rbt.Parameter_File>
/export/apps/rDock/src/rDock_2013.1_src/data/scripts/dock_solv.prm

>  <Rbt.Receptor>
prm/pocket_docking_8.prm

>  <SCORE>
-47.3513

>  <SCORE.INTER>
-27.2889

>  <SCORE.INTER.CONST>
1

>  <SCORE.INTER.POLAR>
-5.71523

>  <SCORE.INTER.ROT>
6

>  <SCORE.INTER.SOLV>
22.7757

>  <SCORE.INTER.VDW>
-14.3337

>  <SCORE.INTER.norm>
-0.852778

>  <SCORE.INTRA>
-20.0624

>  <SCORE.INTRA.DIHEDRAL>
-11.6764

>  <SCORE.INTRA.DIHEDRAL.0>
18.4221

>  <SCORE.INTRA.POLAR>
1.54456

>  <SCORE.INTRA.POLAR.0>
-1.57101

>  <SCORE.INTRA.REPUL>
-0.730195

>  <SCORE.INTRA.REPUL.0>
0.730195

>  <SCORE.INTRA.SOLV>
-7.80022

>  <SCORE.INTRA.SOLV.lig_0>
-127.221

>  <SCORE.INTRA.VDW>
-11.9246

>  <SCORE.INTRA.VDW.0>
10.8385

>  <SCORE.INTRA.norm>
-0.62695

>  <SCORE.RESTR>
0

>  <SCORE.RESTR.CAVITY>
0

>  <SCORE.RESTR.norm>
0

>  <SCORE.SYSTEM>
0

>  <SCORE.SYSTEM.CONST>
0

>  <SCORE.SYSTEM.DIHEDRAL>
0

>  <SCORE.SYSTEM.SOLV>
0

>  <SCORE.SYSTEM.norm>
0

>  <SCORE.heavy>
32

>  <SCORE.norm>
-1.47973

>  <RMSD>
9.199

$$$$
2tob cryst
 OpenBabel11021811463D
libRbt.so/2013.1/901 2013/11/27
 32 34  0  0  0  0  0  0  0  0999 V2000
   -8.9206   -0.5323   -9.0714 C   0  0  2  0  0  0  0  0  0  0  0  0
  -10.0437   -0.4262   -8.0445 C   0  0  1  0  0  0  0  0  0  0  0  0
   -9.5013   -0.8300   -6.6732 C   0  0  2  0  0  0  0  0  0  0  0  0
   -8.8653   -2.2253   -6.7264 C   0  0  1  0  0  0  0  0  0  0  0  0
   -7.8404   -2.2909   -7.8640 C   0  0  1  0  0  0  0  0  0  0  0  0
   -7.2537   -3.6730   -8.0999 C   0  0  0  0  0  0  0  0  0  0  0  0
  -10.5348    0.9107   -7.9956 O   0  0  0  0  0  0  0  0  0  0  0  0
  -10.4552   -0.8115   -5.5192 N   0  3  0  0  0  0  0  0  0  0  0  0
   -8.2265   -2.4899   -5.4836 O   0  0  0  0  0  0  0  0  0  0  0  0
   -8.4505   -1.8667   -9.0994 O   0  0  0  0  0  0  0  0  0  0  0  0
   -5.9075   -3.5813   -8.5547 O   0  0  0  0  0  0  0  0  0  0  0  0
   -7.0525    2.4206   -9.6249 C   0  0  2  0  0  0  0  0  0  0  0  0
   -5.9789    3.1109  -10.4769 C   0  0  0  0  0  0  0  0  0  0  0  0
   -4.6017    2.4796  -10.2924 C   0  0  1  0  0  0  0  0  0  0  0  0
   -4.7011    0.9994  -10.6345 C   0  0  2  0  0  0  0  0  0  0  0  0
   -5.6448    0.3099   -9.6460 C   0  0  1  0  0  0  0  0  0  0  0  0
   -7.0654    0.8899   -9.7620 C   0  0  1  0  0  0  0  0  0  0  0  0
   -8.4164    2.9515   -9.9612 N   0  3  0  0  0  0  0  0  0  0  0  0
   -3.5754    3.1696  -11.1400 N   0  3  0  0  0  0  0  0  0  0  0  0
   -5.6606   -1.0880   -9.9065 O   0  0  0  0  0  0  0  0  0  0  0  0
   -3.4017    0.3823  -10.5862 O   0  0  0  0  0  0  0  0  0  0  0  0
   -7.8976    0.3561   -8.7111 O   0  0  0  0  0  0  0  0  0  0  0  0
   -3.0191   -0.2068  -11.7983 C   0  0  2  0  0  0  0  0  0  0  0  0
   -1.8527   -1.1725  -11.5638 C   0  0  1  0  0  0  0  0  0  0  0  0
   -0.5499   -0.4104  -11.3195 C   0  0  0  0  0  0  0  0  0  0  0  0
   -0.3317    0.5724  -12.4585 C   0  0  1  0  0  0  0  0  0  0  0  0
   -1.5174    1.5184  -12.5359 C   0  0  1  0  0  0  0  0  0  0  0  0
   -1.3553    2.5313  -13.6547 C   0  0  0  0  0  0  0  0  0  0  0  0
   -2.1507   -2.0354  -10.3763 N   0  3  0  0  0  0  0  0  0  0  0  0
   -0.2213    3.4500  -13.2900 N   0  3  0  0  0  0  0  0  0  0  0  0
    0.8648    1.3099  -12.2522 O   0  0  0  0  0  0  0  0  0  0  0  0
   -2.7123    0.7622  -12.7952 O   0  0  0  0  0  0  0  0  0  0  0  0
  1  2  1  0  0  0  0
  1 22  1  1  0  0  0
  1 10  1  0  0  0  0
  2  3  1  0  0  0  0
  2  7  1  1  0  0  0
  3  4  1  0  0  0  0
  3  8  1  1  0  0  0
  4  5  1  0  0  0  0
  4  9  1  1  0  0  0
  5  6  1  6  0  0  0
  5 10  1  0  0  0  0
  6 11  1  0  0  0  0
 12 13  1  0  0  0  0
 12 17  1  0  0  0  0
 12 18  1  6  0  0  0
 13 14  1  0  0  0  0
 14 15  1  0  0  0  0
 14 19  1  6  0  0  0
 15 16  1  0  0  0  0
 15 21  1  1  0  0  0
 16 17  1  0  0  0  0
 16 20  1  6  0  0  0
 17 22  1  1  0  0  0
 23 21  1  1  0  0  0
 23 24  1  0  0  0  0
 23 32  1  0  0  0  0
 24 25  1  0  0  0  0
 24 29  1  1  0  0  0
 25 26  1  0  0  0  0
 26 27  1  0  0  0  0
 26 31  1  1  0  0  0
 27 28  1  6  0  0  0
 27 32  1  0  0  0  0
 28 30  1  0  0  0  0
M  CHG  5   8   1  18   1  19   1  29   1  30   1
M  END
>  <CHROM.1>
-152.02397398,73.88431582,-89.97668187,-55.05464136,-147.71804439,83.77619739
-17.45407456,169.06531643,-121.27105578,162.57399405,127.85550979,-163.48894580
-136.78346164,78.20738624,-67.72456787,176.18967709,-5.39341909,0.14174248
-9.85239063,2.69966069,-0.42911252,2.75133338

>  <Name>
2tob cryst

>  <RI>
0

>  <Rbt.Current_Directory>
/home/itssahil/PROJECTS/Mol_Feturizer/New_Systems/rnas/2tob

>  <Rbt.Executable>
rbdock ($Id: //depot/dev/client3/rdock/2013.1/src/exe/rbdock.cxx#4 $)

>  <Rbt.Library>
libRbt.so (2013.1, Build901 2013/11/27)

>  <Rbt.Parameter_File>
/export/apps/rDock/src/rDock_2013.1_src/data/scripts/dock_solv.prm

>  <Rbt.Receptor>
prm/blind_docking_60.prm

>  <SCORE>
5.39127

>  <SCORE.INTER>
-0.414961

>  <SCORE.INTER.CONST>
1

>  <SCORE.INTER.POLAR>
-3.44412

>  <SCORE.INTER.ROT>
6

>  <SCORE.INTER.SOLV>
39.3341

>  <SCORE.INTER.VDW>
-9.50763

>  <SCORE.INTER.norm>
-0.0129675

>  <SCORE.INTRA>
-8.60879

>  <SCORE.INTRA.DIHEDRAL>
17.7104

>  <SCORE.INTRA.DIHEDRAL.0>
18.4221

>  <SCORE.INTRA.POLAR>
0.271535

>  <SCORE.INTRA.POLAR.0>
-1.57101

>  <SCORE.INTRA.REPUL>
-0.730195

>  <SCORE.INTRA.REPUL.0>
0.730195

>  <SCORE.INTRA.SOLV>
-0.938709

>  <SCORE.INTRA.SOLV.lig_0>
-127.221

>  <SCORE.INTRA.VDW>
-14.2669

>  <SCORE.INTRA.VDW.0>
10.8385

>  <SCORE.INTRA.norm>
-0.269025

>  <SCORE.RESTR>
14.415

>  <SCORE.RESTR.CAVITY>
14.415

>  <SCORE.RESTR.norm>
0.450469

>  <SCORE.SYSTEM>
0

>  <SCORE.SYSTEM.CONST>
0

>  <SCORE.SYSTEM.DIHEDRAL>
0

>  <SCORE.SYSTEM.SOLV>
0

>  <SCORE.SYSTEM.norm>
0

>  <SCORE.heavy>
32

>  <SCORE.norm>
0.168477

>  <RMSD>
9.224

$$$$
2tob cryst
 OpenBabel11021811463D
libRbt.so/2013.1/901 2013/11/27
 32 34  0  0  0  0  0  0  0  0999 V2000
   -7.2579   -2.1923   -7.7977 C   0  0  2  0  0  0  0  0  0  0  0  0
   -8.4650   -2.6971   -8.5819 C   0  0  1  0  0  0  0  0  0  0  0  0
   -9.7356   -2.1038   -7.9725 C   0  0  2  0  0  0  0  0  0  0  0  0
   -9.8196   -2.4163   -6.4726 C   0  0  1  0  0  0  0  0  0  0  0  0
   -8.5202   -1.9970   -5.7764 C   0  0  1  0  0  0  0  0  0  0  0  0
   -8.4380   -2.3939   -4.3116 C   0  0  0  0  0  0  0  0  0  0  0  0
   -8.3565   -2.3069   -9.9482 O   0  0  0  0  0  0  0  0  0  0  0  0
  -11.0442   -2.4902   -8.5889 N   0  3  0  0  0  0  0  0  0  0  0  0
  -10.9187   -1.7079   -5.9136 O   0  0  0  0  0  0  0  0  0  0  0  0
   -7.3905   -2.5911   -6.4465 O   0  0  0  0  0  0  0  0  0  0  0  0
   -7.0837   -2.5771   -3.9114 O   0  0  0  0  0  0  0  0  0  0  0  0
   -7.2164    1.2273   -9.2197 C   0  0  2  0  0  0  0  0  0  0  0  0
   -6.5597    2.0425  -10.3419 C   0  0  0  0  0  0  0  0  0  0  0  0
   -5.0405    1.8970  -10.3477 C   0  0  1  0  0  0  0  0  0  0  0  0
   -4.6991    0.4189  -10.4759 C   0  0  2  0  0  0  0  0  0  0  0  0
   -5.2152   -0.3321   -9.2459 C   0  0  1  0  0  0  0  0  0  0  0  0
   -6.7485   -0.2354   -9.1587 C   0  0  1  0  0  0  0  0  0  0  0  0
   -8.7121    1.2554   -9.3516 N   0  3  0  0  0  0  0  0  0  0  0  0
   -4.4272    2.6987  -11.4565 N   0  3  0  0  0  0  0  0  0  0  0  0
   -4.8109   -1.6934   -9.3211 O   0  0  0  0  0  0  0  0  0  0  0  0
   -3.2766    0.2390  -10.6011 O   0  0  0  0  0  0  0  0  0  0  0  0
   -7.2023   -0.7958   -7.9090 O   0  0  0  0  0  0  0  0  0  0  0  0
   -2.8852   -0.2542  -11.8526 C   0  0  2  0  0  0  0  0  0  0  0  0
   -1.5935   -1.0665  -11.7126 C   0  0  1  0  0  0  0  0  0  0  0  0
   -0.3887   -0.1494  -11.5004 C   0  0  0  0  0  0  0  0  0  0  0  0
   -0.3589    0.8911  -12.6082 C   0  0  1  0  0  0  0  0  0  0  0  0
   -1.6590    1.6761  -12.5913 C   0  0  1  0  0  0  0  0  0  0  0  0
   -1.6875    2.7384  -13.6752 C   0  0  0  0  0  0  0  0  0  0  0  0
   -1.7153   -2.0002  -10.5478 N   0  3  0  0  0  0  0  0  0  0  0  0
   -3.0992    2.8471  -14.1832 N   0  3  0  0  0  0  0  0  0  0  0  0
    0.7418    1.7713  -12.4297 O   0  0  0  0  0  0  0  0  0  0  0  0
   -2.7585    0.7793  -12.8234 O   0  0  0  0  0  0  0  0  0  0  0  0
  1  2  1  0  0  0  0
  1 22  1  1  0  0  0
  1 10  1  0  0  0  0
  2  3  1  0  0  0  0
  2  7  1  6  0  0  0
  3  4  1  0  0  0  0
  3  8  1  6  0  0  0
  4  5  1  0  0  0  0
  4  9  1  1  0  0  0
  5  6  1  1  0  0  0
  5 10  1  0  0  0  0
  6 11  1  0  0  0  0
 12 13  1  0  0  0  0
 12 17  1  0  0  0  0
 12 18  1  6  0  0  0
 13 14  1  0  0  0  0
 14 15  1  0  0  0  0
 14 19  1  6  0  0  0
 15 16  1  0  0  0  0
 15 21  1  1  0  0  0
 16 17  1  0  0  0  0
 16 20  1  6  0  0  0
 17 22  1  1  0  0  0
 23 21  1  1  0  0  0
 23 24  1  0  0  0  0
 23 32  1  0  0  0  0
 24 25  1  0  0  0  0
 24 29  1  1  0  0  0
 25 26  1  0  0  0  0
 26 27  1  0  0  0  0
 26 31  1  1  0  0  0
 27 28  1  6  0  0  0
 27 32  1  0  0  0  0
 28 30  1  0  0  0  0
M  CHG  5   8   1  18   1  19   1  29   1  30   1
M  END
>  <CHROM.1>
-74.92794156,179.74048595,-176.34868395,-50.87343917,152.03784461,-59.19736120
162.84019849,-72.58682235,-113.32838545,144.26994571,160.97719963,-151.21032492
-126.89359684,-58.59644378,144.86362063,-137.83251051,-5.53340176,-0.36337165
-9.59378664,-2.43373621,0.19551327,-0.82525370

>  <Name>
2tob cryst

>  <RI>
2.10184e+07

>  <Rbt.Current_Directory>
/home/itssahil/PROJECTS/Mol_Feturizer/New_Systems/rnas/2tob

>  <Rbt.Executable>
rbdock ($Id: //depot/dev/client3/rdock/2013.1/src/exe/rbdock.cxx#4 $)

>  <Rbt.Library>
libRbt.so (2013.1, Build901 2013/11/27)

>  <Rbt.Parameter_File>
/export/apps/rDock/src/rDock_2013.1_src/data/scripts/dock_solv.prm

>  <Rbt.Receptor>
prm/pocket_docking_7.prm

>  <SCORE>
-50.3761

>  <SCORE.INTER>
-43.5063

>  <SCORE.INTER.CONST>
1

>  <SCORE.INTER.POLAR>
-6.07976

>  <SCORE.INTER.ROT>
6

>  <SCORE.INTER.SOLV>
39.5121

>  <SCORE.INTER.VDW>
-29.509

>  <SCORE.INTER.norm>
-1.35957

>  <SCORE.INTRA>
-7.01162

>  <SCORE.INTRA.DIHEDRAL>
12.921

>  <SCORE.INTRA.DIHEDRAL.0>
18.4221

>  <SCORE.INTRA.POLAR>
0.659802

>  <SCORE.INTRA.POLAR.0>
-1.57101

>  <SCORE.INTRA.REPUL>
-0.730195

>  <SCORE.INTRA.REPUL.0>
0.730195

>  <SCORE.INTRA.SOLV>
2.74569

>  <SCORE.INTRA.SOLV.lig_0>
-127.221

>  <SCORE.INTRA.VDW>
-13.4373

>  <SCORE.INTRA.VDW.0>
10.8385

>  <SCORE.INTRA.norm>
-0.219113

>  <SCORE.RESTR>
0.141793

>  <SCORE.RESTR.CAVITY>
0.141793

>  <SCORE.RESTR.norm>
0.00443103

>  <SCORE.SYSTEM>
0

>  <SCORE.SYSTEM.CONST>
0

>  <SCORE.SYSTEM.DIHEDRAL>
0

>  <SCORE.SYSTEM.SOLV>
0

>  <SCORE.SYSTEM.norm>
0

>  <SCORE.heavy>
32

>  <SCORE.norm>
-1.57425

>  <RMSD>
9.265

$$$$
2tob cryst
 OpenBabel11021811463D
libRbt.so/2013.1/901 2013/11/27
 32 34  0  0  0  0  0  0  0  0999 V2000
  -12.9491   -9.3681   -7.0744 C   0  0  2  0  0  0  0  0  0  0  0  0
  -12.9002  -10.1858   -5.7875 C   0  0  1  0  0  0  0  0  0  0  0  0
  -12.2076  -11.5187   -6.0731 C   0  0  2  0  0  0  0  0  0  0  0  0
  -12.8974  -12.2565   -7.2282 C   0  0  1  0  0  0  0  0  0  0  0  0
  -13.0236  -11.3285   -8.4414 C   0  0  1  0  0  0  0  0  0  0  0  0
  -13.8227  -11.9112   -9.5955 C   0  0  0  0  0  0  0  0  0  0  0  0
  -12.1819   -9.4730   -4.7841 O   0  0  0  0  0  0  0  0  0  0  0  0
  -12.0709  -12.4846   -4.9372 N   0  3  0  0  0  0  0  0  0  0  0  0
  -12.1261  -13.4006   -7.5721 O   0  0  0  0  0  0  0  0  0  0  0  0
  -13.6652  -10.0973   -8.0531 O   0  0  0  0  0  0  0  0  0  0  0  0
  -13.8000  -11.0376  -10.7198 O   0  0  0  0  0  0  0  0  0  0  0  0
  -12.2910   -7.6843   -9.3219 C   0  0  2  0  0  0  0  0  0  0  0  0
  -12.3294   -6.2627   -9.8987 C   0  0  0  0  0  0  0  0  0  0  0  0
  -12.5670   -5.2088   -8.8207 C   0  0  1  0  0  0  0  0  0  0  0  0
  -11.4741   -5.3414   -7.7689 C   0  0  2  0  0  0  0  0  0  0  0  0
  -11.5839   -6.7086   -7.0892 C   0  0  1  0  0  0  0  0  0  0  0  0
  -11.3589   -7.8382   -8.1097 C   0  0  1  0  0  0  0  0  0  0  0  0
  -11.8849   -8.6723  -10.3775 N   0  3  0  0  0  0  0  0  0  0  0  0
  -12.5938   -3.8310   -9.4115 N   0  3  0  0  0  0  0  0  0  0  0  0
  -10.6254   -6.7925   -6.0422 O   0  0  0  0  0  0  0  0  0  0  0  0
  -11.5882   -4.2939   -6.7885 O   0  0  0  0  0  0  0  0  0  0  0  0
  -11.6360   -9.1136   -7.4946 O   0  0  0  0  0  0  0  0  0  0  0  0
  -10.4928   -4.2237   -5.9179 C   0  0  2  0  0  0  0  0  0  0  0  0
  -10.7024   -3.0924   -4.9058 C   0  0  1  0  0  0  0  0  0  0  0  0
  -10.4955   -1.7259   -5.5596 C   0  0  0  0  0  0  0  0  0  0  0  0
   -9.1408   -1.7083   -6.2490 C   0  0  1  0  0  0  0  0  0  0  0  0
   -9.0892   -2.8248   -7.2773 C   0  0  1  0  0  0  0  0  0  0  0  0
   -7.7580   -2.8555   -8.0062 C   0  0  0  0  0  0  0  0  0  0  0  0
  -12.0918   -3.1701   -4.3517 N   0  3  0  0  0  0  0  0  0  0  0  0
   -7.7255   -4.0910   -8.8637 N   0  3  0  0  0  0  0  0  0  0  0  0
   -8.9249   -0.4550   -6.8820 O   0  0  0  0  0  0  0  0  0  0  0  0
   -9.2586   -4.0893   -6.6146 O   0  0  0  0  0  0  0  0  0  0  0  0
  1  2  1  0  0  0  0
  1 22  1  6  0  0  0
  1 10  1  0  0  0  0
  2  3  1  0  0  0  0
  2  7  1  1  0  0  0
  3  4  1  0  0  0  0
  3  8  1  1  0  0  0
  4  5  1  0  0  0  0
  4  9  1  6  0  0  0
  5  6  1  6  0  0  0
  5 10  1  0  0  0  0
  6 11  1  0  0  0  0
 12 13  1  0  0  0  0
 12 17  1  0  0  0  0
 12 18  1  6  0  0  0
 13 14  1  0  0  0  0
 14 15  1  0  0  0  0
 14 19  1  6  0  0  0
 15 16  1  0  0  0  0
 15 21  1  1  0  0  0
 16 17  1  0  0  0  0
 16 20  1  1  0  0  0
 17 22  1  1  0  0  0
 23 21  1  6  0  0  0
 23 24  1  0  0  0  0
 23 32  1  0  0  0  0
 24 25  1  0  0  0  0
 24 29  1  6  0  0  0
 25 26  1  0  0  0  0
 26 27  1  0  0  0  0
 26 31  1  6  0  0  0
 27 28  1  1  0  0  0
 27 32  1  0  0  0  0
 28 30  1  0  0  0  0
M  CHG  5   8   1  18   1  19   1  29   1  30   1
M  END
>  <CHROM.1>
-144.02008209,59.02971088,178.73468727,-58.82166425,-175.18307787,-173.55216632
91.11136521,-57.93084334,-170.19049546,-67.80390319,-57.00638137,-179.59737133
-44.25240821,57.20094755,172.55508130,43.76199239,-11.46851565,-6.98812746
-7.38351383,-2.89236384,-1.22906487,-1.19636742

>  <Name>
2tob cryst

>  <RI>
0

>  <Rbt.Current_Directory>
/home/itssahil/PROJECTS/Mol_Feturizer/New_Systems/rnas/2tob

>  <Rbt.Executable>
rbdock ($Id: //depot/dev/client3/rdock/2013.1/src/exe/rbdock.cxx#4 $)

>  <Rbt.Library>
libRbt.so (2013.1, Build901 2013/11/27)

>  <Rbt.Parameter_File>
/export/apps/rDock/src/rDock_2013.1_src/data/scripts/dock_solv.prm

>  <Rbt.Receptor>
prm/pocket_docking_6.prm

>  <SCORE>
-53.4429

>  <SCORE.INTER>
-30.0424

>  <SCORE.INTER.CONST>
1

>  <SCORE.INTER.POLAR>
-5.42627

>  <SCORE.INTER.ROT>
6

>  <SCORE.INTER.SOLV>
20.3672

>  <SCORE.INTER.VDW>
-16.3298

>  <SCORE.INTER.norm>
-0.938824

>  <SCORE.INTRA>
-23.4005

>  <SCORE.INTRA.DIHEDRAL>
-9.08319

>  <SCORE.INTRA.DIHEDRAL.0>
18.4221

>  <SCORE.INTRA.POLAR>
0.303939

>  <SCORE.INTRA.POLAR.0>
-1.57101

>  <SCORE.INTRA.REPUL>
-0.730195

>  <SCORE.INTRA.REPUL.0>
0.730195

>  <SCORE.INTRA.SOLV>
-6.86672

>  <SCORE.INTRA.SOLV.lig_0>
-127.221

>  <SCORE.INTRA.VDW>
-12.808

>  <SCORE.INTRA.VDW.0>
10.8385

>  <SCORE.INTRA.norm>
-0.731267

>  <SCORE.RESTR>
0

>  <SCORE.RESTR.CAVITY>
0

>  <SCORE.RESTR.norm>
0

>  <SCORE.SYSTEM>
0

>  <SCORE.SYSTEM.CONST>
0

>  <SCORE.SYSTEM.DIHEDRAL>
0

>  <SCORE.SYSTEM.SOLV>
0

>  <SCORE.SYSTEM.norm>
0

>  <SCORE.heavy>
32

>  <SCORE.norm>
-1.67009

>  <RMSD>
9.277

$$$$
2tob cryst
 OpenBabel11021811463D
libRbt.so/2013.1/901 2013/11/27
 32 34  0  0  0  0  0  0  0  0999 V2000
   -8.3435   -0.6548   -7.6518 C   0  0  2  0  0  0  0  0  0  0  0  0
   -8.1703   -1.6206   -6.4838 C   0  0  1  0  0  0  0  0  0  0  0  0
   -8.7621   -2.9765   -6.8697 C   0  0  2  0  0  0  0  0  0  0  0  0
  -10.2229   -2.8281   -7.3155 C   0  0  1  0  0  0  0  0  0  0  0  0
  -10.3329   -1.7504   -8.3996 C   0  0  1  0  0  0  0  0  0  0  0  0
  -11.7580   -1.4189   -8.8111 C   0  0  0  0  0  0  0  0  0  0  0  0
   -6.7871   -1.7674   -6.1739 O   0  0  0  0  0  0  0  0  0  0  0  0
   -8.7099   -4.0700   -5.8483 N   0  3  0  0  0  0  0  0  0  0  0  0
  -10.6798   -4.0750   -7.8242 O   0  0  0  0  0  0  0  0  0  0  0  0
   -9.7231   -0.5277   -7.9400 O   0  0  0  0  0  0  0  0  0  0  0  0
  -12.4969   -0.9031   -7.7086 O   0  0  0  0  0  0  0  0  0  0  0  0
   -7.5121    1.1999   -9.2508 C   0  0  2  0  0  0  0  0  0  0  0  0
   -6.7431    2.3331   -9.9434 C   0  0  0  0  0  0  0  0  0  0  0  0
   -5.2317    2.1358   -9.8666 C   0  0  1  0  0  0  0  0  0  0  0  0
   -4.8903    0.7873  -10.4854 C   0  0  2  0  0  0  0  0  0  0  0  0
   -5.5295   -0.3302   -9.6573 C   0  0  1  0  0  0  0  0  0  0  0  0
   -7.0632   -0.2068   -9.6771 C   0  0  1  0  0  0  0  0  0  0  0  0
   -8.9875    1.3357   -9.4956 N   0  3  0  0  0  0  0  0  0  0  0  0
   -4.5073    3.2533  -10.5554 N   0  3  0  0  0  0  0  0  0  0  0  0
   -5.1299   -1.5911  -10.1793 O   0  0  0  0  0  0  0  0  0  0  0  0
   -3.4638    0.6044  -10.5405 O   0  0  0  0  0  0  0  0  0  0  0  0
   -7.6409   -1.1560   -8.7567 O   0  0  0  0  0  0  0  0  0  0  0  0
   -3.0134    0.1011  -11.7679 C   0  0  2  0  0  0  0  0  0  0  0  0
   -1.9048   -0.9305  -11.5337 C   0  0  1  0  0  0  0  0  0  0  0  0
   -0.5965   -0.2486  -11.1324 C   0  0  0  0  0  0  0  0  0  0  0  0
   -0.2568    0.8144  -12.1647 C   0  0  1  0  0  0  0  0  0  0  0  0
   -1.3972    1.8141  -12.2460 C   0  0  1  0  0  0  0  0  0  0  0  0
   -1.1138    2.9078  -13.2597 C   0  0  0  0  0  0  0  0  0  0  0  0
   -2.3232   -1.8745  -10.4486 N   0  3  0  0  0  0  0  0  0  0  0  0
   -1.6517    2.4591  -14.5910 N   0  3  0  0  0  0  0  0  0  0  0  0
    0.9475    1.4795  -11.8109 O   0  0  0  0  0  0  0  0  0  0  0  0
   -2.5967    1.1346  -12.6539 O   0  0  0  0  0  0  0  0  0  0  0  0
  1  2  1  0  0  0  0
  1 22  1  6  0  0  0
  1 10  1  0  0  0  0
  2  3  1  0  0  0  0
  2  7  1  6  0  0  0
  3  4  1  0  0  0  0
  3  8  1  1  0  0  0
  4  5  1  0  0  0  0
  4  9  1  6  0  0  0
  5  6  1  1  0  0  0
  5 10  1  0  0  0  0
  6 11  1  0  0  0  0
 12 13  1  0  0  0  0
 12 17  1  0  0  0  0
 12 18  1  6  0  0  0
 13 14  1  0  0  0  0
 14 15  1  0  0  0  0
 14 19  1  6  0  0  0
 15 16  1  0  0  0  0
 15 21  1  1  0  0  0
 16 17  1  0  0  0  0
 16 20  1  6  0  0  0
 17 22  1  1  0  0  0
 23 21  1  1  0  0  0
 23 24  1  0  0  0  0
 23 32  1  0  0  0  0
 24 25  1  0  0  0  0
 24 29  1  1  0  0  0
 25 26  1  0  0  0  0
 26 27  1  0  0  0  0
 26 31  1  1  0  0  0
 27 28  1  6  0  0  0
 27 32  1  0  0  0  0
 28 30  1  0  0  0  0
M  CHG  5   8   1  18   1  19   1  29   1  30   1
M  END
>  <CHROM.1>
-147.95235335,-153.51806790,-53.51298122,69.52650868,61.78871004,179.22070110
75.59389258,-173.16977730,-134.94600487,144.17199271,-5.67425490,-140.05056271
-20.97310911,-58.95873944,90.32916756,-73.69643397,-5.84598569,-0.22652600
-9.70903731,2.60857407,-0.26436890,2.59807377

>  <Name>
2tob cryst

>  <RI>
0

>  <Rbt.Current_Directory>
/home/itssahil/PROJECTS/Mol_Feturizer/New_Systems/rnas/2tob

>  <Rbt.Executable>
rbdock ($Id: //depot/dev/client3/rdock/2013.1/src/exe/rbdock.cxx#4 $)

>  <Rbt.Library>
libRbt.so (2013.1, Build901 2013/11/27)

>  <Rbt.Parameter_File>
/export/apps/rDock/src/rDock_2013.1_src/data/scripts/dock_solv.prm

>  <Rbt.Receptor>
prm/blind_docking_60.prm

>  <SCORE>
-8.69906

>  <SCORE.INTER>
-23.3774

>  <SCORE.INTER.CONST>
1

>  <SCORE.INTER.POLAR>
-4.14713

>  <SCORE.INTER.ROT>
6

>  <SCORE.INTER.SOLV>
35.2825

>  <SCORE.INTER.VDW>
-21.122

>  <SCORE.INTER.norm>
-0.730545

>  <SCORE.INTRA>
-1.91898

>  <SCORE.INTRA.DIHEDRAL>
18.8178

>  <SCORE.INTRA.DIHEDRAL.0>
18.4221

>  <SCORE.INTRA.POLAR>
0.149741

>  <SCORE.INTRA.POLAR.0>
-1.57101

>  <SCORE.INTRA.REPUL>
-0.730195

>  <SCORE.INTRA.REPUL.0>
0.730195

>  <SCORE.INTRA.SOLV>
-0.964811

>  <SCORE.INTRA.SOLV.lig_0>
-127.221

>  <SCORE.INTRA.VDW>
-7.70361

>  <SCORE.INTRA.VDW.0>
10.8385

>  <SCORE.INTRA.norm>
-0.0599681

>  <SCORE.RESTR>
16.5973

>  <SCORE.RESTR.CAVITY>
16.5973

>  <SCORE.RESTR.norm>
0.518667

>  <SCORE.SYSTEM>
0

>  <SCORE.SYSTEM.CONST>
0

>  <SCORE.SYSTEM.DIHEDRAL>
0

>  <SCORE.SYSTEM.SOLV>
0

>  <SCORE.SYSTEM.norm>
0

>  <SCORE.heavy>
32

>  <SCORE.norm>
-0.271846

>  <RMSD>
9.357

$$$$
2tob cryst
 OpenBabel11021811463D
libRbt.so/2013.1/901 2013/11/27
 32 34  0  0  0  0  0  0  0  0999 V2000
  -14.4407   -7.1213   -5.0152 C   0  0  2  0  0  0  0  0  0  0  0  0
  -14.2895   -7.1385   -3.4974 C   0  0  1  0  0  0  0  0  0  0  0  0
  -14.1750   -8.5888   -3.0270 C   0  0  2  0  0  0  0  0  0  0  0  0
  -15.3665   -9.4194   -3.5219 C   0  0  1  0  0  0  0  0  0  0  0  0
  -15.5308   -9.2493   -5.0361 C   0  0  1  0  0  0  0  0  0  0  0  0
  -16.7708   -9.9146   -5.6104 C   0  0  0  0  0  0  0  0  0  0  0  0
  -13.1240   -6.4129   -3.1154 O   0  0  0  0  0  0  0  0  0  0  0  0
  -14.0356   -8.8299   -1.5558 N   0  3  0  0  0  0  0  0  0  0  0  0
  -15.1371  -10.7879   -3.2105 O   0  0  0  0  0  0  0  0  0  0  0  0
  -15.6025   -7.8482   -5.3678 O   0  0  0  0  0  0  0  0  0  0  0  0
  -16.8629   -9.6897   -7.0135 O   0  0  0  0  0  0  0  0  0  0  0  0
  -10.9807   -7.7413   -6.2602 C   0  0  2  0  0  0  0  0  0  0  0  0
   -9.7546   -6.9438   -6.7246 C   0  0  0  0  0  0  0  0  0  0  0  0
  -10.1328   -5.7916   -7.6513 C   0  0  1  0  0  0  0  0  0  0  0  0
  -11.1236   -4.8938   -6.9231 C   0  0  2  0  0  0  0  0  0  0  0  0
  -12.4072   -5.6773   -6.6376 C   0  0  1  0  0  0  0  0  0  0  0  0
  -12.1170   -6.8674   -5.7061 C   0  0  1  0  0  0  0  0  0  0  0  0
  -10.5911   -8.7515   -5.2195 N   0  3  0  0  0  0  0  0  0  0  0  0
   -8.9174   -5.0277   -8.0840 N   0  3  0  0  0  0  0  0  0  0  0  0
  -13.3664   -4.8106   -6.0453 O   0  0  0  0  0  0  0  0  0  0  0  0
  -11.4238   -3.7290   -7.7136 O   0  0  0  0  0  0  0  0  0  0  0  0
  -13.2949   -7.6921   -5.5869 O   0  0  0  0  0  0  0  0  0  0  0  0
  -11.4890   -2.5479   -6.9631 C   0  0  2  0  0  0  0  0  0  0  0  0
  -11.9470   -1.3883   -7.8539 C   0  0  1  0  0  0  0  0  0  0  0  0
  -10.8251   -0.9397   -8.7908 C   0  0  0  0  0  0  0  0  0  0  0  0
   -9.5820   -0.6452   -7.9670 C   0  0  1  0  0  0  0  0  0  0  0  0
   -9.1887   -1.8915   -7.1932 C   0  0  1  0  0  0  0  0  0  0  0  0
   -7.9459   -1.6616   -6.3526 C   0  0  0  0  0  0  0  0  0  0  0  0
  -13.1275   -1.8210   -8.6680 N   0  3  0  0  0  0  0  0  0  0  0  0
   -6.7577   -2.1493   -7.1356 N   0  3  0  0  0  0  0  0  0  0  0  0
   -8.5138   -0.2412   -8.8118 O   0  0  0  0  0  0  0  0  0  0  0  0
  -10.2595   -2.2579   -6.3066 O   0  0  0  0  0  0  0  0  0  0  0  0
  1  2  1  0  0  0  0
  1 22  1  6  0  0  0
  1 10  1  0  0  0  0
  2  3  1  0  0  0  0
  2  7  1  6  0  0  0
  3  4  1  0  0  0  0
  3  8  1  1  0  0  0
  4  5  1  0  0  0  0
  4  9  1  6  0  0  0
  5  6  1  1  0  0  0
  5 10  1  0  0  0  0
  6 11  1  0  0  0  0
 12 13  1  0  0  0  0
 12 17  1  0  0  0  0
 12 18  1  1  0  0  0
 13 14  1  0  0  0  0
 14 15  1  0  0  0  0
 14 19  1  1  0  0  0
 15 16  1  0  0  0  0
 15 21  1  6  0  0  0
 16 17  1  0  0  0  0
 16 20  1  1  0  0  0
 17 22  1  6  0  0  0
 23 21  1  6  0  0  0
 23 24  1  0  0  0  0
 23 32  1  0  0  0  0
 24 25  1  0  0  0  0
 24 29  1  6  0  0  0
 25 26  1  0  0  0  0
 26 27  1  0  0  0  0
 26 31  1  6  0  0  0
 27 28  1  1  0  0  0
 27 32  1  0  0  0  0
 28 30  1  0  0  0  0
M  CHG  5   8   1  18   1  19   1  29   1  30   1
M  END
>  <CHROM.1>
-80.22247628,-73.29480058,178.69756551,176.51721097,178.91572622,-179.26407412
-70.91251789,-79.21939258,-138.57764543,62.88817527,175.91631090,-174.42812623
-171.81430274,174.56363276,-95.91161352,-86.25917783,-12.15188177,-5.59239742
-6.07589827,2.18327938,0.17963890,2.56989275

>  <Name>
2tob cryst

>  <RI>
0

>  <Rbt.Current_Directory>
/home/itssahil/PROJECTS/Mol_Feturizer/New_Systems/rnas/2tob

>  <Rbt.Executable>
rbdock ($Id: //depot/dev/client3/rdock/2013.1/src/exe/rbdock.cxx#4 $)

>  <Rbt.Library>
libRbt.so (2013.1, Build901 2013/11/27)

>  <Rbt.Parameter_File>
/export/apps/rDock/src/rDock_2013.1_src/data/scripts/dock_solv.prm

>  <Rbt.Receptor>
prm/pocket_docking_6.prm

>  <SCORE>
-39.7013

>  <SCORE.INTER>
-23.0777

>  <SCORE.INTER.CONST>
1

>  <SCORE.INTER.POLAR>
-4.41233

>  <SCORE.INTER.ROT>
6

>  <SCORE.INTER.SOLV>
21.3058

>  <SCORE.INTER.VDW>
-15.3793

>  <SCORE.INTER.norm>
-0.721178

>  <SCORE.INTRA>
-16.6236

>  <SCORE.INTRA.DIHEDRAL>
-3.23183

>  <SCORE.INTRA.DIHEDRAL.0>
18.4221

>  <SCORE.INTRA.POLAR>
1.4918

>  <SCORE.INTRA.POLAR.0>
-1.57101

>  <SCORE.INTRA.REPUL>
-0.730195

>  <SCORE.INTRA.REPUL.0>
0.730195

>  <SCORE.INTRA.SOLV>
-4.18304

>  <SCORE.INTRA.SOLV.lig_0>
-127.221

>  <SCORE.INTRA.VDW>
-14.3373

>  <SCORE.INTRA.VDW.0>
10.8385

>  <SCORE.INTRA.norm>
-0.519488

>  <SCORE.RESTR>
0

>  <SCORE.RESTR.CAVITY>
0

>  <SCORE.RESTR.norm>
0

>  <SCORE.SYSTEM>
0

>  <SCORE.SYSTEM.CONST>
0

>  <SCORE.SYSTEM.DIHEDRAL>
0

>  <SCORE.SYSTEM.SOLV>
0

>  <SCORE.SYSTEM.norm>
0

>  <SCORE.heavy>
32

>  <SCORE.norm>
-1.24067

>  <RMSD>
9.515

$$$$
2tob cryst
 OpenBabel11021811463D
libRbt.so/2013.1/901 2013/11/27
 32 34  0  0  0  0  0  0  0  0999 V2000
  -13.8605   -8.2205   -5.4583 C   0  0  2  0  0  0  0  0  0  0  0  0
  -14.5330   -9.2852   -4.5974 C   0  0  1  0  0  0  0  0  0  0  0  0
  -14.3608  -10.6477   -5.2694 C   0  0  2  0  0  0  0  0  0  0  0  0
  -14.8892  -10.6172   -6.7097 C   0  0  1  0  0  0  0  0  0  0  0  0
  -14.2637   -9.4443   -7.4725 C   0  0  1  0  0  0  0  0  0  0  0  0
  -14.8273   -9.2327   -8.8681 C   0  0  0  0  0  0  0  0  0  0  0  0
  -13.9427   -9.3078   -3.3006 O   0  0  0  0  0  0  0  0  0  0  0  0
  -14.9679  -11.8358   -4.5901 N   0  3  0  0  0  0  0  0  0  0  0  0
  -14.5574  -11.8429   -7.3499 O   0  0  0  0  0  0  0  0  0  0  0  0
  -14.4629   -8.2194   -6.7388 O   0  0  0  0  0  0  0  0  0  0  0  0
  -14.5568  -10.3566   -9.6997 O   0  0  0  0  0  0  0  0  0  0  0  0
  -10.2134   -7.9650   -6.1113 C   0  0  2  0  0  0  0  0  0  0  0  0
   -9.2199   -6.8883   -6.5681 C   0  0  0  0  0  0  0  0  0  0  0  0
   -9.8374   -5.9243   -7.5774 C   0  0  1  0  0  0  0  0  0  0  0  0
  -11.0727   -5.2949   -6.9482 C   0  0  2  0  0  0  0  0  0  0  0  0
  -12.1148   -6.3820   -6.6731 C   0  0  1  0  0  0  0  0  0  0  0  0
  -11.5721   -7.4058   -5.6606 C   0  0  1  0  0  0  0  0  0  0  0  0
   -9.6294   -8.7841   -4.9962 N   0  3  0  0  0  0  0  0  0  0  0  0
   -8.8471   -4.8813   -8.0010 N   0  3  0  0  0  0  0  0  0  0  0  0
  -13.3035   -5.7802   -6.1762 O   0  0  0  0  0  0  0  0  0  0  0  0
  -11.6265   -4.2916   -7.8189 O   0  0  0  0  0  0  0  0  0  0  0  0
  -12.4917   -8.5115   -5.5444 O   0  0  0  0  0  0  0  0  0  0  0  0
  -12.2012   -3.2139   -7.1328 C   0  0  2  0  0  0  0  0  0  0  0  0
  -13.2744   -2.5531   -8.0043 C   0  0  1  0  0  0  0  0  0  0  0  0
  -12.6404   -1.7298   -9.1258 C   0  0  0  0  0  0  0  0  0  0  0  0
  -11.6386   -0.7597   -8.5204 C   0  0  1  0  0  0  0  0  0  0  0  0
  -10.5893   -1.5418   -7.7497 C   0  0  1  0  0  0  0  0  0  0  0  0
   -9.5534   -0.6254   -7.1242 C   0  0  0  0  0  0  0  0  0  0  0  0
  -14.1516   -3.6099   -8.6022 N   0  3  0  0  0  0  0  0  0  0  0  0
   -8.6114   -1.4729   -6.3135 N   0  3  0  0  0  0  0  0  0  0  0  0
  -11.0182    0.0102   -9.5404 O   0  0  0  0  0  0  0  0  0  0  0  0
  -11.2265   -2.2754   -6.6902 O   0  0  0  0  0  0  0  0  0  0  0  0
  1  2  1  0  0  0  0
  1 22  1  6  0  0  0
  1 10  1  0  0  0  0
  2  3  1  0  0  0  0
  2  7  1  1  0  0  0
  3  4  1  0  0  0  0
  3  8  1  1  0  0  0
  4  5  1  0  0  0  0
  4  9  1  6  0  0  0
  5  6  1  6  0  0  0
  5 10  1  0  0  0  0
  6 11  1  0  0  0  0
 12 13  1  0  0  0  0
 12 17  1  0  0  0  0
 12 18  1  1  0  0  0
 13 14  1  0  0  0  0
 14 15  1  0  0  0  0
 14 19  1  1  0  0  0
 15 16  1  0  0  0  0
 15 21  1  6  0  0  0
 16 17  1  0  0  0  0
 16 20  1  1  0  0  0
 17 22  1  6  0  0  0
 23 21  1  6  0  0  0
 23 24  1  0  0  0  0
 23 32  1  0  0  0  0
 24 25  1  0  0  0  0
 24 29  1  6  0  0  0
 25 26  1  0  0  0  0
 26 27  1  0  0  0  0
 26 31  1  6  0  0  0
 27 28  1  1  0  0  0
 27 32  1  0  0  0  0
 28 30  1  0  0  0  0
M  CHG  5   8   1  18   1  19   1  29   1  30   1
M  END
>  <CHROM.1>
-148.19309989,175.80938708,-175.29484318,-66.26116961,-63.29714955,176.89964283
-57.60539970,165.56638697,-146.18106621,67.54684677,-165.09871031,-154.51879868
-35.56502223,59.33652809,176.44455727,-161.61282076,-12.31543373,-6.24314511
-6.90468729,2.00036002,0.51559562,2.71034214

>  <Name>
2tob cryst

>  <RI>
0

>  <Rbt.Current_Directory>
/home/itssahil/PROJECTS/Mol_Feturizer/New_Systems/rnas/2tob

>  <Rbt.Executable>
rbdock ($Id: //depot/dev/client3/rdock/2013.1/src/exe/rbdock.cxx#4 $)

>  <Rbt.Library>
libRbt.so (2013.1, Build901 2013/11/27)

>  <Rbt.Parameter_File>
/export/apps/rDock/src/rDock_2013.1_src/data/scripts/dock_solv.prm

>  <Rbt.Receptor>
prm/pocket_docking_5.prm

>  <SCORE>
-41.5165

>  <SCORE.INTER>
-24.7604

>  <SCORE.INTER.CONST>
1

>  <SCORE.INTER.POLAR>
-4.37741

>  <SCORE.INTER.ROT>
6

>  <SCORE.INTER.SOLV>
17.8059

>  <SCORE.INTER.VDW>
-15.4509

>  <SCORE.INTER.norm>
-0.773762

>  <SCORE.INTRA>
-16.7561

>  <SCORE.INTRA.DIHEDRAL>
-2.91237

>  <SCORE.INTRA.DIHEDRAL.0>
18.4221

>  <SCORE.INTRA.POLAR>
1.26483

>  <SCORE.INTRA.POLAR.0>
-1.57101

>  <SCORE.INTRA.REPUL>
-0.730195

>  <SCORE.INTRA.REPUL.0>
0.730195

>  <SCORE.INTRA.SOLV>
-5.2823

>  <SCORE.INTRA.SOLV.lig_0>
-127.221

>  <SCORE.INTRA.VDW>
-13.3082

>  <SCORE.INTRA.VDW.0>
10.8385

>  <SCORE.INTRA.norm>
-0.523628

>  <SCORE.RESTR>
0

>  <SCORE.RESTR.CAVITY>
0

>  <SCORE.RESTR.norm>
0

>  <SCORE.SYSTEM>
0

>  <SCORE.SYSTEM.CONST>
0

>  <SCORE.SYSTEM.DIHEDRAL>
0

>  <SCORE.SYSTEM.SOLV>
0

>  <SCORE.SYSTEM.norm>
0

>  <SCORE.heavy>
32

>  <SCORE.norm>
-1.29739

>  <RMSD>
9.551

$$$$
2tob cryst
 OpenBabel11021811463D
libRbt.so/2013.1/901 2013/11/27
 32 34  0  0  0  0  0  0  0  0999 V2000
   -8.3292   -0.3669   -7.2277 C   0  0  2  0  0  0  0  0  0  0  0  0
   -9.7458   -0.9238   -7.1276 C   0  0  1  0  0  0  0  0  0  0  0  0
  -10.5697   -0.3977   -8.3032 C   0  0  2  0  0  0  0  0  0  0  0  0
  -10.5288    1.1353   -8.3565 C   0  0  1  0  0  0  0  0  0  0  0  0
   -9.0759    1.6220   -8.3251 C   0  0  1  0  0  0  0  0  0  0  0  0
   -8.9227    3.1310   -8.2273 C   0  0  0  0  0  0  0  0  0  0  0  0
   -9.7129   -2.3481   -7.1593 O   0  0  0  0  0  0  0  0  0  0  0  0
  -12.0054   -0.8148   -8.3835 N   0  3  0  0  0  0  0  0  0  0  0  0
  -11.1603    1.5733   -9.5530 O   0  0  0  0  0  0  0  0  0  0  0  0
   -8.3897    1.0466   -7.1953 O   0  0  0  0  0  0  0  0  0  0  0  0
   -8.6310    3.6945   -9.5021 O   0  0  0  0  0  0  0  0  0  0  0  0
   -5.6937   -1.9852   -8.8887 C   0  0  2  0  0  0  0  0  0  0  0  0
   -4.2502   -1.8993   -9.4025 C   0  0  0  0  0  0  0  0  0  0  0  0
   -4.1084   -0.9192  -10.5637 C   0  0  1  0  0  0  0  0  0  0  0  0
   -4.6063    0.4448  -10.1057 C   0  0  2  0  0  0  0  0  0  0  0  0
   -6.0981    0.3579   -9.7740 C   0  0  1  0  0  0  0  0  0  0  0  0
   -6.3356   -0.6174   -8.6076 C   0  0  1  0  0  0  0  0  0  0  0  0
   -5.7626   -2.8211   -7.6430 N   0  3  0  0  0  0  0  0  0  0  0  0
   -2.6885   -0.8517  -11.0408 N   0  3  0  0  0  0  0  0  0  0  0  0
   -6.5828    1.6524   -9.4403 O   0  0  0  0  0  0  0  0  0  0  0  0
   -4.3867    1.4317  -11.1301 O   0  0  0  0  0  0  0  0  0  0  0  0
   -7.7520   -0.8204   -8.4222 O   0  0  0  0  0  0  0  0  0  0  0  0
   -3.1480    2.0777  -11.0253 C   0  0  2  0  0  0  0  0  0  0  0  0
   -3.2398    3.4830  -11.6291 C   0  0  1  0  0  0  0  0  0  0  0  0
   -3.2781    3.4227  -13.1563 C   0  0  0  0  0  0  0  0  0  0  0  0
   -2.0952    2.6043  -13.6481 C   0  0  1  0  0  0  0  0  0  0  0  0
   -2.1622    1.2143  -13.0396 C   0  0  1  0  0  0  0  0  0  0  0  0
   -1.0063    0.3442  -13.4991 C   0  0  0  0  0  0  0  0  0  0  0  0
   -4.4789    4.1604  -11.1299 N   0  3  0  0  0  0  0  0  0  0  0  0
    0.2091    0.7242  -12.6983 N   0  3  0  0  0  0  0  0  0  0  0  0
   -2.1116    2.5149  -15.0657 O   0  0  0  0  0  0  0  0  0  0  0  0
   -2.0936    1.3188  -11.6074 O   0  0  0  0  0  0  0  0  0  0  0  0
  1  2  1  0  0  0  0
  1 22  1  6  0  0  0
  1 10  1  0  0  0  0
  2  3  1  0  0  0  0
  2  7  1  6  0  0  0
  3  4  1  0  0  0  0
  3  8  1  1  0  0  0
  4  5  1  0  0  0  0
  4  9  1  6  0  0  0
  5  6  1  1  0  0  0
  5 10  1  0  0  0  0
  6 11  1  0  0  0  0
 12 13  1  0  0  0  0
 12 17  1  0  0  0  0
 12 18  1  1  0  0  0
 13 14  1  0  0  0  0
 14 15  1  0  0  0  0
 14 19  1  1  0  0  0
 15 16  1  0  0  0  0
 15 21  1  6  0  0  0
 16 17  1  0  0  0  0
 16 20  1  1  0  0  0
 17 22  1  6  0  0  0
 23 21  1  6  0  0  0
 23 24  1  0  0  0  0
 23 32  1  0  0  0  0
 24 25  1  0  0  0  0
 24 29  1  1  0  0  0
 25 26  1  0  0  0  0
 26 27  1  0  0  0  0
 26 31  1  6  0  0  0
 27 28  1  6  0  0  0
 27 32  1  0  0  0  0
 28 30  1  0  0  0  0
M  CHG  5   8   1  18   1  19   1  29   1  30   1
M  END
>  <CHROM.1>
-168.92792581,62.39030855,-167.02876845,62.09705419,-100.47326654,-58.37059558
-157.44234572,-109.65519655,-90.47125832,-61.39093455,124.10786431,-152.44084537
-172.48009352,-59.37740231,79.04296735,44.11232733,-5.91212178,0.72895787
-10.03183239,-2.74127926,0.42509639,-0.46040092

>  <Name>
2tob cryst

>  <RI>
0

>  <Rbt.Current_Directory>
/home/itssahil/PROJECTS/Mol_Feturizer/New_Systems/rnas/2tob

>  <Rbt.Executable>
rbdock ($Id: //depot/dev/client3/rdock/2013.1/src/exe/rbdock.cxx#4 $)

>  <Rbt.Library>
libRbt.so (2013.1, Build901 2013/11/27)

>  <Rbt.Parameter_File>
/export/apps/rDock/src/rDock_2013.1_src/data/scripts/dock_solv.prm

>  <Rbt.Receptor>
prm/blind_docking_60.prm

>  <SCORE>
1.87306

>  <SCORE.INTER>
-1.82995

>  <SCORE.INTER.CONST>
1

>  <SCORE.INTER.POLAR>
-2.15268

>  <SCORE.INTER.ROT>
6

>  <SCORE.INTER.SOLV>
37.6038

>  <SCORE.INTER.VDW>
-14.179

>  <SCORE.INTER.norm>
-0.0571861

>  <SCORE.INTRA>
-10.2594

>  <SCORE.INTRA.DIHEDRAL>
7.06239

>  <SCORE.INTRA.DIHEDRAL.0>
18.4221

>  <SCORE.INTRA.POLAR>
0.0883466

>  <SCORE.INTRA.POLAR.0>
-1.57101

>  <SCORE.INTRA.REPUL>
-0.728893

>  <SCORE.INTRA.REPUL.0>
0.730195

>  <SCORE.INTRA.SOLV>
0.548003

>  <SCORE.INTRA.SOLV.lig_0>
-127.221

>  <SCORE.INTRA.VDW>
-10.7205

>  <SCORE.INTRA.VDW.0>
10.8385

>  <SCORE.INTRA.norm>
-0.320607

>  <SCORE.RESTR>
13.9624

>  <SCORE.RESTR.CAVITY>
13.9624

>  <SCORE.RESTR.norm>
0.436326

>  <SCORE.SYSTEM>
0

>  <SCORE.SYSTEM.CONST>
0

>  <SCORE.SYSTEM.DIHEDRAL>
0

>  <SCORE.SYSTEM.SOLV>
0

>  <SCORE.SYSTEM.norm>
0

>  <SCORE.heavy>
32

>  <SCORE.norm>
0.058533

>  <RMSD>
9.560

$$$$
2tob cryst
 OpenBabel11021811463D
libRbt.so/2013.1/901 2013/11/27
 32 34  0  0  0  0  0  0  0  0999 V2000
   -8.3114   -0.9800   -9.3656 C   0  0  2  0  0  0  0  0  0  0  0  0
   -9.4954   -0.0715   -9.6814 C   0  0  1  0  0  0  0  0  0  0  0  0
  -10.3387    0.1012   -8.4179 C   0  0  2  0  0  0  0  0  0  0  0  0
  -10.7606   -1.2613   -7.8520 C   0  0  1  0  0  0  0  0  0  0  0  0
   -9.5318   -2.1614   -7.6827 C   0  0  1  0  0  0  0  0  0  0  0  0
   -9.8524   -3.5870   -7.2643 C   0  0  0  0  0  0  0  0  0  0  0  0
   -9.0294    1.1986  -10.1290 O   0  0  0  0  0  0  0  0  0  0  0  0
  -11.5683    0.9498   -8.5174 N   0  3  0  0  0  0  0  0  0  0  0  0
  -11.3928   -1.0635   -6.5936 O   0  0  0  0  0  0  0  0  0  0  0  0
   -8.8003   -2.2320   -8.9229 O   0  0  0  0  0  0  0  0  0  0  0  0
  -10.4418   -3.6145   -5.9683 O   0  0  0  0  0  0  0  0  0  0  0  0
   -5.5421   -1.6061   -8.9621 C   0  0  2  0  0  0  0  0  0  0  0  0
   -4.1248   -1.5710   -9.5495 C   0  0  0  0  0  0  0  0  0  0  0  0
   -4.0046   -0.5847  -10.7080 C   0  0  1  0  0  0  0  0  0  0  0  0
   -4.4240    0.7926  -10.2129 C   0  0  2  0  0  0  0  0  0  0  0  0
   -5.8990    0.7603   -9.8048 C   0  0  1  0  0  0  0  0  0  0  0  0
   -6.1142   -0.2174   -8.6361 C   0  0  1  0  0  0  0  0  0  0  0  0
   -5.5794   -2.4519   -7.7217 N   0  3  0  0  0  0  0  0  0  0  0  0
   -2.6097   -0.5675  -11.2576 N   0  3  0  0  0  0  0  0  0  0  0  0
   -6.3143    2.0690   -9.4352 O   0  0  0  0  0  0  0  0  0  0  0  0
   -4.2189    1.7811  -11.2387 O   0  0  0  0  0  0  0  0  0  0  0  0
   -7.5260   -0.3671   -8.3791 O   0  0  0  0  0  0  0  0  0  0  0  0
   -2.9422    2.3571  -11.2103 C   0  0  2  0  0  0  0  0  0  0  0  0
   -3.0079    3.7973  -11.7296 C   0  0  1  0  0  0  0  0  0  0  0  0
   -3.1799    3.8256  -13.2486 C   0  0  0  0  0  0  0  0  0  0  0  0
   -2.0901    2.9780  -13.8849 C   0  0  1  0  0  0  0  0  0  0  0  0
   -2.1810    1.5609  -13.3461 C   0  0  1  0  0  0  0  0  0  0  0  0
   -1.1183    0.6613  -13.9506 C   0  0  0  0  0  0  0  0  0  0  0  0
   -4.1607    4.5066  -11.0883 N   0  3  0  0  0  0  0  0  0  0  0  0
   -0.0781    0.3968  -12.8966 N   0  3  0  0  0  0  0  0  0  0  0  0
   -2.2325    2.9700  -15.2983 O   0  0  0  0  0  0  0  0  0  0  0  0
   -1.9846    1.5805  -11.9221 O   0  0  0  0  0  0  0  0  0  0  0  0
  1  2  1  0  0  0  0
  1 22  1  1  0  0  0
  1 10  1  0  0  0  0
  2  3  1  0  0  0  0
  2  7  1  1  0  0  0
  3  4  1  0  0  0  0
  3  8  1  6  0  0  0
  4  5  1  0  0  0  0
  4  9  1  1  0  0  0
  5  6  1  6  0  0  0
  5 10  1  0  0  0  0
  6 11  1  0  0  0  0
 12 13  1  0  0  0  0
 12 17  1  0  0  0  0
 12 18  1  1  0  0  0
 13 14  1  0  0  0  0
 14 15  1  0  0  0  0
 14 19  1  1  0  0  0
 15 16  1  0  0  0  0
 15 21  1  6  0  0  0
 16 17  1  0  0  0  0
 16 20  1  1  0  0  0
 17 22  1  6  0  0  0
 23 21  1  6  0  0  0
 23 24  1  0  0  0  0
 23 32  1  0  0  0  0
 24 25  1  0  0  0  0
 24 29  1  1  0  0  0
 25 26  1  0  0  0  0
 26 27  1  0  0  0  0
 26 31  1  6  0  0  0
 27 28  1  6  0  0  0
 27 32  1  0  0  0  0
 28 30  1  0  0  0  0
M  CHG  5   8   1  18   1  19   1  29   1  30   1
M  END
>  <CHROM.1>
-127.61378942,160.82688066,151.25859815,80.67867296,-64.48752714,134.98043734
-35.83388474,-103.48622794,-89.21010117,168.85150092,-55.17753726,-149.79115976
-50.89581592,56.14713460,106.89875730,143.43732020,-5.92746925,0.31763537
-10.13521719,-2.55442508,0.36410916,-0.47095908

>  <Name>
2tob cryst

>  <RI>
2.10184e+07

>  <Rbt.Current_Directory>
/home/itssahil/PROJECTS/Mol_Feturizer/New_Systems/rnas/2tob

>  <Rbt.Executable>
rbdock ($Id: //depot/dev/client3/rdock/2013.1/src/exe/rbdock.cxx#4 $)

>  <Rbt.Library>
libRbt.so (2013.1, Build901 2013/11/27)

>  <Rbt.Parameter_File>
/export/apps/rDock/src/rDock_2013.1_src/data/scripts/dock_solv.prm

>  <Rbt.Receptor>
prm/pocket_docking_7.prm

>  <SCORE>
-23.9225

>  <SCORE.INTER>
-21.4661

>  <SCORE.INTER.CONST>
1

>  <SCORE.INTER.POLAR>
-5.32185

>  <SCORE.INTER.ROT>
6

>  <SCORE.INTER.SOLV>
42.9757

>  <SCORE.INTER.VDW>
-18.4965

>  <SCORE.INTER.norm>
-0.670815

>  <SCORE.INTRA>
-2.54249

>  <SCORE.INTRA.DIHEDRAL>
19.414

>  <SCORE.INTRA.DIHEDRAL.0>
18.4221

>  <SCORE.INTRA.POLAR>
-0.151176

>  <SCORE.INTRA.POLAR.0>
-1.57101

>  <SCORE.INTRA.REPUL>
-0.730195

>  <SCORE.INTRA.REPUL.0>
0.730195

>  <SCORE.INTRA.SOLV>
3.03069

>  <SCORE.INTRA.SOLV.lig_0>
-127.221

>  <SCORE.INTRA.VDW>
-9.59988

>  <SCORE.INTRA.VDW.0>
10.8385

>  <SCORE.INTRA.norm>
-0.079453

>  <SCORE.RESTR>
0.086088

>  <SCORE.RESTR.CAVITY>
0.086088

>  <SCORE.RESTR.norm>
0.00269025

>  <SCORE.SYSTEM>
0

>  <SCORE.SYSTEM.CONST>
0

>  <SCORE.SYSTEM.DIHEDRAL>
0

>  <SCORE.SYSTEM.SOLV>
0

>  <SCORE.SYSTEM.norm>
0

>  <SCORE.heavy>
32

>  <SCORE.norm>
-0.747578

>  <RMSD>
9.652

$$$$
2tob cryst
 OpenBabel11021811463D
libRbt.so/2013.1/901 2013/11/27
 32 34  0  0  0  0  0  0  0  0999 V2000
  -12.7399   -9.8194   -7.0509 C   0  0  2  0  0  0  0  0  0  0  0  0
  -12.6789  -11.3342   -7.2208 C   0  0  1  0  0  0  0  0  0  0  0  0
  -14.0984  -11.8693   -7.4111 C   0  0  2  0  0  0  0  0  0  0  0  0
  -15.0075  -11.4301   -6.2556 C   0  0  1  0  0  0  0  0  0  0  0  0
  -14.9164   -9.9121   -6.0653 C   0  0  1  0  0  0  0  0  0  0  0  0
  -15.6665   -9.3867   -4.8523 C   0  0  0  0  0  0  0  0  0  0  0  0
  -11.8812  -11.6658   -8.3542 O   0  0  0  0  0  0  0  0  0  0  0  0
  -14.2636  -13.3479   -7.5795 N   0  3  0  0  0  0  0  0  0  0  0  0
  -16.3473  -11.8010   -6.5548 O   0  0  0  0  0  0  0  0  0  0  0  0
  -13.5375   -9.5172   -5.9217 O   0  0  0  0  0  0  0  0  0  0  0  0
  -17.0537   -9.6962   -4.9409 O   0  0  0  0  0  0  0  0  0  0  0  0
  -13.6174   -7.4596   -9.7853 C   0  0  2  0  0  0  0  0  0  0  0  0
  -13.2477   -6.0322  -10.2106 C   0  0  0  0  0  0  0  0  0  0  0  0
  -13.0149   -5.1153   -9.0129 C   0  0  1  0  0  0  0  0  0  0  0  0
  -11.9233   -5.7257   -8.1446 C   0  0  2  0  0  0  0  0  0  0  0  0
  -12.4037   -7.0698   -7.5917 C   0  0  1  0  0  0  0  0  0  0  0  0
  -12.6672   -8.0618   -8.7382 C   0  0  1  0  0  0  0  0  0  0  0  0
  -13.6679   -8.3703  -10.9784 N   0  3  0  0  0  0  0  0  0  0  0  0
  -12.6502   -3.7307   -9.4579 N   0  3  0  0  0  0  0  0  0  0  0  0
  -11.4228   -7.5918   -6.7042 O   0  0  0  0  0  0  0  0  0  0  0  0
  -11.5866   -4.8400   -7.0612 O   0  0  0  0  0  0  0  0  0  0  0  0
  -13.2813   -9.2586   -8.2163 O   0  0  0  0  0  0  0  0  0  0  0  0
  -10.2908   -5.0336   -6.5652 C   0  0  2  0  0  0  0  0  0  0  0  0
  -10.1704   -4.4195   -5.1665 C   0  0  1  0  0  0  0  0  0  0  0  0
  -10.1042   -2.8939   -5.2408 C   0  0  0  0  0  0  0  0  0  0  0  0
   -8.9945   -2.4938   -6.1996 C   0  0  1  0  0  0  0  0  0  0  0  0
   -9.2706   -3.1007   -7.5642 C   0  0  1  0  0  0  0  0  0  0  0  0
   -8.1961   -2.7310   -8.5707 C   0  0  0  0  0  0  0  0  0  0  0  0
  -11.3532   -4.8234   -4.3410 N   0  3  0  0  0  0  0  0  0  0  0  0
   -7.0992   -3.7562   -8.4780 N   0  3  0  0  0  0  0  0  0  0  0  0
   -8.9180   -1.0791   -6.3040 O   0  0  0  0  0  0  0  0  0  0  0  0
   -9.2946   -4.5337   -7.4508 O   0  0  0  0  0  0  0  0  0  0  0  0
  1  2  1  0  0  0  0
  1 22  1  6  0  0  0
  1 10  1  0  0  0  0
  2  3  1  0  0  0  0
  2  7  1  6  0  0  0
  3  4  1  0  0  0  0
  3  8  1  1  0  0  0
  4  5  1  0  0  0  0
  4  9  1  6  0  0  0
  5  6  1  1  0  0  0
  5 10  1  0  0  0  0
  6 11  1  0  0  0  0
 12 13  1  0  0  0  0
 12 17  1  0  0  0  0
 12 18  1  6  0  0  0
 13 14  1  0  0  0  0
 14 15  1  0  0  0  0
 14 19  1  6  0  0  0
 15 16  1  0  0  0  0
 15 21  1  1  0  0  0
 16 17  1  0  0  0  0
 16 20  1  1  0  0  0
 17 22  1  1  0  0  0
 23 21  1  6  0  0  0
 23 24  1  0  0  0  0
 23 32  1  0  0  0  0
 24 25  1  0  0  0  0
 24 29  1  1  0  0  0
 25 26  1  0  0  0  0
 26 27  1  0  0  0  0
 26 31  1  6  0  0  0
 27 28  1  6  0  0  0
 27 32  1  0  0  0  0
 28 30  1  0  0  0  0
M  CHG  5   8   1  18   1  19   1  29   1  30   1
M  END
>  <CHROM.1>
-137.42270031,58.13382230,63.82034501,-55.92138241,-59.85150397,-179.40386448
64.51988831,50.78050670,-155.36650239,-60.40750129,-166.52519605,-161.20479324
-46.04435455,67.32873706,88.05477644,155.57766718,-12.23576275,-7.14363615
-7.31304359,2.86182518,-0.95862534,-1.92892374

>  <Name>
2tob cryst

>  <RI>
2.10184e+07

>  <Rbt.Current_Directory>
/home/itssahil/PROJECTS/Mol_Feturizer/New_Systems/rnas/2tob

>  <Rbt.Executable>
rbdock ($Id: //depot/dev/client3/rdock/2013.1/src/exe/rbdock.cxx#4 $)

>  <Rbt.Library>
libRbt.so (2013.1, Build901 2013/11/27)

>  <Rbt.Parameter_File>
/export/apps/rDock/src/rDock_2013.1_src/data/scripts/dock_solv.prm

>  <Rbt.Receptor>
prm/pocket_docking_7.prm

>  <SCORE>
-45.073

>  <SCORE.INTER>
-27.1914

>  <SCORE.INTER.CONST>
1

>  <SCORE.INTER.POLAR>
-5.29453

>  <SCORE.INTER.ROT>
6

>  <SCORE.INTER.SOLV>
18.3896

>  <SCORE.INTER.VDW>
-14.209

>  <SCORE.INTER.norm>
-0.849731

>  <SCORE.INTRA>
-17.8816

>  <SCORE.INTRA.DIHEDRAL>
-2.58928

>  <SCORE.INTRA.DIHEDRAL.0>
18.4221

>  <SCORE.INTRA.POLAR>
1.18132

>  <SCORE.INTRA.POLAR.0>
-1.57101

>  <SCORE.INTRA.REPUL>
-0.730195

>  <SCORE.INTRA.REPUL.0>
0.730195

>  <SCORE.INTRA.SOLV>
-8.48738

>  <SCORE.INTRA.SOLV.lig_0>
-127.221

>  <SCORE.INTRA.VDW>
-12.7088

>  <SCORE.INTRA.VDW.0>
10.8385

>  <SCORE.INTRA.norm>
-0.558801

>  <SCORE.RESTR>
0

>  <SCORE.RESTR.CAVITY>
0

>  <SCORE.RESTR.norm>
0

>  <SCORE.SYSTEM>
0

>  <SCORE.SYSTEM.CONST>
0

>  <SCORE.SYSTEM.DIHEDRAL>
0

>  <SCORE.SYSTEM.SOLV>
0

>  <SCORE.SYSTEM.norm>
0

>  <SCORE.heavy>
32

>  <SCORE.norm>
-1.40853

>  <RMSD>
9.681

$$$$
2tob cryst
 OpenBabel11021811463D
libRbt.so/2013.1/901 2013/11/27
 32 34  0  0  0  0  0  0  0  0999 V2000
   -7.9631   -0.1869   -7.2450 C   0  0  2  0  0  0  0  0  0  0  0  0
   -9.2901   -0.8997   -7.0043 C   0  0  1  0  0  0  0  0  0  0  0  0
  -10.2615   -0.5312   -8.1260 C   0  0  2  0  0  0  0  0  0  0  0  0
  -10.4096    0.9917   -8.2422 C   0  0  1  0  0  0  0  0  0  0  0  0
   -9.0278    1.6455   -8.3523 C   0  0  1  0  0  0  0  0  0  0  0  0
   -9.0498    3.1650   -8.3267 C   0  0  0  0  0  0  0  0  0  0  0  0
   -9.0888   -2.3103   -6.9831 O   0  0  0  0  0  0  0  0  0  0  0  0
  -11.6385   -1.1163   -8.0687 N   0  3  0  0  0  0  0  0  0  0  0  0
  -11.1817    1.2943   -9.3974 O   0  0  0  0  0  0  0  0  0  0  0  0
   -8.1903    1.2097   -7.2628 O   0  0  0  0  0  0  0  0  0  0  0  0
   -8.6428    3.6990   -9.5824 O   0  0  0  0  0  0  0  0  0  0  0  0
   -5.4060   -1.8016   -9.0390 C   0  0  2  0  0  0  0  0  0  0  0  0
   -3.9810   -1.7173   -9.6024 C   0  0  0  0  0  0  0  0  0  0  0  0
   -3.8691   -0.7060  -10.7399 C   0  0  1  0  0  0  0  0  0  0  0  0
   -4.3335    0.6498  -10.2258 C   0  0  2  0  0  0  0  0  0  0  0  0
   -5.8133    0.5702   -9.8426 C   0  0  1  0  0  0  0  0  0  0  0  0
   -6.0205   -0.4353   -8.6963 C   0  0  1  0  0  0  0  0  0  0  0  0
   -5.4401   -2.6720   -7.8157 N   0  3  0  0  0  0  0  0  0  0  0  0
   -2.4667   -0.6408  -11.2662 N   0  3  0  0  0  0  0  0  0  0  0  0
   -6.2698    1.8600   -9.4551 O   0  0  0  0  0  0  0  0  0  0  0  0
   -4.1389    1.6631  -11.2292 O   0  0  0  0  0  0  0  0  0  0  0  0
   -7.4317   -0.6277   -8.4653 O   0  0  0  0  0  0  0  0  0  0  0  0
   -2.9804    2.4261  -11.0335 C   0  0  2  0  0  0  0  0  0  0  0  0
   -3.2047    3.8546  -11.5404 C   0  0  1  0  0  0  0  0  0  0  0  0
   -3.1913    3.9032  -13.0685 C   0  0  0  0  0  0  0  0  0  0  0  0
   -1.9134    3.2519  -13.5721 C   0  0  1  0  0  0  0  0  0  0  0  0
   -1.8487    1.8216  -13.0655 C   0  0  1  0  0  0  0  0  0  0  0  0
   -0.5931    1.1138  -13.5416 C   0  0  0  0  0  0  0  0  0  0  0  0
   -4.5235    4.3596  -11.0413 N   0  3  0  0  0  0  0  0  0  0  0  0
   -0.9921   -0.2375  -14.0685 N   0  3  0  0  0  0  0  0  0  0  0  0
   -1.8784    3.2659  -14.9922 O   0  0  0  0  0  0  0  0  0  0  0  0
   -1.8339    1.8270  -11.6279 O   0  0  0  0  0  0  0  0  0  0  0  0
  1  2  1  0  0  0  0
  1 22  1  6  0  0  0
  1 10  1  0  0  0  0
  2  3  1  0  0  0  0
  2  7  1  6  0  0  0
  3  4  1  0  0  0  0
  3  8  1  1  0  0  0
  4  5  1  0  0  0  0
  4  9  1  6  0  0  0
  5  6  1  1  0  0  0
  5 10  1  0  0  0  0
  6 11  1  0  0  0  0
 12 13  1  0  0  0  0
 12 17  1  0  0  0  0
 12 18  1  1  0  0  0
 13 14  1  0  0  0  0
 14 15  1  0  0  0  0
 14 19  1  1  0  0  0
 15 16  1  0  0  0  0
 15 21  1  6  0  0  0
 16 17  1  0  0  0  0
 16 20  1  1  0  0  0
 17 22  1  6  0  0  0
 23 21  1  6  0  0  0
 23 24  1  0  0  0  0
 23 32  1  0  0  0  0
 24 25  1  0  0  0  0
 24 29  1  6  0  0  0
 25 26  1  0  0  0  0
 26 27  1  0  0  0  0
 26 31  1  6  0  0  0
 27 28  1  6  0  0  0
 27 32  1  0  0  0  0
 28 30  1  0  0  0  0
M  CHG  5   8   1  18   1  19   1  29   1  30   1
M  END
>  <CHROM.1>
-160.37386848,-59.21683058,-44.28759362,82.27945817,-113.11601437,88.86366012
-150.35627170,10.84260945,-99.41327781,-50.60912233,124.89006979,-148.02371223
-163.86781341,68.10928759,-133.07365659,-119.11009877,-5.73959097,0.89211246
-10.09361795,-2.71114664,0.46631920,-0.41096803

>  <Name>
2tob cryst

>  <RI>
2.10184e+07

>  <Rbt.Current_Directory>
/home/itssahil/PROJECTS/Mol_Feturizer/New_Systems/rnas/2tob

>  <Rbt.Executable>
rbdock ($Id: //depot/dev/client3/rdock/2013.1/src/exe/rbdock.cxx#4 $)

>  <Rbt.Library>
libRbt.so (2013.1, Build901 2013/11/27)

>  <Rbt.Parameter_File>
/export/apps/rDock/src/rDock_2013.1_src/data/scripts/dock_solv.prm

>  <Rbt.Receptor>
prm/pocket_docking_7.prm

>  <SCORE>
-27.4668

>  <SCORE.INTER>
-25.0703

>  <SCORE.INTER.CONST>
1

>  <SCORE.INTER.POLAR>
-5.61364

>  <SCORE.INTER.ROT>
6

>  <SCORE.INTER.SOLV>
48.2489

>  <SCORE.INTER.VDW>
-21.6844

>  <SCORE.INTER.norm>
-0.783447

>  <SCORE.INTRA>
-2.4426

>  <SCORE.INTRA.DIHEDRAL>
25.6706

>  <SCORE.INTRA.DIHEDRAL.0>
18.4221

>  <SCORE.INTRA.POLAR>
0.612255

>  <SCORE.INTRA.POLAR.0>
-1.57101

>  <SCORE.INTRA.REPUL>
-0.730195

>  <SCORE.INTRA.REPUL.0>
0.730195

>  <SCORE.INTRA.SOLV>
1.39239

>  <SCORE.INTRA.SOLV.lig_0>
-127.221

>  <SCORE.INTRA.VDW>
-14.4048

>  <SCORE.INTRA.VDW.0>
10.8385

>  <SCORE.INTRA.norm>
-0.0763312

>  <SCORE.RESTR>
0.0461217

>  <SCORE.RESTR.CAVITY>
0.0461217

>  <SCORE.RESTR.norm>
0.0014413

>  <SCORE.SYSTEM>
0

>  <SCORE.SYSTEM.CONST>
0

>  <SCORE.SYSTEM.DIHEDRAL>
0

>  <SCORE.SYSTEM.SOLV>
0

>  <SCORE.SYSTEM.norm>
0

>  <SCORE.heavy>
32

>  <SCORE.norm>
-0.858337

>  <RMSD>
9.769

$$$$
2tob cryst
 OpenBabel11021811463D
libRbt.so/2013.1/901 2013/11/27
 32 34  0  0  0  0  0  0  0  0999 V2000
   -6.6753   -1.0203   -7.7280 C   0  0  2  0  0  0  0  0  0  0  0  0
   -6.7980   -2.4747   -7.2845 C   0  0  1  0  0  0  0  0  0  0  0  0
   -8.2795   -2.8355   -7.1725 C   0  0  2  0  0  0  0  0  0  0  0  0
   -9.0108   -1.8594   -6.2414 C   0  0  1  0  0  0  0  0  0  0  0  0
   -8.7352   -0.4156   -6.6753 C   0  0  1  0  0  0  0  0  0  0  0  0
   -9.2940    0.6389   -5.7340 C   0  0  0  0  0  0  0  0  0  0  0  0
   -6.1628   -3.3284   -8.2324 O   0  0  0  0  0  0  0  0  0  0  0  0
   -8.6217   -4.2245   -6.7303 N   0  3  0  0  0  0  0  0  0  0  0  0
  -10.4068   -2.1240   -6.2985 O   0  0  0  0  0  0  0  0  0  0  0  0
   -7.3139   -0.1948   -6.7723 O   0  0  0  0  0  0  0  0  0  0  0  0
   -9.3519    0.1471   -4.3989 O   0  0  0  0  0  0  0  0  0  0  0  0
   -7.0707    1.4883   -9.3675 C   0  0  2  0  0  0  0  0  0  0  0  0
   -6.3007    2.6263  -10.0511 C   0  0  0  0  0  0  0  0  0  0  0  0
   -4.7977    2.3643  -10.0896 C   0  0  1  0  0  0  0  0  0  0  0  0
   -4.5582    1.0395  -10.8008 C   0  0  2  0  0  0  0  0  0  0  0  0
   -5.1890   -0.0955   -9.9903 C   0  0  1  0  0  0  0  0  0  0  0  0
   -6.7137    0.0905   -9.8973 C   0  0  1  0  0  0  0  0  0  0  0  0
   -8.5518    1.6969   -9.5021 N   0  3  0  0  0  0  0  0  0  0  0  0
   -4.0725    3.4882  -10.7672 N   0  3  0  0  0  0  0  0  0  0  0  0
   -4.8811   -1.3405  -10.6045 O   0  0  0  0  0  0  0  0  0  0  0  0
   -3.1480    0.8027  -10.9641 O   0  0  0  0  0  0  0  0  0  0  0  0
   -7.2697   -0.8843   -8.9905 O   0  0  0  0  0  0  0  0  0  0  0  0
   -2.7626    0.6312  -12.3000 C   0  0  2  0  0  0  0  0  0  0  0  0
   -1.3701   -0.0050  -12.3639 C   0  0  1  0  0  0  0  0  0  0  0  0
   -0.2862    1.0089  -11.9969 C   0  0  0  0  0  0  0  0  0  0  0  0
   -0.4519    2.2452  -12.8658 C   0  0  1  0  0  0  0  0  0  0  0  0
   -1.8408    2.8221  -12.6539 C   0  0  1  0  0  0  0  0  0  0  0  0
   -2.0657    4.0665  -13.4934 C   0  0  0  0  0  0  0  0  0  0  0  0
   -1.3064   -1.1620  -11.4148 N   0  3  0  0  0  0  0  0  0  0  0  0
   -2.1269    3.6490  -14.9374 N   0  3  0  0  0  0  0  0  0  0  0  0
    0.5321    3.2156  -12.5369 O   0  0  0  0  0  0  0  0  0  0  0  0
   -2.8242    1.8466  -13.0388 O   0  0  0  0  0  0  0  0  0  0  0  0
  1  2  1  0  0  0  0
  1 22  1  6  0  0  0
  1 10  1  0  0  0  0
  2  3  1  0  0  0  0
  2  7  1  6  0  0  0
  3  4  1  0  0  0  0
  3  8  1  1  0  0  0
  4  5  1  0  0  0  0
  4  9  1  6  0  0  0
  5  6  1  1  0  0  0
  5 10  1  0  0  0  0
  6 11  1  0  0  0  0
 12 13  1  0  0  0  0
 12 17  1  0  0  0  0
 12 18  1  6  0  0  0
 13 14  1  0  0  0  0
 14 15  1  0  0  0  0
 14 19  1  6  0  0  0
 15 16  1  0  0  0  0
 15 21  1  1  0  0  0
 16 17  1  0  0  0  0
 16 20  1  6  0  0  0
 17 22  1  1  0  0  0
 23 21  1  1  0  0  0
 23 24  1  0  0  0  0
 23 32  1  0  0  0  0
 24 25  1  0  0  0  0
 24 29  1  1  0  0  0
 25 26  1  0  0  0  0
 26 27  1  0  0  0  0
 26 31  1  1  0  0  0
 27 28  1  6  0  0  0
 27 32  1  0  0  0  0
 28 30  1  0  0  0  0
M  CHG  5   8   1  18   1  19   1  29   1  30   1
M  END
>  <CHROM.1>
-147.74825972,75.05322459,60.31545667,-54.69627871,28.97413090,65.26508681
-46.52959878,49.01025082,-122.03655728,87.39735111,-71.40639732,-163.71806106
34.77032620,-179.75881959,69.00615036,-59.42686712,-5.24987642,0.35444160
-9.74224031,-2.57901662,0.59129319,-0.29864706

>  <Name>
2tob cryst

>  <RI>
2.10184e+07

>  <Rbt.Current_Directory>
/home/itssahil/PROJECTS/Mol_Feturizer/New_Systems/rnas/2tob

>  <Rbt.Executable>
rbdock ($Id: //depot/dev/client3/rdock/2013.1/src/exe/rbdock.cxx#4 $)

>  <Rbt.Library>
libRbt.so (2013.1, Build901 2013/11/27)

>  <Rbt.Parameter_File>
/export/apps/rDock/src/rDock_2013.1_src/data/scripts/dock_solv.prm

>  <Rbt.Receptor>
prm/pocket_docking_7.prm

>  <SCORE>
-55.9747

>  <SCORE.INTER>
-44.8237

>  <SCORE.INTER.CONST>
1

>  <SCORE.INTER.POLAR>
-6.22897

>  <SCORE.INTER.ROT>
6

>  <SCORE.INTER.SOLV>
39.7533

>  <SCORE.INTER.VDW>
-29.9703

>  <SCORE.INTER.norm>
-1.40074

>  <SCORE.INTRA>
-11.7895

>  <SCORE.INTRA.DIHEDRAL>
4.37374

>  <SCORE.INTRA.DIHEDRAL.0>
18.4221

>  <SCORE.INTRA.POLAR>
1.56645

>  <SCORE.INTRA.POLAR.0>
-1.57101

>  <SCORE.INTRA.REPUL>
-0.653959

>  <SCORE.INTRA.REPUL.0>
0.730195

>  <SCORE.INTRA.SOLV>
-2.51058

>  <SCORE.INTRA.SOLV.lig_0>
-127.221

>  <SCORE.INTRA.VDW>
-14.7772

>  <SCORE.INTRA.VDW.0>
10.8385

>  <SCORE.INTRA.norm>
-0.368421

>  <SCORE.RESTR>
0.638479

>  <SCORE.RESTR.CAVITY>
0.638479

>  <SCORE.RESTR.norm>
0.0199525

>  <SCORE.SYSTEM>
0

>  <SCORE.SYSTEM.CONST>
0

>  <SCORE.SYSTEM.DIHEDRAL>
0

>  <SCORE.SYSTEM.SOLV>
0

>  <SCORE.SYSTEM.norm>
0

>  <SCORE.heavy>
32

>  <SCORE.norm>
-1.74921

>  <RMSD>
9.780

$$$$
2tob cryst
 OpenBabel11021811463D
libRbt.so/2013.1/901 2013/11/27
 32 34  0  0  0  0  0  0  0  0999 V2000
   -8.5008   -0.6360   -9.5364 C   0  0  2  0  0  0  0  0  0  0  0  0
   -9.9862   -0.3812   -9.3009 C   0  0  1  0  0  0  0  0  0  0  0  0
  -10.3887   -0.9976   -7.9609 C   0  0  2  0  0  0  0  0  0  0  0  0
  -10.0188   -2.4860   -7.9111 C   0  0  1  0  0  0  0  0  0  0  0  0
   -8.5438   -2.6719   -8.2833 C   0  0  1  0  0  0  0  0  0  0  0  0
   -8.1068   -4.1224   -8.4069 C   0  0  0  0  0  0  0  0  0  0  0  0
  -10.2438    1.0203   -9.2851 O   0  0  0  0  0  0  0  0  0  0  0  0
  -11.8217   -0.8737   -7.5449 N   0  3  0  0  0  0  0  0  0  0  0  0
  -10.2519   -2.9765   -6.5968 O   0  0  0  0  0  0  0  0  0  0  0  0
   -8.2718   -2.0324   -9.5463 O   0  0  0  0  0  0  0  0  0  0  0  0
   -8.8649   -4.9561   -7.5362 O   0  0  0  0  0  0  0  0  0  0  0  0
   -5.7327   -1.1700   -9.0764 C   0  0  2  0  0  0  0  0  0  0  0  0
   -4.2994   -1.0722   -9.6160 C   0  0  0  0  0  0  0  0  0  0  0  0
   -4.1731   -0.0417  -10.7347 C   0  0  1  0  0  0  0  0  0  0  0  0
   -4.6497    1.3040  -10.2055 C   0  0  2  0  0  0  0  0  0  0  0  0
   -6.1351    1.2136   -9.8468 C   0  0  1  0  0  0  0  0  0  0  0  0
   -6.3569    0.1886   -8.7207 C   0  0  1  0  0  0  0  0  0  0  0  0
   -5.7830   -2.0608   -7.8684 N   0  3  0  0  0  0  0  0  0  0  0  0
   -2.7628    0.0364  -11.2379 N   0  3  0  0  0  0  0  0  0  0  0  0
   -6.6016    2.4954   -9.4452 O   0  0  0  0  0  0  0  0  0  0  0  0
   -4.4428    2.3344  -11.1888 O   0  0  0  0  0  0  0  0  0  0  0  0
   -7.7709   -0.0118   -8.5150 O   0  0  0  0  0  0  0  0  0  0  0  0
   -3.3199    3.1320  -10.9325 C   0  0  2  0  0  0  0  0  0  0  0  0
   -3.5208    4.5255  -11.5372 C   0  0  1  0  0  0  0  0  0  0  0  0
   -3.3686    4.4910  -13.0581 C   0  0  0  0  0  0  0  0  0  0  0  0
   -2.0393    3.8411  -13.4068 C   0  0  1  0  0  0  0  0  0  0  0  0
   -1.9972    2.4423  -12.8167 C   0  0  1  0  0  0  0  0  0  0  0  0
   -0.6917    1.7371  -13.1367 C   0  0  0  0  0  0  0  0  0  0  0  0
   -4.8880    5.0282  -11.1885 N   0  3  0  0  0  0  0  0  0  0  0  0
    0.4073    2.4231  -12.3722 N   0  3  0  0  0  0  0  0  0  0  0  0
   -1.8749    3.7784  -14.8164 O   0  0  0  0  0  0  0  0  0  0  0  0
   -2.1140    2.5264  -11.3862 O   0  0  0  0  0  0  0  0  0  0  0  0
  1  2  1  0  0  0  0
  1 22  1  1  0  0  0
  1 10  1  0  0  0  0
  2  3  1  0  0  0  0
  2  7  1  1  0  0  0
  3  4  1  0  0  0  0
  3  8  1  6  0  0  0
  4  5  1  0  0  0  0
  4  9  1  1  0  0  0
  5  6  1  6  0  0  0
  5 10  1  0  0  0  0
  6 11  1  0  0  0  0
 12 13  1  0  0  0  0
 12 17  1  0  0  0  0
 12 18  1  1  0  0  0
 13 14  1  0  0  0  0
 14 15  1  0  0  0  0
 14 19  1  1  0  0  0
 15 16  1  0  0  0  0
 15 21  1  6  0  0  0
 16 17  1  0  0  0  0
 16 20  1  1  0  0  0
 17 22  1  6  0  0  0
 23 21  1  6  0  0  0
 23 24  1  0  0  0  0
 23 32  1  0  0  0  0
 24 25  1  0  0  0  0
 24 29  1  6  0  0  0
 25 26  1  0  0  0  0
 26 27  1  0  0  0  0
 26 31  1  6  0  0  0
 27 28  1  1  0  0  0
 27 32  1  0  0  0  0
 28 30  1  0  0  0  0
M  CHG  5   8   1  18   1  19   1  29   1  30   1
M  END
>  <CHROM.1>
-163.64103885,61.42129171,59.39872583,-169.94958031,-30.10915461,79.57549144
26.95885399,22.94225226,-101.85067944,88.99220283,-53.91905134,-152.67995303
-163.56503957,-57.16842992,69.00166456,-60.72784907,-5.86618598,0.49404164
-10.08008754,2.44430446,-0.32818718,2.79996582

>  <Name>
2tob cryst

>  <RI>
2.10184e+07

>  <Rbt.Current_Directory>
/home/itssahil/PROJECTS/Mol_Feturizer/New_Systems/rnas/2tob

>  <Rbt.Executable>
rbdock ($Id: //depot/dev/client3/rdock/2013.1/src/exe/rbdock.cxx#4 $)

>  <Rbt.Library>
libRbt.so (2013.1, Build901 2013/11/27)

>  <Rbt.Parameter_File>
/export/apps/rDock/src/rDock_2013.1_src/data/scripts/dock_solv.prm

>  <Rbt.Receptor>
prm/pocket_docking_7.prm

>  <SCORE>
-36.9211

>  <SCORE.INTER>
-27.7542

>  <SCORE.INTER.CONST>
1

>  <SCORE.INTER.POLAR>
-4.83489

>  <SCORE.INTER.ROT>
6

>  <SCORE.INTER.SOLV>
35.1309

>  <SCORE.INTER.VDW>
-21.6968

>  <SCORE.INTER.norm>
-0.867318

>  <SCORE.INTRA>
-9.19208

>  <SCORE.INTRA.DIHEDRAL>
5.62781

>  <SCORE.INTRA.DIHEDRAL.0>
18.4221

>  <SCORE.INTRA.POLAR>
0.425132

>  <SCORE.INTRA.POLAR.0>
-1.57101

>  <SCORE.INTRA.REPUL>
-0.724628

>  <SCORE.INTRA.REPUL.0>
0.730195

>  <SCORE.INTRA.SOLV>
1.57161

>  <SCORE.INTRA.SOLV.lig_0>
-127.221

>  <SCORE.INTRA.VDW>
-10.6141

>  <SCORE.INTRA.VDW.0>
10.8385

>  <SCORE.INTRA.norm>
-0.287253

>  <SCORE.RESTR>
0.025145

>  <SCORE.RESTR.CAVITY>
0.025145

>  <SCORE.RESTR.norm>
0.00078578

>  <SCORE.SYSTEM>
0

>  <SCORE.SYSTEM.CONST>
0

>  <SCORE.SYSTEM.DIHEDRAL>
0

>  <SCORE.SYSTEM.SOLV>
0

>  <SCORE.SYSTEM.norm>
0

>  <SCORE.heavy>
32

>  <SCORE.norm>
-1.15378

>  <RMSD>
9.846

$$$$
2tob cryst
 OpenBabel11021811463D
libRbt.so/2013.1/901 2013/11/27
 32 34  0  0  0  0  0  0  0  0999 V2000
   -6.3013   -1.0506   -8.0249 C   0  0  2  0  0  0  0  0  0  0  0  0
   -6.5860   -2.4497   -7.4879 C   0  0  1  0  0  0  0  0  0  0  0  0
   -8.0970   -2.6838   -7.4905 C   0  0  2  0  0  0  0  0  0  0  0  0
   -8.8221   -1.5805   -6.7085 C   0  0  1  0  0  0  0  0  0  0  0  0
   -8.3874   -0.2030   -7.2207 C   0  0  1  0  0  0  0  0  0  0  0  0
   -8.9356    0.9655   -6.4181 C   0  0  0  0  0  0  0  0  0  0  0  0
   -5.9443   -3.4253   -8.3048 O   0  0  0  0  0  0  0  0  0  0  0  0
   -8.5939   -4.0009   -6.9805 N   0  3  0  0  0  0  0  0  0  0  0  0
  -10.2251   -1.7395   -6.8781 O   0  0  0  0  0  0  0  0  0  0  0  0
   -6.9495   -0.1023   -7.1985 O   0  0  0  0  0  0  0  0  0  0  0  0
   -8.7307    2.1944   -7.1077 O   0  0  0  0  0  0  0  0  0  0  0  0
   -6.9089    1.4248   -9.5496 C   0  0  2  0  0  0  0  0  0  0  0  0
   -6.2890    2.7106  -10.1131 C   0  0  0  0  0  0  0  0  0  0  0  0
   -4.7634    2.6739  -10.0902 C   0  0  1  0  0  0  0  0  0  0  0  0
   -4.2996    1.4550  -10.8758 C   0  0  2  0  0  0  0  0  0  0  0  0
   -4.7877    0.1828  -10.1782 C   0  0  1  0  0  0  0  0  0  0  0  0
   -6.3256    0.1374  -10.1532 C   0  0  1  0  0  0  0  0  0  0  0  0
   -8.3976    1.4249   -9.7473 N   0  3  0  0  0  0  0  0  0  0  0  0
   -4.1861    3.9389  -10.6512 N   0  3  0  0  0  0  0  0  0  0  0  0
   -4.2722   -0.9547  -10.8581 O   0  0  0  0  0  0  0  0  0  0  0  0
   -2.8642    1.4389  -10.9804 O   0  0  0  0  0  0  0  0  0  0  0  0
   -6.7678   -0.9729   -9.3448 O   0  0  0  0  0  0  0  0  0  0  0  0
   -2.3869    1.9769  -12.1826 C   0  0  2  0  0  0  0  0  0  0  0  0
   -1.3710    1.0202  -12.8155 C   0  0  1  0  0  0  0  0  0  0  0  0
   -0.0396    1.0583  -12.0648 C   0  0  0  0  0  0  0  0  0  0  0  0
    0.4318    2.5003  -11.9684 C   0  0  1  0  0  0  0  0  0  0  0  0
   -0.6263    3.3251  -11.2565 C   0  0  1  0  0  0  0  0  0  0  0  0
   -0.2096    4.7787  -11.1238 C   0  0  0  0  0  0  0  0  0  0  0  0
   -1.9150   -0.3752  -12.7867 N   0  3  0  0  0  0  0  0  0  0  0  0
    1.0168    4.8337  -10.2543 N   0  3  0  0  0  0  0  0  0  0  0  0
    1.6610    2.5718  -11.2599 O   0  0  0  0  0  0  0  0  0  0  0  0
   -1.8487    3.2838  -12.0119 O   0  0  0  0  0  0  0  0  0  0  0  0
  1  2  1  0  0  0  0
  1 22  1  6  0  0  0
  1 10  1  0  0  0  0
  2  3  1  0  0  0  0
  2  7  1  6  0  0  0
  3  4  1  0  0  0  0
  3  8  1  1  0  0  0
  4  5  1  0  0  0  0
  4  9  1  6  0  0  0
  5  6  1  1  0  0  0
  5 10  1  0  0  0  0
  6 11  1  0  0  0  0
 12 13  1  0  0  0  0
 12 17  1  0  0  0  0
 12 18  1  6  0  0  0
 13 14  1  0  0  0  0
 14 15  1  0  0  0  0
 14 19  1  6  0  0  0
 15 16  1  0  0  0  0
 15 21  1  1  0  0  0
 16 17  1  0  0  0  0
 16 20  1  6  0  0  0
 17 22  1  1  0  0  0
 23 21  1  1  0  0  0
 23 24  1  0  0  0  0
 23 32  1  0  0  0  0
 24 25  1  0  0  0  0
 24 29  1  1  0  0  0
 25 26  1  0  0  0  0
 26 27  1  0  0  0  0
 26 31  1  1  0  0  0
 27 28  1  6  0  0  0
 27 32  1  0  0  0  0
 28 30  1  0  0  0  0
M  CHG  5   8   1  18   1  19   1  29   1  30   1
M  END
>  <CHROM.1>
-165.47296936,68.23271864,-172.56275321,74.64013451,-167.62075456,-167.49973139
161.31728314,70.68567617,-96.66502698,-47.53312293,-66.04190634,-130.71723465
-178.22745241,-51.69662877,-63.69361118,35.49649548,-4.77681930,0.74968386
-9.67639804,-2.70579054,0.48313472,-0.00502807

>  <Name>
2tob cryst

>  <RI>
3.75586e+07

>  <Rbt.Current_Directory>
/home/itssahil/PROJECTS/Mol_Feturizer/New_Systems/rnas/2tob

>  <Rbt.Executable>
rbdock ($Id: //depot/dev/client3/rdock/2013.1/src/exe/rbdock.cxx#4 $)

>  <Rbt.Library>
libRbt.so (2013.1, Build901 2013/11/27)

>  <Rbt.Parameter_File>
/export/apps/rDock/src/rDock_2013.1_src/data/scripts/dock_solv.prm

>  <Rbt.Receptor>
prm/pocket_docking_8.prm

>  <SCORE>
-58.306

>  <SCORE.INTER>
-40.1621

>  <SCORE.INTER.CONST>
1

>  <SCORE.INTER.POLAR>
-5.11047

>  <SCORE.INTER.ROT>
6

>  <SCORE.INTER.SOLV>
33.4284

>  <SCORE.INTER.VDW>
-28.4826

>  <SCORE.INTER.norm>
-1.25507

>  <SCORE.INTRA>
-18.5803

>  <SCORE.INTRA.DIHEDRAL>
0.520469

>  <SCORE.INTRA.DIHEDRAL.0>
18.4221

>  <SCORE.INTRA.POLAR>
-0.734314

>  <SCORE.INTRA.POLAR.0>
-1.57101

>  <SCORE.INTRA.REPUL>
-0.730195

>  <SCORE.INTRA.REPUL.0>
0.730195

>  <SCORE.INTRA.SOLV>
2.32665

>  <SCORE.INTRA.SOLV.lig_0>
-127.221

>  <SCORE.INTRA.VDW>
-13.8562

>  <SCORE.INTRA.VDW.0>
10.8385

>  <SCORE.INTRA.norm>
-0.580633

>  <SCORE.RESTR>
0.4364

>  <SCORE.RESTR.CAVITY>
0.4364

>  <SCORE.RESTR.norm>
0.0136375

>  <SCORE.SYSTEM>
0

>  <SCORE.SYSTEM.CONST>
0

>  <SCORE.SYSTEM.DIHEDRAL>
0

>  <SCORE.SYSTEM.SOLV>
0

>  <SCORE.SYSTEM.norm>
0

>  <SCORE.heavy>
32

>  <SCORE.norm>
-1.82206

>  <RMSD>
10.128

$$$$
2tob cryst
 OpenBabel11021811463D
libRbt.so/2013.1/901 2013/11/27
 32 34  0  0  0  0  0  0  0  0999 V2000
   -7.0851    0.1698   -8.3408 C   0  0  2  0  0  0  0  0  0  0  0  0
   -7.0326   -1.1353   -7.5528 C   0  0  1  0  0  0  0  0  0  0  0  0
   -8.0415   -2.1163   -8.1506 C   0  0  2  0  0  0  0  0  0  0  0  0
   -9.4448   -1.4973   -8.1956 C   0  0  1  0  0  0  0  0  0  0  0  0
   -9.3929   -0.1315   -8.8890 C   0  0  1  0  0  0  0  0  0  0  0  0
  -10.7044    0.6362   -8.8600 C   0  0  0  0  0  0  0  0  0  0  0  0
   -5.7219   -1.6909   -7.6167 O   0  0  0  0  0  0  0  0  0  0  0  0
   -8.1618   -3.4629   -7.5071 N   0  3  0  0  0  0  0  0  0  0  0  0
  -10.3122   -2.3696   -8.9090 O   0  0  0  0  0  0  0  0  0  0  0  0
   -8.3950    0.6994   -8.2628 O   0  0  0  0  0  0  0  0  0  0  0  0
  -11.7809   -0.2140   -8.4779 O   0  0  0  0  0  0  0  0  0  0  0  0
   -6.0503    2.2187   -9.5815 C   0  0  2  0  0  0  0  0  0  0  0  0
   -5.0465    3.2883  -10.0327 C   0  0  0  0  0  0  0  0  0  0  0  0
   -3.6238    2.7432  -10.1222 C   0  0  1  0  0  0  0  0  0  0  0  0
   -3.6222    1.5567  -11.0763 C   0  0  2  0  0  0  0  0  0  0  0  0
   -4.4938    0.4380  -10.5001 C   0  0  1  0  0  0  0  0  0  0  0  0
   -5.9548    0.9041  -10.3718 C   0  0  1  0  0  0  0  0  0  0  0  0
   -7.4554    2.7408   -9.6720 N   0  3  0  0  0  0  0  0  0  0  0  0
   -2.6670    3.8071  -10.5702 N   0  3  0  0  0  0  0  0  0  0  0  0
   -4.4132   -0.7039  -11.3436 O   0  0  0  0  0  0  0  0  0  0  0  0
   -2.2807    1.0780  -11.2833 O   0  0  0  0  0  0  0  0  0  0  0  0
   -6.7253   -0.0937   -9.6700 O   0  0  0  0  0  0  0  0  0  0  0  0
   -2.0925    0.4696  -12.5311 C   0  0  2  0  0  0  0  0  0  0  0  0
   -0.7534   -0.2751  -12.5518 C   0  0  1  0  0  0  0  0  0  0  0  0
    0.4170    0.7032  -12.6546 C   0  0  0  0  0  0  0  0  0  0  0  0
    0.1907    1.6207  -13.8454 C   0  0  1  0  0  0  0  0  0  0  0  0
   -1.1270    2.3545  -13.6670 C   0  0  1  0  0  0  0  0  0  0  0  0
   -1.4076    3.2940  -14.8258 C   0  0  0  0  0  0  0  0  0  0  0  0
   -0.6131   -1.0838  -11.2988 N   0  3  0  0  0  0  0  0  0  0  0  0
   -2.8751    3.6245  -14.8120 N   0  3  0  0  0  0  0  0  0  0  0  0
    1.2549    2.5547  -13.9587 O   0  0  0  0  0  0  0  0  0  0  0  0
   -2.1988    1.3983  -13.6049 O   0  0  0  0  0  0  0  0  0  0  0  0
  1  2  1  0  0  0  0
  1 22  1  6  0  0  0
  1 10  1  0  0  0  0
  2  3  1  0  0  0  0
  2  7  1  6  0  0  0
  3  4  1  0  0  0  0
  3  8  1  1  0  0  0
  4  5  1  0  0  0  0
  4  9  1  6  0  0  0
  5  6  1  1  0  0  0
  5 10  1  0  0  0  0
  6 11  1  0  0  0  0
 12 13  1  0  0  0  0
 12 17  1  0  0  0  0
 12 18  1  6  0  0  0
 13 14  1  0  0  0  0
 14 15  1  0  0  0  0
 14 19  1  6  0  0  0
 15 16  1  0  0  0  0
 15 21  1  1  0  0  0
 16 17  1  0  0  0  0
 16 20  1  6  0  0  0
 17 22  1  1  0  0  0
 23 21  1  1  0  0  0
 23 24  1  0  0  0  0
 23 32  1  0  0  0  0
 24 25  1  0  0  0  0
 24 29  1  1  0  0  0
 25 26  1  0  0  0  0
 26 27  1  0  0  0  0
 26 31  1  1  0  0  0
 27 28  1  6  0  0  0
 27 32  1  0  0  0  0
 28 30  1  0  0  0  0
M  CHG  5   8   1  18   1  19   1  29   1  30   1
M  END
>  <CHROM.1>
-143.70050163,-178.99849006,90.52557663,-67.56090171,-14.09689099,93.88546068
29.23858019,-174.37749665,-151.80520080,-54.04742148,-15.86964869,-167.62150272
158.95125003,178.78367338,161.77234313,-157.20536458,-4.95092723,0.65635423
-10.58342311,2.67234408,-0.38298982,2.72495832

>  <Name>
2tob cryst

>  <RI>
2.10184e+07

>  <Rbt.Current_Directory>
/home/itssahil/PROJECTS/Mol_Feturizer/New_Systems/rnas/2tob

>  <Rbt.Executable>
rbdock ($Id: //depot/dev/client3/rdock/2013.1/src/exe/rbdock.cxx#4 $)

>  <Rbt.Library>
libRbt.so (2013.1, Build901 2013/11/27)

>  <Rbt.Parameter_File>
/export/apps/rDock/src/rDock_2013.1_src/data/scripts/dock_solv.prm

>  <Rbt.Receptor>
prm/pocket_docking_7.prm

>  <SCORE>
-34.6692

>  <SCORE.INTER>
-30.736

>  <SCORE.INTER.CONST>
1

>  <SCORE.INTER.POLAR>
-6.25079

>  <SCORE.INTER.ROT>
6

>  <SCORE.INTER.SOLV>
40.7628

>  <SCORE.INTER.VDW>
-20.8423

>  <SCORE.INTER.norm>
-0.960499

>  <SCORE.INTRA>
-5.05649

>  <SCORE.INTRA.DIHEDRAL>
12.8572

>  <SCORE.INTRA.DIHEDRAL.0>
18.4221

>  <SCORE.INTRA.POLAR>
1.13919

>  <SCORE.INTRA.POLAR.0>
-1.57101

>  <SCORE.INTRA.REPUL>
-0.727762

>  <SCORE.INTRA.REPUL.0>
0.730195

>  <SCORE.INTRA.SOLV>
-4.1223

>  <SCORE.INTRA.SOLV.lig_0>
-127.221

>  <SCORE.INTRA.VDW>
-9.65839

>  <SCORE.INTRA.VDW.0>
10.8385

>  <SCORE.INTRA.norm>
-0.158015

>  <SCORE.RESTR>
1.12323

>  <SCORE.RESTR.CAVITY>
1.12323

>  <SCORE.RESTR.norm>
0.035101

>  <SCORE.SYSTEM>
0

>  <SCORE.SYSTEM.CONST>
0

>  <SCORE.SYSTEM.DIHEDRAL>
0

>  <SCORE.SYSTEM.SOLV>
0

>  <SCORE.SYSTEM.norm>
0

>  <SCORE.heavy>
32

>  <SCORE.norm>
-1.08341

>  <RMSD>
10.132

$$$$
2tob cryst
 OpenBabel11021811463D
libRbt.so/2013.1/901 2013/11/27
 32 34  0  0  0  0  0  0  0  0999 V2000
   -8.2079   -0.5665   -9.5628 C   0  0  2  0  0  0  0  0  0  0  0  0
   -9.4131    0.3412   -9.7880 C   0  0  1  0  0  0  0  0  0  0  0  0
  -10.2685    0.3530   -8.5208 C   0  0  2  0  0  0  0  0  0  0  0  0
  -10.6584   -1.0735   -8.1113 C   0  0  1  0  0  0  0  0  0  0  0  0
   -9.4077   -1.9556   -8.0305 C   0  0  1  0  0  0  0  0  0  0  0  0
   -9.6938   -3.4261   -7.7737 C   0  0  0  0  0  0  0  0  0  0  0  0
   -8.9774    1.6641  -10.0895 O   0  0  0  0  0  0  0  0  0  0  0  0
  -11.5190    1.1763   -8.5379 N   0  3  0  0  0  0  0  0  0  0  0  0
  -11.3034   -1.0309   -6.8447 O   0  0  0  0  0  0  0  0  0  0  0  0
   -8.6669   -1.8713   -9.2643 O   0  0  0  0  0  0  0  0  0  0  0  0
  -10.5754   -3.5852   -6.6668 O   0  0  0  0  0  0  0  0  0  0  0  0
   -5.4292   -1.0934   -9.3148 C   0  0  2  0  0  0  0  0  0  0  0  0
   -4.0214   -0.9064   -9.8962 C   0  0  0  0  0  0  0  0  0  0  0  0
   -3.9481    0.2728  -10.8624 C   0  0  1  0  0  0  0  0  0  0  0  0
   -4.4058    1.5256  -10.1282 C   0  0  2  0  0  0  0  0  0  0  0  0
   -5.8737    1.3710   -9.7223 C   0  0  1  0  0  0  0  0  0  0  0  0
   -6.0420    0.1952   -8.7440 C   0  0  1  0  0  0  0  0  0  0  0  0
   -5.4232   -2.1462   -8.2438 N   0  3  0  0  0  0  0  0  0  0  0  0
   -2.5616    0.4349  -11.4097 N   0  3  0  0  0  0  0  0  0  0  0  0
   -6.3267    2.5787   -9.1237 O   0  0  0  0  0  0  0  0  0  0  0  0
   -4.2461    2.6865  -10.9639 O   0  0  0  0  0  0  0  0  0  0  0  0
   -7.4449   -0.0460   -8.5080 O   0  0  0  0  0  0  0  0  0  0  0  0
   -2.9079    3.0502  -11.1627 C   0  0  2  0  0  0  0  0  0  0  0  0
   -2.5759    4.2934  -10.3308 C   0  0  1  0  0  0  0  0  0  0  0  0
   -3.1930    5.5482  -10.9490 C   0  0  0  0  0  0  0  0  0  0  0  0
   -2.7728    5.6382  -12.4071 C   0  0  1  0  0  0  0  0  0  0  0  0
   -3.2258    4.3849  -13.1356 C   0  0  1  0  0  0  0  0  0  0  0  0
   -2.8390    4.4179  -14.6031 C   0  0  0  0  0  0  0  0  0  0  0  0
   -3.1023    4.1176   -8.9395 N   0  3  0  0  0  0  0  0  0  0  0  0
   -1.3956    4.0086  -14.7132 N   0  3  0  0  0  0  0  0  0  0  0  0
   -3.3449    6.7871  -13.0160 O   0  0  0  0  0  0  0  0  0  0  0  0
   -2.5991    3.2364  -12.5399 O   0  0  0  0  0  0  0  0  0  0  0  0
  1  2  1  0  0  0  0
  1 22  1  1  0  0  0
  1 10  1  0  0  0  0
  2  3  1  0  0  0  0
  2  7  1  1  0  0  0
  3  4  1  0  0  0  0
  3  8  1  6  0  0  0
  4  5  1  0  0  0  0
  4  9  1  1  0  0  0
  5  6  1  6  0  0  0
  5 10  1  0  0  0  0
  6 11  1  0  0  0  0
 12 13  1  0  0  0  0
 12 17  1  0  0  0  0
 12 18  1  1  0  0  0
 13 14  1  0  0  0  0
 14 15  1  0  0  0  0
 14 19  1  1  0  0  0
 15 16  1  0  0  0  0
 15 21  1  6  0  0  0
 16 17  1  0  0  0  0
 16 20  1  1  0  0  0
 17 22  1  6  0  0  0
 23 21  1  6  0  0  0
 23 24  1  0  0  0  0
 23 32  1  0  0  0  0
 24 25  1  0  0  0  0
 24 29  1  1  0  0  0
 25 26  1  0  0  0  0
 26 27  1  0  0  0  0
 26 31  1  6  0  0  0
 27 28  1  6  0  0  0
 27 32  1  0  0  0  0
 28 30  1  0  0  0  0
M  CHG  5   8   1  18   1  19   1  29   1  30   1
M  END
>  <CHROM.1>
-126.22205551,-173.83394009,-87.63388091,-167.14716631,-50.05776504,-175.14538513
109.25692948,49.45775883,-70.88683730,172.71342996,-51.95930706,-105.30739648
170.50320903,82.87034293,80.82208579,72.36273562,-6.03386336,1.26628345,-10.04269062
-2.39259744,0.29723962,-0.34724835

>  <Name>
2tob cryst

>  <RI>
2.10184e+07

>  <Rbt.Current_Directory>
/home/itssahil/PROJECTS/Mol_Feturizer/New_Systems/rnas/2tob

>  <Rbt.Executable>
rbdock ($Id: //depot/dev/client3/rdock/2013.1/src/exe/rbdock.cxx#4 $)

>  <Rbt.Library>
libRbt.so (2013.1, Build901 2013/11/27)

>  <Rbt.Parameter_File>
/export/apps/rDock/src/rDock_2013.1_src/data/scripts/dock_solv.prm

>  <Rbt.Receptor>
prm/pocket_docking_7.prm

>  <SCORE>
-36.2666

>  <SCORE.INTER>
-21.8523

>  <SCORE.INTER.CONST>
1

>  <SCORE.INTER.POLAR>
-6.20241

>  <SCORE.INTER.ROT>
6

>  <SCORE.INTER.SOLV>
44.0772

>  <SCORE.INTER.VDW>
-16.1859

>  <SCORE.INTER.norm>
-0.682883

>  <SCORE.INTRA>
-14.887

>  <SCORE.INTRA.DIHEDRAL>
6.74638

>  <SCORE.INTRA.DIHEDRAL.0>
18.4221

>  <SCORE.INTRA.POLAR>
-0.841796

>  <SCORE.INTRA.POLAR.0>
-1.57101

>  <SCORE.INTRA.REPUL>
-0.730195

>  <SCORE.INTRA.REPUL.0>
0.730195

>  <SCORE.INTRA.SOLV>
-2.03812

>  <SCORE.INTRA.SOLV.lig_0>
-127.221

>  <SCORE.INTRA.VDW>
-10.7281

>  <SCORE.INTRA.VDW.0>
10.8385

>  <SCORE.INTRA.norm>
-0.465219

>  <SCORE.RESTR>
0.472649

>  <SCORE.RESTR.CAVITY>
0.472649

>  <SCORE.RESTR.norm>
0.0147703

>  <SCORE.SYSTEM>
0

>  <SCORE.SYSTEM.CONST>
0

>  <SCORE.SYSTEM.DIHEDRAL>
0

>  <SCORE.SYSTEM.SOLV>
0

>  <SCORE.SYSTEM.norm>
0

>  <SCORE.heavy>
32

>  <SCORE.norm>
-1.13333

>  <RMSD>
10.135

$$$$
2tob cryst
 OpenBabel11021811463D
libRbt.so/2013.1/901 2013/11/27
 32 34  0  0  0  0  0  0  0  0999 V2000
   -6.1781   -0.6833   -8.3791 C   0  0  2  0  0  0  0  0  0  0  0  0
   -6.3175   -2.1807   -8.1234 C   0  0  1  0  0  0  0  0  0  0  0  0
   -7.7906   -2.5702   -8.2503 C   0  0  2  0  0  0  0  0  0  0  0  0
   -8.6634   -1.7176   -7.3198 C   0  0  1  0  0  0  0  0  0  0  0  0
   -8.3734   -0.2300   -7.5470 C   0  0  1  0  0  0  0  0  0  0  0  0
   -9.0786    0.7014   -6.5748 C   0  0  0  0  0  0  0  0  0  0  0  0
   -5.5412   -2.9110   -9.0693 O   0  0  0  0  0  0  0  0  0  0  0  0
   -8.1492   -4.0051   -8.0176 N   0  3  0  0  0  0  0  0  0  0  0  0
  -10.0323   -1.9909   -7.5911 O   0  0  0  0  0  0  0  0  0  0  0  0
   -6.9581    0.0179   -7.4292 O   0  0  0  0  0  0  0  0  0  0  0  0
   -8.8132    0.3234   -5.2278 O   0  0  0  0  0  0  0  0  0  0  0  0
   -6.2714    1.9605   -9.3967 C   0  0  2  0  0  0  0  0  0  0  0  0
   -5.4927    3.2144   -9.8168 C   0  0  0  0  0  0  0  0  0  0  0  0
   -4.0250    2.9121  -10.1063 C   0  0  1  0  0  0  0  0  0  0  0  0
   -3.9582    1.8413  -11.1865 C   0  0  2  0  0  0  0  0  0  0  0  0
   -4.5857    0.5476  -10.6614 C   0  0  1  0  0  0  0  0  0  0  0  0
   -6.0750    0.7623  -10.3390 C   0  0  1  0  0  0  0  0  0  0  0  0
   -7.7389    2.2608   -9.2896 N   0  3  0  0  0  0  0  0  0  0  0  0
   -3.2912    4.1527  -10.5193 N   0  3  0  0  0  0  0  0  0  0  0  0
   -4.4353   -0.4780  -11.6348 O   0  0  0  0  0  0  0  0  0  0  0  0
   -2.5935    1.6030  -11.5767 O   0  0  0  0  0  0  0  0  0  0  0  0
   -6.6065   -0.4092   -9.6856 O   0  0  0  0  0  0  0  0  0  0  0  0
   -2.4600    1.1727  -12.9032 C   0  0  2  0  0  0  0  0  0  0  0  0
   -1.3236    0.1502  -13.0082 C   0  0  1  0  0  0  0  0  0  0  0  0
    0.0404    0.8333  -12.9068 C   0  0  0  0  0  0  0  0  0  0  0  0
    0.1084    1.9546  -13.9310 C   0  0  1  0  0  0  0  0  0  0  0  0
   -1.0207    2.9368  -13.6718 C   0  0  1  0  0  0  0  0  0  0  0  0
   -1.0026    4.0869  -14.6624 C   0  0  0  0  0  0  0  0  0  0  0  0
   -1.4553   -0.8566  -11.9069 N   0  3  0  0  0  0  0  0  0  0  0  0
   -2.0639    5.0710  -14.2523 N   0  3  0  0  0  0  0  0  0  0  0  0
    1.3600    2.6217  -13.8507 O   0  0  0  0  0  0  0  0  0  0  0  0
   -2.2809    2.2583  -13.8065 O   0  0  0  0  0  0  0  0  0  0  0  0
  1  2  1  0  0  0  0
  1 22  1  6  0  0  0
  1 10  1  0  0  0  0
  2  3  1  0  0  0  0
  2  7  1  6  0  0  0
  3  4  1  0  0  0  0
  3  8  1  1  0  0  0
  4  5  1  0  0  0  0
  4  9  1  6  0  0  0
  5  6  1  1  0  0  0
  5 10  1  0  0  0  0
  6 11  1  0  0  0  0
 12 13  1  0  0  0  0
 12 17  1  0  0  0  0
 12 18  1  6  0  0  0
 13 14  1  0  0  0  0
 14 15  1  0  0  0  0
 14 19  1  6  0  0  0
 15 16  1  0  0  0  0
 15 21  1  1  0  0  0
 16 17  1  0  0  0  0
 16 20  1  6  0  0  0
 17 22  1  1  0  0  0
 23 21  1  1  0  0  0
 23 24  1  0  0  0  0
 23 32  1  0  0  0  0
 24 25  1  0  0  0  0
 24 29  1  1  0  0  0
 25 26  1  0  0  0  0
 26 27  1  0  0  0  0
 26 31  1  1  0  0  0
 27 28  1  6  0  0  0
 27 32  1  0  0  0  0
 28 30  1  0  0  0  0
M  CHG  5   8   1  18   1  19   1  29   1  30   1
M  END
>  <CHROM.1>
-154.67649764,77.96605542,-147.83681358,-54.07498501,53.25646621,-156.61481313
167.24444903,75.45321118,-151.15254365,154.87185240,-51.42258821,-143.87630790
167.63511405,-54.71391240,-174.62453824,-162.66933444,-4.73865110,0.71965440
-10.37946312,-2.70220823,0.65231834,-0.09655524

>  <Name>
2tob cryst

>  <RI>
3.75586e+07

>  <Rbt.Current_Directory>
/home/itssahil/PROJECTS/Mol_Feturizer/New_Systems/rnas/2tob

>  <Rbt.Executable>
rbdock ($Id: //depot/dev/client3/rdock/2013.1/src/exe/rbdock.cxx#4 $)

>  <Rbt.Library>
libRbt.so (2013.1, Build901 2013/11/27)

>  <Rbt.Parameter_File>
/export/apps/rDock/src/rDock_2013.1_src/data/scripts/dock_solv.prm

>  <Rbt.Receptor>
prm/pocket_docking_8.prm

>  <SCORE>
-46.9224

>  <SCORE.INTER>
-32.9394

>  <SCORE.INTER.CONST>
1

>  <SCORE.INTER.POLAR>
-6.50934

>  <SCORE.INTER.ROT>
6

>  <SCORE.INTER.SOLV>
36.2518

>  <SCORE.INTER.VDW>
-19.9458

>  <SCORE.INTER.norm>
-1.02936

>  <SCORE.INTRA>
-14.243

>  <SCORE.INTRA.DIHEDRAL>
3.93888

>  <SCORE.INTRA.DIHEDRAL.0>
18.4221

>  <SCORE.INTRA.POLAR>
0.907552

>  <SCORE.INTRA.POLAR.0>
-1.57101

>  <SCORE.INTRA.REPUL>
-0.730195

>  <SCORE.INTRA.REPUL.0>
0.730195

>  <SCORE.INTRA.SOLV>
-3.07559

>  <SCORE.INTRA.SOLV.lig_0>
-127.221

>  <SCORE.INTRA.VDW>
-14.1093

>  <SCORE.INTRA.VDW.0>
10.8385

>  <SCORE.INTRA.norm>
-0.445093

>  <SCORE.RESTR>
0.260043

>  <SCORE.RESTR.CAVITY>
0.260043

>  <SCORE.RESTR.norm>
0.00812635

>  <SCORE.SYSTEM>
0

>  <SCORE.SYSTEM.CONST>
0

>  <SCORE.SYSTEM.DIHEDRAL>
0

>  <SCORE.SYSTEM.SOLV>
0

>  <SCORE.SYSTEM.norm>
0

>  <SCORE.heavy>
32

>  <SCORE.norm>
-1.46632

>  <RMSD>
10.263

$$$$
2tob cryst
 OpenBabel11021811463D
libRbt.so/2013.1/901 2013/11/27
 32 34  0  0  0  0  0  0  0  0999 V2000
   -5.8845   -0.5581   -8.2636 C   0  0  2  0  0  0  0  0  0  0  0  0
   -6.2552   -1.9111   -7.6645 C   0  0  1  0  0  0  0  0  0  0  0  0
   -7.7778   -2.0498   -7.6571 C   0  0  2  0  0  0  0  0  0  0  0  0
   -8.4304   -0.8693   -6.9256 C   0  0  1  0  0  0  0  0  0  0  0  0
   -7.9114    0.4539   -7.4990 C   0  0  1  0  0  0  0  0  0  0  0  0
   -8.3832    1.6893   -6.7498 C   0  0  0  0  0  0  0  0  0  0  0  0
   -5.6779   -2.9607   -8.4365 O   0  0  0  0  0  0  0  0  0  0  0  0
   -8.3551   -3.3089   -7.0886 N   0  3  0  0  0  0  0  0  0  0  0  0
   -9.8409   -0.9473   -7.0884 O   0  0  0  0  0  0  0  0  0  0  0  0
   -6.4700    0.4651   -7.4808 O   0  0  0  0  0  0  0  0  0  0  0  0
   -9.7581    1.9485   -7.0149 O   0  0  0  0  0  0  0  0  0  0  0  0
   -6.1591    1.8652   -9.9480 C   0  0  2  0  0  0  0  0  0  0  0  0
   -5.3765    3.0128  -10.6005 C   0  0  0  0  0  0  0  0  0  0  0  0
   -3.8706    2.7651  -10.5871 C   0  0  1  0  0  0  0  0  0  0  0  0
   -3.5937    1.4452  -11.2938 C   0  0  2  0  0  0  0  0  0  0  0  0
   -4.2417    0.3014  -10.5096 C   0  0  1  0  0  0  0  0  0  0  0  0
   -5.7704    0.4727  -10.4695 C   0  0  1  0  0  0  0  0  0  0  0  0
   -7.6365    2.0603  -10.1337 N   0  3  0  0  0  0  0  0  0  0  0  0
   -3.1330    3.8982  -11.2353 N   0  3  0  0  0  0  0  0  0  0  0  0
   -3.9007   -0.9385  -11.1166 O   0  0  0  0  0  0  0  0  0  0  0  0
   -2.1765    1.2222  -11.4083 O   0  0  0  0  0  0  0  0  0  0  0  0
   -6.3485   -0.5105   -9.5858 O   0  0  0  0  0  0  0  0  0  0  0  0
   -1.7877    0.7419  -12.6656 C   0  0  2  0  0  0  0  0  0  0  0  0
   -0.3640    0.1800  -12.5921 C   0  0  1  0  0  0  0  0  0  0  0  0
    0.6668    1.3060  -12.5074 C   0  0  0  0  0  0  0  0  0  0  0  0
    0.4334    2.2763  -13.6541 C   0  0  1  0  0  0  0  0  0  0  0  0
   -0.9829    2.8180  -13.5696 C   0  0  1  0  0  0  0  0  0  0  0  0
   -1.2758    3.8006  -14.6889 C   0  0  0  0  0  0  0  0  0  0  0  0
   -0.2364   -0.6988  -11.3858 N   0  3  0  0  0  0  0  0  0  0  0  0
   -2.7654    3.9994  -14.7557 N   0  3  0  0  0  0  0  0  0  0  0  0
    1.3665    3.3458  -13.5939 O   0  0  0  0  0  0  0  0  0  0  0  0
   -1.9154    1.7297  -13.6828 O   0  0  0  0  0  0  0  0  0  0  0  0
  1  2  1  0  0  0  0
  1 22  1  6  0  0  0
  1 10  1  0  0  0  0
  2  3  1  0  0  0  0
  2  7  1  6  0  0  0
  3  4  1  0  0  0  0
  3  8  1  1  0  0  0
  4  5  1  0  0  0  0
  4  9  1  6  0  0  0
  5  6  1  1  0  0  0
  5 10  1  0  0  0  0
  6 11  1  0  0  0  0
 12 13  1  0  0  0  0
 12 17  1  0  0  0  0
 12 18  1  6  0  0  0
 13 14  1  0  0  0  0
 14 15  1  0  0  0  0
 14 19  1  6  0  0  0
 15 16  1  0  0  0  0
 15 21  1  1  0  0  0
 16 17  1  0  0  0  0
 16 20  1  6  0  0  0
 17 22  1  1  0  0  0
 23 21  1  1  0  0  0
 23 24  1  0  0  0  0
 23 32  1  0  0  0  0
 24 25  1  0  0  0  0
 24 29  1  1  0  0  0
 25 26  1  0  0  0  0
 26 27  1  0  0  0  0
 26 31  1  1  0  0  0
 27 28  1  6  0  0  0
 27 32  1  0  0  0  0
 28 30  1  0  0  0  0
M  CHG  5   8   1  18   1  19   1  29   1  30   1
M  END
>  <CHROM.1>
-161.19254539,173.36880182,23.19423823,-170.25732834,-73.14785324,-66.63967223
53.81387224,-51.27488376,-136.64564895,69.08329865,-65.40804671,-164.79257238
95.17976267,179.38850801,165.07498841,-23.42675118,-4.52545451,0.83910458
-10.36606641,-2.60941417,0.50863274,-0.40794882

>  <Name>
2tob cryst

>  <RI>
3.75586e+07

>  <Rbt.Current_Directory>
/home/itssahil/PROJECTS/Mol_Feturizer/New_Systems/rnas/2tob

>  <Rbt.Executable>
rbdock ($Id: //depot/dev/client3/rdock/2013.1/src/exe/rbdock.cxx#4 $)

>  <Rbt.Library>
libRbt.so (2013.1, Build901 2013/11/27)

>  <Rbt.Parameter_File>
/export/apps/rDock/src/rDock_2013.1_src/data/scripts/dock_solv.prm

>  <Rbt.Receptor>
prm/pocket_docking_8.prm

>  <SCORE>
-50.237

>  <SCORE.INTER>
-35.0574

>  <SCORE.INTER.CONST>
1

>  <SCORE.INTER.POLAR>
-3.98086

>  <SCORE.INTER.ROT>
6

>  <SCORE.INTER.SOLV>
37.4298

>  <SCORE.INTER.VDW>
-30.1787

>  <SCORE.INTER.norm>
-1.09554

>  <SCORE.INTRA>
-15.644

>  <SCORE.INTRA.DIHEDRAL>
0.49135

>  <SCORE.INTRA.DIHEDRAL.0>
18.4221

>  <SCORE.INTRA.POLAR>
0.519679

>  <SCORE.INTRA.POLAR.0>
-1.57101

>  <SCORE.INTRA.REPUL>
-0.730195

>  <SCORE.INTRA.REPUL.0>
0.730195

>  <SCORE.INTRA.SOLV>
0.490785

>  <SCORE.INTRA.SOLV.lig_0>
-127.221

>  <SCORE.INTRA.VDW>
-14.251

>  <SCORE.INTRA.VDW.0>
10.8385

>  <SCORE.INTRA.norm>
-0.488874

>  <SCORE.RESTR>
0.464342

>  <SCORE.RESTR.CAVITY>
0.464342

>  <SCORE.RESTR.norm>
0.0145107

>  <SCORE.SYSTEM>
0

>  <SCORE.SYSTEM.CONST>
0

>  <SCORE.SYSTEM.DIHEDRAL>
0

>  <SCORE.SYSTEM.SOLV>
0

>  <SCORE.SYSTEM.norm>
0

>  <SCORE.heavy>
32

>  <SCORE.norm>
-1.56991

>  <RMSD>
10.327

$$$$
2tob cryst
 OpenBabel11021811463D
libRbt.so/2013.1/901 2013/11/27
 32 34  0  0  0  0  0  0  0  0999 V2000
   -7.9627   -0.1465   -9.8960 C   0  0  2  0  0  0  0  0  0  0  0  0
   -9.2743    0.6300   -9.9575 C   0  0  1  0  0  0  0  0  0  0  0  0
   -9.9963    0.4906   -8.6170 C   0  0  2  0  0  0  0  0  0  0  0  0
  -10.1890   -0.9872   -8.2513 C   0  0  1  0  0  0  0  0  0  0  0  0
   -8.8494   -1.7269   -8.3362 C   0  0  1  0  0  0  0  0  0  0  0  0
   -8.9499   -3.2300   -8.1343 C   0  0  0  0  0  0  0  0  0  0  0  0
   -9.0145    2.0052  -10.2260 O   0  0  0  0  0  0  0  0  0  0  0  0
  -11.3231    1.1690   -8.4721 N   0  3  0  0  0  0  0  0  0  0  0  0
  -10.7062   -1.0726   -6.9294 O   0  0  0  0  0  0  0  0  0  0  0  0
   -8.2478   -1.5063   -9.6275 O   0  0  0  0  0  0  0  0  0  0  0  0
   -7.7023   -3.8619   -8.4025 O   0  0  0  0  0  0  0  0  0  0  0  0
   -5.2484   -0.9166   -9.5257 C   0  0  2  0  0  0  0  0  0  0  0  0
   -3.8246   -0.9372  -10.0980 C   0  0  0  0  0  0  0  0  0  0  0  0
   -3.6298    0.1029  -11.1978 C   0  0  1  0  0  0  0  0  0  0  0  0
   -3.9693    1.4738  -10.6293 C   0  0  2  0  0  0  0  0  0  0  0  0
   -5.4483    1.5108  -10.2363 C   0  0  1  0  0  0  0  0  0  0  0  0
   -5.7375    0.4846   -9.1266 C   0  0  1  0  0  0  0  0  0  0  0  0
   -5.3529   -1.8265   -8.3355 N   0  3  0  0  0  0  0  0  0  0  0  0
   -2.2300    0.0639  -11.7337 N   0  3  0  0  0  0  0  0  0  0  0  0
   -5.7864    2.8202   -9.7968 O   0  0  0  0  0  0  0  0  0  0  0  0
   -3.6912    2.5035  -11.5957 O   0  0  0  0  0  0  0  0  0  0  0  0
   -7.1589    0.4091   -8.8905 O   0  0  0  0  0  0  0  0  0  0  0  0
   -2.3603    2.9406  -11.5771 C   0  0  2  0  0  0  0  0  0  0  0  0
   -2.2171    4.1365  -10.6299 C   0  0  1  0  0  0  0  0  0  0  0  0
   -2.8092    5.4021  -11.2505 C   0  0  0  0  0  0  0  0  0  0  0  0
   -2.1941    5.6126  -12.6247 C   0  0  1  0  0  0  0  0  0  0  0  0
   -2.4709    4.3939  -13.4877 C   0  0  1  0  0  0  0  0  0  0  0  0
   -1.8844    4.5467  -14.8794 C   0  0  0  0  0  0  0  0  0  0  0  0
   -2.9231    3.8404   -9.3424 N   0  3  0  0  0  0  0  0  0  0  0  0
   -0.3956    4.3555  -14.7805 N   0  3  0  0  0  0  0  0  0  0  0  0
   -2.7373    6.7740  -13.2363 O   0  0  0  0  0  0  0  0  0  0  0  0
   -1.8719    3.2362  -12.8812 O   0  0  0  0  0  0  0  0  0  0  0  0
  1  2  1  0  0  0  0
  1 22  1  1  0  0  0
  1 10  1  0  0  0  0
  2  3  1  0  0  0  0
  2  7  1  1  0  0  0
  3  4  1  0  0  0  0
  3  8  1  6  0  0  0
  4  5  1  0  0  0  0
  4  9  1  1  0  0  0
  5  6  1  6  0  0  0
  5 10  1  0  0  0  0
  6 11  1  0  0  0  0
 12 13  1  0  0  0  0
 12 17  1  0  0  0  0
 12 18  1  1  0  0  0
 13 14  1  0  0  0  0
 14 15  1  0  0  0  0
 14 19  1  1  0  0  0
 15 16  1  0  0  0  0
 15 21  1  6  0  0  0
 16 17  1  0  0  0  0
 16 20  1  1  0  0  0
 17 22  1  6  0  0  0
 23 21  1  6  0  0  0
 23 24  1  0  0  0  0
 23 32  1  0  0  0  0
 24 25  1  0  0  0  0
 24 29  1  1  0  0  0
 25 26  1  0  0  0  0
 26 27  1  0  0  0  0
 26 31  1  6  0  0  0
 27 28  1  6  0  0  0
 27 32  1  0  0  0  0
 28 30  1  0  0  0  0
M  CHG  5   8   1  18   1  19   1  29   1  30   1
M  END
>  <CHROM.1>
-142.47473772,179.00106479,-90.80520176,-59.41062684,172.26624114,178.19557720
-126.52160140,-70.95015938,-85.64236785,-178.56429245,-52.70348649,-91.71813794
47.85340032,-59.59507942,74.90366575,171.82709507,-5.51824815,1.33715721
-10.38388522,2.42668345,-0.34273822,2.83971184

>  <Name>
2tob cryst

>  <RI>
3.75586e+07

>  <Rbt.Current_Directory>
/home/itssahil/PROJECTS/Mol_Feturizer/New_Systems/rnas/2tob

>  <Rbt.Executable>
rbdock ($Id: //depot/dev/client3/rdock/2013.1/src/exe/rbdock.cxx#4 $)

>  <Rbt.Library>
libRbt.so (2013.1, Build901 2013/11/27)

>  <Rbt.Parameter_File>
/export/apps/rDock/src/rDock_2013.1_src/data/scripts/dock_solv.prm

>  <Rbt.Receptor>
prm/pocket_docking_8.prm

>  <SCORE>
-47.0737

>  <SCORE.INTER>
-27.5211

>  <SCORE.INTER.CONST>
1

>  <SCORE.INTER.POLAR>
-6.10482

>  <SCORE.INTER.ROT>
6

>  <SCORE.INTER.SOLV>
41.4716

>  <SCORE.INTER.VDW>
-19.4219

>  <SCORE.INTER.norm>
-0.860036

>  <SCORE.INTRA>
-19.557

>  <SCORE.INTRA.DIHEDRAL>
0.679601

>  <SCORE.INTRA.DIHEDRAL.0>
18.4221

>  <SCORE.INTRA.POLAR>
-0.836882

>  <SCORE.INTRA.POLAR.0>
-1.57101

>  <SCORE.INTRA.REPUL>
-0.730195

>  <SCORE.INTRA.REPUL.0>
0.730195

>  <SCORE.INTRA.SOLV>
0.329722

>  <SCORE.INTRA.SOLV.lig_0>
-127.221

>  <SCORE.INTRA.VDW>
-13.5653

>  <SCORE.INTRA.VDW.0>
10.8385

>  <SCORE.INTRA.norm>
-0.611155

>  <SCORE.RESTR>
0.00442701

>  <SCORE.RESTR.CAVITY>
0.00442701

>  <SCORE.RESTR.norm>
0.000138344

>  <SCORE.SYSTEM>
0

>  <SCORE.SYSTEM.CONST>
0

>  <SCORE.SYSTEM.DIHEDRAL>
0

>  <SCORE.SYSTEM.SOLV>
0

>  <SCORE.SYSTEM.norm>
0

>  <SCORE.heavy>
32

>  <SCORE.norm>
-1.47105

>  <RMSD>
10.367

$$$$
2tob cryst
 OpenBabel11021811463D
libRbt.so/2013.1/901 2013/11/27
 32 34  0  0  0  0  0  0  0  0999 V2000
   -5.9772   -0.5234   -8.4793 C   0  0  2  0  0  0  0  0  0  0  0  0
   -6.1948   -2.0072   -8.1999 C   0  0  1  0  0  0  0  0  0  0  0  0
   -7.6829   -2.3262   -8.3459 C   0  0  2  0  0  0  0  0  0  0  0  0
   -8.5279   -1.4148   -7.4460 C   0  0  1  0  0  0  0  0  0  0  0  0
   -8.1610    0.0524   -7.6940 C   0  0  1  0  0  0  0  0  0  0  0  0
   -8.8355    1.0350   -6.7508 C   0  0  0  0  0  0  0  0  0  0  0  0
   -5.4397   -2.7920   -9.1190 O   0  0  0  0  0  0  0  0  0  0  0  0
   -8.1159   -3.7372   -8.0945 N   0  3  0  0  0  0  0  0  0  0  0  0
   -9.9040   -1.6254   -7.7365 O   0  0  0  0  0  0  0  0  0  0  0  0
   -6.7374    0.2326   -7.5557 O   0  0  0  0  0  0  0  0  0  0  0  0
   -8.3331    0.8923   -5.4261 O   0  0  0  0  0  0  0  0  0  0  0  0
   -5.9120    2.1013   -9.5511 C   0  0  2  0  0  0  0  0  0  0  0  0
   -5.0593    3.3023   -9.9819 C   0  0  0  0  0  0  0  0  0  0  0  0
   -3.6052    2.9155  -10.2376 C   0  0  1  0  0  0  0  0  0  0  0  0
   -3.5774    1.8197  -11.2942 C   0  0  2  0  0  0  0  0  0  0  0  0
   -4.2831    0.5731  -10.7546 C   0  0  1  0  0  0  0  0  0  0  0  0
   -5.7640    0.8744  -10.4648 C   0  0  1  0  0  0  0  0  0  0  0  0
   -7.3628    2.4822   -9.4778 N   0  3  0  0  0  0  0  0  0  0  0  0
   -2.7983    4.1058  -10.6620 N   0  3  0  0  0  0  0  0  0  0  0  0
   -4.1711   -0.4797  -11.7039 O   0  0  0  0  0  0  0  0  0  0  0  0
   -2.2208    1.5003  -11.6536 O   0  0  0  0  0  0  0  0  0  0  0  0
   -6.3696   -0.2526   -9.7977 O   0  0  0  0  0  0  0  0  0  0  0  0
   -2.0970    0.9649  -12.9423 C   0  0  2  0  0  0  0  0  0  0  0  0
   -1.0387   -0.1433  -12.9475 C   0  0  1  0  0  0  0  0  0  0  0  0
    0.3707    0.4435  -12.8646 C   0  0  0  0  0  0  0  0  0  0  0  0
    0.5403    1.4784  -13.9650 C   0  0  1  0  0  0  0  0  0  0  0  0
   -0.5164    2.5573  -13.8031 C   0  0  1  0  0  0  0  0  0  0  0  0
   -0.3951    3.6269  -14.8732 C   0  0  0  0  0  0  0  0  0  0  0  0
   -1.2645   -1.0540  -11.7799 N   0  3  0  0  0  0  0  0  0  0  0  0
   -1.5912    4.5326  -14.7636 N   0  3  0  0  0  0  0  0  0  0  0  0
    1.8368    2.0559  -13.9045 O   0  0  0  0  0  0  0  0  0  0  0  0
   -1.8214    1.9651  -13.9171 O   0  0  0  0  0  0  0  0  0  0  0  0
  1  2  1  0  0  0  0
  1 22  1  6  0  0  0
  1 10  1  0  0  0  0
  2  3  1  0  0  0  0
  2  7  1  6  0  0  0
  3  4  1  0  0  0  0
  3  8  1  1  0  0  0
  4  5  1  0  0  0  0
  4  9  1  6  0  0  0
  5  6  1  1  0  0  0
  5 10  1  0  0  0  0
  6 11  1  0  0  0  0
 12 13  1  0  0  0  0
 12 17  1  0  0  0  0
 12 18  1  6  0  0  0
 13 14  1  0  0  0  0
 14 15  1  0  0  0  0
 14 19  1  6  0  0  0
 15 16  1  0  0  0  0
 15 21  1  1  0  0  0
 16 17  1  0  0  0  0
 16 20  1  6  0  0  0
 17 22  1  1  0  0  0
 23 21  1  1  0  0  0
 23 24  1  0  0  0  0
 23 32  1  0  0  0  0
 24 25  1  0  0  0  0
 24 29  1  1  0  0  0
 25 26  1  0  0  0  0
 26 27  1  0  0  0  0
 26 31  1  1  0  0  0
 27 28  1  6  0  0  0
 27 32  1  0  0  0  0
 28 30  1  0  0  0  0
M  CHG  5   8   1  18   1  19   1  29   1  30   1
M  END
>  <CHROM.1>
-154.31176644,79.01542963,-28.18967031,69.79534971,68.73543311,-56.79041618
153.99299208,-167.76840628,-154.51402423,-60.11802483,-51.59054581,-141.68684137
-72.44766272,177.97688586,171.67588542,-149.69076650,-4.42467157,0.71314266
-10.49642747,-2.77720252,0.64536700,-0.08787046

>  <Name>
2tob cryst

>  <RI>
3.75586e+07

>  <Rbt.Current_Directory>
/home/itssahil/PROJECTS/Mol_Feturizer/New_Systems/rnas/2tob

>  <Rbt.Executable>
rbdock ($Id: //depot/dev/client3/rdock/2013.1/src/exe/rbdock.cxx#4 $)

>  <Rbt.Library>
libRbt.so (2013.1, Build901 2013/11/27)

>  <Rbt.Parameter_File>
/export/apps/rDock/src/rDock_2013.1_src/data/scripts/dock_solv.prm

>  <Rbt.Receptor>
prm/pocket_docking_8.prm

>  <SCORE>
-63.5874

>  <SCORE.INTER>
-46.2111

>  <SCORE.INTER.CONST>
1

>  <SCORE.INTER.POLAR>
-8.28494

>  <SCORE.INTER.ROT>
6

>  <SCORE.INTER.SOLV>
38.154

>  <SCORE.INTER.VDW>
-23.5089

>  <SCORE.INTER.norm>
-1.4441

>  <SCORE.INTRA>
-17.7005

>  <SCORE.INTRA.DIHEDRAL>
1.24449

>  <SCORE.INTRA.DIHEDRAL.0>
18.4221

>  <SCORE.INTRA.POLAR>
0.298294

>  <SCORE.INTRA.POLAR.0>
-1.57101

>  <SCORE.INTRA.REPUL>
-0.730195

>  <SCORE.INTRA.REPUL.0>
0.730195

>  <SCORE.INTRA.SOLV>
-3.72203

>  <SCORE.INTRA.SOLV.lig_0>
-127.221

>  <SCORE.INTRA.VDW>
-13.8249

>  <SCORE.INTRA.VDW.0>
10.8385

>  <SCORE.INTRA.norm>
-0.55314

>  <SCORE.RESTR>
0.324228

>  <SCORE.RESTR.CAVITY>
0.324228

>  <SCORE.RESTR.norm>
0.0101321

>  <SCORE.SYSTEM>
0

>  <SCORE.SYSTEM.CONST>
0

>  <SCORE.SYSTEM.DIHEDRAL>
0

>  <SCORE.SYSTEM.SOLV>
0

>  <SCORE.SYSTEM.norm>
0

>  <SCORE.heavy>
32

>  <SCORE.norm>
-1.98711

>  <RMSD>
10.384

$$$$
2tob cryst
 OpenBabel11021811463D
libRbt.so/2013.1/901 2013/11/27
 32 34  0  0  0  0  0  0  0  0999 V2000
   -7.2598   -0.2677   -9.9337 C   0  0  2  0  0  0  0  0  0  0  0  0
   -8.3020    0.8290   -9.7383 C   0  0  1  0  0  0  0  0  0  0  0  0
   -8.8393    0.7533   -8.3088 C   0  0  2  0  0  0  0  0  0  0  0  0
   -9.3785   -0.6500   -8.0014 C   0  0  1  0  0  0  0  0  0  0  0  0
   -8.3202   -1.7044   -8.3435 C   0  0  1  0  0  0  0  0  0  0  0  0
   -8.8015   -3.1403   -8.2138 C   0  0  0  0  0  0  0  0  0  0  0  0
   -7.7136    2.1067   -9.9665 O   0  0  0  0  0  0  0  0  0  0  0  0
   -9.8939    1.7397   -7.9131 N   0  3  0  0  0  0  0  0  0  0  0  0
   -9.7088   -0.7260   -6.6203 O   0  0  0  0  0  0  0  0  0  0  0  0
   -7.8680   -1.5240   -9.7004 O   0  0  0  0  0  0  0  0  0  0  0  0
   -7.9719   -4.0225   -8.9628 O   0  0  0  0  0  0  0  0  0  0  0  0
   -4.4827   -0.5231  -10.6625 C   0  0  2  0  0  0  0  0  0  0  0  0
   -3.3409    0.0216  -11.5313 C   0  0  0  0  0  0  0  0  0  0  0  0
   -3.6421    1.4168  -12.0717 C   0  0  1  0  0  0  0  0  0  0  0  0
   -3.9187    2.3400  -10.8930 C   0  0  2  0  0  0  0  0  0  0  0  0
   -5.1742    1.8651  -10.1572 C   0  0  1  0  0  0  0  0  0  0  0  0
   -4.9595    0.4558   -9.5779 C   0  0  1  0  0  0  0  0  0  0  0  0
   -4.0808   -1.8149  -10.0106 N   0  3  0  0  0  0  0  0  0  0  0  0
   -2.5084    1.9252  -12.9110 N   0  3  0  0  0  0  0  0  0  0  0  0
   -5.4861    2.7831   -9.1170 O   0  0  0  0  0  0  0  0  0  0  0  0
   -4.0960    3.6950  -11.3447 O   0  0  0  0  0  0  0  0  0  0  0  0
   -6.2016   -0.0455   -9.0413 O   0  0  0  0  0  0  0  0  0  0  0  0
   -3.9229    4.6472  -10.3318 C   0  0  2  0  0  0  0  0  0  0  0  0
   -4.0325    6.0586  -10.9183 C   0  0  1  0  0  0  0  0  0  0  0  0
   -2.7793    6.4203  -11.7159 C   0  0  0  0  0  0  0  0  0  0  0  0
   -1.5560    6.1973  -10.8414 C   0  0  1  0  0  0  0  0  0  0  0  0
   -1.5226    4.7476  -10.3897 C   0  0  1  0  0  0  0  0  0  0  0  0
   -0.3162    4.4600   -9.5144 C   0  0  0  0  0  0  0  0  0  0  0  0
   -5.2289    6.1339  -11.8165 N   0  3  0  0  0  0  0  0  0  0  0  0
   -0.3489    3.0031   -9.1411 N   0  3  0  0  0  0  0  0  0  0  0  0
   -0.3712    6.5089  -11.5606 O   0  0  0  0  0  0  0  0  0  0  0  0
   -2.7035    4.4622   -9.6209 O   0  0  0  0  0  0  0  0  0  0  0  0
  1  2  1  0  0  0  0
  1 22  1  1  0  0  0
  1 10  1  0  0  0  0
  2  3  1  0  0  0  0
  2  7  1  1  0  0  0
  3  4  1  0  0  0  0
  3  8  1  6  0  0  0
  4  5  1  0  0  0  0
  4  9  1  1  0  0  0
  5  6  1  6  0  0  0
  5 10  1  0  0  0  0
  6 11  1  0  0  0  0
 12 13  1  0  0  0  0
 12 17  1  0  0  0  0
 12 18  1  1  0  0  0
 13 14  1  0  0  0  0
 14 15  1  0  0  0  0
 14 19  1  1  0  0  0
 15 16  1  0  0  0  0
 15 21  1  6  0  0  0
 16 17  1  0  0  0  0
 16 20  1  1  0  0  0
 17 22  1  6  0  0  0
 23 21  1  6  0  0  0
 23 24  1  0  0  0  0
 23 32  1  0  0  0  0
 24 25  1  0  0  0  0
 24 29  1  6  0  0  0
 25 26  1  0  0  0  0
 26 27  1  0  0  0  0
 26 31  1  6  0  0  0
 27 28  1  1  0  0  0
 27 32  1  0  0  0  0
 28 30  1  0  0  0  0
M  CHG  5   8   1  18   1  19   1  29   1  30   1
M  END
>  <CHROM.1>
-106.38134354,169.86551229,168.40076453,80.73070187,159.84233785,94.51374260
45.68522738,-49.19887372,-160.50560960,167.31442696,-56.80153680,176.07887716
60.09687823,-58.25761940,-178.78642905,-43.04728907,-5.15820407,1.80785001
-9.95247092,-2.38483401,0.32273018,-0.04519367

>  <Name>
2tob cryst

>  <RI>
2.10184e+07

>  <Rbt.Current_Directory>
/home/itssahil/PROJECTS/Mol_Feturizer/New_Systems/rnas/2tob

>  <Rbt.Executable>
rbdock ($Id: //depot/dev/client3/rdock/2013.1/src/exe/rbdock.cxx#4 $)

>  <Rbt.Library>
libRbt.so (2013.1, Build901 2013/11/27)

>  <Rbt.Parameter_File>
/export/apps/rDock/src/rDock_2013.1_src/data/scripts/dock_solv.prm

>  <Rbt.Receptor>
prm/pocket_docking_7.prm

>  <SCORE>
-40.6182

>  <SCORE.INTER>
-26.0222

>  <SCORE.INTER.CONST>
1

>  <SCORE.INTER.POLAR>
-5.55743

>  <SCORE.INTER.ROT>
6

>  <SCORE.INTER.SOLV>
42.9427

>  <SCORE.INTER.VDW>
-20.7376

>  <SCORE.INTER.norm>
-0.813193

>  <SCORE.INTRA>
-15.6184

>  <SCORE.INTRA.DIHEDRAL>
0.66625

>  <SCORE.INTRA.DIHEDRAL.0>
18.4221

>  <SCORE.INTRA.POLAR>
1.07467

>  <SCORE.INTRA.POLAR.0>
-1.57101

>  <SCORE.INTRA.REPUL>
-0.730195

>  <SCORE.INTRA.REPUL.0>
0.730195

>  <SCORE.INTRA.SOLV>
-7.81449

>  <SCORE.INTRA.SOLV.lig_0>
-127.221

>  <SCORE.INTRA.VDW>
-12.0472

>  <SCORE.INTRA.VDW.0>
10.8385

>  <SCORE.INTRA.norm>
-0.488075

>  <SCORE.RESTR>
1.02234

>  <SCORE.RESTR.CAVITY>
1.02234

>  <SCORE.RESTR.norm>
0.031948

>  <SCORE.SYSTEM>
0

>  <SCORE.SYSTEM.CONST>
0

>  <SCORE.SYSTEM.DIHEDRAL>
0

>  <SCORE.SYSTEM.SOLV>
0

>  <SCORE.SYSTEM.norm>
0

>  <SCORE.heavy>
32

>  <SCORE.norm>
-1.26932

>  <RMSD>
10.401

$$$$
2tob cryst
 OpenBabel11021811463D
libRbt.so/2013.1/901 2013/11/27
 32 34  0  0  0  0  0  0  0  0999 V2000
   -6.0356   -0.8175   -8.4390 C   0  0  2  0  0  0  0  0  0  0  0  0
   -6.3243   -2.2372   -7.9612 C   0  0  1  0  0  0  0  0  0  0  0  0
   -7.7803   -2.5803   -8.2773 C   0  0  2  0  0  0  0  0  0  0  0  0
   -8.7308   -1.5378   -7.6736 C   0  0  1  0  0  0  0  0  0  0  0  0
   -8.2995   -0.1290   -8.0957 C   0  0  1  0  0  0  0  0  0  0  0  0
   -9.0865    0.9912   -7.4355 C   0  0  0  0  0  0  0  0  0  0  0  0
   -5.4571   -3.1581   -8.6174 O   0  0  0  0  0  0  0  0  0  0  0  0
   -8.2761   -3.9333   -7.8709 N   0  3  0  0  0  0  0  0  0  0  0  0
  -10.0520   -1.7971   -8.1312 O   0  0  0  0  0  0  0  0  0  0  0  0
   -6.9092    0.0757   -7.7745 O   0  0  0  0  0  0  0  0  0  0  0  0
   -8.4522    2.2486   -7.6463 O   0  0  0  0  0  0  0  0  0  0  0  0
   -6.2741    1.6392   -9.9937 C   0  0  2  0  0  0  0  0  0  0  0  0
   -5.5532    2.9184  -10.4394 C   0  0  0  0  0  0  0  0  0  0  0  0
   -4.0457    2.8395  -10.2142 C   0  0  1  0  0  0  0  0  0  0  0  0
   -3.5108    1.6242  -10.9591 C   0  0  2  0  0  0  0  0  0  0  0  0
   -4.1189    0.3523  -10.3626 C   0  0  1  0  0  0  0  0  0  0  0  0
   -5.6470    0.3485  -10.5439 C   0  0  1  0  0  0  0  0  0  0  0  0
   -7.7225    1.6839  -10.3881 N   0  3  0  0  0  0  0  0  0  0  0  0
   -3.3677    4.0991  -10.6635 N   0  3  0  0  0  0  0  0  0  0  0  0
   -3.5450   -0.7852  -10.9941 O   0  0  0  0  0  0  0  0  0  0  0  0
   -2.0752    1.5709  -10.8717 O   0  0  0  0  0  0  0  0  0  0  0  0
   -6.2204   -0.7651   -9.8278 O   0  0  0  0  0  0  0  0  0  0  0  0
   -1.4279    2.1800  -11.9546 C   0  0  2  0  0  0  0  0  0  0  0  0
   -0.5298    1.1621  -12.6653 C   0  0  1  0  0  0  0  0  0  0  0  0
    0.7291    0.8750  -11.8467 C   0  0  0  0  0  0  0  0  0  0  0  0
    1.4131    2.1914  -11.5147 C   0  0  1  0  0  0  0  0  0  0  0  0
    0.4466    3.0768  -10.7474 C   0  0  1  0  0  0  0  0  0  0  0  0
    1.0757    4.4087  -10.3808 C   0  0  0  0  0  0  0  0  0  0  0  0
   -1.2874   -0.1136  -12.8707 N   0  3  0  0  0  0  0  0  0  0  0  0
    0.0276    5.2471   -9.7015 N   0  3  0  0  0  0  0  0  0  0  0  0
    2.5799    1.9597  -10.7382 O   0  0  0  0  0  0  0  0  0  0  0  0
   -0.7052    3.3432  -11.5654 O   0  0  0  0  0  0  0  0  0  0  0  0
  1  2  1  0  0  0  0
  1 22  1  6  0  0  0
  1 10  1  0  0  0  0
  2  3  1  0  0  0  0
  2  7  1  6  0  0  0
  3  4  1  0  0  0  0
  3  8  1  1  0  0  0
  4  5  1  0  0  0  0
  4  9  1  6  0  0  0
  5  6  1  1  0  0  0
  5 10  1  0  0  0  0
  6 11  1  0  0  0  0
 12 13  1  0  0  0  0
 12 17  1  0  0  0  0
 12 18  1  6  0  0  0
 13 14  1  0  0  0  0
 14 15  1  0  0  0  0
 14 19  1  6  0  0  0
 15 16  1  0  0  0  0
 15 21  1  1  0  0  0
 16 17  1  0  0  0  0
 16 20  1  6  0  0  0
 17 22  1  1  0  0  0
 23 21  1  1  0  0  0
 23 24  1  0  0  0  0
 23 32  1  0  0  0  0
 24 25  1  0  0  0  0
 24 29  1  1  0  0  0
 25 26  1  0  0  0  0
 26 27  1  0  0  0  0
 26 31  1  1  0  0  0
 27 28  1  6  0  0  0
 27 32  1  0  0  0  0
 28 30  1  0  0  0  0
M  CHG  5   8   1  18   1  19   1  29   1  30   1
M  END
>  <CHROM.1>
-162.65603856,67.38481029,86.89965203,72.61567581,167.44321762,-56.34050513
156.47188584,71.22840575,-93.60802691,-83.62284459,-60.50928995,-121.10031345
76.34920330,69.20177835,176.63846017,26.40236516,-4.23771886,0.83247795,-9.90301391
-2.73814398,0.35714392,0.02029221

>  <Name>
2tob cryst

>  <RI>
3.75586e+07

>  <Rbt.Current_Directory>
/home/itssahil/PROJECTS/Mol_Feturizer/New_Systems/rnas/2tob

>  <Rbt.Executable>
rbdock ($Id: //depot/dev/client3/rdock/2013.1/src/exe/rbdock.cxx#4 $)

>  <Rbt.Library>
libRbt.so (2013.1, Build901 2013/11/27)

>  <Rbt.Parameter_File>
/export/apps/rDock/src/rDock_2013.1_src/data/scripts/dock_solv.prm

>  <Rbt.Receptor>
prm/pocket_docking_8.prm

>  <SCORE>
-57.9613

>  <SCORE.INTER>
-40.8832

>  <SCORE.INTER.CONST>
1

>  <SCORE.INTER.POLAR>
-5.33096

>  <SCORE.INTER.ROT>
6

>  <SCORE.INTER.SOLV>
34.3447

>  <SCORE.INTER.VDW>
-28.5338

>  <SCORE.INTER.norm>
-1.2776

>  <SCORE.INTRA>
-18.418

>  <SCORE.INTRA.DIHEDRAL>
4.67592

>  <SCORE.INTRA.DIHEDRAL.0>
18.4221

>  <SCORE.INTRA.POLAR>
-1.12104

>  <SCORE.INTRA.POLAR.0>
-1.57101

>  <SCORE.INTRA.REPUL>
-0.730195

>  <SCORE.INTRA.REPUL.0>
0.730195

>  <SCORE.INTRA.SOLV>
2.27803

>  <SCORE.INTRA.SOLV.lig_0>
-127.221

>  <SCORE.INTRA.VDW>
-14.4324

>  <SCORE.INTRA.VDW.0>
10.8385

>  <SCORE.INTRA.norm>
-0.575562

>  <SCORE.RESTR>
1.33988

>  <SCORE.RESTR.CAVITY>
1.33988

>  <SCORE.RESTR.norm>
0.0418713

>  <SCORE.SYSTEM>
0

>  <SCORE.SYSTEM.CONST>
0

>  <SCORE.SYSTEM.DIHEDRAL>
0

>  <SCORE.SYSTEM.SOLV>
0

>  <SCORE.SYSTEM.norm>
0

>  <SCORE.heavy>
32

>  <SCORE.norm>
-1.81129

>  <RMSD>
10.420

$$$$
2tob cryst
 OpenBabel11021811463D
libRbt.so/2013.1/901 2013/11/27
 32 34  0  0  0  0  0  0  0  0999 V2000
   -6.0136   -0.8368   -8.5074 C   0  0  2  0  0  0  0  0  0  0  0  0
   -6.2973   -2.2646   -8.0515 C   0  0  1  0  0  0  0  0  0  0  0  0
   -7.7256   -2.6376   -8.4497 C   0  0  2  0  0  0  0  0  0  0  0  0
   -8.7309   -1.6189   -7.8962 C   0  0  1  0  0  0  0  0  0  0  0  0
   -8.3076   -0.1990   -8.2885 C   0  0  1  0  0  0  0  0  0  0  0  0
   -9.1544    0.9008   -7.6692 C   0  0  0  0  0  0  0  0  0  0  0  0
   -5.3750   -3.1634   -8.6617 O   0  0  0  0  0  0  0  0  0  0  0  0
   -8.2137   -4.0030   -8.0765 N   0  3  0  0  0  0  0  0  0  0  0  0
  -10.0186   -1.9044   -8.4278 O   0  0  0  0  0  0  0  0  0  0  0  0
   -6.9421    0.0341   -7.8894 O   0  0  0  0  0  0  0  0  0  0  0  0
   -9.0979    0.8441   -6.2475 O   0  0  0  0  0  0  0  0  0  0  0  0
   -6.1671    1.6270   -9.9905 C   0  0  2  0  0  0  0  0  0  0  0  0
   -5.4411    2.9178  -10.3926 C   0  0  0  0  0  0  0  0  0  0  0  0
   -3.9343    2.8263  -10.1677 C   0  0  1  0  0  0  0  0  0  0  0  0
   -3.4022    1.6345  -10.9515 C   0  0  2  0  0  0  0  0  0  0  0  0
   -4.0156    0.3456  -10.3984 C   0  0  1  0  0  0  0  0  0  0  0  0
   -5.5434    0.3531  -10.5822 C   0  0  1  0  0  0  0  0  0  0  0  0
   -7.6146    1.6897  -10.3855 N   0  3  0  0  0  0  0  0  0  0  0  0
   -3.2512    4.0977  -10.5741 N   0  3  0  0  0  0  0  0  0  0  0  0
   -3.4445   -0.7723  -11.0662 O   0  0  0  0  0  0  0  0  0  0  0  0
   -1.9669    1.5733  -10.8637 O   0  0  0  0  0  0  0  0  0  0  0  0
   -6.1218   -0.7816   -9.9041 O   0  0  0  0  0  0  0  0  0  0  0  0
   -1.3552    1.1230  -12.0408 C   0  0  2  0  0  0  0  0  0  0  0  0
    0.1637    1.2982  -11.9395 C   0  0  1  0  0  0  0  0  0  0  0  0
    0.5577    2.7680  -12.0877 C   0  0  0  0  0  0  0  0  0  0  0  0
   -0.0535    3.3165  -13.3670 C   0  0  1  0  0  0  0  0  0  0  0  0
   -1.5623    3.1533  -13.3096 C   0  0  1  0  0  0  0  0  0  0  0  0
   -2.2330    3.6898  -14.5612 C   0  0  0  0  0  0  0  0  0  0  0  0
    0.6367    0.7911  -10.6118 N   0  3  0  0  0  0  0  0  0  0  0  0
   -1.9236    5.1585  -14.6618 N   0  3  0  0  0  0  0  0  0  0  0  0
    0.2807    4.6880  -13.5256 O   0  0  0  0  0  0  0  0  0  0  0  0
   -1.8854    1.7567  -13.2001 O   0  0  0  0  0  0  0  0  0  0  0  0
  1  2  1  0  0  0  0
  1 22  1  6  0  0  0
  1 10  1  0  0  0  0
  2  3  1  0  0  0  0
  2  7  1  6  0  0  0
  3  4  1  0  0  0  0
  3  8  1  1  0  0  0
  4  5  1  0  0  0  0
  4  9  1  6  0  0  0
  5  6  1  1  0  0  0
  5 10  1  0  0  0  0
  6 11  1  0  0  0  0
 12 13  1  0  0  0  0
 12 17  1  0  0  0  0
 12 18  1  6  0  0  0
 13 14  1  0  0  0  0
 14 15  1  0  0  0  0
 14 19  1  6  0  0  0
 15 16  1  0  0  0  0
 15 21  1  1  0  0  0
 16 17  1  0  0  0  0
 16 20  1  6  0  0  0
 17 22  1  1  0  0  0
 23 21  1  1  0  0  0
 23 24  1  0  0  0  0
 23 32  1  0  0  0  0
 24 25  1  0  0  0  0
 24 29  1  1  0  0  0
 25 26  1  0  0  0  0
 26 27  1  0  0  0  0
 26 31  1  1  0  0  0
 27 28  1  6  0  0  0
 27 32  1  0  0  0  0
 28 30  1  0  0  0  0
M  CHG  5   8   1  18   1  19   1  29   1  30   1
M  END
>  <CHROM.1>
-163.15418996,63.14693554,-40.29632273,69.80438212,59.81094876,-160.41371153
-80.62011267,176.78423598,-144.25743085,-166.08189548,-56.50056699,171.08436400
-51.53917275,-41.99498965,-61.16409435,-79.16363378,-4.52148334,0.88414307
-10.38646058,-2.49647595,0.37097224,-0.36790406

>  <Name>
2tob cryst

>  <RI>
3.75586e+07

>  <Rbt.Current_Directory>
/home/itssahil/PROJECTS/Mol_Feturizer/New_Systems/rnas/2tob

>  <Rbt.Executable>
rbdock ($Id: //depot/dev/client3/rdock/2013.1/src/exe/rbdock.cxx#4 $)

>  <Rbt.Library>
libRbt.so (2013.1, Build901 2013/11/27)

>  <Rbt.Parameter_File>
/export/apps/rDock/src/rDock_2013.1_src/data/scripts/dock_solv.prm

>  <Rbt.Receptor>
prm/pocket_docking_8.prm

>  <SCORE>
-54.1596

>  <SCORE.INTER>
-37.4938

>  <SCORE.INTER.CONST>
1

>  <SCORE.INTER.POLAR>
-4.90465

>  <SCORE.INTER.ROT>
6

>  <SCORE.INTER.SOLV>
32.9877

>  <SCORE.INTER.VDW>
-27.2429

>  <SCORE.INTER.norm>
-1.17168

>  <SCORE.INTRA>
-16.8637

>  <SCORE.INTRA.DIHEDRAL>
-4.32357

>  <SCORE.INTRA.DIHEDRAL.0>
18.4221

>  <SCORE.INTRA.POLAR>
0.681104

>  <SCORE.INTRA.POLAR.0>
-1.57101

>  <SCORE.INTRA.REPUL>
-0.730195

>  <SCORE.INTRA.REPUL.0>
0.730195

>  <SCORE.INTRA.SOLV>
-1.78631

>  <SCORE.INTRA.SOLV.lig_0>
-127.221

>  <SCORE.INTRA.VDW>
-12.4735

>  <SCORE.INTRA.VDW.0>
10.8385

>  <SCORE.INTRA.norm>
-0.526991

>  <SCORE.RESTR>
0.197914

>  <SCORE.RESTR.CAVITY>
0.197914

>  <SCORE.RESTR.norm>
0.00618482

>  <SCORE.SYSTEM>
0

>  <SCORE.SYSTEM.CONST>
0

>  <SCORE.SYSTEM.DIHEDRAL>
0

>  <SCORE.SYSTEM.SOLV>
0

>  <SCORE.SYSTEM.norm>
0

>  <SCORE.heavy>
32

>  <SCORE.norm>
-1.69249

>  <RMSD>
10.465

$$$$
2tob cryst
 OpenBabel11021811463D
libRbt.so/2013.1/901 2013/11/27
 32 34  0  0  0  0  0  0  0  0999 V2000
   -6.6944   -0.2105   -8.0485 C   0  0  2  0  0  0  0  0  0  0  0  0
   -6.8546   -1.6574   -7.5925 C   0  0  1  0  0  0  0  0  0  0  0  0
   -7.9758   -2.3107   -8.4009 C   0  0  2  0  0  0  0  0  0  0  0  0
   -9.2732   -1.4987   -8.2913 C   0  0  1  0  0  0  0  0  0  0  0  0
   -9.0038   -0.0311   -8.6414 C   0  0  1  0  0  0  0  0  0  0  0  0
  -10.1912    0.8927   -8.4250 C   0  0  0  0  0  0  0  0  0  0  0  0
   -5.6364   -2.3692   -7.7925 O   0  0  0  0  0  0  0  0  0  0  0  0
   -8.3085   -3.7380   -8.0944 N   0  3  0  0  0  0  0  0  0  0  0  0
  -10.2353   -2.0413   -9.1870 O   0  0  0  0  0  0  0  0  0  0  0  0
   -7.9160    0.4729   -7.8408 O   0  0  0  0  0  0  0  0  0  0  0  0
   -9.8026    2.2565   -8.5550 O   0  0  0  0  0  0  0  0  0  0  0  0
   -4.3761   -0.5636  -10.7603 C   0  0  2  0  0  0  0  0  0  0  0  0
   -3.1623    0.0577  -11.4645 C   0  0  0  0  0  0  0  0  0  0  0  0
   -3.4781    1.4283  -12.0569 C   0  0  1  0  0  0  0  0  0  0  0  0
   -3.9814    2.3313  -10.9392 C   0  0  2  0  0  0  0  0  0  0  0  0
   -5.2934    1.7717  -10.3834 C   0  0  1  0  0  0  0  0  0  0  0  0
   -5.0676    0.3810   -9.7646 C   0  0  1  0  0  0  0  0  0  0  0  0
   -3.9839   -1.8241  -10.0443 N   0  3  0  0  0  0  0  0  0  0  0  0
   -2.2740    2.0130  -12.7326 N   0  3  0  0  0  0  0  0  0  0  0  0
   -5.8116    2.6670   -9.4077 O   0  0  0  0  0  0  0  0  0  0  0  0
   -4.1847    3.6705  -11.4258 O   0  0  0  0  0  0  0  0  0  0  0  0
   -6.3362   -0.2041   -9.4040 O   0  0  0  0  0  0  0  0  0  0  0  0
   -3.7935    4.6600  -10.5145 C   0  0  2  0  0  0  0  0  0  0  0  0
   -3.5684    5.9860  -11.2488 C   0  0  1  0  0  0  0  0  0  0  0  0
   -2.2647    5.9567  -12.0470 C   0  0  0  0  0  0  0  0  0  0  0  0
   -1.1285    5.5505  -11.1224 C   0  0  1  0  0  0  0  0  0  0  0  0
   -1.4367    4.1907  -10.5201 C   0  0  1  0  0  0  0  0  0  0  0  0
   -0.3321    3.7261   -9.5884 C   0  0  0  0  0  0  0  0  0  0  0  0
   -4.7131    6.2406  -12.1807 N   0  3  0  0  0  0  0  0  0  0  0  0
   -0.8807    3.7101   -8.1878 N   0  3  0  0  0  0  0  0  0  0  0  0
    0.0967    5.4973  -11.8393 O   0  0  0  0  0  0  0  0  0  0  0  0
   -2.6520    4.2737   -9.7566 O   0  0  0  0  0  0  0  0  0  0  0  0
  1  2  1  0  0  0  0
  1 22  1  6  0  0  0
  1 10  1  0  0  0  0
  2  3  1  0  0  0  0
  2  7  1  6  0  0  0
  3  4  1  0  0  0  0
  3  8  1  1  0  0  0
  4  5  1  0  0  0  0
  4  9  1  6  0  0  0
  5  6  1  1  0  0  0
  5 10  1  0  0  0  0
  6 11  1  0  0  0  0
 12 13  1  0  0  0  0
 12 17  1  0  0  0  0
 12 18  1  1  0  0  0
 13 14  1  0  0  0  0
 14 15  1  0  0  0  0
 14 19  1  1  0  0  0
 15 16  1  0  0  0  0
 15 21  1  6  0  0  0
 16 17  1  0  0  0  0
 16 20  1  1  0  0  0
 17 22  1  6  0  0  0
 23 21  1  6  0  0  0
 23 24  1  0  0  0  0
 23 32  1  0  0  0  0
 24 25  1  0  0  0  0
 24 29  1  6  0  0  0
 25 26  1  0  0  0  0
 26 27  1  0  0  0  0
 26 31  1  6  0  0  0
 27 28  1  1  0  0  0
 27 32  1  0  0  0  0
 28 30  1  0  0  0  0
M  CHG  5   8   1  18   1  19   1  29   1  30   1
M  END
>  <CHROM.1>
-118.68763817,171.91019951,62.88154648,179.92425264,170.26267309,-52.83799305
33.11884919,72.85172443,-140.68186928,68.69747413,134.98152181,160.06272731
-74.14758363,-56.93285565,112.51881157,99.34044472,-5.02693990,1.58980114
-9.87271106,-2.36003009,0.20424492,-0.21743221

>  <Name>
2tob cryst

>  <RI>
3.75586e+07

>  <Rbt.Current_Directory>
/home/itssahil/PROJECTS/Mol_Feturizer/New_Systems/rnas/2tob

>  <Rbt.Executable>
rbdock ($Id: //depot/dev/client3/rdock/2013.1/src/exe/rbdock.cxx#4 $)

>  <Rbt.Library>
libRbt.so (2013.1, Build901 2013/11/27)

>  <Rbt.Parameter_File>
/export/apps/rDock/src/rDock_2013.1_src/data/scripts/dock_solv.prm

>  <Rbt.Receptor>
prm/pocket_docking_8.prm

>  <SCORE>
-57.5236

>  <SCORE.INTER>
-44.2269

>  <SCORE.INTER.CONST>
1

>  <SCORE.INTER.POLAR>
-5.48158

>  <SCORE.INTER.ROT>
6

>  <SCORE.INTER.SOLV>
40.4534

>  <SCORE.INTER.VDW>
-32.2971

>  <SCORE.INTER.norm>
-1.38209

>  <SCORE.INTRA>
-13.2967

>  <SCORE.INTRA.DIHEDRAL>
13.5529

>  <SCORE.INTRA.DIHEDRAL.0>
18.4221

>  <SCORE.INTRA.POLAR>
0.0412703

>  <SCORE.INTRA.POLAR.0>
-1.57101

>  <SCORE.INTRA.REPUL>
-0.730195

>  <SCORE.INTRA.REPUL.0>
0.730195

>  <SCORE.INTRA.SOLV>
-4.71207

>  <SCORE.INTRA.SOLV.lig_0>
-127.221

>  <SCORE.INTRA.VDW>
-14.2065

>  <SCORE.INTRA.VDW.0>
10.8385

>  <SCORE.INTRA.norm>
-0.415523

>  <SCORE.RESTR>
0

>  <SCORE.RESTR.CAVITY>
0

>  <SCORE.RESTR.norm>
0

>  <SCORE.SYSTEM>
0

>  <SCORE.SYSTEM.CONST>
0

>  <SCORE.SYSTEM.DIHEDRAL>
0

>  <SCORE.SYSTEM.SOLV>
0

>  <SCORE.SYSTEM.norm>
0

>  <SCORE.heavy>
32

>  <SCORE.norm>
-1.79761

>  <RMSD>
10.551

$$$$
2tob cryst
 OpenBabel11021811463D
libRbt.so/2013.1/901 2013/11/27
 32 34  0  0  0  0  0  0  0  0999 V2000
   -6.9586   -0.2515   -9.8925 C   0  0  2  0  0  0  0  0  0  0  0  0
   -8.2567    0.5337  -10.0524 C   0  0  1  0  0  0  0  0  0  0  0  0
   -8.8524    0.7938   -8.6685 C   0  0  2  0  0  0  0  0  0  0  0  0
   -9.0356   -0.5198   -7.8968 C   0  0  1  0  0  0  0  0  0  0  0  0
   -7.7228   -1.3105   -7.8896 C   0  0  1  0  0  0  0  0  0  0  0  0
   -7.8299   -2.6968   -7.2757 C   0  0  0  0  0  0  0  0  0  0  0  0
   -7.9994    1.7723  -10.7085 O   0  0  0  0  0  0  0  0  0  0  0  0
  -10.1480    1.5415   -8.6025 N   0  3  0  0  0  0  0  0  0  0  0  0
   -9.4284   -0.2214   -6.5630 O   0  0  0  0  0  0  0  0  0  0  0  0
   -7.2408   -1.4742   -9.2383 O   0  0  0  0  0  0  0  0  0  0  0  0
   -8.6904   -2.6838   -6.1413 O   0  0  0  0  0  0  0  0  0  0  0  0
   -4.3653   -0.5888  -10.4627 C   0  0  2  0  0  0  0  0  0  0  0  0
   -3.1000   -0.4515  -11.3201 C   0  0  0  0  0  0  0  0  0  0  0  0
   -3.1179    0.8115  -12.1768 C   0  0  1  0  0  0  0  0  0  0  0  0
   -3.2873    2.0137  -11.2582 C   0  0  2  0  0  0  0  0  0  0  0  0
   -4.6448    1.9312  -10.5556 C   0  0  1  0  0  0  0  0  0  0  0  0
   -4.7166    0.6776   -9.6660 C   0  0  1  0  0  0  0  0  0  0  0  0
   -4.2360   -1.7431   -9.5108 N   0  3  0  0  0  0  0  0  0  0  0  0
   -1.8686    0.9222  -12.9985 N   0  3  0  0  0  0  0  0  0  0  0  0
   -4.8425    3.1023   -9.7736 O   0  0  0  0  0  0  0  0  0  0  0  0
   -3.1954    3.2385  -12.0086 O   0  0  0  0  0  0  0  0  0  0  0  0
   -6.0549    0.5217   -9.1500 O   0  0  0  0  0  0  0  0  0  0  0  0
   -2.9324    4.3612  -11.2129 C   0  0  2  0  0  0  0  0  0  0  0  0
   -2.6815    5.5837  -12.1020 C   0  0  1  0  0  0  0  0  0  0  0  0
   -1.3043    5.5091  -12.7618 C   0  0  0  0  0  0  0  0  0  0  0  0
   -0.2528    5.2889  -11.6863 C   0  0  1  0  0  0  0  0  0  0  0  0
   -0.5718    4.0108  -10.9303 C   0  0  1  0  0  0  0  0  0  0  0  0
    0.4497    3.7323   -9.8425 C   0  0  0  0  0  0  0  0  0  0  0  0
   -3.7354    5.6525  -13.1642 N   0  3  0  0  0  0  0  0  0  0  0  0
    0.2048    2.3436   -9.3188 N   0  3  0  0  0  0  0  0  0  0  0  0
    1.0392    5.1980  -12.2699 O   0  0  0  0  0  0  0  0  0  0  0  0
   -1.8596    4.1381  -10.3040 O   0  0  0  0  0  0  0  0  0  0  0  0
  1  2  1  0  0  0  0
  1 22  1  1  0  0  0
  1 10  1  0  0  0  0
  2  3  1  0  0  0  0
  2  7  1  1  0  0  0
  3  4  1  0  0  0  0
  3  8  1  6  0  0  0
  4  5  1  0  0  0  0
  4  9  1  1  0  0  0
  5  6  1  6  0  0  0
  5 10  1  0  0  0  0
  6 11  1  0  0  0  0
 12 13  1  0  0  0  0
 12 17  1  0  0  0  0
 12 18  1  1  0  0  0
 13 14  1  0  0  0  0
 14 15  1  0  0  0  0
 14 19  1  1  0  0  0
 15 16  1  0  0  0  0
 15 21  1  6  0  0  0
 16 17  1  0  0  0  0
 16 20  1  1  0  0  0
 17 22  1  6  0  0  0
 23 21  1  6  0  0  0
 23 24  1  0  0  0  0
 23 32  1  0  0  0  0
 24 25  1  0  0  0  0
 24 29  1  6  0  0  0
 25 26  1  0  0  0  0
 26 27  1  0  0  0  0
 26 31  1  6  0  0  0
 27 28  1  1  0  0  0
 27 32  1  0  0  0  0
 28 30  1  0  0  0  0
M  CHG  5   8   1  18   1  19   1  29   1  30   1
M  END
>  <CHROM.1>
-130.73552571,-55.54606431,-55.82742647,69.68734555,-38.60372529,-48.54475958
-98.67298333,-57.89088942,-161.56704713,79.16678347,-30.28116083,173.11056637
59.07522367,179.68864764,-169.94156121,-52.24961871,-4.61859476,1.61565221
-10.14593537,-2.45729151,0.17551843,-0.41295166

>  <Name>
2tob cryst

>  <RI>
3.75586e+07

>  <Rbt.Current_Directory>
/home/itssahil/PROJECTS/Mol_Feturizer/New_Systems/rnas/2tob

>  <Rbt.Executable>
rbdock ($Id: //depot/dev/client3/rdock/2013.1/src/exe/rbdock.cxx#4 $)

>  <Rbt.Library>
libRbt.so (2013.1, Build901 2013/11/27)

>  <Rbt.Parameter_File>
/export/apps/rDock/src/rDock_2013.1_src/data/scripts/dock_solv.prm

>  <Rbt.Receptor>
prm/pocket_docking_8.prm

>  <SCORE>
-28.5113

>  <SCORE.INTER>
-16.9067

>  <SCORE.INTER.CONST>
1

>  <SCORE.INTER.POLAR>
-3.4169

>  <SCORE.INTER.ROT>
6

>  <SCORE.INTER.SOLV>
34.3991

>  <SCORE.INTER.VDW>
-18.9478

>  <SCORE.INTER.norm>
-0.528335

>  <SCORE.INTRA>
-12.2378

>  <SCORE.INTRA.DIHEDRAL>
1.18418

>  <SCORE.INTRA.DIHEDRAL.0>
18.4221

>  <SCORE.INTRA.POLAR>
1.536

>  <SCORE.INTRA.POLAR.0>
-1.57101

>  <SCORE.INTRA.REPUL>
-0.730195

>  <SCORE.INTRA.REPUL.0>
0.730195

>  <SCORE.INTRA.SOLV>
-6.6575

>  <SCORE.INTRA.SOLV.lig_0>
-127.221

>  <SCORE.INTRA.VDW>
-11.0725

>  <SCORE.INTRA.VDW.0>
10.8385

>  <SCORE.INTRA.norm>
-0.38243

>  <SCORE.RESTR>
0.633161

>  <SCORE.RESTR.CAVITY>
0.633161

>  <SCORE.RESTR.norm>
0.0197863

>  <SCORE.SYSTEM>
0

>  <SCORE.SYSTEM.CONST>
0

>  <SCORE.SYSTEM.DIHEDRAL>
0

>  <SCORE.SYSTEM.SOLV>
0

>  <SCORE.SYSTEM.norm>
0

>  <SCORE.heavy>
32

>  <SCORE.norm>
-0.890979

>  <RMSD>
10.632

$$$$
2tob cryst
 OpenBabel11021811463D
libRbt.so/2013.1/901 2013/11/27
 32 34  0  0  0  0  0  0  0  0999 V2000
   -5.8100   -0.4939   -8.7126 C   0  0  2  0  0  0  0  0  0  0  0  0
   -6.0102   -1.9772   -8.4182 C   0  0  1  0  0  0  0  0  0  0  0  0
   -7.4599   -2.3526   -8.7266 C   0  0  2  0  0  0  0  0  0  0  0  0
   -8.4336   -1.4503   -7.9571 C   0  0  1  0  0  0  0  0  0  0  0  0
   -8.0882    0.0226   -8.2026 C   0  0  1  0  0  0  0  0  0  0  0  0
   -8.9000    1.0033   -7.3724 C   0  0  0  0  0  0  0  0  0  0  0  0
   -5.1277   -2.7569   -9.2208 O   0  0  0  0  0  0  0  0  0  0  0  0
   -7.8731   -3.7717   -8.4870 N   0  3  0  0  0  0  0  0  0  0  0  0
   -9.7586   -1.7169   -8.3991 O   0  0  0  0  0  0  0  0  0  0  0  0
   -6.6972    0.2568   -7.9053 O   0  0  0  0  0  0  0  0  0  0  0  0
   -8.5069    0.9563   -6.0045 O   0  0  0  0  0  0  0  0  0  0  0  0
   -5.4791    2.0508   -9.7656 C   0  0  2  0  0  0  0  0  0  0  0  0
   -4.5608    3.2161  -10.1578 C   0  0  0  0  0  0  0  0  0  0  0  0
   -3.1256    2.7609  -10.4075 C   0  0  1  0  0  0  0  0  0  0  0  0
   -3.1417    1.6908  -11.4904 C   0  0  2  0  0  0  0  0  0  0  0  0
   -3.9169    0.4698  -10.9891 C   0  0  1  0  0  0  0  0  0  0  0  0
   -5.3837    0.8402  -10.7075 C   0  0  1  0  0  0  0  0  0  0  0  0
   -6.9092    2.5043   -9.6982 N   0  3  0  0  0  0  0  0  0  0  0  0
   -2.2535    3.9177  -10.7940 N   0  3  0  0  0  0  0  0  0  0  0  0
   -3.8481   -0.5643  -11.9628 O   0  0  0  0  0  0  0  0  0  0  0  0
   -1.7992    1.3104  -11.8433 O   0  0  0  0  0  0  0  0  0  0  0  0
   -6.0543   -0.2697  -10.0748 O   0  0  0  0  0  0  0  0  0  0  0  0
   -1.6069    1.1601  -13.2229 C   0  0  2  0  0  0  0  0  0  0  0  0
   -0.1090    1.1742  -13.5454 C   0  0  1  0  0  0  0  0  0  0  0  0
    0.4616    2.5888  -13.4413 C   0  0  0  0  0  0  0  0  0  0  0  0
   -0.3744    3.5230  -14.3011 C   0  0  1  0  0  0  0  0  0  0  0  0
   -1.8182    3.4751  -13.8323 C   0  0  1  0  0  0  0  0  0  0  0  0
   -2.7052    4.3949  -14.6516 C   0  0  0  0  0  0  0  0  0  0  0  0
    0.6155    0.2773  -12.5892 N   0  3  0  0  0  0  0  0  0  0  0  0
   -2.3707    5.8143  -14.2823 N   0  3  0  0  0  0  0  0  0  0  0  0
    0.1208    4.8515  -14.2125 O   0  0  0  0  0  0  0  0  0  0  0  0
   -2.3201    2.1355  -13.9757 O   0  0  0  0  0  0  0  0  0  0  0  0
  1  2  1  0  0  0  0
  1 22  1  6  0  0  0
  1 10  1  0  0  0  0
  2  3  1  0  0  0  0
  2  7  1  6  0  0  0
  3  4  1  0  0  0  0
  3  8  1  1  0  0  0
  4  5  1  0  0  0  0
  4  9  1  6  0  0  0
  5  6  1  1  0  0  0
  5 10  1  0  0  0  0
  6 11  1  0  0  0  0
 12 13  1  0  0  0  0
 12 17  1  0  0  0  0
 12 18  1  6  0  0  0
 13 14  1  0  0  0  0
 14 15  1  0  0  0  0
 14 19  1  6  0  0  0
 15 16  1  0  0  0  0
 15 21  1  1  0  0  0
 16 17  1  0  0  0  0
 16 20  1  6  0  0  0
 17 22  1  1  0  0  0
 23 21  1  1  0  0  0
 23 24  1  0  0  0  0
 23 32  1  0  0  0  0
 24 25  1  0  0  0  0
 24 29  1  1  0  0  0
 25 26  1  0  0  0  0
 26 27  1  0  0  0  0
 26 31  1  1  0  0  0
 27 28  1  6  0  0  0
 27 32  1  0  0  0  0
 28 30  1  0  0  0  0
M  CHG  5   8   1  18   1  19   1  29   1  30   1
M  END
>  <CHROM.1>
-152.67423535,81.13272189,-167.83234860,-60.75526981,71.50241207,-55.02676014
-84.23092499,-168.19919490,-137.63765614,60.87403942,-44.16158668,163.13490521
-62.77176277,66.65461567,-71.53826706,-78.21738418,-4.35891371,1.09063596
-10.78218573,-2.59459741,0.60426832,-0.15851936

>  <Name>
2tob cryst

>  <RI>
2.10184e+07

>  <Rbt.Current_Directory>
/home/itssahil/PROJECTS/Mol_Feturizer/New_Systems/rnas/2tob

>  <Rbt.Executable>
rbdock ($Id: //depot/dev/client3/rdock/2013.1/src/exe/rbdock.cxx#4 $)

>  <Rbt.Library>
libRbt.so (2013.1, Build901 2013/11/27)

>  <Rbt.Parameter_File>
/export/apps/rDock/src/rDock_2013.1_src/data/scripts/dock_solv.prm

>  <Rbt.Receptor>
prm/pocket_docking_7.prm

>  <SCORE>
-70.8722

>  <SCORE.INTER>
-56.9316

>  <SCORE.INTER.CONST>
1

>  <SCORE.INTER.POLAR>
-8.35191

>  <SCORE.INTER.ROT>
6

>  <SCORE.INTER.SOLV>
33.0962

>  <SCORE.INTER.VDW>
-28.7467

>  <SCORE.INTER.norm>
-1.77911

>  <SCORE.INTRA>
-16.3129

>  <SCORE.INTRA.DIHEDRAL>
-0.920366

>  <SCORE.INTRA.DIHEDRAL.0>
18.4221

>  <SCORE.INTRA.POLAR>
0.652053

>  <SCORE.INTRA.POLAR.0>
-1.57101

>  <SCORE.INTRA.REPUL>
-0.727324

>  <SCORE.INTRA.REPUL.0>
0.730195

>  <SCORE.INTRA.SOLV>
-1.13126

>  <SCORE.INTRA.SOLV.lig_0>
-127.221

>  <SCORE.INTRA.VDW>
-13.8675

>  <SCORE.INTRA.VDW.0>
10.8385

>  <SCORE.INTRA.norm>
-0.509778

>  <SCORE.RESTR>
2.37233

>  <SCORE.RESTR.CAVITY>
2.37233

>  <SCORE.RESTR.norm>
0.0741355

>  <SCORE.SYSTEM>
0

>  <SCORE.SYSTEM.CONST>
0

>  <SCORE.SYSTEM.DIHEDRAL>
0

>  <SCORE.SYSTEM.SOLV>
0

>  <SCORE.SYSTEM.norm>
0

>  <SCORE.heavy>
32

>  <SCORE.norm>
-2.21476

>  <RMSD>
10.701

$$$$
2tob cryst
 OpenBabel11021811463D
libRbt.so/2013.1/901 2013/11/27
 32 34  0  0  0  0  0  0  0  0999 V2000
   -5.7097   -0.5146   -8.7215 C   0  0  2  0  0  0  0  0  0  0  0  0
   -5.9466   -1.9907   -8.4178 C   0  0  1  0  0  0  0  0  0  0  0  0
   -7.3954   -2.3406   -8.7585 C   0  0  2  0  0  0  0  0  0  0  0  0
   -8.3696   -1.4115   -8.0222 C   0  0  1  0  0  0  0  0  0  0  0  0
   -7.9890    0.0517   -8.2734 C   0  0  1  0  0  0  0  0  0  0  0  0
   -8.8014    1.0566   -7.4731 C   0  0  0  0  0  0  0  0  0  0  0  0
   -5.0602   -2.7956   -9.1906 O   0  0  0  0  0  0  0  0  0  0  0  0
   -7.8425   -3.7487   -8.5154 N   0  3  0  0  0  0  0  0  0  0  0  0
   -9.6884   -1.6566   -8.4944 O   0  0  0  0  0  0  0  0  0  0  0  0
   -6.6014    0.2616   -7.9439 O   0  0  0  0  0  0  0  0  0  0  0  0
   -8.7544    0.7539   -6.0825 O   0  0  0  0  0  0  0  0  0  0  0  0
   -5.4691    2.0568   -9.8487 C   0  0  2  0  0  0  0  0  0  0  0  0
   -4.5637    3.2425  -10.2086 C   0  0  0  0  0  0  0  0  0  0  0  0
   -3.0934    2.8415  -10.2912 C   0  0  1  0  0  0  0  0  0  0  0  0
   -2.9568    1.7211  -11.3130 C   0  0  2  0  0  0  0  0  0  0  0  0
   -3.7287    0.4916  -10.8276 C   0  0  1  0  0  0  0  0  0  0  0  0
   -5.2302    0.8080  -10.7120 C   0  0  1  0  0  0  0  0  0  0  0  0
   -6.9158    2.4476   -9.9467 N   0  3  0  0  0  0  0  0  0  0  0  0
   -2.2343    4.0169  -10.6496 N   0  3  0  0  0  0  0  0  0  0  0  0
   -3.5202   -0.5838  -11.7343 O   0  0  0  0  0  0  0  0  0  0  0  0
   -1.5713    1.3856  -11.5112 O   0  0  0  0  0  0  0  0  0  0  0  0
   -5.9158   -0.2996  -10.0915 O   0  0  0  0  0  0  0  0  0  0  0  0
   -1.2302    1.1980  -12.8570 C   0  0  2  0  0  0  0  0  0  0  0  0
    0.2014    0.6622  -12.9626 C   0  0  1  0  0  0  0  0  0  0  0  0
    1.2222    1.7632  -12.6742 C   0  0  0  0  0  0  0  0  0  0  0  0
    0.9302    2.9548  -13.5719 C   0  0  1  0  0  0  0  0  0  0  0  0
   -0.4873    3.4367  -13.3168 C   0  0  1  0  0  0  0  0  0  0  0  0
   -0.8378    4.6331  -14.1827 C   0  0  0  0  0  0  0  0  0  0  0  0
    0.3893   -0.4551  -11.9828 N   0  3  0  0  0  0  0  0  0  0  0  0
   -1.0412    4.1447  -15.5909 N   0  3  0  0  0  0  0  0  0  0  0  0
    1.8530    4.0040  -13.3158 O   0  0  0  0  0  0  0  0  0  0  0  0
   -1.4115    2.3806  -13.6286 O   0  0  0  0  0  0  0  0  0  0  0  0
  1  2  1  0  0  0  0
  1 22  1  6  0  0  0
  1 10  1  0  0  0  0
  2  3  1  0  0  0  0
  2  7  1  6  0  0  0
  3  4  1  0  0  0  0
  3  8  1  1  0  0  0
  4  5  1  0  0  0  0
  4  9  1  6  0  0  0
  5  6  1  1  0  0  0
  5 10  1  0  0  0  0
  6 11  1  0  0  0  0
 12 13  1  0  0  0  0
 12 17  1  0  0  0  0
 12 18  1  6  0  0  0
 13 14  1  0  0  0  0
 14 15  1  0  0  0  0
 14 19  1  6  0  0  0
 15 16  1  0  0  0  0
 15 21  1  1  0  0  0
 16 17  1  0  0  0  0
 16 20  1  6  0  0  0
 17 22  1  1  0  0  0
 23 21  1  1  0  0  0
 23 24  1  0  0  0  0
 23 32  1  0  0  0  0
 24 25  1  0  0  0  0
 24 29  1  1  0  0  0
 25 26  1  0  0  0  0
 26 27  1  0  0  0  0
 26 31  1  1  0  0  0
 27 28  1  6  0  0  0
 27 32  1  0  0  0  0
 28 30  1  0  0  0  0
M  CHG  5   8   1  18   1  19   1  29   1  30   1
M  END
>  <CHROM.1>
-153.98158911,79.90190193,-166.62089410,-174.26524486,53.90647657,-163.87699881
149.58189833,67.30080801,-136.72974185,-61.34387352,-49.51457593,-172.35928867
80.55247634,61.38269603,73.67118218,162.21975881,-4.00895702,0.93921852,-10.65856324
-2.68439025,0.53441812,-0.13504854

>  <Name>
2tob cryst

>  <RI>
3.75586e+07

>  <Rbt.Current_Directory>
/home/itssahil/PROJECTS/Mol_Feturizer/New_Systems/rnas/2tob

>  <Rbt.Executable>
rbdock ($Id: //depot/dev/client3/rdock/2013.1/src/exe/rbdock.cxx#4 $)

>  <Rbt.Library>
libRbt.so (2013.1, Build901 2013/11/27)

>  <Rbt.Parameter_File>
/export/apps/rDock/src/rDock_2013.1_src/data/scripts/dock_solv.prm

>  <Rbt.Receptor>
prm/pocket_docking_8.prm

>  <SCORE>
-70.2867

>  <SCORE.INTER>
-55.9357

>  <SCORE.INTER.CONST>
1

>  <SCORE.INTER.POLAR>
-9.07329

>  <SCORE.INTER.ROT>
6

>  <SCORE.INTER.SOLV>
40.9115

>  <SCORE.INTER.VDW>
-28.2834

>  <SCORE.INTER.norm>
-1.74799

>  <SCORE.INTRA>
-15.9002

>  <SCORE.INTRA.DIHEDRAL>
-0.680121

>  <SCORE.INTRA.DIHEDRAL.0>
18.4221

>  <SCORE.INTRA.POLAR>
1.17816

>  <SCORE.INTRA.POLAR.0>
-1.57101

>  <SCORE.INTRA.REPUL>
-0.730195

>  <SCORE.INTRA.REPUL.0>
0.730195

>  <SCORE.INTRA.SOLV>
-3.24303

>  <SCORE.INTRA.SOLV.lig_0>
-127.221

>  <SCORE.INTRA.VDW>
-14.2934

>  <SCORE.INTRA.VDW.0>
10.8385

>  <SCORE.INTRA.norm>
-0.496882

>  <SCORE.RESTR>
1.54929

>  <SCORE.RESTR.CAVITY>
1.54929

>  <SCORE.RESTR.norm>
0.0484155

>  <SCORE.SYSTEM>
0

>  <SCORE.SYSTEM.CONST>
0

>  <SCORE.SYSTEM.DIHEDRAL>
0

>  <SCORE.SYSTEM.SOLV>
0

>  <SCORE.SYSTEM.norm>
0

>  <SCORE.heavy>
32

>  <SCORE.norm>
-2.19646

>  <RMSD>
10.823

$$$$
