2fcy_lig
 OpenBabel02221317003D

 42 45  0  0  1  0  0  0  0  0999 V2000
    0.6310   91.3170   14.3520 C   0  0  2  0  0  0  0  0  0  0  0  0
    1.1430   92.6100   14.7170 O   0  0  0  0  0  0  0  0  0  0  0  0
   -0.7930   91.2710   14.9080 C   0  0  2  0  0  0  0  0  0  0  0  0
   -1.5360   92.4310   14.3970 N   0  0  0  0  0  0  0  0  0  0  0  0
   -0.7480   91.3290   16.4370 C   0  0  1  0  0  0  0  0  0  0  0  0
   -2.0700   91.2830   16.9810 O   0  0  0  0  0  0  0  0  0  0  0  0
    0.0890   90.1630   16.9640 C   0  0  2  0  0  0  0  0  0  0  0  0
    0.2100   90.2740   18.3820 O   0  0  0  0  0  0  0  0  0  0  0  0
    1.4910   90.2500   16.3590 C   0  0  2  0  0  0  0  0  0  0  0  0
    1.3970   90.2380   14.9260 O   0  0  0  0  0  0  0  0  0  0  0  0
    2.3360   89.0810   16.8720 C   0  0  0  0  0  0  0  0  0  0  0  0
    3.7180   89.1740   16.3780 N   0  0  0  0  0  0  0  0  0  0  0  0
    3.4270   95.4890   12.6820 C   0  0  2  0  0  0  0  0  0  0  0  0
    4.4050   96.2820   11.9220 N   0  0  0  0  0  0  0  0  0  0  0  0
    4.0880   94.8240   13.8910 C   0  0  0  0  0  0  0  0  0  0  0  0
    2.9990   94.1260   14.7120 C   0  0  2  0  0  0  0  0  0  0  0  0
    3.6220   93.4060   15.8320 N   0  0  0  0  0  0  0  0  0  0  0  0
    2.2060   93.1090   13.8860 C   0  0  2  0  0  0  0  0  0  0  0  0
    1.7110   93.6290   12.5410 C   0  0  2  0  0  0  0  0  0  0  0  0
    1.3570   92.4610   11.7830 O   0  0  0  0  0  0  0  0  0  0  0  0
    2.8010   94.4100   11.7950 C   0  0  1  0  0  0  0  0  0  0  0  0
    2.2640   95.0530   10.6360 O   0  0  0  0  0  0  0  0  0  0  0  0
    0.2290   92.6060   10.9050 C   0  0  1  0  0  0  0  0  0  0  0  0
    0.2580   91.4370    9.9190 C   0  0  2  0  0  0  0  0  0  0  0  0
    1.1380   91.7440    8.8350 O   0  0  0  0  0  0  0  0  0  0  0  0
   -1.1880   91.5020    9.4360 C   0  0  1  0  0  0  0  0  0  0  0  0
   -1.9130   91.6700   10.7620 C   0  0  2  0  0  0  0  0  0  0  0  0
   -1.0410   92.4800   11.5770 O   0  0  0  0  0  0  0  0  0  0  0  0
   -2.1520   90.2880   11.3810 C   0  0  0  0  0  0  0  0  0  0  0  0
   -3.0020   90.3910   12.5270 O   0  0  0  0  0  0  0  0  0  0  0  0
   -2.2320   92.3450    7.5130 C   0  0  2  0  0  0  0  0  0  0  0  0
   -1.3770   92.6690    8.6200 O   0  0  0  0  0  0  0  0  0  0  0  0
   -2.1360   93.4460    6.4520 C   0  0  1  0  0  0  0  0  0  0  0  0
   -6.3840   92.7790    8.2020 N   0  0  0  0  0  0  0  0  0  0  0  0
   -3.1170   93.1720    5.3070 C   0  0  1  0  0  0  0  0  0  0  0  0
   -2.7090   92.0150    4.5700 O   0  0  0  0  0  0  0  0  0  0  0  0
   -4.5250   92.9600    5.8700 C   0  0  2  0  0  0  0  0  0  0  0  0
   -4.9690   94.1860    6.4610 O   0  0  0  0  0  0  0  0  0  0  0  0
   -4.4940   91.8490    6.9250 C   0  0  1  0  0  0  0  0  0  0  0  0
   -3.5840   92.2030    7.9830 O   0  0  0  0  0  0  0  0  0  0  0  0
   -5.8860   91.5840    7.5050 C   0  0  0  0  0  0  0  0  0  0  0  0
   -2.4930   94.7310    7.0720 N   0  0  0  0  0  0  0  0  0  0  0  0
  1  2  1  1  0  0  0
  1  3  1  0  0  0  0
  1 10  1  0  0  0  0
  3  4  1  1  0  0  0
  3  5  1  0  0  0  0
  5  6  1  6  0  0  0
  5  7  1  0  0  0  0
  7  8  1  1  0  0  0
  7  9  1  0  0  0  0
  9 10  1  0  0  0  0
  9 11  1  6  0  0  0
 11 12  1  0  0  0  0
 13 14  1  6  0  0  0
 13 15  1  0  0  0  0
 13 21  1  0  0  0  0
 16 15  1  0  0  0  0
 16 17  1  6  0  0  0
 18  2  1  1  0  0  0
 18 16  1  0  0  0  0
 19 18  1  0  0  0  0
 19 20  1  6  0  0  0
 21 19  1  0  0  0  0
 21 22  1  1  0  0  0
 23 20  1  1  0  0  0
 23 24  1  0  0  0  0
 23 28  1  0  0  0  0
 24 25  1  6  0  0  0
 24 26  1  0  0  0  0
 26 27  1  0  0  0  0
 26 32  1  1  0  0  0
 27 28  1  0  0  0  0
 27 29  1  1  0  0  0
 29 30  1  0  0  0  0
 31 32  1  1  0  0  0
 31 40  1  0  0  0  0
 33 31  1  0  0  0  0
 33 42  1  1  0  0  0
 35 33  1  0  0  0  0
 35 36  1  1  0  0  0
 37 35  1  0  0  0  0
 37 38  1  1  0  0  0
 37 39  1  0  0  0  0
 39 40  1  0  0  0  0
 39 41  1  1  0  0  0
 41 34  1  0  0  0  0
M  END
$$$$
