2fcy_lig
 OpenBabel11021811433D
libRbt.so/2013.1/901 2013/11/27
 42 45  0  0  0  0  0  0  0  0999 V2000
    0.4236   91.1503   14.4434 C   0  0  2  0  0  0  0  0  0  0  0  0
    0.9726   92.3858   14.9327 O   0  0  0  0  0  0  0  0  0  0  0  0
   -0.9911   91.0766   15.0197 C   0  0  2  0  0  0  0  0  0  0  0  0
   -1.7151   92.3002   14.6492 N   0  0  0  0  0  0  0  0  0  0  0  0
   -0.9178   90.9709   16.5451 C   0  0  1  0  0  0  0  0  0  0  0  0
   -2.2308   90.8962   17.1075 O   0  0  0  0  0  0  0  0  0  0  0  0
   -0.0997   89.7376   16.9290 C   0  0  2  0  0  0  0  0  0  0  0  0
    0.0488   89.6948   18.3481 O   0  0  0  0  0  0  0  0  0  0  0  0
    1.2932   89.8578   16.3087 C   0  0  2  0  0  0  0  0  0  0  0  0
    1.1737   90.0000   14.8846 O   0  0  0  0  0  0  0  0  0  0  0  0
    2.1190   88.6228   16.6782 C   0  0  0  0  0  0  0  0  0  0  0  0
    3.5512   88.8570   16.4402 N   0  0  0  0  0  0  0  0  0  0  0  0
    3.2846   95.3519   13.0610 C   0  0  2  0  0  0  0  0  0  0  0  0
    4.2795   96.1803   12.3632 N   0  0  0  0  0  0  0  0  0  0  0  0
    3.9017   94.6800   14.2892 C   0  0  0  0  0  0  0  0  0  0  0  0
    2.7908   93.9429   15.0441 C   0  0  2  0  0  0  0  0  0  0  0  0
    3.3756   93.2167   16.1807 N   0  0  0  0  0  0  0  0  0  0  0  0
    2.0626   92.9236   14.1632 C   0  0  2  0  0  0  0  0  0  0  0  0
    1.6212   93.4567   12.8047 C   0  0  2  0  0  0  0  0  0  0  0  0
    1.3315   92.2951   12.0105 O   0  0  0  0  0  0  0  0  0  0  0  0
    2.7275   94.2754   12.1262 C   0  0  1  0  0  0  0  0  0  0  0  0
    2.2323   94.9272   10.9536 O   0  0  0  0  0  0  0  0  0  0  0  0
    0.3655   92.4810   10.9634 C   0  0  1  0  0  0  0  0  0  0  0  0
    0.1061   91.1148   10.3264 C   0  0  2  0  0  0  0  0  0  0  0  0
    1.1114   90.8422    9.3472 O   0  0  0  0  0  0  0  0  0  0  0  0
   -1.2140   91.4286    9.6284 C   0  0  1  0  0  0  0  0  0  0  0  0
   -1.9443   92.1648   10.7404 C   0  0  2  0  0  0  0  0  0  0  0  0
   -0.9263   92.9065   11.4435 O   0  0  0  0  0  0  0  0  0  0  0  0
   -2.6353   91.1416   11.6492 C   0  0  0  0  0  0  0  0  0  0  0  0
   -3.6645   90.4503   10.9356 O   0  0  0  0  0  0  0  0  0  0  0  0
   -2.0471   92.1793    7.5691 C   0  0  2  0  0  0  0  0  0  0  0  0
   -0.9812   92.3141    8.5215 O   0  0  0  0  0  0  0  0  0  0  0  0
   -1.6435   92.8468    6.2504 C   0  0  1  0  0  0  0  0  0  0  0  0
   -5.9369   92.4057    9.0839 N   0  0  0  0  0  0  0  0  0  0  0  0
   -2.8054   92.8042    5.2522 C   0  0  1  0  0  0  0  0  0  0  0  0
   -3.0545   91.4572    4.8375 O   0  0  0  0  0  0  0  0  0  0  0  0
   -4.0644   93.3910    5.8964 C   0  0  2  0  0  0  0  0  0  0  0  0
   -3.8393   94.7813    6.1532 O   0  0  0  0  0  0  0  0  0  0  0  0
   -4.3604   92.6556    7.2078 C   0  0  1  0  0  0  0  0  0  0  0  0
   -3.2399   92.7801    8.1032 O   0  0  0  0  0  0  0  0  0  0  0  0
   -5.6255   93.1933    7.8820 C   0  0  0  0  0  0  0  0  0  0  0  0
   -1.3112   94.2545    6.5166 N   0  0  0  0  0  0  0  0  0  0  0  0
  1  2  1  1  0  0  0
  1  3  1  0  0  0  0
  1 10  1  0  0  0  0
  3  4  1  1  0  0  0
  3  5  1  0  0  0  0
  5  6  1  1  0  0  0
  5  7  1  0  0  0  0
  7  8  1  1  0  0  0
  7  9  1  0  0  0  0
  9 10  1  0  0  0  0
  9 11  1  6  0  0  0
 11 12  1  0  0  0  0
 13 14  1  6  0  0  0
 13 15  1  0  0  0  0
 13 21  1  0  0  0  0
 16 15  1  0  0  0  0
 16 17  1  1  0  0  0
 18  2  1  1  0  0  0
 18 16  1  0  0  0  0
 19 18  1  0  0  0  0
 19 20  1  6  0  0  0
 21 19  1  0  0  0  0
 21 22  1  6  0  0  0
 23 20  1  1  0  0  0
 23 24  1  0  0  0  0
 23 28  1  0  0  0  0
 24 25  1  6  0  0  0
 24 26  1  0  0  0  0
 26 27  1  0  0  0  0
 26 32  1  6  0  0  0
 27 28  1  0  0  0  0
 27 29  1  1  0  0  0
 29 30  1  0  0  0  0
 31 32  1  1  0  0  0
 31 40  1  0  0  0  0
 33 31  1  0  0  0  0
 33 42  1  1  0  0  0
 35 33  1  0  0  0  0
 35 36  1  1  0  0  0
 37 35  1  0  0  0  0
 37 38  1  1  0  0  0
 37 39  1  0  0  0  0
 39 40  1  0  0  0  0
 39 41  1  1  0  0  0
 41 34  1  0  0  0  0
M  END
>  <CHROM.1>
-157.80352330,-163.91434412,-162.16082899,152.93637912,-174.95453252,156.50396366
-65.42458226,-166.22804177,175.92644255,-0.41565634,92.23389460,11.73987990
1.01160829,0.49963548,2.02346546

>  <Name>
2fcy_lig

>  <RI>
0

>  <Rbt.Current_Directory>
/home/itssahil/PROJECTS/Mol_Feturizer/New_Systems/rnas/2fcy

>  <Rbt.Executable>
rbdock ($Id: //depot/dev/client3/rdock/2013.1/src/exe/rbdock.cxx#4 $)

>  <Rbt.Library>
libRbt.so (2013.1, Build901 2013/11/27)

>  <Rbt.Parameter_File>
/export/apps/rDock/src/rDock_2013.1_src/data/scripts/dock_solv.prm

>  <Rbt.Receptor>
prm/pocket_docking_2.prm

>  <SCORE>
-20.4291

>  <SCORE.INTER>
-16.7042

>  <SCORE.INTER.CONST>
1

>  <SCORE.INTER.POLAR>
-1.71633

>  <SCORE.INTER.ROT>
9

>  <SCORE.INTER.SOLV>
18.1003

>  <SCORE.INTER.VDW>
-21.0485

>  <SCORE.INTER.norm>
-0.39772

>  <SCORE.INTRA>
-3.80453

>  <SCORE.INTRA.DIHEDRAL>
-5.83144

>  <SCORE.INTRA.DIHEDRAL.0>
17.3446

>  <SCORE.INTRA.POLAR>
0

>  <SCORE.INTRA.POLAR.0>
0

>  <SCORE.INTRA.REPUL>
0

>  <SCORE.INTRA.REPUL.0>
0

>  <SCORE.INTRA.SOLV>
-2.47972

>  <SCORE.INTRA.SOLV.lig_0>
-112.452

>  <SCORE.INTRA.VDW>
0.351047

>  <SCORE.INTRA.VDW.0>
-5.95059

>  <SCORE.INTRA.norm>
-0.0905841

>  <SCORE.RESTR>
0.0796386

>  <SCORE.RESTR.CAVITY>
0.0796386

>  <SCORE.RESTR.norm>
0.00189616

>  <SCORE.SYSTEM>
0

>  <SCORE.SYSTEM.CONST>
0

>  <SCORE.SYSTEM.DIHEDRAL>
0

>  <SCORE.SYSTEM.SOLV>
0

>  <SCORE.SYSTEM.norm>
0

>  <SCORE.heavy>
42

>  <SCORE.norm>
-0.486408

>  <RMSD>
0.699

$$$$
2fcy_lig
 OpenBabel11021811433D
libRbt.so/2013.1/901 2013/11/27
 42 45  0  0  0  0  0  0  0  0999 V2000
    0.2874   90.9661   14.4412 C   0  0  2  0  0  0  0  0  0  0  0  0
    0.7883   92.2460   14.8634 O   0  0  0  0  0  0  0  0  0  0  0  0
   -1.1231   90.8682   15.0241 C   0  0  2  0  0  0  0  0  0  0  0  0
   -1.8942   92.0416   14.5914 N   0  0  0  0  0  0  0  0  0  0  0  0
   -1.0452   90.8461   16.5527 C   0  0  1  0  0  0  0  0  0  0  0  0
   -2.3541   90.7504   17.1215 O   0  0  0  0  0  0  0  0  0  0  0  0
   -0.1797   89.6673   16.9991 C   0  0  2  0  0  0  0  0  0  0  0  0
   -0.0291   89.7052   18.4181 O   0  0  0  0  0  0  0  0  0  0  0  0
    1.2072   89.8084   16.3699 C   0  0  2  0  0  0  0  0  0  0  0  0
    1.0817   89.8706   14.9406 O   0  0  0  0  0  0  0  0  0  0  0  0
    2.0804   88.6275   16.8019 C   0  0  0  0  0  0  0  0  0  0  0  0
    3.5022   88.9032   16.5466 N   0  0  0  0  0  0  0  0  0  0  0  0
    3.1687   95.1684   13.0088 C   0  0  2  0  0  0  0  0  0  0  0  0
    4.1815   95.9771   12.3136 N   0  0  0  0  0  0  0  0  0  0  0  0
    3.7747   94.4668   14.2259 C   0  0  0  0  0  0  0  0  0  0  0  0
    2.6488   93.7520   14.9799 C   0  0  2  0  0  0  0  0  0  0  0  0
    3.2204   92.9980   16.1049 N   0  0  0  0  0  0  0  0  0  0  0  0
    1.8878   92.7623   14.0928 C   0  0  2  0  0  0  0  0  0  0  0  0
    1.4529   93.3219   12.7429 C   0  0  2  0  0  0  0  0  0  0  0  0
    1.1271   92.1772   11.9382 O   0  0  0  0  0  0  0  0  0  0  0  0
    2.5769   94.1176   12.0661 C   0  0  1  0  0  0  0  0  0  0  0  0
    2.0926   94.7952   10.9037 O   0  0  0  0  0  0  0  0  0  0  0  0
    0.2689   92.4296   10.8139 C   0  0  1  0  0  0  0  0  0  0  0  0
    0.0760   91.1050   10.0736 C   0  0  2  0  0  0  0  0  0  0  0  0
    1.1735   90.8872    9.1838 O   0  0  0  0  0  0  0  0  0  0  0  0
   -1.1692   91.4657    9.2687 C   0  0  1  0  0  0  0  0  0  0  0  0
   -2.0070   92.1372   10.3454 C   0  0  2  0  0  0  0  0  0  0  0  0
   -1.0647   92.8311   11.1888 O   0  0  0  0  0  0  0  0  0  0  0  0
   -2.7827   91.0644   11.1185 C   0  0  0  0  0  0  0  0  0  0  0  0
   -1.8879   90.2472   11.8786 O   0  0  0  0  0  0  0  0  0  0  0  0
   -1.8116   92.3617    7.1992 C   0  0  2  0  0  0  0  0  0  0  0  0
   -0.8297   92.4148    8.2453 O   0  0  0  0  0  0  0  0  0  0  0  0
   -1.4593   93.3833    6.1133 C   0  0  1  0  0  0  0  0  0  0  0  0
   -5.7407   91.6540    8.4067 N   0  0  0  0  0  0  0  0  0  0  0  0
   -2.5487   93.4156    5.0360 C   0  0  1  0  0  0  0  0  0  0  0  0
   -2.5533   92.1895    4.2978 O   0  0  0  0  0  0  0  0  0  0  0  0
   -3.9165   93.6351    5.6881 C   0  0  2  0  0  0  0  0  0  0  0  0
   -3.9349   94.9378    6.2814 O   0  0  0  0  0  0  0  0  0  0  0  0
   -4.1513   92.5659    6.7604 C   0  0  1  0  0  0  0  0  0  0  0  0
   -3.1112   92.6311    7.7537 O   0  0  0  0  0  0  0  0  0  0  0  0
   -5.5187   92.7300    7.4296 C   0  0  0  0  0  0  0  0  0  0  0  0
   -1.3754   94.7163    6.7291 N   0  0  0  0  0  0  0  0  0  0  0  0
  1  2  1  1  0  0  0
  1  3  1  0  0  0  0
  1 10  1  0  0  0  0
  3  4  1  1  0  0  0
  3  5  1  0  0  0  0
  5  6  1  1  0  0  0
  5  7  1  0  0  0  0
  7  8  1  1  0  0  0
  7  9  1  0  0  0  0
  9 10  1  0  0  0  0
  9 11  1  6  0  0  0
 11 12  1  0  0  0  0
 13 14  1  6  0  0  0
 13 15  1  0  0  0  0
 13 21  1  0  0  0  0
 16 15  1  0  0  0  0
 16 17  1  1  0  0  0
 18  2  1  1  0  0  0
 18 16  1  0  0  0  0
 19 18  1  0  0  0  0
 19 20  1  6  0  0  0
 21 19  1  0  0  0  0
 21 22  1  6  0  0  0
 23 20  1  1  0  0  0
 23 24  1  0  0  0  0
 23 28  1  0  0  0  0
 24 25  1  6  0  0  0
 24 26  1  0  0  0  0
 26 27  1  0  0  0  0
 26 32  1  6  0  0  0
 27 28  1  0  0  0  0
 27 29  1  1  0  0  0
 29 30  1  0  0  0  0
 31 32  1  1  0  0  0
 31 40  1  0  0  0  0
 33 31  1  0  0  0  0
 33 42  1  1  0  0  0
 35 33  1  0  0  0  0
 35 36  1  1  0  0  0
 37 35  1  0  0  0  0
 37 38  1  1  0  0  0
 37 39  1  0  0  0  0
 39 40  1  0  0  0  0
 39 41  1  1  0  0  0
 41 34  1  0  0  0  0
M  END
>  <CHROM.1>
-159.91939571,-163.99558393,-156.36597436,159.19199779,178.49410575,157.70884288
67.71899146,179.42970808,177.32988234,-0.39597464,92.19252948,11.63114301
1.07970466,0.50514576,2.02248524

>  <Name>
2fcy_lig

>  <RI>
0

>  <Rbt.Current_Directory>
/home/itssahil/PROJECTS/Mol_Feturizer/New_Systems/rnas/2fcy

>  <Rbt.Executable>
rbdock ($Id: //depot/dev/client3/rdock/2013.1/src/exe/rbdock.cxx#4 $)

>  <Rbt.Library>
libRbt.so (2013.1, Build901 2013/11/27)

>  <Rbt.Parameter_File>
/export/apps/rDock/src/rDock_2013.1_src/data/scripts/dock_solv.prm

>  <Rbt.Receptor>
prm/pocket_docking_2.prm

>  <SCORE>
-21.1691

>  <SCORE.INTER>
-17.6316

>  <SCORE.INTER.CONST>
1

>  <SCORE.INTER.POLAR>
-1.73814

>  <SCORE.INTER.ROT>
9

>  <SCORE.INTER.SOLV>
18.2004

>  <SCORE.INTER.VDW>
-21.6274

>  <SCORE.INTER.norm>
-0.4198

>  <SCORE.INTRA>
-3.57981

>  <SCORE.INTRA.DIHEDRAL>
-7.53617

>  <SCORE.INTRA.DIHEDRAL.0>
17.3446

>  <SCORE.INTRA.POLAR>
0

>  <SCORE.INTRA.POLAR.0>
0

>  <SCORE.INTRA.REPUL>
0

>  <SCORE.INTRA.REPUL.0>
0

>  <SCORE.INTRA.SOLV>
-1.32397

>  <SCORE.INTRA.SOLV.lig_0>
-112.452

>  <SCORE.INTRA.VDW>
0.850255

>  <SCORE.INTRA.VDW.0>
-5.95059

>  <SCORE.INTRA.norm>
-0.0852336

>  <SCORE.RESTR>
0.0423307

>  <SCORE.RESTR.CAVITY>
0.0423307

>  <SCORE.RESTR.norm>
0.00100787

>  <SCORE.SYSTEM>
0

>  <SCORE.SYSTEM.CONST>
0

>  <SCORE.SYSTEM.DIHEDRAL>
0

>  <SCORE.SYSTEM.SOLV>
0

>  <SCORE.SYSTEM.norm>
0

>  <SCORE.heavy>
42

>  <SCORE.norm>
-0.504026

>  <RMSD>
0.703

$$$$
2fcy_lig
 OpenBabel11021811433D
libRbt.so/2013.1/901 2013/11/27
 42 45  0  0  0  0  0  0  0  0999 V2000
    0.1758   91.1362   14.3597 C   0  0  2  0  0  0  0  0  0  0  0  0
    0.6753   92.4076   14.8083 O   0  0  0  0  0  0  0  0  0  0  0  0
   -1.2353   91.0254   14.9391 C   0  0  2  0  0  0  0  0  0  0  0  0
   -2.0068   92.2068   14.5295 N   0  0  0  0  0  0  0  0  0  0  0  0
   -1.1589   90.9724   16.4670 C   0  0  1  0  0  0  0  0  0  0  0  0
   -2.4682   90.8643   17.0324 O   0  0  0  0  0  0  0  0  0  0  0  0
   -0.2929   89.7855   16.8903 C   0  0  2  0  0  0  0  0  0  0  0  0
   -0.1438   89.7947   18.3099 O   0  0  0  0  0  0  0  0  0  0  0  0
    1.0945   89.9403   16.2655 C   0  0  2  0  0  0  0  0  0  0  0  0
    0.9704   90.0313   14.8377 O   0  0  0  0  0  0  0  0  0  0  0  0
    1.9681   88.7515   16.6745 C   0  0  0  0  0  0  0  0  0  0  0  0
    3.3946   89.0597   16.4930 N   0  0  0  0  0  0  0  0  0  0  0  0
    2.7898   95.4349   12.8057 C   0  0  2  0  0  0  0  0  0  0  0  0
    3.7254   96.2937   12.0640 N   0  0  0  0  0  0  0  0  0  0  0  0
    3.4657   94.8321   14.0387 C   0  0  0  0  0  0  0  0  0  0  0  0
    2.4106   94.0601   14.8374 C   0  0  2  0  0  0  0  0  0  0  0  0
    3.0553   93.3988   15.9811 N   0  0  0  0  0  0  0  0  0  0  0  0
    1.7199   92.9790   14.0010 C   0  0  2  0  0  0  0  0  0  0  0  0
    1.2241   93.4488   12.6379 C   0  0  2  0  0  0  0  0  0  0  0  0
    0.9805   92.2511   11.8828 O   0  0  0  0  0  0  0  0  0  0  0  0
    2.2719   94.3042   11.9134 C   0  0  1  0  0  0  0  0  0  0  0  0
    1.7198   94.8950   10.7338 O   0  0  0  0  0  0  0  0  0  0  0  0
    0.1382   92.4023   10.7287 C   0  0  1  0  0  0  0  0  0  0  0  0
    0.0599   91.0425   10.0327 C   0  0  2  0  0  0  0  0  0  0  0  0
    1.1943   90.8732    9.1794 O   0  0  0  0  0  0  0  0  0  0  0  0
   -1.1848   91.2850    9.1841 C   0  0  1  0  0  0  0  0  0  0  0  0
   -2.0975   91.9317   10.2141 C   0  0  2  0  0  0  0  0  0  0  0  0
   -1.2304   92.7201   11.0550 O   0  0  0  0  0  0  0  0  0  0  0  0
   -2.8167   90.8336   11.0060 C   0  0  0  0  0  0  0  0  0  0  0  0
   -3.7485   91.4071   11.9276 O   0  0  0  0  0  0  0  0  0  0  0  0
   -1.8752   92.1125    7.1015 C   0  0  2  0  0  0  0  0  0  0  0  0
   -0.8850   92.2200    8.1356 O   0  0  0  0  0  0  0  0  0  0  0  0
   -1.5140   93.0520    5.9465 C   0  0  1  0  0  0  0  0  0  0  0  0
   -5.6113   93.8833    7.9643 N   0  0  0  0  0  0  0  0  0  0  0  0
   -2.6105   93.0294    4.8761 C   0  0  1  0  0  0  0  0  0  0  0  0
   -2.6405   91.7562    4.2231 O   0  0  0  0  0  0  0  0  0  0  0  0
   -3.9698   93.3156    5.5201 C   0  0  2  0  0  0  0  0  0  0  0  0
   -3.9626   94.6557    6.0235 O   0  0  0  0  0  0  0  0  0  0  0  0
   -4.2143   92.3258    6.6641 C   0  0  1  0  0  0  0  0  0  0  0  0
   -3.1661   92.4408    7.6443 O   0  0  0  0  0  0  0  0  0  0  0  0
   -5.5740   92.5579    7.3288 C   0  0  0  0  0  0  0  0  0  0  0  0
   -1.4038   94.4221    6.4696 N   0  0  0  0  0  0  0  0  0  0  0  0
  1  2  1  1  0  0  0
  1  3  1  0  0  0  0
  1 10  1  0  0  0  0
  3  4  1  1  0  0  0
  3  5  1  0  0  0  0
  5  6  1  1  0  0  0
  5  7  1  0  0  0  0
  7  8  1  1  0  0  0
  7  9  1  0  0  0  0
  9 10  1  0  0  0  0
  9 11  1  6  0  0  0
 11 12  1  0  0  0  0
 13 14  1  6  0  0  0
 13 15  1  0  0  0  0
 13 21  1  0  0  0  0
 16 15  1  0  0  0  0
 16 17  1  1  0  0  0
 18  2  1  1  0  0  0
 18 16  1  0  0  0  0
 19 18  1  0  0  0  0
 19 20  1  6  0  0  0
 21 19  1  0  0  0  0
 21 22  1  6  0  0  0
 23 20  1  1  0  0  0
 23 24  1  0  0  0  0
 23 28  1  0  0  0  0
 24 25  1  6  0  0  0
 24 26  1  0  0  0  0
 26 27  1  0  0  0  0
 26 32  1  6  0  0  0
 27 28  1  0  0  0  0
 27 29  1  1  0  0  0
 29 30  1  0  0  0  0
 31 32  1  1  0  0  0
 31 40  1  0  0  0  0
 33 31  1  0  0  0  0
 33 42  1  1  0  0  0
 35 33  1  0  0  0  0
 35 36  1  1  0  0  0
 37 35  1  0  0  0  0
 37 38  1  1  0  0  0
 37 39  1  0  0  0  0
 39 40  1  0  0  0  0
 39 41  1  1  0  0  0
 41 34  1  0  0  0  0
M  END
>  <CHROM.1>
-156.25392678,-160.99385529,-162.60959940,161.86444722,177.29503057,160.92140608
-176.32444850,-176.82665304,-63.94146695,-0.56463274,92.27731434,11.50998216
1.08651192,0.51355186,1.99322707

>  <Name>
2fcy_lig

>  <RI>
0

>  <Rbt.Current_Directory>
/home/itssahil/PROJECTS/Mol_Feturizer/New_Systems/rnas/2fcy

>  <Rbt.Executable>
rbdock ($Id: //depot/dev/client3/rdock/2013.1/src/exe/rbdock.cxx#4 $)

>  <Rbt.Library>
libRbt.so (2013.1, Build901 2013/11/27)

>  <Rbt.Parameter_File>
/export/apps/rDock/src/rDock_2013.1_src/data/scripts/dock_solv.prm

>  <Rbt.Receptor>
prm/pocket_docking_2.prm

>  <SCORE>
-20.1329

>  <SCORE.INTER>
-16.3907

>  <SCORE.INTER.CONST>
1

>  <SCORE.INTER.POLAR>
-1.69733

>  <SCORE.INTER.ROT>
9

>  <SCORE.INTER.SOLV>
15.5387

>  <SCORE.INTER.VDW>
-20.049

>  <SCORE.INTER.norm>
-0.390256

>  <SCORE.INTRA>
-3.77088

>  <SCORE.INTRA.DIHEDRAL>
-8.52293

>  <SCORE.INTRA.DIHEDRAL.0>
17.3446

>  <SCORE.INTRA.POLAR>
0

>  <SCORE.INTRA.POLAR.0>
0

>  <SCORE.INTRA.REPUL>
0

>  <SCORE.INTRA.REPUL.0>
0

>  <SCORE.INTRA.SOLV>
-1.64571

>  <SCORE.INTRA.SOLV.lig_0>
-112.452

>  <SCORE.INTRA.VDW>
1.31344

>  <SCORE.INTRA.VDW.0>
-5.95059

>  <SCORE.INTRA.norm>
-0.089783

>  <SCORE.RESTR>
0.0287314

>  <SCORE.RESTR.CAVITY>
0.0287314

>  <SCORE.RESTR.norm>
0.000684082

>  <SCORE.SYSTEM>
0

>  <SCORE.SYSTEM.CONST>
0

>  <SCORE.SYSTEM.DIHEDRAL>
0

>  <SCORE.SYSTEM.SOLV>
0

>  <SCORE.SYSTEM.norm>
0

>  <SCORE.heavy>
42

>  <SCORE.norm>
-0.479355

>  <RMSD>
0.712

$$$$
2fcy_lig
 OpenBabel11021811433D
libRbt.so/2013.1/901 2013/11/27
 42 45  0  0  0  0  0  0  0  0999 V2000
    0.2192   91.1312   14.3880 C   0  0  2  0  0  0  0  0  0  0  0  0
    0.7052   92.3943   14.8734 O   0  0  0  0  0  0  0  0  0  0  0  0
   -1.1791   90.9750   14.9875 C   0  0  2  0  0  0  0  0  0  0  0  0
   -1.9777   92.1566   14.6344 N   0  0  0  0  0  0  0  0  0  0  0  0
   -1.0742   90.8687   16.5110 C   0  0  1  0  0  0  0  0  0  0  0  0
   -2.3710   90.7175   17.0949 O   0  0  0  0  0  0  0  0  0  0  0  0
   -0.1808   89.6827   16.8759 C   0  0  2  0  0  0  0  0  0  0  0  0
   -0.0061   89.6437   18.2921 O   0  0  0  0  0  0  0  0  0  0  0  0
    1.1923   89.8841   16.2330 C   0  0  2  0  0  0  0  0  0  0  0  0
    1.0409   90.0240   14.8117 O   0  0  0  0  0  0  0  0  0  0  0  0
    2.0932   88.6969   16.5834 C   0  0  0  0  0  0  0  0  0  0  0  0
    3.5120   89.0455   16.4159 N   0  0  0  0  0  0  0  0  0  0  0  0
    2.6965   95.5284   12.9091 C   0  0  2  0  0  0  0  0  0  0  0  0
    3.5949   96.4318   12.1744 N   0  0  0  0  0  0  0  0  0  0  0  0
    3.4067   94.9227   14.1213 C   0  0  0  0  0  0  0  0  0  0  0  0
    2.3869   94.1010   14.9162 C   0  0  2  0  0  0  0  0  0  0  0  0
    3.0666   93.4377   16.0382 N   0  0  0  0  0  0  0  0  0  0  0  0
    1.7208   93.0154   14.0658 C   0  0  2  0  0  0  0  0  0  0  0  0
    1.1933   93.4966   12.7187 C   0  0  2  0  0  0  0  0  0  0  0  0
    0.9788   92.3072   11.9418 O   0  0  0  0  0  0  0  0  0  0  0  0
    2.2040   94.3999   11.9997 C   0  0  1  0  0  0  0  0  0  0  0  0
    1.6187   94.9964   10.8393 O   0  0  0  0  0  0  0  0  0  0  0  0
    0.1523   92.4641   10.7771 C   0  0  1  0  0  0  0  0  0  0  0  0
    0.0566   91.1001   10.0916 C   0  0  2  0  0  0  0  0  0  0  0  0
    1.1971   90.9026    9.2526 O   0  0  0  0  0  0  0  0  0  0  0  0
   -1.1739   91.3583    9.2270 C   0  0  1  0  0  0  0  0  0  0  0  0
   -2.0859   92.0304   10.2412 C   0  0  2  0  0  0  0  0  0  0  0  0
   -1.2137   92.8098   11.0853 O   0  0  0  0  0  0  0  0  0  0  0  0
   -2.8340   90.9525   11.0341 C   0  0  0  0  0  0  0  0  0  0  0  0
   -3.8460   91.5437   11.8543 O   0  0  0  0  0  0  0  0  0  0  0  0
   -1.8121   92.1635    7.1192 C   0  0  2  0  0  0  0  0  0  0  0  0
   -0.8452   92.2786    8.1742 O   0  0  0  0  0  0  0  0  0  0  0  0
   -1.4572   93.1365    5.9903 C   0  0  1  0  0  0  0  0  0  0  0  0
   -5.5770   93.7568    8.0384 N   0  0  0  0  0  0  0  0  0  0  0  0
   -2.5322   93.1038    4.8986 C   0  0  1  0  0  0  0  0  0  0  0  0
   -2.5123   91.8439    4.2200 O   0  0  0  0  0  0  0  0  0  0  0  0
   -3.9113   93.3370    5.5217 C   0  0  2  0  0  0  0  0  0  0  0  0
   -3.9531   94.6663    6.0517 O   0  0  0  0  0  0  0  0  0  0  0  0
   -4.1479   92.3173    6.6408 C   0  0  1  0  0  0  0  0  0  0  0  0
   -3.1222   92.4428    7.6433 O   0  0  0  0  0  0  0  0  0  0  0  0
   -5.5261   92.4961    7.2835 C   0  0  0  0  0  0  0  0  0  0  0  0
   -1.3974   94.4982    6.5426 N   0  0  0  0  0  0  0  0  0  0  0  0
  1  2  1  1  0  0  0
  1  3  1  0  0  0  0
  1 10  1  0  0  0  0
  3  4  1  1  0  0  0
  3  5  1  0  0  0  0
  5  6  1  1  0  0  0
  5  7  1  0  0  0  0
  7  8  1  1  0  0  0
  7  9  1  0  0  0  0
  9 10  1  0  0  0  0
  9 11  1  6  0  0  0
 11 12  1  0  0  0  0
 13 14  1  6  0  0  0
 13 15  1  0  0  0  0
 13 21  1  0  0  0  0
 16 15  1  0  0  0  0
 16 17  1  1  0  0  0
 18  2  1  1  0  0  0
 18 16  1  0  0  0  0
 19 18  1  0  0  0  0
 19 20  1  6  0  0  0
 21 19  1  0  0  0  0
 21 22  1  6  0  0  0
 23 20  1  1  0  0  0
 23 24  1  0  0  0  0
 23 28  1  0  0  0  0
 24 25  1  6  0  0  0
 24 26  1  0  0  0  0
 26 27  1  0  0  0  0
 26 32  1  6  0  0  0
 27 28  1  0  0  0  0
 27 29  1  1  0  0  0
 29 30  1  0  0  0  0
 31 32  1  1  0  0  0
 31 40  1  0  0  0  0
 33 31  1  0  0  0  0
 33 42  1  1  0  0  0
 35 33  1  0  0  0  0
 35 36  1  1  0  0  0
 37 35  1  0  0  0  0
 37 38  1  1  0  0  0
 37 39  1  0  0  0  0
 39 40  1  0  0  0  0
 39 41  1  1  0  0  0
 41 34  1  0  0  0  0
M  END
>  <CHROM.1>
-155.97952258,-159.77763135,-163.97614697,163.77568926,179.62630780,159.89420374
-171.26490571,-179.55904792,-68.62644222,-0.53894913,92.29894817,11.54250315
1.07722616,0.54351225,2.01855920

>  <Name>
2fcy_lig

>  <RI>
0

>  <Rbt.Current_Directory>
/home/itssahil/PROJECTS/Mol_Feturizer/New_Systems/rnas/2fcy

>  <Rbt.Executable>
rbdock ($Id: //depot/dev/client3/rdock/2013.1/src/exe/rbdock.cxx#4 $)

>  <Rbt.Library>
libRbt.so (2013.1, Build901 2013/11/27)

>  <Rbt.Parameter_File>
/export/apps/rDock/src/rDock_2013.1_src/data/scripts/dock_solv.prm

>  <Rbt.Receptor>
prm/pocket_docking_2.prm

>  <SCORE>
-19.7663

>  <SCORE.INTER>
-16.1121

>  <SCORE.INTER.CONST>
1

>  <SCORE.INTER.POLAR>
-1.75002

>  <SCORE.INTER.ROT>
9

>  <SCORE.INTER.SOLV>
15.6072

>  <SCORE.INTER.VDW>
-19.7104

>  <SCORE.INTER.norm>
-0.383622

>  <SCORE.INTRA>
-3.65646

>  <SCORE.INTRA.DIHEDRAL>
-8.30824

>  <SCORE.INTRA.DIHEDRAL.0>
17.3446

>  <SCORE.INTRA.POLAR>
0

>  <SCORE.INTRA.POLAR.0>
0

>  <SCORE.INTRA.REPUL>
0

>  <SCORE.INTRA.REPUL.0>
0

>  <SCORE.INTRA.SOLV>
-1.92884

>  <SCORE.INTRA.SOLV.lig_0>
-112.452

>  <SCORE.INTRA.VDW>
1.46208

>  <SCORE.INTRA.VDW.0>
-5.95059

>  <SCORE.INTRA.norm>
-0.0870585

>  <SCORE.RESTR>
0.00225258

>  <SCORE.RESTR.CAVITY>
0.00225258

>  <SCORE.RESTR.norm>
5.3633e-05

>  <SCORE.SYSTEM>
0

>  <SCORE.SYSTEM.CONST>
0

>  <SCORE.SYSTEM.DIHEDRAL>
0

>  <SCORE.SYSTEM.SOLV>
0

>  <SCORE.SYSTEM.norm>
0

>  <SCORE.heavy>
42

>  <SCORE.norm>
-0.470626

>  <RMSD>
0.734

$$$$
2fcy_lig
 OpenBabel11021811433D
libRbt.so/2013.1/901 2013/11/27
 42 45  0  0  0  0  0  0  0  0999 V2000
    0.2615   91.1241   14.3533 C   0  0  2  0  0  0  0  0  0  0  0  0
    0.8302   92.3509   14.8419 O   0  0  0  0  0  0  0  0  0  0  0  0
   -1.0675   90.9679   15.0938 C   0  0  2  0  0  0  0  0  0  0  0  0
   -1.8682   92.1822   14.8860 N   0  0  0  0  0  0  0  0  0  0  0  0
   -0.8017   90.7837   16.5900 C   0  0  1  0  0  0  0  0  0  0  0  0
   -2.0316   90.6310   17.3041 O   0  0  0  0  0  0  0  0  0  0  0  0
    0.0942   89.5624   16.7990 C   0  0  2  0  0  0  0  0  0  0  0  0
    0.4195   89.4493   18.1843 O   0  0  0  0  0  0  0  0  0  0  0  0
    1.3947   89.7665   16.0203 C   0  0  2  0  0  0  0  0  0  0  0  0
    1.0946   89.9801   14.6323 O   0  0  0  0  0  0  0  0  0  0  0  0
    2.2965   88.5446   16.2140 C   0  0  0  0  0  0  0  0  0  0  0  0
    2.8264   88.4936   17.5848 N   0  0  0  0  0  0  0  0  0  0  0  0
    3.1869   95.2830   12.9723 C   0  0  2  0  0  0  0  0  0  0  0  0
    4.1935   96.0965   12.2738 N   0  0  0  0  0  0  0  0  0  0  0  0
    3.7967   94.5957   14.1957 C   0  0  0  0  0  0  0  0  0  0  0  0
    2.6760   93.8754   14.9521 C   0  0  2  0  0  0  0  0  0  0  0  0
    3.2521   93.1349   16.0837 N   0  0  0  0  0  0  0  0  0  0  0  0
    1.9266   92.8724   14.0702 C   0  0  2  0  0  0  0  0  0  0  0  0
    1.4895   93.4184   12.7154 C   0  0  2  0  0  0  0  0  0  0  0  0
    1.1765   92.2650   11.9180 O   0  0  0  0  0  0  0  0  0  0  0  0
    2.6074   94.2201   12.0357 C   0  0  1  0  0  0  0  0  0  0  0  0
    2.1193   94.8849   10.8674 O   0  0  0  0  0  0  0  0  0  0  0  0
    0.2974   92.4964   10.8054 C   0  0  1  0  0  0  0  0  0  0  0  0
    0.0770   91.1550   10.1042 C   0  0  2  0  0  0  0  0  0  0  0  0
    1.1537   90.9036    9.1980 O   0  0  0  0  0  0  0  0  0  0  0  0
   -1.1814   91.5067    9.3160 C   0  0  1  0  0  0  0  0  0  0  0  0
   -1.9904   92.2140   10.3918 C   0  0  2  0  0  0  0  0  0  0  0  0
   -1.0244   92.9204   11.1971 O   0  0  0  0  0  0  0  0  0  0  0  0
   -2.7596   91.1692   11.2085 C   0  0  0  0  0  0  0  0  0  0  0  0
   -1.8531   90.2928   11.8841 O   0  0  0  0  0  0  0  0  0  0  0  0
   -1.8825   92.3888    7.2596 C   0  0  2  0  0  0  0  0  0  0  0  0
   -0.8546   92.4256    8.2613 O   0  0  0  0  0  0  0  0  0  0  0  0
   -1.5540   93.3940    6.1511 C   0  0  1  0  0  0  0  0  0  0  0  0
   -5.8118   91.7372    8.5806 N   0  0  0  0  0  0  0  0  0  0  0  0
   -2.6886   93.4450    5.1222 C   0  0  1  0  0  0  0  0  0  0  0  0
   -2.7547   92.2142    4.3949 O   0  0  0  0  0  0  0  0  0  0  0  0
   -4.0209   93.7018    5.8317 C   0  0  2  0  0  0  0  0  0  0  0  0
   -3.9824   95.0087    6.4148 O   0  0  0  0  0  0  0  0  0  0  0  0
   -4.2337   92.6461    6.9219 C   0  0  1  0  0  0  0  0  0  0  0  0
   -3.1497   92.6933    7.8682 O   0  0  0  0  0  0  0  0  0  0  0  0
   -5.5661   92.8477    7.6488 C   0  0  0  0  0  0  0  0  0  0  0  0
   -1.4116   94.7289    6.7519 N   0  0  0  0  0  0  0  0  0  0  0  0
  1  2  1  1  0  0  0
  1  3  1  0  0  0  0
  1 10  1  0  0  0  0
  3  4  1  1  0  0  0
  3  5  1  0  0  0  0
  5  6  1  1  0  0  0
  5  7  1  0  0  0  0
  7  8  1  1  0  0  0
  7  9  1  0  0  0  0
  9 10  1  0  0  0  0
  9 11  1  6  0  0  0
 11 12  1  0  0  0  0
 13 14  1  6  0  0  0
 13 15  1  0  0  0  0
 13 21  1  0  0  0  0
 16 15  1  0  0  0  0
 16 17  1  1  0  0  0
 18  2  1  1  0  0  0
 18 16  1  0  0  0  0
 19 18  1  0  0  0  0
 19 20  1  6  0  0  0
 21 19  1  0  0  0  0
 21 22  1  6  0  0  0
 23 20  1  1  0  0  0
 23 24  1  0  0  0  0
 23 28  1  0  0  0  0
 24 25  1  6  0  0  0
 24 26  1  0  0  0  0
 26 27  1  0  0  0  0
 26 32  1  6  0  0  0
 27 28  1  0  0  0  0
 27 29  1  1  0  0  0
 29 30  1  0  0  0  0
 31 32  1  1  0  0  0
 31 40  1  0  0  0  0
 33 31  1  0  0  0  0
 33 42  1  1  0  0  0
 35 33  1  0  0  0  0
 35 36  1  1  0  0  0
 37 35  1  0  0  0  0
 37 38  1  1  0  0  0
 37 39  1  0  0  0  0
 39 40  1  0  0  0  0
 39 41  1  1  0  0  0
 41 34  1  0  0  0  0
M  END
>  <CHROM.1>
-165.96090806,-70.73310185,-161.90463442,158.01332107,-179.26402466,159.70038026
62.92077156,178.57129567,173.64924068,-0.38104697,92.23267869,11.65558317
1.05249748,0.53548576,2.06527908

>  <Name>
2fcy_lig

>  <RI>
0

>  <Rbt.Current_Directory>
/home/itssahil/PROJECTS/Mol_Feturizer/New_Systems/rnas/2fcy

>  <Rbt.Executable>
rbdock ($Id: //depot/dev/client3/rdock/2013.1/src/exe/rbdock.cxx#4 $)

>  <Rbt.Library>
libRbt.so (2013.1, Build901 2013/11/27)

>  <Rbt.Parameter_File>
/export/apps/rDock/src/rDock_2013.1_src/data/scripts/dock_solv.prm

>  <Rbt.Receptor>
prm/pocket_docking_2.prm

>  <SCORE>
-21.6512

>  <SCORE.INTER>
-17.4336

>  <SCORE.INTER.CONST>
1

>  <SCORE.INTER.POLAR>
-1.71652

>  <SCORE.INTER.ROT>
9

>  <SCORE.INTER.SOLV>
17.1042

>  <SCORE.INTER.VDW>
-21.2021

>  <SCORE.INTER.norm>
-0.415085

>  <SCORE.INTRA>
-4.2176

>  <SCORE.INTRA.DIHEDRAL>
-9.92985

>  <SCORE.INTRA.DIHEDRAL.0>
17.3446

>  <SCORE.INTRA.POLAR>
0

>  <SCORE.INTRA.POLAR.0>
0

>  <SCORE.INTRA.REPUL>
0

>  <SCORE.INTRA.REPUL.0>
0

>  <SCORE.INTRA.SOLV>
-1.58092

>  <SCORE.INTRA.SOLV.lig_0>
-112.452

>  <SCORE.INTRA.VDW>
1.53779

>  <SCORE.INTRA.VDW.0>
-5.95059

>  <SCORE.INTRA.norm>
-0.100419

>  <SCORE.RESTR>
0

>  <SCORE.RESTR.CAVITY>
0

>  <SCORE.RESTR.norm>
0

>  <SCORE.SYSTEM>
0

>  <SCORE.SYSTEM.CONST>
0

>  <SCORE.SYSTEM.DIHEDRAL>
0

>  <SCORE.SYSTEM.SOLV>
0

>  <SCORE.SYSTEM.norm>
0

>  <SCORE.heavy>
42

>  <SCORE.norm>
-0.515504

>  <RMSD>
0.741

$$$$
2fcy_lig
 OpenBabel11021811433D
libRbt.so/2013.1/901 2013/11/27
 42 45  0  0  0  0  0  0  0  0999 V2000
    0.4311   91.1691   14.5080 C   0  0  2  0  0  0  0  0  0  0  0  0
    0.9667   92.4066   15.0069 O   0  0  0  0  0  0  0  0  0  0  0  0
   -0.9899   91.0855   15.0673 C   0  0  2  0  0  0  0  0  0  0  0  0
   -1.7169   92.3057   14.6912 N   0  0  0  0  0  0  0  0  0  0  0  0
   -0.9342   90.9765   16.5932 C   0  0  1  0  0  0  0  0  0  0  0  0
   -2.2533   90.8926   17.1398 O   0  0  0  0  0  0  0  0  0  0  0  0
   -0.1133   89.7471   16.9838 C   0  0  2  0  0  0  0  0  0  0  0  0
    0.0186   89.7016   18.4045 O   0  0  0  0  0  0  0  0  0  0  0  0
    1.2861   89.8771   16.3804 C   0  0  2  0  0  0  0  0  0  0  0  0
    1.1827   90.0222   14.9554 O   0  0  0  0  0  0  0  0  0  0  0  0
    2.1148   88.6462   16.7567 C   0  0  0  0  0  0  0  0  0  0  0  0
    3.5434   88.8722   16.4907 N   0  0  0  0  0  0  0  0  0  0  0  0
    3.1211   95.4636   13.0938 C   0  0  2  0  0  0  0  0  0  0  0  0
    4.0674   96.3311   12.3763 N   0  0  0  0  0  0  0  0  0  0  0  0
    3.7918   94.8112   14.3043 C   0  0  0  0  0  0  0  0  0  0  0  0
    2.7275   94.0305   15.0820 C   0  0  2  0  0  0  0  0  0  0  0  0
    3.3658   93.3230   16.2014 N   0  0  0  0  0  0  0  0  0  0  0  0
    2.0173   92.9875   14.2142 C   0  0  2  0  0  0  0  0  0  0  0  0
    1.5242   93.5082   12.8687 C   0  0  2  0  0  0  0  0  0  0  0  0
    1.2596   92.3392   12.0767 O   0  0  0  0  0  0  0  0  0  0  0  0
    2.5827   94.3701   12.1678 C   0  0  1  0  0  0  0  0  0  0  0  0
    2.0359   95.0068   11.0099 O   0  0  0  0  0  0  0  0  0  0  0  0
    0.3102   92.5096   11.0118 C   0  0  1  0  0  0  0  0  0  0  0  0
    0.0801   91.1383   10.3744 C   0  0  2  0  0  0  0  0  0  0  0  0
    1.1063   90.8761    9.4142 O   0  0  0  0  0  0  0  0  0  0  0  0
   -1.2312   91.4329    9.6518 C   0  0  1  0  0  0  0  0  0  0  0  0
   -1.9909   92.1627   10.7483 C   0  0  2  0  0  0  0  0  0  0  0  0
   -0.9954   92.9195   11.4674 O   0  0  0  0  0  0  0  0  0  0  0  0
   -2.6848   91.1331   11.6476 C   0  0  0  0  0  0  0  0  0  0  0  0
   -3.6542   90.3890   10.9040 O   0  0  0  0  0  0  0  0  0  0  0  0
   -2.0555   92.1931    7.5924 C   0  0  2  0  0  0  0  0  0  0  0  0
   -0.9900   92.3183    8.5466 O   0  0  0  0  0  0  0  0  0  0  0  0
   -1.6012   92.7531    6.2406 C   0  0  1  0  0  0  0  0  0  0  0  0
   -5.9513   92.7354    9.0329 N   0  0  0  0  0  0  0  0  0  0  0  0
   -2.7564   92.7229    5.2340 C   0  0  1  0  0  0  0  0  0  0  0  0
   -3.0868   91.3715    4.8981 O   0  0  0  0  0  0  0  0  0  0  0  0
   -3.9804   93.4252    5.8282 C   0  0  2  0  0  0  0  0  0  0  0  0
   -3.6700   94.8116    6.0037 O   0  0  0  0  0  0  0  0  0  0  0  0
   -4.3315   92.7903    7.1780 C   0  0  1  0  0  0  0  0  0  0  0  0
   -3.2118   92.8984    8.0765 O   0  0  0  0  0  0  0  0  0  0  0  0
   -5.5650   93.4457    7.8049 C   0  0  0  0  0  0  0  0  0  0  0  0
   -1.1828   94.1508    6.4257 N   0  0  0  0  0  0  0  0  0  0  0  0
  1  2  1  1  0  0  0
  1  3  1  0  0  0  0
  1 10  1  0  0  0  0
  3  4  1  1  0  0  0
  3  5  1  0  0  0  0
  5  6  1  6  0  0  0
  5  7  1  0  0  0  0
  7  8  1  1  0  0  0
  7  9  1  0  0  0  0
  9 10  1  0  0  0  0
  9 11  1  6  0  0  0
 11 12  1  0  0  0  0
 13 14  1  6  0  0  0
 13 15  1  0  0  0  0
 13 21  1  0  0  0  0
 16 15  1  0  0  0  0
 16 17  1  1  0  0  0
 18  2  1  1  0  0  0
 18 16  1  0  0  0  0
 19 18  1  0  0  0  0
 19 20  1  6  0  0  0
 21 19  1  0  0  0  0
 21 22  1  6  0  0  0
 23 20  1  1  0  0  0
 23 24  1  0  0  0  0
 23 28  1  0  0  0  0
 24 25  1  6  0  0  0
 24 26  1  0  0  0  0
 26 27  1  0  0  0  0
 26 32  1  6  0  0  0
 27 28  1  0  0  0  0
 27 29  1  1  0  0  0
 29 30  1  0  0  0  0
 31 32  1  1  0  0  0
 31 40  1  0  0  0  0
 33 31  1  0  0  0  0
 33 42  1  1  0  0  0
 35 33  1  0  0  0  0
 35 36  1  1  0  0  0
 37 35  1  0  0  0  0
 37 38  1  1  0  0  0
 37 39  1  0  0  0  0
 39 40  1  0  0  0  0
 39 41  1  1  0  0  0
 41 34  1  0  0  0  0
M  END
>  <CHROM.1>
-154.79561488,-165.95886726,-163.58519276,155.83393609,-175.22002450,158.03653670
-63.07281849,-161.46110333,174.70588280,-0.43764610,92.27277507,11.76036882
1.01993289,0.52599353,2.03397982

>  <Name>
2fcy_lig

>  <RI>
0

>  <Rbt.Current_Directory>
/home/itssahil/PROJECTS/Mol_Feturizer/New_Systems/rnas/2fcy

>  <Rbt.Executable>
rbdock ($Id: //depot/dev/client3/rdock/2013.1/src/exe/rbdock.cxx#4 $)

>  <Rbt.Library>
libRbt.so (2013.1, Build901 2013/11/27)

>  <Rbt.Parameter_File>
/export/apps/rDock/src/rDock_2013.1_src/data/scripts/dock_solv.prm

>  <Rbt.Receptor>
prm/pocket_docking_2.prm

>  <SCORE>
-20.1357

>  <SCORE.INTER>
-16.3694

>  <SCORE.INTER.CONST>
1

>  <SCORE.INTER.POLAR>
-1.74612

>  <SCORE.INTER.ROT>
9

>  <SCORE.INTER.SOLV>
17.02

>  <SCORE.INTER.VDW>
-20.3658

>  <SCORE.INTER.norm>
-0.389747

>  <SCORE.INTRA>
-3.80028

>  <SCORE.INTRA.DIHEDRAL>
-5.84493

>  <SCORE.INTRA.DIHEDRAL.0>
17.3446

>  <SCORE.INTRA.POLAR>
0

>  <SCORE.INTRA.POLAR.0>
0

>  <SCORE.INTRA.REPUL>
0

>  <SCORE.INTRA.REPUL.0>
0

>  <SCORE.INTRA.SOLV>
-2.90181

>  <SCORE.INTRA.SOLV.lig_0>
-112.452

>  <SCORE.INTRA.VDW>
0.573093

>  <SCORE.INTRA.VDW.0>
-5.95059

>  <SCORE.INTRA.norm>
-0.0904828

>  <SCORE.RESTR>
0.0339859

>  <SCORE.RESTR.CAVITY>
0.0339859

>  <SCORE.RESTR.norm>
0.000809187

>  <SCORE.SYSTEM>
0

>  <SCORE.SYSTEM.CONST>
0

>  <SCORE.SYSTEM.DIHEDRAL>
0

>  <SCORE.SYSTEM.SOLV>
0

>  <SCORE.SYSTEM.norm>
0

>  <SCORE.heavy>
42

>  <SCORE.norm>
-0.479421

>  <RMSD>
0.753

$$$$
2fcy_lig
 OpenBabel11021811433D
libRbt.so/2013.1/901 2013/11/27
 42 45  0  0  0  0  0  0  0  0999 V2000
    0.1598   91.0771   14.3722 C   0  0  2  0  0  0  0  0  0  0  0  0
    0.7127   92.3275   14.8173 O   0  0  0  0  0  0  0  0  0  0  0  0
   -1.1470   90.9100   15.1490 C   0  0  2  0  0  0  0  0  0  0  0  0
   -1.9794   92.1013   14.9326 N   0  0  0  0  0  0  0  0  0  0  0  0
   -0.8407   90.7679   16.6421 C   0  0  1  0  0  0  0  0  0  0  0  0
   -2.0491   90.6058   17.3900 O   0  0  0  0  0  0  0  0  0  0  0  0
    0.0871   89.5718   16.8575 C   0  0  2  0  0  0  0  0  0  0  0  0
    0.4486   89.4993   18.2365 O   0  0  0  0  0  0  0  0  0  0  0  0
    1.3633   89.7851   16.0421 C   0  0  2  0  0  0  0  0  0  0  0  0
    1.0247   89.9586   14.6572 O   0  0  0  0  0  0  0  0  0  0  0  0
    2.2966   88.5882   16.2420 C   0  0  0  0  0  0  0  0  0  0  0  0
    2.8913   88.6034   17.5870 N   0  0  0  0  0  0  0  0  0  0  0  0
    3.1107   95.2014   12.9102 C   0  0  2  0  0  0  0  0  0  0  0  0
    4.1294   95.9917   12.2027 N   0  0  0  0  0  0  0  0  0  0  0  0
    3.7079   94.5266   14.1467 C   0  0  0  0  0  0  0  0  0  0  0  0
    2.5759   93.8317   14.9102 C   0  0  2  0  0  0  0  0  0  0  0  0
    3.1391   93.1026   16.0557 N   0  0  0  0  0  0  0  0  0  0  0  0
    1.8179   92.8236   14.0416 C   0  0  2  0  0  0  0  0  0  0  0  0
    1.3923   93.3529   12.6766 C   0  0  2  0  0  0  0  0  0  0  0  0
    1.0686   92.1907   11.8965 O   0  0  0  0  0  0  0  0  0  0  0  0
    2.5221   94.1305   11.9885 C   0  0  1  0  0  0  0  0  0  0  0  0
    2.0462   94.7822   10.8079 O   0  0  0  0  0  0  0  0  0  0  0  0
    0.2057   92.4166   10.7701 C   0  0  1  0  0  0  0  0  0  0  0  0
    0.0573   91.0872   10.0282 C   0  0  2  0  0  0  0  0  0  0  0  0
    1.1635   90.9055    9.1411 O   0  0  0  0  0  0  0  0  0  0  0  0
   -1.1968   91.4086    9.2204 C   0  0  1  0  0  0  0  0  0  0  0  0
   -2.0584   92.0519   10.2955 C   0  0  2  0  0  0  0  0  0  0  0  0
   -1.1411   92.7748   11.1419 O   0  0  0  0  0  0  0  0  0  0  0  0
   -2.8014   90.9541   11.0656 C   0  0  0  0  0  0  0  0  0  0  0  0
   -3.6285   91.5261   12.0830 O   0  0  0  0  0  0  0  0  0  0  0  0
   -1.9143   92.3532    7.1977 C   0  0  2  0  0  0  0  0  0  0  0  0
   -0.8852   92.3691    8.1987 O   0  0  0  0  0  0  0  0  0  0  0  0
   -1.5682   93.3546    6.0911 C   0  0  1  0  0  0  0  0  0  0  0  0
   -5.8003   91.8307    8.5999 N   0  0  0  0  0  0  0  0  0  0  0  0
   -2.7025   93.4285    5.0632 C   0  0  1  0  0  0  0  0  0  0  0  0
   -2.7917   92.2007    4.3333 O   0  0  0  0  0  0  0  0  0  0  0  0
   -4.0293   93.7083    5.7743 C   0  0  2  0  0  0  0  0  0  0  0  0
   -3.9663   95.0131    6.3600 O   0  0  0  0  0  0  0  0  0  0  0  0
   -4.2607   92.6544    6.8624 C   0  0  1  0  0  0  0  0  0  0  0  0
   -3.1753   92.6797    7.8080 O   0  0  0  0  0  0  0  0  0  0  0  0
   -5.5886   92.8789    7.5908 C   0  0  0  0  0  0  0  0  0  0  0  0
   -1.4008   94.6854    6.6945 N   0  0  0  0  0  0  0  0  0  0  0  0
  1  2  1  1  0  0  0
  1  3  1  0  0  0  0
  1 10  1  0  0  0  0
  3  4  1  1  0  0  0
  3  5  1  0  0  0  0
  5  6  1  1  0  0  0
  5  7  1  0  0  0  0
  7  8  1  1  0  0  0
  7  9  1  0  0  0  0
  9 10  1  0  0  0  0
  9 11  1  6  0  0  0
 11 12  1  0  0  0  0
 13 14  1  6  0  0  0
 13 15  1  0  0  0  0
 13 21  1  0  0  0  0
 16 15  1  0  0  0  0
 16 17  1  1  0  0  0
 18  2  1  1  0  0  0
 18 16  1  0  0  0  0
 19 18  1  0  0  0  0
 19 20  1  6  0  0  0
 21 19  1  0  0  0  0
 21 22  1  6  0  0  0
 23 20  1  1  0  0  0
 23 24  1  0  0  0  0
 23 28  1  0  0  0  0
 24 25  1  6  0  0  0
 24 26  1  0  0  0  0
 26 27  1  0  0  0  0
 26 32  1  6  0  0  0
 27 28  1  0  0  0  0
 27 29  1  1  0  0  0
 29 30  1  0  0  0  0
 31 32  1  1  0  0  0
 31 40  1  0  0  0  0
 33 31  1  0  0  0  0
 33 42  1  1  0  0  0
 35 33  1  0  0  0  0
 35 36  1  1  0  0  0
 37 35  1  0  0  0  0
 37 38  1  1  0  0  0
 37 39  1  0  0  0  0
 39 40  1  0  0  0  0
 39 41  1  1  0  0  0
 41 34  1  0  0  0  0
M  END
>  <CHROM.1>
-168.66050793,-72.38175017,-159.93293625,158.53169508,176.45604060,161.85102876
-179.71913366,-178.74270852,178.33331677,-0.47382384,92.22841601,11.63231708
1.07408239,0.48503491,2.02819733

>  <Name>
2fcy_lig

>  <RI>
0

>  <Rbt.Current_Directory>
/home/itssahil/PROJECTS/Mol_Feturizer/New_Systems/rnas/2fcy

>  <Rbt.Executable>
rbdock ($Id: //depot/dev/client3/rdock/2013.1/src/exe/rbdock.cxx#4 $)

>  <Rbt.Library>
libRbt.so (2013.1, Build901 2013/11/27)

>  <Rbt.Parameter_File>
/export/apps/rDock/src/rDock_2013.1_src/data/scripts/dock_solv.prm

>  <Rbt.Receptor>
prm/pocket_docking_2.prm

>  <SCORE>
-21.7365

>  <SCORE.INTER>
-16.7585

>  <SCORE.INTER.CONST>
1

>  <SCORE.INTER.POLAR>
-1.68087

>  <SCORE.INTER.ROT>
9

>  <SCORE.INTER.SOLV>
16.358

>  <SCORE.INTER.VDW>
-20.6221

>  <SCORE.INTER.norm>
-0.399012

>  <SCORE.INTRA>
-4.97802

>  <SCORE.INTRA.DIHEDRAL>
-10.3239

>  <SCORE.INTRA.DIHEDRAL.0>
17.3446

>  <SCORE.INTRA.POLAR>
0

>  <SCORE.INTRA.POLAR.0>
0

>  <SCORE.INTRA.REPUL>
0

>  <SCORE.INTRA.REPUL.0>
0

>  <SCORE.INTRA.SOLV>
-2.17604

>  <SCORE.INTRA.SOLV.lig_0>
-112.452

>  <SCORE.INTRA.VDW>
1.27197

>  <SCORE.INTRA.VDW.0>
-5.95059

>  <SCORE.INTRA.norm>
-0.118524

>  <SCORE.RESTR>
0

>  <SCORE.RESTR.CAVITY>
0

>  <SCORE.RESTR.norm>
0

>  <SCORE.SYSTEM>
0

>  <SCORE.SYSTEM.CONST>
0

>  <SCORE.SYSTEM.DIHEDRAL>
0

>  <SCORE.SYSTEM.SOLV>
0

>  <SCORE.SYSTEM.norm>
0

>  <SCORE.heavy>
42

>  <SCORE.norm>
-0.517537

>  <RMSD>
0.755

$$$$
2fcy_lig
 OpenBabel11021811433D
libRbt.so/2013.1/901 2013/11/27
 42 45  0  0  0  0  0  0  0  0999 V2000
    0.4962   91.1696   14.4305 C   0  0  2  0  0  0  0  0  0  0  0  0
    1.0891   92.3706   14.9532 O   0  0  0  0  0  0  0  0  0  0  0  0
   -0.8348   91.0179   15.1684 C   0  0  2  0  0  0  0  0  0  0  0  0
   -1.6120   92.2529   14.9970 N   0  0  0  0  0  0  0  0  0  0  0  0
   -0.5709   90.7855   16.6582 C   0  0  1  0  0  0  0  0  0  0  0  0
   -1.8026   90.6361   17.3697 O   0  0  0  0  0  0  0  0  0  0  0  0
    0.3014   89.5416   16.8304 C   0  0  2  0  0  0  0  0  0  0  0  0
    0.6261   89.3823   18.2113 O   0  0  0  0  0  0  0  0  0  0  0  0
    1.6047   89.7428   16.0558 C   0  0  2  0  0  0  0  0  0  0  0  0
    1.3073   90.0021   14.6749 O   0  0  0  0  0  0  0  0  0  0  0  0
    2.4829   88.4986   16.2126 C   0  0  0  0  0  0  0  0  0  0  0  0
    3.0491   88.4215   17.5677 N   0  0  0  0  0  0  0  0  0  0  0  0
    3.3449   95.3612   13.0521 C   0  0  2  0  0  0  0  0  0  0  0  0
    4.3214   96.2001   12.3412 N   0  0  0  0  0  0  0  0  0  0  0  0
    3.9861   94.6941   14.2706 C   0  0  0  0  0  0  0  0  0  0  0  0
    2.8934   93.9453   15.0404 C   0  0  2  0  0  0  0  0  0  0  0  0
    3.5015   93.2238   16.1676 N   0  0  0  0  0  0  0  0  0  0  0  0
    2.1626   92.9198   14.1688 C   0  0  2  0  0  0  0  0  0  0  0  0
    1.6966   93.4501   12.8174 C   0  0  2  0  0  0  0  0  0  0  0  0
    1.4070   92.2865   12.0261 O   0  0  0  0  0  0  0  0  0  0  0  0
    2.7850   94.2803   12.1241 C   0  0  1  0  0  0  0  0  0  0  0  0
    2.2667   94.9285   10.9595 O   0  0  0  0  0  0  0  0  0  0  0  0
    0.4407   92.4697   10.9787 C   0  0  1  0  0  0  0  0  0  0  0  0
    0.2077   91.1081   10.3220 C   0  0  2  0  0  0  0  0  0  0  0  0
    1.2203   90.8673    9.3421 O   0  0  0  0  0  0  0  0  0  0  0  0
   -1.1160   91.4079    9.6245 C   0  0  1  0  0  0  0  0  0  0  0  0
   -1.8624   92.1153   10.7445 C   0  0  2  0  0  0  0  0  0  0  0  0
   -0.8599   92.8652   11.4609 O   0  0  0  0  0  0  0  0  0  0  0  0
   -2.5374   91.0673   11.6368 C   0  0  0  0  0  0  0  0  0  0  0  0
   -3.5186   90.3346   10.8972 O   0  0  0  0  0  0  0  0  0  0  0  0
   -2.0217   92.2691    7.6404 C   0  0  2  0  0  0  0  0  0  0  0  0
   -0.8961   92.3128    8.5307 O   0  0  0  0  0  0  0  0  0  0  0  0
   -1.7201   93.1042    6.3919 C   0  0  1  0  0  0  0  0  0  0  0  0
   -6.8217   92.8337    7.5729 N   0  0  0  0  0  0  0  0  0  0  0  0
   -2.9461   93.1551    5.4739 C   0  0  1  0  0  0  0  0  0  0  0  0
   -3.1991   91.8636    4.9115 O   0  0  0  0  0  0  0  0  0  0  0  0
   -4.1686   93.6254    6.2669 C   0  0  2  0  0  0  0  0  0  0  0  0
   -3.9509   94.9788    6.6799 O   0  0  0  0  0  0  0  0  0  0  0  0
   -4.3620   92.7265    7.4927 C   0  0  1  0  0  0  0  0  0  0  0  0
   -3.1858   92.7685    8.3219 O   0  0  0  0  0  0  0  0  0  0  0  0
   -5.5878   93.1442    8.3097 C   0  0  0  0  0  0  0  0  0  0  0  0
   -1.3952   94.4765    6.8094 N   0  0  0  0  0  0  0  0  0  0  0  0
  1  2  1  1  0  0  0
  1  3  1  0  0  0  0
  1 10  1  0  0  0  0
  3  4  1  1  0  0  0
  3  5  1  0  0  0  0
  5  6  1  1  0  0  0
  5  7  1  0  0  0  0
  7  8  1  1  0  0  0
  7  9  1  0  0  0  0
  9 10  1  0  0  0  0
  9 11  1  6  0  0  0
 11 12  1  0  0  0  0
 13 14  1  6  0  0  0
 13 15  1  0  0  0  0
 13 21  1  0  0  0  0
 16 15  1  0  0  0  0
 16 17  1  1  0  0  0
 18  2  1  1  0  0  0
 18 16  1  0  0  0  0
 19 18  1  0  0  0  0
 19 20  1  6  0  0  0
 21 19  1  0  0  0  0
 21 22  1  6  0  0  0
 23 20  1  1  0  0  0
 23 24  1  0  0  0  0
 23 28  1  0  0  0  0
 24 25  1  6  0  0  0
 24 26  1  0  0  0  0
 26 27  1  0  0  0  0
 26 32  1  6  0  0  0
 27 28  1  0  0  0  0
 27 29  1  1  0  0  0
 29 30  1  0  0  0  0
 31 32  1  1  0  0  0
 31 40  1  0  0  0  0
 33 31  1  0  0  0  0
 33 42  1  1  0  0  0
 35 33  1  0  0  0  0
 35 36  1  1  0  0  0
 37 35  1  0  0  0  0
 37 38  1  1  0  0  0
 37 39  1  0  0  0  0
 39 40  1  0  0  0  0
 39 41  1  1  0  0  0
 41 34  1  0  0  0  0
M  END
>  <CHROM.1>
-163.78707452,-72.59864552,-165.44550318,153.93225775,-176.34713362,162.19453717
-63.33107189,-173.34243063,69.97488599,-0.34984326,92.23778637,11.78580466
0.97286811,0.51391167,2.09265263

>  <Name>
2fcy_lig

>  <RI>
0

>  <Rbt.Current_Directory>
/home/itssahil/PROJECTS/Mol_Feturizer/New_Systems/rnas/2fcy

>  <Rbt.Executable>
rbdock ($Id: //depot/dev/client3/rdock/2013.1/src/exe/rbdock.cxx#4 $)

>  <Rbt.Library>
libRbt.so (2013.1, Build901 2013/11/27)

>  <Rbt.Parameter_File>
/export/apps/rDock/src/rDock_2013.1_src/data/scripts/dock_solv.prm

>  <Rbt.Receptor>
prm/pocket_docking_2.prm

>  <SCORE>
-21.1924

>  <SCORE.INTER>
-16.5138

>  <SCORE.INTER.CONST>
1

>  <SCORE.INTER.POLAR>
-1.70567

>  <SCORE.INTER.ROT>
9

>  <SCORE.INTER.SOLV>
16.9486

>  <SCORE.INTER.VDW>
-20.5732

>  <SCORE.INTER.norm>
-0.393186

>  <SCORE.INTRA>
-4.71413

>  <SCORE.INTRA.DIHEDRAL>
-9.11589

>  <SCORE.INTRA.DIHEDRAL.0>
17.3446

>  <SCORE.INTRA.POLAR>
0

>  <SCORE.INTRA.POLAR.0>
0

>  <SCORE.INTRA.REPUL>
0

>  <SCORE.INTRA.REPUL.0>
0

>  <SCORE.INTRA.SOLV>
-2.92618

>  <SCORE.INTRA.SOLV.lig_0>
-112.452

>  <SCORE.INTRA.VDW>
1.30691

>  <SCORE.INTRA.VDW.0>
-5.95059

>  <SCORE.INTRA.norm>
-0.112241

>  <SCORE.RESTR>
0.0354905

>  <SCORE.RESTR.CAVITY>
0.0354905

>  <SCORE.RESTR.norm>
0.000845013

>  <SCORE.SYSTEM>
0

>  <SCORE.SYSTEM.CONST>
0

>  <SCORE.SYSTEM.DIHEDRAL>
0

>  <SCORE.SYSTEM.SOLV>
0

>  <SCORE.SYSTEM.norm>
0

>  <SCORE.heavy>
42

>  <SCORE.norm>
-0.504582

>  <RMSD>
0.760

$$$$
2fcy_lig
 OpenBabel11021811433D
libRbt.so/2013.1/901 2013/11/27
 42 45  0  0  0  0  0  0  0  0999 V2000
    0.1790   91.0655   14.3111 C   0  0  2  0  0  0  0  0  0  0  0  0
    0.7248   92.3222   14.7469 O   0  0  0  0  0  0  0  0  0  0  0  0
   -1.1441   90.9134   15.0630 C   0  0  2  0  0  0  0  0  0  0  0  0
   -1.9695   92.1022   14.8094 N   0  0  0  0  0  0  0  0  0  0  0  0
   -0.8695   90.7956   16.5643 C   0  0  1  0  0  0  0  0  0  0  0  0
   -2.0935   90.6479   17.2893 O   0  0  0  0  0  0  0  0  0  0  0  0
    0.0513   89.6018   16.8190 C   0  0  2  0  0  0  0  0  0  0  0  0
    0.3837   89.5517   18.2063 O   0  0  0  0  0  0  0  0  0  0  0  0
    1.3448   89.7996   16.0271 C   0  0  2  0  0  0  0  0  0  0  0  0
    1.0356   89.9505   14.6328 O   0  0  0  0  0  0  0  0  0  0  0  0
    2.2714   88.6047   16.2665 C   0  0  0  0  0  0  0  0  0  0  0  0
    2.9174   88.6954   17.5844 N   0  0  0  0  0  0  0  0  0  0  0  0
    3.0367   95.2368   12.7957 C   0  0  2  0  0  0  0  0  0  0  0  0
    4.0268   96.0438   12.0669 N   0  0  0  0  0  0  0  0  0  0  0  0
    3.6739   94.5629   14.0125 C   0  0  0  0  0  0  0  0  0  0  0  0
    2.5708   93.8495   14.8007 C   0  0  2  0  0  0  0  0  0  0  0  0
    3.1724   93.1213   15.9271 N   0  0  0  0  0  0  0  0  0  0  0  0
    1.8034   92.8366   13.9459 C   0  0  2  0  0  0  0  0  0  0  0  0
    1.3362   93.3680   12.5955 C   0  0  2  0  0  0  0  0  0  0  0  0
    1.0071   92.2060   11.8172 O   0  0  0  0  0  0  0  0  0  0  0  0
    2.4381   94.1636   11.8831 C   0  0  1  0  0  0  0  0  0  0  0  0
    1.9238   94.8157   10.7189 O   0  0  0  0  0  0  0  0  0  0  0  0
    0.1629   92.4376   10.6779 C   0  0  1  0  0  0  0  0  0  0  0  0
    0.0118   91.1078    9.9373 C   0  0  2  0  0  0  0  0  0  0  0  0
    1.1288   90.9126    9.0667 O   0  0  0  0  0  0  0  0  0  0  0  0
   -1.2271   91.4397    9.1105 C   0  0  1  0  0  0  0  0  0  0  0  0
   -2.0977   92.0945   10.1714 C   0  0  2  0  0  0  0  0  0  0  0  0
   -1.1854   92.8104   11.0292 O   0  0  0  0  0  0  0  0  0  0  0  0
   -2.8628   91.0063   10.9334 C   0  0  0  0  0  0  0  0  0  0  0  0
   -3.6860   91.5881   11.9485 O   0  0  0  0  0  0  0  0  0  0  0  0
   -1.8869   92.3602    7.0573 C   0  0  2  0  0  0  0  0  0  0  0  0
   -0.8911   92.3943    8.0911 O   0  0  0  0  0  0  0  0  0  0  0  0
   -1.5402   93.3904    5.9777 C   0  0  1  0  0  0  0  0  0  0  0  0
   -5.8589   91.6091    8.2186 N   0  0  0  0  0  0  0  0  0  0  0  0
   -2.6431   93.4430    4.9150 C   0  0  1  0  0  0  0  0  0  0  0  0
   -2.6673   92.2248    4.1641 O   0  0  0  0  0  0  0  0  0  0  0  0
   -4.0005   93.6666    5.5871 C   0  0  2  0  0  0  0  0  0  0  0  0
   -4.0005   94.9630    6.1943 O   0  0  0  0  0  0  0  0  0  0  0  0
   -4.2303   92.5880    6.6511 C   0  0  1  0  0  0  0  0  0  0  0  0
   -3.1769   92.6343    7.6314 O   0  0  0  0  0  0  0  0  0  0  0  0
   -5.5875   92.7560    7.3396 C   0  0  0  0  0  0  0  0  0  0  0  0
   -1.4373   94.7161    6.6063 N   0  0  0  0  0  0  0  0  0  0  0  0
  1  2  1  1  0  0  0
  1  3  1  0  0  0  0
  1 10  1  0  0  0  0
  3  4  1  1  0  0  0
  3  5  1  0  0  0  0
  5  6  1  1  0  0  0
  5  7  1  0  0  0  0
  7  8  1  1  0  0  0
  7  9  1  0  0  0  0
  9 10  1  0  0  0  0
  9 11  1  6  0  0  0
 11 12  1  0  0  0  0
 13 14  1  6  0  0  0
 13 15  1  0  0  0  0
 13 21  1  0  0  0  0
 16 15  1  0  0  0  0
 16 17  1  1  0  0  0
 18  2  1  1  0  0  0
 18 16  1  0  0  0  0
 19 18  1  0  0  0  0
 19 20  1  6  0  0  0
 21 19  1  0  0  0  0
 21 22  1  6  0  0  0
 23 20  1  1  0  0  0
 23 24  1  0  0  0  0
 23 28  1  0  0  0  0
 24 25  1  6  0  0  0
 24 26  1  0  0  0  0
 26 27  1  0  0  0  0
 26 32  1  6  0  0  0
 27 28  1  0  0  0  0
 27 29  1  1  0  0  0
 29 30  1  0  0  0  0
 31 32  1  1  0  0  0
 31 40  1  0  0  0  0
 33 31  1  0  0  0  0
 33 42  1  1  0  0  0
 35 33  1  0  0  0  0
 35 36  1  1  0  0  0
 37 35  1  0  0  0  0
 37 38  1  1  0  0  0
 37 39  1  0  0  0  0
 39 40  1  0  0  0  0
 39 41  1  1  0  0  0
 41 34  1  0  0  0  0
M  END
>  <CHROM.1>
-165.66321465,-76.71245742,-159.75830023,161.32382536,176.18585084,160.29359069
179.55675212,179.27314429,172.27992099,-0.49445542,92.23771654,11.52085470
1.07811675,0.49772335,2.02480256

>  <Name>
2fcy_lig

>  <RI>
0

>  <Rbt.Current_Directory>
/home/itssahil/PROJECTS/Mol_Feturizer/New_Systems/rnas/2fcy

>  <Rbt.Executable>
rbdock ($Id: //depot/dev/client3/rdock/2013.1/src/exe/rbdock.cxx#4 $)

>  <Rbt.Library>
libRbt.so (2013.1, Build901 2013/11/27)

>  <Rbt.Parameter_File>
/export/apps/rDock/src/rDock_2013.1_src/data/scripts/dock_solv.prm

>  <Rbt.Receptor>
prm/pocket_docking_2.prm

>  <SCORE>
-21.6748

>  <SCORE.INTER>
-16.8798

>  <SCORE.INTER.CONST>
1

>  <SCORE.INTER.POLAR>
-1.65594

>  <SCORE.INTER.ROT>
9

>  <SCORE.INTER.SOLV>
16.0413

>  <SCORE.INTER.VDW>
-20.6805

>  <SCORE.INTER.norm>
-0.4019

>  <SCORE.INTRA>
-4.79497

>  <SCORE.INTRA.DIHEDRAL>
-9.55785

>  <SCORE.INTRA.DIHEDRAL.0>
17.3446

>  <SCORE.INTRA.POLAR>
0

>  <SCORE.INTRA.POLAR.0>
0

>  <SCORE.INTRA.REPUL>
0

>  <SCORE.INTRA.REPUL.0>
0

>  <SCORE.INTRA.SOLV>
-2.65985

>  <SCORE.INTRA.SOLV.lig_0>
-112.452

>  <SCORE.INTRA.VDW>
1.31388

>  <SCORE.INTRA.VDW.0>
-5.95059

>  <SCORE.INTRA.norm>
-0.114166

>  <SCORE.RESTR>
0

>  <SCORE.RESTR.CAVITY>
0

>  <SCORE.RESTR.norm>
0

>  <SCORE.SYSTEM>
0

>  <SCORE.SYSTEM.CONST>
0

>  <SCORE.SYSTEM.DIHEDRAL>
0

>  <SCORE.SYSTEM.SOLV>
0

>  <SCORE.SYSTEM.norm>
0

>  <SCORE.heavy>
42

>  <SCORE.norm>
-0.516066

>  <RMSD>
0.766

$$$$
2fcy_lig
 OpenBabel11021811433D
libRbt.so/2013.1/901 2013/11/27
 42 45  0  0  0  0  0  0  0  0999 V2000
    0.2556   90.9417   14.4353 C   0  0  2  0  0  0  0  0  0  0  0  0
    0.7573   92.2285   14.8348 O   0  0  0  0  0  0  0  0  0  0  0  0
   -1.1535   90.8535   15.0232 C   0  0  2  0  0  0  0  0  0  0  0  0
   -1.9258   92.0194   14.5728 N   0  0  0  0  0  0  0  0  0  0  0  0
   -1.0719   90.8570   16.5518 C   0  0  1  0  0  0  0  0  0  0  0  0
   -2.3793   90.7708   17.1253 O   0  0  0  0  0  0  0  0  0  0  0  0
   -0.2052   89.6859   17.0157 C   0  0  2  0  0  0  0  0  0  0  0  0
   -0.0510   89.7475   18.4335 O   0  0  0  0  0  0  0  0  0  0  0  0
    1.1801   89.8164   16.3808 C   0  0  2  0  0  0  0  0  0  0  0  0
    1.0512   89.8547   14.9510 O   0  0  0  0  0  0  0  0  0  0  0  0
    2.0546   88.6430   16.8305 C   0  0  0  0  0  0  0  0  0  0  0  0
    3.4684   88.8861   16.5073 N   0  0  0  0  0  0  0  0  0  0  0  0
    3.0575   95.1619   12.8981 C   0  0  2  0  0  0  0  0  0  0  0  0
    4.0420   95.9755   12.1689 N   0  0  0  0  0  0  0  0  0  0  0  0
    3.7070   94.4670   14.0965 C   0  0  0  0  0  0  0  0  0  0  0  0
    2.6108   93.7467   14.8879 C   0  0  2  0  0  0  0  0  0  0  0  0
    3.2233   92.9990   15.9955 N   0  0  0  0  0  0  0  0  0  0  0  0
    1.8280   92.7501   14.0279 C   0  0  2  0  0  0  0  0  0  0  0  0
    1.3461   93.3037   12.6916 C   0  0  2  0  0  0  0  0  0  0  0  0
    1.0019   92.1551   11.9003 O   0  0  0  0  0  0  0  0  0  0  0  0
    2.4425   94.1051   11.9773 C   0  0  1  0  0  0  0  0  0  0  0  0
    1.9164   94.7769   10.8296 O   0  0  0  0  0  0  0  0  0  0  0  0
    0.1769   92.4133   10.7527 C   0  0  1  0  0  0  0  0  0  0  0  0
    0.0263   91.0979    9.9868 C   0  0  2  0  0  0  0  0  0  0  0  0
    1.1547   90.9086    9.1298 O   0  0  0  0  0  0  0  0  0  0  0  0
   -1.1973   91.4542    9.1476 C   0  0  1  0  0  0  0  0  0  0  0  0
   -2.0785   92.0977   10.2066 C   0  0  2  0  0  0  0  0  0  0  0  0
   -1.1736   92.7911   11.0904 O   0  0  0  0  0  0  0  0  0  0  0  0
   -2.8637   91.0028   10.9380 C   0  0  0  0  0  0  0  0  0  0  0  0
   -3.7608   91.5796   11.8914 O   0  0  0  0  0  0  0  0  0  0  0  0
   -1.8204   92.4179    7.1027 C   0  0  2  0  0  0  0  0  0  0  0  0
   -0.8384   92.4235    8.1501 O   0  0  0  0  0  0  0  0  0  0  0  0
   -1.4760   93.4974    6.0716 C   0  0  1  0  0  0  0  0  0  0  0  0
   -6.6037   92.4989    6.3789 N   0  0  0  0  0  0  0  0  0  0  0  0
   -2.5662   93.5779    4.9975 C   0  0  1  0  0  0  0  0  0  0  0  0
   -2.5621   92.3920    4.1964 O   0  0  0  0  0  0  0  0  0  0  0  0
   -3.9353   93.7529    5.6603 C   0  0  2  0  0  0  0  0  0  0  0  0
   -3.9629   95.0227    6.3209 O   0  0  0  0  0  0  0  0  0  0  0  0
   -4.1617   92.6275    6.6754 C   0  0  1  0  0  0  0  0  0  0  0  0
   -3.1216   92.6484    7.6707 O   0  0  0  0  0  0  0  0  0  0  0  0
   -5.5299   92.7464    7.3523 C   0  0  0  0  0  0  0  0  0  0  0  0
   -1.4016   94.7970    6.7561 N   0  0  0  0  0  0  0  0  0  0  0  0
  1  2  1  1  0  0  0
  1  3  1  0  0  0  0
  1 10  1  0  0  0  0
  3  4  1  1  0  0  0
  3  5  1  0  0  0  0
  5  6  1  1  0  0  0
  5  7  1  0  0  0  0
  7  8  1  1  0  0  0
  7  9  1  0  0  0  0
  9 10  1  0  0  0  0
  9 11  1  6  0  0  0
 11 12  1  0  0  0  0
 13 14  1  6  0  0  0
 13 15  1  0  0  0  0
 13 21  1  0  0  0  0
 16 15  1  0  0  0  0
 16 17  1  1  0  0  0
 18  2  1  1  0  0  0
 18 16  1  0  0  0  0
 19 18  1  0  0  0  0
 19 20  1  6  0  0  0
 21 19  1  0  0  0  0
 21 22  1  6  0  0  0
 23 20  1  1  0  0  0
 23 24  1  0  0  0  0
 23 28  1  0  0  0  0
 24 25  1  6  0  0  0
 24 26  1  0  0  0  0
 26 27  1  0  0  0  0
 26 32  1  6  0  0  0
 27 28  1  0  0  0  0
 27 29  1  1  0  0  0
 29 30  1  0  0  0  0
 31 32  1  1  0  0  0
 31 40  1  0  0  0  0
 33 31  1  0  0  0  0
 33 42  1  1  0  0  0
 35 33  1  0  0  0  0
 35 36  1  1  0  0  0
 37 35  1  0  0  0  0
 37 38  1  1  0  0  0
 37 39  1  0  0  0  0
 39 40  1  0  0  0  0
 39 41  1  1  0  0  0
 41 34  1  0  0  0  0
M  END
>  <CHROM.1>
-158.11337655,-166.77305873,-156.09657375,163.09731297,175.23251760,160.43137970
-176.72025614,177.29853835,67.43915732,-0.51206575,92.26442219,11.53140296
1.08367956,0.45635019,2.00742096

>  <Name>
2fcy_lig

>  <RI>
0

>  <Rbt.Current_Directory>
/home/itssahil/PROJECTS/Mol_Feturizer/New_Systems/rnas/2fcy

>  <Rbt.Executable>
rbdock ($Id: //depot/dev/client3/rdock/2013.1/src/exe/rbdock.cxx#4 $)

>  <Rbt.Library>
libRbt.so (2013.1, Build901 2013/11/27)

>  <Rbt.Parameter_File>
/export/apps/rDock/src/rDock_2013.1_src/data/scripts/dock_solv.prm

>  <Rbt.Receptor>
prm/pocket_docking_2.prm

>  <SCORE>
-21.0695

>  <SCORE.INTER>
-16.9334

>  <SCORE.INTER.CONST>
1

>  <SCORE.INTER.POLAR>
-1.71991

>  <SCORE.INTER.ROT>
9

>  <SCORE.INTER.SOLV>
17.4591

>  <SCORE.INTER.VDW>
-20.9756

>  <SCORE.INTER.norm>
-0.403175

>  <SCORE.INTRA>
-4.14005

>  <SCORE.INTRA.DIHEDRAL>
-8.3489

>  <SCORE.INTRA.DIHEDRAL.0>
17.3446

>  <SCORE.INTRA.POLAR>
0

>  <SCORE.INTRA.POLAR.0>
0

>  <SCORE.INTRA.REPUL>
0

>  <SCORE.INTRA.REPUL.0>
0

>  <SCORE.INTRA.SOLV>
-2.72472

>  <SCORE.INTRA.SOLV.lig_0>
-112.452

>  <SCORE.INTRA.VDW>
1.39675

>  <SCORE.INTRA.VDW.0>
-5.95059

>  <SCORE.INTRA.norm>
-0.0985727

>  <SCORE.RESTR>
0.00393404

>  <SCORE.RESTR.CAVITY>
0.00393404

>  <SCORE.RESTR.norm>
9.36676e-05

>  <SCORE.SYSTEM>
0

>  <SCORE.SYSTEM.CONST>
0

>  <SCORE.SYSTEM.DIHEDRAL>
0

>  <SCORE.SYSTEM.SOLV>
0

>  <SCORE.SYSTEM.norm>
0

>  <SCORE.heavy>
42

>  <SCORE.norm>
-0.501654

>  <RMSD>
0.767

$$$$
2fcy_lig
 OpenBabel11021811433D
libRbt.so/2013.1/901 2013/11/27
 42 45  0  0  0  0  0  0  0  0999 V2000
    0.5628   91.1665   14.4507 C   0  0  2  0  0  0  0  0  0  0  0  0
    0.9092   92.5164   14.8044 O   0  0  0  0  0  0  0  0  0  0  0  0
   -0.7586   90.8842   15.1670 C   0  0  2  0  0  0  0  0  0  0  0  0
   -1.7286   91.9223   14.7926 N   0  0  0  0  0  0  0  0  0  0  0  0
   -0.5376   90.9168   16.6814 C   0  0  1  0  0  0  0  0  0  0  0  0
   -1.7605   90.6509   17.3738 O   0  0  0  0  0  0  0  0  0  0  0  0
    0.5274   89.8873   17.0604 C   0  0  2  0  0  0  0  0  0  0  0  0
    0.8013   89.9866   18.4579 O   0  0  0  0  0  0  0  0  0  0  0  0
    1.8150   90.2077   16.2997 C   0  0  2  0  0  0  0  0  0  0  0  0
    1.5505   90.2107   14.8882 O   0  0  0  0  0  0  0  0  0  0  0  0
    2.8867   89.1768   16.6638 C   0  0  0  0  0  0  0  0  0  0  0  0
    2.4855   87.8277   16.2377 N   0  0  0  0  0  0  0  0  0  0  0  0
    3.1676   95.5594   12.9915 C   0  0  2  0  0  0  0  0  0  0  0  0
    4.1501   96.4203   12.3159 N   0  0  0  0  0  0  0  0  0  0  0  0
    3.7835   94.8954   14.2246 C   0  0  0  0  0  0  0  0  0  0  0  0
    2.6817   94.1222   14.9562 C   0  0  2  0  0  0  0  0  0  0  0  0
    3.2682   93.4038   16.0967 N   0  0  0  0  0  0  0  0  0  0  0  0
    1.9960   93.0899   14.0563 C   0  0  2  0  0  0  0  0  0  0  0  0
    1.5616   93.6211   12.6949 C   0  0  2  0  0  0  0  0  0  0  0  0
    1.3169   92.4581   11.8877 O   0  0  0  0  0  0  0  0  0  0  0  0
    2.6555   94.4752   12.0402 C   0  0  1  0  0  0  0  0  0  0  0  0
    2.1611   95.1221   10.8645 O   0  0  0  0  0  0  0  0  0  0  0  0
    0.3605   92.6245   10.8285 C   0  0  1  0  0  0  0  0  0  0  0  0
    0.0465   91.2365   10.2676 C   0  0  2  0  0  0  0  0  0  0  0  0
    1.0410   90.8692    9.3086 O   0  0  0  0  0  0  0  0  0  0  0  0
   -1.2588   91.5643    9.5485 C   0  0  1  0  0  0  0  0  0  0  0  0
   -1.9599   92.3904   10.6154 C   0  0  2  0  0  0  0  0  0  0  0  0
   -0.9135   93.1282   11.2797 O   0  0  0  0  0  0  0  0  0  0  0  0
   -2.6932   91.4484   11.5772 C   0  0  0  0  0  0  0  0  0  0  0  0
   -3.6776   90.6822   10.8770 O   0  0  0  0  0  0  0  0  0  0  0  0
   -2.0736   92.2575    7.4619 C   0  0  2  0  0  0  0  0  0  0  0  0
   -0.9889   92.3765    8.3950 O   0  0  0  0  0  0  0  0  0  0  0  0
   -1.7169   92.9911    6.1651 C   0  0  1  0  0  0  0  0  0  0  0  0
   -5.9344   92.3199    9.0691 N   0  0  0  0  0  0  0  0  0  0  0  0
   -2.9008   92.9638    5.1925 C   0  0  1  0  0  0  0  0  0  0  0  0
   -3.1284   91.6305    4.7248 O   0  0  0  0  0  0  0  0  0  0  0  0
   -4.1574   93.4916    5.8902 C   0  0  2  0  0  0  0  0  0  0  0  0
   -3.9585   94.8745    6.2026 O   0  0  0  0  0  0  0  0  0  0  0  0
   -4.4052   92.6930    7.1744 C   0  0  1  0  0  0  0  0  0  0  0  0
   -3.2670   92.8056    8.0488 O   0  0  0  0  0  0  0  0  0  0  0  0
   -5.6661   93.1703    7.9000 C   0  0  0  0  0  0  0  0  0  0  0  0
   -1.4110   94.3936    6.4853 N   0  0  0  0  0  0  0  0  0  0  0  0
  1  2  1  1  0  0  0
  1  3  1  0  0  0  0
  1 10  1  0  0  0  0
  3  4  1  1  0  0  0
  3  5  1  0  0  0  0
  5  6  1  1  0  0  0
  5  7  1  0  0  0  0
  7  8  1  1  0  0  0
  7  9  1  0  0  0  0
  9 10  1  0  0  0  0
  9 11  1  6  0  0  0
 11 12  1  0  0  0  0
 13 14  1  6  0  0  0
 13 15  1  0  0  0  0
 13 21  1  0  0  0  0
 16 15  1  0  0  0  0
 16 17  1  1  0  0  0
 18  2  1  1  0  0  0
 18 16  1  0  0  0  0
 19 18  1  0  0  0  0
 19 20  1  6  0  0  0
 21 19  1  0  0  0  0
 21 22  1  6  0  0  0
 23 20  1  1  0  0  0
 23 24  1  0  0  0  0
 23 28  1  0  0  0  0
 24 25  1  6  0  0  0
 24 26  1  0  0  0  0
 26 27  1  0  0  0  0
 26 32  1  6  0  0  0
 27 28  1  0  0  0  0
 27 29  1  1  0  0  0
 29 30  1  0  0  0  0
 31 32  1  1  0  0  0
 31 40  1  0  0  0  0
 33 31  1  0  0  0  0
 33 42  1  1  0  0  0
 35 33  1  0  0  0  0
 35 36  1  1  0  0  0
 37 35  1  0  0  0  0
 37 38  1  1  0  0  0
 37 39  1  0  0  0  0
 39 40  1  0  0  0  0
 39 41  1  1  0  0  0
 41 34  1  0  0  0  0
M  END
>  <CHROM.1>
-169.28556309,63.32105151,-151.34736475,152.79835434,-169.50655790,157.88995268
-60.78657038,-173.50587007,175.64122676,-0.38271423,92.33038468,11.70254577
0.98569092,0.54938341,2.07333648

>  <Name>
2fcy_lig

>  <RI>
0

>  <Rbt.Current_Directory>
/home/itssahil/PROJECTS/Mol_Feturizer/New_Systems/rnas/2fcy

>  <Rbt.Executable>
rbdock ($Id: //depot/dev/client3/rdock/2013.1/src/exe/rbdock.cxx#4 $)

>  <Rbt.Library>
libRbt.so (2013.1, Build901 2013/11/27)

>  <Rbt.Parameter_File>
/export/apps/rDock/src/rDock_2013.1_src/data/scripts/dock_solv.prm

>  <Rbt.Receptor>
prm/pocket_docking_2.prm

>  <SCORE>
-15.4631

>  <SCORE.INTER>
-12.0742

>  <SCORE.INTER.CONST>
1

>  <SCORE.INTER.POLAR>
-1.70952

>  <SCORE.INTER.ROT>
9

>  <SCORE.INTER.SOLV>
19.673

>  <SCORE.INTER.VDW>
-18.5088

>  <SCORE.INTER.norm>
-0.287482

>  <SCORE.INTRA>
-3.4426

>  <SCORE.INTRA.DIHEDRAL>
-7.0857

>  <SCORE.INTRA.DIHEDRAL.0>
17.3446

>  <SCORE.INTRA.POLAR>
0

>  <SCORE.INTRA.POLAR.0>
0

>  <SCORE.INTRA.REPUL>
0

>  <SCORE.INTRA.REPUL.0>
0

>  <SCORE.INTRA.SOLV>
-0.748426

>  <SCORE.INTRA.SOLV.lig_0>
-112.452

>  <SCORE.INTRA.VDW>
0.474465

>  <SCORE.INTRA.VDW.0>
-5.95059

>  <SCORE.INTRA.norm>
-0.0819666

>  <SCORE.RESTR>
0.0537783

>  <SCORE.RESTR.CAVITY>
0.0537783

>  <SCORE.RESTR.norm>
0.00128044

>  <SCORE.SYSTEM>
0

>  <SCORE.SYSTEM.CONST>
0

>  <SCORE.SYSTEM.DIHEDRAL>
0

>  <SCORE.SYSTEM.SOLV>
0

>  <SCORE.SYSTEM.norm>
0

>  <SCORE.heavy>
42

>  <SCORE.norm>
-0.368168

>  <RMSD>
0.768

$$$$
2fcy_lig
 OpenBabel11021811433D
libRbt.so/2013.1/901 2013/11/27
 42 45  0  0  0  0  0  0  0  0999 V2000
    0.4224   91.1791   14.4179 C   0  0  2  0  0  0  0  0  0  0  0  0
    1.0072   92.3844   14.9399 O   0  0  0  0  0  0  0  0  0  0  0  0
   -0.9009   91.0112   15.1661 C   0  0  2  0  0  0  0  0  0  0  0  0
   -1.6921   92.2387   15.0054 N   0  0  0  0  0  0  0  0  0  0  0  0
   -0.6224   90.7764   16.6529 C   0  0  1  0  0  0  0  0  0  0  0  0
   -1.8466   90.6120   17.3739 O   0  0  0  0  0  0  0  0  0  0  0  0
    0.2641   89.5410   16.8137 C   0  0  2  0  0  0  0  0  0  0  0  0
    0.6017   89.3804   18.1913 O   0  0  0  0  0  0  0  0  0  0  0  0
    1.5589   89.7583   16.0291 C   0  0  2  0  0  0  0  0  0  0  0  0
    1.2474   90.0193   14.6517 O   0  0  0  0  0  0  0  0  0  0  0  0
    2.4510   88.5228   16.1745 C   0  0  0  0  0  0  0  0  0  0  0  0
    3.0519   88.4623   17.5153 N   0  0  0  0  0  0  0  0  0  0  0  0
    3.2922   95.3743   13.0729 C   0  0  2  0  0  0  0  0  0  0  0  0
    4.2774   96.2118   12.3722 N   0  0  0  0  0  0  0  0  0  0  0  0
    3.9252   94.6898   14.2861 C   0  0  0  0  0  0  0  0  0  0  0  0
    2.8246   93.9428   15.0463 C   0  0  2  0  0  0  0  0  0  0  0  0
    3.4241   93.2051   16.1675 N   0  0  0  0  0  0  0  0  0  0  0  0
    2.0870   92.9322   14.1631 C   0  0  2  0  0  0  0  0  0  0  0  0
    1.6283   93.4796   12.8161 C   0  0  2  0  0  0  0  0  0  0  0  0
    1.3305   92.3264   12.0128 O   0  0  0  0  0  0  0  0  0  0  0  0
    2.7252   94.3074   12.1332 C   0  0  1  0  0  0  0  0  0  0  0  0
    2.2148   94.9713   10.9740 O   0  0  0  0  0  0  0  0  0  0  0  0
    0.3762   92.5309   10.9583 C   0  0  1  0  0  0  0  0  0  0  0  0
    0.0902   91.1688   10.3238 C   0  0  2  0  0  0  0  0  0  0  0  0
    1.0957   90.8702    9.3525 O   0  0  0  0  0  0  0  0  0  0  0  0
   -1.2176   91.5103    9.6156 C   0  0  1  0  0  0  0  0  0  0  0  0
   -1.9386   92.2666   10.7203 C   0  0  2  0  0  0  0  0  0  0  0  0
   -0.9089   92.9872   11.4282 O   0  0  0  0  0  0  0  0  0  0  0  0
   -2.6590   91.2623   11.6273 C   0  0  0  0  0  0  0  0  0  0  0  0
   -3.7045   90.5987   10.9112 O   0  0  0  0  0  0  0  0  0  0  0  0
   -2.0430   92.3097    7.5716 C   0  0  2  0  0  0  0  0  0  0  0  0
   -0.9571   92.3866    8.5076 O   0  0  0  0  0  0  0  0  0  0  0  0
   -1.6934   93.1119    6.3140 C   0  0  1  0  0  0  0  0  0  0  0  0
   -6.8355   92.8999    7.2527 N   0  0  0  0  0  0  0  0  0  0  0  0
   -2.8792   93.1280    5.3434 C   0  0  1  0  0  0  0  0  0  0  0  0
   -3.0996   91.8194    4.8074 O   0  0  0  0  0  0  0  0  0  0  0  0
   -4.1375   93.6111    6.0698 C   0  0  2  0  0  0  0  0  0  0  0  0
   -3.9463   94.9770    6.4534 O   0  0  0  0  0  0  0  0  0  0  0  0
   -4.3777   92.7453    7.3112 C   0  0  1  0  0  0  0  0  0  0  0  0
   -3.2385   92.8192    8.1883 O   0  0  0  0  0  0  0  0  0  0  0  0
   -5.6400   93.1764    8.0629 C   0  0  0  0  0  0  0  0  0  0  0  0
   -1.3953   94.4977    6.7062 N   0  0  0  0  0  0  0  0  0  0  0  0
  1  2  1  1  0  0  0
  1  3  1  0  0  0  0
  1 10  1  0  0  0  0
  3  4  1  1  0  0  0
  3  5  1  0  0  0  0
  5  6  1  1  0  0  0
  5  7  1  0  0  0  0
  7  8  1  1  0  0  0
  7  9  1  0  0  0  0
  9 10  1  0  0  0  0
  9 11  1  6  0  0  0
 11 12  1  0  0  0  0
 13 14  1  6  0  0  0
 13 15  1  0  0  0  0
 13 21  1  0  0  0  0
 16 15  1  0  0  0  0
 16 17  1  1  0  0  0
 18  2  1  1  0  0  0
 18 16  1  0  0  0  0
 19 18  1  0  0  0  0
 19 20  1  6  0  0  0
 21 19  1  0  0  0  0
 21 22  1  6  0  0  0
 23 20  1  1  0  0  0
 23 24  1  0  0  0  0
 23 28  1  0  0  0  0
 24 25  1  6  0  0  0
 24 26  1  0  0  0  0
 26 27  1  0  0  0  0
 26 32  1  6  0  0  0
 27 28  1  0  0  0  0
 27 29  1  1  0  0  0
 29 30  1  0  0  0  0
 31 32  1  1  0  0  0
 31 40  1  0  0  0  0
 33 31  1  0  0  0  0
 33 42  1  1  0  0  0
 35 33  1  0  0  0  0
 35 36  1  1  0  0  0
 37 35  1  0  0  0  0
 37 38  1  1  0  0  0
 37 39  1  0  0  0  0
 39 40  1  0  0  0  0
 39 41  1  1  0  0  0
 41 34  1  0  0  0  0
M  END
>  <CHROM.1>
-165.01737247,-73.81392908,-164.28260793,154.42636761,-174.19470302,158.60006460
-65.80783298,-173.30331126,67.04122306,-0.39918990,92.27174791,11.73804860
0.98328594,0.51606445,2.08664633

>  <Name>
2fcy_lig

>  <RI>
0

>  <Rbt.Current_Directory>
/home/itssahil/PROJECTS/Mol_Feturizer/New_Systems/rnas/2fcy

>  <Rbt.Executable>
rbdock ($Id: //depot/dev/client3/rdock/2013.1/src/exe/rbdock.cxx#4 $)

>  <Rbt.Library>
libRbt.so (2013.1, Build901 2013/11/27)

>  <Rbt.Parameter_File>
/export/apps/rDock/src/rDock_2013.1_src/data/scripts/dock_solv.prm

>  <Rbt.Receptor>
prm/pocket_docking_2.prm

>  <SCORE>
-21.3925

>  <SCORE.INTER>
-16.7613

>  <SCORE.INTER.CONST>
1

>  <SCORE.INTER.POLAR>
-1.74256

>  <SCORE.INTER.ROT>
9

>  <SCORE.INTER.SOLV>
16.4571

>  <SCORE.INTER.VDW>
-20.4514

>  <SCORE.INTER.norm>
-0.399079

>  <SCORE.INTRA>
-4.67436

>  <SCORE.INTRA.DIHEDRAL>
-8.58686

>  <SCORE.INTRA.DIHEDRAL.0>
17.3446

>  <SCORE.INTRA.POLAR>
0

>  <SCORE.INTRA.POLAR.0>
0

>  <SCORE.INTRA.REPUL>
0

>  <SCORE.INTRA.REPUL.0>
0

>  <SCORE.INTRA.SOLV>
-2.95624

>  <SCORE.INTRA.SOLV.lig_0>
-112.452

>  <SCORE.INTRA.VDW>
1.09719

>  <SCORE.INTRA.VDW.0>
-5.95059

>  <SCORE.INTRA.norm>
-0.111294

>  <SCORE.RESTR>
0.0431907

>  <SCORE.RESTR.CAVITY>
0.0431907

>  <SCORE.RESTR.norm>
0.00102835

>  <SCORE.SYSTEM>
0

>  <SCORE.SYSTEM.CONST>
0

>  <SCORE.SYSTEM.DIHEDRAL>
0

>  <SCORE.SYSTEM.SOLV>
0

>  <SCORE.SYSTEM.norm>
0

>  <SCORE.heavy>
42

>  <SCORE.norm>
-0.509345

>  <RMSD>
0.770

$$$$
2fcy_lig
 OpenBabel11021811433D
libRbt.so/2013.1/901 2013/11/27
 42 45  0  0  0  0  0  0  0  0999 V2000
    0.2923   91.0328   14.3771 C   0  0  2  0  0  0  0  0  0  0  0  0
    0.8441   92.2765   14.8416 O   0  0  0  0  0  0  0  0  0  0  0  0
   -1.0048   90.8432   15.1649 C   0  0  2  0  0  0  0  0  0  0  0  0
   -1.8453   92.0344   14.9823 N   0  0  0  0  0  0  0  0  0  0  0  0
   -0.6810   90.6719   16.6512 C   0  0  1  0  0  0  0  0  0  0  0  0
   -1.8800   90.4885   17.4091 O   0  0  0  0  0  0  0  0  0  0  0  0
    0.2550   89.4764   16.8315 C   0  0  2  0  0  0  0  0  0  0  0  0
    0.6324   89.3774   18.2046 O   0  0  0  0  0  0  0  0  0  0  0  0
    1.5208   89.7129   16.0064 C   0  0  2  0  0  0  0  0  0  0  0  0
    1.1658   89.9130   14.6293 O   0  0  0  0  0  0  0  0  0  0  0  0
    2.4621   88.5168   16.1712 C   0  0  0  0  0  0  0  0  0  0  0  0
    3.0645   88.5021   17.5127 N   0  0  0  0  0  0  0  0  0  0  0  0
    3.0991   95.2469   12.9081 C   0  0  2  0  0  0  0  0  0  0  0  0
    4.0722   96.0768   12.1819 N   0  0  0  0  0  0  0  0  0  0  0  0
    3.7544   94.5692   14.1131 C   0  0  0  0  0  0  0  0  0  0  0  0
    2.6674   93.8306   14.9005 C   0  0  2  0  0  0  0  0  0  0  0  0
    3.2874   93.0991   16.0147 N   0  0  0  0  0  0  0  0  0  0  0  0
    1.9096   92.8159   14.0394 C   0  0  2  0  0  0  0  0  0  0  0  0
    1.4254   93.3551   12.6981 C   0  0  2  0  0  0  0  0  0  0  0  0
    1.1085   92.1971   11.9090 O   0  0  0  0  0  0  0  0  0  0  0  0
    2.5105   94.1751   11.9875 C   0  0  1  0  0  0  0  0  0  0  0  0
    1.9787   94.8323   10.8340 O   0  0  0  0  0  0  0  0  0  0  0  0
    0.2391   92.4255   10.7882 C   0  0  1  0  0  0  0  0  0  0  0  0
    0.0727   91.0940   10.0539 C   0  0  2  0  0  0  0  0  0  0  0  0
    1.1704   90.8978    9.1593 O   0  0  0  0  0  0  0  0  0  0  0  0
   -1.1845   91.4230    9.2541 C   0  0  1  0  0  0  0  0  0  0  0  0
   -2.0319   92.0794   10.3326 C   0  0  2  0  0  0  0  0  0  0  0  0
   -1.1014   92.7979   11.1685 O   0  0  0  0  0  0  0  0  0  0  0  0
   -2.7790   90.9922   11.1138 C   0  0  0  0  0  0  0  0  0  0  0  0
   -3.6770   91.5803   12.0593 O   0  0  0  0  0  0  0  0  0  0  0  0
   -1.9111   92.3676    7.2347 C   0  0  2  0  0  0  0  0  0  0  0  0
   -0.8719   92.3756    8.2254 O   0  0  0  0  0  0  0  0  0  0  0  0
   -1.5643   93.3601    6.1203 C   0  0  1  0  0  0  0  0  0  0  0  0
   -6.7144   92.7306    6.7558 N   0  0  0  0  0  0  0  0  0  0  0  0
   -2.7077   93.4430    5.1034 C   0  0  1  0  0  0  0  0  0  0  0  0
   -2.8185   92.2132    4.3798 O   0  0  0  0  0  0  0  0  0  0  0  0
   -4.0241   93.7412    5.8263 C   0  0  2  0  0  0  0  0  0  0  0  0
   -3.9401   95.0477    6.4057 O   0  0  0  0  0  0  0  0  0  0  0  0
   -4.2569   92.6947    6.9212 C   0  0  1  0  0  0  0  0  0  0  0  0
   -3.1620   92.7113    7.8559 O   0  0  0  0  0  0  0  0  0  0  0  0
   -5.5749   92.9378    7.6616 C   0  0  0  0  0  0  0  0  0  0  0  0
   -1.3755   94.6914    6.7163 N   0  0  0  0  0  0  0  0  0  0  0  0
  1  2  1  1  0  0  0
  1  3  1  0  0  0  0
  1 10  1  0  0  0  0
  3  4  1  1  0  0  0
  3  5  1  0  0  0  0
  5  6  1  1  0  0  0
  5  7  1  0  0  0  0
  7  8  1  1  0  0  0
  7  9  1  0  0  0  0
  9 10  1  0  0  0  0
  9 11  1  6  0  0  0
 11 12  1  0  0  0  0
 13 14  1  6  0  0  0
 13 15  1  0  0  0  0
 13 21  1  0  0  0  0
 16 15  1  0  0  0  0
 16 17  1  1  0  0  0
 18  2  1  1  0  0  0
 18 16  1  0  0  0  0
 19 18  1  0  0  0  0
 19 20  1  6  0  0  0
 21 19  1  0  0  0  0
 21 22  1  6  0  0  0
 23 20  1  1  0  0  0
 23 24  1  0  0  0  0
 23 28  1  0  0  0  0
 24 25  1  6  0  0  0
 24 26  1  0  0  0  0
 26 27  1  0  0  0  0
 26 32  1  6  0  0  0
 27 28  1  0  0  0  0
 27 29  1  1  0  0  0
 29 30  1  0  0  0  0
 31 32  1  1  0  0  0
 31 40  1  0  0  0  0
 33 31  1  0  0  0  0
 33 42  1  1  0  0  0
 35 33  1  0  0  0  0
 35 36  1  1  0  0  0
 37 35  1  0  0  0  0
 37 38  1  1  0  0  0
 37 39  1  0  0  0  0
 39 40  1  0  0  0  0
 39 41  1  1  0  0  0
 41 34  1  0  0  0  0
M  END
>  <CHROM.1>
-166.74293654,-71.97746587,-161.20525425,160.53397863,177.76282678,162.04057099
-174.88368571,-178.73328323,66.07049094,-0.43982434,92.24319567,11.60010113
1.04455913,0.48796194,2.05848380

>  <Name>
2fcy_lig

>  <RI>
0

>  <Rbt.Current_Directory>
/home/itssahil/PROJECTS/Mol_Feturizer/New_Systems/rnas/2fcy

>  <Rbt.Executable>
rbdock ($Id: //depot/dev/client3/rdock/2013.1/src/exe/rbdock.cxx#4 $)

>  <Rbt.Library>
libRbt.so (2013.1, Build901 2013/11/27)

>  <Rbt.Parameter_File>
/export/apps/rDock/src/rDock_2013.1_src/data/scripts/dock_solv.prm

>  <Rbt.Receptor>
prm/pocket_docking_2.prm

>  <SCORE>
-21.664

>  <SCORE.INTER>
-16.5416

>  <SCORE.INTER.CONST>
1

>  <SCORE.INTER.POLAR>
-1.69405

>  <SCORE.INTER.ROT>
9

>  <SCORE.INTER.SOLV>
16.3464

>  <SCORE.INTER.VDW>
-20.4297

>  <SCORE.INTER.norm>
-0.393848

>  <SCORE.INTRA>
-5.15384

>  <SCORE.INTRA.DIHEDRAL>
-10.5245

>  <SCORE.INTRA.DIHEDRAL.0>
17.3446

>  <SCORE.INTRA.POLAR>
0

>  <SCORE.INTRA.POLAR.0>
0

>  <SCORE.INTRA.REPUL>
0

>  <SCORE.INTRA.REPUL.0>
0

>  <SCORE.INTRA.SOLV>
-3.03406

>  <SCORE.INTRA.SOLV.lig_0>
-112.452

>  <SCORE.INTRA.VDW>
1.62545

>  <SCORE.INTRA.VDW.0>
-5.95059

>  <SCORE.INTRA.norm>
-0.12271

>  <SCORE.RESTR>
0.0314263

>  <SCORE.RESTR.CAVITY>
0.0314263

>  <SCORE.RESTR.norm>
0.000748246

>  <SCORE.SYSTEM>
0

>  <SCORE.SYSTEM.CONST>
0

>  <SCORE.SYSTEM.DIHEDRAL>
0

>  <SCORE.SYSTEM.SOLV>
0

>  <SCORE.SYSTEM.norm>
0

>  <SCORE.heavy>
42

>  <SCORE.norm>
-0.51581

>  <RMSD>
0.779

$$$$
2fcy_lig
 OpenBabel11021811433D
libRbt.so/2013.1/901 2013/11/27
 42 45  0  0  0  0  0  0  0  0999 V2000
    0.0615   91.1377   14.3010 C   0  0  2  0  0  0  0  0  0  0  0  0
    0.6213   92.3905   14.7305 O   0  0  0  0  0  0  0  0  0  0  0  0
   -1.2594   91.0004   15.0594 C   0  0  2  0  0  0  0  0  0  0  0  0
   -2.0747   92.1963   14.8061 N   0  0  0  0  0  0  0  0  0  0  0  0
   -0.9790   90.8844   16.5598 C   0  0  1  0  0  0  0  0  0  0  0  0
   -2.2010   90.7505   17.2909 O   0  0  0  0  0  0  0  0  0  0  0  0
   -0.0684   89.6826   16.8137 C   0  0  2  0  0  0  0  0  0  0  0  0
    0.2699   89.6334   18.1997 O   0  0  0  0  0  0  0  0  0  0  0  0
    1.2232   89.8658   16.0153 C   0  0  2  0  0  0  0  0  0  0  0  0
    0.9090   90.0156   14.6220 O   0  0  0  0  0  0  0  0  0  0  0  0
    2.1395   88.6628   16.2539 C   0  0  0  0  0  0  0  0  0  0  0  0
    2.7457   88.7204   17.5925 N   0  0  0  0  0  0  0  0  0  0  0  0
    2.9302   95.2682   12.7220 C   0  0  2  0  0  0  0  0  0  0  0  0
    3.9211   96.0624   11.9801 N   0  0  0  0  0  0  0  0  0  0  0  0
    3.5621   94.6302   13.9609 C   0  0  0  0  0  0  0  0  0  0  0  0
    2.4572   93.9304   14.7589 C   0  0  2  0  0  0  0  0  0  0  0  0
    3.0545   93.2357   15.9084 N   0  0  0  0  0  0  0  0  0  0  0  0
    1.7030   92.8908   13.9248 C   0  0  2  0  0  0  0  0  0  0  0  0
    1.2431   93.3839   12.5574 C   0  0  2  0  0  0  0  0  0  0  0  0
    0.9274   92.2000   11.8071 O   0  0  0  0  0  0  0  0  0  0  0  0
    2.3456   94.1678   11.8331 C   0  0  1  0  0  0  0  0  0  0  0  0
    1.8364   94.7861   10.6484 O   0  0  0  0  0  0  0  0  0  0  0  0
    0.1213   92.4015   10.6350 C   0  0  1  0  0  0  0  0  0  0  0  0
    0.0389   91.0648    9.8959 C   0  0  2  0  0  0  0  0  0  0  0  0
    1.1941   90.9000    9.0701 O   0  0  0  0  0  0  0  0  0  0  0  0
   -1.1765   91.3558    9.0203 C   0  0  1  0  0  0  0  0  0  0  0  0
   -2.1067   91.9883   10.0435 C   0  0  2  0  0  0  0  0  0  0  0  0
   -1.2502   92.7348   10.9322 O   0  0  0  0  0  0  0  0  0  0  0  0
   -2.8677   90.8805   10.7810 C   0  0  0  0  0  0  0  0  0  0  0  0
   -3.8159   91.4434   11.6923 O   0  0  0  0  0  0  0  0  0  0  0  0
   -1.8068   92.2768    6.9581 C   0  0  2  0  0  0  0  0  0  0  0  0
   -0.8301   92.3161    8.0097 O   0  0  0  0  0  0  0  0  0  0  0  0
   -1.4686   93.3367    5.9048 C   0  0  1  0  0  0  0  0  0  0  0  0
   -5.7408   91.4451    8.1016 N   0  0  0  0  0  0  0  0  0  0  0  0
   -2.5542   93.3818    4.8241 C   0  0  1  0  0  0  0  0  0  0  0  0
   -2.5338   92.1785    4.0496 O   0  0  0  0  0  0  0  0  0  0  0  0
   -3.9283   93.5571    5.4763 C   0  0  2  0  0  0  0  0  0  0  0  0
   -3.9725   94.8410    6.1083 O   0  0  0  0  0  0  0  0  0  0  0  0
   -4.1481   92.4522    6.5151 C   0  0  1  0  0  0  0  0  0  0  0  0
   -3.1132   92.5063    7.5146 O   0  0  0  0  0  0  0  0  0  0  0  0
   -5.5208   92.5717    7.1828 C   0  0  0  0  0  0  0  0  0  0  0  0
   -1.4111   94.6519    6.5605 N   0  0  0  0  0  0  0  0  0  0  0  0
  1  2  1  1  0  0  0
  1  3  1  0  0  0  0
  1 10  1  0  0  0  0
  3  4  1  1  0  0  0
  3  5  1  0  0  0  0
  5  6  1  1  0  0  0
  5  7  1  0  0  0  0
  7  8  1  1  0  0  0
  7  9  1  0  0  0  0
  9 10  1  0  0  0  0
  9 11  1  6  0  0  0
 11 12  1  0  0  0  0
 13 14  1  6  0  0  0
 13 15  1  0  0  0  0
 13 21  1  0  0  0  0
 16 15  1  0  0  0  0
 16 17  1  1  0  0  0
 18  2  1  1  0  0  0
 18 16  1  0  0  0  0
 19 18  1  0  0  0  0
 19 20  1  6  0  0  0
 21 19  1  0  0  0  0
 21 22  1  6  0  0  0
 23 20  1  1  0  0  0
 23 24  1  0  0  0  0
 23 28  1  0  0  0  0
 24 25  1  6  0  0  0
 24 26  1  0  0  0  0
 26 27  1  0  0  0  0
 26 32  1  6  0  0  0
 27 28  1  0  0  0  0
 27 29  1  1  0  0  0
 29 30  1  0  0  0  0
 31 32  1  1  0  0  0
 31 40  1  0  0  0  0
 33 31  1  0  0  0  0
 33 42  1  1  0  0  0
 35 33  1  0  0  0  0
 35 36  1  1  0  0  0
 37 35  1  0  0  0  0
 37 38  1  1  0  0  0
 37 39  1  0  0  0  0
 39 40  1  0  0  0  0
 39 41  1  1  0  0  0
 41 34  1  0  0  0  0
M  END
>  <CHROM.1>
-165.79370966,-74.17124704,-161.45349152,162.97328122,173.40102518,162.06771123
-176.27818262,177.88163643,175.93881213,-0.53410975,92.22231852,11.45927515
1.09752346,0.51709790,2.00257540

>  <Name>
2fcy_lig

>  <RI>
0

>  <Rbt.Current_Directory>
/home/itssahil/PROJECTS/Mol_Feturizer/New_Systems/rnas/2fcy

>  <Rbt.Executable>
rbdock ($Id: //depot/dev/client3/rdock/2013.1/src/exe/rbdock.cxx#4 $)

>  <Rbt.Library>
libRbt.so (2013.1, Build901 2013/11/27)

>  <Rbt.Parameter_File>
/export/apps/rDock/src/rDock_2013.1_src/data/scripts/dock_solv.prm

>  <Rbt.Receptor>
prm/pocket_docking_2.prm

>  <SCORE>
-21.6825

>  <SCORE.INTER>
-16.745

>  <SCORE.INTER.CONST>
1

>  <SCORE.INTER.POLAR>
-1.67417

>  <SCORE.INTER.ROT>
9

>  <SCORE.INTER.SOLV>
15.784

>  <SCORE.INTER.VDW>
-20.4442

>  <SCORE.INTER.norm>
-0.398692

>  <SCORE.INTRA>
-4.93749

>  <SCORE.INTRA.DIHEDRAL>
-10.5411

>  <SCORE.INTRA.DIHEDRAL.0>
17.3446

>  <SCORE.INTRA.POLAR>
0

>  <SCORE.INTRA.POLAR.0>
0

>  <SCORE.INTRA.REPUL>
0

>  <SCORE.INTRA.REPUL.0>
0

>  <SCORE.INTRA.SOLV>
-2.63785

>  <SCORE.INTRA.SOLV.lig_0>
-112.452

>  <SCORE.INTRA.VDW>
1.652

>  <SCORE.INTRA.VDW.0>
-5.95059

>  <SCORE.INTRA.norm>
-0.117559

>  <SCORE.RESTR>
0

>  <SCORE.RESTR.CAVITY>
0

>  <SCORE.RESTR.norm>
0

>  <SCORE.SYSTEM>
0

>  <SCORE.SYSTEM.CONST>
0

>  <SCORE.SYSTEM.DIHEDRAL>
0

>  <SCORE.SYSTEM.SOLV>
0

>  <SCORE.SYSTEM.norm>
0

>  <SCORE.heavy>
42

>  <SCORE.norm>
-0.516251

>  <RMSD>
0.807

$$$$
2fcy_lig
 OpenBabel11021811433D
libRbt.so/2013.1/901 2013/11/27
 42 45  0  0  0  0  0  0  0  0999 V2000
    0.1433   91.0993   14.2816 C   0  0  2  0  0  0  0  0  0  0  0  0
    0.6883   92.3559   14.7190 O   0  0  0  0  0  0  0  0  0  0  0  0
   -1.1734   90.9394   15.0430 C   0  0  2  0  0  0  0  0  0  0  0  0
   -2.0046   92.1265   14.8013 N   0  0  0  0  0  0  0  0  0  0  0  0
   -0.8867   90.8156   16.5416 C   0  0  1  0  0  0  0  0  0  0  0  0
   -2.1046   90.6605   17.2753 O   0  0  0  0  0  0  0  0  0  0  0  0
    0.0400   89.6237   16.7836 C   0  0  2  0  0  0  0  0  0  0  0  0
    0.3833   89.5684   18.1681 O   0  0  0  0  0  0  0  0  0  0  0  0
    1.3266   89.8295   15.9827 C   0  0  2  0  0  0  0  0  0  0  0  0
    1.0061   89.9858   14.5915 O   0  0  0  0  0  0  0  0  0  0  0  0
    2.2590   88.6366   16.2093 C   0  0  0  0  0  0  0  0  0  0  0  0
    2.9086   88.7192   17.5260 N   0  0  0  0  0  0  0  0  0  0  0  0
    2.9226   95.2994   12.7214 C   0  0  2  0  0  0  0  0  0  0  0  0
    3.8894   96.1199   11.9765 N   0  0  0  0  0  0  0  0  0  0  0  0
    3.5846   94.6490   13.9378 C   0  0  0  0  0  0  0  0  0  0  0  0
    2.5035   93.9204   14.7424 C   0  0  2  0  0  0  0  0  0  0  0  0
    3.1301   93.2143   15.8692 N   0  0  0  0  0  0  0  0  0  0  0  0
    1.7489   92.8849   13.9035 C   0  0  2  0  0  0  0  0  0  0  0  0
    1.2585   93.3950   12.5531 C   0  0  2  0  0  0  0  0  0  0  0  0
    0.9458   92.2200   11.7878 O   0  0  0  0  0  0  0  0  0  0  0  0
    2.3374   94.2065   11.8236 C   0  0  1  0  0  0  0  0  0  0  0  0
    1.7993   94.8380   10.6589 O   0  0  0  0  0  0  0  0  0  0  0  0
    0.1269   92.4322   10.6265 C   0  0  1  0  0  0  0  0  0  0  0  0
    0.0214   91.0981    9.8858 C   0  0  2  0  0  0  0  0  0  0  0  0
    1.1642   90.9233    9.0449 O   0  0  0  0  0  0  0  0  0  0  0  0
   -1.2021   91.4033    9.0265 C   0  0  1  0  0  0  0  0  0  0  0  0
   -2.1126   92.0430   10.0628 C   0  0  2  0  0  0  0  0  0  0  0  0
   -1.2372   92.7788   10.9419 O   0  0  0  0  0  0  0  0  0  0  0  0
   -2.8754   90.9415   10.8078 C   0  0  0  0  0  0  0  0  0  0  0  0
   -3.8213   91.5120   11.7167 O   0  0  0  0  0  0  0  0  0  0  0  0
   -1.8304   92.3106    6.9576 C   0  0  2  0  0  0  0  0  0  0  0  0
   -0.8589   92.3622    8.0135 O   0  0  0  0  0  0  0  0  0  0  0  0
   -1.4674   93.3340    5.8768 C   0  0  1  0  0  0  0  0  0  0  0  0
   -5.6185   93.9658    7.8573 N   0  0  0  0  0  0  0  0  0  0  0  0
   -2.5461   93.3680    4.7888 C   0  0  1  0  0  0  0  0  0  0  0  0
   -2.5432   92.1430    4.0487 O   0  0  0  0  0  0  0  0  0  0  0  0
   -3.9203   93.5863    5.4277 C   0  0  2  0  0  0  0  0  0  0  0  0
   -3.9447   94.8880    6.0229 O   0  0  0  0  0  0  0  0  0  0  0  0
   -4.1657   92.5153    6.4959 C   0  0  1  0  0  0  0  0  0  0  0  0
   -3.1354   92.5791    7.4996 O   0  0  0  0  0  0  0  0  0  0  0  0
   -5.5396   92.6782    7.1517 C   0  0  0  0  0  0  0  0  0  0  0  0
   -1.3897   94.6660    6.4956 N   0  0  0  0  0  0  0  0  0  0  0  0
  1  2  1  1  0  0  0
  1  3  1  0  0  0  0
  1 10  1  0  0  0  0
  3  4  1  1  0  0  0
  3  5  1  0  0  0  0
  5  6  1  1  0  0  0
  5  7  1  0  0  0  0
  7  8  1  1  0  0  0
  7  9  1  0  0  0  0
  9 10  1  0  0  0  0
  9 11  1  6  0  0  0
 11 12  1  0  0  0  0
 13 14  1  6  0  0  0
 13 15  1  0  0  0  0
 13 21  1  0  0  0  0
 16 15  1  0  0  0  0
 16 17  1  1  0  0  0
 18  2  1  1  0  0  0
 18 16  1  0  0  0  0
 19 18  1  0  0  0  0
 19 20  1  6  0  0  0
 21 19  1  0  0  0  0
 21 22  1  6  0  0  0
 23 20  1  1  0  0  0
 23 24  1  0  0  0  0
 23 28  1  0  0  0  0
 24 25  1  6  0  0  0
 24 26  1  0  0  0  0
 26 27  1  0  0  0  0
 26 32  1  6  0  0  0
 27 28  1  0  0  0  0
 27 29  1  1  0  0  0
 29 30  1  0  0  0  0
 31 32  1  1  0  0  0
 31 40  1  0  0  0  0
 33 31  1  0  0  0  0
 33 42  1  1  0  0  0
 35 33  1  0  0  0  0
 35 36  1  1  0  0  0
 37 35  1  0  0  0  0
 37 38  1  1  0  0  0
 37 39  1  0  0  0  0
 39 40  1  0  0  0  0
 39 41  1  1  0  0  0
 41 34  1  0  0  0  0
M  END
>  <CHROM.1>
-164.99471936,-76.36491508,-161.11585560,163.52507557,174.73039034,160.57582961
-175.34777478,179.91881769,-62.96091249,-0.50258833,92.28978723,11.43618867
1.09588131,0.49759462,2.02252946

>  <Name>
2fcy_lig

>  <RI>
0

>  <Rbt.Current_Directory>
/home/itssahil/PROJECTS/Mol_Feturizer/New_Systems/rnas/2fcy

>  <Rbt.Executable>
rbdock ($Id: //depot/dev/client3/rdock/2013.1/src/exe/rbdock.cxx#4 $)

>  <Rbt.Library>
libRbt.so (2013.1, Build901 2013/11/27)

>  <Rbt.Parameter_File>
/export/apps/rDock/src/rDock_2013.1_src/data/scripts/dock_solv.prm

>  <Rbt.Receptor>
prm/pocket_docking_2.prm

>  <SCORE>
-21.0027

>  <SCORE.INTER>
-16.8403

>  <SCORE.INTER.CONST>
1

>  <SCORE.INTER.POLAR>
-1.64564

>  <SCORE.INTER.ROT>
9

>  <SCORE.INTER.SOLV>
15.2498

>  <SCORE.INTER.VDW>
-20.4246

>  <SCORE.INTER.norm>
-0.400959

>  <SCORE.INTRA>
-4.17632

>  <SCORE.INTRA.DIHEDRAL>
-10.1384

>  <SCORE.INTRA.DIHEDRAL.0>
17.3446

>  <SCORE.INTRA.POLAR>
0

>  <SCORE.INTRA.POLAR.0>
0

>  <SCORE.INTRA.REPUL>
0

>  <SCORE.INTRA.REPUL.0>
0

>  <SCORE.INTRA.SOLV>
-1.67658

>  <SCORE.INTRA.SOLV.lig_0>
-112.452

>  <SCORE.INTRA.VDW>
1.73116

>  <SCORE.INTRA.VDW.0>
-5.95059

>  <SCORE.INTRA.norm>
-0.0994361

>  <SCORE.RESTR>
0.0138977

>  <SCORE.RESTR.CAVITY>
0.0138977

>  <SCORE.RESTR.norm>
0.000330898

>  <SCORE.SYSTEM>
0

>  <SCORE.SYSTEM.CONST>
0

>  <SCORE.SYSTEM.DIHEDRAL>
0

>  <SCORE.SYSTEM.SOLV>
0

>  <SCORE.SYSTEM.norm>
0

>  <SCORE.heavy>
42

>  <SCORE.norm>
-0.500064

>  <RMSD>
0.809

$$$$
2fcy_lig
 OpenBabel11021811433D
libRbt.so/2013.1/901 2013/11/27
 42 45  0  0  0  0  0  0  0  0999 V2000
    0.4024   90.9646   14.4605 C   0  0  2  0  0  0  0  0  0  0  0  0
    0.8978   92.2394   14.9040 O   0  0  0  0  0  0  0  0  0  0  0  0
   -1.0105   90.8543   15.0354 C   0  0  2  0  0  0  0  0  0  0  0  0
   -1.7828   92.0319   14.6166 N   0  0  0  0  0  0  0  0  0  0  0  0
   -0.9395   90.8096   16.5638 C   0  0  1  0  0  0  0  0  0  0  0  0
   -2.2506   90.7020   17.1251 O   0  0  0  0  0  0  0  0  0  0  0  0
   -0.0728   89.6266   16.9966 C   0  0  2  0  0  0  0  0  0  0  0  0
    0.0713   89.6438   18.4167 O   0  0  0  0  0  0  0  0  0  0  0  0
    1.3166   89.7808   16.3759 C   0  0  2  0  0  0  0  0  0  0  0  0
    1.1975   89.8640   14.9472 O   0  0  0  0  0  0  0  0  0  0  0  0
    2.1911   88.5960   16.7944 C   0  0  0  0  0  0  0  0  0  0  0  0
    3.6104   88.8670   16.5210 N   0  0  0  0  0  0  0  0  0  0  0  0
    3.1541   95.1906   12.9428 C   0  0  2  0  0  0  0  0  0  0  0  0
    4.1379   96.0190   12.2295 N   0  0  0  0  0  0  0  0  0  0  0  0
    3.7602   94.6049   14.2197 C   0  0  0  0  0  0  0  0  0  0  0  0
    2.6557   93.8663   14.9824 C   0  0  2  0  0  0  0  0  0  0  0  0
    3.2340   93.2207   16.1696 N   0  0  0  0  0  0  0  0  0  0  0  0
    1.9891   92.7776   14.1364 C   0  0  2  0  0  0  0  0  0  0  0  0
    1.5670   93.2248   12.7413 C   0  0  2  0  0  0  0  0  0  0  0  0
    1.3412   92.0146   12.0007 O   0  0  0  0  0  0  0  0  0  0  0  0
    2.6620   94.0485   12.0505 C   0  0  1  0  0  0  0  0  0  0  0  0
    2.1768   94.6215   10.8334 O   0  0  0  0  0  0  0  0  0  0  0  0
    0.3733   92.1028   10.9425 C   0  0  1  0  0  0  0  0  0  0  0  0
    0.2239   90.7067   10.3357 C   0  0  2  0  0  0  0  0  0  0  0  0
    1.2556   90.4890    9.3704 O   0  0  0  0  0  0  0  0  0  0  0  0
   -1.1098   90.9035    9.6209 C   0  0  1  0  0  0  0  0  0  0  0  0
   -1.9038   91.6073   10.7102 C   0  0  2  0  0  0  0  0  0  0  0  0
   -0.9513   92.4399   11.4032 O   0  0  0  0  0  0  0  0  0  0  0  0
   -2.5235   90.5556   11.6375 C   0  0  0  0  0  0  0  0  0  0  0  0
   -3.4122   89.7041   10.9083 O   0  0  0  0  0  0  0  0  0  0  0  0
   -2.0954   91.7119    7.6527 C   0  0  2  0  0  0  0  0  0  0  0  0
   -0.9348   91.7787    8.4954 O   0  0  0  0  0  0  0  0  0  0  0  0
   -1.7831   92.3564    6.2984 C   0  0  1  0  0  0  0  0  0  0  0  0
   -5.7864   92.1822    9.5488 N   0  0  0  0  0  0  0  0  0  0  0  0
   -3.0378   92.3876    5.4192 C   0  0  1  0  0  0  0  0  0  0  0  0
   -3.4085   91.0595    5.0360 O   0  0  0  0  0  0  0  0  0  0  0  0
   -4.1890   93.0492    6.1817 C   0  0  2  0  0  0  0  0  0  0  0  0
   -3.8550   94.4224    6.4100 O   0  0  0  0  0  0  0  0  0  0  0  0
   -4.3993   92.3302    7.5186 C   0  0  1  0  0  0  0  0  0  0  0  0
   -3.1908   92.3836    8.2992 O   0  0  0  0  0  0  0  0  0  0  0  0
   -5.5567   92.9430    8.3118 C   0  0  0  0  0  0  0  0  0  0  0  0
   -1.3405   93.7405    6.5255 N   0  0  0  0  0  0  0  0  0  0  0  0
  1  2  1  1  0  0  0
  1  3  1  0  0  0  0
  1 10  1  0  0  0  0
  3  4  1  1  0  0  0
  3  5  1  0  0  0  0
  5  6  1  1  0  0  0
  5  7  1  0  0  0  0
  7  8  1  1  0  0  0
  7  9  1  0  0  0  0
  9 10  1  0  0  0  0
  9 11  1  6  0  0  0
 11 12  1  0  0  0  0
 13 14  1  6  0  0  0
 13 15  1  0  0  0  0
 13 21  1  0  0  0  0
 16 15  1  0  0  0  0
 16 17  1  1  0  0  0
 18  2  1  1  0  0  0
 18 16  1  0  0  0  0
 19 18  1  0  0  0  0
 19 20  1  6  0  0  0
 21 19  1  0  0  0  0
 21 22  1  6  0  0  0
 23 20  1  1  0  0  0
 23 24  1  0  0  0  0
 23 28  1  0  0  0  0
 24 25  1  6  0  0  0
 24 26  1  0  0  0  0
 26 27  1  0  0  0  0
 26 32  1  6  0  0  0
 27 28  1  0  0  0  0
 27 29  1  1  0  0  0
 29 30  1  0  0  0  0
 31 32  1  1  0  0  0
 31 40  1  0  0  0  0
 33 31  1  0  0  0  0
 33 42  1  1  0  0  0
 35 33  1  0  0  0  0
 35 36  1  1  0  0  0
 37 35  1  0  0  0  0
 37 38  1  1  0  0  0
 37 39  1  0  0  0  0
 39 40  1  0  0  0  0
 39 41  1  1  0  0  0
 41 34  1  0  0  0  0
M  END
>  <CHROM.1>
-159.21061341,-165.30250729,-162.47535899,151.40180447,-176.92563831,166.48752607
-60.84451903,-166.05321057,176.56015043,-0.43410388,91.94683914,11.79002655
0.99614548,0.51807810,2.01193611

>  <Name>
2fcy_lig

>  <RI>
4.13508e+07

>  <Rbt.Current_Directory>
/home/itssahil/PROJECTS/Mol_Feturizer/New_Systems/rnas/2fcy

>  <Rbt.Executable>
rbdock ($Id: //depot/dev/client3/rdock/2013.1/src/exe/rbdock.cxx#4 $)

>  <Rbt.Library>
libRbt.so (2013.1, Build901 2013/11/27)

>  <Rbt.Parameter_File>
/export/apps/rDock/src/rDock_2013.1_src/data/scripts/dock_solv.prm

>  <Rbt.Receptor>
prm/pocket_docking_3.prm

>  <SCORE>
-21.0375

>  <SCORE.INTER>
-16.6845

>  <SCORE.INTER.CONST>
1

>  <SCORE.INTER.POLAR>
-1.62396

>  <SCORE.INTER.ROT>
9

>  <SCORE.INTER.SOLV>
18.5091

>  <SCORE.INTER.VDW>
-21.4795

>  <SCORE.INTER.norm>
-0.397249

>  <SCORE.INTRA>
-4.35308

>  <SCORE.INTRA.DIHEDRAL>
-7.53267

>  <SCORE.INTRA.DIHEDRAL.0>
17.3446

>  <SCORE.INTRA.POLAR>
0

>  <SCORE.INTRA.POLAR.0>
0

>  <SCORE.INTRA.REPUL>
0

>  <SCORE.INTRA.REPUL.0>
0

>  <SCORE.INTRA.SOLV>
-2.3478

>  <SCORE.INTRA.SOLV.lig_0>
-112.452

>  <SCORE.INTRA.VDW>
0.587154

>  <SCORE.INTRA.VDW.0>
-5.95059

>  <SCORE.INTRA.norm>
-0.103645

>  <SCORE.RESTR>
0

>  <SCORE.RESTR.CAVITY>
0

>  <SCORE.RESTR.norm>
0

>  <SCORE.SYSTEM>
0

>  <SCORE.SYSTEM.CONST>
0

>  <SCORE.SYSTEM.DIHEDRAL>
0

>  <SCORE.SYSTEM.SOLV>
0

>  <SCORE.SYSTEM.norm>
0

>  <SCORE.heavy>
42

>  <SCORE.norm>
-0.500894

>  <RMSD>
0.811

$$$$
2fcy_lig
 OpenBabel11021811433D
libRbt.so/2013.1/901 2013/11/27
 42 45  0  0  0  0  0  0  0  0999 V2000
    0.1831   91.0608   14.2482 C   0  0  2  0  0  0  0  0  0  0  0  0
    0.7029   92.3309   14.6770 O   0  0  0  0  0  0  0  0  0  0  0  0
   -1.1404   90.8892   14.9951 C   0  0  2  0  0  0  0  0  0  0  0  0
   -1.9870   92.0601   14.7286 N   0  0  0  0  0  0  0  0  0  0  0  0
   -0.8708   90.7879   16.4985 C   0  0  1  0  0  0  0  0  0  0  0  0
   -2.0953   90.6225   17.2189 O   0  0  0  0  0  0  0  0  0  0  0  0
    0.0713   89.6138   16.7665 C   0  0  2  0  0  0  0  0  0  0  0  0
    0.3979   89.5805   18.1557 O   0  0  0  0  0  0  0  0  0  0  0  0
    1.3645   89.8302   15.9791 C   0  0  2  0  0  0  0  0  0  0  0  0
    1.0592   89.9648   14.5823 O   0  0  0  0  0  0  0  0  0  0  0  0
    2.3125   88.6550   16.2319 C   0  0  0  0  0  0  0  0  0  0  0  0
    2.8999   88.7327   17.5778 N   0  0  0  0  0  0  0  0  0  0  0  0
    3.0034   95.2599   12.7340 C   0  0  2  0  0  0  0  0  0  0  0  0
    3.9927   96.0740   12.0118 N   0  0  0  0  0  0  0  0  0  0  0  0
    3.6337   94.6020   13.9631 C   0  0  0  0  0  0  0  0  0  0  0  0
    2.5296   93.8807   14.7428 C   0  0  2  0  0  0  0  0  0  0  0  0
    3.1261   93.1674   15.8814 N   0  0  0  0  0  0  0  0  0  0  0  0
    1.7850   92.8528   13.8857 C   0  0  2  0  0  0  0  0  0  0  0  0
    1.3280   93.3694   12.5260 C   0  0  2  0  0  0  0  0  0  0  0  0
    1.0225   92.1984   11.7518 O   0  0  0  0  0  0  0  0  0  0  0  0
    2.4290   94.1735   11.8216 C   0  0  1  0  0  0  0  0  0  0  0  0
    1.9212   94.8115   10.6468 O   0  0  0  0  0  0  0  0  0  0  0  0
    0.1913   92.4123   10.5996 C   0  0  1  0  0  0  0  0  0  0  0  0
    0.0774   91.0792    9.8583 C   0  0  2  0  0  0  0  0  0  0  0  0
    1.2111   90.9052    9.0050 O   0  0  0  0  0  0  0  0  0  0  0  0
   -1.1551   91.3860    9.0126 C   0  0  1  0  0  0  0  0  0  0  0  0
   -2.0543   92.0246   10.0594 C   0  0  2  0  0  0  0  0  0  0  0  0
   -1.1692   92.7590   10.9301 O   0  0  0  0  0  0  0  0  0  0  0  0
   -2.8094   90.9223   10.8110 C   0  0  0  0  0  0  0  0  0  0  0  0
   -3.6832   91.4903   11.7909 O   0  0  0  0  0  0  0  0  0  0  0  0
   -1.8148   92.3086    6.9602 C   0  0  2  0  0  0  0  0  0  0  0  0
   -0.8224   92.3461    7.9972 O   0  0  0  0  0  0  0  0  0  0  0  0
   -1.4745   93.3480    5.8874 C   0  0  1  0  0  0  0  0  0  0  0  0
   -6.6026   92.5767    6.2432 N   0  0  0  0  0  0  0  0  0  0  0  0
   -2.5747   93.3963    4.8218 C   0  0  1  0  0  0  0  0  0  0  0  0
   -2.5854   92.1822    4.0640 O   0  0  0  0  0  0  0  0  0  0  0  0
   -3.9361   93.6035    5.4910 C   0  0  2  0  0  0  0  0  0  0  0  0
   -3.9500   94.8965    6.1054 O   0  0  0  0  0  0  0  0  0  0  0  0
   -4.1590   92.5168    6.5483 C   0  0  1  0  0  0  0  0  0  0  0  0
   -3.1090   92.5674    7.5320 O   0  0  0  0  0  0  0  0  0  0  0  0
   -5.5197   92.6684    7.2336 C   0  0  0  0  0  0  0  0  0  0  0  0
   -1.3858   94.6710    6.5238 N   0  0  0  0  0  0  0  0  0  0  0  0
  1  2  1  1  0  0  0
  1  3  1  0  0  0  0
  1 10  1  0  0  0  0
  3  4  1  1  0  0  0
  3  5  1  0  0  0  0
  5  6  1  1  0  0  0
  5  7  1  0  0  0  0
  7  8  1  1  0  0  0
  7  9  1  0  0  0  0
  9 10  1  0  0  0  0
  9 11  1  6  0  0  0
 11 12  1  0  0  0  0
 13 14  1  6  0  0  0
 13 15  1  0  0  0  0
 13 21  1  0  0  0  0
 16 15  1  0  0  0  0
 16 17  1  1  0  0  0
 18  2  1  1  0  0  0
 18 16  1  0  0  0  0
 19 18  1  0  0  0  0
 19 20  1  6  0  0  0
 21 19  1  0  0  0  0
 21 22  1  6  0  0  0
 23 20  1  1  0  0  0
 23 24  1  0  0  0  0
 23 28  1  0  0  0  0
 24 25  1  6  0  0  0
 24 26  1  0  0  0  0
 26 27  1  0  0  0  0
 26 32  1  6  0  0  0
 27 28  1  0  0  0  0
 27 29  1  1  0  0  0
 29 30  1  0  0  0  0
 31 32  1  1  0  0  0
 31 40  1  0  0  0  0
 33 31  1  0  0  0  0
 33 42  1  1  0  0  0
 35 33  1  0  0  0  0
 35 36  1  1  0  0  0
 37 35  1  0  0  0  0
 37 38  1  1  0  0  0
 37 39  1  0  0  0  0
 39 40  1  0  0  0  0
 39 41  1  1  0  0  0
 41 34  1  0  0  0  0
M  END
>  <CHROM.1>
-166.30512570,-73.93106984,-159.38640815,161.41363532,175.58216948,161.32977302
-179.04765742,179.07370204,59.62667495,-0.48924123,92.24135195,11.39985020
1.07443100,0.50032164,2.02127123

>  <Name>
2fcy_lig

>  <RI>
0

>  <Rbt.Current_Directory>
/home/itssahil/PROJECTS/Mol_Feturizer/New_Systems/rnas/2fcy

>  <Rbt.Executable>
rbdock ($Id: //depot/dev/client3/rdock/2013.1/src/exe/rbdock.cxx#4 $)

>  <Rbt.Library>
libRbt.so (2013.1, Build901 2013/11/27)

>  <Rbt.Parameter_File>
/export/apps/rDock/src/rDock_2013.1_src/data/scripts/dock_solv.prm

>  <Rbt.Receptor>
prm/pocket_docking_2.prm

>  <SCORE>
-21.8077

>  <SCORE.INTER>
-17.0082

>  <SCORE.INTER.CONST>
1

>  <SCORE.INTER.POLAR>
-1.62472

>  <SCORE.INTER.ROT>
9

>  <SCORE.INTER.SOLV>
15.2905

>  <SCORE.INTER.VDW>
-20.6199

>  <SCORE.INTER.norm>
-0.404958

>  <SCORE.INTRA>
-4.8162

>  <SCORE.INTRA.DIHEDRAL>
-10.2086

>  <SCORE.INTRA.DIHEDRAL.0>
17.3446

>  <SCORE.INTRA.POLAR>
0

>  <SCORE.INTRA.POLAR.0>
0

>  <SCORE.INTRA.REPUL>
0

>  <SCORE.INTRA.REPUL.0>
0

>  <SCORE.INTRA.SOLV>
-2.73805

>  <SCORE.INTRA.SOLV.lig_0>
-112.452

>  <SCORE.INTRA.VDW>
1.65713

>  <SCORE.INTRA.VDW.0>
-5.95059

>  <SCORE.INTRA.norm>
-0.114671

>  <SCORE.RESTR>
0.0167644

>  <SCORE.RESTR.CAVITY>
0.0167644

>  <SCORE.RESTR.norm>
0.000399152

>  <SCORE.SYSTEM>
0

>  <SCORE.SYSTEM.CONST>
0

>  <SCORE.SYSTEM.DIHEDRAL>
0

>  <SCORE.SYSTEM.SOLV>
0

>  <SCORE.SYSTEM.norm>
0

>  <SCORE.heavy>
42

>  <SCORE.norm>
-0.51923

>  <RMSD>
0.819

$$$$
2fcy_lig
 OpenBabel11021811433D
libRbt.so/2013.1/901 2013/11/27
 42 45  0  0  0  0  0  0  0  0999 V2000
    0.1837   91.0332   14.2522 C   0  0  2  0  0  0  0  0  0  0  0  0
    0.7126   92.2972   14.6880 O   0  0  0  0  0  0  0  0  0  0  0  0
   -1.1448   90.8706   14.9923 C   0  0  2  0  0  0  0  0  0  0  0  0
   -1.9798   92.0499   14.7263 N   0  0  0  0  0  0  0  0  0  0  0  0
   -0.8830   90.7614   16.4966 C   0  0  1  0  0  0  0  0  0  0  0  0
   -2.1122   90.6041   17.2107 O   0  0  0  0  0  0  0  0  0  0  0  0
    0.0475   89.5781   16.7645 C   0  0  2  0  0  0  0  0  0  0  0  0
    0.3673   89.5368   18.1551 O   0  0  0  0  0  0  0  0  0  0  0  0
    1.3462   89.7860   15.9839 C   0  0  2  0  0  0  0  0  0  0  0  0
    1.0486   89.9284   14.5862 O   0  0  0  0  0  0  0  0  0  0  0  0
    2.2826   88.6015   16.2367 C   0  0  0  0  0  0  0  0  0  0  0  0
    2.8783   88.6787   17.5790 N   0  0  0  0  0  0  0  0  0  0  0  0
    3.0673   95.2075   12.7823 C   0  0  2  0  0  0  0  0  0  0  0  0
    4.0727   96.0127   12.0725 N   0  0  0  0  0  0  0  0  0  0  0  0
    3.6804   94.5308   14.0098 C   0  0  0  0  0  0  0  0  0  0  0  0
    2.5612   93.8195   14.7771 C   0  0  2  0  0  0  0  0  0  0  0  0
    3.1403   93.0887   15.9135 N   0  0  0  0  0  0  0  0  0  0  0  0
    1.8070   92.8095   13.9074 C   0  0  2  0  0  0  0  0  0  0  0  0
    1.3659   93.3434   12.5492 C   0  0  2  0  0  0  0  0  0  0  0  0
    1.0480   92.1831   11.7638 O   0  0  0  0  0  0  0  0  0  0  0  0
    2.4827   94.1368   11.8579 C   0  0  1  0  0  0  0  0  0  0  0  0
    1.9914   94.7914   10.6851 O   0  0  0  0  0  0  0  0  0  0  0  0
    0.2314   92.4190   10.6055 C   0  0  1  0  0  0  0  0  0  0  0  0
    0.0900   91.0900    9.8617 C   0  0  2  0  0  0  0  0  0  0  0  0
    1.2256   90.8886    9.0169 O   0  0  0  0  0  0  0  0  0  0  0  0
   -1.1278   91.4284    9.0068 C   0  0  1  0  0  0  0  0  0  0  0  0
   -2.0189   92.0881   10.0474 C   0  0  2  0  0  0  0  0  0  0  0  0
   -1.1225   92.7992   10.9259 O   0  0  0  0  0  0  0  0  0  0  0  0
   -2.8071   91.0042   10.7918 C   0  0  0  0  0  0  0  0  0  0  0  0
   -3.7394   91.5961   11.7011 O   0  0  0  0  0  0  0  0  0  0  0  0
   -1.7548   92.3785    6.9568 C   0  0  2  0  0  0  0  0  0  0  0  0
   -0.7633   92.3810    7.9952 O   0  0  0  0  0  0  0  0  0  0  0  0
   -1.4451   93.4909    5.9499 C   0  0  1  0  0  0  0  0  0  0  0  0
   -6.5465   92.3909    6.2730 N   0  0  0  0  0  0  0  0  0  0  0  0
   -2.5468   93.5728    4.8879 C   0  0  1  0  0  0  0  0  0  0  0  0
   -2.5232   92.4075    4.0574 O   0  0  0  0  0  0  0  0  0  0  0  0
   -3.9133   93.6996    5.5670 C   0  0  2  0  0  0  0  0  0  0  0  0
   -3.9638   94.9517    6.2593 O   0  0  0  0  0  0  0  0  0  0  0  0
   -4.1043   92.5444    6.5556 C   0  0  1  0  0  0  0  0  0  0  0  0
   -3.0556   92.5648    7.5418 O   0  0  0  0  0  0  0  0  0  0  0  0
   -5.4684   92.6148    7.2474 C   0  0  0  0  0  0  0  0  0  0  0  0
   -1.3940   94.7745    6.6661 N   0  0  0  0  0  0  0  0  0  0  0  0
  1  2  1  1  0  0  0
  1  3  1  0  0  0  0
  1 10  1  0  0  0  0
  3  4  1  1  0  0  0
  3  5  1  0  0  0  0
  5  6  1  1  0  0  0
  5  7  1  0  0  0  0
  7  8  1  1  0  0  0
  7  9  1  0  0  0  0
  9 10  1  0  0  0  0
  9 11  1  6  0  0  0
 11 12  1  0  0  0  0
 13 14  1  6  0  0  0
 13 15  1  0  0  0  0
 13 21  1  0  0  0  0
 16 15  1  0  0  0  0
 16 17  1  1  0  0  0
 18  2  1  1  0  0  0
 18 16  1  0  0  0  0
 19 18  1  0  0  0  0
 19 20  1  6  0  0  0
 21 19  1  0  0  0  0
 21 22  1  6  0  0  0
 23 20  1  1  0  0  0
 23 24  1  0  0  0  0
 23 28  1  0  0  0  0
 24 25  1  6  0  0  0
 24 26  1  0  0  0  0
 26 27  1  0  0  0  0
 26 32  1  6  0  0  0
 27 28  1  0  0  0  0
 27 29  1  1  0  0  0
 29 30  1  0  0  0  0
 31 32  1  1  0  0  0
 31 40  1  0  0  0  0
 33 31  1  0  0  0  0
 33 42  1  1  0  0  0
 35 33  1  0  0  0  0
 35 36  1  1  0  0  0
 37 35  1  0  0  0  0
 37 38  1  1  0  0  0
 37 39  1  0  0  0  0
 39 40  1  0  0  0  0
 39 41  1  1  0  0  0
 41 34  1  0  0  0  0
M  END
>  <CHROM.1>
-166.58343827,-74.68239678,-158.93115210,161.64825881,176.16695280,161.87430498
-175.11549667,174.28840639,66.41612831,-0.46877720,92.24549898,11.41861388
1.07890276,0.49208542,2.02534668

>  <Name>
2fcy_lig

>  <RI>
0

>  <Rbt.Current_Directory>
/home/itssahil/PROJECTS/Mol_Feturizer/New_Systems/rnas/2fcy

>  <Rbt.Executable>
rbdock ($Id: //depot/dev/client3/rdock/2013.1/src/exe/rbdock.cxx#4 $)

>  <Rbt.Library>
libRbt.so (2013.1, Build901 2013/11/27)

>  <Rbt.Parameter_File>
/export/apps/rDock/src/rDock_2013.1_src/data/scripts/dock_solv.prm

>  <Rbt.Receptor>
prm/pocket_docking_2.prm

>  <SCORE>
-21.7463

>  <SCORE.INTER>
-17.2436

>  <SCORE.INTER.CONST>
1

>  <SCORE.INTER.POLAR>
-1.66806

>  <SCORE.INTER.ROT>
9

>  <SCORE.INTER.SOLV>
15.885

>  <SCORE.INTER.VDW>
-20.8305

>  <SCORE.INTER.norm>
-0.410562

>  <SCORE.INTRA>
-4.52019

>  <SCORE.INTRA.DIHEDRAL>
-9.86187

>  <SCORE.INTRA.DIHEDRAL.0>
17.3446

>  <SCORE.INTRA.POLAR>
0

>  <SCORE.INTRA.POLAR.0>
0

>  <SCORE.INTRA.REPUL>
0

>  <SCORE.INTRA.REPUL.0>
0

>  <SCORE.INTRA.SOLV>
-2.91048

>  <SCORE.INTRA.SOLV.lig_0>
-112.452

>  <SCORE.INTRA.VDW>
1.86599

>  <SCORE.INTRA.VDW.0>
-5.95059

>  <SCORE.INTRA.norm>
-0.107623

>  <SCORE.RESTR>
0.0174635

>  <SCORE.RESTR.CAVITY>
0.0174635

>  <SCORE.RESTR.norm>
0.000415798

>  <SCORE.SYSTEM>
0

>  <SCORE.SYSTEM.CONST>
0

>  <SCORE.SYSTEM.DIHEDRAL>
0

>  <SCORE.SYSTEM.SOLV>
0

>  <SCORE.SYSTEM.norm>
0

>  <SCORE.heavy>
42

>  <SCORE.norm>
-0.517769

>  <RMSD>
0.838

$$$$
2fcy_lig
 OpenBabel11021811433D
libRbt.so/2013.1/901 2013/11/27
 42 45  0  0  0  0  0  0  0  0999 V2000
    0.0914   91.1715   14.3395 C   0  0  2  0  0  0  0  0  0  0  0  0
    0.6040   92.4444   14.7686 O   0  0  0  0  0  0  0  0  0  0  0  0
   -1.2960   91.0567   14.9727 C   0  0  2  0  0  0  0  0  0  0  0  0
   -2.0861   92.2358   14.5930 N   0  0  0  0  0  0  0  0  0  0  0  0
   -1.1608   91.0041   16.4965 C   0  0  1  0  0  0  0  0  0  0  0  0
   -2.4471   90.8922   17.1118 O   0  0  0  0  0  0  0  0  0  0  0  0
   -0.2758   89.8197   16.8862 C   0  0  2  0  0  0  0  0  0  0  0  0
   -0.0722   89.8295   18.2991 O   0  0  0  0  0  0  0  0  0  0  0  0
    1.0861   89.9785   16.2086 C   0  0  2  0  0  0  0  0  0  0  0  0
    0.9070   90.0691   14.7865 O   0  0  0  0  0  0  0  0  0  0  0  0
    1.9783   88.7923   16.5836 C   0  0  0  0  0  0  0  0  0  0  0  0
    3.3992   89.1236   16.3994 N   0  0  0  0  0  0  0  0  0  0  0  0
    2.7709   95.3972   12.7113 C   0  0  2  0  0  0  0  0  0  0  0  0
    3.7242   96.2276   11.9598 N   0  0  0  0  0  0  0  0  0  0  0  0
    3.4224   94.8279   13.9731 C   0  0  0  0  0  0  0  0  0  0  0  0
    2.3492   94.0868   14.7769 C   0  0  2  0  0  0  0  0  0  0  0  0
    2.9706   93.4565   15.9506 N   0  0  0  0  0  0  0  0  0  0  0  0
    1.6655   92.9850   13.9620 C   0  0  2  0  0  0  0  0  0  0  0  0
    1.1954   93.4163   12.5773 C   0  0  2  0  0  0  0  0  0  0  0  0
    0.9567   92.1977   11.8546 O   0  0  0  0  0  0  0  0  0  0  0  0
    2.2606   94.2431   11.8449 C   0  0  1  0  0  0  0  0  0  0  0  0
    1.7319   94.8012   10.6390 O   0  0  0  0  0  0  0  0  0  0  0  0
    0.1490   92.3219   10.6728 C   0  0  1  0  0  0  0  0  0  0  0  0
    0.0707   90.9410   10.0198 C   0  0  2  0  0  0  0  0  0  0  0  0
    1.2259   90.7282    9.2049 O   0  0  0  0  0  0  0  0  0  0  0  0
   -1.1464   91.1719    9.1288 C   0  0  1  0  0  0  0  0  0  0  0  0
   -2.0780   91.8646   10.1108 C   0  0  2  0  0  0  0  0  0  0  0  0
   -1.2233   92.6687   10.9497 O   0  0  0  0  0  0  0  0  0  0  0  0
   -2.8346   90.8031   10.9177 C   0  0  0  0  0  0  0  0  0  0  0  0
   -3.7614   91.4206   11.8155 O   0  0  0  0  0  0  0  0  0  0  0  0
   -1.7604   91.9313    6.9970 C   0  0  2  0  0  0  0  0  0  0  0  0
   -0.8041   92.0675    8.0592 O   0  0  0  0  0  0  0  0  0  0  0  0
   -1.2560   92.6731    5.7550 C   0  0  1  0  0  0  0  0  0  0  0  0
   -5.7983   91.9180    8.0985 N   0  0  0  0  0  0  0  0  0  0  0  0
   -2.3074   92.6270    4.6410 C   0  0  1  0  0  0  0  0  0  0  0  0
   -2.4510   91.2907    4.1491 O   0  0  0  0  0  0  0  0  0  0  0  0
   -3.6508   93.1319    5.1747 C   0  0  2  0  0  0  0  0  0  0  0  0
   -3.5169   94.5174    5.5090 O   0  0  0  0  0  0  0  0  0  0  0  0
   -4.0444   92.3270    6.4179 C   0  0  1  0  0  0  0  0  0  0  0  0
   -3.0276   92.4577    7.4286 O   0  0  0  0  0  0  0  0  0  0  0  0
   -5.3948   92.7812    6.9787 C   0  0  0  0  0  0  0  0  0  0  0  0
   -1.0173   94.0802    6.1105 N   0  0  0  0  0  0  0  0  0  0  0  0
  1  2  1  1  0  0  0
  1  3  1  0  0  0  0
  1 10  1  0  0  0  0
  3  4  1  1  0  0  0
  3  5  1  0  0  0  0
  5  6  1  1  0  0  0
  5  7  1  0  0  0  0
  7  8  1  1  0  0  0
  7  9  1  0  0  0  0
  9 10  1  0  0  0  0
  9 11  1  6  0  0  0
 11 12  1  0  0  0  0
 13 14  1  6  0  0  0
 13 15  1  0  0  0  0
 13 21  1  0  0  0  0
 16 15  1  0  0  0  0
 16 17  1  1  0  0  0
 18  2  1  1  0  0  0
 18 16  1  0  0  0  0
 19 18  1  0  0  0  0
 19 20  1  6  0  0  0
 21 19  1  0  0  0  0
 21 22  1  6  0  0  0
 23 20  1  1  0  0  0
 23 24  1  0  0  0  0
 23 28  1  0  0  0  0
 24 25  1  6  0  0  0
 24 26  1  0  0  0  0
 26 27  1  0  0  0  0
 26 32  1  6  0  0  0
 27 28  1  0  0  0  0
 27 29  1  1  0  0  0
 29 30  1  0  0  0  0
 31 32  1  1  0  0  0
 31 40  1  0  0  0  0
 33 31  1  0  0  0  0
 33 42  1  1  0  0  0
 35 33  1  0  0  0  0
 35 36  1  1  0  0  0
 37 35  1  0  0  0  0
 37 38  1  1  0  0  0
 37 39  1  0  0  0  0
 39 40  1  0  0  0  0
 39 41  1  1  0  0  0
 41 34  1  0  0  0  0
M  END
>  <CHROM.1>
-159.46410889,-158.68580032,-163.42620637,162.64825474,177.34184977,160.46284314
-177.66357963,-169.10413497,175.21103087,-0.51811865,92.17402189,11.41711421
1.11600518,0.53161164,1.94411574

>  <Name>
2fcy_lig

>  <RI>
0

>  <Rbt.Current_Directory>
/home/itssahil/PROJECTS/Mol_Feturizer/New_Systems/rnas/2fcy

>  <Rbt.Executable>
rbdock ($Id: //depot/dev/client3/rdock/2013.1/src/exe/rbdock.cxx#4 $)

>  <Rbt.Library>
libRbt.so (2013.1, Build901 2013/11/27)

>  <Rbt.Parameter_File>
/export/apps/rDock/src/rDock_2013.1_src/data/scripts/dock_solv.prm

>  <Rbt.Receptor>
prm/pocket_docking_2.prm

>  <SCORE>
-21.2049

>  <SCORE.INTER>
-16.3333

>  <SCORE.INTER.CONST>
1

>  <SCORE.INTER.POLAR>
-1.73235

>  <SCORE.INTER.ROT>
9

>  <SCORE.INTER.SOLV>
16.9108

>  <SCORE.INTER.VDW>
-20.3513

>  <SCORE.INTER.norm>
-0.388889

>  <SCORE.INTRA>
-5.04331

>  <SCORE.INTRA.DIHEDRAL>
-8.44618

>  <SCORE.INTRA.DIHEDRAL.0>
17.3446

>  <SCORE.INTRA.POLAR>
0

>  <SCORE.INTRA.POLAR.0>
0

>  <SCORE.INTRA.REPUL>
0

>  <SCORE.INTRA.REPUL.0>
0

>  <SCORE.INTRA.SOLV>
-3.63198

>  <SCORE.INTRA.SOLV.lig_0>
-112.452

>  <SCORE.INTRA.VDW>
0.995767

>  <SCORE.INTRA.VDW.0>
-5.95059

>  <SCORE.INTRA.norm>
-0.120079

>  <SCORE.RESTR>
0.171793

>  <SCORE.RESTR.CAVITY>
0.171793

>  <SCORE.RESTR.norm>
0.00409031

>  <SCORE.SYSTEM>
0

>  <SCORE.SYSTEM.CONST>
0

>  <SCORE.SYSTEM.DIHEDRAL>
0

>  <SCORE.SYSTEM.SOLV>
0

>  <SCORE.SYSTEM.norm>
0

>  <SCORE.heavy>
42

>  <SCORE.norm>
-0.504878

>  <RMSD>
0.860

$$$$
2fcy_lig
 OpenBabel11021811433D
libRbt.so/2013.1/901 2013/11/27
 42 45  0  0  0  0  0  0  0  0999 V2000
    0.2526   91.0528   14.3143 C   0  0  2  0  0  0  0  0  0  0  0  0
    0.7876   92.3047   14.7768 O   0  0  0  0  0  0  0  0  0  0  0  0
   -1.0867   90.8912   15.0348 C   0  0  2  0  0  0  0  0  0  0  0  0
   -1.9073   92.0823   14.7767 N   0  0  0  0  0  0  0  0  0  0  0  0
   -0.8455   90.7561   16.5404 C   0  0  1  0  0  0  0  0  0  0  0  0
   -2.0853   90.5992   17.2361 O   0  0  0  0  0  0  0  0  0  0  0  0
    0.0704   89.5599   16.8016 C   0  0  2  0  0  0  0  0  0  0  0  0
    0.3719   89.4939   18.1953 O   0  0  0  0  0  0  0  0  0  0  0  0
    1.3810   89.7677   16.0410 C   0  0  2  0  0  0  0  0  0  0  0  0
    1.1029   89.9347   14.6420 O   0  0  0  0  0  0  0  0  0  0  0  0
    2.3031   88.5706   16.2871 C   0  0  0  0  0  0  0  0  0  0  0  0
    2.8512   88.6002   17.6514 N   0  0  0  0  0  0  0  0  0  0  0  0
    3.1242   95.2455   12.8957 C   0  0  2  0  0  0  0  0  0  0  0  0
    4.1255   96.0632   12.1946 N   0  0  0  0  0  0  0  0  0  0  0  0
    3.7374   94.5693   14.1235 C   0  0  0  0  0  0  0  0  0  0  0  0
    2.6211   93.8442   14.8819 C   0  0  2  0  0  0  0  0  0  0  0  0
    3.2013   93.1140   16.0182 N   0  0  0  0  0  0  0  0  0  0  0  0
    1.8810   92.8307   14.0041 C   0  0  2  0  0  0  0  0  0  0  0  0
    1.4419   93.3663   12.6458 C   0  0  2  0  0  0  0  0  0  0  0  0
    1.1392   92.2064   11.8539 O   0  0  0  0  0  0  0  0  0  0  0  0
    2.5546   94.1732   11.9637 C   0  0  1  0  0  0  0  0  0  0  0  0
    2.0632   94.8281   10.7912 O   0  0  0  0  0  0  0  0  0  0  0  0
    0.3144   92.4372   10.7003 C   0  0  1  0  0  0  0  0  0  0  0  0
    0.0510   91.0818   10.0423 C   0  0  2  0  0  0  0  0  0  0  0  0
    1.1456   90.7410    9.1883 O   0  0  0  0  0  0  0  0  0  0  0  0
   -1.1580   91.4644    9.1935 C   0  0  1  0  0  0  0  0  0  0  0  0
   -1.9683   92.2534   10.2099 C   0  0  2  0  0  0  0  0  0  0  0  0
   -0.9972   92.9420   11.0246 O   0  0  0  0  0  0  0  0  0  0  0  0
   -2.8196   91.2817   11.0352 C   0  0  0  0  0  0  0  0  0  0  0  0
   -3.6330   91.9960   11.9704 O   0  0  0  0  0  0  0  0  0  0  0  0
   -1.7622   92.3407    7.1041 C   0  0  2  0  0  0  0  0  0  0  0  0
   -0.7460   92.3233    8.1183 O   0  0  0  0  0  0  0  0  0  0  0  0
   -1.2977   93.2058    5.9281 C   0  0  1  0  0  0  0  0  0  0  0  0
   -5.7371   92.3194    8.4215 N   0  0  0  0  0  0  0  0  0  0  0  0
   -2.4081   93.3215    4.8783 C   0  0  1  0  0  0  0  0  0  0  0  0
   -2.6273   92.0564    4.2461 O   0  0  0  0  0  0  0  0  0  0  0  0
   -3.7015   93.8019    5.5422 C   0  0  2  0  0  0  0  0  0  0  0  0
   -3.4987   95.1346    6.0243 O   0  0  0  0  0  0  0  0  0  0  0  0
   -4.0576   92.8706    6.7059 C   0  0  1  0  0  0  0  0  0  0  0  0
   -2.9841   92.8520    7.6650 O   0  0  0  0  0  0  0  0  0  0  0  0
   -5.3584   93.2978    7.3914 C   0  0  0  0  0  0  0  0  0  0  0  0
   -0.9884   94.5541    6.4276 N   0  0  0  0  0  0  0  0  0  0  0  0
  1  2  1  1  0  0  0
  1  3  1  0  0  0  0
  1 10  1  0  0  0  0
  3  4  1  1  0  0  0
  3  5  1  0  0  0  0
  5  6  1  1  0  0  0
  5  7  1  0  0  0  0
  7  8  1  1  0  0  0
  7  9  1  0  0  0  0
  9 10  1  0  0  0  0
  9 11  1  6  0  0  0
 11 12  1  0  0  0  0
 13 14  1  6  0  0  0
 13 15  1  0  0  0  0
 13 21  1  0  0  0  0
 16 15  1  0  0  0  0
 16 17  1  1  0  0  0
 18  2  1  1  0  0  0
 18 16  1  0  0  0  0
 19 18  1  0  0  0  0
 19 20  1  6  0  0  0
 21 19  1  0  0  0  0
 21 22  1  6  0  0  0
 23 20  1  1  0  0  0
 23 24  1  0  0  0  0
 23 28  1  0  0  0  0
 24 25  1  6  0  0  0
 24 26  1  0  0  0  0
 26 27  1  0  0  0  0
 26 32  1  6  0  0  0
 27 28  1  0  0  0  0
 27 29  1  1  0  0  0
 29 30  1  0  0  0  0
 31 32  1  1  0  0  0
 31 40  1  0  0  0  0
 33 31  1  0  0  0  0
 33 42  1  1  0  0  0
 35 33  1  0  0  0  0
 35 36  1  1  0  0  0
 37 35  1  0  0  0  0
 37 38  1  1  0  0  0
 37 39  1  0  0  0  0
 39 40  1  0  0  0  0
 39 41  1  1  0  0  0
 41 34  1  0  0  0  0
M  END
>  <CHROM.1>
-165.50848600,-73.03173141,-160.31319524,161.00559117,-177.10167554,162.02500534
-177.87990454,-177.46818937,174.89581805,-0.38205593,92.27962673,11.55109280
1.10452143,0.48571894,2.02082108

>  <Name>
2fcy_lig

>  <RI>
1.56845e+07

>  <Rbt.Current_Directory>
/home/itssahil/PROJECTS/Mol_Feturizer/New_Systems/rnas/2fcy

>  <Rbt.Executable>
rbdock ($Id: //depot/dev/client3/rdock/2013.1/src/exe/rbdock.cxx#4 $)

>  <Rbt.Library>
libRbt.so (2013.1, Build901 2013/11/27)

>  <Rbt.Parameter_File>
/export/apps/rDock/src/rDock_2013.1_src/data/scripts/dock_solv.prm

>  <Rbt.Receptor>
prm/pocket_docking_4.prm

>  <SCORE>
-23.0485

>  <SCORE.INTER>
-18.0965

>  <SCORE.INTER.CONST>
1

>  <SCORE.INTER.POLAR>
-1.7956

>  <SCORE.INTER.ROT>
9

>  <SCORE.INTER.SOLV>
16.4187

>  <SCORE.INTER.VDW>
-21.1519

>  <SCORE.INTER.norm>
-0.430869

>  <SCORE.INTRA>
-4.95195

>  <SCORE.INTRA.DIHEDRAL>
-10.2839

>  <SCORE.INTRA.DIHEDRAL.0>
17.3446

>  <SCORE.INTRA.POLAR>
0

>  <SCORE.INTRA.POLAR.0>
0

>  <SCORE.INTRA.REPUL>
0

>  <SCORE.INTRA.REPUL.0>
0

>  <SCORE.INTRA.SOLV>
-2.23669

>  <SCORE.INTRA.SOLV.lig_0>
-112.452

>  <SCORE.INTRA.VDW>
1.30833

>  <SCORE.INTRA.VDW.0>
-5.95059

>  <SCORE.INTRA.norm>
-0.117904

>  <SCORE.RESTR>
0

>  <SCORE.RESTR.CAVITY>
0

>  <SCORE.RESTR.norm>
0

>  <SCORE.SYSTEM>
0

>  <SCORE.SYSTEM.CONST>
0

>  <SCORE.SYSTEM.DIHEDRAL>
0

>  <SCORE.SYSTEM.SOLV>
0

>  <SCORE.SYSTEM.norm>
0

>  <SCORE.heavy>
42

>  <SCORE.norm>
-0.548773

>  <RMSD>
0.884

$$$$
2fcy_lig
 OpenBabel11021811433D
libRbt.so/2013.1/901 2013/11/27
 42 45  0  0  0  0  0  0  0  0999 V2000
   -0.0014   91.2710   14.3078 C   0  0  2  0  0  0  0  0  0  0  0  0
    0.5021   92.5310   14.7835 O   0  0  0  0  0  0  0  0  0  0  0  0
   -1.3364   91.0686   15.0259 C   0  0  2  0  0  0  0  0  0  0  0  0
   -2.1864   92.2415   14.7798 N   0  0  0  0  0  0  0  0  0  0  0  0
   -1.0922   90.9239   16.5301 C   0  0  1  0  0  0  0  0  0  0  0  0
   -2.3279   90.7290   17.2236 O   0  0  0  0  0  0  0  0  0  0  0  0
   -0.1468   89.7483   16.7793 C   0  0  2  0  0  0  0  0  0  0  0  0
    0.1559   89.6753   18.1724 O   0  0  0  0  0  0  0  0  0  0  0  0
    1.1583   89.9966   16.0216 C   0  0  2  0  0  0  0  0  0  0  0  0
    0.8764   90.1711   14.6243 O   0  0  0  0  0  0  0  0  0  0  0  0
    2.1099   88.8204   16.2556 C   0  0  0  0  0  0  0  0  0  0  0  0
    2.6062   88.8124   17.6399 N   0  0  0  0  0  0  0  0  0  0  0  0
    2.6639   95.5395   12.8031 C   0  0  2  0  0  0  0  0  0  0  0  0
    3.6205   96.3936   12.0831 N   0  0  0  0  0  0  0  0  0  0  0  0
    3.2915   94.9766   14.0799 C   0  0  0  0  0  0  0  0  0  0  0  0
    2.2118   94.2089   14.8494 C   0  0  2  0  0  0  0  0  0  0  0  0
    2.8130   93.5850   16.0369 N   0  0  0  0  0  0  0  0  0  0  0  0
    1.5743   93.0979   14.0099 C   0  0  2  0  0  0  0  0  0  0  0  0
    1.1344   93.5273   12.6147 C   0  0  2  0  0  0  0  0  0  0  0  0
    0.9414   92.3082   11.8794 O   0  0  0  0  0  0  0  0  0  0  0  0
    2.2022   94.3801   11.9169 C   0  0  1  0  0  0  0  0  0  0  0  0
    1.6961   94.9340   10.6995 O   0  0  0  0  0  0  0  0  0  0  0  0
    0.1257   92.4133   10.7013 C   0  0  1  0  0  0  0  0  0  0  0  0
    0.0590   91.0261   10.0605 C   0  0  2  0  0  0  0  0  0  0  0  0
    1.2119   90.8192    9.2408 O   0  0  0  0  0  0  0  0  0  0  0  0
   -1.1655   91.2359    9.1745 C   0  0  1  0  0  0  0  0  0  0  0  0
   -2.0992   91.9266   10.1560 C   0  0  2  0  0  0  0  0  0  0  0  0
   -1.2488   92.7472   10.9831 O   0  0  0  0  0  0  0  0  0  0  0  0
   -2.8394   90.8637   10.9761 C   0  0  0  0  0  0  0  0  0  0  0  0
   -1.9230   90.1355   11.7986 O   0  0  0  0  0  0  0  0  0  0  0  0
   -1.8610   92.0526    7.0894 C   0  0  2  0  0  0  0  0  0  0  0  0
   -0.8393   92.1261    8.0954 O   0  0  0  0  0  0  0  0  0  0  0  0
   -1.3692   92.7345    5.8087 C   0  0  1  0  0  0  0  0  0  0  0  0
   -5.8495   92.3477    8.3756 N   0  0  0  0  0  0  0  0  0  0  0  0
   -2.4812   92.7576    4.7545 C   0  0  1  0  0  0  0  0  0  0  0  0
   -2.7576   91.4306    4.2953 O   0  0  0  0  0  0  0  0  0  0  0  0
   -3.7486   93.3758    5.3511 C   0  0  2  0  0  0  0  0  0  0  0  0
   -3.4868   94.7506    5.6526 O   0  0  0  0  0  0  0  0  0  0  0  0
   -4.1351   92.6222    6.6282 C   0  0  1  0  0  0  0  0  0  0  0  0
   -3.0564   92.6847    7.5797 O   0  0  0  0  0  0  0  0  0  0  0  0
   -5.4119   93.1908    7.2533 C   0  0  0  0  0  0  0  0  0  0  0  0
   -1.0002   94.1225    6.1252 N   0  0  0  0  0  0  0  0  0  0  0  0
  1  2  1  1  0  0  0
  1  3  1  0  0  0  0
  1 10  1  0  0  0  0
  3  4  1  1  0  0  0
  3  5  1  0  0  0  0
  5  6  1  1  0  0  0
  5  7  1  0  0  0  0
  7  8  1  1  0  0  0
  7  9  1  0  0  0  0
  9 10  1  0  0  0  0
  9 11  1  6  0  0  0
 11 12  1  0  0  0  0
 13 14  1  6  0  0  0
 13 15  1  0  0  0  0
 13 21  1  0  0  0  0
 16 15  1  0  0  0  0
 16 17  1  1  0  0  0
 18  2  1  1  0  0  0
 18 16  1  0  0  0  0
 19 18  1  0  0  0  0
 19 20  1  6  0  0  0
 21 19  1  0  0  0  0
 21 22  1  6  0  0  0
 23 20  1  1  0  0  0
 23 24  1  0  0  0  0
 23 28  1  0  0  0  0
 24 25  1  6  0  0  0
 24 26  1  0  0  0  0
 26 27  1  0  0  0  0
 26 32  1  6  0  0  0
 27 28  1  0  0  0  0
 27 29  1  1  0  0  0
 29 30  1  0  0  0  0
 31 32  1  1  0  0  0
 31 40  1  0  0  0  0
 33 31  1  0  0  0  0
 33 42  1  1  0  0  0
 35 33  1  0  0  0  0
 35 36  1  1  0  0  0
 37 35  1  0  0  0  0
 37 38  1  1  0  0  0
 37 39  1  0  0  0  0
 39 40  1  0  0  0  0
 39 41  1  1  0  0  0
 41 34  1  0  0  0  0
M  END
>  <CHROM.1>
-164.97895134,-70.29071651,-165.38710725,160.54891163,179.30962685,165.27754628
65.40645861,-166.86702372,172.96605113,-0.52420242,92.22932661,11.49671295
1.09707047,0.61351797,2.01629522

>  <Name>
2fcy_lig

>  <RI>
0

>  <Rbt.Current_Directory>
/home/itssahil/PROJECTS/Mol_Feturizer/New_Systems/rnas/2fcy

>  <Rbt.Executable>
rbdock ($Id: //depot/dev/client3/rdock/2013.1/src/exe/rbdock.cxx#4 $)

>  <Rbt.Library>
libRbt.so (2013.1, Build901 2013/11/27)

>  <Rbt.Parameter_File>
/export/apps/rDock/src/rDock_2013.1_src/data/scripts/dock_solv.prm

>  <Rbt.Receptor>
prm/pocket_docking_2.prm

>  <SCORE>
-21.586

>  <SCORE.INTER>
-16.7569

>  <SCORE.INTER.CONST>
1

>  <SCORE.INTER.POLAR>
-1.74268

>  <SCORE.INTER.ROT>
9

>  <SCORE.INTER.SOLV>
14.1307

>  <SCORE.INTER.VDW>
-19.6726

>  <SCORE.INTER.norm>
-0.398975

>  <SCORE.INTRA>
-4.93241

>  <SCORE.INTRA.DIHEDRAL>
-10.5696

>  <SCORE.INTRA.DIHEDRAL.0>
17.3446

>  <SCORE.INTRA.POLAR>
0

>  <SCORE.INTRA.POLAR.0>
0

>  <SCORE.INTRA.REPUL>
0

>  <SCORE.INTRA.REPUL.0>
0

>  <SCORE.INTRA.SOLV>
-2.2003

>  <SCORE.INTRA.SOLV.lig_0>
-112.452

>  <SCORE.INTRA.VDW>
1.45254

>  <SCORE.INTRA.VDW.0>
-5.95059

>  <SCORE.INTRA.norm>
-0.117438

>  <SCORE.RESTR>
0.103375

>  <SCORE.RESTR.CAVITY>
0.103375

>  <SCORE.RESTR.norm>
0.0024613

>  <SCORE.SYSTEM>
0

>  <SCORE.SYSTEM.CONST>
0

>  <SCORE.SYSTEM.DIHEDRAL>
0

>  <SCORE.SYSTEM.SOLV>
0

>  <SCORE.SYSTEM.norm>
0

>  <SCORE.heavy>
42

>  <SCORE.norm>
-0.513951

>  <RMSD>
0.901

$$$$
2fcy_lig
 OpenBabel11021811433D
libRbt.so/2013.1/901 2013/11/27
 42 45  0  0  0  0  0  0  0  0999 V2000
   -0.0155   91.2966   14.3223 C   0  0  2  0  0  0  0  0  0  0  0  0
    0.5089   92.5391   14.8205 O   0  0  0  0  0  0  0  0  0  0  0  0
   -1.3325   91.0815   15.0695 C   0  0  2  0  0  0  0  0  0  0  0  0
   -2.1806   92.2662   14.8800 N   0  0  0  0  0  0  0  0  0  0  0  0
   -1.0497   90.8917   16.5618 C   0  0  1  0  0  0  0  0  0  0  0  0
   -2.2679   90.6843   17.2820 O   0  0  0  0  0  0  0  0  0  0  0  0
   -0.1061   89.7037   16.7518 C   0  0  2  0  0  0  0  0  0  0  0  0
    0.2328   89.5885   18.1337 O   0  0  0  0  0  0  0  0  0  0  0  0
    1.1803   89.9659   15.9672 C   0  0  2  0  0  0  0  0  0  0  0  0
    0.8628   90.1826   14.5834 O   0  0  0  0  0  0  0  0  0  0  0  0
    2.1296   88.7777   16.1418 C   0  0  0  0  0  0  0  0  0  0  0  0
    2.8491   88.8625   17.4216 N   0  0  0  0  0  0  0  0  0  0  0  0
    2.7025   95.5444   12.8704 C   0  0  2  0  0  0  0  0  0  0  0  0
    3.6688   96.3960   12.1605 N   0  0  0  0  0  0  0  0  0  0  0  0
    3.3198   94.9684   14.1463 C   0  0  0  0  0  0  0  0  0  0  0  0
    2.2308   94.2037   14.9056 C   0  0  2  0  0  0  0  0  0  0  0  0
    2.8217   93.5674   16.0917 N   0  0  0  0  0  0  0  0  0  0  0  0
    1.5890   93.1031   14.0558 C   0  0  2  0  0  0  0  0  0  0  0  0
    1.1588   93.5450   12.6614 C   0  0  2  0  0  0  0  0  0  0  0  0
    0.9602   92.3323   11.9171 O   0  0  0  0  0  0  0  0  0  0  0  0
    2.2363   94.3944   11.9743 C   0  0  1  0  0  0  0  0  0  0  0  0
    1.7401   94.9601   10.7582 O   0  0  0  0  0  0  0  0  0  0  0  0
    0.1312   92.4465   10.7492 C   0  0  1  0  0  0  0  0  0  0  0  0
    0.0594   91.0648   10.0970 C   0  0  2  0  0  0  0  0  0  0  0  0
    1.2033   90.8669    9.2626 O   0  0  0  0  0  0  0  0  0  0  0  0
   -1.1753   91.2804    9.2267 C   0  0  1  0  0  0  0  0  0  0  0  0
   -2.0990   91.9610   10.2247 C   0  0  2  0  0  0  0  0  0  0  0  0
   -1.2406   92.7757   11.0493 O   0  0  0  0  0  0  0  0  0  0  0  0
   -2.8283   90.8898   11.0437 C   0  0  0  0  0  0  0  0  0  0  0  0
   -3.7940   91.4913   11.9109 O   0  0  0  0  0  0  0  0  0  0  0  0
   -1.8572   92.0610    7.1234 C   0  0  2  0  0  0  0  0  0  0  0  0
   -0.8626   92.1806    8.1519 O   0  0  0  0  0  0  0  0  0  0  0  0
   -1.3347   92.6931    5.8293 C   0  0  1  0  0  0  0  0  0  0  0  0
   -5.8713   92.3958    8.3012 N   0  0  0  0  0  0  0  0  0  0  0  0
   -2.4188   92.6678    4.7464 C   0  0  1  0  0  0  0  0  0  0  0  0
   -2.6775   91.3218    4.3344 O   0  0  0  0  0  0  0  0  0  0  0  0
   -3.7039   93.3030    5.2842 C   0  0  2  0  0  0  0  0  0  0  0  0
   -3.4559   94.6902    5.5363 O   0  0  0  0  0  0  0  0  0  0  0  0
   -4.1207   92.5996    6.5803 C   0  0  1  0  0  0  0  0  0  0  0  0
   -3.0677   92.7063    7.5563 O   0  0  0  0  0  0  0  0  0  0  0  0
   -5.4158   93.1864    7.1482 C   0  0  0  0  0  0  0  0  0  0  0  0
   -0.9800   94.0947    6.0986 N   0  0  0  0  0  0  0  0  0  0  0  0
  1  2  1  1  0  0  0
  1  3  1  0  0  0  0
  1 10  1  0  0  0  0
  3  4  1  1  0  0  0
  3  5  1  0  0  0  0
  5  6  1  1  0  0  0
  5  7  1  0  0  0  0
  7  8  1  1  0  0  0
  7  9  1  0  0  0  0
  9 10  1  0  0  0  0
  9 11  1  6  0  0  0
 11 12  1  0  0  0  0
 13 14  1  6  0  0  0
 13 15  1  0  0  0  0
 13 21  1  0  0  0  0
 16 15  1  0  0  0  0
 16 17  1  1  0  0  0
 18  2  1  1  0  0  0
 18 16  1  0  0  0  0
 19 18  1  0  0  0  0
 19 20  1  6  0  0  0
 21 19  1  0  0  0  0
 21 22  1  6  0  0  0
 23 20  1  1  0  0  0
 23 24  1  0  0  0  0
 23 28  1  0  0  0  0
 24 25  1  6  0  0  0
 24 26  1  0  0  0  0
 26 27  1  0  0  0  0
 26 32  1  6  0  0  0
 27 28  1  0  0  0  0
 27 29  1  1  0  0  0
 29 30  1  0  0  0  0
 31 32  1  1  0  0  0
 31 40  1  0  0  0  0
 33 31  1  0  0  0  0
 33 42  1  1  0  0  0
 35 33  1  0  0  0  0
 35 36  1  1  0  0  0
 37 35  1  0  0  0  0
 37 38  1  1  0  0  0
 37 39  1  0  0  0  0
 39 40  1  0  0  0  0
 39 41  1  1  0  0  0
 41 34  1  0  0  0  0
M  END
>  <CHROM.1>
-166.61366086,-80.65302198,-166.31248790,159.47530153,179.35341155,162.16489697
-174.84869580,-163.82873886,173.58416690,-0.55044524,92.26267189,11.50901857
1.10008784,0.57002207,1.99096108

>  <Name>
2fcy_lig

>  <RI>
0

>  <Rbt.Current_Directory>
/home/itssahil/PROJECTS/Mol_Feturizer/New_Systems/rnas/2fcy

>  <Rbt.Executable>
rbdock ($Id: //depot/dev/client3/rdock/2013.1/src/exe/rbdock.cxx#4 $)

>  <Rbt.Library>
libRbt.so (2013.1, Build901 2013/11/27)

>  <Rbt.Parameter_File>
/export/apps/rDock/src/rDock_2013.1_src/data/scripts/dock_solv.prm

>  <Rbt.Receptor>
prm/pocket_docking_2.prm

>  <SCORE>
-21.7039

>  <SCORE.INTER>
-16.5669

>  <SCORE.INTER.CONST>
1

>  <SCORE.INTER.POLAR>
-1.74845

>  <SCORE.INTER.ROT>
9

>  <SCORE.INTER.SOLV>
14.1869

>  <SCORE.INTER.VDW>
-19.5454

>  <SCORE.INTER.norm>
-0.39445

>  <SCORE.INTRA>
-5.1826

>  <SCORE.INTRA.DIHEDRAL>
-8.93771

>  <SCORE.INTRA.DIHEDRAL.0>
17.3446

>  <SCORE.INTRA.POLAR>
0

>  <SCORE.INTRA.POLAR.0>
0

>  <SCORE.INTRA.REPUL>
0

>  <SCORE.INTRA.REPUL.0>
0

>  <SCORE.INTRA.SOLV>
-3.48194

>  <SCORE.INTRA.SOLV.lig_0>
-112.452

>  <SCORE.INTRA.VDW>
1.02723

>  <SCORE.INTRA.VDW.0>
-5.95059

>  <SCORE.INTRA.norm>
-0.123395

>  <SCORE.RESTR>
0.0456453

>  <SCORE.RESTR.CAVITY>
0.0456453

>  <SCORE.RESTR.norm>
0.00108679

>  <SCORE.SYSTEM>
0

>  <SCORE.SYSTEM.CONST>
0

>  <SCORE.SYSTEM.DIHEDRAL>
0

>  <SCORE.SYSTEM.SOLV>
0

>  <SCORE.SYSTEM.norm>
0

>  <SCORE.heavy>
42

>  <SCORE.norm>
-0.516758

>  <RMSD>
0.903

$$$$
2fcy_lig
 OpenBabel11021811433D
libRbt.so/2013.1/901 2013/11/27
 42 45  0  0  0  0  0  0  0  0999 V2000
    0.2737   90.9947   14.4100 C   0  0  2  0  0  0  0  0  0  0  0  0
    0.7891   92.2658   14.8413 O   0  0  0  0  0  0  0  0  0  0  0  0
   -1.1365   90.9072   14.9954 C   0  0  2  0  0  0  0  0  0  0  0  0
   -1.8960   92.0923   14.5740 N   0  0  0  0  0  0  0  0  0  0  0  0
   -1.0554   90.8719   16.5236 C   0  0  1  0  0  0  0  0  0  0  0  0
   -2.3639   90.7856   17.0947 O   0  0  0  0  0  0  0  0  0  0  0  0
   -0.2016   89.6804   16.9585 C   0  0  2  0  0  0  0  0  0  0  0  0
   -0.0473   89.7052   18.3774 O   0  0  0  0  0  0  0  0  0  0  0  0
    1.1853   89.8117   16.3271 C   0  0  2  0  0  0  0  0  0  0  0  0
    1.0573   89.8868   14.8987 O   0  0  0  0  0  0  0  0  0  0  0  0
    2.0468   88.6181   16.7476 C   0  0  0  0  0  0  0  0  0  0  0  0
    3.4599   88.8437   16.4087 N   0  0  0  0  0  0  0  0  0  0  0  0
    3.1637   95.1840   12.9728 C   0  0  2  0  0  0  0  0  0  0  0  0
    4.1746   95.9913   12.2733 N   0  0  0  0  0  0  0  0  0  0  0  0
    3.7724   94.4872   14.1913 C   0  0  0  0  0  0  0  0  0  0  0  0
    2.6484   93.7739   14.9496 C   0  0  2  0  0  0  0  0  0  0  0  0
    3.2226   93.0243   16.0763 N   0  0  0  0  0  0  0  0  0  0  0  0
    1.8869   92.7805   14.0671 C   0  0  2  0  0  0  0  0  0  0  0  0
    1.4493   93.3350   12.7161 C   0  0  2  0  0  0  0  0  0  0  0  0
    1.1232   92.1872   11.9158 O   0  0  0  0  0  0  0  0  0  0  0  0
    2.5715   94.1295   12.0348 C   0  0  1  0  0  0  0  0  0  0  0  0
    2.0846   94.8026   10.8708 O   0  0  0  0  0  0  0  0  0  0  0  0
    0.3049   92.4433   10.7630 C   0  0  1  0  0  0  0  0  0  0  0  0
    0.0760   91.1078   10.0533 C   0  0  2  0  0  0  0  0  0  0  0  0
    1.1856   90.8210    9.1988 O   0  0  0  0  0  0  0  0  0  0  0  0
   -1.1325   91.4965    9.2067 C   0  0  1  0  0  0  0  0  0  0  0  0
   -1.9687   92.2310   10.2427 C   0  0  2  0  0  0  0  0  0  0  0  0
   -1.0200   92.9089   11.0919 O   0  0  0  0  0  0  0  0  0  0  0  0
   -2.8074   91.2124   11.0233 C   0  0  0  0  0  0  0  0  0  0  0  0
   -3.6637   91.8769   11.9569 O   0  0  0  0  0  0  0  0  0  0  0  0
   -1.7229   92.4170    7.1324 C   0  0  2  0  0  0  0  0  0  0  0  0
   -0.7283   92.4024    8.1678 O   0  0  0  0  0  0  0  0  0  0  0  0
   -1.2431   93.2964    5.9733 C   0  0  1  0  0  0  0  0  0  0  0  0
   -5.1967   94.6464    7.9970 N   0  0  0  0  0  0  0  0  0  0  0  0
   -2.3322   93.4086    4.9010 C   0  0  1  0  0  0  0  0  0  0  0  0
   -2.5241   92.1462    4.2544 O   0  0  0  0  0  0  0  0  0  0  0  0
   -3.6445   93.8697    5.5410 C   0  0  2  0  0  0  0  0  0  0  0  0
   -3.4665   95.2006    6.0376 O   0  0  0  0  0  0  0  0  0  0  0  0
   -4.0150   92.9253    6.6896 C   0  0  1  0  0  0  0  0  0  0  0  0
   -2.9619   92.9106    7.6711 O   0  0  0  0  0  0  0  0  0  0  0  0
   -5.3346   93.3330    7.3506 C   0  0  0  0  0  0  0  0  0  0  0  0
   -0.9592   94.6439    6.4896 N   0  0  0  0  0  0  0  0  0  0  0  0
  1  2  1  1  0  0  0
  1  3  1  0  0  0  0
  1 10  1  0  0  0  0
  3  4  1  1  0  0  0
  3  5  1  0  0  0  0
  5  6  1  1  0  0  0
  5  7  1  0  0  0  0
  7  8  1  1  0  0  0
  7  9  1  0  0  0  0
  9 10  1  0  0  0  0
  9 11  1  6  0  0  0
 11 12  1  0  0  0  0
 13 14  1  6  0  0  0
 13 15  1  0  0  0  0
 13 21  1  0  0  0  0
 16 15  1  0  0  0  0
 16 17  1  1  0  0  0
 18  2  1  1  0  0  0
 18 16  1  0  0  0  0
 19 18  1  0  0  0  0
 19 20  1  6  0  0  0
 21 19  1  0  0  0  0
 21 22  1  6  0  0  0
 23 20  1  1  0  0  0
 23 24  1  0  0  0  0
 23 28  1  0  0  0  0
 24 25  1  6  0  0  0
 24 26  1  0  0  0  0
 26 27  1  0  0  0  0
 26 32  1  6  0  0  0
 27 28  1  0  0  0  0
 27 29  1  1  0  0  0
 29 30  1  0  0  0  0
 31 32  1  1  0  0  0
 31 40  1  0  0  0  0
 33 31  1  0  0  0  0
 33 42  1  1  0  0  0
 35 33  1  0  0  0  0
 35 36  1  1  0  0  0
 37 35  1  0  0  0  0
 37 38  1  1  0  0  0
 37 39  1  0  0  0  0
 39 40  1  0  0  0  0
 39 41  1  1  0  0  0
 41 34  1  0  0  0  0
M  END
>  <CHROM.1>
-159.54586208,-167.79650880,-157.40207014,161.47662526,179.92444229,160.93686208
-176.73224567,-175.56129411,-64.80957516,-0.37876529,92.35884643,11.56283411
1.12864494,0.43607678,2.00399283

>  <Name>
2fcy_lig

>  <RI>
4.13508e+07

>  <Rbt.Current_Directory>
/home/itssahil/PROJECTS/Mol_Feturizer/New_Systems/rnas/2fcy

>  <Rbt.Executable>
rbdock ($Id: //depot/dev/client3/rdock/2013.1/src/exe/rbdock.cxx#4 $)

>  <Rbt.Library>
libRbt.so (2013.1, Build901 2013/11/27)

>  <Rbt.Parameter_File>
/export/apps/rDock/src/rDock_2013.1_src/data/scripts/dock_solv.prm

>  <Rbt.Receptor>
prm/pocket_docking_3.prm

>  <SCORE>
-21.4174

>  <SCORE.INTER>
-17.4728

>  <SCORE.INTER.CONST>
1

>  <SCORE.INTER.POLAR>
-1.81119

>  <SCORE.INTER.ROT>
9

>  <SCORE.INTER.SOLV>
18.5751

>  <SCORE.INTER.VDW>
-21.4029

>  <SCORE.INTER.norm>
-0.416018

>  <SCORE.INTRA>
-3.94463

>  <SCORE.INTRA.DIHEDRAL>
-8.88005

>  <SCORE.INTRA.DIHEDRAL.0>
17.3446

>  <SCORE.INTRA.POLAR>
0

>  <SCORE.INTRA.POLAR.0>
0

>  <SCORE.INTRA.REPUL>
0

>  <SCORE.INTRA.REPUL.0>
0

>  <SCORE.INTRA.SOLV>
-1.24532

>  <SCORE.INTRA.SOLV.lig_0>
-112.452

>  <SCORE.INTRA.VDW>
1.11806

>  <SCORE.INTRA.VDW.0>
-5.95059

>  <SCORE.INTRA.norm>
-0.0939197

>  <SCORE.RESTR>
0

>  <SCORE.RESTR.CAVITY>
0

>  <SCORE.RESTR.norm>
0

>  <SCORE.SYSTEM>
0

>  <SCORE.SYSTEM.CONST>
0

>  <SCORE.SYSTEM.DIHEDRAL>
0

>  <SCORE.SYSTEM.SOLV>
0

>  <SCORE.SYSTEM.norm>
0

>  <SCORE.heavy>
42

>  <SCORE.norm>
-0.509938

>  <RMSD>
0.903

$$$$
2fcy_lig
 OpenBabel11021811433D
libRbt.so/2013.1/901 2013/11/27
 42 45  0  0  0  0  0  0  0  0999 V2000
    0.2586   91.1067   14.3639 C   0  0  2  0  0  0  0  0  0  0  0  0
    0.8161   92.3526   14.8158 O   0  0  0  0  0  0  0  0  0  0  0  0
   -1.0704   90.9619   15.1068 C   0  0  2  0  0  0  0  0  0  0  0  0
   -1.8808   92.1626   14.8610 N   0  0  0  0  0  0  0  0  0  0  0  0
   -0.8056   90.8254   16.6083 C   0  0  1  0  0  0  0  0  0  0  0  0
   -2.0353   90.6841   17.3249 O   0  0  0  0  0  0  0  0  0  0  0  0
    0.1002   89.6186   16.8555 C   0  0  2  0  0  0  0  0  0  0  0  0
    0.4241   89.5504   18.2441 O   0  0  0  0  0  0  0  0  0  0  0  0
    1.4002   89.8099   16.0730 C   0  0  2  0  0  0  0  0  0  0  0  0
    1.1007   89.9788   14.6786 O   0  0  0  0  0  0  0  0  0  0  0  0
    2.3119   88.6021   16.3050 C   0  0  0  0  0  0  0  0  0  0  0  0
    2.9192   88.6506   17.6434 N   0  0  0  0  0  0  0  0  0  0  0  0
    3.1460   95.2632   12.8803 C   0  0  2  0  0  0  0  0  0  0  0  0
    4.1429   96.0688   12.1590 N   0  0  0  0  0  0  0  0  0  0  0  0
    3.7723   94.5911   14.1038 C   0  0  0  0  0  0  0  0  0  0  0  0
    2.6620   93.8794   14.8834 C   0  0  2  0  0  0  0  0  0  0  0  0
    3.2534   93.1529   16.0163 N   0  0  0  0  0  0  0  0  0  0  0  0
    1.9019   92.8653   14.0235 C   0  0  2  0  0  0  0  0  0  0  0  0
    1.4468   93.3946   12.6681 C   0  0  2  0  0  0  0  0  0  0  0  0
    1.1243   92.2315   11.8889 O   0  0  0  0  0  0  0  0  0  0  0  0
    2.5552   94.1887   11.9642 C   0  0  1  0  0  0  0  0  0  0  0  0
    2.0514   94.8391   10.7945 O   0  0  0  0  0  0  0  0  0  0  0  0
    0.3095   92.4649   10.7287 C   0  0  1  0  0  0  0  0  0  0  0  0
    0.0737   91.1142   10.0507 C   0  0  2  0  0  0  0  0  0  0  0  0
    1.1831   90.8003    9.2054 O   0  0  0  0  0  0  0  0  0  0  0  0
   -1.1308   91.4899    9.1926 C   0  0  1  0  0  0  0  0  0  0  0  0
   -1.9643   92.2541   10.2092 C   0  0  2  0  0  0  0  0  0  0  0  0
   -1.0131   92.9464   11.0438 O   0  0  0  0  0  0  0  0  0  0  0  0
   -2.8107   91.2596   11.0123 C   0  0  0  0  0  0  0  0  0  0  0  0
   -3.6999   91.9529   11.8927 O   0  0  0  0  0  0  0  0  0  0  0  0
   -1.7216   92.3801    7.1053 C   0  0  2  0  0  0  0  0  0  0  0  0
   -0.7192   92.3682    8.1331 O   0  0  0  0  0  0  0  0  0  0  0  0
   -1.2380   93.2324    5.9277 C   0  0  1  0  0  0  0  0  0  0  0  0
   -6.4336   93.2445    6.3844 N   0  0  0  0  0  0  0  0  0  0  0  0
   -2.3338   93.3426    4.8620 C   0  0  1  0  0  0  0  0  0  0  0  0
   -2.5494   92.0725    4.2386 O   0  0  0  0  0  0  0  0  0  0  0  0
   -3.6340   93.8341    5.5040 C   0  0  2  0  0  0  0  0  0  0  0  0
   -3.4325   95.1704    5.9764 O   0  0  0  0  0  0  0  0  0  0  0  0
   -4.0094   92.9150    6.6713 C   0  0  1  0  0  0  0  0  0  0  0  0
   -2.9489   92.9012    7.6449 O   0  0  0  0  0  0  0  0  0  0  0  0
   -5.3175   93.3535    7.3353 C   0  0  0  0  0  0  0  0  0  0  0  0
   -0.9302   94.5841    6.4188 N   0  0  0  0  0  0  0  0  0  0  0  0
  1  2  1  1  0  0  0
  1  3  1  0  0  0  0
  1 10  1  0  0  0  0
  3  4  1  1  0  0  0
  3  5  1  0  0  0  0
  5  6  1  1  0  0  0
  5  7  1  0  0  0  0
  7  8  1  1  0  0  0
  7  9  1  0  0  0  0
  9 10  1  0  0  0  0
  9 11  1  6  0  0  0
 11 12  1  0  0  0  0
 13 14  1  6  0  0  0
 13 15  1  0  0  0  0
 13 21  1  0  0  0  0
 16 15  1  0  0  0  0
 16 17  1  1  0  0  0
 18  2  1  1  0  0  0
 18 16  1  0  0  0  0
 19 18  1  0  0  0  0
 19 20  1  6  0  0  0
 21 19  1  0  0  0  0
 21 22  1  6  0  0  0
 23 20  1  1  0  0  0
 23 24  1  0  0  0  0
 23 28  1  0  0  0  0
 24 25  1  6  0  0  0
 24 26  1  0  0  0  0
 26 27  1  0  0  0  0
 26 32  1  6  0  0  0
 27 28  1  0  0  0  0
 27 29  1  1  0  0  0
 29 30  1  0  0  0  0
 31 32  1  1  0  0  0
 31 40  1  0  0  0  0
 33 31  1  0  0  0  0
 33 42  1  1  0  0  0
 35 33  1  0  0  0  0
 35 36  1  1  0  0  0
 37 35  1  0  0  0  0
 37 38  1  1  0  0  0
 37 39  1  0  0  0  0
 39 40  1  0  0  0  0
 39 41  1  1  0  0  0
 41 34  1  0  0  0  0
M  END
>  <CHROM.1>
-165.45549250,-74.96724353,-160.78312186,162.36689568,-179.58491192,161.82586500
-174.59092681,-175.76642812,63.44834708,-0.37216288,92.33476043,11.51146855
1.10031606,0.47565188,2.01831896

>  <Name>
2fcy_lig

>  <RI>
4.13508e+07

>  <Rbt.Current_Directory>
/home/itssahil/PROJECTS/Mol_Feturizer/New_Systems/rnas/2fcy

>  <Rbt.Executable>
rbdock ($Id: //depot/dev/client3/rdock/2013.1/src/exe/rbdock.cxx#4 $)

>  <Rbt.Library>
libRbt.so (2013.1, Build901 2013/11/27)

>  <Rbt.Parameter_File>
/export/apps/rDock/src/rDock_2013.1_src/data/scripts/dock_solv.prm

>  <Rbt.Receptor>
prm/pocket_docking_3.prm

>  <SCORE>
-22.9839

>  <SCORE.INTER>
-17.8001

>  <SCORE.INTER.CONST>
1

>  <SCORE.INTER.POLAR>
-1.80956

>  <SCORE.INTER.ROT>
9

>  <SCORE.INTER.SOLV>
16.1756

>  <SCORE.INTER.VDW>
-20.8267

>  <SCORE.INTER.norm>
-0.423812

>  <SCORE.INTRA>
-5.18381

>  <SCORE.INTRA.DIHEDRAL>
-10.3088

>  <SCORE.INTRA.DIHEDRAL.0>
17.3446

>  <SCORE.INTRA.POLAR>
0

>  <SCORE.INTRA.POLAR.0>
0

>  <SCORE.INTRA.REPUL>
0

>  <SCORE.INTRA.REPUL.0>
0

>  <SCORE.INTRA.SOLV>
-3.05612

>  <SCORE.INTRA.SOLV.lig_0>
-112.452

>  <SCORE.INTRA.VDW>
1.49862

>  <SCORE.INTRA.VDW.0>
-5.95059

>  <SCORE.INTRA.norm>
-0.123424

>  <SCORE.RESTR>
0

>  <SCORE.RESTR.CAVITY>
0

>  <SCORE.RESTR.norm>
0

>  <SCORE.SYSTEM>
0

>  <SCORE.SYSTEM.CONST>
0

>  <SCORE.SYSTEM.DIHEDRAL>
0

>  <SCORE.SYSTEM.SOLV>
0

>  <SCORE.SYSTEM.norm>
0

>  <SCORE.heavy>
42

>  <SCORE.norm>
-0.547236

>  <RMSD>
0.927

$$$$
2fcy_lig
 OpenBabel11021811433D
libRbt.so/2013.1/901 2013/11/27
 42 45  0  0  0  0  0  0  0  0999 V2000
   -0.0275   91.2271   14.2283 C   0  0  2  0  0  0  0  0  0  0  0  0
    0.4308   92.5385   14.5992 O   0  0  0  0  0  0  0  0  0  0  0  0
   -1.3944   91.0694   14.8960 C   0  0  2  0  0  0  0  0  0  0  0  0
   -2.2490   92.1939   14.4912 N   0  0  0  0  0  0  0  0  0  0  0  0
   -1.2257   91.0805   16.4173 C   0  0  1  0  0  0  0  0  0  0  0  0
   -2.4921   90.9298   17.0647 O   0  0  0  0  0  0  0  0  0  0  0  0
   -0.2759   89.9556   16.8302 C   0  0  2  0  0  0  0  0  0  0  0  0
   -0.0442   90.0282   18.2368 O   0  0  0  0  0  0  0  0  0  0  0  0
    1.0625   90.1544   16.1171 C   0  0  2  0  0  0  0  0  0  0  0  0
    0.8502   90.1828   14.6970 O   0  0  0  0  0  0  0  0  0  0  0  0
    2.0193   89.0275   16.5152 C   0  0  0  0  0  0  0  0  0  0  0  0
    2.2748   88.1284   15.3798 N   0  0  0  0  0  0  0  0  0  0  0  0
    2.8385   95.3782   12.6536 C   0  0  2  0  0  0  0  0  0  0  0  0
    3.8702   96.1617   11.9574 N   0  0  0  0  0  0  0  0  0  0  0  0
    3.3820   94.8067   13.9646 C   0  0  0  0  0  0  0  0  0  0  0  0
    2.2304   94.1175   14.7036 C   0  0  2  0  0  0  0  0  0  0  0  0
    2.7476   93.4847   15.9256 N   0  0  0  0  0  0  0  0  0  0  0  0
    1.5635   93.0276   13.8594 C   0  0  2  0  0  0  0  0  0  0  0  0
    1.2041   93.4527   12.4400 C   0  0  2  0  0  0  0  0  0  0  0  0
    0.9703   92.2318   11.7197 O   0  0  0  0  0  0  0  0  0  0  0  0
    2.3459   94.2290   11.7706 C   0  0  1  0  0  0  0  0  0  0  0  0
    1.9208   94.7859   10.5238 O   0  0  0  0  0  0  0  0  0  0  0  0
    0.1493   92.3479   10.5464 C   0  0  1  0  0  0  0  0  0  0  0  0
    0.0759   90.9656    9.8956 C   0  0  2  0  0  0  0  0  0  0  0  0
    1.2242   90.7618    9.0688 O   0  0  0  0  0  0  0  0  0  0  0  0
   -1.1524   91.1852    9.0171 C   0  0  1  0  0  0  0  0  0  0  0  0
   -2.0795   91.8710   10.0082 C   0  0  2  0  0  0  0  0  0  0  0  0
   -1.2231   92.6832   10.8372 O   0  0  0  0  0  0  0  0  0  0  0  0
   -2.8186   90.8039   10.8239 C   0  0  0  0  0  0  0  0  0  0  0  0
   -1.9121   90.1189   11.6931 O   0  0  0  0  0  0  0  0  0  0  0  0
   -1.8090   91.9547    6.9017 C   0  0  2  0  0  0  0  0  0  0  0  0
   -0.8289   92.0826    7.9431 O   0  0  0  0  0  0  0  0  0  0  0  0
   -1.3169   92.6769    5.6434 C   0  0  1  0  0  0  0  0  0  0  0  0
   -5.8056   92.0450    8.1065 N   0  0  0  0  0  0  0  0  0  0  0  0
   -2.3913   92.6404    4.5513 C   0  0  1  0  0  0  0  0  0  0  0  0
   -2.5687   91.3029    4.0740 O   0  0  0  0  0  0  0  0  0  0  0  0
   -3.7144   93.1738    5.1075 C   0  0  2  0  0  0  0  0  0  0  0  0
   -3.5491   94.5595    5.4270 O   0  0  0  0  0  0  0  0  0  0  0  0
   -4.0969   92.3865    6.3654 C   0  0  1  0  0  0  0  0  0  0  0  0
   -3.0575   92.5074    7.3542 O   0  0  0  0  0  0  0  0  0  0  0  0
   -5.4273   92.8695    6.9494 C   0  0  0  0  0  0  0  0  0  0  0  0
   -1.0460   94.0824    5.9816 N   0  0  0  0  0  0  0  0  0  0  0  0
  1  2  1  1  0  0  0
  1  3  1  0  0  0  0
  1 10  1  0  0  0  0
  3  4  1  1  0  0  0
  3  5  1  0  0  0  0
  5  6  1  1  0  0  0
  5  7  1  0  0  0  0
  7  8  1  1  0  0  0
  7  9  1  0  0  0  0
  9 10  1  0  0  0  0
  9 11  1  6  0  0  0
 11 12  1  0  0  0  0
 13 14  1  6  0  0  0
 13 15  1  0  0  0  0
 13 21  1  0  0  0  0
 16 15  1  0  0  0  0
 16 17  1  1  0  0  0
 18  2  1  1  0  0  0
 18 16  1  0  0  0  0
 19 18  1  0  0  0  0
 19 20  1  6  0  0  0
 21 19  1  0  0  0  0
 21 22  1  6  0  0  0
 23 20  1  1  0  0  0
 23 24  1  0  0  0  0
 23 28  1  0  0  0  0
 24 25  1  6  0  0  0
 24 26  1  0  0  0  0
 26 27  1  0  0  0  0
 26 32  1  6  0  0  0
 27 28  1  0  0  0  0
 27 29  1  1  0  0  0
 29 30  1  0  0  0  0
 31 32  1  1  0  0  0
 31 40  1  0  0  0  0
 33 31  1  0  0  0  0
 33 42  1  1  0  0  0
 35 33  1  0  0  0  0
 35 36  1  1  0  0  0
 37 35  1  0  0  0  0
 37 38  1  1  0  0  0
 37 39  1  0  0  0  0
 39 40  1  0  0  0  0
 39 41  1  1  0  0  0
 41 34  1  0  0  0  0
M  END
>  <CHROM.1>
-167.15826859,110.90226410,-158.38108441,157.36894192,177.45075367,161.51189628
68.72374696,-168.10668108,176.69102956,-0.52327539,92.15717068,11.30855607
1.11777304,0.57979480,1.96210984

>  <Name>
2fcy_lig

>  <RI>
0

>  <Rbt.Current_Directory>
/home/itssahil/PROJECTS/Mol_Feturizer/New_Systems/rnas/2fcy

>  <Rbt.Executable>
rbdock ($Id: //depot/dev/client3/rdock/2013.1/src/exe/rbdock.cxx#4 $)

>  <Rbt.Library>
libRbt.so (2013.1, Build901 2013/11/27)

>  <Rbt.Parameter_File>
/export/apps/rDock/src/rDock_2013.1_src/data/scripts/dock_solv.prm

>  <Rbt.Receptor>
prm/pocket_docking_2.prm

>  <SCORE>
-15.901

>  <SCORE.INTER>
-13.862

>  <SCORE.INTER.CONST>
1

>  <SCORE.INTER.POLAR>
-1.71279

>  <SCORE.INTER.ROT>
9

>  <SCORE.INTER.SOLV>
22.6735

>  <SCORE.INTER.VDW>
-20.6898

>  <SCORE.INTER.norm>
-0.330047

>  <SCORE.INTRA>
-2.19735

>  <SCORE.INTRA.DIHEDRAL>
-4.28516

>  <SCORE.INTRA.DIHEDRAL.0>
17.3446

>  <SCORE.INTRA.POLAR>
0

>  <SCORE.INTRA.POLAR.0>
0

>  <SCORE.INTRA.REPUL>
0

>  <SCORE.INTRA.REPUL.0>
0

>  <SCORE.INTRA.SOLV>
-1.97373

>  <SCORE.INTRA.SOLV.lig_0>
-112.452

>  <SCORE.INTRA.VDW>
0.932092

>  <SCORE.INTRA.VDW.0>
-5.95059

>  <SCORE.INTRA.norm>
-0.0523179

>  <SCORE.RESTR>
0.158342

>  <SCORE.RESTR.CAVITY>
0.158342

>  <SCORE.RESTR.norm>
0.00377005

>  <SCORE.SYSTEM>
0

>  <SCORE.SYSTEM.CONST>
0

>  <SCORE.SYSTEM.DIHEDRAL>
0

>  <SCORE.SYSTEM.SOLV>
0

>  <SCORE.SYSTEM.norm>
0

>  <SCORE.heavy>
42

>  <SCORE.norm>
-0.378595

>  <RMSD>
0.932

$$$$
2fcy_lig
 OpenBabel11021811433D
libRbt.so/2013.1/901 2013/11/27
 42 45  0  0  0  0  0  0  0  0999 V2000
    0.2512   91.1970   14.3429 C   0  0  2  0  0  0  0  0  0  0  0  0
    0.5410   92.5656   14.6748 O   0  0  0  0  0  0  0  0  0  0  0  0
   -1.0680   90.8775   15.0477 C   0  0  2  0  0  0  0  0  0  0  0  0
   -2.0719   91.8704   14.6412 N   0  0  0  0  0  0  0  0  0  0  0  0
   -0.8687   90.9470   16.5638 C   0  0  1  0  0  0  0  0  0  0  0  0
   -2.0897   90.6472   17.2457 O   0  0  0  0  0  0  0  0  0  0  0  0
    0.2298   89.9665   16.9760 C   0  0  2  0  0  0  0  0  0  0  0  0
    0.4809   90.1024   18.3747 O   0  0  0  0  0  0  0  0  0  0  0  0
    1.5143   90.3219   16.2257 C   0  0  2  0  0  0  0  0  0  0  0  0
    1.2687   90.2883   14.8111 O   0  0  0  0  0  0  0  0  0  0  0  0
    2.6195   89.3399   16.6230 C   0  0  0  0  0  0  0  0  0  0  0  0
    2.4121   88.0294   15.9891 N   0  0  0  0  0  0  0  0  0  0  0  0
    2.5232   95.6801   12.6705 C   0  0  2  0  0  0  0  0  0  0  0  0
    3.4259   96.5814   11.9386 N   0  0  0  0  0  0  0  0  0  0  0  0
    3.1967   95.1460   13.9362 C   0  0  0  0  0  0  0  0  0  0  0  0
    2.1675   94.3250   14.7197 C   0  0  2  0  0  0  0  0  0  0  0  0
    2.8163   93.7288   15.8963 N   0  0  0  0  0  0  0  0  0  0  0  0
    1.5724   93.1858   13.8868 C   0  0  2  0  0  0  0  0  0  0  0  0
    1.0910   93.5959   12.4996 C   0  0  2  0  0  0  0  0  0  0  0  0
    0.9467   92.3703   11.7639 O   0  0  0  0  0  0  0  0  0  0  0  0
    2.1053   94.5013   11.7881 C   0  0  1  0  0  0  0  0  0  0  0  0
    1.5545   95.0322   10.5799 O   0  0  0  0  0  0  0  0  0  0  0  0
    0.1406   92.4470   10.5771 C   0  0  1  0  0  0  0  0  0  0  0  0
    0.0765   91.0441    9.9710 C   0  0  2  0  0  0  0  0  0  0  0  0
    1.2353   90.8147    9.1659 O   0  0  0  0  0  0  0  0  0  0  0  0
   -1.1407   91.2334    9.0704 C   0  0  1  0  0  0  0  0  0  0  0  0
   -2.0809   91.9501   10.0267 C   0  0  2  0  0  0  0  0  0  0  0  0
   -1.2356   92.7900   10.8395 O   0  0  0  0  0  0  0  0  0  0  0  0
   -2.8293   90.9094   10.8675 C   0  0  0  0  0  0  0  0  0  0  0  0
   -1.9208   90.2015   11.7160 O   0  0  0  0  0  0  0  0  0  0  0  0
   -1.7593   91.9173    6.9145 C   0  0  2  0  0  0  0  0  0  0  0  0
   -0.8044   92.0955    7.9717 O   0  0  0  0  0  0  0  0  0  0  0  0
   -1.2980   92.6862    5.6723 C   0  0  1  0  0  0  0  0  0  0  0  0
   -5.4021   93.9769    7.4155 N   0  0  0  0  0  0  0  0  0  0  0  0
   -2.3524   92.5937    4.5641 C   0  0  1  0  0  0  0  0  0  0  0  0
   -2.4351   91.2536    4.0683 O   0  0  0  0  0  0  0  0  0  0  0  0
   -3.7152   93.0322    5.1069 C   0  0  2  0  0  0  0  0  0  0  0  0
   -3.6455   94.4215    5.4453 O   0  0  0  0  0  0  0  0  0  0  0  0
   -4.0629   92.2055    6.3495 C   0  0  1  0  0  0  0  0  0  0  0  0
   -3.0476   92.3814    7.3550 O   0  0  0  0  0  0  0  0  0  0  0  0
   -5.4301   92.5931    6.9195 C   0  0  0  0  0  0  0  0  0  0  0  0
   -1.1245   94.1019    6.0312 N   0  0  0  0  0  0  0  0  0  0  0  0
  1  2  1  1  0  0  0
  1  3  1  0  0  0  0
  1 10  1  0  0  0  0
  3  4  1  6  0  0  0
  3  5  1  0  0  0  0
  5  6  1  1  0  0  0
  5  7  1  0  0  0  0
  7  8  1  1  0  0  0
  7  9  1  0  0  0  0
  9 10  1  0  0  0  0
  9 11  1  6  0  0  0
 11 12  1  0  0  0  0
 13 14  1  6  0  0  0
 13 15  1  0  0  0  0
 13 21  1  0  0  0  0
 16 15  1  0  0  0  0
 16 17  1  1  0  0  0
 18  2  1  1  0  0  0
 18 16  1  0  0  0  0
 19 18  1  0  0  0  0
 19 20  1  6  0  0  0
 21 19  1  0  0  0  0
 21 22  1  6  0  0  0
 23 20  1  1  0  0  0
 23 24  1  0  0  0  0
 23 28  1  0  0  0  0
 24 25  1  6  0  0  0
 24 26  1  0  0  0  0
 26 27  1  0  0  0  0
 26 32  1  6  0  0  0
 27 28  1  0  0  0  0
 27 29  1  1  0  0  0
 29 30  1  0  0  0  0
 31 32  1  1  0  0  0
 31 40  1  0  0  0  0
 33 31  1  0  0  0  0
 33 42  1  1  0  0  0
 35 33  1  0  0  0  0
 35 36  1  1  0  0  0
 37 35  1  0  0  0  0
 37 38  1  1  0  0  0
 37 39  1  0  0  0  0
 39 40  1  0  0  0  0
 39 41  1  1  0  0  0
 41 34  1  0  0  0  0
M  END
>  <CHROM.1>
-166.48977116,74.73287556,-155.30643481,162.27471104,-178.24530554,160.62356713
65.44607372,-172.24296410,-65.18263391,-0.44802687,92.24459619,11.35548184
1.06358446,0.68562572,2.04862994

>  <Name>
2fcy_lig

>  <RI>
0

>  <Rbt.Current_Directory>
/home/itssahil/PROJECTS/Mol_Feturizer/New_Systems/rnas/2fcy

>  <Rbt.Executable>
rbdock ($Id: //depot/dev/client3/rdock/2013.1/src/exe/rbdock.cxx#4 $)

>  <Rbt.Library>
libRbt.so (2013.1, Build901 2013/11/27)

>  <Rbt.Parameter_File>
/export/apps/rDock/src/rDock_2013.1_src/data/scripts/dock_solv.prm

>  <Rbt.Receptor>
prm/pocket_docking_2.prm

>  <SCORE>
-16.0034

>  <SCORE.INTER>
-12.7489

>  <SCORE.INTER.CONST>
1

>  <SCORE.INTER.POLAR>
-1.70239

>  <SCORE.INTER.ROT>
9

>  <SCORE.INTER.SOLV>
18.6463

>  <SCORE.INTER.VDW>
-18.6401

>  <SCORE.INTER.norm>
-0.303545

>  <SCORE.INTRA>
-3.34012

>  <SCORE.INTRA.DIHEDRAL>
-9.0968

>  <SCORE.INTRA.DIHEDRAL.0>
17.3446

>  <SCORE.INTRA.POLAR>
0

>  <SCORE.INTRA.POLAR.0>
0

>  <SCORE.INTRA.REPUL>
0

>  <SCORE.INTRA.REPUL.0>
0

>  <SCORE.INTRA.SOLV>
-0.0505246

>  <SCORE.INTRA.SOLV.lig_0>
-112.452

>  <SCORE.INTRA.VDW>
1.23355

>  <SCORE.INTRA.VDW.0>
-5.95059

>  <SCORE.INTRA.norm>
-0.0795266

>  <SCORE.RESTR>
0.0855993

>  <SCORE.RESTR.CAVITY>
0.0855993

>  <SCORE.RESTR.norm>
0.00203808

>  <SCORE.SYSTEM>
0

>  <SCORE.SYSTEM.CONST>
0

>  <SCORE.SYSTEM.DIHEDRAL>
0

>  <SCORE.SYSTEM.SOLV>
0

>  <SCORE.SYSTEM.norm>
0

>  <SCORE.heavy>
42

>  <SCORE.norm>
-0.381033

>  <RMSD>
0.942

$$$$
2fcy_lig
 OpenBabel11021811433D
libRbt.so/2013.1/901 2013/11/27
 42 45  0  0  0  0  0  0  0  0999 V2000
    0.5189   91.1991   14.4823 C   0  0  2  0  0  0  0  0  0  0  0  0
    0.8585   92.5497   14.8398 O   0  0  0  0  0  0  0  0  0  0  0  0
   -0.7924   90.9022   15.2113 C   0  0  2  0  0  0  0  0  0  0  0  0
   -1.7746   91.9346   14.8533 N   0  0  0  0  0  0  0  0  0  0  0  0
   -0.5551   90.9282   16.7233 C   0  0  1  0  0  0  0  0  0  0  0  0
   -1.7683   90.6487   17.4275 O   0  0  0  0  0  0  0  0  0  0  0  0
    0.5221   89.9051   17.0850 C   0  0  2  0  0  0  0  0  0  0  0  0
    0.8104   89.9988   18.4799 O   0  0  0  0  0  0  0  0  0  0  0  0
    1.7988   90.2400   16.3122 C   0  0  2  0  0  0  0  0  0  0  0  0
    1.5189   90.2487   14.9036 O   0  0  0  0  0  0  0  0  0  0  0  0
    2.8824   89.2156   16.6588 C   0  0  0  0  0  0  0  0  0  0  0  0
    2.5039   87.8721   16.1961 N   0  0  0  0  0  0  0  0  0  0  0  0
    3.0449   95.6166   12.9796 C   0  0  2  0  0  0  0  0  0  0  0  0
    4.0068   96.4896   12.2899 N   0  0  0  0  0  0  0  0  0  0  0  0
    3.6775   94.9844   14.2210 C   0  0  0  0  0  0  0  0  0  0  0  0
    2.5944   94.1971   14.9655 C   0  0  2  0  0  0  0  0  0  0  0  0
    3.1986   93.5085   16.1152 N   0  0  0  0  0  0  0  0  0  0  0  0
    1.9310   93.1368   14.0817 C   0  0  2  0  0  0  0  0  0  0  0  0
    1.4828   93.6384   12.7135 C   0  0  2  0  0  0  0  0  0  0  0  0
    1.2632   92.4587   11.9236 O   0  0  0  0  0  0  0  0  0  0  0  0
    2.5561   94.5075   12.0447 C   0  0  1  0  0  0  0  0  0  0  0  0
    2.0455   95.1261   10.8608 O   0  0  0  0  0  0  0  0  0  0  0  0
    0.3409   92.6026   10.8313 C   0  0  1  0  0  0  0  0  0  0  0  0
    0.0567   91.2046   10.2797 C   0  0  2  0  0  0  0  0  0  0  0  0
    1.0851   90.8327    9.3589 O   0  0  0  0  0  0  0  0  0  0  0  0
   -1.2269   91.5115    9.5137 C   0  0  1  0  0  0  0  0  0  0  0  0
   -1.9693   92.3461   10.5455 C   0  0  2  0  0  0  0  0  0  0  0  0
   -0.9512   93.1016   11.2335 O   0  0  0  0  0  0  0  0  0  0  0  0
   -2.7262   91.4110   11.4956 C   0  0  0  0  0  0  0  0  0  0  0  0
   -3.9136   90.9142   10.8714 O   0  0  0  0  0  0  0  0  0  0  0  0
   -1.9686   92.1546    7.3842 C   0  0  2  0  0  0  0  0  0  0  0  0
   -0.9256   92.3103    8.3585 O   0  0  0  0  0  0  0  0  0  0  0  0
   -1.4762   92.6538    6.0221 C   0  0  1  0  0  0  0  0  0  0  0  0
   -5.2263   94.8869    7.6097 N   0  0  0  0  0  0  0  0  0  0  0  0
   -2.6067   92.5915    4.9893 C   0  0  1  0  0  0  0  0  0  0  0  0
   -2.9418   91.2302    4.7016 O   0  0  0  0  0  0  0  0  0  0  0  0
   -3.8380   93.3284    5.5233 C   0  0  2  0  0  0  0  0  0  0  0  0
   -3.5188   94.7183    5.6488 O   0  0  0  0  0  0  0  0  0  0  0  0
   -4.2280   92.7533    6.8892 C   0  0  1  0  0  0  0  0  0  0  0  0
   -3.1296   92.8893    7.8099 O   0  0  0  0  0  0  0  0  0  0  0  0
   -5.4701   93.4449    7.4577 C   0  0  0  0  0  0  0  0  0  0  0  0
   -1.0490   94.0544    6.1593 N   0  0  0  0  0  0  0  0  0  0  0  0
  1  2  1  1  0  0  0
  1  3  1  0  0  0  0
  1 10  1  0  0  0  0
  3  4  1  1  0  0  0
  3  5  1  0  0  0  0
  5  6  1  1  0  0  0
  5  7  1  0  0  0  0
  7  8  1  1  0  0  0
  7  9  1  0  0  0  0
  9 10  1  0  0  0  0
  9 11  1  6  0  0  0
 11 12  1  0  0  0  0
 13 14  1  6  0  0  0
 13 15  1  0  0  0  0
 13 21  1  0  0  0  0
 16 15  1  0  0  0  0
 16 17  1  1  0  0  0
 18  2  1  1  0  0  0
 18 16  1  0  0  0  0
 19 18  1  0  0  0  0
 19 20  1  6  0  0  0
 21 19  1  0  0  0  0
 21 22  1  6  0  0  0
 23 20  1  1  0  0  0
 23 24  1  0  0  0  0
 23 28  1  0  0  0  0
 24 25  1  6  0  0  0
 24 26  1  0  0  0  0
 26 27  1  0  0  0  0
 26 32  1  6  0  0  0
 27 28  1  0  0  0  0
 27 29  1  1  0  0  0
 29 30  1  0  0  0  0
 31 32  1  1  0  0  0
 31 40  1  0  0  0  0
 33 31  1  0  0  0  0
 33 42  1  1  0  0  0
 35 33  1  0  0  0  0
 35 36  1  1  0  0  0
 37 35  1  0  0  0  0
 37 38  1  1  0  0  0
 37 39  1  0  0  0  0
 39 40  1  0  0  0  0
 39 41  1  1  0  0  0
 41 34  1  0  0  0  0
M  END
>  <CHROM.1>
-169.18510583,64.89516203,-152.90269368,155.13467929,-170.14133525,157.06875114
-77.18395761,-163.55767952,-59.27164874,-0.33995921,92.37330893,11.60850674
1.01669155,0.60006848,2.08037498

>  <Name>
2fcy_lig

>  <RI>
0

>  <Rbt.Current_Directory>
/home/itssahil/PROJECTS/Mol_Feturizer/New_Systems/rnas/2fcy

>  <Rbt.Executable>
rbdock ($Id: //depot/dev/client3/rdock/2013.1/src/exe/rbdock.cxx#4 $)

>  <Rbt.Library>
libRbt.so (2013.1, Build901 2013/11/27)

>  <Rbt.Parameter_File>
/export/apps/rDock/src/rDock_2013.1_src/data/scripts/dock_solv.prm

>  <Rbt.Receptor>
prm/pocket_docking_2.prm

>  <SCORE>
-14.116

>  <SCORE.INTER>
-11.8249

>  <SCORE.INTER.CONST>
1

>  <SCORE.INTER.POLAR>
-1.75931

>  <SCORE.INTER.ROT>
9

>  <SCORE.INTER.SOLV>
19.0843

>  <SCORE.INTER.VDW>
-17.9804

>  <SCORE.INTER.norm>
-0.281546

>  <SCORE.INTRA>
-2.39878

>  <SCORE.INTRA.DIHEDRAL>
-5.69014

>  <SCORE.INTRA.DIHEDRAL.0>
17.3446

>  <SCORE.INTRA.POLAR>
0

>  <SCORE.INTRA.POLAR.0>
0

>  <SCORE.INTRA.REPUL>
0

>  <SCORE.INTRA.REPUL.0>
0

>  <SCORE.INTRA.SOLV>
-0.68602

>  <SCORE.INTRA.SOLV.lig_0>
-112.452

>  <SCORE.INTRA.VDW>
0.789304

>  <SCORE.INTRA.VDW.0>
-5.95059

>  <SCORE.INTRA.norm>
-0.0571137

>  <SCORE.RESTR>
0.107732

>  <SCORE.RESTR.CAVITY>
0.107732

>  <SCORE.RESTR.norm>
0.00256505

>  <SCORE.SYSTEM>
0

>  <SCORE.SYSTEM.CONST>
0

>  <SCORE.SYSTEM.DIHEDRAL>
0

>  <SCORE.SYSTEM.SOLV>
0

>  <SCORE.SYSTEM.norm>
0

>  <SCORE.heavy>
42

>  <SCORE.norm>
-0.336095

>  <RMSD>
0.946

$$$$
2fcy_lig
 OpenBabel11021811433D
libRbt.so/2013.1/901 2013/11/27
 42 45  0  0  0  0  0  0  0  0999 V2000
    0.1690   91.2300   14.3383 C   0  0  2  0  0  0  0  0  0  0  0  0
    0.4650   92.5947   14.6805 O   0  0  0  0  0  0  0  0  0  0  0  0
   -1.1354   90.9013   15.0660 C   0  0  2  0  0  0  0  0  0  0  0  0
   -2.1477   91.8983   14.6918 N   0  0  0  0  0  0  0  0  0  0  0  0
   -0.9052   90.9529   16.5785 C   0  0  1  0  0  0  0  0  0  0  0  0
   -2.1120   90.6443   17.2815 O   0  0  0  0  0  0  0  0  0  0  0  0
    0.2018   89.9683   16.9566 C   0  0  2  0  0  0  0  0  0  0  0  0
    0.4813   90.0878   18.3513 O   0  0  0  0  0  0  0  0  0  0  0  0
    1.4705   90.3334   16.1845 C   0  0  2  0  0  0  0  0  0  0  0  0
    1.1963   90.3164   14.7749 O   0  0  0  0  0  0  0  0  0  0  0  0
    2.5841   89.3475   16.5476 C   0  0  0  0  0  0  0  0  0  0  0  0
    2.2807   88.0009   16.0405 N   0  0  0  0  0  0  0  0  0  0  0  0
    2.4612   95.7085   12.6890 C   0  0  2  0  0  0  0  0  0  0  0  0
    3.3691   96.6096   11.9633 N   0  0  0  0  0  0  0  0  0  0  0  0
    3.1251   95.1759   13.9603 C   0  0  0  0  0  0  0  0  0  0  0  0
    2.0902   94.3550   14.7365 C   0  0  2  0  0  0  0  0  0  0  0  0
    2.7301   93.7602   15.9187 N   0  0  0  0  0  0  0  0  0  0  0  0
    1.5023   93.2148   13.9000 C   0  0  2  0  0  0  0  0  0  0  0  0
    1.0315   93.6234   12.5087 C   0  0  2  0  0  0  0  0  0  0  0  0
    0.8936   92.3971   11.7730 O   0  0  0  0  0  0  0  0  0  0  0  0
    2.0509   94.5287   11.8044 C   0  0  1  0  0  0  0  0  0  0  0  0
    1.5092   95.0582   10.5914 O   0  0  0  0  0  0  0  0  0  0  0  0
    0.0946   92.4717   10.5812 C   0  0  1  0  0  0  0  0  0  0  0  0
    0.0369   91.0684    9.9753 C   0  0  2  0  0  0  0  0  0  0  0  0
    1.2011   90.8408    9.1775 O   0  0  0  0  0  0  0  0  0  0  0  0
   -1.1751   91.2550    9.0672 C   0  0  1  0  0  0  0  0  0  0  0  0
   -2.1225   91.9704   10.0173 C   0  0  2  0  0  0  0  0  0  0  0  0
   -1.2838   92.8123   10.8350 O   0  0  0  0  0  0  0  0  0  0  0  0
   -2.8741   90.9287   10.8540 C   0  0  0  0  0  0  0  0  0  0  0  0
   -1.9880   90.2942   11.7807 O   0  0  0  0  0  0  0  0  0  0  0  0
   -1.8146   91.9799    6.9308 C   0  0  2  0  0  0  0  0  0  0  0  0
   -0.8336   92.1172    7.9702 O   0  0  0  0  0  0  0  0  0  0  0  0
   -1.3214   92.6866    5.6642 C   0  0  1  0  0  0  0  0  0  0  0  0
   -5.7762   92.1381    8.1768 N   0  0  0  0  0  0  0  0  0  0  0  0
   -2.3966   92.6403    4.5731 C   0  0  1  0  0  0  0  0  0  0  0  0
   -2.5774   91.2979    4.1112 O   0  0  0  0  0  0  0  0  0  0  0  0
   -3.7181   93.1831    5.1240 C   0  0  2  0  0  0  0  0  0  0  0  0
   -3.5493   94.5719    5.4276 O   0  0  0  0  0  0  0  0  0  0  0  0
   -4.1017   92.4110    6.3909 C   0  0  1  0  0  0  0  0  0  0  0  0
   -3.0615   92.5406    7.3778 O   0  0  0  0  0  0  0  0  0  0  0  0
   -5.4306   92.9038    6.9701 C   0  0  0  0  0  0  0  0  0  0  0  0
   -1.0470   94.0952    5.9863 N   0  0  0  0  0  0  0  0  0  0  0  0
  1  2  1  1  0  0  0
  1  3  1  0  0  0  0
  1 10  1  0  0  0  0
  3  4  1  1  0  0  0
  3  5  1  0  0  0  0
  5  6  1  1  0  0  0
  5  7  1  0  0  0  0
  7  8  1  1  0  0  0
  7  9  1  0  0  0  0
  9 10  1  0  0  0  0
  9 11  1  6  0  0  0
 11 12  1  0  0  0  0
 13 14  1  6  0  0  0
 13 15  1  0  0  0  0
 13 21  1  0  0  0  0
 16 15  1  0  0  0  0
 16 17  1  1  0  0  0
 18  2  1  1  0  0  0
 18 16  1  0  0  0  0
 19 18  1  0  0  0  0
 19 20  1  6  0  0  0
 21 19  1  0  0  0  0
 21 22  1  6  0  0  0
 23 20  1  1  0  0  0
 23 24  1  0  0  0  0
 23 28  1  0  0  0  0
 24 25  1  6  0  0  0
 24 26  1  0  0  0  0
 26 27  1  0  0  0  0
 26 32  1  6  0  0  0
 27 28  1  0  0  0  0
 27 29  1  1  0  0  0
 29 30  1  0  0  0  0
 31 32  1  1  0  0  0
 31 40  1  0  0  0  0
 33 31  1  0  0  0  0
 33 42  1  1  0  0  0
 35 33  1  0  0  0  0
 35 36  1  1  0  0  0
 37 35  1  0  0  0  0
 37 38  1  1  0  0  0
 37 39  1  0  0  0  0
 39 40  1  0  0  0  0
 39 41  1  1  0  0  0
 41 34  1  0  0  0  0
M  END
>  <CHROM.1>
-167.91050905,67.75627253,-155.91873605,162.16261561,-178.26904506,163.12995698
69.86623388,-169.38930774,179.56016274,-0.50030822,92.24453844,11.38121344
1.07201350,0.67463832,2.03321101

>  <Name>
2fcy_lig

>  <RI>
0

>  <Rbt.Current_Directory>
/home/itssahil/PROJECTS/Mol_Feturizer/New_Systems/rnas/2fcy

>  <Rbt.Executable>
rbdock ($Id: //depot/dev/client3/rdock/2013.1/src/exe/rbdock.cxx#4 $)

>  <Rbt.Library>
libRbt.so (2013.1, Build901 2013/11/27)

>  <Rbt.Parameter_File>
/export/apps/rDock/src/rDock_2013.1_src/data/scripts/dock_solv.prm

>  <Rbt.Receptor>
prm/pocket_docking_2.prm

>  <SCORE>
-16.9539

>  <SCORE.INTER>
-12.4204

>  <SCORE.INTER.CONST>
1

>  <SCORE.INTER.POLAR>
-1.71777

>  <SCORE.INTER.ROT>
9

>  <SCORE.INTER.SOLV>
19.1057

>  <SCORE.INTER.VDW>
-18.523

>  <SCORE.INTER.norm>
-0.295725

>  <SCORE.INTRA>
-4.60545

>  <SCORE.INTRA.DIHEDRAL>
-9.85315

>  <SCORE.INTRA.DIHEDRAL.0>
17.3446

>  <SCORE.INTRA.POLAR>
0

>  <SCORE.INTRA.POLAR.0>
0

>  <SCORE.INTRA.REPUL>
0

>  <SCORE.INTRA.REPUL.0>
0

>  <SCORE.INTRA.SOLV>
-1.19479

>  <SCORE.INTRA.SOLV.lig_0>
-112.452

>  <SCORE.INTRA.VDW>
0.918518

>  <SCORE.INTRA.VDW.0>
-5.95059

>  <SCORE.INTRA.norm>
-0.109654

>  <SCORE.RESTR>
0.0719929

>  <SCORE.RESTR.CAVITY>
0.0719929

>  <SCORE.RESTR.norm>
0.00171412

>  <SCORE.SYSTEM>
0

>  <SCORE.SYSTEM.CONST>
0

>  <SCORE.SYSTEM.DIHEDRAL>
0

>  <SCORE.SYSTEM.SOLV>
0

>  <SCORE.SYSTEM.norm>
0

>  <SCORE.heavy>
42

>  <SCORE.norm>
-0.403664

>  <RMSD>
0.949

$$$$
2fcy_lig
 OpenBabel11021811433D
libRbt.so/2013.1/901 2013/11/27
 42 45  0  0  0  0  0  0  0  0999 V2000
    0.1753   91.2169   14.2995 C   0  0  2  0  0  0  0  0  0  0  0  0
    0.4513   92.5882   14.6320 O   0  0  0  0  0  0  0  0  0  0  0  0
   -1.1439   90.8858   14.9990 C   0  0  2  0  0  0  0  0  0  0  0  0
   -2.1550   91.8694   14.5879 N   0  0  0  0  0  0  0  0  0  0  0  0
   -0.9514   90.9577   16.5159 C   0  0  1  0  0  0  0  0  0  0  0  0
   -2.1725   90.6472   17.1929 O   0  0  0  0  0  0  0  0  0  0  0  0
    0.1541   89.9873   16.9330 C   0  0  2  0  0  0  0  0  0  0  0  0
    0.3982   90.1260   18.3326 O   0  0  0  0  0  0  0  0  0  0  0  0
    1.4384   90.3539   16.1878 C   0  0  2  0  0  0  0  0  0  0  0  0
    1.1990   90.3175   14.7723 O   0  0  0  0  0  0  0  0  0  0  0  0
    2.5509   89.3821   16.5902 C   0  0  0  0  0  0  0  0  0  0  0  0
    2.3178   88.0485   16.0160 N   0  0  0  0  0  0  0  0  0  0  0  0
    2.4669   95.7046   12.6642 C   0  0  2  0  0  0  0  0  0  0  0  0
    3.3824   96.6070   11.9498 N   0  0  0  0  0  0  0  0  0  0  0  0
    3.1150   95.1747   13.9448 C   0  0  0  0  0  0  0  0  0  0  0  0
    2.0717   94.3522   14.7079 C   0  0  2  0  0  0  0  0  0  0  0  0
    2.6972   93.7599   15.8991 N   0  0  0  0  0  0  0  0  0  0  0  0
    1.4975   93.2098   13.8648 C   0  0  2  0  0  0  0  0  0  0  0  0
    1.0444   93.6161   12.4669 C   0  0  2  0  0  0  0  0  0  0  0  0
    0.9191   92.3887   11.7307 O   0  0  0  0  0  0  0  0  0  0  0  0
    2.0710   94.5230   11.7754 C   0  0  1  0  0  0  0  0  0  0  0  0
    1.5444   95.0501   10.5548 O   0  0  0  0  0  0  0  0  0  0  0  0
    0.1058   92.4517   10.5479 C   0  0  1  0  0  0  0  0  0  0  0  0
    0.0652   91.0486    9.9403 C   0  0  2  0  0  0  0  0  0  0  0  0
    1.2242   90.8421    9.1292 O   0  0  0  0  0  0  0  0  0  0  0  0
   -1.1598   91.2160    9.0459 C   0  0  1  0  0  0  0  0  0  0  0  0
   -2.1086   91.9137   10.0077 C   0  0  2  0  0  0  0  0  0  0  0  0
   -1.2753   92.7684   10.8175 O   0  0  0  0  0  0  0  0  0  0  0  0
   -2.8332   90.8580   10.8508 C   0  0  0  0  0  0  0  0  0  0  0  0
   -1.9226   90.2253   11.7547 O   0  0  0  0  0  0  0  0  0  0  0  0
   -1.8720   91.9850    6.9483 C   0  0  2  0  0  0  0  0  0  0  0  0
   -0.8451   92.0857    7.9467 O   0  0  0  0  0  0  0  0  0  0  0  0
   -1.4155   92.6960    5.6703 C   0  0  1  0  0  0  0  0  0  0  0  0
   -6.6002   92.7733    6.2502 N   0  0  0  0  0  0  0  0  0  0  0  0
   -2.5364   92.6892    4.6253 C   0  0  1  0  0  0  0  0  0  0  0  0
   -2.7691   91.3574    4.1556 O   0  0  0  0  0  0  0  0  0  0  0  0
   -3.8200   93.2561    5.2380 C   0  0  2  0  0  0  0  0  0  0  0  0
   -3.6050   94.6365    5.5505 O   0  0  0  0  0  0  0  0  0  0  0  0
   -4.1687   92.4772    6.5108 C   0  0  1  0  0  0  0  0  0  0  0  0
   -3.0850   92.5695    7.4542 O   0  0  0  0  0  0  0  0  0  0  0  0
   -5.4597   92.9940    7.1516 C   0  0  0  0  0  0  0  0  0  0  0  0
   -1.0937   94.0934    5.9971 N   0  0  0  0  0  0  0  0  0  0  0  0
  1  2  1  1  0  0  0
  1  3  1  0  0  0  0
  1 10  1  0  0  0  0
  3  4  1  6  0  0  0
  3  5  1  0  0  0  0
  5  6  1  1  0  0  0
  5  7  1  0  0  0  0
  7  8  1  1  0  0  0
  7  9  1  0  0  0  0
  9 10  1  0  0  0  0
  9 11  1  6  0  0  0
 11 12  1  0  0  0  0
 13 14  1  6  0  0  0
 13 15  1  0  0  0  0
 13 21  1  0  0  0  0
 16 15  1  0  0  0  0
 16 17  1  1  0  0  0
 18  2  1  1  0  0  0
 18 16  1  0  0  0  0
 19 18  1  0  0  0  0
 19 20  1  6  0  0  0
 21 19  1  0  0  0  0
 21 22  1  6  0  0  0
 23 20  1  1  0  0  0
 23 24  1  0  0  0  0
 23 28  1  0  0  0  0
 24 25  1  6  0  0  0
 24 26  1  0  0  0  0
 26 27  1  0  0  0  0
 26 32  1  6  0  0  0
 27 28  1  0  0  0  0
 27 29  1  1  0  0  0
 29 30  1  0  0  0  0
 31 32  1  1  0  0  0
 31 40  1  0  0  0  0
 33 31  1  0  0  0  0
 33 42  1  1  0  0  0
 35 33  1  0  0  0  0
 35 36  1  1  0  0  0
 37 35  1  0  0  0  0
 37 38  1  1  0  0  0
 37 39  1  0  0  0  0
 39 40  1  0  0  0  0
 39 41  1  1  0  0  0
 41 34  1  0  0  0  0
M  END
>  <CHROM.1>
-167.59736121,71.59381495,-155.11911742,160.52628946,-178.27528909,166.10567710
69.13024577,-169.28521837,63.87491290,-0.53981604,92.26310951,11.33127280
1.05240564,0.65976617,2.04591603

>  <Name>
2fcy_lig

>  <RI>
0

>  <Rbt.Current_Directory>
/home/itssahil/PROJECTS/Mol_Feturizer/New_Systems/rnas/2fcy

>  <Rbt.Executable>
rbdock ($Id: //depot/dev/client3/rdock/2013.1/src/exe/rbdock.cxx#4 $)

>  <Rbt.Library>
libRbt.so (2013.1, Build901 2013/11/27)

>  <Rbt.Parameter_File>
/export/apps/rDock/src/rDock_2013.1_src/data/scripts/dock_solv.prm

>  <Rbt.Receptor>
prm/pocket_docking_2.prm

>  <SCORE>
-16.9038

>  <SCORE.INTER>
-12.5999

>  <SCORE.INTER.CONST>
1

>  <SCORE.INTER.POLAR>
-1.66802

>  <SCORE.INTER.ROT>
9

>  <SCORE.INTER.SOLV>
18.4376

>  <SCORE.INTER.VDW>
-18.5857

>  <SCORE.INTER.norm>
-0.299997

>  <SCORE.INTRA>
-4.36204

>  <SCORE.INTRA.DIHEDRAL>
-9.51918

>  <SCORE.INTRA.DIHEDRAL.0>
17.3446

>  <SCORE.INTRA.POLAR>
0

>  <SCORE.INTRA.POLAR.0>
0

>  <SCORE.INTRA.REPUL>
0

>  <SCORE.INTRA.REPUL.0>
0

>  <SCORE.INTRA.SOLV>
-1.40679

>  <SCORE.INTRA.SOLV.lig_0>
-112.452

>  <SCORE.INTRA.VDW>
1.10094

>  <SCORE.INTRA.VDW.0>
-5.95059

>  <SCORE.INTRA.norm>
-0.103858

>  <SCORE.RESTR>
0.0580897

>  <SCORE.RESTR.CAVITY>
0.0580897

>  <SCORE.RESTR.norm>
0.00138309

>  <SCORE.SYSTEM>
0

>  <SCORE.SYSTEM.CONST>
0

>  <SCORE.SYSTEM.DIHEDRAL>
0

>  <SCORE.SYSTEM.SOLV>
0

>  <SCORE.SYSTEM.norm>
0

>  <SCORE.heavy>
42

>  <SCORE.norm>
-0.402472

>  <RMSD>
0.965

$$$$
2fcy_lig
 OpenBabel11021811433D
libRbt.so/2013.1/901 2013/11/27
 42 45  0  0  0  0  0  0  0  0999 V2000
    0.1409   91.1973   14.2755 C   0  0  2  0  0  0  0  0  0  0  0  0
    0.4399   92.5567   14.6358 O   0  0  0  0  0  0  0  0  0  0  0  0
   -1.1154   90.8328   15.0679 C   0  0  2  0  0  0  0  0  0  0  0  0
   -2.1594   91.8254   14.7786 N   0  0  0  0  0  0  0  0  0  0  0  0
   -0.7990   90.8489   16.5655 C   0  0  1  0  0  0  0  0  0  0  0  0
   -1.9595   90.5064   17.3282 O   0  0  0  0  0  0  0  0  0  0  0  0
    0.3395   89.8698   16.8535 C   0  0  2  0  0  0  0  0  0  0  0  0
    0.6976   89.9575   18.2326 O   0  0  0  0  0  0  0  0  0  0  0  0
    1.5572   90.2713   16.0198 C   0  0  2  0  0  0  0  0  0  0  0  0
    1.2023   90.2866   14.6283 O   0  0  0  0  0  0  0  0  0  0  0  0
    2.7015   89.2915   16.2925 C   0  0  0  0  0  0  0  0  0  0  0  0
    2.3806   87.9515   15.7786 N   0  0  0  0  0  0  0  0  0  0  0  0
    2.4597   95.6787   12.6813 C   0  0  2  0  0  0  0  0  0  0  0  0
    3.3767   96.5831   11.9713 N   0  0  0  0  0  0  0  0  0  0  0  0
    3.1054   95.1446   13.9614 C   0  0  0  0  0  0  0  0  0  0  0  0
    2.0606   94.3199   14.7200 C   0  0  2  0  0  0  0  0  0  0  0  0
    2.6838   93.7238   15.9105 N   0  0  0  0  0  0  0  0  0  0  0  0
    1.4876   93.1804   13.8723 C   0  0  2  0  0  0  0  0  0  0  0  0
    1.0370   93.5912   12.4749 C   0  0  2  0  0  0  0  0  0  0  0  0
    0.9127   92.3662   11.7346 O   0  0  0  0  0  0  0  0  0  0  0  0
    2.0651   94.5000   11.7881 C   0  0  1  0  0  0  0  0  0  0  0  0
    1.5407   95.0311   10.5682 O   0  0  0  0  0  0  0  0  0  0  0  0
    0.0960   92.4314   10.5544 C   0  0  1  0  0  0  0  0  0  0  0  0
    0.0599   91.0312    9.9398 C   0  0  2  0  0  0  0  0  0  0  0  0
    1.2176   90.8339    9.1247 O   0  0  0  0  0  0  0  0  0  0  0  0
   -1.1682   91.1977    9.0495 C   0  0  1  0  0  0  0  0  0  0  0  0
   -2.1175   91.8864   10.0173 C   0  0  2  0  0  0  0  0  0  0  0  0
   -1.2858   92.7407   10.8292 O   0  0  0  0  0  0  0  0  0  0  0  0
   -2.8351   90.8234   10.8570 C   0  0  0  0  0  0  0  0  0  0  0  0
   -3.7901   91.4333   11.7302 O   0  0  0  0  0  0  0  0  0  0  0  0
   -1.8782   91.9580    6.9480 C   0  0  2  0  0  0  0  0  0  0  0  0
   -0.8603   92.0742    7.9539 O   0  0  0  0  0  0  0  0  0  0  0  0
   -1.4391   92.7069    5.6857 C   0  0  1  0  0  0  0  0  0  0  0  0
   -5.3505   94.2042    7.6877 N   0  0  0  0  0  0  0  0  0  0  0  0
   -2.5539   92.6822    4.6344 C   0  0  1  0  0  0  0  0  0  0  0  0
   -2.7399   91.3523    4.1394 O   0  0  0  0  0  0  0  0  0  0  0  0
   -3.8586   93.1951    5.2500 C   0  0  2  0  0  0  0  0  0  0  0  0
   -3.6910   94.5759    5.5887 O   0  0  0  0  0  0  0  0  0  0  0  0
   -4.1877   92.3820    6.5066 C   0  0  1  0  0  0  0  0  0  0  0  0
   -3.1125   92.4927    7.4576 O   0  0  0  0  0  0  0  0  0  0  0  0
   -5.4983   92.8440    7.1493 C   0  0  0  0  0  0  0  0  0  0  0  0
   -1.1654   94.1079    6.0396 N   0  0  0  0  0  0  0  0  0  0  0  0
  1  2  1  1  0  0  0
  1  3  1  0  0  0  0
  1 10  1  0  0  0  0
  3  4  1  1  0  0  0
  3  5  1  0  0  0  0
  5  6  1  1  0  0  0
  5  7  1  0  0  0  0
  7  8  1  1  0  0  0
  7  9  1  0  0  0  0
  9 10  1  0  0  0  0
  9 11  1  6  0  0  0
 11 12  1  0  0  0  0
 13 14  1  6  0  0  0
 13 15  1  0  0  0  0
 13 21  1  0  0  0  0
 16 15  1  0  0  0  0
 16 17  1  1  0  0  0
 18  2  1  1  0  0  0
 18 16  1  0  0  0  0
 19 18  1  0  0  0  0
 19 20  1  6  0  0  0
 21 19  1  0  0  0  0
 21 22  1  6  0  0  0
 23 20  1  1  0  0  0
 23 24  1  0  0  0  0
 23 28  1  0  0  0  0
 24 25  1  6  0  0  0
 24 26  1  0  0  0  0
 26 27  1  0  0  0  0
 26 32  1  6  0  0  0
 27 28  1  0  0  0  0
 27 29  1  1  0  0  0
 29 30  1  0  0  0  0
 31 32  1  1  0  0  0
 31 40  1  0  0  0  0
 33 31  1  0  0  0  0
 33 42  1  1  0  0  0
 35 33  1  0  0  0  0
 35 36  1  1  0  0  0
 37 35  1  0  0  0  0
 37 38  1  1  0  0  0
 37 39  1  0  0  0  0
 39 40  1  0  0  0  0
 39 41  1  1  0  0  0
 41 34  1  0  0  0  0
M  END
>  <CHROM.1>
-171.97653073,67.27458853,-156.63262572,160.22401452,-178.41291236,165.18509274
-176.90565047,-170.63041590,-67.07350191,-0.54290053,92.28439299,11.35630455
1.05904344,0.64187545,2.05116635

>  <Name>
2fcy_lig

>  <RI>
0

>  <Rbt.Current_Directory>
/home/itssahil/PROJECTS/Mol_Feturizer/New_Systems/rnas/2fcy

>  <Rbt.Executable>
rbdock ($Id: //depot/dev/client3/rdock/2013.1/src/exe/rbdock.cxx#4 $)

>  <Rbt.Library>
libRbt.so (2013.1, Build901 2013/11/27)

>  <Rbt.Parameter_File>
/export/apps/rDock/src/rDock_2013.1_src/data/scripts/dock_solv.prm

>  <Rbt.Receptor>
prm/pocket_docking_2.prm

>  <SCORE>
-16.4009

>  <SCORE.INTER>
-11.7629

>  <SCORE.INTER.CONST>
1

>  <SCORE.INTER.POLAR>
-1.66247

>  <SCORE.INTER.ROT>
9

>  <SCORE.INTER.SOLV>
19.0707

>  <SCORE.INTER.VDW>
-18.2573

>  <SCORE.INTER.norm>
-0.28007

>  <SCORE.INTRA>
-4.70918

>  <SCORE.INTRA.DIHEDRAL>
-10.5727

>  <SCORE.INTRA.DIHEDRAL.0>
17.3446

>  <SCORE.INTRA.POLAR>
0

>  <SCORE.INTRA.POLAR.0>
0

>  <SCORE.INTRA.REPUL>
0

>  <SCORE.INTRA.REPUL.0>
0

>  <SCORE.INTRA.SOLV>
-1.17922

>  <SCORE.INTRA.SOLV.lig_0>
-112.452

>  <SCORE.INTRA.VDW>
1.16676

>  <SCORE.INTRA.VDW.0>
-5.95059

>  <SCORE.INTRA.norm>
-0.112123

>  <SCORE.RESTR>
0.0711961

>  <SCORE.RESTR.CAVITY>
0.0711961

>  <SCORE.RESTR.norm>
0.00169514

>  <SCORE.SYSTEM>
0

>  <SCORE.SYSTEM.CONST>
0

>  <SCORE.SYSTEM.DIHEDRAL>
0

>  <SCORE.SYSTEM.SOLV>
0

>  <SCORE.SYSTEM.norm>
0

>  <SCORE.heavy>
42

>  <SCORE.norm>
-0.390498

>  <RMSD>
0.969

$$$$
2fcy_lig
 OpenBabel11021811433D
libRbt.so/2013.1/901 2013/11/27
 42 45  0  0  0  0  0  0  0  0999 V2000
    0.1597   91.1640   14.3288 C   0  0  2  0  0  0  0  0  0  0  0  0
    0.4576   92.5291   14.6679 O   0  0  0  0  0  0  0  0  0  0  0  0
   -1.1612   90.8485   15.0321 C   0  0  2  0  0  0  0  0  0  0  0  0
   -2.1593   91.8494   14.6311 N   0  0  0  0  0  0  0  0  0  0  0  0
   -0.9612   90.9088   16.5486 C   0  0  1  0  0  0  0  0  0  0  0  0
   -2.1838   90.6126   17.2291 O   0  0  0  0  0  0  0  0  0  0  0  0
    0.1315   89.9196   16.9553 C   0  0  2  0  0  0  0  0  0  0  0  0
    0.3837   90.0467   18.3546 O   0  0  0  0  0  0  0  0  0  0  0  0
    1.4179   90.2714   16.2066 C   0  0  2  0  0  0  0  0  0  0  0  0
    1.1720   90.2468   14.7919 O   0  0  0  0  0  0  0  0  0  0  0  0
    2.5175   89.2809   16.5985 C   0  0  0  0  0  0  0  0  0  0  0  0
    2.3511   88.0027   15.8907 N   0  0  0  0  0  0  0  0  0  0  0  0
    2.4662   95.6362   12.6784 C   0  0  2  0  0  0  0  0  0  0  0  0
    3.3775   96.5340   11.9530 N   0  0  0  0  0  0  0  0  0  0  0  0
    3.1288   95.0989   13.9485 C   0  0  0  0  0  0  0  0  0  0  0  0
    2.0910   94.2817   14.7246 C   0  0  2  0  0  0  0  0  0  0  0  0
    2.7293   93.6825   15.9054 N   0  0  0  0  0  0  0  0  0  0  0  0
    1.4970   93.1453   13.8872 C   0  0  2  0  0  0  0  0  0  0  0  0
    1.0268   93.5579   12.4968 C   0  0  2  0  0  0  0  0  0  0  0  0
    0.8825   92.3332   11.7597 O   0  0  0  0  0  0  0  0  0  0  0  0
    2.0496   94.4594   11.7927 C   0  0  1  0  0  0  0  0  0  0  0  0
    1.5092   94.9930   10.5810 O   0  0  0  0  0  0  0  0  0  0  0  0
    0.0774   92.4115   10.5723 C   0  0  1  0  0  0  0  0  0  0  0  0
    0.0559   91.0205    9.9364 C   0  0  2  0  0  0  0  0  0  0  0  0
    1.2230   90.8423    9.1303 O   0  0  0  0  0  0  0  0  0  0  0  0
   -1.1641   91.1933    9.0363 C   0  0  1  0  0  0  0  0  0  0  0  0
   -2.1272   91.8617   10.0047 C   0  0  2  0  0  0  0  0  0  0  0  0
   -1.3089   92.7085   10.8377 O   0  0  0  0  0  0  0  0  0  0  0  0
   -2.8470   90.7820   10.8209 C   0  0  0  0  0  0  0  0  0  0  0  0
   -1.9405   90.1527   11.7313 O   0  0  0  0  0  0  0  0  0  0  0  0
   -1.8778   92.0099    6.9573 C   0  0  2  0  0  0  0  0  0  0  0  0
   -0.8505   92.0881    7.9572 O   0  0  0  0  0  0  0  0  0  0  0  0
   -1.4066   92.7162    5.6821 C   0  0  1  0  0  0  0  0  0  0  0  0
   -5.2192   94.4347    7.6975 N   0  0  0  0  0  0  0  0  0  0  0  0
   -2.5262   92.7337    4.6358 C   0  0  1  0  0  0  0  0  0  0  0  0
   -2.7832   91.4081    4.1616 O   0  0  0  0  0  0  0  0  0  0  0  0
   -3.7996   93.3226    5.2488 C   0  0  2  0  0  0  0  0  0  0  0  0
   -3.5591   94.6978    5.5660 O   0  0  0  0  0  0  0  0  0  0  0  0
   -4.1644   92.5464    6.5188 C   0  0  1  0  0  0  0  0  0  0  0  0
   -3.0803   92.6153    7.4637 O   0  0  0  0  0  0  0  0  0  0  0  0
   -5.4462   93.0852    7.1597 C   0  0  0  0  0  0  0  0  0  0  0  0
   -1.0590   94.1062    6.0137 N   0  0  0  0  0  0  0  0  0  0  0  0
  1  2  1  1  0  0  0
  1  3  1  0  0  0  0
  1 10  1  0  0  0  0
  3  4  1  6  0  0  0
  3  5  1  0  0  0  0
  5  6  1  1  0  0  0
  5  7  1  0  0  0  0
  7  8  1  1  0  0  0
  7  9  1  0  0  0  0
  9 10  1  0  0  0  0
  9 11  1  6  0  0  0
 11 12  1  0  0  0  0
 13 14  1  6  0  0  0
 13 15  1  0  0  0  0
 13 21  1  0  0  0  0
 16 15  1  0  0  0  0
 16 17  1  1  0  0  0
 18  2  1  1  0  0  0
 18 16  1  0  0  0  0
 19 18  1  0  0  0  0
 19 20  1  6  0  0  0
 21 19  1  0  0  0  0
 21 22  1  6  0  0  0
 23 20  1  1  0  0  0
 23 24  1  0  0  0  0
 23 28  1  0  0  0  0
 24 25  1  6  0  0  0
 24 26  1  0  0  0  0
 26 27  1  0  0  0  0
 26 32  1  6  0  0  0
 27 28  1  0  0  0  0
 27 29  1  1  0  0  0
 29 30  1  0  0  0  0
 31 32  1  1  0  0  0
 31 40  1  0  0  0  0
 33 31  1  0  0  0  0
 33 42  1  1  0  0  0
 35 33  1  0  0  0  0
 35 36  1  1  0  0  0
 37 35  1  0  0  0  0
 37 38  1  1  0  0  0
 37 39  1  0  0  0  0
 39 40  1  0  0  0  0
 39 41  1  1  0  0  0
 41 34  1  0  0  0  0
M  END
>  <CHROM.1>
-166.77271160,78.38034096,-155.61829605,161.87154137,179.69436361,166.85587580
69.89309446,-167.70642828,-68.04105126,-0.51225122,92.27313317,11.37579683
1.07189003,0.67773941,2.06851435

>  <Name>
2fcy_lig

>  <RI>
0

>  <Rbt.Current_Directory>
/home/itssahil/PROJECTS/Mol_Feturizer/New_Systems/rnas/2fcy

>  <Rbt.Executable>
rbdock ($Id: //depot/dev/client3/rdock/2013.1/src/exe/rbdock.cxx#4 $)

>  <Rbt.Library>
libRbt.so (2013.1, Build901 2013/11/27)

>  <Rbt.Parameter_File>
/export/apps/rDock/src/rDock_2013.1_src/data/scripts/dock_solv.prm

>  <Rbt.Receptor>
prm/pocket_docking_2.prm

>  <SCORE>
-15.9117

>  <SCORE.INTER>
-12.6614

>  <SCORE.INTER.CONST>
1

>  <SCORE.INTER.POLAR>
-1.67723

>  <SCORE.INTER.ROT>
9

>  <SCORE.INTER.SOLV>
19.2722

>  <SCORE.INTER.VDW>
-18.8743

>  <SCORE.INTER.norm>
-0.301463

>  <SCORE.INTRA>
-3.31383

>  <SCORE.INTRA.DIHEDRAL>
-8.75546

>  <SCORE.INTRA.DIHEDRAL.0>
17.3446

>  <SCORE.INTRA.POLAR>
0

>  <SCORE.INTRA.POLAR.0>
0

>  <SCORE.INTRA.REPUL>
0

>  <SCORE.INTRA.REPUL.0>
0

>  <SCORE.INTRA.SOLV>
-0.170078

>  <SCORE.INTRA.SOLV.lig_0>
-112.452

>  <SCORE.INTRA.VDW>
1.14894

>  <SCORE.INTRA.VDW.0>
-5.95059

>  <SCORE.INTRA.norm>
-0.0789008

>  <SCORE.RESTR>
0.0636021

>  <SCORE.RESTR.CAVITY>
0.0636021

>  <SCORE.RESTR.norm>
0.00151434

>  <SCORE.SYSTEM>
0

>  <SCORE.SYSTEM.CONST>
0

>  <SCORE.SYSTEM.DIHEDRAL>
0

>  <SCORE.SYSTEM.SOLV>
0

>  <SCORE.SYSTEM.norm>
0

>  <SCORE.heavy>
42

>  <SCORE.norm>
-0.378849

>  <RMSD>
0.978

$$$$
2fcy_lig
 OpenBabel11021811433D
libRbt.so/2013.1/901 2013/11/27
 42 45  0  0  0  0  0  0  0  0999 V2000
    0.2904   91.2483   14.4161 C   0  0  2  0  0  0  0  0  0  0  0  0
    0.6189   92.5872   14.8244 O   0  0  0  0  0  0  0  0  0  0  0  0
   -0.9953   90.8975   15.1663 C   0  0  2  0  0  0  0  0  0  0  0  0
   -2.0029   91.9283   14.8819 N   0  0  0  0  0  0  0  0  0  0  0  0
   -0.7164   90.8602   16.6710 C   0  0  1  0  0  0  0  0  0  0  0  0
   -1.9049   90.5294   17.3946 O   0  0  0  0  0  0  0  0  0  0  0  0
    0.3862   89.8402   16.9569 C   0  0  2  0  0  0  0  0  0  0  0  0
    0.7118   89.8766   18.3463 O   0  0  0  0  0  0  0  0  0  0  0  0
    1.6355   90.2303   16.1655 C   0  0  2  0  0  0  0  0  0  0  0  0
    1.3163   90.2970   14.7669 O   0  0  0  0  0  0  0  0  0  0  0  0
    2.7441   89.2098   16.4362 C   0  0  0  0  0  0  0  0  0  0  0  0
    2.4307   87.9148   15.8139 N   0  0  0  0  0  0  0  0  0  0  0  0
    2.5430   95.7787   12.8857 C   0  0  2  0  0  0  0  0  0  0  0  0
    3.4263   96.7096   12.1673 N   0  0  0  0  0  0  0  0  0  0  0  0
    3.2420   95.2109   14.1226 C   0  0  0  0  0  0  0  0  0  0  0  0
    2.2325   94.3575   14.8971 C   0  0  2  0  0  0  0  0  0  0  0  0
    2.9057   93.7302   16.0435 N   0  0  0  0  0  0  0  0  0  0  0  0
    1.6321   93.2400   14.0391 C   0  0  2  0  0  0  0  0  0  0  0  0
    1.1242   93.6892   12.6735 C   0  0  2  0  0  0  0  0  0  0  0  0
    0.9768   92.4860   11.9024 O   0  0  0  0  0  0  0  0  0  0  0  0
    2.1193   94.6245   11.9740 C   0  0  1  0  0  0  0  0  0  0  0  0
    1.5440   95.1883   10.7923 O   0  0  0  0  0  0  0  0  0  0  0  0
    0.2058   92.6092   10.6963 C   0  0  1  0  0  0  0  0  0  0  0  0
    0.0598   91.2097   10.0966 C   0  0  2  0  0  0  0  0  0  0  0  0
    1.2187   90.8956    9.3208 O   0  0  0  0  0  0  0  0  0  0  0  0
   -1.1200   91.4755    9.1661 C   0  0  1  0  0  0  0  0  0  0  0  0
   -2.0310   92.2618   10.0957 C   0  0  2  0  0  0  0  0  0  0  0  0
   -1.1493   93.0476   10.9238 O   0  0  0  0  0  0  0  0  0  0  0  0
   -2.8687   91.2809   10.9241 C   0  0  0  0  0  0  0  0  0  0  0  0
   -3.7918   91.9880   11.7574 O   0  0  0  0  0  0  0  0  0  0  0  0
   -1.6765   92.2413    7.0208 C   0  0  2  0  0  0  0  0  0  0  0  0
   -0.6996   92.3046    8.0710 O   0  0  0  0  0  0  0  0  0  0  0  0
   -1.1844   93.0465    5.8139 C   0  0  1  0  0  0  0  0  0  0  0  0
   -6.3945   92.9130    6.1636 N   0  0  0  0  0  0  0  0  0  0  0  0
   -2.2560   93.0772    4.7188 C   0  0  1  0  0  0  0  0  0  0  0  0
   -2.4264   91.7731    4.1544 O   0  0  0  0  0  0  0  0  0  0  0  0
   -3.5828   93.5674    5.3052 C   0  0  2  0  0  0  0  0  0  0  0  0
   -3.4242   94.9298    5.7152 O   0  0  0  0  0  0  0  0  0  0  0  0
   -3.9649   92.6977    6.5077 C   0  0  1  0  0  0  0  0  0  0  0  0
   -2.9285   92.7578    7.5052 O   0  0  0  0  0  0  0  0  0  0  0  0
   -5.2988   93.1359    7.1184 C   0  0  0  0  0  0  0  0  0  0  0  0
   -0.9204   94.4278    6.2443 N   0  0  0  0  0  0  0  0  0  0  0  0
  1  2  1  1  0  0  0
  1  3  1  0  0  0  0
  1 10  1  0  0  0  0
  3  4  1  1  0  0  0
  3  5  1  0  0  0  0
  5  6  1  1  0  0  0
  5  7  1  0  0  0  0
  7  8  1  1  0  0  0
  7  9  1  0  0  0  0
  9 10  1  0  0  0  0
  9 11  1  6  0  0  0
 11 12  1  0  0  0  0
 13 14  1  6  0  0  0
 13 15  1  0  0  0  0
 13 21  1  0  0  0  0
 16 15  1  0  0  0  0
 16 17  1  1  0  0  0
 18  2  1  1  0  0  0
 18 16  1  0  0  0  0
 19 18  1  0  0  0  0
 19 20  1  6  0  0  0
 21 19  1  0  0  0  0
 21 22  1  6  0  0  0
 23 20  1  1  0  0  0
 23 24  1  0  0  0  0
 23 28  1  0  0  0  0
 24 25  1  6  0  0  0
 24 26  1  0  0  0  0
 26 27  1  0  0  0  0
 26 32  1  6  0  0  0
 27 28  1  0  0  0  0
 27 29  1  1  0  0  0
 29 30  1  0  0  0  0
 31 32  1  1  0  0  0
 31 40  1  0  0  0  0
 33 31  1  0  0  0  0
 33 42  1  1  0  0  0
 35 33  1  0  0  0  0
 35 36  1  1  0  0  0
 37 35  1  0  0  0  0
 37 38  1  1  0  0  0
 37 39  1  0  0  0  0
 39 40  1  0  0  0  0
 39 41  1  1  0  0  0
 41 34  1  0  0  0  0
M  END
>  <CHROM.1>
-167.37575255,70.25136777,-158.03699154,165.30114451,-174.88319433,163.73101066
-176.76296228,-176.09578354,65.23752576,-0.44728939,92.41922511,11.43686609
1.06511305,0.63038629,2.06059671

>  <Name>
2fcy_lig

>  <RI>
1.56845e+07

>  <Rbt.Current_Directory>
/home/itssahil/PROJECTS/Mol_Feturizer/New_Systems/rnas/2fcy

>  <Rbt.Executable>
rbdock ($Id: //depot/dev/client3/rdock/2013.1/src/exe/rbdock.cxx#4 $)

>  <Rbt.Library>
libRbt.so (2013.1, Build901 2013/11/27)

>  <Rbt.Parameter_File>
/export/apps/rDock/src/rDock_2013.1_src/data/scripts/dock_solv.prm

>  <Rbt.Receptor>
prm/pocket_docking_4.prm

>  <SCORE>
-17.7696

>  <SCORE.INTER>
-12.3738

>  <SCORE.INTER.CONST>
1

>  <SCORE.INTER.POLAR>
-1.85341

>  <SCORE.INTER.ROT>
9

>  <SCORE.INTER.SOLV>
19.6134

>  <SCORE.INTER.VDW>
-18.209

>  <SCORE.INTER.norm>
-0.294615

>  <SCORE.INTRA>
-5.39581

>  <SCORE.INTRA.DIHEDRAL>
-11.0678

>  <SCORE.INTRA.DIHEDRAL.0>
17.3446

>  <SCORE.INTRA.POLAR>
0

>  <SCORE.INTRA.POLAR.0>
0

>  <SCORE.INTRA.REPUL>
0

>  <SCORE.INTRA.REPUL.0>
0

>  <SCORE.INTRA.SOLV>
-2.89535

>  <SCORE.INTRA.SOLV.lig_0>
-112.452

>  <SCORE.INTRA.VDW>
1.58575

>  <SCORE.INTRA.VDW.0>
-5.95059

>  <SCORE.INTRA.norm>
-0.128472

>  <SCORE.RESTR>
0

>  <SCORE.RESTR.CAVITY>
0

>  <SCORE.RESTR.norm>
0

>  <SCORE.SYSTEM>
0

>  <SCORE.SYSTEM.CONST>
0

>  <SCORE.SYSTEM.DIHEDRAL>
0

>  <SCORE.SYSTEM.SOLV>
0

>  <SCORE.SYSTEM.norm>
0

>  <SCORE.heavy>
42

>  <SCORE.norm>
-0.423086

>  <RMSD>
1.018

$$$$
2fcy_lig
 OpenBabel11021811433D
libRbt.so/2013.1/901 2013/11/27
 42 45  0  0  0  0  0  0  0  0999 V2000
    0.2758   91.1261   14.3105 C   0  0  2  0  0  0  0  0  0  0  0  0
    0.8399   92.3605   14.7853 O   0  0  0  0  0  0  0  0  0  0  0  0
   -1.0502   90.9707   15.0567 C   0  0  2  0  0  0  0  0  0  0  0  0
   -1.8575   92.1790   14.8395 N   0  0  0  0  0  0  0  0  0  0  0  0
   -0.7788   90.8024   16.5538 C   0  0  1  0  0  0  0  0  0  0  0  0
   -2.0057   90.6507   17.2732 O   0  0  0  0  0  0  0  0  0  0  0  0
    0.1238   89.5877   16.7718 C   0  0  2  0  0  0  0  0  0  0  0  0
    0.4540   89.4897   18.1571 O   0  0  0  0  0  0  0  0  0  0  0  0
    1.4208   89.7905   15.9871 C   0  0  2  0  0  0  0  0  0  0  0  0
    1.1153   89.9891   14.5980 O   0  0  0  0  0  0  0  0  0  0  0  0
    2.3292   88.5750   16.1899 C   0  0  0  0  0  0  0  0  0  0  0  0
    2.8409   88.5244   17.5677 N   0  0  0  0  0  0  0  0  0  0  0  0
    3.1969   95.2845   12.9035 C   0  0  2  0  0  0  0  0  0  0  0  0
    4.2024   96.0945   12.1993 N   0  0  0  0  0  0  0  0  0  0  0  0
    3.8119   94.5930   14.1219 C   0  0  0  0  0  0  0  0  0  0  0  0
    2.6930   93.8767   14.8849 C   0  0  2  0  0  0  0  0  0  0  0  0
    3.2735   93.1321   16.0117 N   0  0  0  0  0  0  0  0  0  0  0  0
    1.9333   92.8781   14.0068 C   0  0  2  0  0  0  0  0  0  0  0  0
    1.4896   93.4277   12.6557 C   0  0  2  0  0  0  0  0  0  0  0  0
    1.1661   92.2767   11.8590 O   0  0  0  0  0  0  0  0  0  0  0  0
    2.6064   94.2254   11.9695 C   0  0  1  0  0  0  0  0  0  0  0  0
    2.1135   94.8938   10.8054 O   0  0  0  0  0  0  0  0  0  0  0  0
    0.3852   92.5338   10.6807 C   0  0  1  0  0  0  0  0  0  0  0  0
    0.1167   91.1895   10.0023 C   0  0  2  0  0  0  0  0  0  0  0  0
    1.2322   90.8334    9.1823 O   0  0  0  0  0  0  0  0  0  0  0  0
   -1.0552   91.6038    9.1171 C   0  0  1  0  0  0  0  0  0  0  0  0
   -1.8830   92.4009   10.1129 C   0  0  2  0  0  0  0  0  0  0  0  0
   -0.9261   93.0628   10.9655 O   0  0  0  0  0  0  0  0  0  0  0  0
   -2.7809   91.4401   10.9008 C   0  0  0  0  0  0  0  0  0  0  0  0
   -3.6946   90.7740   10.0246 O   0  0  0  0  0  0  0  0  0  0  0  0
   -1.5982   92.5599    7.0460 C   0  0  2  0  0  0  0  0  0  0  0  0
   -0.5902   92.4628    8.0639 O   0  0  0  0  0  0  0  0  0  0  0  0
   -1.1290   93.5224    5.9503 C   0  0  1  0  0  0  0  0  0  0  0  0
   -6.3213   93.4446    6.4286 N   0  0  0  0  0  0  0  0  0  0  0  0
   -2.2314   93.7201    4.9044 C   0  0  1  0  0  0  0  0  0  0  0  0
   -2.4384   92.5111    4.1669 O   0  0  0  0  0  0  0  0  0  0  0  0
   -3.5327   94.1371    5.5950 C   0  0  2  0  0  0  0  0  0  0  0  0
   -3.3412   95.4258    6.1883 O   0  0  0  0  0  0  0  0  0  0  0  0
   -3.8932   93.1101    6.6737 C   0  0  1  0  0  0  0  0  0  0  0  0
   -2.8274   93.0166    7.6371 O   0  0  0  0  0  0  0  0  0  0  0  0
   -5.2018   93.4723    7.3813 C   0  0  0  0  0  0  0  0  0  0  0  0
   -0.8312   94.8258    6.5633 N   0  0  0  0  0  0  0  0  0  0  0  0
  1  2  1  1  0  0  0
  1  3  1  0  0  0  0
  1 10  1  0  0  0  0
  3  4  1  1  0  0  0
  3  5  1  0  0  0  0
  5  6  1  1  0  0  0
  5  7  1  0  0  0  0
  7  8  1  1  0  0  0
  7  9  1  0  0  0  0
  9 10  1  0  0  0  0
  9 11  1  6  0  0  0
 11 12  1  0  0  0  0
 13 14  1  6  0  0  0
 13 15  1  0  0  0  0
 13 21  1  0  0  0  0
 16 15  1  0  0  0  0
 16 17  1  1  0  0  0
 18  2  1  1  0  0  0
 18 16  1  0  0  0  0
 19 18  1  0  0  0  0
 19 20  1  6  0  0  0
 21 19  1  0  0  0  0
 21 22  1  6  0  0  0
 23 20  1  1  0  0  0
 23 24  1  0  0  0  0
 23 28  1  0  0  0  0
 24 25  1  6  0  0  0
 24 26  1  0  0  0  0
 26 27  1  0  0  0  0
 26 32  1  6  0  0  0
 27 28  1  0  0  0  0
 27 29  1  1  0  0  0
 29 30  1  0  0  0  0
 31 32  1  1  0  0  0
 31 40  1  0  0  0  0
 33 31  1  0  0  0  0
 33 42  1  1  0  0  0
 35 33  1  0  0  0  0
 35 36  1  1  0  0  0
 37 35  1  0  0  0  0
 37 38  1  1  0  0  0
 37 39  1  0  0  0  0
 39 40  1  0  0  0  0
 39 41  1  1  0  0  0
 41 34  1  0  0  0  0
M  END
>  <CHROM.1>
-166.10299487,-69.53240349,-160.99870181,163.70792936,-178.37188639,164.75075466
-62.23039191,177.61223963,63.28610524,-0.31546170,92.38590710,11.44135302
1.09475669,0.51011128,2.05778339

>  <Name>
2fcy_lig

>  <RI>
4.13508e+07

>  <Rbt.Current_Directory>
/home/itssahil/PROJECTS/Mol_Feturizer/New_Systems/rnas/2fcy

>  <Rbt.Executable>
rbdock ($Id: //depot/dev/client3/rdock/2013.1/src/exe/rbdock.cxx#4 $)

>  <Rbt.Library>
libRbt.so (2013.1, Build901 2013/11/27)

>  <Rbt.Parameter_File>
/export/apps/rDock/src/rDock_2013.1_src/data/scripts/dock_solv.prm

>  <Rbt.Receptor>
prm/pocket_docking_3.prm

>  <SCORE>
-23.1102

>  <SCORE.INTER>
-18.0113

>  <SCORE.INTER.CONST>
1

>  <SCORE.INTER.POLAR>
-1.83907

>  <SCORE.INTER.ROT>
9

>  <SCORE.INTER.SOLV>
17.4342

>  <SCORE.INTER.VDW>
-21.2887

>  <SCORE.INTER.norm>
-0.42884

>  <SCORE.INTRA>
-5.0989

>  <SCORE.INTRA.DIHEDRAL>
-11.5765

>  <SCORE.INTRA.DIHEDRAL.0>
17.3446

>  <SCORE.INTRA.POLAR>
0

>  <SCORE.INTRA.POLAR.0>
0

>  <SCORE.INTRA.REPUL>
0

>  <SCORE.INTRA.REPUL.0>
0

>  <SCORE.INTRA.SOLV>
-3.03526

>  <SCORE.INTRA.SOLV.lig_0>
-112.452

>  <SCORE.INTRA.VDW>
2.20695

>  <SCORE.INTRA.VDW.0>
-5.95059

>  <SCORE.INTRA.norm>
-0.121402

>  <SCORE.RESTR>
0

>  <SCORE.RESTR.CAVITY>
0

>  <SCORE.RESTR.norm>
0

>  <SCORE.SYSTEM>
0

>  <SCORE.SYSTEM.CONST>
0

>  <SCORE.SYSTEM.DIHEDRAL>
0

>  <SCORE.SYSTEM.SOLV>
0

>  <SCORE.SYSTEM.norm>
0

>  <SCORE.heavy>
42

>  <SCORE.norm>
-0.550242

>  <RMSD>
1.038

$$$$
2fcy_lig
 OpenBabel11021811433D
libRbt.so/2013.1/901 2013/11/27
 42 45  0  0  0  0  0  0  0  0999 V2000
    0.3161   91.1167   14.4091 C   0  0  2  0  0  0  0  0  0  0  0  0
    0.8641   92.3453   14.9165 O   0  0  0  0  0  0  0  0  0  0  0  0
   -1.0682   90.9939   15.0476 C   0  0  2  0  0  0  0  0  0  0  0  0
   -1.8319   92.2146   14.7553 N   0  0  0  0  0  0  0  0  0  0  0  0
   -0.9211   90.8365   16.5632 C   0  0  1  0  0  0  0  0  0  0  0  0
   -2.2045   90.7152   17.1829 O   0  0  0  0  0  0  0  0  0  0  0  0
   -0.0627   89.6075   16.8641 C   0  0  2  0  0  0  0  0  0  0  0  0
    0.1534   89.5181   18.2723 O   0  0  0  0  0  0  0  0  0  0  0  0
    1.2968   89.7778   16.1844 C   0  0  2  0  0  0  0  0  0  0  0  0
    1.1077   89.9674   14.7735 O   0  0  0  0  0  0  0  0  0  0  0  0
    2.1623   88.5479   16.4706 C   0  0  0  0  0  0  0  0  0  0  0  0
    3.5611   88.9330   16.7109 N   0  0  0  0  0  0  0  0  0  0  0  0
    3.3142   95.2877   13.1884 C   0  0  2  0  0  0  0  0  0  0  0  0
    4.3502   96.1027   12.5362 N   0  0  0  0  0  0  0  0  0  0  0  0
    3.8858   94.5499   14.4007 C   0  0  0  0  0  0  0  0  0  0  0  0
    2.7364   93.8285   15.1116 C   0  0  2  0  0  0  0  0  0  0  0  0
    3.2752   93.0410   16.2298 N   0  0  0  0  0  0  0  0  0  0  0  0
    1.9857   92.8690   14.1835 C   0  0  2  0  0  0  0  0  0  0  0  0
    1.5866   93.4663   12.8387 C   0  0  2  0  0  0  0  0  0  0  0  0
    1.2675   92.3453   11.9987 O   0  0  0  0  0  0  0  0  0  0  0  0
    2.7333   94.2668   12.2070 C   0  0  1  0  0  0  0  0  0  0  0  0
    2.2817   94.9779   11.0514 O   0  0  0  0  0  0  0  0  0  0  0  0
    0.4447   92.6360   10.8573 C   0  0  1  0  0  0  0  0  0  0  0  0
    0.1212   91.3079   10.1709 C   0  0  2  0  0  0  0  0  0  0  0  0
    1.1949   90.9424    9.3007 O   0  0  0  0  0  0  0  0  0  0  0  0
   -1.0770   91.7589    9.3408 C   0  0  1  0  0  0  0  0  0  0  0  0
   -1.8470   92.5569   10.3812 C   0  0  2  0  0  0  0  0  0  0  0  0
   -0.8428   93.1864   11.2034 O   0  0  0  0  0  0  0  0  0  0  0  0
   -2.7315   91.6020   11.1912 C   0  0  0  0  0  0  0  0  0  0  0  0
   -3.6098   90.8756   10.3267 O   0  0  0  0  0  0  0  0  0  0  0  0
   -1.7090   92.8154    7.3451 C   0  0  2  0  0  0  0  0  0  0  0  0
   -0.6379   92.6247    8.2820 O   0  0  0  0  0  0  0  0  0  0  0  0
   -1.2331   93.7132    6.1985 C   0  0  1  0  0  0  0  0  0  0  0  0
   -6.3793   94.0492    7.1240 N   0  0  0  0  0  0  0  0  0  0  0  0
   -2.3899   94.0135    5.2392 C   0  0  1  0  0  0  0  0  0  0  0  0
   -2.7781   92.8252    4.5425 O   0  0  0  0  0  0  0  0  0  0  0  0
   -3.5820   94.5699    6.0225 C   0  0  2  0  0  0  0  0  0  0  0  0
   -3.2126   95.8377    6.5753 O   0  0  0  0  0  0  0  0  0  0  0  0
   -3.9581   93.5966    7.1448 C   0  0  1  0  0  0  0  0  0  0  0  0
   -2.8336   93.4029    8.0228 O   0  0  0  0  0  0  0  0  0  0  0  0
   -5.1617   94.0993    7.9466 C   0  0  0  0  0  0  0  0  0  0  0  0
   -0.7552   94.9848    6.7622 N   0  0  0  0  0  0  0  0  0  0  0  0
  1  2  1  1  0  0  0
  1  3  1  0  0  0  0
  1 10  1  0  0  0  0
  3  4  1  1  0  0  0
  3  5  1  0  0  0  0
  5  6  1  1  0  0  0
  5  7  1  0  0  0  0
  7  8  1  1  0  0  0
  7  9  1  0  0  0  0
  9 10  1  0  0  0  0
  9 11  1  6  0  0  0
 11 12  1  0  0  0  0
 13 14  1  6  0  0  0
 13 15  1  0  0  0  0
 13 21  1  0  0  0  0
 16 15  1  0  0  0  0
 16 17  1  1  0  0  0
 18  2  1  1  0  0  0
 18 16  1  0  0  0  0
 19 18  1  0  0  0  0
 19 20  1  6  0  0  0
 21 19  1  0  0  0  0
 21 22  1  6  0  0  0
 23 20  1  1  0  0  0
 23 24  1  0  0  0  0
 23 28  1  0  0  0  0
 24 25  1  6  0  0  0
 24 26  1  0  0  0  0
 26 27  1  0  0  0  0
 26 32  1  6  0  0  0
 27 28  1  0  0  0  0
 27 29  1  1  0  0  0
 29 30  1  0  0  0  0
 31 32  1  1  0  0  0
 31 40  1  0  0  0  0
 33 31  1  0  0  0  0
 33 42  1  1  0  0  0
 35 33  1  0  0  0  0
 35 36  1  1  0  0  0
 37 35  1  0  0  0  0
 37 38  1  1  0  0  0
 37 39  1  0  0  0  0
 39 40  1  0  0  0  0
 39 41  1  1  0  0  0
 41 34  1  0  0  0  0
M  END
>  <CHROM.1>
-163.14748066,-140.88473447,-159.47876569,159.59642725,-175.12943720,167.84935775
-56.84783117,-178.74205729,69.00278912,-0.31220440,92.52777265,11.65028992
1.08617715,0.45700612,2.07742020

>  <Name>
2fcy_lig

>  <RI>
1.56845e+07

>  <Rbt.Current_Directory>
/home/itssahil/PROJECTS/Mol_Feturizer/New_Systems/rnas/2fcy

>  <Rbt.Executable>
rbdock ($Id: //depot/dev/client3/rdock/2013.1/src/exe/rbdock.cxx#4 $)

>  <Rbt.Library>
libRbt.so (2013.1, Build901 2013/11/27)

>  <Rbt.Parameter_File>
/export/apps/rDock/src/rDock_2013.1_src/data/scripts/dock_solv.prm

>  <Rbt.Receptor>
prm/pocket_docking_4.prm

>  <SCORE>
-21.8498

>  <SCORE.INTER>
-18.4991

>  <SCORE.INTER.CONST>
1

>  <SCORE.INTER.POLAR>
-1.85359

>  <SCORE.INTER.ROT>
9

>  <SCORE.INTER.SOLV>
18.0559

>  <SCORE.INTER.VDW>
-21.7727

>  <SCORE.INTER.norm>
-0.440456

>  <SCORE.INTRA>
-3.35065

>  <SCORE.INTRA.DIHEDRAL>
-6.78257

>  <SCORE.INTRA.DIHEDRAL.0>
17.3446

>  <SCORE.INTRA.POLAR>
0

>  <SCORE.INTRA.POLAR.0>
0

>  <SCORE.INTRA.REPUL>
0

>  <SCORE.INTRA.REPUL.0>
0

>  <SCORE.INTRA.SOLV>
-3.45271

>  <SCORE.INTRA.SOLV.lig_0>
-112.452

>  <SCORE.INTRA.VDW>
1.76699

>  <SCORE.INTRA.VDW.0>
-5.95059

>  <SCORE.INTRA.norm>
-0.0797773

>  <SCORE.RESTR>
0

>  <SCORE.RESTR.CAVITY>
0

>  <SCORE.RESTR.norm>
0

>  <SCORE.SYSTEM>
0

>  <SCORE.SYSTEM.CONST>
0

>  <SCORE.SYSTEM.DIHEDRAL>
0

>  <SCORE.SYSTEM.SOLV>
0

>  <SCORE.SYSTEM.norm>
0

>  <SCORE.heavy>
42

>  <SCORE.norm>
-0.520233

>  <RMSD>
1.070

$$$$
2fcy_lig
 OpenBabel11021811433D
libRbt.so/2013.1/901 2013/11/27
 42 45  0  0  0  0  0  0  0  0999 V2000
    0.3110   91.0211   14.2654 C   0  0  2  0  0  0  0  0  0  0  0  0
    0.6130   92.4007   14.5350 O   0  0  0  0  0  0  0  0  0  0  0  0
   -1.0340   90.7583   14.9442 C   0  0  2  0  0  0  0  0  0  0  0  0
   -2.0087   91.7434   14.4558 N   0  0  0  0  0  0  0  0  0  0  0  0
   -0.8797   90.9039   16.4602 C   0  0  1  0  0  0  0  0  0  0  0  0
   -2.1257   90.6582   17.1183 O   0  0  0  0  0  0  0  0  0  0  0  0
    0.1894   89.9301   16.9566 C   0  0  2  0  0  0  0  0  0  0  0  0
    0.4001   90.1351   18.3535 O   0  0  0  0  0  0  0  0  0  0  0  0
    1.5018   90.2267   16.2294 C   0  0  2  0  0  0  0  0  0  0  0  0
    1.2988   90.1230   14.8114 O   0  0  0  0  0  0  0  0  0  0  0  0
    2.5782   89.2507   16.7113 C   0  0  0  0  0  0  0  0  0  0  0  0
    2.3956   87.9239   16.1038 N   0  0  0  0  0  0  0  0  0  0  0  0
    3.3561   95.2913   13.2060 C   0  0  2  0  0  0  0  0  0  0  0  0
    4.4838   96.0807   12.6883 N   0  0  0  0  0  0  0  0  0  0  0  0
    3.7949   94.4284   14.3907 C   0  0  0  0  0  0  0  0  0  0  0  0
    2.5560   93.7353   14.9668 C   0  0  2  0  0  0  0  0  0  0  0  0
    2.9656   92.8322   16.0520 N   0  0  0  0  0  0  0  0  0  0  0  0
    1.8133   92.9006   13.9194 C   0  0  2  0  0  0  0  0  0  0  0  0
    1.5468   93.6219   12.6030 C   0  0  2  0  0  0  0  0  0  0  0  0
    1.2176   92.5907   11.6584 O   0  0  0  0  0  0  0  0  0  0  0  0
    2.7823   94.3878   12.1117 C   0  0  1  0  0  0  0  0  0  0  0  0
    2.4575   95.2119   10.9890 O   0  0  0  0  0  0  0  0  0  0  0  0
   -0.0377   92.7471   10.9771 C   0  0  1  0  0  0  0  0  0  0  0  0
    0.0287   91.9213    9.6913 C   0  0  2  0  0  0  0  0  0  0  0  0
    0.6765   92.6787    8.6663 O   0  0  0  0  0  0  0  0  0  0  0  0
   -1.4650   91.8323    9.3926 C   0  0  1  0  0  0  0  0  0  0  0  0
   -2.0008   91.4865   10.7730 C   0  0  2  0  0  0  0  0  0  0  0  0
   -1.1565   92.1968   11.7021 O   0  0  0  0  0  0  0  0  0  0  0  0
   -1.9219   89.9689   10.9753 C   0  0  0  0  0  0  0  0  0  0  0  0
   -2.5801   89.5888   12.1872 O   0  0  0  0  0  0  0  0  0  0  0  0
   -2.2075   93.1037    7.5675 C   0  0  2  0  0  0  0  0  0  0  0  0
   -1.9569   93.1177    8.9812 O   0  0  0  0  0  0  0  0  0  0  0  0
   -1.7172   94.4159    6.9472 C   0  0  1  0  0  0  0  0  0  0  0  0
   -5.7571   92.4831    4.3219 N   0  0  0  0  0  0  0  0  0  0  0  0
   -2.0664   94.4655    5.4559 C   0  0  1  0  0  0  0  0  0  0  0  0
   -1.3022   93.4940    4.7345 O   0  0  0  0  0  0  0  0  0  0  0  0
   -3.5617   94.1975    5.2642 C   0  0  2  0  0  0  0  0  0  0  0  0
   -4.2973   95.2719    5.8591 O   0  0  0  0  0  0  0  0  0  0  0  0
   -3.9352   92.8707    5.9338 C   0  0  1  0  0  0  0  0  0  0  0  0
   -3.6156   92.9226    7.3366 O   0  0  0  0  0  0  0  0  0  0  0  0
   -5.4205   92.5464    5.7518 C   0  0  0  0  0  0  0  0  0  0  0  0
   -2.3917   95.5366    7.6197 N   0  0  0  0  0  0  0  0  0  0  0  0
  1  2  1  1  0  0  0
  1  3  1  0  0  0  0
  1 10  1  0  0  0  0
  3  4  1  6  0  0  0
  3  5  1  0  0  0  0
  5  6  1  1  0  0  0
  5  7  1  0  0  0  0
  7  8  1  1  0  0  0
  7  9  1  0  0  0  0
  9 10  1  0  0  0  0
  9 11  1  1  0  0  0
 11 12  1  0  0  0  0
 13 14  1  6  0  0  0
 13 15  1  0  0  0  0
 13 21  1  0  0  0  0
 16 15  1  0  0  0  0
 16 17  1  1  0  0  0
 18  2  1  1  0  0  0
 18 16  1  0  0  0  0
 19 18  1  0  0  0  0
 19 20  1  6  0  0  0
 21 19  1  0  0  0  0
 21 22  1  6  0  0  0
 23 20  1  1  0  0  0
 23 24  1  0  0  0  0
 23 28  1  0  0  0  0
 24 25  1  6  0  0  0
 24 26  1  0  0  0  0
 26 27  1  0  0  0  0
 26 32  1  1  0  0  0
 27 28  1  0  0  0  0
 27 29  1  1  0  0  0
 29 30  1  0  0  0  0
 31 32  1  1  0  0  0
 31 40  1  0  0  0  0
 33 31  1  0  0  0  0
 33 42  1  1  0  0  0
 35 33  1  0  0  0  0
 35 36  1  6  0  0  0
 37 35  1  0  0  0  0
 37 38  1  1  0  0  0
 37 39  1  0  0  0  0
 39 40  1  0  0  0  0
 39 41  1  1  0  0  0
 41 34  1  0  0  0  0
M  END
>  <CHROM.1>
-176.50534071,76.67048296,-136.40585584,124.96093329,158.51689710,106.44862169
-172.27303285,-138.10409233,58.21212392,-0.41419354,92.44196880,11.50857408
1.04463878,0.58649632,2.11887933

>  <Name>
2fcy_lig

>  <RI>
0

>  <Rbt.Current_Directory>
/home/itssahil/PROJECTS/Mol_Feturizer/New_Systems/rnas/2fcy

>  <Rbt.Executable>
rbdock ($Id: //depot/dev/client3/rdock/2013.1/src/exe/rbdock.cxx#4 $)

>  <Rbt.Library>
libRbt.so (2013.1, Build901 2013/11/27)

>  <Rbt.Parameter_File>
/export/apps/rDock/src/rDock_2013.1_src/data/scripts/dock_solv.prm

>  <Rbt.Receptor>
prm/pocket_docking_2.prm

>  <SCORE>
-5.87456

>  <SCORE.INTER>
-11.6371

>  <SCORE.INTER.CONST>
1

>  <SCORE.INTER.POLAR>
-0.959166

>  <SCORE.INTER.ROT>
9

>  <SCORE.INTER.SOLV>
20.7487

>  <SCORE.INTER.VDW>
-21.0771

>  <SCORE.INTER.norm>
-0.277075

>  <SCORE.INTRA>
5.10758

>  <SCORE.INTRA.DIHEDRAL>
10.688

>  <SCORE.INTRA.DIHEDRAL.0>
17.3446

>  <SCORE.INTRA.POLAR>
0

>  <SCORE.INTRA.POLAR.0>
0

>  <SCORE.INTRA.REPUL>
0

>  <SCORE.INTRA.REPUL.0>
0

>  <SCORE.INTRA.SOLV>
1.05197

>  <SCORE.INTRA.SOLV.lig_0>
-112.452

>  <SCORE.INTRA.VDW>
-0.762418

>  <SCORE.INTRA.VDW.0>
-5.95059

>  <SCORE.INTRA.norm>
0.121609

>  <SCORE.RESTR>
0.655

>  <SCORE.RESTR.CAVITY>
0.655

>  <SCORE.RESTR.norm>
0.0155952

>  <SCORE.SYSTEM>
0

>  <SCORE.SYSTEM.CONST>
0

>  <SCORE.SYSTEM.DIHEDRAL>
0

>  <SCORE.SYSTEM.SOLV>
0

>  <SCORE.SYSTEM.norm>
0

>  <SCORE.heavy>
42

>  <SCORE.norm>
-0.13987

>  <RMSD>
1.098

$$$$
2fcy_lig
 OpenBabel11021811433D
libRbt.so/2013.1/901 2013/11/27
 42 45  0  0  0  0  0  0  0  0999 V2000
    0.3539   91.0974   14.4380 C   0  0  2  0  0  0  0  0  0  0  0  0
    0.9174   92.3187   14.9460 O   0  0  0  0  0  0  0  0  0  0  0  0
   -0.9770   90.9266   15.1719 C   0  0  2  0  0  0  0  0  0  0  0  0
   -1.7806   92.1414   14.9792 N   0  0  0  0  0  0  0  0  0  0  0  0
   -0.7152   90.7215   16.6661 C   0  0  1  0  0  0  0  0  0  0  0  0
   -1.9468   90.5549   17.3741 O   0  0  0  0  0  0  0  0  0  0  0  0
    0.1837   89.5000   16.8602 C   0  0  2  0  0  0  0  0  0  0  0  0
    0.5051   89.3678   18.2448 O   0  0  0  0  0  0  0  0  0  0  0  0
    1.4860   89.7191   16.0887 C   0  0  2  0  0  0  0  0  0  0  0  0
    1.1895   89.9520   14.7029 O   0  0  0  0  0  0  0  0  0  0  0  0
    2.3908   88.4972   16.2675 C   0  0  0  0  0  0  0  0  0  0  0  0
    2.9583   88.4566   17.6236 N   0  0  0  0  0  0  0  0  0  0  0  0
    3.3912   95.2428   13.2209 C   0  0  2  0  0  0  0  0  0  0  0  0
    4.4323   96.0495   12.5664 N   0  0  0  0  0  0  0  0  0  0  0  0
    3.9633   94.4877   14.4223 C   0  0  0  0  0  0  0  0  0  0  0  0
    2.8105   93.7756   15.1371 C   0  0  2  0  0  0  0  0  0  0  0  0
    3.3483   92.9721   16.2444 N   0  0  0  0  0  0  0  0  0  0  0  0
    2.0395   92.8337   14.2077 C   0  0  2  0  0  0  0  0  0  0  0  0
    1.6370   93.4471   12.8712 C   0  0  2  0  0  0  0  0  0  0  0  0
    1.2962   92.3372   12.0250 O   0  0  0  0  0  0  0  0  0  0  0  0
    2.7888   94.2376   12.2363 C   0  0  1  0  0  0  0  0  0  0  0  0
    2.3369   94.9639   11.0903 O   0  0  0  0  0  0  0  0  0  0  0  0
    0.4652   92.6474   10.8947 C   0  0  1  0  0  0  0  0  0  0  0  0
    0.1204   91.3293   10.1994 C   0  0  2  0  0  0  0  0  0  0  0  0
    1.1813   90.9603    9.3151 O   0  0  0  0  0  0  0  0  0  0  0  0
   -1.0811   91.8010    9.3856 C   0  0  1  0  0  0  0  0  0  0  0  0
   -1.8319   92.5975   10.4411 C   0  0  2  0  0  0  0  0  0  0  0  0
   -0.8127   93.2084   11.2589 O   0  0  0  0  0  0  0  0  0  0  0  0
   -2.7186   91.6448   11.2512 C   0  0  0  0  0  0  0  0  0  0  0  0
   -1.9172   90.7714   12.0520 O   0  0  0  0  0  0  0  0  0  0  0  0
   -1.7331   92.9153    7.4282 C   0  0  2  0  0  0  0  0  0  0  0  0
   -0.6432   92.6717    8.3304 O   0  0  0  0  0  0  0  0  0  0  0  0
   -1.2588   93.8153    6.2827 C   0  0  1  0  0  0  0  0  0  0  0  0
   -6.3629   94.3076    7.3645 N   0  0  0  0  0  0  0  0  0  0  0  0
   -2.4311   94.1717    5.3623 C   0  0  1  0  0  0  0  0  0  0  0  0
   -2.8805   93.0095    4.6583 O   0  0  0  0  0  0  0  0  0  0  0  0
   -3.5803   94.7557    6.1886 C   0  0  2  0  0  0  0  0  0  0  0  0
   -3.1509   96.0004    6.7506 O   0  0  0  0  0  0  0  0  0  0  0  0
   -3.9581   93.7772    7.3058 C   0  0  1  0  0  0  0  0  0  0  0  0
   -2.8166   93.5298    8.1475 O   0  0  0  0  0  0  0  0  0  0  0  0
   -5.1200   94.3077    8.1500 C   0  0  0  0  0  0  0  0  0  0  0  0
   -0.7207   95.0599    6.8525 N   0  0  0  0  0  0  0  0  0  0  0  0
  1  2  1  1  0  0  0
  1  3  1  0  0  0  0
  1 10  1  0  0  0  0
  3  4  1  1  0  0  0
  3  5  1  0  0  0  0
  5  6  1  1  0  0  0
  5  7  1  0  0  0  0
  7  8  1  1  0  0  0
  7  9  1  0  0  0  0
  9 10  1  0  0  0  0
  9 11  1  6  0  0  0
 11 12  1  0  0  0  0
 13 14  1  6  0  0  0
 13 15  1  0  0  0  0
 13 21  1  0  0  0  0
 16 15  1  0  0  0  0
 16 17  1  1  0  0  0
 18  2  1  1  0  0  0
 18 16  1  0  0  0  0
 19 18  1  0  0  0  0
 19 20  1  6  0  0  0
 21 19  1  0  0  0  0
 21 22  1  6  0  0  0
 23 20  1  1  0  0  0
 23 24  1  0  0  0  0
 23 28  1  0  0  0  0
 24 25  1  6  0  0  0
 24 26  1  0  0  0  0
 26 27  1  0  0  0  0
 26 32  1  6  0  0  0
 27 28  1  0  0  0  0
 27 29  1  1  0  0  0
 29 30  1  0  0  0  0
 31 32  1  1  0  0  0
 31 40  1  0  0  0  0
 33 31  1  0  0  0  0
 33 42  1  1  0  0  0
 35 33  1  0  0  0  0
 35 36  1  1  0  0  0
 37 35  1  0  0  0  0
 37 38  1  1  0  0  0
 37 39  1  0  0  0  0
 39 40  1  0  0  0  0
 39 41  1  1  0  0  0
 41 34  1  0  0  0  0
M  END
>  <CHROM.1>
-167.70048776,-72.93822983,-159.13217238,159.46141180,-175.18958482,169.58263431
68.61572911,-178.58551805,69.27715538,-0.22206665,92.53167372,11.77732854
1.09852261,0.45552312,2.11034765

>  <Name>
2fcy_lig

>  <RI>
4.13508e+07

>  <Rbt.Current_Directory>
/home/itssahil/PROJECTS/Mol_Feturizer/New_Systems/rnas/2fcy

>  <Rbt.Executable>
rbdock ($Id: //depot/dev/client3/rdock/2013.1/src/exe/rbdock.cxx#4 $)

>  <Rbt.Library>
libRbt.so (2013.1, Build901 2013/11/27)

>  <Rbt.Parameter_File>
/export/apps/rDock/src/rDock_2013.1_src/data/scripts/dock_solv.prm

>  <Rbt.Receptor>
prm/pocket_docking_3.prm

>  <SCORE>
-22.7805

>  <SCORE.INTER>
-18.6038

>  <SCORE.INTER.CONST>
1

>  <SCORE.INTER.POLAR>
-1.85359

>  <SCORE.INTER.ROT>
9

>  <SCORE.INTER.SOLV>
17.7694

>  <SCORE.INTER.VDW>
-21.747

>  <SCORE.INTER.norm>
-0.442948

>  <SCORE.INTRA>
-4.1767

>  <SCORE.INTRA.DIHEDRAL>
-10.502

>  <SCORE.INTRA.DIHEDRAL.0>
17.3446

>  <SCORE.INTRA.POLAR>
0

>  <SCORE.INTRA.POLAR.0>
0

>  <SCORE.INTRA.REPUL>
0

>  <SCORE.INTRA.REPUL.0>
0

>  <SCORE.INTRA.SOLV>
-1.71674

>  <SCORE.INTRA.SOLV.lig_0>
-112.452

>  <SCORE.INTRA.VDW>
1.93269

>  <SCORE.INTRA.VDW.0>
-5.95059

>  <SCORE.INTRA.norm>
-0.0994452

>  <SCORE.RESTR>
0

>  <SCORE.RESTR.CAVITY>
0

>  <SCORE.RESTR.norm>
0

>  <SCORE.SYSTEM>
0

>  <SCORE.SYSTEM.CONST>
0

>  <SCORE.SYSTEM.DIHEDRAL>
0

>  <SCORE.SYSTEM.SOLV>
0

>  <SCORE.SYSTEM.norm>
0

>  <SCORE.heavy>
42

>  <SCORE.norm>
-0.542393

>  <RMSD>
1.130

$$$$
2fcy_lig
 OpenBabel11021811433D
libRbt.so/2013.1/901 2013/11/27
 42 45  0  0  0  0  0  0  0  0999 V2000
    0.2545   91.0843   14.1671 C   0  0  2  0  0  0  0  0  0  0  0  0
    0.5674   92.4600   14.4440 O   0  0  0  0  0  0  0  0  0  0  0  0
   -1.0227   90.7904   14.9553 C   0  0  2  0  0  0  0  0  0  0  0  0
   -2.0452   91.7766   14.5801 N   0  0  0  0  0  0  0  0  0  0  0  0
   -0.7360   90.9002   16.4549 C   0  0  1  0  0  0  0  0  0  0  0  0
   -1.9165   90.6250   17.2140 O   0  0  0  0  0  0  0  0  0  0  0  0
    0.3813   89.9261   16.8299 C   0  0  2  0  0  0  0  0  0  0  0  0
    0.7133   90.0989   18.2075 O   0  0  0  0  0  0  0  0  0  0  0  0
    1.6215   90.2547   15.9973 C   0  0  2  0  0  0  0  0  0  0  0  0
    1.2945   90.1837   14.6006 O   0  0  0  0  0  0  0  0  0  0  0  0
    2.7447   89.2787   16.3571 C   0  0  0  0  0  0  0  0  0  0  0  0
    2.4258   87.9178   15.9002 N   0  0  0  0  0  0  0  0  0  0  0  0
    2.7291   95.4343   12.4125 C   0  0  2  0  0  0  0  0  0  0  0  0
    3.6874   96.2773   11.6817 N   0  0  0  0  0  0  0  0  0  0  0  0
    3.3466   94.9082   13.7097 C   0  0  0  0  0  0  0  0  0  0  0  0
    2.2641   94.1519   14.4864 C   0  0  2  0  0  0  0  0  0  0  0  0
    2.8566   93.5623   15.6956 N   0  0  0  0  0  0  0  0  0  0  0  0
    1.6440   93.0155   13.6682 C   0  0  2  0  0  0  0  0  0  0  0  0
    1.2164   93.4065   12.2580 C   0  0  2  0  0  0  0  0  0  0  0  0
    1.0404   92.1680   11.5514 O   0  0  0  0  0  0  0  0  0  0  0  0
    2.2857   94.2496   11.5506 C   0  0  1  0  0  0  0  0  0  0  0  0
    1.7891   94.7691   10.3143 O   0  0  0  0  0  0  0  0  0  0  0  0
    0.2566   92.2420   10.3495 C   0  0  1  0  0  0  0  0  0  0  0  0
    0.0923   90.8176    9.8169 C   0  0  2  0  0  0  0  0  0  0  0  0
    1.2396   90.4581    9.0435 O   0  0  0  0  0  0  0  0  0  0  0  0
   -1.0960   91.0503    8.8884 C   0  0  1  0  0  0  0  0  0  0  0  0
   -1.9897   91.8865    9.7907 C   0  0  2  0  0  0  0  0  0  0  0  0
   -1.0922   92.7022   10.5717 O   0  0  0  0  0  0  0  0  0  0  0  0
   -2.8257   90.9522   10.6730 C   0  0  0  0  0  0  0  0  0  0  0  0
   -1.9898   90.2602   11.6051 O   0  0  0  0  0  0  0  0  0  0  0  0
   -1.7032   91.7784    6.7437 C   0  0  2  0  0  0  0  0  0  0  0  0
   -0.6816   91.8244    7.7515 O   0  0  0  0  0  0  0  0  0  0  0  0
   -1.1304   92.2704    5.4106 C   0  0  1  0  0  0  0  0  0  0  0  0
   -5.5671   92.7288    7.9988 N   0  0  0  0  0  0  0  0  0  0  0  0
   -2.2298   92.3262    4.3445 C   0  0  1  0  0  0  0  0  0  0  0  0
   -2.6640   91.0043    4.0096 O   0  0  0  0  0  0  0  0  0  0  0  0
   -3.4140   93.1467    4.8631 C   0  0  2  0  0  0  0  0  0  0  0  0
   -2.9883   94.5025    5.0363 O   0  0  0  0  0  0  0  0  0  0  0  0
   -3.8909   92.5707    6.2007 C   0  0  1  0  0  0  0  0  0  0  0  0
   -2.8140   92.5938    7.1561 O   0  0  0  0  0  0  0  0  0  0  0  0
   -5.0904   93.3460    6.7523 C   0  0  0  0  0  0  0  0  0  0  0  0
   -0.5967   93.6279    5.5989 N   0  0  0  0  0  0  0  0  0  0  0  0
  1  2  1  1  0  0  0
  1  3  1  0  0  0  0
  1 10  1  0  0  0  0
  3  4  1  6  0  0  0
  3  5  1  0  0  0  0
  5  6  1  1  0  0  0
  5  7  1  0  0  0  0
  7  8  1  1  0  0  0
  7  9  1  0  0  0  0
  9 10  1  0  0  0  0
  9 11  1  6  0  0  0
 11 12  1  0  0  0  0
 13 14  1  6  0  0  0
 13 15  1  0  0  0  0
 13 21  1  0  0  0  0
 16 15  1  0  0  0  0
 16 17  1  1  0  0  0
 18  2  1  1  0  0  0
 18 16  1  0  0  0  0
 19 18  1  0  0  0  0
 19 20  1  6  0  0  0
 21 19  1  0  0  0  0
 21 22  1  6  0  0  0
 23 20  1  1  0  0  0
 23 24  1  0  0  0  0
 23 28  1  0  0  0  0
 24 25  1  6  0  0  0
 24 26  1  0  0  0  0
 26 27  1  0  0  0  0
 26 32  1  6  0  0  0
 27 28  1  0  0  0  0
 27 29  1  1  0  0  0
 29 30  1  0  0  0  0
 31 32  1  1  0  0  0
 31 40  1  0  0  0  0
 33 31  1  0  0  0  0
 33 42  1  1  0  0  0
 35 33  1  0  0  0  0
 35 36  1  1  0  0  0
 37 35  1  0  0  0  0
 37 38  1  1  0  0  0
 37 39  1  0  0  0  0
 39 40  1  0  0  0  0
 39 41  1  1  0  0  0
 41 34  1  0  0  0  0
M  END
>  <CHROM.1>
-172.27222495,68.46298203,-153.62664109,161.59794042,-175.41581526,166.74476716
67.57182934,-164.96348299,177.11361999,-0.32431142,92.11199476,11.17453114
1.10239423,0.63481047,2.00130387

>  <Name>
2fcy_lig

>  <RI>
1.56845e+07

>  <Rbt.Current_Directory>
/home/itssahil/PROJECTS/Mol_Feturizer/New_Systems/rnas/2fcy

>  <Rbt.Executable>
rbdock ($Id: //depot/dev/client3/rdock/2013.1/src/exe/rbdock.cxx#4 $)

>  <Rbt.Library>
libRbt.so (2013.1, Build901 2013/11/27)

>  <Rbt.Parameter_File>
/export/apps/rDock/src/rDock_2013.1_src/data/scripts/dock_solv.prm

>  <Rbt.Receptor>
prm/pocket_docking_4.prm

>  <SCORE>
-17.5015

>  <SCORE.INTER>
-12.9583

>  <SCORE.INTER.CONST>
1

>  <SCORE.INTER.POLAR>
-1.61755

>  <SCORE.INTER.ROT>
9

>  <SCORE.INTER.SOLV>
21.4423

>  <SCORE.INTER.VDW>
-19.9944

>  <SCORE.INTER.norm>
-0.30853

>  <SCORE.INTRA>
-4.54328

>  <SCORE.INTRA.DIHEDRAL>
-9.6728

>  <SCORE.INTRA.DIHEDRAL.0>
17.3446

>  <SCORE.INTRA.POLAR>
0

>  <SCORE.INTRA.POLAR.0>
0

>  <SCORE.INTRA.REPUL>
0

>  <SCORE.INTRA.REPUL.0>
0

>  <SCORE.INTRA.SOLV>
-1.2841

>  <SCORE.INTRA.SOLV.lig_0>
-112.452

>  <SCORE.INTRA.VDW>
0.935169

>  <SCORE.INTRA.VDW.0>
-5.95059

>  <SCORE.INTRA.norm>
-0.108173

>  <SCORE.RESTR>
0

>  <SCORE.RESTR.CAVITY>
0

>  <SCORE.RESTR.norm>
0

>  <SCORE.SYSTEM>
0

>  <SCORE.SYSTEM.CONST>
0

>  <SCORE.SYSTEM.DIHEDRAL>
0

>  <SCORE.SYSTEM.SOLV>
0

>  <SCORE.SYSTEM.norm>
0

>  <SCORE.heavy>
42

>  <SCORE.norm>
-0.416703

>  <RMSD>
1.131

$$$$
2fcy_lig
 OpenBabel11021811433D
libRbt.so/2013.1/901 2013/11/27
 42 45  0  0  0  0  0  0  0  0999 V2000
    0.3215   91.5433   14.2796 C   0  0  2  0  0  0  0  0  0  0  0  0
    0.5529   92.8429   14.8494 O   0  0  0  0  0  0  0  0  0  0  0  0
   -1.0015   91.0651   14.8796 C   0  0  2  0  0  0  0  0  0  0  0  0
   -2.0312   92.0804   14.6192 N   0  0  0  0  0  0  0  0  0  0  0  0
   -0.8411   90.8791   16.3906 C   0  0  1  0  0  0  0  0  0  0  0  0
   -2.0663   90.4274   16.9743 O   0  0  0  0  0  0  0  0  0  0  0  0
    0.2824   89.8780   16.6615 C   0  0  2  0  0  0  0  0  0  0  0  0
    0.4949   89.7792   18.0696 O   0  0  0  0  0  0  0  0  0  0  0  0
    1.5705   90.3982   16.0217 C   0  0  2  0  0  0  0  0  0  0  0  0
    1.3603   90.6006   14.6155 O   0  0  0  0  0  0  0  0  0  0  0  0
    2.7013   89.3985   16.2780 C   0  0  0  0  0  0  0  0  0  0  0  0
    2.3702   88.0764   15.7255 N   0  0  0  0  0  0  0  0  0  0  0  0
    2.2591   96.3718   13.3387 C   0  0  2  0  0  0  0  0  0  0  0  0
    3.0784   97.4417   12.7494 N   0  0  0  0  0  0  0  0  0  0  0  0
    2.9933   95.7032   14.5027 C   0  0  0  0  0  0  0  0  0  0  0  0
    2.0429   94.6947   15.1559 C   0  0  2  0  0  0  0  0  0  0  0  0
    2.7554   93.9767   16.2225 N   0  0  0  0  0  0  0  0  0  0  0  0
    1.5206   93.6545   14.1606 C   0  0  2  0  0  0  0  0  0  0  0  0
    0.9852   94.2344   12.8562 C   0  0  2  0  0  0  0  0  0  0  0  0
    0.9206   93.1289   11.9409 O   0  0  0  0  0  0  0  0  0  0  0  0
    1.9157   95.3138   12.2872 C   0  0  1  0  0  0  0  0  0  0  0  0
    1.3051   95.9798   11.1788 O   0  0  0  0  0  0  0  0  0  0  0  0
   -0.0327   93.2581   10.8738 C   0  0  1  0  0  0  0  0  0  0  0  0
    0.5418   92.5395    9.6518 C   0  0  2  0  0  0  0  0  0  0  0  0
    1.4349   93.4126    8.9563 O   0  0  0  0  0  0  0  0  0  0  0  0
   -0.7450   92.3800    8.8474 C   0  0  1  0  0  0  0  0  0  0  0  0
   -1.6906   91.8960    9.9353 C   0  0  2  0  0  0  0  0  0  0  0  0
   -1.2810   92.5843   11.1349 O   0  0  0  0  0  0  0  0  0  0  0  0
   -1.5564   90.3753   10.0757 C   0  0  0  0  0  0  0  0  0  0  0  0
   -2.4786   89.8773   11.0494 O   0  0  0  0  0  0  0  0  0  0  0  0
   -2.1795   93.4724    7.3482 C   0  0  2  0  0  0  0  0  0  0  0  0
   -1.1738   93.6598    8.3557 O   0  0  0  0  0  0  0  0  0  0  0  0
   -2.4424   94.8016    6.6331 C   0  0  1  0  0  0  0  0  0  0  0  0
   -6.5923   91.6053    6.6940 N   0  0  0  0  0  0  0  0  0  0  0  0
   -3.5846   94.6484    5.6230 C   0  0  1  0  0  0  0  0  0  0  0  0
   -3.1795   93.8052    4.5398 O   0  0  0  0  0  0  0  0  0  0  0  0
   -4.8127   94.0513    6.3154 C   0  0  2  0  0  0  0  0  0  0  0  0
   -5.2908   94.9899    7.2849 O   0  0  0  0  0  0  0  0  0  0  0  0
   -4.4263   92.7371    7.0024 C   0  0  1  0  0  0  0  0  0  0  0  0
   -3.3809   92.9752    7.9633 O   0  0  0  0  0  0  0  0  0  0  0  0
   -5.6284   92.0882    7.6938 C   0  0  0  0  0  0  0  0  0  0  0  0
   -2.8381   95.8049    7.6330 N   0  0  0  0  0  0  0  0  0  0  0  0
  1  2  1  1  0  0  0
  1  3  1  0  0  0  0
  1 10  1  0  0  0  0
  3  4  1  1  0  0  0
  3  5  1  0  0  0  0
  5  6  1  6  0  0  0
  5  7  1  0  0  0  0
  7  8  1  1  0  0  0
  7  9  1  0  0  0  0
  9 10  1  0  0  0  0
  9 11  1  6  0  0  0
 11 12  1  0  0  0  0
 13 14  1  6  0  0  0
 13 15  1  0  0  0  0
 13 21  1  0  0  0  0
 16 15  1  0  0  0  0
 16 17  1  1  0  0  0
 18  2  1  1  0  0  0
 18 16  1  0  0  0  0
 19 18  1  0  0  0  0
 19 20  1  6  0  0  0
 21 19  1  0  0  0  0
 21 22  1  6  0  0  0
 23 20  1  1  0  0  0
 23 24  1  0  0  0  0
 23 28  1  0  0  0  0
 24 25  1  6  0  0  0
 24 26  1  0  0  0  0
 26 27  1  0  0  0  0
 26 32  1  1  0  0  0
 27 28  1  0  0  0  0
 27 29  1  1  0  0  0
 29 30  1  0  0  0  0
 31 32  1  1  0  0  0
 31 40  1  0  0  0  0
 33 31  1  0  0  0  0
 33 42  1  1  0  0  0
 35 33  1  0  0  0  0
 35 36  1  6  0  0  0
 37 35  1  0  0  0  0
 37 38  1  1  0  0  0
 37 39  1  0  0  0  0
 39 40  1  0  0  0  0
 39 41  1  1  0  0  0
 41 34  1  0  0  0  0
M  END
>  <CHROM.1>
-162.80963081,58.82871447,-157.72091828,154.94652098,147.27315528,166.15961354
-177.30799178,-169.08979951,68.75344196,-0.68069216,92.80394146,11.59457553
0.88159142,0.72715998,2.28870180

>  <Name>
2fcy_lig

>  <RI>
4.13508e+07

>  <Rbt.Current_Directory>
/home/itssahil/PROJECTS/Mol_Feturizer/New_Systems/rnas/2fcy

>  <Rbt.Executable>
rbdock ($Id: //depot/dev/client3/rdock/2013.1/src/exe/rbdock.cxx#4 $)

>  <Rbt.Library>
libRbt.so (2013.1, Build901 2013/11/27)

>  <Rbt.Parameter_File>
/export/apps/rDock/src/rDock_2013.1_src/data/scripts/dock_solv.prm

>  <Rbt.Receptor>
prm/pocket_docking_3.prm

>  <SCORE>
-14.5297

>  <SCORE.INTER>
-11.7291

>  <SCORE.INTER.CONST>
1

>  <SCORE.INTER.POLAR>
-1.64308

>  <SCORE.INTER.ROT>
9

>  <SCORE.INTER.SOLV>
18.5474

>  <SCORE.INTER.VDW>
-18.1249

>  <SCORE.INTER.norm>
-0.279264

>  <SCORE.INTRA>
-2.80065

>  <SCORE.INTRA.DIHEDRAL>
-4.86207

>  <SCORE.INTRA.DIHEDRAL.0>
17.3446

>  <SCORE.INTRA.POLAR>
0

>  <SCORE.INTRA.POLAR.0>
0

>  <SCORE.INTRA.REPUL>
0

>  <SCORE.INTRA.REPUL.0>
0

>  <SCORE.INTRA.SOLV>
-2.80871

>  <SCORE.INTRA.SOLV.lig_0>
-112.452

>  <SCORE.INTRA.VDW>
1.03474

>  <SCORE.INTRA.VDW.0>
-5.95059

>  <SCORE.INTRA.norm>
-0.0666821

>  <SCORE.RESTR>
0

>  <SCORE.RESTR.CAVITY>
0

>  <SCORE.RESTR.norm>
0

>  <SCORE.SYSTEM>
0

>  <SCORE.SYSTEM.CONST>
0

>  <SCORE.SYSTEM.DIHEDRAL>
0

>  <SCORE.SYSTEM.SOLV>
0

>  <SCORE.SYSTEM.norm>
0

>  <SCORE.heavy>
42

>  <SCORE.norm>
-0.345946

>  <RMSD>
1.165

$$$$
2fcy_lig
 OpenBabel11021811433D
libRbt.so/2013.1/901 2013/11/27
 42 45  0  0  0  0  0  0  0  0999 V2000
   -0.0774   91.2504   14.0970 C   0  0  2  0  0  0  0  0  0  0  0  0
    0.4463   92.5278   14.4984 O   0  0  0  0  0  0  0  0  0  0  0  0
   -1.3935   91.0918   14.8596 C   0  0  2  0  0  0  0  0  0  0  0  0
   -2.2429   92.2579   14.5810 N   0  0  0  0  0  0  0  0  0  0  0  0
   -1.1092   91.0168   16.3619 C   0  0  1  0  0  0  0  0  0  0  0  0
   -2.3266   90.8639   17.0970 O   0  0  0  0  0  0  0  0  0  0  0  0
   -0.1644   89.8476   16.6411 C   0  0  2  0  0  0  0  0  0  0  0  0
    0.1758   89.8385   18.0275 O   0  0  0  0  0  0  0  0  0  0  0  0
    1.1211   90.0503   15.8376 C   0  0  2  0  0  0  0  0  0  0  0  0
    0.8022   90.1604   14.4416 O   0  0  0  0  0  0  0  0  0  0  0  0
    2.0717   88.8797   16.1015 C   0  0  0  0  0  0  0  0  0  0  0  0
    2.6613   88.9733   17.4455 N   0  0  0  0  0  0  0  0  0  0  0  0
    2.7964   95.3368   12.4409 C   0  0  2  0  0  0  0  0  0  0  0  0
    3.8092   96.1105   11.7072 N   0  0  0  0  0  0  0  0  0  0  0  0
    3.3681   94.8011   13.7551 C   0  0  0  0  0  0  0  0  0  0  0  0
    2.2355   94.1217   14.5316 C   0  0  2  0  0  0  0  0  0  0  0  0
    2.7797   93.5224   15.7586 N   0  0  0  0  0  0  0  0  0  0  0  0
    1.5615   93.0070   13.7263 C   0  0  2  0  0  0  0  0  0  0  0  0
    1.1730   93.3951   12.3040 C   0  0  2  0  0  0  0  0  0  0  0  0
    0.9353   92.1555   11.6177 O   0  0  0  0  0  0  0  0  0  0  0  0
    2.2965   94.1631   11.5951 C   0  0  1  0  0  0  0  0  0  0  0  0
    1.8444   94.6865   10.3434 O   0  0  0  0  0  0  0  0  0  0  0  0
    0.1789   92.2523   10.4000 C   0  0  1  0  0  0  0  0  0  0  0  0
    0.0191   90.8372    9.8419 C   0  0  2  0  0  0  0  0  0  0  0  0
    1.1815   90.4833    9.0887 O   0  0  0  0  0  0  0  0  0  0  0  0
   -1.1470   91.0907    8.8909 C   0  0  1  0  0  0  0  0  0  0  0  0
   -2.0563   91.9178    9.7860 C   0  0  2  0  0  0  0  0  0  0  0  0
   -1.1722   92.7164   10.5993 O   0  0  0  0  0  0  0  0  0  0  0  0
   -2.9165   90.9747   10.6349 C   0  0  0  0  0  0  0  0  0  0  0  0
   -3.7838   91.7216   11.4931 O   0  0  0  0  0  0  0  0  0  0  0  0
   -1.6912   91.8343    6.7347 C   0  0  2  0  0  0  0  0  0  0  0  0
   -0.7033   91.8798    7.7757 O   0  0  0  0  0  0  0  0  0  0  0  0
   -1.0569   92.2619    5.4073 C   0  0  1  0  0  0  0  0  0  0  0  0
   -5.6397   92.8841    7.7494 N   0  0  0  0  0  0  0  0  0  0  0  0
   -2.1170   92.3188    4.3021 C   0  0  1  0  0  0  0  0  0  0  0  0
   -2.5851   91.0017    3.9952 O   0  0  0  0  0  0  0  0  0  0  0  0
   -3.2889   93.1954    4.7522 C   0  0  2  0  0  0  0  0  0  0  0  0
   -2.8224   94.5412    4.8962 O   0  0  0  0  0  0  0  0  0  0  0  0
   -3.8304   92.6809    6.0902 C   0  0  1  0  0  0  0  0  0  0  0  0
   -2.7864   92.6999    7.0814 O   0  0  0  0  0  0  0  0  0  0  0  0
   -5.0204   93.5141    6.5740 C   0  0  0  0  0  0  0  0  0  0  0  0
   -0.4831   93.6063    5.5701 N   0  0  0  0  0  0  0  0  0  0  0  0
  1  2  1  1  0  0  0
  1  3  1  0  0  0  0
  1 10  1  0  0  0  0
  3  4  1  1  0  0  0
  3  5  1  0  0  0  0
  5  6  1  1  0  0  0
  5  7  1  0  0  0  0
  7  8  1  1  0  0  0
  7  9  1  0  0  0  0
  9 10  1  0  0  0  0
  9 11  1  6  0  0  0
 11 12  1  0  0  0  0
 13 14  1  6  0  0  0
 13 15  1  0  0  0  0
 13 21  1  0  0  0  0
 16 15  1  0  0  0  0
 16 17  1  1  0  0  0
 18  2  1  1  0  0  0
 18 16  1  0  0  0  0
 19 18  1  0  0  0  0
 19 20  1  6  0  0  0
 21 19  1  0  0  0  0
 21 22  1  6  0  0  0
 23 20  1  1  0  0  0
 23 24  1  0  0  0  0
 23 28  1  0  0  0  0
 24 25  1  6  0  0  0
 24 26  1  0  0  0  0
 26 27  1  0  0  0  0
 26 32  1  6  0  0  0
 27 28  1  0  0  0  0
 27 29  1  1  0  0  0
 29 30  1  0  0  0  0
 31 32  1  1  0  0  0
 31 40  1  0  0  0  0
 33 31  1  0  0  0  0
 33 42  1  1  0  0  0
 35 33  1  0  0  0  0
 35 36  1  1  0  0  0
 37 35  1  0  0  0  0
 37 38  1  1  0  0  0
 37 39  1  0  0  0  0
 39 40  1  0  0  0  0
 39 41  1  1  0  0  0
 41 34  1  0  0  0  0
M  END
>  <CHROM.1>
-169.09492047,-73.32992168,-163.17452712,162.01762683,-179.14352805,165.66352353
179.86675769,-161.46402330,171.73298804,-0.47124188,92.19073159,11.16875489
1.16674320,0.53107330,1.92085827

>  <Name>
2fcy_lig

>  <RI>
4.13508e+07

>  <Rbt.Current_Directory>
/home/itssahil/PROJECTS/Mol_Feturizer/New_Systems/rnas/2fcy

>  <Rbt.Executable>
rbdock ($Id: //depot/dev/client3/rdock/2013.1/src/exe/rbdock.cxx#4 $)

>  <Rbt.Library>
libRbt.so (2013.1, Build901 2013/11/27)

>  <Rbt.Parameter_File>
/export/apps/rDock/src/rDock_2013.1_src/data/scripts/dock_solv.prm

>  <Rbt.Receptor>
prm/pocket_docking_3.prm

>  <SCORE>
-22.5768

>  <SCORE.INTER>
-17.0179

>  <SCORE.INTER.CONST>
1

>  <SCORE.INTER.POLAR>
-1.67859

>  <SCORE.INTER.ROT>
9

>  <SCORE.INTER.SOLV>
15.3789

>  <SCORE.INTER.VDW>
-20.4763

>  <SCORE.INTER.norm>
-0.405189

>  <SCORE.INTRA>
-5.55884

>  <SCORE.INTRA.DIHEDRAL>
-10.08

>  <SCORE.INTRA.DIHEDRAL.0>
17.3446

>  <SCORE.INTRA.POLAR>
0

>  <SCORE.INTRA.POLAR.0>
0

>  <SCORE.INTRA.REPUL>
0

>  <SCORE.INTRA.REPUL.0>
0

>  <SCORE.INTRA.SOLV>
-3.46897

>  <SCORE.INTRA.SOLV.lig_0>
-112.452

>  <SCORE.INTRA.VDW>
1.21566

>  <SCORE.INTRA.VDW.0>
-5.95059

>  <SCORE.INTRA.norm>
-0.132353

>  <SCORE.RESTR>
0

>  <SCORE.RESTR.CAVITY>
0

>  <SCORE.RESTR.norm>
0

>  <SCORE.SYSTEM>
0

>  <SCORE.SYSTEM.CONST>
0

>  <SCORE.SYSTEM.DIHEDRAL>
0

>  <SCORE.SYSTEM.SOLV>
0

>  <SCORE.SYSTEM.norm>
0

>  <SCORE.heavy>
42

>  <SCORE.norm>
-0.537542

>  <RMSD>
1.194

$$$$
2fcy_lig
 OpenBabel11021811433D
libRbt.so/2013.1/901 2013/11/27
 42 45  0  0  0  0  0  0  0  0999 V2000
   -0.1023   91.2325   14.0776 C   0  0  2  0  0  0  0  0  0  0  0  0
    0.4307   92.5200   14.4318 O   0  0  0  0  0  0  0  0  0  0  0  0
   -1.4052   91.0997   14.8674 C   0  0  2  0  0  0  0  0  0  0  0  0
   -2.2572   92.2591   14.5692 N   0  0  0  0  0  0  0  0  0  0  0  0
   -1.0948   91.0685   16.3660 C   0  0  1  0  0  0  0  0  0  0  0  0
   -2.2995   90.9403   17.1264 O   0  0  0  0  0  0  0  0  0  0  0  0
   -0.1474   89.9058   16.6633 C   0  0  2  0  0  0  0  0  0  0  0  0
    0.2169   89.9369   18.0431 O   0  0  0  0  0  0  0  0  0  0  0  0
    1.1241   90.0816   15.8318 C   0  0  2  0  0  0  0  0  0  0  0  0
    0.7811   90.1511   14.4389 O   0  0  0  0  0  0  0  0  0  0  0  0
    2.0770   88.9170   16.1137 C   0  0  0  0  0  0  0  0  0  0  0  0
    2.6541   89.0237   17.4621 N   0  0  0  0  0  0  0  0  0  0  0  0
    2.7381   95.2622   12.2402 C   0  0  2  0  0  0  0  0  0  0  0  0
    3.7362   96.0125   11.4632 N   0  0  0  0  0  0  0  0  0  0  0  0
    3.3340   94.7717   13.5613 C   0  0  0  0  0  0  0  0  0  0  0  0
    2.2168   94.1170   14.3800 C   0  0  2  0  0  0  0  0  0  0  0  0
    2.7838   93.5600   15.6166 N   0  0  0  0  0  0  0  0  0  0  0  0
    1.5311   92.9748   13.6245 C   0  0  2  0  0  0  0  0  0  0  0  0
    1.1168   93.3144   12.1970 C   0  0  2  0  0  0  0  0  0  0  0  0
    0.8698   92.0521   11.5570 O   0  0  0  0  0  0  0  0  0  0  0  0
    2.2260   94.0600   11.4431 C   0  0  1  0  0  0  0  0  0  0  0  0
    1.7508   94.5405   10.1828 O   0  0  0  0  0  0  0  0  0  0  0  0
    0.1089   92.1090   10.3395 C   0  0  1  0  0  0  0  0  0  0  0  0
    0.0023   90.6837    9.7946 C   0  0  2  0  0  0  0  0  0  0  0  0
    1.1765   90.3672    9.0431 O   0  0  0  0  0  0  0  0  0  0  0  0
   -1.1736   90.8841    8.8430 C   0  0  1  0  0  0  0  0  0  0  0  0
   -2.1126   91.6845    9.7317 C   0  0  2  0  0  0  0  0  0  0  0  0
   -1.2585   92.5234   10.5364 O   0  0  0  0  0  0  0  0  0  0  0  0
   -2.9356   90.7173   10.5904 C   0  0  0  0  0  0  0  0  0  0  0  0
   -2.1125   90.1068   11.5885 O   0  0  0  0  0  0  0  0  0  0  0  0
   -1.7907   91.6631    6.7191 C   0  0  2  0  0  0  0  0  0  0  0  0
   -0.7613   91.6792    7.7199 O   0  0  0  0  0  0  0  0  0  0  0  0
   -1.2330   92.2111    5.4016 C   0  0  1  0  0  0  0  0  0  0  0  0
   -4.8143   94.5755    7.1719 N   0  0  0  0  0  0  0  0  0  0  0  0
   -2.3416   92.2983    4.3470 C   0  0  1  0  0  0  0  0  0  0  0  0
   -2.7674   90.9865    3.9649 O   0  0  0  0  0  0  0  0  0  0  0  0
   -3.5283   93.0878    4.9062 C   0  0  2  0  0  0  0  0  0  0  0  0
   -3.1125   94.4396    5.1282 O   0  0  0  0  0  0  0  0  0  0  0  0
   -3.9893   92.4567    6.2243 C   0  0  1  0  0  0  0  0  0  0  0  0
   -2.9049   92.4524    7.1714 O   0  0  0  0  0  0  0  0  0  0  0  0
   -5.1908   93.1998    6.8148 C   0  0  0  0  0  0  0  0  0  0  0  0
   -0.7091   93.5649    5.6378 N   0  0  0  0  0  0  0  0  0  0  0  0
  1  2  1  1  0  0  0
  1  3  1  0  0  0  0
  1 10  1  0  0  0  0
  3  4  1  1  0  0  0
  3  5  1  0  0  0  0
  5  6  1  1  0  0  0
  5  7  1  0  0  0  0
  7  8  1  1  0  0  0
  7  9  1  0  0  0  0
  9 10  1  0  0  0  0
  9 11  1  6  0  0  0
 11 12  1  0  0  0  0
 13 14  1  6  0  0  0
 13 15  1  0  0  0  0
 13 21  1  0  0  0  0
 16 15  1  0  0  0  0
 16 17  1  1  0  0  0
 18  2  1  1  0  0  0
 18 16  1  0  0  0  0
 19 18  1  0  0  0  0
 19 20  1  6  0  0  0
 21 19  1  0  0  0  0
 21 22  1  6  0  0  0
 23 20  1  1  0  0  0
 23 24  1  0  0  0  0
 23 28  1  0  0  0  0
 24 25  1  6  0  0  0
 24 26  1  0  0  0  0
 26 27  1  0  0  0  0
 26 32  1  6  0  0  0
 27 28  1  0  0  0  0
 27 29  1  1  0  0  0
 29 30  1  0  0  0  0
 31 32  1  1  0  0  0
 31 40  1  0  0  0  0
 33 31  1  0  0  0  0
 33 42  1  1  0  0  0
 35 33  1  0  0  0  0
 35 36  1  1  0  0  0
 37 35  1  0  0  0  0
 37 38  1  1  0  0  0
 37 39  1  0  0  0  0
 39 40  1  0  0  0  0
 39 41  1  1  0  0  0
 41 34  1  0  0  0  0
M  END
>  <CHROM.1>
-168.95494145,-71.34072257,-163.52957772,162.91691175,177.93324932,169.71028006
71.07692009,-166.32502838,-64.09087689,-0.47133000,92.11447590,11.13434930
1.14283376,0.59865278,1.96203025

>  <Name>
2fcy_lig

>  <RI>
4.13508e+07

>  <Rbt.Current_Directory>
/home/itssahil/PROJECTS/Mol_Feturizer/New_Systems/rnas/2fcy

>  <Rbt.Executable>
rbdock ($Id: //depot/dev/client3/rdock/2013.1/src/exe/rbdock.cxx#4 $)

>  <Rbt.Library>
libRbt.so (2013.1, Build901 2013/11/27)

>  <Rbt.Parameter_File>
/export/apps/rDock/src/rDock_2013.1_src/data/scripts/dock_solv.prm

>  <Rbt.Receptor>
prm/pocket_docking_3.prm

>  <SCORE>
-21.7137

>  <SCORE.INTER>
-17.2551

>  <SCORE.INTER.CONST>
1

>  <SCORE.INTER.POLAR>
-1.62414

>  <SCORE.INTER.ROT>
9

>  <SCORE.INTER.SOLV>
15.3375

>  <SCORE.INTER.VDW>
-20.8021

>  <SCORE.INTER.norm>
-0.410835

>  <SCORE.INTRA>
-4.45864

>  <SCORE.INTRA.DIHEDRAL>
-11.263

>  <SCORE.INTRA.DIHEDRAL.0>
17.3446

>  <SCORE.INTRA.POLAR>
0

>  <SCORE.INTRA.POLAR.0>
0

>  <SCORE.INTRA.REPUL>
0

>  <SCORE.INTRA.REPUL.0>
0

>  <SCORE.INTRA.SOLV>
-1.1211

>  <SCORE.INTRA.SOLV.lig_0>
-112.452

>  <SCORE.INTRA.VDW>
1.7334

>  <SCORE.INTRA.VDW.0>
-5.95059

>  <SCORE.INTRA.norm>
-0.106158

>  <SCORE.RESTR>
0

>  <SCORE.RESTR.CAVITY>
0

>  <SCORE.RESTR.norm>
0

>  <SCORE.SYSTEM>
0

>  <SCORE.SYSTEM.CONST>
0

>  <SCORE.SYSTEM.DIHEDRAL>
0

>  <SCORE.SYSTEM.SOLV>
0

>  <SCORE.SYSTEM.norm>
0

>  <SCORE.heavy>
42

>  <SCORE.norm>
-0.516993

>  <RMSD>
1.195

$$$$
2fcy_lig
 OpenBabel11021811433D
libRbt.so/2013.1/901 2013/11/27
 42 45  0  0  0  0  0  0  0  0999 V2000
   -0.0224   91.4738   13.7174 C   0  0  2  0  0  0  0  0  0  0  0  0
    0.3608   92.8012   14.1151 O   0  0  0  0  0  0  0  0  0  0  0  0
   -1.4552   91.2952   14.2216 C   0  0  2  0  0  0  0  0  0  0  0  0
   -2.2793   92.3929   13.6975 N   0  0  0  0  0  0  0  0  0  0  0  0
   -1.4684   91.3348   15.7518 C   0  0  1  0  0  0  0  0  0  0  0  0
   -2.7993   91.1654   16.2476 O   0  0  0  0  0  0  0  0  0  0  0  0
   -0.5508   90.2392   16.2951 C   0  0  2  0  0  0  0  0  0  0  0  0
   -0.4891   90.3399   17.7177 O   0  0  0  0  0  0  0  0  0  0  0  0
    0.8582   90.4574   15.7416 C   0  0  2  0  0  0  0  0  0  0  0  0
    0.8153   90.4579   14.3061 O   0  0  0  0  0  0  0  0  0  0  0  0
    1.7846   89.3596   16.2712 C   0  0  0  0  0  0  0  0  0  0  0  0
    3.1922   89.6760   15.9861 N   0  0  0  0  0  0  0  0  0  0  0  0
    2.9621   95.6782   12.5017 C   0  0  2  0  0  0  0  0  0  0  0  0
    4.0615   96.4741   11.9352 N   0  0  0  0  0  0  0  0  0  0  0  0
    3.3683   95.0682   13.8448 C   0  0  0  0  0  0  0  0  0  0  0  0
    2.1457   94.3661   14.4443 C   0  0  2  0  0  0  0  0  0  0  0  0
    2.5344   93.6975   15.6944 N   0  0  0  0  0  0  0  0  0  0  0  0
    1.5641   93.3035   13.5073 C   0  0  2  0  0  0  0  0  0  0  0  0
    1.3516   93.7690   12.0711 C   0  0  2  0  0  0  0  0  0  0  0  0
    1.1880   92.5694   11.2975 O   0  0  0  0  0  0  0  0  0  0  0  0
    2.5578   94.5563   11.5421 C   0  0  1  0  0  0  0  0  0  0  0  0
    2.2628   95.1492   10.2746 O   0  0  0  0  0  0  0  0  0  0  0  0
    0.0304   92.5290   10.4475 C   0  0  1  0  0  0  0  0  0  0  0  0
    0.4835   92.0325    9.0735 C   0  0  2  0  0  0  0  0  0  0  0  0
    1.0004   93.1272    8.3132 O   0  0  0  0  0  0  0  0  0  0  0  0
   -0.8748   91.6195    8.5141 C   0  0  1  0  0  0  0  0  0  0  0  0
   -1.4461   90.8689    9.7067 C   0  0  2  0  0  0  0  0  0  0  0  0
   -0.9587   91.5681   10.8704 O   0  0  0  0  0  0  0  0  0  0  0  0
   -0.9561   89.4168    9.6665 C   0  0  0  0  0  0  0  0  0  0  0  0
    0.3917   89.3282   10.1377 O   0  0  0  0  0  0  0  0  0  0  0  0
   -2.7788   92.4285    7.4101 C   0  0  2  0  0  0  0  0  0  0  0  0
   -1.6654   92.7876    8.2426 O   0  0  0  0  0  0  0  0  0  0  0  0
   -2.4272   92.6919    5.9424 C   0  0  1  0  0  0  0  0  0  0  0  0
   -6.6665   93.0929    8.9114 N   0  0  0  0  0  0  0  0  0  0  0  0
   -3.6369   92.4117    5.0443 C   0  0  1  0  0  0  0  0  0  0  0  0
   -3.9313   91.0112    5.0310 O   0  0  0  0  0  0  0  0  0  0  0  0
   -4.8516   93.1936    5.5517 C   0  0  2  0  0  0  0  0  0  0  0  0
   -4.5879   94.5927    5.4025 O   0  0  0  0  0  0  0  0  0  0  0  0
   -5.0974   92.8595    7.0270 C   0  0  1  0  0  0  0  0  0  0  0  0
   -3.9325   93.1912    7.8053 O   0  0  0  0  0  0  0  0  0  0  0  0
   -6.3178   93.6027    7.5770 C   0  0  0  0  0  0  0  0  0  0  0  0
   -2.0556   94.1070    5.7930 N   0  0  0  0  0  0  0  0  0  0  0  0
  1  2  1  1  0  0  0
  1  3  1  0  0  0  0
  1 10  1  0  0  0  0
  3  4  1  6  0  0  0
  3  5  1  0  0  0  0
  5  6  1  1  0  0  0
  5  7  1  0  0  0  0
  7  8  1  1  0  0  0
  7  9  1  0  0  0  0
  9 10  1  0  0  0  0
  9 11  1  6  0  0  0
 11 12  1  0  0  0  0
 13 14  1  6  0  0  0
 13 15  1  0  0  0  0
 13 21  1  0  0  0  0
 16 15  1  0  0  0  0
 16 17  1  1  0  0  0
 18  2  1  1  0  0  0
 18 16  1  0  0  0  0
 19 18  1  0  0  0  0
 19 20  1  6  0  0  0
 21 19  1  0  0  0  0
 21 22  1  6  0  0  0
 23 20  1  1  0  0  0
 23 24  1  0  0  0  0
 23 28  1  0  0  0  0
 24 25  1  6  0  0  0
 24 26  1  0  0  0  0
 26 27  1  0  0  0  0
 26 32  1  1  0  0  0
 27 28  1  0  0  0  0
 27 29  1  1  0  0  0
 29 30  1  0  0  0  0
 31 32  1  1  0  0  0
 31 40  1  0  0  0  0
 33 31  1  0  0  0  0
 33 42  1  1  0  0  0
 35 33  1  0  0  0  0
 35 36  1  1  0  0  0
 37 35  1  0  0  0  0
 37 38  1  1  0  0  0
 37 39  1  0  0  0  0
 39 40  1  0  0  0  0
 39 41  1  1  0  0  0
 41 34  1  0  0  0  0
M  END
>  <CHROM.1>
-167.27732050,-168.74766096,-155.17531674,128.86586787,133.38070299,165.18578764
78.27468144,-95.37077829,170.29030155,-0.68687232,92.41725093,11.12297401
0.96660940,0.50174394,2.00079236

>  <Name>
2fcy_lig

>  <RI>
0

>  <Rbt.Current_Directory>
/home/itssahil/PROJECTS/Mol_Feturizer/New_Systems/rnas/2fcy

>  <Rbt.Executable>
rbdock ($Id: //depot/dev/client3/rdock/2013.1/src/exe/rbdock.cxx#4 $)

>  <Rbt.Library>
libRbt.so (2013.1, Build901 2013/11/27)

>  <Rbt.Parameter_File>
/export/apps/rDock/src/rDock_2013.1_src/data/scripts/dock_solv.prm

>  <Rbt.Receptor>
prm/pocket_docking_2.prm

>  <SCORE>
-10.9843

>  <SCORE.INTER>
-15.4211

>  <SCORE.INTER.CONST>
1

>  <SCORE.INTER.POLAR>
-1.97229

>  <SCORE.INTER.ROT>
9

>  <SCORE.INTER.SOLV>
15.447

>  <SCORE.INTER.VDW>
-18.4554

>  <SCORE.INTER.norm>
-0.367169

>  <SCORE.INTRA>
2.42925

>  <SCORE.INTRA.DIHEDRAL>
7.01697

>  <SCORE.INTRA.DIHEDRAL.0>
17.3446

>  <SCORE.INTRA.POLAR>
0

>  <SCORE.INTRA.POLAR.0>
0

>  <SCORE.INTRA.REPUL>
0

>  <SCORE.INTRA.REPUL.0>
0

>  <SCORE.INTRA.SOLV>
-2.67522

>  <SCORE.INTRA.SOLV.lig_0>
-112.452

>  <SCORE.INTRA.VDW>
0.258375

>  <SCORE.INTRA.VDW.0>
-5.95059

>  <SCORE.INTRA.norm>
0.0578393

>  <SCORE.RESTR>
2.00755

>  <SCORE.RESTR.CAVITY>
2.00755

>  <SCORE.RESTR.norm>
0.0477989

>  <SCORE.SYSTEM>
0

>  <SCORE.SYSTEM.CONST>
0

>  <SCORE.SYSTEM.DIHEDRAL>
0

>  <SCORE.SYSTEM.SOLV>
0

>  <SCORE.SYSTEM.norm>
0

>  <SCORE.heavy>
42

>  <SCORE.norm>
-0.261531

>  <RMSD>
1.227

$$$$
2fcy_lig
 OpenBabel11021811433D
libRbt.so/2013.1/901 2013/11/27
 42 45  0  0  0  0  0  0  0  0999 V2000
    0.1555   91.5148   14.2831 C   0  0  2  0  0  0  0  0  0  0  0  0
    0.6199   92.7270   14.9015 O   0  0  0  0  0  0  0  0  0  0  0  0
   -1.1919   91.2125   14.9405 C   0  0  2  0  0  0  0  0  0  0  0  0
   -2.0608   92.3885   14.7964 N   0  0  0  0  0  0  0  0  0  0  0  0
   -0.9812   90.9147   16.4272 C   0  0  1  0  0  0  0  0  0  0  0  0
   -2.2288   90.6244   17.0635 O   0  0  0  0  0  0  0  0  0  0  0  0
   -0.0169   89.7376   16.5765 C   0  0  2  0  0  0  0  0  0  0  0  0
    0.2534   89.5239   17.9618 O   0  0  0  0  0  0  0  0  0  0  0  0
    1.3006   90.0891   15.8838 C   0  0  2  0  0  0  0  0  0  0  0  0
    1.0490   90.4046   14.5055 O   0  0  0  0  0  0  0  0  0  0  0  0
    2.2715   88.9131   16.0182 C   0  0  0  0  0  0  0  0  0  0  0  0
    2.7211   88.7582   17.4098 N   0  0  0  0  0  0  0  0  0  0  0  0
    3.1609   95.8203   13.6282 C   0  0  2  0  0  0  0  0  0  0  0  0
    4.2333   96.6937   13.1283 N   0  0  0  0  0  0  0  0  0  0  0  0
    3.6522   94.9748   14.8049 C   0  0  0  0  0  0  0  0  0  0  0  0
    2.4616   94.1889   15.3636 C   0  0  2  0  0  0  0  0  0  0  0  0
    2.9272   93.3026   16.4400 N   0  0  0  0  0  0  0  0  0  0  0  0
    1.7857   93.3180   14.3006 C   0  0  2  0  0  0  0  0  0  0  0  0
    1.4770   94.0361   12.9916 C   0  0  2  0  0  0  0  0  0  0  0  0
    1.2267   92.9968   12.0317 O   0  0  0  0  0  0  0  0  0  0  0  0
    2.6585   94.8933   12.5186 C   0  0  1  0  0  0  0  0  0  0  0  0
    2.2833   95.7073   11.4043 O   0  0  0  0  0  0  0  0  0  0  0  0
    0.1737   93.2586   11.0899 C   0  0  1  0  0  0  0  0  0  0  0  0
    0.5619   92.5957    9.7672 C   0  0  2  0  0  0  0  0  0  0  0  0
    1.4308   93.4611    9.0325 O   0  0  0  0  0  0  0  0  0  0  0  0
   -0.8127   92.5714    9.1051 C   0  0  1  0  0  0  0  0  0  0  0  0
   -1.6647   92.0686   10.2599 C   0  0  2  0  0  0  0  0  0  0  0  0
   -1.0813   92.6440   11.4471 O   0  0  0  0  0  0  0  0  0  0  0  0
   -1.6189   90.5365   10.2864 C   0  0  0  0  0  0  0  0  0  0  0  0
   -2.4726   90.0261   11.3146 O   0  0  0  0  0  0  0  0  0  0  0  0
   -2.3002   93.8511    7.8213 C   0  0  2  0  0  0  0  0  0  0  0  0
   -1.2051   93.9063    8.7482 O   0  0  0  0  0  0  0  0  0  0  0  0
   -2.6389   95.2667    7.3432 C   0  0  1  0  0  0  0  0  0  0  0  0
   -6.0625   93.0203    9.5298 N   0  0  0  0  0  0  0  0  0  0  0  0
   -3.8704   95.2427    6.4315 C   0  0  1  0  0  0  0  0  0  0  0  0
   -3.5637   94.5805    5.2004 O   0  0  0  0  0  0  0  0  0  0  0  0
   -5.0233   94.5225    7.1361 C   0  0  2  0  0  0  0  0  0  0  0  0
   -5.4141   95.2946    8.2765 O   0  0  0  0  0  0  0  0  0  0  0  0
   -4.5645   93.1286    7.5774 C   0  0  1  0  0  0  0  0  0  0  0  0
   -3.4346   93.2418    8.4624 O   0  0  0  0  0  0  0  0  0  0  0  0
   -5.6913   92.3579    8.2707 C   0  0  0  0  0  0  0  0  0  0  0  0
   -2.9452   96.0999    8.5158 N   0  0  0  0  0  0  0  0  0  0  0  0
  1  2  1  1  0  0  0
  1  3  1  0  0  0  0
  1 10  1  0  0  0  0
  3  4  1  1  0  0  0
  3  5  1  0  0  0  0
  5  6  1  6  0  0  0
  5  7  1  0  0  0  0
  7  8  1  1  0  0  0
  7  9  1  0  0  0  0
  9 10  1  0  0  0  0
  9 11  1  6  0  0  0
 11 12  1  0  0  0  0
 13 14  1  6  0  0  0
 13 15  1  0  0  0  0
 13 21  1  0  0  0  0
 16 15  1  0  0  0  0
 16 17  1  1  0  0  0
 18  2  1  1  0  0  0
 18 16  1  0  0  0  0
 19 18  1  0  0  0  0
 19 20  1  6  0  0  0
 21 19  1  0  0  0  0
 21 22  1  6  0  0  0
 23 20  1  1  0  0  0
 23 24  1  0  0  0  0
 23 28  1  0  0  0  0
 24 25  1  6  0  0  0
 24 26  1  0  0  0  0
 26 27  1  0  0  0  0
 26 32  1  1  0  0  0
 27 28  1  0  0  0  0
 27 29  1  1  0  0  0
 29 30  1  0  0  0  0
 31 32  1  1  0  0  0
 31 40  1  0  0  0  0
 33 31  1  0  0  0  0
 33 42  1  1  0  0  0
 35 33  1  0  0  0  0
 35 36  1  6  0  0  0
 37 35  1  0  0  0  0
 37 38  1  1  0  0  0
 37 39  1  0  0  0  0
 39 40  1  0  0  0  0
 39 41  1  1  0  0  0
 41 34  1  0  0  0  0
M  END
>  <CHROM.1>
-171.17126247,-69.58057096,-156.71174002,141.64727605,146.47380241,164.52032464
-176.66373762,-174.98977112,-65.16318709,-0.60136691,92.85349932,11.96507300
0.93795841,0.52618552,2.22827022

>  <Name>
2fcy_lig

>  <RI>
4.13508e+07

>  <Rbt.Current_Directory>
/home/itssahil/PROJECTS/Mol_Feturizer/New_Systems/rnas/2fcy

>  <Rbt.Executable>
rbdock ($Id: //depot/dev/client3/rdock/2013.1/src/exe/rbdock.cxx#4 $)

>  <Rbt.Library>
libRbt.so (2013.1, Build901 2013/11/27)

>  <Rbt.Parameter_File>
/export/apps/rDock/src/rDock_2013.1_src/data/scripts/dock_solv.prm

>  <Rbt.Receptor>
prm/pocket_docking_3.prm

>  <SCORE>
-17.3912

>  <SCORE.INTER>
-16.2092

>  <SCORE.INTER.CONST>
1

>  <SCORE.INTER.POLAR>
-1.63843

>  <SCORE.INTER.ROT>
9

>  <SCORE.INTER.SOLV>
13.9785

>  <SCORE.INTER.VDW>
-19.6042

>  <SCORE.INTER.norm>
-0.385932

>  <SCORE.INTRA>
-1.19593

>  <SCORE.INTRA.DIHEDRAL>
-3.17576

>  <SCORE.INTRA.DIHEDRAL.0>
17.3446

>  <SCORE.INTRA.POLAR>
0

>  <SCORE.INTRA.POLAR.0>
0

>  <SCORE.INTRA.REPUL>
0

>  <SCORE.INTRA.REPUL.0>
0

>  <SCORE.INTRA.SOLV>
-1.22373

>  <SCORE.INTRA.SOLV.lig_0>
-112.452

>  <SCORE.INTRA.VDW>
1.00382

>  <SCORE.INTRA.VDW.0>
-5.95059

>  <SCORE.INTRA.norm>
-0.0284745

>  <SCORE.RESTR>
0.0138612

>  <SCORE.RESTR.CAVITY>
0.0138612

>  <SCORE.RESTR.norm>
0.000330028

>  <SCORE.SYSTEM>
0

>  <SCORE.SYSTEM.CONST>
0

>  <SCORE.SYSTEM.DIHEDRAL>
0

>  <SCORE.SYSTEM.SOLV>
0

>  <SCORE.SYSTEM.norm>
0

>  <SCORE.heavy>
42

>  <SCORE.norm>
-0.414077

>  <RMSD>
1.264

$$$$
2fcy_lig
 OpenBabel11021811433D
libRbt.so/2013.1/901 2013/11/27
 42 45  0  0  0  0  0  0  0  0999 V2000
    0.4242   91.1261   14.4664 C   0  0  2  0  0  0  0  0  0  0  0  0
    0.9566   92.3540   14.9917 O   0  0  0  0  0  0  0  0  0  0  0  0
   -0.9927   91.0213   15.0325 C   0  0  2  0  0  0  0  0  0  0  0  0
   -1.7284   92.2463   14.6907 N   0  0  0  0  0  0  0  0  0  0  0  0
   -0.9265   90.8756   16.5549 C   0  0  1  0  0  0  0  0  0  0  0  0
   -2.2416   90.7714   17.1075 O   0  0  0  0  0  0  0  0  0  0  0  0
   -0.0967   89.6416   16.9103 C   0  0  2  0  0  0  0  0  0  0  0  0
    0.0446   89.5624   18.3286 O   0  0  0  0  0  0  0  0  0  0  0  0
    1.2981   89.7938   16.3014 C   0  0  2  0  0  0  0  0  0  0  0  0
    1.1848   89.9728   14.8810 O   0  0  0  0  0  0  0  0  0  0  0  0
    2.1357   88.5585   16.6425 C   0  0  0  0  0  0  0  0  0  0  0  0
    3.5706   88.8328   16.4739 N   0  0  0  0  0  0  0  0  0  0  0  0
    3.4696   95.3164   13.3931 C   0  0  2  0  0  0  0  0  0  0  0  0
    4.5241   96.1373   12.7789 N   0  0  0  0  0  0  0  0  0  0  0  0
    4.0204   94.5220   14.5791 C   0  0  0  0  0  0  0  0  0  0  0  0
    2.8537   93.7944   15.2549 C   0  0  2  0  0  0  0  0  0  0  0  0
    3.3714   92.9547   16.3447 N   0  0  0  0  0  0  0  0  0  0  0  0
    2.0920   92.8854   14.2860 C   0  0  2  0  0  0  0  0  0  0  0  0
    1.7121   93.5415   12.9632 C   0  0  2  0  0  0  0  0  0  0  0  0
    1.3785   92.4598   12.0785 O   0  0  0  0  0  0  0  0  0  0  0  0
    2.8769   94.3449   12.3695 C   0  0  1  0  0  0  0  0  0  0  0  0
    2.4455   95.1083   11.2399 O   0  0  0  0  0  0  0  0  0  0  0  0
    0.5565   92.8066   10.9523 C   0  0  1  0  0  0  0  0  0  0  0  0
    0.1376   91.5044   10.2678 C   0  0  2  0  0  0  0  0  0  0  0  0
    1.1709   91.0748    9.3782 O   0  0  0  0  0  0  0  0  0  0  0  0
   -1.0435   92.0339    9.4597 C   0  0  1  0  0  0  0  0  0  0  0  0
   -1.7434   92.8751   10.5156 C   0  0  2  0  0  0  0  0  0  0  0  0
   -0.6873   93.4363   11.3221 O   0  0  0  0  0  0  0  0  0  0  0  0
   -2.6729   91.9752   11.3380 C   0  0  0  0  0  0  0  0  0  0  0  0
   -3.5677   91.2602   10.4809 O   0  0  0  0  0  0  0  0  0  0  0  0
   -1.0047   92.3426    7.1356 C   0  0  2  0  0  0  0  0  0  0  0  0
   -0.5683   92.8741    8.3960 O   0  0  0  0  0  0  0  0  0  0  0  0
   -0.4051   93.1711    5.9949 C   0  0  1  0  0  0  0  0  0  0  0  0
   -4.9063   90.7906    6.9436 N   0  0  0  0  0  0  0  0  0  0  0  0
   -0.9386   92.6846    4.6431 C   0  0  1  0  0  0  0  0  0  0  0  0
   -0.4369   91.3760    4.3534 O   0  0  0  0  0  0  0  0  0  0  0  0
   -2.4693   92.6608    4.6680 C   0  0  2  0  0  0  0  0  0  0  0  0
   -2.9441   94.0051    4.7985 O   0  0  0  0  0  0  0  0  0  0  0  0
   -2.9504   91.8163    5.8527 C   0  0  1  0  0  0  0  0  0  0  0  0
   -2.4420   92.3638    7.0834 O   0  0  0  0  0  0  0  0  0  0  0  0
   -4.4787   91.7441    5.9093 C   0  0  0  0  0  0  0  0  0  0  0  0
   -0.8024   94.5759    6.1727 N   0  0  0  0  0  0  0  0  0  0  0  0
  1  2  1  1  0  0  0
  1  3  1  0  0  0  0
  1 10  1  0  0  0  0
  3  4  1  1  0  0  0
  3  5  1  0  0  0  0
  5  6  1  6  0  0  0
  5  7  1  0  0  0  0
  7  8  1  1  0  0  0
  7  9  1  0  0  0  0
  9 10  1  0  0  0  0
  9 11  1  6  0  0  0
 11 12  1  0  0  0  0
 13 14  1  6  0  0  0
 13 15  1  0  0  0  0
 13 21  1  0  0  0  0
 16 15  1  0  0  0  0
 16 17  1  1  0  0  0
 18  2  1  1  0  0  0
 18 16  1  0  0  0  0
 19 18  1  0  0  0  0
 19 20  1  6  0  0  0
 21 19  1  0  0  0  0
 21 22  1  6  0  0  0
 23 20  1  1  0  0  0
 23 24  1  0  0  0  0
 23 28  1  0  0  0  0
 24 25  1  6  0  0  0
 24 26  1  0  0  0  0
 26 27  1  0  0  0  0
 26 32  1  6  0  0  0
 27 28  1  0  0  0  0
 27 29  1  1  0  0  0
 29 30  1  0  0  0  0
 31 32  1  1  0  0  0
 31 40  1  0  0  0  0
 33 31  1  0  0  0  0
 33 42  1  1  0  0  0
 35 33  1  0  0  0  0
 35 36  1  1  0  0  0
 37 35  1  0  0  0  0
 37 38  1  1  0  0  0
 37 39  1  0  0  0  0
 39 40  1  0  0  0  0
 39 41  1  1  0  0  0
 41 34  1  0  0  0  0
M  END
>  <CHROM.1>
-161.09678142,-161.50233894,-157.01384608,158.96468454,-171.33318228,121.14091214
-54.05621690,-175.43525286,172.64271244,-0.01971782,92.20791383,11.49347558
1.15139893,0.59957171,1.93564697

>  <Name>
2fcy_lig

>  <RI>
4.13508e+07

>  <Rbt.Current_Directory>
/home/itssahil/PROJECTS/Mol_Feturizer/New_Systems/rnas/2fcy

>  <Rbt.Executable>
rbdock ($Id: //depot/dev/client3/rdock/2013.1/src/exe/rbdock.cxx#4 $)

>  <Rbt.Library>
libRbt.so (2013.1, Build901 2013/11/27)

>  <Rbt.Parameter_File>
/export/apps/rDock/src/rDock_2013.1_src/data/scripts/dock_solv.prm

>  <Rbt.Receptor>
prm/pocket_docking_3.prm

>  <SCORE>
-20.9335

>  <SCORE.INTER>
-19.0146

>  <SCORE.INTER.CONST>
1

>  <SCORE.INTER.POLAR>
-1.85359

>  <SCORE.INTER.ROT>
9

>  <SCORE.INTER.SOLV>
19.488

>  <SCORE.INTER.VDW>
-22.5937

>  <SCORE.INTER.norm>
-0.452728

>  <SCORE.INTRA>
-1.91888

>  <SCORE.INTRA.DIHEDRAL>
-2.46532

>  <SCORE.INTRA.DIHEDRAL.0>
17.3446

>  <SCORE.INTRA.POLAR>
0

>  <SCORE.INTRA.POLAR.0>
0

>  <SCORE.INTRA.REPUL>
0

>  <SCORE.INTRA.REPUL.0>
0

>  <SCORE.INTRA.SOLV>
-3.22678

>  <SCORE.INTRA.SOLV.lig_0>
-112.452

>  <SCORE.INTRA.VDW>
0.927165

>  <SCORE.INTRA.VDW.0>
-5.95059

>  <SCORE.INTRA.norm>
-0.0456877

>  <SCORE.RESTR>
0

>  <SCORE.RESTR.CAVITY>
0

>  <SCORE.RESTR.norm>
0

>  <SCORE.SYSTEM>
0

>  <SCORE.SYSTEM.CONST>
0

>  <SCORE.SYSTEM.DIHEDRAL>
0

>  <SCORE.SYSTEM.SOLV>
0

>  <SCORE.SYSTEM.norm>
0

>  <SCORE.heavy>
42

>  <SCORE.norm>
-0.498416

>  <RMSD>
1.294

$$$$
2fcy_lig
 OpenBabel11021811433D
libRbt.so/2013.1/901 2013/11/27
 42 45  0  0  0  0  0  0  0  0999 V2000
   -0.1401   91.1869   14.0563 C   0  0  2  0  0  0  0  0  0  0  0  0
    0.4110   92.4686   14.4039 O   0  0  0  0  0  0  0  0  0  0  0  0
   -1.4334   91.0671   14.8638 C   0  0  2  0  0  0  0  0  0  0  0  0
   -2.2773   92.2355   14.5779 N   0  0  0  0  0  0  0  0  0  0  0  0
   -1.1029   91.0317   16.3580 C   0  0  1  0  0  0  0  0  0  0  0  0
   -2.2983   90.9155   17.1347 O   0  0  0  0  0  0  0  0  0  0  0  0
   -0.1637   89.8590   16.6417 C   0  0  2  0  0  0  0  0  0  0  0  0
    0.2197   89.8854   18.0164 O   0  0  0  0  0  0  0  0  0  0  0  0
    1.0982   90.0221   15.7930 C   0  0  2  0  0  0  0  0  0  0  0  0
    0.7369   90.0962   14.4050 O   0  0  0  0  0  0  0  0  0  0  0  0
    2.0427   88.8475   16.0612 C   0  0  0  0  0  0  0  0  0  0  0  0
    2.6652   88.9653   17.3884 N   0  0  0  0  0  0  0  0  0  0  0  0
    2.6886   95.1935   12.1602 C   0  0  2  0  0  0  0  0  0  0  0  0
    3.6756   95.9373   11.3630 N   0  0  0  0  0  0  0  0  0  0  0  0
    3.3047   94.7089   13.4741 C   0  0  0  0  0  0  0  0  0  0  0  0
    2.1995   94.0612   14.3144 C   0  0  2  0  0  0  0  0  0  0  0  0
    2.7852   93.5097   15.5447 N   0  0  0  0  0  0  0  0  0  0  0  0
    1.4992   92.9165   13.5764 C   0  0  2  0  0  0  0  0  0  0  0  0
    1.0626   93.2492   12.1540 C   0  0  2  0  0  0  0  0  0  0  0  0
    0.8025   91.9839   11.5250 O   0  0  0  0  0  0  0  0  0  0  0  0
    2.1610   93.9881   11.3781 C   0  0  1  0  0  0  0  0  0  0  0  0
    1.6665   94.4627   10.1229 O   0  0  0  0  0  0  0  0  0  0  0  0
    0.0719   92.0408   10.2891 C   0  0  1  0  0  0  0  0  0  0  0  0
   -0.0071   90.6179    9.7335 C   0  0  2  0  0  0  0  0  0  0  0  0
    1.1886   90.3172    9.0099 O   0  0  0  0  0  0  0  0  0  0  0  0
   -1.1607   90.8127    8.7538 C   0  0  1  0  0  0  0  0  0  0  0  0
   -2.1294   91.5986    9.6232 C   0  0  2  0  0  0  0  0  0  0  0  0
   -1.3040   92.4409   10.4539 O   0  0  0  0  0  0  0  0  0  0  0  0
   -2.9642   90.6184   10.4554 C   0  0  0  0  0  0  0  0  0  0  0  0
   -3.9182   91.3238   11.2547 O   0  0  0  0  0  0  0  0  0  0  0  0
   -1.6673   91.4920    6.5674 C   0  0  2  0  0  0  0  0  0  0  0  0
   -0.7281   91.6184    7.6460 O   0  0  0  0  0  0  0  0  0  0  0  0
   -1.0132   91.9546    5.2615 C   0  0  1  0  0  0  0  0  0  0  0  0
   -5.6579   92.3231    7.4798 N   0  0  0  0  0  0  0  0  0  0  0  0
   -2.0292   91.9244    4.1147 C   0  0  1  0  0  0  0  0  0  0  0  0
   -2.3869   90.5740    3.8039 O   0  0  0  0  0  0  0  0  0  0  0  0
   -3.2794   92.7159    4.5086 C   0  0  2  0  0  0  0  0  0  0  0  0
   -2.9190   94.0935    4.6562 O   0  0  0  0  0  0  0  0  0  0  0  0
   -3.8352   92.1735    5.8297 C   0  0  1  0  0  0  0  0  0  0  0  0
   -2.8361   92.2772    6.8611 O   0  0  0  0  0  0  0  0  0  0  0  0
   -5.1015   92.9206    6.2570 C   0  0  0  0  0  0  0  0  0  0  0  0
   -0.5465   93.3388    5.4323 N   0  0  0  0  0  0  0  0  0  0  0  0
  1  2  1  1  0  0  0
  1  3  1  0  0  0  0
  1 10  1  0  0  0  0
  3  4  1  1  0  0  0
  3  5  1  0  0  0  0
  5  6  1  1  0  0  0
  5  7  1  0  0  0  0
  7  8  1  1  0  0  0
  7  9  1  0  0  0  0
  9 10  1  0  0  0  0
  9 11  1  6  0  0  0
 11 12  1  0  0  0  0
 13 14  1  6  0  0  0
 13 15  1  0  0  0  0
 13 21  1  0  0  0  0
 16 15  1  0  0  0  0
 16 17  1  1  0  0  0
 18  2  1  1  0  0  0
 18 16  1  0  0  0  0
 19 18  1  0  0  0  0
 19 20  1  6  0  0  0
 21 19  1  0  0  0  0
 21 22  1  6  0  0  0
 23 20  1  1  0  0  0
 23 24  1  0  0  0  0
 23 28  1  0  0  0  0
 24 25  1  6  0  0  0
 24 26  1  0  0  0  0
 26 27  1  0  0  0  0
 26 32  1  6  0  0  0
 27 28  1  0  0  0  0
 27 29  1  1  0  0  0
 29 30  1  0  0  0  0
 31 32  1  1  0  0  0
 31 40  1  0  0  0  0
 33 31  1  0  0  0  0
 33 42  1  1  0  0  0
 35 33  1  0  0  0  0
 35 36  1  1  0  0  0
 37 35  1  0  0  0  0
 37 38  1  1  0  0  0
 37 39  1  0  0  0  0
 39 40  1  0  0  0  0
 39 41  1  1  0  0  0
 41 34  1  0  0  0  0
M  END
>  <CHROM.1>
-168.56290725,-72.77092792,-164.18453254,165.51057867,175.79304960,163.99419195
-178.11594913,-161.74155094,176.41255367,-0.51122074,91.98281379,11.02337229
1.17237741,0.54336024,1.88191709

>  <Name>
2fcy_lig

>  <RI>
4.13508e+07

>  <Rbt.Current_Directory>
/home/itssahil/PROJECTS/Mol_Feturizer/New_Systems/rnas/2fcy

>  <Rbt.Executable>
rbdock ($Id: //depot/dev/client3/rdock/2013.1/src/exe/rbdock.cxx#4 $)

>  <Rbt.Library>
libRbt.so (2013.1, Build901 2013/11/27)

>  <Rbt.Parameter_File>
/export/apps/rDock/src/rDock_2013.1_src/data/scripts/dock_solv.prm

>  <Rbt.Receptor>
prm/pocket_docking_3.prm

>  <SCORE>
-22.6605

>  <SCORE.INTER>
-16.8536

>  <SCORE.INTER.CONST>
1

>  <SCORE.INTER.POLAR>
-1.60042

>  <SCORE.INTER.ROT>
9

>  <SCORE.INTER.SOLV>
16.0414

>  <SCORE.INTER.VDW>
-20.8481

>  <SCORE.INTER.norm>
-0.401277

>  <SCORE.INTRA>
-5.80691

>  <SCORE.INTRA.DIHEDRAL>
-10.6512

>  <SCORE.INTRA.DIHEDRAL.0>
17.3446

>  <SCORE.INTRA.POLAR>
0

>  <SCORE.INTRA.POLAR.0>
0

>  <SCORE.INTRA.REPUL>
0

>  <SCORE.INTRA.REPUL.0>
0

>  <SCORE.INTRA.SOLV>
-3.8192

>  <SCORE.INTRA.SOLV.lig_0>
-112.452

>  <SCORE.INTRA.VDW>
1.4283

>  <SCORE.INTRA.VDW.0>
-5.95059

>  <SCORE.INTRA.norm>
-0.13826

>  <SCORE.RESTR>
0

>  <SCORE.RESTR.CAVITY>
0

>  <SCORE.RESTR.norm>
0

>  <SCORE.SYSTEM>
0

>  <SCORE.SYSTEM.CONST>
0

>  <SCORE.SYSTEM.DIHEDRAL>
0

>  <SCORE.SYSTEM.SOLV>
0

>  <SCORE.SYSTEM.norm>
0

>  <SCORE.heavy>
42

>  <SCORE.norm>
-0.539537

>  <RMSD>
1.310

$$$$
2fcy_lig
 OpenBabel11021811433D
libRbt.so/2013.1/901 2013/11/27
 42 45  0  0  0  0  0  0  0  0999 V2000
    0.1028   91.5120   14.3986 C   0  0  2  0  0  0  0  0  0  0  0  0
    0.5646   92.7158   15.0348 O   0  0  0  0  0  0  0  0  0  0  0  0
   -1.2559   91.2113   15.0332 C   0  0  2  0  0  0  0  0  0  0  0  0
   -2.1161   92.3935   14.8871 N   0  0  0  0  0  0  0  0  0  0  0  0
   -1.0689   90.8989   16.5200 C   0  0  1  0  0  0  0  0  0  0  0  0
   -2.3273   90.6098   17.1352 O   0  0  0  0  0  0  0  0  0  0  0  0
   -0.1134   89.7150   16.6728 C   0  0  2  0  0  0  0  0  0  0  0  0
    0.1352   89.4873   18.0599 O   0  0  0  0  0  0  0  0  0  0  0  0
    1.2162   90.0654   16.0029 C   0  0  2  0  0  0  0  0  0  0  0  0
    0.9867   90.3947   14.6240 O   0  0  0  0  0  0  0  0  0  0  0  0
    2.1785   88.8827   16.1409 C   0  0  0  0  0  0  0  0  0  0  0  0
    2.6980   88.7843   17.5131 N   0  0  0  0  0  0  0  0  0  0  0  0
    2.5862   96.0237   13.4171 C   0  0  2  0  0  0  0  0  0  0  0  0
    3.5041   96.9970   12.8063 N   0  0  0  0  0  0  0  0  0  0  0  0
    3.2293   95.3612   14.6370 C   0  0  0  0  0  0  0  0  0  0  0  0
    2.1834   94.4622   15.3042 C   0  0  2  0  0  0  0  0  0  0  0  0
    2.8042   93.7472   16.4285 N   0  0  0  0  0  0  0  0  0  0  0  0
    1.6135   93.4156   14.3423 C   0  0  2  0  0  0  0  0  0  0  0  0
    1.1661   93.9676   12.9934 C   0  0  2  0  0  0  0  0  0  0  0  0
    1.0447   92.8252   12.1307 O   0  0  0  0  0  0  0  0  0  0  0  0
    2.1950   94.9429   12.4063 C   0  0  1  0  0  0  0  0  0  0  0  0
    1.6731   95.5964   11.2463 O   0  0  0  0  0  0  0  0  0  0  0  0
    0.1006   92.9538   11.0553 C   0  0  1  0  0  0  0  0  0  0  0  0
    0.8512   92.6929    9.7483 C   0  0  2  0  0  0  0  0  0  0  0  0
    1.5000   93.8922    9.3188 O   0  0  0  0  0  0  0  0  0  0  0  0
   -0.3447   92.4083    8.8442 C   0  0  1  0  0  0  0  0  0  0  0  0
   -1.1472   91.4745    9.7364 C   0  0  2  0  0  0  0  0  0  0  0  0
   -0.9380   91.9534   11.0809 O   0  0  0  0  0  0  0  0  0  0  0  0
   -0.6323   90.0420    9.5542 C   0  0  0  0  0  0  0  0  0  0  0  0
    0.6269   89.8733   10.2118 O   0  0  0  0  0  0  0  0  0  0  0  0
   -2.0089   93.4182    7.5370 C   0  0  2  0  0  0  0  0  0  0  0  0
   -1.0796   93.6206    8.6125 O   0  0  0  0  0  0  0  0  0  0  0  0
   -2.5372   94.7729    7.0545 C   0  0  1  0  0  0  0  0  0  0  0  0
   -5.7344   91.8232    8.6749 N   0  0  0  0  0  0  0  0  0  0  0  0
   -3.6072   94.5758    5.9752 C   0  0  1  0  0  0  0  0  0  0  0  0
   -3.0181   94.0467    4.7830 O   0  0  0  0  0  0  0  0  0  0  0  0
   -4.6906   93.6226    6.4870 C   0  0  2  0  0  0  0  0  0  0  0  0
   -5.3697   94.2493    7.5805 O   0  0  0  0  0  0  0  0  0  0  0  0
   -4.0444   92.3128    6.9510 C   0  0  1  0  0  0  0  0  0  0  0  0
   -3.0863   92.5807    7.9917 O   0  0  0  0  0  0  0  0  0  0  0  0
   -5.0915   91.3154    7.4540 C   0  0  0  0  0  0  0  0  0  0  0  0
   -3.1499   95.4731    8.1935 N   0  0  0  0  0  0  0  0  0  0  0  0
  1  2  1  1  0  0  0
  1  3  1  0  0  0  0
  1 10  1  0  0  0  0
  3  4  1  1  0  0  0
  3  5  1  0  0  0  0
  5  6  1  6  0  0  0
  5  7  1  0  0  0  0
  7  8  1  1  0  0  0
  7  9  1  0  0  0  0
  9 10  1  0  0  0  0
  9 11  1  6  0  0  0
 11 12  1  0  0  0  0
 13 14  1  6  0  0  0
 13 15  1  0  0  0  0
 13 21  1  0  0  0  0
 16 15  1  0  0  0  0
 16 17  1  1  0  0  0
 18  2  1  1  0  0  0
 18 16  1  0  0  0  0
 19 18  1  0  0  0  0
 19 20  1  6  0  0  0
 21 19  1  0  0  0  0
 21 22  1  6  0  0  0
 23 20  1  1  0  0  0
 23 24  1  0  0  0  0
 23 28  1  0  0  0  0
 24 25  1  6  0  0  0
 24 26  1  0  0  0  0
 26 27  1  0  0  0  0
 26 32  1  1  0  0  0
 27 28  1  0  0  0  0
 27 29  1  1  0  0  0
 29 30  1  0  0  0  0
 31 32  1  1  0  0  0
 31 40  1  0  0  0  0
 33 31  1  0  0  0  0
 33 42  1  1  0  0  0
 35 33  1  0  0  0  0
 35 36  1  6  0  0  0
 37 35  1  0  0  0  0
 37 38  1  1  0  0  0
 37 39  1  0  0  0  0
 39 40  1  0  0  0  0
 39 41  1  1  0  0  0
 41 34  1  0  0  0  0
M  END
>  <CHROM.1>
-162.15315601,-74.53601026,-167.31055010,152.67670589,123.67726103,167.04134987
74.45177630,-165.96360631,-65.92581633,-0.49634758,92.62987782,11.76347236
0.95996222,0.68043711,2.19999814

>  <Name>
2fcy_lig

>  <RI>
4.13508e+07

>  <Rbt.Current_Directory>
/home/itssahil/PROJECTS/Mol_Feturizer/New_Systems/rnas/2fcy

>  <Rbt.Executable>
rbdock ($Id: //depot/dev/client3/rdock/2013.1/src/exe/rbdock.cxx#4 $)

>  <Rbt.Library>
libRbt.so (2013.1, Build901 2013/11/27)

>  <Rbt.Parameter_File>
/export/apps/rDock/src/rDock_2013.1_src/data/scripts/dock_solv.prm

>  <Rbt.Receptor>
prm/pocket_docking_3.prm

>  <SCORE>
-18.2858

>  <SCORE.INTER>
-18.7781

>  <SCORE.INTER.CONST>
1

>  <SCORE.INTER.POLAR>
-2.41043

>  <SCORE.INTER.ROT>
9

>  <SCORE.INTER.SOLV>
13.8729

>  <SCORE.INTER.VDW>
-18.7083

>  <SCORE.INTER.norm>
-0.447098

>  <SCORE.INTRA>
0.492284

>  <SCORE.INTRA.DIHEDRAL>
-1.22339

>  <SCORE.INTRA.DIHEDRAL.0>
17.3446

>  <SCORE.INTRA.POLAR>
0

>  <SCORE.INTRA.POLAR.0>
0

>  <SCORE.INTRA.REPUL>
0.00431928

>  <SCORE.INTRA.REPUL.0>
0

>  <SCORE.INTRA.SOLV>
-1.45293

>  <SCORE.INTRA.SOLV.lig_0>
-112.452

>  <SCORE.INTRA.VDW>
1.80885

>  <SCORE.INTRA.VDW.0>
-5.95059

>  <SCORE.INTRA.norm>
0.0117211

>  <SCORE.RESTR>
0

>  <SCORE.RESTR.CAVITY>
0

>  <SCORE.RESTR.norm>
0

>  <SCORE.SYSTEM>
0

>  <SCORE.SYSTEM.CONST>
0

>  <SCORE.SYSTEM.DIHEDRAL>
0

>  <SCORE.SYSTEM.SOLV>
0

>  <SCORE.SYSTEM.norm>
0

>  <SCORE.heavy>
42

>  <SCORE.norm>
-0.435377

>  <RMSD>
1.318

$$$$
2fcy_lig
 OpenBabel11021811433D
libRbt.so/2013.1/901 2013/11/27
 42 45  0  0  0  0  0  0  0  0999 V2000
    0.4568   91.0801   14.5321 C   0  0  2  0  0  0  0  0  0  0  0  0
    1.0125   92.3200   15.0025 O   0  0  0  0  0  0  0  0  0  0  0  0
   -0.9462   91.0074   15.1363 C   0  0  2  0  0  0  0  0  0  0  0  0
   -1.6800   92.2271   14.7718 N   0  0  0  0  0  0  0  0  0  0  0  0
   -0.8432   90.9121   16.6606 C   0  0  1  0  0  0  0  0  0  0  0  0
   -2.1448   90.8385   17.2490 O   0  0  0  0  0  0  0  0  0  0  0  0
   -0.0151   89.6830   17.0368 C   0  0  2  0  0  0  0  0  0  0  0  0
    0.1611   89.6500   18.4529 O   0  0  0  0  0  0  0  0  0  0  0  0
    1.3652   89.8019   16.3887 C   0  0  2  0  0  0  0  0  0  0  0  0
    1.2178   89.9344   14.9663 O   0  0  0  0  0  0  0  0  0  0  0  0
    2.2007   88.5710   16.7503 C   0  0  0  0  0  0  0  0  0  0  0  0
    3.6285   88.8096   16.4912 N   0  0  0  0  0  0  0  0  0  0  0  0
    3.1821   95.3005   12.9885 C   0  0  2  0  0  0  0  0  0  0  0  0
    4.1333   96.1390   12.2435 N   0  0  0  0  0  0  0  0  0  0  0  0
    3.8471   94.6896   14.2236 C   0  0  0  0  0  0  0  0  0  0  0  0
    2.7781   93.9402   15.0252 C   0  0  2  0  0  0  0  0  0  0  0  0
    3.4108   93.2712   16.1712 N   0  0  0  0  0  0  0  0  0  0  0  0
    2.0673   92.8691   14.1929 C   0  0  2  0  0  0  0  0  0  0  0  0
    1.5799   93.3430   12.8282 C   0  0  2  0  0  0  0  0  0  0  0  0
    1.3141   92.1473   12.0775 O   0  0  0  0  0  0  0  0  0  0  0  0
    2.6432   94.1763   12.1004 C   0  0  1  0  0  0  0  0  0  0  0  0
    2.1018   94.7729   10.9188 O   0  0  0  0  0  0  0  0  0  0  0  0
    0.2510   92.2389   11.1152 C   0  0  1  0  0  0  0  0  0  0  0  0
    0.1887   90.9059   10.3677 C   0  0  2  0  0  0  0  0  0  0  0  0
    1.1461   90.9047    9.3061 O   0  0  0  0  0  0  0  0  0  0  0  0
   -1.2169   91.0287    9.7866 C   0  0  1  0  0  0  0  0  0  0  0  0
   -1.9764   91.5235   11.0074 C   0  0  2  0  0  0  0  0  0  0  0  0
   -1.0539   92.3786   11.7135 O   0  0  0  0  0  0  0  0  0  0  0  0
   -2.4014   90.3191   11.8553 C   0  0  0  0  0  0  0  0  0  0  0  0
   -3.3574   90.7129   12.8439 O   0  0  0  0  0  0  0  0  0  0  0  0
   -2.4695   91.9521    8.0325 C   0  0  2  0  0  0  0  0  0  0  0  0
   -1.2326   92.0306    8.7573 O   0  0  0  0  0  0  0  0  0  0  0  0
   -2.2315   91.2608    6.6862 C   0  0  1  0  0  0  0  0  0  0  0  0
   -3.8701   95.5963    6.4243 N   0  0  0  0  0  0  0  0  0  0  0  0
   -3.5174   91.2570    5.8525 C   0  0  1  0  0  0  0  0  0  0  0  0
   -4.4963   90.4036    6.4540 O   0  0  0  0  0  0  0  0  0  0  0  0
   -4.0675   92.6815    5.7412 C   0  0  2  0  0  0  0  0  0  0  0  0
   -3.1369   93.4725    4.9943 O   0  0  0  0  0  0  0  0  0  0  0  0
   -4.2520   93.2715    7.1434 C   0  0  1  0  0  0  0  0  0  0  0  0
   -2.9931   93.2782    7.8419 O   0  0  0  0  0  0  0  0  0  0  0  0
   -4.8214   94.6916    7.0866 C   0  0  0  0  0  0  0  0  0  0  0  0
   -1.2016   92.0075    5.9480 N   0  0  0  0  0  0  0  0  0  0  0  0
  1  2  1  1  0  0  0
  1  3  1  0  0  0  0
  1 10  1  0  0  0  0
  3  4  1  1  0  0  0
  3  5  1  0  0  0  0
  5  6  1  1  0  0  0
  5  7  1  0  0  0  0
  7  8  1  1  0  0  0
  7  9  1  0  0  0  0
  9 10  1  0  0  0  0
  9 11  1  6  0  0  0
 11 12  1  0  0  0  0
 13 14  1  6  0  0  0
 13 15  1  0  0  0  0
 13 21  1  0  0  0  0
 16 15  1  0  0  0  0
 16 17  1  1  0  0  0
 18  2  1  1  0  0  0
 18 16  1  0  0  0  0
 19 18  1  0  0  0  0
 19 20  1  6  0  0  0
 21 19  1  0  0  0  0
 21 22  1  6  0  0  0
 23 20  1  1  0  0  0
 23 24  1  0  0  0  0
 23 28  1  0  0  0  0
 24 25  1  6  0  0  0
 24 26  1  0  0  0  0
 26 27  1  0  0  0  0
 26 32  1  6  0  0  0
 27 28  1  0  0  0  0
 27 29  1  1  0  0  0
 29 30  1  0  0  0  0
 31 32  1  6  0  0  0
 31 40  1  0  0  0  0
 33 31  1  0  0  0  0
 33 42  1  6  0  0  0
 35 33  1  0  0  0  0
 35 36  1  1  0  0  0
 37 35  1  0  0  0  0
 37 38  1  6  0  0  0
 37 39  1  0  0  0  0
 39 40  1  0  0  0  0
 39 41  1  6  0  0  0
 41 34  1  0  0  0  0
M  END
>  <CHROM.1>
-156.55607851,-163.54097078,-164.74157096,148.41932120,176.41628457,168.25214320
-167.37009930,-103.12969647,-64.11278450,-0.38518320,92.06902830,11.78305869
0.99544332,0.60433270,2.07309662

>  <Name>
2fcy_lig

>  <RI>
0

>  <Rbt.Current_Directory>
/home/itssahil/PROJECTS/Mol_Feturizer/New_Systems/rnas/2fcy

>  <Rbt.Executable>
rbdock ($Id: //depot/dev/client3/rdock/2013.1/src/exe/rbdock.cxx#4 $)

>  <Rbt.Library>
libRbt.so (2013.1, Build901 2013/11/27)

>  <Rbt.Parameter_File>
/export/apps/rDock/src/rDock_2013.1_src/data/scripts/dock_solv.prm

>  <Rbt.Receptor>
prm/pocket_docking_2.prm

>  <SCORE>
-16.123

>  <SCORE.INTER>
-15.5841

>  <SCORE.INTER.CONST>
1

>  <SCORE.INTER.POLAR>
-1.49167

>  <SCORE.INTER.ROT>
9

>  <SCORE.INTER.SOLV>
19.1126

>  <SCORE.INTER.VDW>
-21.3881

>  <SCORE.INTER.norm>
-0.371051

>  <SCORE.INTRA>
-0.552568

>  <SCORE.INTRA.DIHEDRAL>
-1.30696

>  <SCORE.INTRA.DIHEDRAL.0>
17.3446

>  <SCORE.INTRA.POLAR>
0

>  <SCORE.INTRA.POLAR.0>
0

>  <SCORE.INTRA.REPUL>
0

>  <SCORE.INTRA.REPUL.0>
0

>  <SCORE.INTRA.SOLV>
-0.712189

>  <SCORE.INTRA.SOLV.lig_0>
-112.452

>  <SCORE.INTRA.VDW>
0.457009

>  <SCORE.INTRA.VDW.0>
-5.95059

>  <SCORE.INTRA.norm>
-0.0131564

>  <SCORE.RESTR>
0.0137133

>  <SCORE.RESTR.CAVITY>
0.0137133

>  <SCORE.RESTR.norm>
0.000326508

>  <SCORE.SYSTEM>
0

>  <SCORE.SYSTEM.CONST>
0

>  <SCORE.SYSTEM.DIHEDRAL>
0

>  <SCORE.SYSTEM.SOLV>
0

>  <SCORE.SYSTEM.norm>
0

>  <SCORE.heavy>
42

>  <SCORE.norm>
-0.383881

>  <RMSD>
1.337

$$$$
2fcy_lig
 OpenBabel11021811433D
libRbt.so/2013.1/901 2013/11/27
 42 45  0  0  0  0  0  0  0  0999 V2000
   -0.0801   91.2042   14.0596 C   0  0  2  0  0  0  0  0  0  0  0  0
    0.4444   92.4953   14.4131 O   0  0  0  0  0  0  0  0  0  0  0  0
   -1.3928   91.0720   14.8333 C   0  0  2  0  0  0  0  0  0  0  0  0
   -2.2442   92.2269   14.5174 N   0  0  0  0  0  0  0  0  0  0  0  0
   -1.1016   91.0504   16.3360 C   0  0  1  0  0  0  0  0  0  0  0  0
   -2.3156   90.9229   17.0815 O   0  0  0  0  0  0  0  0  0  0  0  0
   -0.1547   89.8924   16.6522 C   0  0  2  0  0  0  0  0  0  0  0  0
    0.1917   89.9327   18.0364 O   0  0  0  0  0  0  0  0  0  0  0  0
    1.1270   90.0672   15.8362 C   0  0  2  0  0  0  0  0  0  0  0  0
    0.8018   90.1276   14.4387 O   0  0  0  0  0  0  0  0  0  0  0  0
    2.0797   88.9072   16.1372 C   0  0  0  0  0  0  0  0  0  0  0  0
    2.6607   89.0388   17.4817 N   0  0  0  0  0  0  0  0  0  0  0  0
    2.7283   95.2551   12.2190 C   0  0  2  0  0  0  0  0  0  0  0  0
    3.7195   96.0128   11.4404 N   0  0  0  0  0  0  0  0  0  0  0  0
    3.3306   94.7671   13.5381 C   0  0  0  0  0  0  0  0  0  0  0  0
    2.2197   94.1041   14.3588 C   0  0  2  0  0  0  0  0  0  0  0  0
    2.7933   93.5496   15.5934 N   0  0  0  0  0  0  0  0  0  0  0  0
    1.5398   92.9583   13.6036 C   0  0  2  0  0  0  0  0  0  0  0  0
    1.1199   93.2967   12.1776 C   0  0  2  0  0  0  0  0  0  0  0  0
    0.8796   92.0334   11.5367 O   0  0  0  0  0  0  0  0  0  0  0  0
    2.2222   94.0504   11.4218 C   0  0  1  0  0  0  0  0  0  0  0  0
    1.7408   94.5291   10.1631 O   0  0  0  0  0  0  0  0  0  0  0  0
    0.1371   92.0892   10.3079 C   0  0  1  0  0  0  0  0  0  0  0  0
    0.0681   90.6685    9.7453 C   0  0  2  0  0  0  0  0  0  0  0  0
    1.2602   90.3844    9.0092 O   0  0  0  0  0  0  0  0  0  0  0  0
   -1.0964   90.8563    8.7773 C   0  0  1  0  0  0  0  0  0  0  0  0
   -2.0654   91.6272    9.6598 C   0  0  2  0  0  0  0  0  0  0  0  0
   -1.2414   92.4737   10.4875 O   0  0  0  0  0  0  0  0  0  0  0  0
   -2.8821   90.6337   10.4942 C   0  0  0  0  0  0  0  0  0  0  0  0
   -3.6821   89.8042    9.6466 O   0  0  0  0  0  0  0  0  0  0  0  0
   -1.6801   91.6204    6.6386 C   0  0  2  0  0  0  0  0  0  0  0  0
   -0.6826   91.6725    7.6700 O   0  0  0  0  0  0  0  0  0  0  0  0
   -1.0393   91.9576    5.2885 C   0  0  1  0  0  0  0  0  0  0  0  0
   -5.5017   92.9445    7.6863 N   0  0  0  0  0  0  0  0  0  0  0  0
   -2.1051   92.0077    4.1885 C   0  0  1  0  0  0  0  0  0  0  0  0
   -2.6312   90.6988    3.9472 O   0  0  0  0  0  0  0  0  0  0  0  0
   -3.2349   92.9538    4.6039 C   0  0  2  0  0  0  0  0  0  0  0  0
   -2.7107   94.2837    4.6811 O   0  0  0  0  0  0  0  0  0  0  0  0
   -3.7867   92.5265    5.9682 C   0  0  1  0  0  0  0  0  0  0  0  0
   -2.7347   92.5474    6.9508 O   0  0  0  0  0  0  0  0  0  0  0  0
   -4.9362   93.4316    6.4195 C   0  0  0  0  0  0  0  0  0  0  0  0
   -0.4076   93.2823    5.3839 N   0  0  0  0  0  0  0  0  0  0  0  0
  1  2  1  1  0  0  0
  1  3  1  0  0  0  0
  1 10  1  0  0  0  0
  3  4  1  1  0  0  0
  3  5  1  0  0  0  0
  5  6  1  1  0  0  0
  5  7  1  0  0  0  0
  7  8  1  1  0  0  0
  7  9  1  0  0  0  0
  9 10  1  0  0  0  0
  9 11  1  6  0  0  0
 11 12  1  0  0  0  0
 13 14  1  6  0  0  0
 13 15  1  0  0  0  0
 13 21  1  0  0  0  0
 16 15  1  0  0  0  0
 16 17  1  1  0  0  0
 18  2  1  1  0  0  0
 18 16  1  0  0  0  0
 19 18  1  0  0  0  0
 19 20  1  6  0  0  0
 21 19  1  0  0  0  0
 21 22  1  6  0  0  0
 23 20  1  1  0  0  0
 23 24  1  0  0  0  0
 23 28  1  0  0  0  0
 24 25  1  6  0  0  0
 24 26  1  0  0  0  0
 26 27  1  0  0  0  0
 26 32  1  6  0  0  0
 27 28  1  0  0  0  0
 27 29  1  1  0  0  0
 29 30  1  0  0  0  0
 31 32  1  1  0  0  0
 31 40  1  0  0  0  0
 33 31  1  0  0  0  0
 33 42  1  1  0  0  0
 35 33  1  0  0  0  0
 35 36  1  1  0  0  0
 37 35  1  0  0  0  0
 37 38  1  1  0  0  0
 37 39  1  0  0  0  0
 39 40  1  0  0  0  0
 39 41  1  1  0  0  0
 41 34  1  0  0  0  0
M  END
>  <CHROM.1>
-167.99704780,-72.53409262,-163.47320164,164.04561885,176.42662797,168.26644342
-63.39491035,-156.26285723,176.28488044,-0.46340853,92.03026127,11.02104480
1.15452116,0.59320727,1.91965506

>  <Name>
2fcy_lig

>  <RI>
4.13508e+07

>  <Rbt.Current_Directory>
/home/itssahil/PROJECTS/Mol_Feturizer/New_Systems/rnas/2fcy

>  <Rbt.Executable>
rbdock ($Id: //depot/dev/client3/rdock/2013.1/src/exe/rbdock.cxx#4 $)

>  <Rbt.Library>
libRbt.so (2013.1, Build901 2013/11/27)

>  <Rbt.Parameter_File>
/export/apps/rDock/src/rDock_2013.1_src/data/scripts/dock_solv.prm

>  <Rbt.Receptor>
prm/pocket_docking_3.prm

>  <SCORE>
-22.8072

>  <SCORE.INTER>
-17.3761

>  <SCORE.INTER.CONST>
1

>  <SCORE.INTER.POLAR>
-1.6112

>  <SCORE.INTER.ROT>
9

>  <SCORE.INTER.SOLV>
15.65

>  <SCORE.INTER.VDW>
-21.0301

>  <SCORE.INTER.norm>
-0.413717

>  <SCORE.INTRA>
-5.43104

>  <SCORE.INTRA.DIHEDRAL>
-9.87016

>  <SCORE.INTRA.DIHEDRAL.0>
17.3446

>  <SCORE.INTRA.POLAR>
0

>  <SCORE.INTRA.POLAR.0>
0

>  <SCORE.INTRA.REPUL>
0

>  <SCORE.INTRA.REPUL.0>
0

>  <SCORE.INTRA.SOLV>
-3.83658

>  <SCORE.INTRA.SOLV.lig_0>
-112.452

>  <SCORE.INTRA.VDW>
1.42233

>  <SCORE.INTRA.VDW.0>
-5.95059

>  <SCORE.INTRA.norm>
-0.129311

>  <SCORE.RESTR>
0

>  <SCORE.RESTR.CAVITY>
0

>  <SCORE.RESTR.norm>
0

>  <SCORE.SYSTEM>
0

>  <SCORE.SYSTEM.CONST>
0

>  <SCORE.SYSTEM.DIHEDRAL>
0

>  <SCORE.SYSTEM.SOLV>
0

>  <SCORE.SYSTEM.norm>
0

>  <SCORE.heavy>
42

>  <SCORE.norm>
-0.543027

>  <RMSD>
1.350

$$$$
2fcy_lig
 OpenBabel11021811433D
libRbt.so/2013.1/901 2013/11/27
 42 45  0  0  0  0  0  0  0  0999 V2000
    0.4949   90.9655   14.5384 C   0  0  2  0  0  0  0  0  0  0  0  0
    1.0414   92.2068   15.0156 O   0  0  0  0  0  0  0  0  0  0  0  0
   -0.9146   90.8879   15.1270 C   0  0  2  0  0  0  0  0  0  0  0  0
   -1.6481   92.1054   14.7550 N   0  0  0  0  0  0  0  0  0  0  0  0
   -0.8281   90.7921   16.6523 C   0  0  1  0  0  0  0  0  0  0  0  0
   -2.1360   90.7141   17.2261 O   0  0  0  0  0  0  0  0  0  0  0  0
   -0.0003   89.5655   17.0370 C   0  0  2  0  0  0  0  0  0  0  0  0
    0.1602   89.5322   18.4550 O   0  0  0  0  0  0  0  0  0  0  0  0
    1.3866   89.6890   16.4043 C   0  0  2  0  0  0  0  0  0  0  0  0
    1.2547   89.8219   14.9805 O   0  0  0  0  0  0  0  0  0  0  0  0
    2.2220   88.4607   16.7746 C   0  0  0  0  0  0  0  0  0  0  0  0
    3.6522   88.7054   16.5355 N   0  0  0  0  0  0  0  0  0  0  0  0
    3.1295   95.2796   13.0549 C   0  0  2  0  0  0  0  0  0  0  0  0
    4.0482   96.1519   12.3079 N   0  0  0  0  0  0  0  0  0  0  0  0
    3.8516   94.5999   14.2199 C   0  0  0  0  0  0  0  0  0  0  0  0
    2.8187   93.8142   15.0342 C   0  0  2  0  0  0  0  0  0  0  0  0
    3.5035   93.0813   16.1089 N   0  0  0  0  0  0  0  0  0  0  0  0
    2.0580   92.7930   14.1835 C   0  0  2  0  0  0  0  0  0  0  0  0
    1.5056   93.3420   12.8728 C   0  0  2  0  0  0  0  0  0  0  0  0
    1.1923   92.1897   12.0739 O   0  0  0  0  0  0  0  0  0  0  0  0
    2.5371   94.2075   12.1369 C   0  0  1  0  0  0  0  0  0  0  0  0
    1.9411   94.8695   11.0181 O   0  0  0  0  0  0  0  0  0  0  0  0
    0.1361   92.3640   11.1157 C   0  0  1  0  0  0  0  0  0  0  0  0
    0.0499   91.0825   10.2851 C   0  0  2  0  0  0  0  0  0  0  0  0
    1.0122   91.1284    9.2290 O   0  0  0  0  0  0  0  0  0  0  0  0
   -1.3500   91.2711    9.7080 C   0  0  1  0  0  0  0  0  0  0  0  0
   -2.1050   91.7036   10.9550 C   0  0  2  0  0  0  0  0  0  0  0  0
   -1.1686   92.4929   11.7170 O   0  0  0  0  0  0  0  0  0  0  0  0
   -2.5589   90.4571   11.7234 C   0  0  0  0  0  0  0  0  0  0  0  0
   -3.4169   90.8208   12.8088 O   0  0  0  0  0  0  0  0  0  0  0  0
   -2.4919   92.2228    7.8944 C   0  0  2  0  0  0  0  0  0  0  0  0
   -1.3401   92.3361    8.7441 O   0  0  0  0  0  0  0  0  0  0  0  0
   -2.1602   91.3243    6.6986 C   0  0  1  0  0  0  0  0  0  0  0  0
   -4.9496   95.6114    7.5154 N   0  0  0  0  0  0  0  0  0  0  0  0
   -3.3429   91.2712    5.7256 C   0  0  1  0  0  0  0  0  0  0  0  0
   -4.4441   90.5770    6.3202 O   0  0  0  0  0  0  0  0  0  0  0  0
   -3.7676   92.6929    5.3474 C   0  0  2  0  0  0  0  0  0  0  0  0
   -2.7029   93.3065    4.6130 O   0  0  0  0  0  0  0  0  0  0  0  0
   -4.0602   93.4965    6.6190 C   0  0  1  0  0  0  0  0  0  0  0  0
   -2.8890   93.5338    7.4556 O   0  0  0  0  0  0  0  0  0  0  0  0
   -4.5102   94.9231    6.2927 C   0  0  0  0  0  0  0  0  0  0  0  0
   -1.0015   91.8897    5.9909 N   0  0  0  0  0  0  0  0  0  0  0  0
  1  2  1  1  0  0  0
  1  3  1  0  0  0  0
  1 10  1  0  0  0  0
  3  4  1  1  0  0  0
  3  5  1  0  0  0  0
  5  6  1  1  0  0  0
  5  7  1  0  0  0  0
  7  8  1  1  0  0  0
  7  9  1  0  0  0  0
  9 10  1  0  0  0  0
  9 11  1  6  0  0  0
 11 12  1  0  0  0  0
 13 14  1  6  0  0  0
 13 15  1  0  0  0  0
 13 21  1  0  0  0  0
 16 15  1  0  0  0  0
 16 17  1  1  0  0  0
 18  2  1  1  0  0  0
 18 16  1  0  0  0  0
 19 18  1  0  0  0  0
 19 20  1  6  0  0  0
 21 19  1  0  0  0  0
 21 22  1  6  0  0  0
 23 20  1  1  0  0  0
 23 24  1  0  0  0  0
 23 28  1  0  0  0  0
 24 25  1  6  0  0  0
 24 26  1  0  0  0  0
 26 27  1  0  0  0  0
 26 32  1  6  0  0  0
 27 28  1  0  0  0  0
 27 29  1  1  0  0  0
 29 30  1  0  0  0  0
 31 32  1  1  0  0  0
 31 40  1  0  0  0  0
 33 31  1  0  0  0  0
 33 42  1  6  0  0  0
 35 33  1  0  0  0  0
 35 36  1  1  0  0  0
 37 35  1  0  0  0  0
 37 38  1  1  0  0  0
 37 39  1  0  0  0  0
 39 40  1  0  0  0  0
 39 41  1  6  0  0  0
 41 34  1  0  0  0  0
M  END
>  <CHROM.1>
-153.64395832,-163.36258757,-162.07488417,152.09616852,174.65825487,160.68771783
-172.61805744,-88.65272827,172.65740044,-0.39847706,92.09116247,11.73742037
1.01455507,0.60110021,2.08064480

>  <Name>
2fcy_lig

>  <RI>
0

>  <Rbt.Current_Directory>
/home/itssahil/PROJECTS/Mol_Feturizer/New_Systems/rnas/2fcy

>  <Rbt.Executable>
rbdock ($Id: //depot/dev/client3/rdock/2013.1/src/exe/rbdock.cxx#4 $)

>  <Rbt.Library>
libRbt.so (2013.1, Build901 2013/11/27)

>  <Rbt.Parameter_File>
/export/apps/rDock/src/rDock_2013.1_src/data/scripts/dock_solv.prm

>  <Rbt.Receptor>
prm/pocket_docking_2.prm

>  <SCORE>
-17.2321

>  <SCORE.INTER>
-15.2382

>  <SCORE.INTER.CONST>
1

>  <SCORE.INTER.POLAR>
-1.37051

>  <SCORE.INTER.ROT>
9

>  <SCORE.INTER.SOLV>
17.7734

>  <SCORE.INTER.VDW>
-21.1149

>  <SCORE.INTER.norm>
-0.362813

>  <SCORE.INTRA>
-2.03694

>  <SCORE.INTRA.DIHEDRAL>
-2.83245

>  <SCORE.INTRA.DIHEDRAL.0>
17.3446

>  <SCORE.INTRA.POLAR>
0

>  <SCORE.INTRA.POLAR.0>
0

>  <SCORE.INTRA.REPUL>
0

>  <SCORE.INTRA.REPUL.0>
0

>  <SCORE.INTRA.SOLV>
-2.17501

>  <SCORE.INTRA.SOLV.lig_0>
-112.452

>  <SCORE.INTRA.VDW>
0.466787

>  <SCORE.INTRA.VDW.0>
-5.95059

>  <SCORE.INTRA.norm>
-0.0484986

>  <SCORE.RESTR>
0.0429722

>  <SCORE.RESTR.CAVITY>
0.0429722

>  <SCORE.RESTR.norm>
0.00102315

>  <SCORE.SYSTEM>
0

>  <SCORE.SYSTEM.CONST>
0

>  <SCORE.SYSTEM.DIHEDRAL>
0

>  <SCORE.SYSTEM.SOLV>
0

>  <SCORE.SYSTEM.norm>
0

>  <SCORE.heavy>
42

>  <SCORE.norm>
-0.410289

>  <RMSD>
1.356

$$$$
2fcy_lig
 OpenBabel11021811433D
libRbt.so/2013.1/901 2013/11/27
 42 45  0  0  0  0  0  0  0  0999 V2000
    0.1576   91.0811   14.3360 C   0  0  2  0  0  0  0  0  0  0  0  0
    0.6471   92.3700   14.7438 O   0  0  0  0  0  0  0  0  0  0  0  0
   -1.2412   90.9658   14.9435 C   0  0  2  0  0  0  0  0  0  0  0  0
   -2.0364   92.1260   14.5189 N   0  0  0  0  0  0  0  0  0  0  0  0
   -1.1368   90.9521   16.4707 C   0  0  1  0  0  0  0  0  0  0  0  0
   -2.4342   90.8404   17.0623 O   0  0  0  0  0  0  0  0  0  0  0  0
   -0.2469   89.7879   16.9074 C   0  0  2  0  0  0  0  0  0  0  0  0
   -0.0726   89.8347   18.3234 O   0  0  0  0  0  0  0  0  0  0  0  0
    1.1268   89.9459   16.2539 C   0  0  2  0  0  0  0  0  0  0  0  0
    0.9760   89.9995   14.8267 O   0  0  0  0  0  0  0  0  0  0  0  0
    2.0242   88.7797   16.6762 C   0  0  0  0  0  0  0  0  0  0  0  0
    3.4439   89.1120   16.4846 N   0  0  0  0  0  0  0  0  0  0  0  0
    2.7959   95.3722   12.7398 C   0  0  2  0  0  0  0  0  0  0  0  0
    3.7355   96.2169   11.9871 N   0  0  0  0  0  0  0  0  0  0  0  0
    3.4900   94.7205   13.9374 C   0  0  0  0  0  0  0  0  0  0  0  0
    2.4357   93.9651   14.7527 C   0  0  2  0  0  0  0  0  0  0  0  0
    3.0939   93.2579   15.8607 N   0  0  0  0  0  0  0  0  0  0  0  0
    1.6841   92.9257   13.9159 C   0  0  2  0  0  0  0  0  0  0  0  0
    1.1615   93.4416   12.5798 C   0  0  2  0  0  0  0  0  0  0  0  0
    0.8553   92.2695   11.8074 O   0  0  0  0  0  0  0  0  0  0  0  0
    2.2136   94.2790   11.8405 C   0  0  1  0  0  0  0  0  0  0  0  0
    1.6445   94.9135   10.6922 O   0  0  0  0  0  0  0  0  0  0  0  0
   -0.0258   92.4716   10.6907 C   0  0  1  0  0  0  0  0  0  0  0  0
   -0.2122   91.1201    9.9990 C   0  0  2  0  0  0  0  0  0  0  0  0
    0.8727   90.8876    9.0976 O   0  0  0  0  0  0  0  0  0  0  0  0
   -1.4763   91.4358    9.2048 C   0  0  1  0  0  0  0  0  0  0  0  0
   -2.3050   92.1317   10.2730 C   0  0  2  0  0  0  0  0  0  0  0  0
   -1.3584   92.8670   11.0756 O   0  0  0  0  0  0  0  0  0  0  0  0
   -3.0515   91.0751   11.0955 C   0  0  0  0  0  0  0  0  0  0  0  0
   -2.1330   90.3058   11.8772 O   0  0  0  0  0  0  0  0  0  0  0  0
   -2.2638   92.3983    7.2168 C   0  0  2  0  0  0  0  0  0  0  0  0
   -1.1685   92.3544    8.1441 O   0  0  0  0  0  0  0  0  0  0  0  0
   -1.7928   91.9078    5.8439 C   0  0  1  0  0  0  0  0  0  0  0  0
   -5.1146   95.5113    7.5892 N   0  0  0  0  0  0  0  0  0  0  0  0
   -2.9187   92.0420    4.8131 C   0  0  1  0  0  0  0  0  0  0  0  0
   -3.9749   91.1226    5.1090 O   0  0  0  0  0  0  0  0  0  0  0  0
   -3.4595   93.4745    4.8194 C   0  0  2  0  0  0  0  0  0  0  0  0
   -2.4256   94.3540    4.3644 O   0  0  0  0  0  0  0  0  0  0  0  0
   -3.8860   93.8559    6.2410 C   0  0  1  0  0  0  0  0  0  0  0  0
   -2.7637   93.7445    7.1359 O   0  0  0  0  0  0  0  0  0  0  0  0
   -4.4548   95.2763    6.2964 C   0  0  0  0  0  0  0  0  0  0  0  0
   -0.6620   92.7409    5.4078 N   0  0  0  0  0  0  0  0  0  0  0  0
  1  2  1  1  0  0  0
  1  3  1  0  0  0  0
  1 10  1  0  0  0  0
  3  4  1  1  0  0  0
  3  5  1  0  0  0  0
  5  6  1  1  0  0  0
  5  7  1  0  0  0  0
  7  8  1  1  0  0  0
  7  9  1  0  0  0  0
  9 10  1  0  0  0  0
  9 11  1  6  0  0  0
 11 12  1  0  0  0  0
 13 14  1  6  0  0  0
 13 15  1  0  0  0  0
 13 21  1  0  0  0  0
 16 15  1  0  0  0  0
 16 17  1  1  0  0  0
 18  2  1  1  0  0  0
 18 16  1  0  0  0  0
 19 18  1  0  0  0  0
 19 20  1  6  0  0  0
 21 19  1  0  0  0  0
 21 22  1  6  0  0  0
 23 20  1  1  0  0  0
 23 24  1  0  0  0  0
 23 28  1  0  0  0  0
 24 25  1  6  0  0  0
 24 26  1  0  0  0  0
 26 27  1  0  0  0  0
 26 32  1  6  0  0  0
 27 28  1  0  0  0  0
 27 29  1  1  0  0  0
 29 30  1  0  0  0  0
 31 32  1  1  0  0  0
 31 40  1  0  0  0  0
 33 31  1  0  0  0  0
 33 42  1  6  0  0  0
 35 33  1  0  0  0  0
 35 36  1  1  0  0  0
 37 35  1  0  0  0  0
 37 38  1  1  0  0  0
 37 39  1  0  0  0  0
 39 40  1  0  0  0  0
 39 41  1  6  0  0  0
 41 34  1  0  0  0  0
M  END
>  <CHROM.1>
-157.20380844,-159.94064582,-158.44978198,161.39050291,179.44465631,166.21937036
68.31975273,-117.58143423,167.89154630,-0.49889009,92.32519530,11.37159354
1.10742437,0.60585227,2.04903777

>  <Name>
2fcy_lig

>  <RI>
0

>  <Rbt.Current_Directory>
/home/itssahil/PROJECTS/Mol_Feturizer/New_Systems/rnas/2fcy

>  <Rbt.Executable>
rbdock ($Id: //depot/dev/client3/rdock/2013.1/src/exe/rbdock.cxx#4 $)

>  <Rbt.Library>
libRbt.so (2013.1, Build901 2013/11/27)

>  <Rbt.Parameter_File>
/export/apps/rDock/src/rDock_2013.1_src/data/scripts/dock_solv.prm

>  <Rbt.Receptor>
prm/pocket_docking_2.prm

>  <SCORE>
-17.5959

>  <SCORE.INTER>
-16.9331

>  <SCORE.INTER.CONST>
1

>  <SCORE.INTER.POLAR>
-1.63897

>  <SCORE.INTER.ROT>
9

>  <SCORE.INTER.SOLV>
16.7414

>  <SCORE.INTER.VDW>
-21.006

>  <SCORE.INTER.norm>
-0.403169

>  <SCORE.INTRA>
-0.968892

>  <SCORE.INTRA.DIHEDRAL>
-0.821386

>  <SCORE.INTRA.DIHEDRAL.0>
17.3446

>  <SCORE.INTRA.POLAR>
0

>  <SCORE.INTRA.POLAR.0>
0

>  <SCORE.INTRA.REPUL>
0

>  <SCORE.INTRA.REPUL.0>
0

>  <SCORE.INTRA.SOLV>
-2.54967

>  <SCORE.INTRA.SOLV.lig_0>
-112.452

>  <SCORE.INTRA.VDW>
0.716639

>  <SCORE.INTRA.VDW.0>
-5.95059

>  <SCORE.INTRA.norm>
-0.0230689

>  <SCORE.RESTR>
0.306112

>  <SCORE.RESTR.CAVITY>
0.306112

>  <SCORE.RESTR.norm>
0.00728839

>  <SCORE.SYSTEM>
0

>  <SCORE.SYSTEM.CONST>
0

>  <SCORE.SYSTEM.DIHEDRAL>
0

>  <SCORE.SYSTEM.SOLV>
0

>  <SCORE.SYSTEM.norm>
0

>  <SCORE.heavy>
42

>  <SCORE.norm>
-0.418949

>  <RMSD>
1.366

$$$$
2fcy_lig
 OpenBabel11021811433D
libRbt.so/2013.1/901 2013/11/27
 42 45  0  0  0  0  0  0  0  0999 V2000
    0.5008   91.0661   14.4526 C   0  0  2  0  0  0  0  0  0  0  0  0
    1.0281   92.3126   14.9380 O   0  0  0  0  0  0  0  0  0  0  0  0
   -0.9166   90.9751   15.0197 C   0  0  2  0  0  0  0  0  0  0  0  0
   -1.6560   92.1855   14.6366 N   0  0  0  0  0  0  0  0  0  0  0  0
   -0.8525   90.8799   16.5461 C   0  0  1  0  0  0  0  0  0  0  0  0
   -2.1680   90.7893   17.1000 O   0  0  0  0  0  0  0  0  0  0  0  0
   -0.0189   89.6612   16.9434 C   0  0  2  0  0  0  0  0  0  0  0  0
    0.1203   89.6293   18.3637 O   0  0  0  0  0  0  0  0  0  0  0  0
    1.3763   89.7981   16.3319 C   0  0  2  0  0  0  0  0  0  0  0  0
    1.2647   89.9298   14.9062 O   0  0  0  0  0  0  0  0  0  0  0  0
    2.2176   88.5777   16.7148 C   0  0  0  0  0  0  0  0  0  0  0  0
    3.6490   88.8366   16.4987 N   0  0  0  0  0  0  0  0  0  0  0  0
    3.3122   95.2892   13.0488 C   0  0  2  0  0  0  0  0  0  0  0  0
    4.3023   96.1244   12.3523 N   0  0  0  0  0  0  0  0  0  0  0  0
    3.9211   94.6537   14.3003 C   0  0  0  0  0  0  0  0  0  0  0  0
    2.8123   93.9085   15.0502 C   0  0  2  0  0  0  0  0  0  0  0  0
    3.3915   93.2165   16.2106 N   0  0  0  0  0  0  0  0  0  0  0  0
    2.1204   92.8578   14.1769 C   0  0  2  0  0  0  0  0  0  0  0  0
    1.6923   93.3557   12.8010 C   0  0  2  0  0  0  0  0  0  0  0  0
    1.4402   92.1734   12.0247 O   0  0  0  0  0  0  0  0  0  0  0  0
    2.7936   94.1838   12.1258 C   0  0  1  0  0  0  0  0  0  0  0  0
    2.3060   94.8028   10.9323 O   0  0  0  0  0  0  0  0  0  0  0  0
    0.3748   92.2727   11.0658 C   0  0  1  0  0  0  0  0  0  0  0  0
    0.2683   90.9239   10.3525 C   0  0  2  0  0  0  0  0  0  0  0  0
    1.2190   90.8673    9.2864 O   0  0  0  0  0  0  0  0  0  0  0  0
   -1.1364   91.0743    9.7756 C   0  0  1  0  0  0  0  0  0  0  0  0
   -1.8736   91.6221   10.9874 C   0  0  2  0  0  0  0  0  0  0  0  0
   -0.9219   92.4665   11.6670 O   0  0  0  0  0  0  0  0  0  0  0  0
   -2.3296   90.4526   11.8674 C   0  0  0  0  0  0  0  0  0  0  0  0
   -3.2022   89.5851   11.1377 O   0  0  0  0  0  0  0  0  0  0  0  0
   -2.4377   92.1362    8.1393 C   0  0  2  0  0  0  0  0  0  0  0  0
   -1.1281   92.0501    8.7214 O   0  0  0  0  0  0  0  0  0  0  0  0
   -2.4373   91.4449    6.7722 C   0  0  1  0  0  0  0  0  0  0  0  0
   -3.4545   95.9751    6.8789 N   0  0  0  0  0  0  0  0  0  0  0  0
   -3.7981   91.6130    6.0877 C   0  0  1  0  0  0  0  0  0  0  0  0
   -4.8023   90.8752    6.7916 O   0  0  0  0  0  0  0  0  0  0  0  0
   -4.1770   93.0959    6.0442 C   0  0  2  0  0  0  0  0  0  0  0  0
   -3.2442   93.7802    5.2009 O   0  0  0  0  0  0  0  0  0  0  0  0
   -4.1310   93.6791    7.4605 C   0  0  1  0  0  0  0  0  0  0  0  0
   -2.8114   93.5195    8.0137 O   0  0  0  0  0  0  0  0  0  0  0  0
   -4.5234   95.1590    7.4733 C   0  0  0  0  0  0  0  0  0  0  0  0
   -1.4111   92.0729    5.9262 N   0  0  0  0  0  0  0  0  0  0  0  0
  1  2  1  1  0  0  0
  1  3  1  0  0  0  0
  1 10  1  0  0  0  0
  3  4  1  1  0  0  0
  3  5  1  0  0  0  0
  5  6  1  6  0  0  0
  5  7  1  0  0  0  0
  7  8  1  1  0  0  0
  7  9  1  0  0  0  0
  9 10  1  0  0  0  0
  9 11  1  6  0  0  0
 11 12  1  0  0  0  0
 13 14  1  6  0  0  0
 13 15  1  0  0  0  0
 13 21  1  0  0  0  0
 16 15  1  0  0  0  0
 16 17  1  1  0  0  0
 18  2  1  1  0  0  0
 18 16  1  0  0  0  0
 19 18  1  0  0  0  0
 19 20  1  6  0  0  0
 21 19  1  0  0  0  0
 21 22  1  6  0  0  0
 23 20  1  1  0  0  0
 23 24  1  0  0  0  0
 23 28  1  0  0  0  0
 24 25  1  6  0  0  0
 24 26  1  0  0  0  0
 26 27  1  0  0  0  0
 26 32  1  6  0  0  0
 27 28  1  0  0  0  0
 27 29  1  1  0  0  0
 29 30  1  0  0  0  0
 31 32  1  6  0  0  0
 31 40  1  0  0  0  0
 33 31  1  0  0  0  0
 33 42  1  6  0  0  0
 35 33  1  0  0  0  0
 35 36  1  1  0  0  0
 37 35  1  0  0  0  0
 37 38  1  6  0  0  0
 37 39  1  0  0  0  0
 39 40  1  0  0  0  0
 39 41  1  6  0  0  0
 41 34  1  0  0  0  0
M  END
>  <CHROM.1>
-158.14186850,-163.30833708,-162.98432664,145.66549144,-179.95601023,177.10678449
-59.88041358,-105.46425359,-72.08977099,-0.33899585,92.12433324,11.77616046
0.96207340,0.61764235,2.13133093

>  <Name>
2fcy_lig

>  <RI>
0

>  <Rbt.Current_Directory>
/home/itssahil/PROJECTS/Mol_Feturizer/New_Systems/rnas/2fcy

>  <Rbt.Executable>
rbdock ($Id: //depot/dev/client3/rdock/2013.1/src/exe/rbdock.cxx#4 $)

>  <Rbt.Library>
libRbt.so (2013.1, Build901 2013/11/27)

>  <Rbt.Parameter_File>
/export/apps/rDock/src/rDock_2013.1_src/data/scripts/dock_solv.prm

>  <Rbt.Receptor>
prm/pocket_docking_2.prm

>  <SCORE>
-16.9504

>  <SCORE.INTER>
-16.4221

>  <SCORE.INTER.CONST>
1

>  <SCORE.INTER.POLAR>
-1.51622

>  <SCORE.INTER.ROT>
9

>  <SCORE.INTER.SOLV>
19.4673

>  <SCORE.INTER.VDW>
-21.9831

>  <SCORE.INTER.norm>
-0.391001

>  <SCORE.INTRA>
-0.604888

>  <SCORE.INTRA.DIHEDRAL>
-1.19247

>  <SCORE.INTRA.DIHEDRAL.0>
17.3446

>  <SCORE.INTRA.POLAR>
0

>  <SCORE.INTRA.POLAR.0>
0

>  <SCORE.INTRA.REPUL>
0

>  <SCORE.INTRA.REPUL.0>
0

>  <SCORE.INTRA.SOLV>
-1.41095

>  <SCORE.INTRA.SOLV.lig_0>
-112.452

>  <SCORE.INTRA.VDW>
0.696821

>  <SCORE.INTRA.VDW.0>
-5.95059

>  <SCORE.INTRA.norm>
-0.0144021

>  <SCORE.RESTR>
0.0765848

>  <SCORE.RESTR.CAVITY>
0.0765848

>  <SCORE.RESTR.norm>
0.00182345

>  <SCORE.SYSTEM>
0

>  <SCORE.SYSTEM.CONST>
0

>  <SCORE.SYSTEM.DIHEDRAL>
0

>  <SCORE.SYSTEM.SOLV>
0

>  <SCORE.SYSTEM.norm>
0

>  <SCORE.heavy>
42

>  <SCORE.norm>
-0.40358

>  <RMSD>
1.415

$$$$
2fcy_lig
 OpenBabel11021811433D
libRbt.so/2013.1/901 2013/11/27
 42 45  0  0  0  0  0  0  0  0999 V2000
    0.5060   91.1581   14.4749 C   0  0  2  0  0  0  0  0  0  0  0  0
    1.0969   92.3655   14.9851 O   0  0  0  0  0  0  0  0  0  0  0  0
   -0.8179   91.0041   15.2249 C   0  0  2  0  0  0  0  0  0  0  0  0
   -1.6030   92.2340   15.0523 N   0  0  0  0  0  0  0  0  0  0  0  0
   -0.5404   90.7825   16.7139 C   0  0  1  0  0  0  0  0  0  0  0  0
   -1.7654   90.6312   17.4366 O   0  0  0  0  0  0  0  0  0  0  0  0
    0.3399   89.5443   16.8865 C   0  0  2  0  0  0  0  0  0  0  0  0
    0.6769   89.3954   18.2656 O   0  0  0  0  0  0  0  0  0  0  0  0
    1.6356   89.7474   16.0998 C   0  0  2  0  0  0  0  0  0  0  0  0
    1.3252   89.9965   14.7199 O   0  0  0  0  0  0  0  0  0  0  0  0
    2.5216   88.5088   16.2571 C   0  0  0  0  0  0  0  0  0  0  0  0
    3.1514   88.4776   17.5856 N   0  0  0  0  0  0  0  0  0  0  0  0
    3.3748   95.3341   13.0759 C   0  0  2  0  0  0  0  0  0  0  0  0
    4.3574   96.1637   12.3624 N   0  0  0  0  0  0  0  0  0  0  0  0
    4.0116   94.6645   14.2953 C   0  0  0  0  0  0  0  0  0  0  0  0
    2.9137   93.9261   15.0676 C   0  0  2  0  0  0  0  0  0  0  0  0
    3.5169   93.2022   16.1959 N   0  0  0  0  0  0  0  0  0  0  0  0
    2.1742   92.9046   14.1987 C   0  0  2  0  0  0  0  0  0  0  0  0
    1.7113   93.4356   12.8466 C   0  0  2  0  0  0  0  0  0  0  0  0
    1.4119   92.2726   12.0579 O   0  0  0  0  0  0  0  0  0  0  0  0
    2.8057   94.2557   12.1507 C   0  0  1  0  0  0  0  0  0  0  0  0
    2.2916   94.9055   10.9850 O   0  0  0  0  0  0  0  0  0  0  0  0
    0.3871   92.4399   11.0649 C   0  0  1  0  0  0  0  0  0  0  0  0
    0.1755   91.0852   10.3869 C   0  0  2  0  0  0  0  0  0  0  0  0
    1.1459   90.9086    9.3521 O   0  0  0  0  0  0  0  0  0  0  0  0
   -1.1927   91.3463    9.7638 C   0  0  1  0  0  0  0  0  0  0  0  0
   -1.9090   91.9967   10.9368 C   0  0  2  0  0  0  0  0  0  0  0  0
   -0.9020   92.7706   11.6209 O   0  0  0  0  0  0  0  0  0  0  0  0
   -2.4955   90.9018   11.8353 C   0  0  0  0  0  0  0  0  0  0  0  0
   -3.5505   90.2101   11.1607 O   0  0  0  0  0  0  0  0  0  0  0  0
   -2.3094   92.3668    7.9721 C   0  0  2  0  0  0  0  0  0  0  0  0
   -1.0649   92.2842    8.6833 O   0  0  0  0  0  0  0  0  0  0  0  0
   -2.2294   91.5178    6.6992 C   0  0  1  0  0  0  0  0  0  0  0  0
   -5.4735   95.5697    6.1837 N   0  0  0  0  0  0  0  0  0  0  0  0
   -3.5105   91.6721    5.8725 C   0  0  1  0  0  0  0  0  0  0  0  0
   -4.6174   91.0758    6.5563 O   0  0  0  0  0  0  0  0  0  0  0  0
   -3.7916   93.1565    5.6237 C   0  0  2  0  0  0  0  0  0  0  0  0
   -2.7466   93.6867    4.8013 O   0  0  0  0  0  0  0  0  0  0  0  0
   -3.8365   93.9017    6.9619 C   0  0  1  0  0  0  0  0  0  0  0  0
   -2.5840   93.7424    7.6539 O   0  0  0  0  0  0  0  0  0  0  0  0
   -4.1361   95.3906    6.7677 C   0  0  0  0  0  0  0  0  0  0  0  0
   -1.0948   91.9872    5.8896 N   0  0  0  0  0  0  0  0  0  0  0  0
  1  2  1  1  0  0  0
  1  3  1  0  0  0  0
  1 10  1  0  0  0  0
  3  4  1  1  0  0  0
  3  5  1  0  0  0  0
  5  6  1  1  0  0  0
  5  7  1  0  0  0  0
  7  8  1  1  0  0  0
  7  9  1  0  0  0  0
  9 10  1  0  0  0  0
  9 11  1  6  0  0  0
 11 12  1  0  0  0  0
 13 14  1  6  0  0  0
 13 15  1  0  0  0  0
 13 21  1  0  0  0  0
 16 15  1  0  0  0  0
 16 17  1  1  0  0  0
 18  2  1  1  0  0  0
 18 16  1  0  0  0  0
 19 18  1  0  0  0  0
 19 20  1  6  0  0  0
 21 19  1  0  0  0  0
 21 22  1  6  0  0  0
 23 20  1  1  0  0  0
 23 24  1  0  0  0  0
 23 28  1  0  0  0  0
 24 25  1  6  0  0  0
 24 26  1  0  0  0  0
 26 27  1  0  0  0  0
 26 32  1  6  0  0  0
 27 28  1  0  0  0  0
 27 29  1  1  0  0  0
 29 30  1  0  0  0  0
 31 32  1  6  0  0  0
 31 40  1  0  0  0  0
 33 31  1  0  0  0  0
 33 42  1  6  0  0  0
 35 33  1  0  0  0  0
 35 36  1  1  0  0  0
 37 35  1  0  0  0  0
 37 38  1  6  0  0  0
 37 39  1  0  0  0  0
 39 40  1  0  0  0  0
 39 41  1  6  0  0  0
 41 34  1  0  0  0  0
M  END
>  <CHROM.1>
-164.66779072,-75.35646491,-164.64270678,150.26734688,-177.41263905,171.10845153
-67.54412616,-100.13413933,63.53749915,-0.27450961,92.19806831,11.71891254
0.98181505,0.61367628,2.13443001

>  <Name>
2fcy_lig

>  <RI>
0

>  <Rbt.Current_Directory>
/home/itssahil/PROJECTS/Mol_Feturizer/New_Systems/rnas/2fcy

>  <Rbt.Executable>
rbdock ($Id: //depot/dev/client3/rdock/2013.1/src/exe/rbdock.cxx#4 $)

>  <Rbt.Library>
libRbt.so (2013.1, Build901 2013/11/27)

>  <Rbt.Parameter_File>
/export/apps/rDock/src/rDock_2013.1_src/data/scripts/dock_solv.prm

>  <Rbt.Receptor>
prm/pocket_docking_2.prm

>  <SCORE>
-19.4012

>  <SCORE.INTER>
-16.9835

>  <SCORE.INTER.CONST>
1

>  <SCORE.INTER.POLAR>
-1.62642

>  <SCORE.INTER.ROT>
9

>  <SCORE.INTER.SOLV>
16.9407

>  <SCORE.INTER.VDW>
-21.1478

>  <SCORE.INTER.norm>
-0.404369

>  <SCORE.INTRA>
-2.43797

>  <SCORE.INTRA.DIHEDRAL>
-4.14039

>  <SCORE.INTRA.DIHEDRAL.0>
17.3446

>  <SCORE.INTRA.POLAR>
0

>  <SCORE.INTRA.POLAR.0>
0

>  <SCORE.INTRA.REPUL>
0

>  <SCORE.INTRA.REPUL.0>
0

>  <SCORE.INTRA.SOLV>
-2.81831

>  <SCORE.INTRA.SOLV.lig_0>
-112.452

>  <SCORE.INTRA.VDW>
1.04138

>  <SCORE.INTRA.VDW.0>
-5.95059

>  <SCORE.INTRA.norm>
-0.0580468

>  <SCORE.RESTR>
0.0202261

>  <SCORE.RESTR.CAVITY>
0.0202261

>  <SCORE.RESTR.norm>
0.000481573

>  <SCORE.SYSTEM>
0

>  <SCORE.SYSTEM.CONST>
0

>  <SCORE.SYSTEM.DIHEDRAL>
0

>  <SCORE.SYSTEM.SOLV>
0

>  <SCORE.SYSTEM.norm>
0

>  <SCORE.heavy>
42

>  <SCORE.norm>
-0.461934

>  <RMSD>
1.439

$$$$
2fcy_lig
 OpenBabel11021811433D
libRbt.so/2013.1/901 2013/11/27
 42 45  0  0  0  0  0  0  0  0999 V2000
   -0.1734   90.9771   14.1105 C   0  0  2  0  0  0  0  0  0  0  0  0
    0.3786   92.2892   14.3126 O   0  0  0  0  0  0  0  0  0  0  0  0
   -1.5183   90.9844   14.8387 C   0  0  2  0  0  0  0  0  0  0  0  0
   -2.3193   92.1096   14.3375 N   0  0  0  0  0  0  0  0  0  0  0  0
   -1.2859   91.1551   16.3420 C   0  0  1  0  0  0  0  0  0  0  0  0
   -2.5310   91.1607   17.0458 O   0  0  0  0  0  0  0  0  0  0  0  0
   -0.3896   90.0244   16.8480 C   0  0  2  0  0  0  0  0  0  0  0  0
   -0.0955   90.2391   18.2282 O   0  0  0  0  0  0  0  0  0  0  0  0
    0.9274   90.0545   16.0709 C   0  0  2  0  0  0  0  0  0  0  0  0
    0.6581   89.9372   14.6652 O   0  0  0  0  0  0  0  0  0  0  0  0
    1.8299   88.9197   16.5623 C   0  0  0  0  0  0  0  0  0  0  0  0
    3.2357   89.1781   16.2167 N   0  0  0  0  0  0  0  0  0  0  0  0
    2.6573   94.7847   11.8172 C   0  0  2  0  0  0  0  0  0  0  0  0
    3.6396   95.4433   10.9430 N   0  0  0  0  0  0  0  0  0  0  0  0
    3.2964   94.3840   13.1483 C   0  0  0  0  0  0  0  0  0  0  0  0
    2.1992   93.8272   14.0611 C   0  0  2  0  0  0  0  0  0  0  0  0
    2.8043   93.3544   15.3146 N   0  0  0  0  0  0  0  0  0  0  0  0
    1.4546   92.6482   13.4278 C   0  0  2  0  0  0  0  0  0  0  0  0
    0.9888   92.8851   11.9956 C   0  0  2  0  0  0  0  0  0  0  0  0
    0.6843   91.5834   11.4693 O   0  0  0  0  0  0  0  0  0  0  0  0
    2.0828   93.5378   11.1403 C   0  0  1  0  0  0  0  0  0  0  0  0
    1.5666   93.9300    9.8656 O   0  0  0  0  0  0  0  0  0  0  0  0
   -0.0393   91.5666   10.2281 C   0  0  1  0  0  0  0  0  0  0  0  0
    0.0895   90.1616    9.6375 C   0  0  2  0  0  0  0  0  0  0  0  0
    1.3204   90.0532    8.9185 O   0  0  0  0  0  0  0  0  0  0  0  0
   -1.0739   90.2143    8.6516 C   0  0  1  0  0  0  0  0  0  0  0  0
   -2.1505   90.8315    9.5303 C   0  0  2  0  0  0  0  0  0  0  0  0
   -1.4593   91.7617   10.3891 O   0  0  0  0  0  0  0  0  0  0  0  0
   -2.8416   89.7213   10.3304 C   0  0  0  0  0  0  0  0  0  0  0  0
   -1.9178   89.0996   11.2284 O   0  0  0  0  0  0  0  0  0  0  0  0
   -1.6852   90.8987    6.4937 C   0  0  2  0  0  0  0  0  0  0  0  0
   -0.7543   91.1014    7.5679 O   0  0  0  0  0  0  0  0  0  0  0  0
   -1.2293   91.6911    5.2643 C   0  0  1  0  0  0  0  0  0  0  0  0
   -5.7492   90.5044    7.5022 N   0  0  0  0  0  0  0  0  0  0  0  0
   -2.2616   91.5711    4.1380 C   0  0  1  0  0  0  0  0  0  0  0  0
   -2.2913   90.2325    3.6325 O   0  0  0  0  0  0  0  0  0  0  0  0
   -3.6471   91.9603    4.6608 C   0  0  2  0  0  0  0  0  0  0  0  0
   -3.6294   93.3488    5.0090 O   0  0  0  0  0  0  0  0  0  0  0  0
   -3.9874   91.1140    5.8922 C   0  0  1  0  0  0  0  0  0  0  0  0
   -2.9953   91.3166    6.9156 O   0  0  0  0  0  0  0  0  0  0  0  0
   -5.3760   91.4519    6.4416 C   0  0  0  0  0  0  0  0  0  0  0  0
   -1.1091   93.1092    5.6350 N   0  0  0  0  0  0  0  0  0  0  0  0
  1  2  1  1  0  0  0
  1  3  1  0  0  0  0
  1 10  1  0  0  0  0
  3  4  1  6  0  0  0
  3  5  1  0  0  0  0
  5  6  1  1  0  0  0
  5  7  1  0  0  0  0
  7  8  1  1  0  0  0
  7  9  1  0  0  0  0
  9 10  1  0  0  0  0
  9 11  1  1  0  0  0
 11 12  1  0  0  0  0
 13 14  1  6  0  0  0
 13 15  1  0  0  0  0
 13 21  1  0  0  0  0
 16 15  1  0  0  0  0
 16 17  1  1  0  0  0
 18  2  1  1  0  0  0
 18 16  1  0  0  0  0
 19 18  1  0  0  0  0
 19 20  1  6  0  0  0
 21 19  1  0  0  0  0
 21 22  1  6  0  0  0
 23 20  1  1  0  0  0
 23 24  1  0  0  0  0
 23 28  1  0  0  0  0
 24 25  1  6  0  0  0
 24 26  1  0  0  0  0
 26 27  1  0  0  0  0
 26 32  1  6  0  0  0
 27 28  1  0  0  0  0
 27 29  1  1  0  0  0
 29 30  1  0  0  0  0
 31 32  1  1  0  0  0
 31 40  1  0  0  0  0
 33 31  1  0  0  0  0
 33 42  1  1  0  0  0
 35 33  1  0  0  0  0
 35 36  1  1  0  0  0
 37 35  1  0  0  0  0
 37 38  1  1  0  0  0
 37 39  1  0  0  0  0
 39 40  1  0  0  0  0
 39 41  1  1  0  0  0
 41 34  1  0  0  0  0
M  END
>  <CHROM.1>
-163.54676102,-159.93395790,-161.74473466,167.44598801,163.81003504,165.79159426
64.16540415,-171.83651575,172.29473168,-0.55598630,91.53424361,10.96634751
1.14886452,0.56419174,1.82423574

>  <Name>
2fcy_lig

>  <RI>
4.13508e+07

>  <Rbt.Current_Directory>
/home/itssahil/PROJECTS/Mol_Feturizer/New_Systems/rnas/2fcy

>  <Rbt.Executable>
rbdock ($Id: //depot/dev/client3/rdock/2013.1/src/exe/rbdock.cxx#4 $)

>  <Rbt.Library>
libRbt.so (2013.1, Build901 2013/11/27)

>  <Rbt.Parameter_File>
/export/apps/rDock/src/rDock_2013.1_src/data/scripts/dock_solv.prm

>  <Rbt.Receptor>
prm/pocket_docking_3.prm

>  <SCORE>
-21.9934

>  <SCORE.INTER>
-17.1658

>  <SCORE.INTER.CONST>
1

>  <SCORE.INTER.POLAR>
-1.70448

>  <SCORE.INTER.ROT>
9

>  <SCORE.INTER.SOLV>
20.8182

>  <SCORE.INTER.VDW>
-22.3016

>  <SCORE.INTER.norm>
-0.408708

>  <SCORE.INTRA>
-4.82762

>  <SCORE.INTRA.DIHEDRAL>
-9.24648

>  <SCORE.INTRA.DIHEDRAL.0>
17.3446

>  <SCORE.INTRA.POLAR>
0

>  <SCORE.INTRA.POLAR.0>
0

>  <SCORE.INTRA.REPUL>
0

>  <SCORE.INTRA.REPUL.0>
0

>  <SCORE.INTRA.SOLV>
-3.9296

>  <SCORE.INTRA.SOLV.lig_0>
-112.452

>  <SCORE.INTRA.VDW>
1.76042

>  <SCORE.INTRA.VDW.0>
-5.95059

>  <SCORE.INTRA.norm>
-0.114943

>  <SCORE.RESTR>
0

>  <SCORE.RESTR.CAVITY>
0

>  <SCORE.RESTR.norm>
0

>  <SCORE.SYSTEM>
0

>  <SCORE.SYSTEM.CONST>
0

>  <SCORE.SYSTEM.DIHEDRAL>
0

>  <SCORE.SYSTEM.SOLV>
0

>  <SCORE.SYSTEM.norm>
0

>  <SCORE.heavy>
42

>  <SCORE.norm>
-0.523652

>  <RMSD>
1.447

$$$$
2fcy_lig
 OpenBabel11021811433D
libRbt.so/2013.1/901 2013/11/27
 42 45  0  0  0  0  0  0  0  0999 V2000
   -0.1189   90.9543   14.1466 C   0  0  2  0  0  0  0  0  0  0  0  0
    0.4231   92.2711   14.3449 O   0  0  0  0  0  0  0  0  0  0  0  0
   -1.4791   90.9641   14.8457 C   0  0  2  0  0  0  0  0  0  0  0  0
   -2.2739   92.0797   14.3143 N   0  0  0  0  0  0  0  0  0  0  0  0
   -1.2797   91.1535   16.3516 C   0  0  1  0  0  0  0  0  0  0  0  0
   -2.5396   91.1618   17.0285 O   0  0  0  0  0  0  0  0  0  0  0  0
   -0.3897   90.0328   16.8899 C   0  0  2  0  0  0  0  0  0  0  0  0
   -0.1261   90.2650   18.2735 O   0  0  0  0  0  0  0  0  0  0  0  0
    0.9435   90.0597   16.1409 C   0  0  2  0  0  0  0  0  0  0  0  0
    0.7049   89.9247   14.7312 O   0  0  0  0  0  0  0  0  0  0  0  0
    1.8401   88.9348   16.6648 C   0  0  0  0  0  0  0  0  0  0  0  0
    3.2293   89.1180   16.2186 N   0  0  0  0  0  0  0  0  0  0  0  0
    2.7035   94.7574   11.8420 C   0  0  2  0  0  0  0  0  0  0  0  0
    3.6890   95.4152   10.9708 N   0  0  0  0  0  0  0  0  0  0  0  0
    3.3301   94.3843   13.1870 C   0  0  0  0  0  0  0  0  0  0  0  0
    2.2280   93.8275   14.0939 C   0  0  2  0  0  0  0  0  0  0  0  0
    2.8225   93.3806   15.3619 N   0  0  0  0  0  0  0  0  0  0  0  0
    1.5061   92.6303   13.4687 C   0  0  2  0  0  0  0  0  0  0  0  0
    1.0560   92.8403   12.0272 C   0  0  2  0  0  0  0  0  0  0  0  0
    0.7741   91.5274   11.5165 O   0  0  0  0  0  0  0  0  0  0  0  0
    2.1531   93.4938   11.1764 C   0  0  1  0  0  0  0  0  0  0  0  0
    1.6487   93.8608    9.8895 O   0  0  0  0  0  0  0  0  0  0  0  0
   -0.0348   91.4806   10.3299 C   0  0  1  0  0  0  0  0  0  0  0  0
    0.1359   90.0932    9.7091 C   0  0  2  0  0  0  0  0  0  0  0  0
    1.3160   90.0691    8.9025 O   0  0  0  0  0  0  0  0  0  0  0  0
   -1.0967   90.0858    8.8096 C   0  0  1  0  0  0  0  0  0  0  0  0
   -2.1425   90.6253    9.7726 C   0  0  2  0  0  0  0  0  0  0  0  0
   -1.4486   91.5861   10.5949 O   0  0  0  0  0  0  0  0  0  0  0  0
   -2.7056   89.4654   10.6020 C   0  0  0  0  0  0  0  0  0  0  0  0
   -3.6555   89.9459   11.5576 O   0  0  0  0  0  0  0  0  0  0  0  0
   -1.8124   90.6698    6.6543 C   0  0  2  0  0  0  0  0  0  0  0  0
   -0.9103   91.0035    7.7203 O   0  0  0  0  0  0  0  0  0  0  0  0
   -1.5570   91.5933    5.4589 C   0  0  1  0  0  0  0  0  0  0  0  0
   -5.6536   89.5057    7.7940 N   0  0  0  0  0  0  0  0  0  0  0  0
   -2.5763   91.3227    4.3470 C   0  0  1  0  0  0  0  0  0  0  0  0
   -2.3547   90.0299    3.7743 O   0  0  0  0  0  0  0  0  0  0  0  0
   -3.9962   91.4036    4.9142 C   0  0  2  0  0  0  0  0  0  0  0  0
   -4.2439   92.7501    5.3325 O   0  0  0  0  0  0  0  0  0  0  0  0
   -4.1276   90.4502    6.1067 C   0  0  1  0  0  0  0  0  0  0  0  0
   -3.1669   90.7984    7.1209 O   0  0  0  0  0  0  0  0  0  0  0  0
   -5.5397   90.4791    6.6979 C   0  0  0  0  0  0  0  0  0  0  0  0
   -1.7095   92.9882    5.8994 N   0  0  0  0  0  0  0  0  0  0  0  0
  1  2  1  1  0  0  0
  1  3  1  0  0  0  0
  1 10  1  0  0  0  0
  3  4  1  6  0  0  0
  3  5  1  0  0  0  0
  5  6  1  1  0  0  0
  5  7  1  0  0  0  0
  7  8  1  1  0  0  0
  7  9  1  0  0  0  0
  9 10  1  0  0  0  0
  9 11  1  1  0  0  0
 11 12  1  0  0  0  0
 13 14  1  6  0  0  0
 13 15  1  0  0  0  0
 13 21  1  0  0  0  0
 16 15  1  0  0  0  0
 16 17  1  1  0  0  0
 18  2  1  1  0  0  0
 18 16  1  0  0  0  0
 19 18  1  0  0  0  0
 19 20  1  6  0  0  0
 21 19  1  0  0  0  0
 21 22  1  6  0  0  0
 23 20  1  1  0  0  0
 23 24  1  0  0  0  0
 23 28  1  0  0  0  0
 24 25  1  6  0  0  0
 24 26  1  0  0  0  0
 26 27  1  0  0  0  0
 26 32  1  6  0  0  0
 27 28  1  0  0  0  0
 27 29  1  1  0  0  0
 29 30  1  0  0  0  0
 31 32  1  1  0  0  0
 31 40  1  0  0  0  0
 33 31  1  0  0  0  0
 33 42  1  1  0  0  0
 35 33  1  0  0  0  0
 35 36  1  1  0  0  0
 37 35  1  0  0  0  0
 37 38  1  1  0  0  0
 37 39  1  0  0  0  0
 39 40  1  0  0  0  0
 39 41  1  1  0  0  0
 41 34  1  0  0  0  0
M  END
>  <CHROM.1>
-162.85597487,-166.23647686,-162.32157135,162.13930840,162.76130932,159.96547222
177.67519101,-176.59178775,177.11153262,-0.65092673,91.40051531,11.08014689
1.09993525,0.55856130,1.79864454

>  <Name>
2fcy_lig

>  <RI>
4.13508e+07

>  <Rbt.Current_Directory>
/home/itssahil/PROJECTS/Mol_Feturizer/New_Systems/rnas/2fcy

>  <Rbt.Executable>
rbdock ($Id: //depot/dev/client3/rdock/2013.1/src/exe/rbdock.cxx#4 $)

>  <Rbt.Library>
libRbt.so (2013.1, Build901 2013/11/27)

>  <Rbt.Parameter_File>
/export/apps/rDock/src/rDock_2013.1_src/data/scripts/dock_solv.prm

>  <Rbt.Receptor>
prm/pocket_docking_3.prm

>  <SCORE>
-22.5862

>  <SCORE.INTER>
-17.3991

>  <SCORE.INTER.CONST>
1

>  <SCORE.INTER.POLAR>
-1.72995

>  <SCORE.INTER.ROT>
9

>  <SCORE.INTER.SOLV>
21.7683

>  <SCORE.INTER.VDW>
-22.6891

>  <SCORE.INTER.norm>
-0.414265

>  <SCORE.INTRA>
-5.18709

>  <SCORE.INTRA.DIHEDRAL>
-8.75357

>  <SCORE.INTRA.DIHEDRAL.0>
17.3446

>  <SCORE.INTRA.POLAR>
0

>  <SCORE.INTRA.POLAR.0>
0

>  <SCORE.INTRA.REPUL>
0

>  <SCORE.INTRA.REPUL.0>
0

>  <SCORE.INTRA.SOLV>
-4.00652

>  <SCORE.INTRA.SOLV.lig_0>
-112.452

>  <SCORE.INTRA.VDW>
1.19295

>  <SCORE.INTRA.VDW.0>
-5.95059

>  <SCORE.INTRA.norm>
-0.123502

>  <SCORE.RESTR>
0

>  <SCORE.RESTR.CAVITY>
0

>  <SCORE.RESTR.norm>
0

>  <SCORE.SYSTEM>
0

>  <SCORE.SYSTEM.CONST>
0

>  <SCORE.SYSTEM.DIHEDRAL>
0

>  <SCORE.SYSTEM.SOLV>
0

>  <SCORE.SYSTEM.norm>
0

>  <SCORE.heavy>
42

>  <SCORE.norm>
-0.537768

>  <RMSD>
1.456

$$$$
2fcy_lig
 OpenBabel11021811433D
libRbt.so/2013.1/901 2013/11/27
 42 45  0  0  0  0  0  0  0  0999 V2000
    0.4639   91.4118   14.4222 C   0  0  2  0  0  0  0  0  0  0  0  0
    0.6452   92.7316   14.9631 O   0  0  0  0  0  0  0  0  0  0  0  0
   -0.8101   90.8751   15.0763 C   0  0  2  0  0  0  0  0  0  0  0  0
   -1.9009   91.8299   14.8368 N   0  0  0  0  0  0  0  0  0  0  0  0
   -0.5878   90.7242   16.5833 C   0  0  1  0  0  0  0  0  0  0  0  0
   -1.7661   90.2188   17.2172 O   0  0  0  0  0  0  0  0  0  0  0  0
    0.5962   89.7887   16.8297 C   0  0  2  0  0  0  0  0  0  0  0  0
    0.8624   89.7258   18.2307 O   0  0  0  0  0  0  0  0  0  0  0  0
    1.8319   90.3648   16.1365 C   0  0  2  0  0  0  0  0  0  0  0  0
    1.5625   90.5313   14.7357 O   0  0  0  0  0  0  0  0  0  0  0  0
    3.0226   89.4308   16.3680 C   0  0  0  0  0  0  0  0  0  0  0  0
    2.6761   88.0425   16.0288 N   0  0  0  0  0  0  0  0  0  0  0  0
    2.1430   96.2987   13.3263 C   0  0  2  0  0  0  0  0  0  0  0  0
    2.8979   97.3927   12.6968 N   0  0  0  0  0  0  0  0  0  0  0  0
    2.9197   95.7107   14.5061 C   0  0  0  0  0  0  0  0  0  0  0  0
    2.0308   94.6727   15.1986 C   0  0  2  0  0  0  0  0  0  0  0  0
    2.7881   94.0310   16.2828 N   0  0  0  0  0  0  0  0  0  0  0  0
    1.5622   93.5729   14.2414 C   0  0  2  0  0  0  0  0  0  0  0  0
    0.9883   94.0789   12.9227 C   0  0  2  0  0  0  0  0  0  0  0  0
    0.9808   92.9420   12.0443 O   0  0  0  0  0  0  0  0  0  0  0  0
    1.8538   95.1892   12.3123 C   0  0  1  0  0  0  0  0  0  0  0  0
    1.2009   95.7834   11.1872 O   0  0  0  0  0  0  0  0  0  0  0  0
    0.0361   92.9959   10.9631 C   0  0  1  0  0  0  0  0  0  0  0  0
    0.7908   92.6680    9.6737 C   0  0  2  0  0  0  0  0  0  0  0  0
    1.4254   93.8478    9.1747 O   0  0  0  0  0  0  0  0  0  0  0  0
   -0.4008   92.3164    8.7877 C   0  0  1  0  0  0  0  0  0  0  0  0
   -1.1927   91.4268    9.7331 C   0  0  2  0  0  0  0  0  0  0  0  0
   -0.9904   91.9862   11.0472 O   0  0  0  0  0  0  0  0  0  0  0  0
   -0.6604   89.9925    9.6352 C   0  0  0  0  0  0  0  0  0  0  0  0
    0.6300   89.8928   10.2446 O   0  0  0  0  0  0  0  0  0  0  0  0
   -2.0440   93.2403    7.3932 C   0  0  2  0  0  0  0  0  0  0  0  0
   -1.1502   93.5041    8.4854 O   0  0  0  0  0  0  0  0  0  0  0  0
   -2.6717   94.5538    6.9161 C   0  0  1  0  0  0  0  0  0  0  0  0
   -4.2161   89.6639    7.5596 N   0  0  0  0  0  0  0  0  0  0  0  0
   -3.7062   94.2842    5.8180 C   0  0  1  0  0  0  0  0  0  0  0  0
   -3.0587   93.8174    4.6300 O   0  0  0  0  0  0  0  0  0  0  0  0
   -4.7174   93.2417    6.3029 C   0  0  2  0  0  0  0  0  0  0  0  0
   -5.4608   93.7998    7.3917 O   0  0  0  0  0  0  0  0  0  0  0  0
   -3.9755   91.9826    6.7638 C   0  0  1  0  0  0  0  0  0  0  0  0
   -3.0577   92.3143    7.8223 O   0  0  0  0  0  0  0  0  0  0  0  0
   -4.9468   90.8991    7.2400 C   0  0  0  0  0  0  0  0  0  0  0  0
   -3.3556   95.1900    8.0522 N   0  0  0  0  0  0  0  0  0  0  0  0
  1  2  1  1  0  0  0
  1  3  1  0  0  0  0
  1 10  1  0  0  0  0
  3  4  1  1  0  0  0
  3  5  1  0  0  0  0
  5  6  1  1  0  0  0
  5  7  1  0  0  0  0
  7  8  1  1  0  0  0
  7  9  1  0  0  0  0
  9 10  1  0  0  0  0
  9 11  1  6  0  0  0
 11 12  1  0  0  0  0
 13 14  1  6  0  0  0
 13 15  1  0  0  0  0
 13 21  1  0  0  0  0
 16 15  1  0  0  0  0
 16 17  1  1  0  0  0
 18  2  1  1  0  0  0
 18 16  1  0  0  0  0
 19 18  1  0  0  0  0
 19 20  1  6  0  0  0
 21 19  1  0  0  0  0
 21 22  1  6  0  0  0
 23 20  1  1  0  0  0
 23 24  1  0  0  0  0
 23 28  1  0  0  0  0
 24 25  1  6  0  0  0
 24 26  1  0  0  0  0
 26 27  1  0  0  0  0
 26 32  1  1  0  0  0
 27 28  1  0  0  0  0
 27 29  1  1  0  0  0
 29 30  1  0  0  0  0
 31 32  1  1  0  0  0
 31 40  1  0  0  0  0
 33 31  1  0  0  0  0
 33 42  1  1  0  0  0
 35 33  1  0  0  0  0
 35 36  1  6  0  0  0
 37 35  1  0  0  0  0
 37 38  1  1  0  0  0
 37 39  1  0  0  0  0
 39 40  1  0  0  0  0
 39 41  1  1  0  0  0
 41 34  1  0  0  0  0
M  END
>  <CHROM.1>
-163.88108150,50.59825517,-158.89716193,156.25877213,129.94553141,165.10084186
71.62760692,-170.63992037,174.88382594,-0.40863871,92.53112424,11.65027409
0.80926435,0.84861151,2.35823567

>  <Name>
2fcy_lig

>  <RI>
0

>  <Rbt.Current_Directory>
/home/itssahil/PROJECTS/Mol_Feturizer/New_Systems/rnas/2fcy

>  <Rbt.Executable>
rbdock ($Id: //depot/dev/client3/rdock/2013.1/src/exe/rbdock.cxx#4 $)

>  <Rbt.Library>
libRbt.so (2013.1, Build901 2013/11/27)

>  <Rbt.Parameter_File>
/export/apps/rDock/src/rDock_2013.1_src/data/scripts/dock_solv.prm

>  <Rbt.Receptor>
prm/pocket_docking_5.prm

>  <SCORE>
-15.651

>  <SCORE.INTER>
-14.9198

>  <SCORE.INTER.CONST>
1

>  <SCORE.INTER.POLAR>
-2.37741

>  <SCORE.INTER.ROT>
9

>  <SCORE.INTER.SOLV>
17.3757

>  <SCORE.INTER.VDW>
-17.4138

>  <SCORE.INTER.norm>
-0.355234

>  <SCORE.INTRA>
-0.731152

>  <SCORE.INTRA.DIHEDRAL>
-2.34652

>  <SCORE.INTRA.DIHEDRAL.0>
17.3446

>  <SCORE.INTRA.POLAR>
0

>  <SCORE.INTRA.POLAR.0>
0

>  <SCORE.INTRA.REPUL>
0.010357

>  <SCORE.INTRA.REPUL.0>
0

>  <SCORE.INTRA.SOLV>
-1.82944

>  <SCORE.INTRA.SOLV.lig_0>
-112.452

>  <SCORE.INTRA.VDW>
1.30504

>  <SCORE.INTRA.VDW.0>
-5.95059

>  <SCORE.INTRA.norm>
-0.0174084

>  <SCORE.RESTR>
0

>  <SCORE.RESTR.CAVITY>
0

>  <SCORE.RESTR.norm>
0

>  <SCORE.SYSTEM>
0

>  <SCORE.SYSTEM.CONST>
0

>  <SCORE.SYSTEM.DIHEDRAL>
0

>  <SCORE.SYSTEM.SOLV>
0

>  <SCORE.SYSTEM.norm>
0

>  <SCORE.heavy>
42

>  <SCORE.norm>
-0.372642

>  <RMSD>
1.457

$$$$
2fcy_lig
 OpenBabel11021811433D
libRbt.so/2013.1/901 2013/11/27
 42 45  0  0  0  0  0  0  0  0999 V2000
    0.4678   91.4748   14.4780 C   0  0  2  0  0  0  0  0  0  0  0  0
    0.7270   92.7472   15.0953 O   0  0  0  0  0  0  0  0  0  0  0  0
   -0.8588   90.9973   15.0705 C   0  0  2  0  0  0  0  0  0  0  0  0
   -1.8720   92.0399   14.8583 N   0  0  0  0  0  0  0  0  0  0  0  0
   -0.6898   90.7501   16.5717 C   0  0  1  0  0  0  0  0  0  0  0  0
   -1.9182   90.2980   17.1482 O   0  0  0  0  0  0  0  0  0  0  0  0
    0.4177   89.7197   16.7942 C   0  0  2  0  0  0  0  0  0  0  0  0
    0.6396   89.5628   18.1956 O   0  0  0  0  0  0  0  0  0  0  0  0
    1.7098   90.2413   16.1638 C   0  0  2  0  0  0  0  0  0  0  0  0
    1.4921   90.5017   14.7683 O   0  0  0  0  0  0  0  0  0  0  0  0
    2.8245   89.2127   16.3716 C   0  0  0  0  0  0  0  0  0  0  0  0
    2.4564   87.9131   15.7899 N   0  0  0  0  0  0  0  0  0  0  0  0
    2.4304   96.2957   13.6279 C   0  0  2  0  0  0  0  0  0  0  0  0
    3.2511   97.3746   13.0576 N   0  0  0  0  0  0  0  0  0  0  0  0
    3.1481   95.6299   14.8037 C   0  0  0  0  0  0  0  0  0  0  0  0
    2.1944   94.6110   15.4357 C   0  0  2  0  0  0  0  0  0  0  0  0
    2.8929   93.8960   16.5135 N   0  0  0  0  0  0  0  0  0  0  0  0
    1.7004   93.5694   14.4275 C   0  0  2  0  0  0  0  0  0  0  0  0
    1.1849   94.1487   13.1149 C   0  0  2  0  0  0  0  0  0  0  0  0
    1.1475   93.0455   12.1952 O   0  0  0  0  0  0  0  0  0  0  0  0
    2.1164   95.2380   12.5670 C   0  0  1  0  0  0  0  0  0  0  0  0
    1.5212   95.9021   11.4491 O   0  0  0  0  0  0  0  0  0  0  0  0
    0.2009   93.1617   11.1206 C   0  0  1  0  0  0  0  0  0  0  0  0
    0.9519   92.9018    9.8137 C   0  0  2  0  0  0  0  0  0  0  0  0
    1.5899   94.1047    9.3783 O   0  0  0  0  0  0  0  0  0  0  0  0
   -0.2428   92.6033    8.9125 C   0  0  1  0  0  0  0  0  0  0  0  0
   -1.0361   91.6664    9.8097 C   0  0  2  0  0  0  0  0  0  0  0  0
   -0.8292   92.1526   11.1519 O   0  0  0  0  0  0  0  0  0  0  0  0
   -0.5093   90.2376    9.6326 C   0  0  0  0  0  0  0  0  0  0  0  0
    0.7382   90.0741   10.3133 O   0  0  0  0  0  0  0  0  0  0  0  0
   -2.0302   93.5474    7.7241 C   0  0  2  0  0  0  0  0  0  0  0  0
   -0.9883   93.8083    8.6769 O   0  0  0  0  0  0  0  0  0  0  0  0
   -2.5749   94.8737    7.1843 C   0  0  1  0  0  0  0  0  0  0  0  0
   -6.1034   91.0022    7.1581 N   0  0  0  0  0  0  0  0  0  0  0  0
   -3.7569   94.6222    6.2419 C   0  0  1  0  0  0  0  0  0  0  0  0
   -3.3091   93.9777    5.0451 O   0  0  0  0  0  0  0  0  0  0  0  0
   -4.8021   93.7497    6.9424 C   0  0  2  0  0  0  0  0  0  0  0  0
   -5.3475   94.4861    8.0422 O   0  0  0  0  0  0  0  0  0  0  0  0
   -4.1411   92.4628    7.4477 C   0  0  1  0  0  0  0  0  0  0  0  0
   -3.0728   92.7852    8.3574 O   0  0  0  0  0  0  0  0  0  0  0  0
   -5.1522   91.5444    8.1395 C   0  0  0  0  0  0  0  0  0  0  0  0
   -3.0479   95.6850    8.3162 N   0  0  0  0  0  0  0  0  0  0  0  0
  1  2  1  1  0  0  0
  1  3  1  0  0  0  0
  1 10  1  0  0  0  0
  3  4  1  1  0  0  0
  3  5  1  0  0  0  0
  5  6  1  6  0  0  0
  5  7  1  0  0  0  0
  7  8  1  1  0  0  0
  7  9  1  0  0  0  0
  9 10  1  0  0  0  0
  9 11  1  6  0  0  0
 11 12  1  0  0  0  0
 13 14  1  6  0  0  0
 13 15  1  0  0  0  0
 13 21  1  0  0  0  0
 16 15  1  0  0  0  0
 16 17  1  1  0  0  0
 18  2  1  1  0  0  0
 18 16  1  0  0  0  0
 19 18  1  0  0  0  0
 19 20  1  6  0  0  0
 21 19  1  0  0  0  0
 21 22  1  6  0  0  0
 23 20  1  1  0  0  0
 23 24  1  0  0  0  0
 23 28  1  0  0  0  0
 24 25  1  6  0  0  0
 24 26  1  0  0  0  0
 26 27  1  0  0  0  0
 26 32  1  1  0  0  0
 27 28  1  0  0  0  0
 27 29  1  1  0  0  0
 29 30  1  0  0  0  0
 31 32  1  1  0  0  0
 31 40  1  0  0  0  0
 33 31  1  0  0  0  0
 33 42  1  1  0  0  0
 35 33  1  0  0  0  0
 35 36  1  6  0  0  0
 37 35  1  0  0  0  0
 37 38  1  1  0  0  0
 37 39  1  0  0  0  0
 39 40  1  0  0  0  0
 39 41  1  1  0  0  0
 41 34  1  0  0  0  0
M  END
>  <CHROM.1>
-162.61294337,57.94078197,-160.78896357,154.14878676,128.41100273,174.30490055
75.70020932,-164.71120027,68.67735684,-0.40185196,92.71407701,11.84354869
0.84983974,0.74792172,2.32910069

>  <Name>
2fcy_lig

>  <RI>
1.56845e+07

>  <Rbt.Current_Directory>
/home/itssahil/PROJECTS/Mol_Feturizer/New_Systems/rnas/2fcy

>  <Rbt.Executable>
rbdock ($Id: //depot/dev/client3/rdock/2013.1/src/exe/rbdock.cxx#4 $)

>  <Rbt.Library>
libRbt.so (2013.1, Build901 2013/11/27)

>  <Rbt.Parameter_File>
/export/apps/rDock/src/rDock_2013.1_src/data/scripts/dock_solv.prm

>  <Rbt.Receptor>
prm/pocket_docking_4.prm

>  <SCORE>
-15.6869

>  <SCORE.INTER>
-15.1515

>  <SCORE.INTER.CONST>
1

>  <SCORE.INTER.POLAR>
-2.34653

>  <SCORE.INTER.ROT>
9

>  <SCORE.INTER.SOLV>
19.6915

>  <SCORE.INTER.VDW>
-18.4431

>  <SCORE.INTER.norm>
-0.360751

>  <SCORE.INTRA>
-0.535403

>  <SCORE.INTRA.DIHEDRAL>
-1.8453

>  <SCORE.INTRA.DIHEDRAL.0>
17.3446

>  <SCORE.INTRA.POLAR>
0

>  <SCORE.INTRA.POLAR.0>
0

>  <SCORE.INTRA.REPUL>
0.00553301

>  <SCORE.INTRA.REPUL.0>
0

>  <SCORE.INTRA.SOLV>
-2.30494

>  <SCORE.INTRA.SOLV.lig_0>
-112.452

>  <SCORE.INTRA.VDW>
1.51205

>  <SCORE.INTRA.VDW.0>
-5.95059

>  <SCORE.INTRA.norm>
-0.0127477

>  <SCORE.RESTR>
0

>  <SCORE.RESTR.CAVITY>
0

>  <SCORE.RESTR.norm>
0

>  <SCORE.SYSTEM>
0

>  <SCORE.SYSTEM.CONST>
0

>  <SCORE.SYSTEM.DIHEDRAL>
0

>  <SCORE.SYSTEM.SOLV>
0

>  <SCORE.SYSTEM.norm>
0

>  <SCORE.heavy>
42

>  <SCORE.norm>
-0.373499

>  <RMSD>
1.470

$$$$
2fcy_lig
 OpenBabel11021811433D
libRbt.so/2013.1/901 2013/11/27
 42 45  0  0  0  0  0  0  0  0999 V2000
   -0.2709   91.0757   14.0387 C   0  0  2  0  0  0  0  0  0  0  0  0
    0.3071   92.3697   14.2812 O   0  0  0  0  0  0  0  0  0  0  0  0
   -1.5302   91.0233   14.9049 C   0  0  2  0  0  0  0  0  0  0  0  0
   -2.3737   92.1818   14.5807 N   0  0  0  0  0  0  0  0  0  0  0  0
   -1.1375   91.0779   16.3835 C   0  0  1  0  0  0  0  0  0  0  0  0
   -2.3002   91.0258   17.2147 O   0  0  0  0  0  0  0  0  0  0  0  0
   -0.1988   89.9136   16.7018 C   0  0  2  0  0  0  0  0  0  0  0  0
    0.2424   90.0217   18.0551 O   0  0  0  0  0  0  0  0  0  0  0  0
    1.0278   90.0071   15.7930 C   0  0  2  0  0  0  0  0  0  0  0  0
    0.6092   89.9982   14.4193 O   0  0  0  0  0  0  0  0  0  0  0  0
    1.9711   88.8400   16.0959 C   0  0  0  0  0  0  0  0  0  0  0  0
    2.6362   89.0243   17.3944 N   0  0  0  0  0  0  0  0  0  0  0  0
    2.6235   94.8730   11.8288 C   0  0  2  0  0  0  0  0  0  0  0  0
    3.6187   95.5341   10.9712 N   0  0  0  0  0  0  0  0  0  0  0  0
    3.2438   94.4651   13.1666 C   0  0  0  0  0  0  0  0  0  0  0  0
    2.1333   93.9059   14.0618 C   0  0  2  0  0  0  0  0  0  0  0  0
    2.7205   93.4262   15.3212 N   0  0  0  0  0  0  0  0  0  0  0  0
    1.3957   92.7311   13.4129 C   0  0  2  0  0  0  0  0  0  0  0  0
    0.9498   92.9753   11.9755 C   0  0  2  0  0  0  0  0  0  0  0  0
    0.6505   91.6766   11.4390 O   0  0  0  0  0  0  0  0  0  0  0  0
    2.0565   93.6302   11.1383 C   0  0  1  0  0  0  0  0  0  0  0  0
    1.5583   94.0292    9.8585 O   0  0  0  0  0  0  0  0  0  0  0  0
   -0.0609   91.6667   10.1907 C   0  0  1  0  0  0  0  0  0  0  0  0
    0.0339   90.2523    9.6164 C   0  0  2  0  0  0  0  0  0  0  0  0
    1.2683   90.1014    8.9112 O   0  0  0  0  0  0  0  0  0  0  0  0
   -1.1178   90.3271    8.6182 C   0  0  1  0  0  0  0  0  0  0  0  0
   -2.1851   90.9839    9.4793 C   0  0  2  0  0  0  0  0  0  0  0  0
   -1.4763   91.9035   10.3352 O   0  0  0  0  0  0  0  0  0  0  0  0
   -2.9153   89.9024   10.2839 C   0  0  0  0  0  0  0  0  0  0  0  0
   -2.0388   89.3191   11.2524 O   0  0  0  0  0  0  0  0  0  0  0  0
   -1.7042   91.0251    6.4577 C   0  0  2  0  0  0  0  0  0  0  0  0
   -0.7624   91.1930    7.5284 O   0  0  0  0  0  0  0  0  0  0  0  0
   -1.1883   91.7400    5.2048 C   0  0  1  0  0  0  0  0  0  0  0  0
   -6.4001   91.5533    5.3947 N   0  0  0  0  0  0  0  0  0  0  0  0
   -2.2248   91.6604    4.0789 C   0  0  1  0  0  0  0  0  0  0  0  0
   -2.3539   90.3118    3.6175 O   0  0  0  0  0  0  0  0  0  0  0  0
   -3.5781   92.1693    4.5829 C   0  0  2  0  0  0  0  0  0  0  0  0
   -3.4570   93.5633    4.8854 O   0  0  0  0  0  0  0  0  0  0  0  0
   -3.9828   91.3920    5.8401 C   0  0  1  0  0  0  0  0  0  0  0  0
   -2.9799   91.5535    6.8603 O   0  0  0  0  0  0  0  0  0  0  0  0
   -5.3431   91.8508    6.3724 C   0  0  0  0  0  0  0  0  0  0  0  0
   -0.9628   93.1567    5.5292 N   0  0  0  0  0  0  0  0  0  0  0  0
  1  2  1  1  0  0  0
  1  3  1  0  0  0  0
  1 10  1  0  0  0  0
  3  4  1  6  0  0  0
  3  5  1  0  0  0  0
  5  6  1  1  0  0  0
  5  7  1  0  0  0  0
  7  8  1  1  0  0  0
  7  9  1  0  0  0  0
  9 10  1  0  0  0  0
  9 11  1  6  0  0  0
 11 12  1  0  0  0  0
 13 14  1  6  0  0  0
 13 15  1  0  0  0  0
 13 21  1  0  0  0  0
 16 15  1  0  0  0  0
 16 17  1  1  0  0  0
 18  2  1  1  0  0  0
 18 16  1  0  0  0  0
 19 18  1  0  0  0  0
 19 20  1  6  0  0  0
 21 19  1  0  0  0  0
 21 22  1  6  0  0  0
 23 20  1  1  0  0  0
 23 24  1  0  0  0  0
 23 28  1  0  0  0  0
 24 25  1  6  0  0  0
 24 26  1  0  0  0  0
 26 27  1  0  0  0  0
 26 32  1  6  0  0  0
 27 28  1  0  0  0  0
 27 29  1  1  0  0  0
 29 30  1  0  0  0  0
 31 32  1  1  0  0  0
 31 40  1  0  0  0  0
 33 31  1  0  0  0  0
 33 42  1  1  0  0  0
 35 33  1  0  0  0  0
 35 36  1  1  0  0  0
 37 35  1  0  0  0  0
 37 38  1  1  0  0  0
 37 39  1  0  0  0  0
 39 40  1  0  0  0  0
 39 41  1  1  0  0  0
 41 34  1  0  0  0  0
M  END
>  <CHROM.1>
-170.68687629,-72.00222710,-163.56172004,167.19877080,165.67955341,166.97416515
67.57541327,-169.45422049,64.12450657,-0.57381342,91.63658407,10.90103382
1.14105644,0.58247312,1.86339387

>  <Name>
2fcy_lig

>  <RI>
4.13508e+07

>  <Rbt.Current_Directory>
/home/itssahil/PROJECTS/Mol_Feturizer/New_Systems/rnas/2fcy

>  <Rbt.Executable>
rbdock ($Id: //depot/dev/client3/rdock/2013.1/src/exe/rbdock.cxx#4 $)

>  <Rbt.Library>
libRbt.so (2013.1, Build901 2013/11/27)

>  <Rbt.Parameter_File>
/export/apps/rDock/src/rDock_2013.1_src/data/scripts/dock_solv.prm

>  <Rbt.Receptor>
prm/pocket_docking_3.prm

>  <SCORE>
-22.9285

>  <SCORE.INTER>
-17.6325

>  <SCORE.INTER.CONST>
1

>  <SCORE.INTER.POLAR>
-1.66737

>  <SCORE.INTER.ROT>
9

>  <SCORE.INTER.SOLV>
17.3181

>  <SCORE.INTER.VDW>
-21.5698

>  <SCORE.INTER.norm>
-0.419821

>  <SCORE.INTRA>
-5.29599

>  <SCORE.INTRA.DIHEDRAL>
-11.331

>  <SCORE.INTRA.DIHEDRAL.0>
17.3446

>  <SCORE.INTRA.POLAR>
0

>  <SCORE.INTRA.POLAR.0>
0

>  <SCORE.INTRA.REPUL>
0

>  <SCORE.INTRA.REPUL.0>
0

>  <SCORE.INTRA.SOLV>
-3.50494

>  <SCORE.INTRA.SOLV.lig_0>
-112.452

>  <SCORE.INTRA.VDW>
2.12196

>  <SCORE.INTRA.VDW.0>
-5.95059

>  <SCORE.INTRA.norm>
-0.126095

>  <SCORE.RESTR>
0

>  <SCORE.RESTR.CAVITY>
0

>  <SCORE.RESTR.norm>
0

>  <SCORE.SYSTEM>
0

>  <SCORE.SYSTEM.CONST>
0

>  <SCORE.SYSTEM.DIHEDRAL>
0

>  <SCORE.SYSTEM.SOLV>
0

>  <SCORE.SYSTEM.norm>
0

>  <SCORE.heavy>
42

>  <SCORE.norm>
-0.545916

>  <RMSD>
1.482

$$$$
2fcy_lig
 OpenBabel11021811433D
libRbt.so/2013.1/901 2013/11/27
 42 45  0  0  0  0  0  0  0  0999 V2000
    0.3392   91.2226   14.3204 C   0  0  2  0  0  0  0  0  0  0  0  0
    0.8748   92.4376   14.8719 O   0  0  0  0  0  0  0  0  0  0  0  0
   -1.0342   91.0507   14.9710 C   0  0  2  0  0  0  0  0  0  0  0  0
   -1.8207   92.2701   14.7403 N   0  0  0  0  0  0  0  0  0  0  0  0
   -0.8641   90.8324   16.4765 C   0  0  1  0  0  0  0  0  0  0  0  0
   -2.1368   90.6645   17.1072 O   0  0  0  0  0  0  0  0  0  0  0  0
    0.0175   89.6059   16.7143 C   0  0  2  0  0  0  0  0  0  0  0  0
    0.2540   89.4611   18.1146 O   0  0  0  0  0  0  0  0  0  0  0  0
    1.3648   89.8265   16.0249 C   0  0  2  0  0  0  0  0  0  0  0  0
    1.1535   90.0719   14.6258 O   0  0  0  0  0  0  0  0  0  0  0  0
    2.2532   88.5998   16.2478 C   0  0  0  0  0  0  0  0  0  0  0  0
    2.7311   88.5417   17.6373 N   0  0  0  0  0  0  0  0  0  0  0  0
    3.6881   95.2490   13.5199 C   0  0  2  0  0  0  0  0  0  0  0  0
    4.8383   96.0070   13.0047 N   0  0  0  0  0  0  0  0  0  0  0  0
    4.0877   94.4168   14.7399 C   0  0  0  0  0  0  0  0  0  0  0  0
    2.8264   93.7584   15.3080 C   0  0  2  0  0  0  0  0  0  0  0  0
    3.1984   92.8833   16.4290 N   0  0  0  0  0  0  0  0  0  0  0  0
    2.0958   92.9022   14.2694 C   0  0  2  0  0  0  0  0  0  0  0  0
    1.8693   93.5866   12.9260 C   0  0  2  0  0  0  0  0  0  0  0  0
    1.5470   92.5316   12.0056 O   0  0  0  0  0  0  0  0  0  0  0  0
    3.1264   94.3204   12.4404 C   0  0  1  0  0  0  0  0  0  0  0  0
    2.8388   95.1142   11.2862 O   0  0  0  0  0  0  0  0  0  0  0  0
    0.3659   92.7351   11.2131 C   0  0  1  0  0  0  0  0  0  0  0  0
    0.2993   91.6045   10.1849 C   0  0  2  0  0  0  0  0  0  0  0  0
    1.1111   91.9337    9.0552 O   0  0  0  0  0  0  0  0  0  0  0  0
   -1.1741   91.7199    9.8051 C   0  0  1  0  0  0  0  0  0  0  0  0
   -1.8032   91.8526   11.1831 C   0  0  2  0  0  0  0  0  0  0  0  0
   -0.8583   92.6112   11.9656 O   0  0  0  0  0  0  0  0  0  0  0  0
   -2.0335   90.4533   11.7656 C   0  0  0  0  0  0  0  0  0  0  0  0
   -2.9309   89.7065   10.9389 O   0  0  0  0  0  0  0  0  0  0  0  0
   -1.2788   92.6293    7.6463 C   0  0  2  0  0  0  0  0  0  0  0  0
   -1.3892   92.9213    9.0477 O   0  0  0  0  0  0  0  0  0  0  0  0
   -1.2451   93.9383    6.8511 C   0  0  1  0  0  0  0  0  0  0  0  0
   -3.3069   89.9793    4.1377 N   0  0  0  0  0  0  0  0  0  0  0  0
   -1.2300   93.6495    5.3462 C   0  0  1  0  0  0  0  0  0  0  0  0
    0.0105   93.0430    4.9696 O   0  0  0  0  0  0  0  0  0  0  0  0
   -2.3932   92.7218    4.9845 C   0  0  2  0  0  0  0  0  0  0  0  0
   -3.6217   93.4173    5.2221 O   0  0  0  0  0  0  0  0  0  0  0  0
   -2.3293   91.4577    5.8484 C   0  0  1  0  0  0  0  0  0  0  0  0
   -2.3920   91.8129    7.2422 O   0  0  0  0  0  0  0  0  0  0  0  0
   -3.4627   90.4858    5.5092 C   0  0  0  0  0  0  0  0  0  0  0  0
   -2.4567   94.7113    7.1635 N   0  0  0  0  0  0  0  0  0  0  0  0
  1  2  1  1  0  0  0
  1  3  1  0  0  0  0
  1 10  1  0  0  0  0
  3  4  1  1  0  0  0
  3  5  1  0  0  0  0
  5  6  1  1  0  0  0
  5  7  1  0  0  0  0
  7  8  1  1  0  0  0
  7  9  1  0  0  0  0
  9 10  1  0  0  0  0
  9 11  1  6  0  0  0
 11 12  1  0  0  0  0
 13 14  1  6  0  0  0
 13 15  1  0  0  0  0
 13 21  1  0  0  0  0
 16 15  1  0  0  0  0
 16 17  1  1  0  0  0
 18  2  1  1  0  0  0
 18 16  1  0  0  0  0
 19 18  1  0  0  0  0
 19 20  1  6  0  0  0
 21 19  1  0  0  0  0
 21 22  1  6  0  0  0
 23 20  1  1  0  0  0
 23 24  1  0  0  0  0
 23 28  1  0  0  0  0
 24 25  1  6  0  0  0
 24 26  1  0  0  0  0
 26 27  1  0  0  0  0
 26 32  1  6  0  0  0
 27 28  1  0  0  0  0
 27 29  1  1  0  0  0
 29 30  1  0  0  0  0
 31 32  1  1  0  0  0
 31 40  1  0  0  0  0
 33 31  1  0  0  0  0
 33 42  1  6  0  0  0
 35 33  1  0  0  0  0
 35 36  1  1  0  0  0
 37 35  1  0  0  0  0
 37 38  1  1  0  0  0
 37 39  1  0  0  0  0
 39 40  1  0  0  0  0
 39 41  1  6  0  0  0
 41 34  1  0  0  0  0
M  END
>  <CHROM.1>
-172.00934937,-72.61552871,-155.04808984,129.77787905,172.79064678,92.60802021
-61.33468562,-169.47712869,65.26701640,0.00367807,92.09935614,11.60167824
1.10633979,0.70144318,1.98995291

>  <Name>
2fcy_lig

>  <RI>
4.13508e+07

>  <Rbt.Current_Directory>
/home/itssahil/PROJECTS/Mol_Feturizer/New_Systems/rnas/2fcy

>  <Rbt.Executable>
rbdock ($Id: //depot/dev/client3/rdock/2013.1/src/exe/rbdock.cxx#4 $)

>  <Rbt.Library>
libRbt.so (2013.1, Build901 2013/11/27)

>  <Rbt.Parameter_File>
/export/apps/rDock/src/rDock_2013.1_src/data/scripts/dock_solv.prm

>  <Rbt.Receptor>
prm/pocket_docking_3.prm

>  <SCORE>
-17.8346

>  <SCORE.INTER>
-16.4842

>  <SCORE.INTER.CONST>
1

>  <SCORE.INTER.POLAR>
-0.959166

>  <SCORE.INTER.ROT>
9

>  <SCORE.INTER.SOLV>
16.7263

>  <SCORE.INTER.VDW>
-22.9677

>  <SCORE.INTER.norm>
-0.392482

>  <SCORE.INTRA>
-1.35033

>  <SCORE.INTRA.DIHEDRAL>
-1.97195

>  <SCORE.INTRA.DIHEDRAL.0>
17.3446

>  <SCORE.INTRA.POLAR>
0

>  <SCORE.INTRA.POLAR.0>
0

>  <SCORE.INTRA.REPUL>
0

>  <SCORE.INTRA.REPUL.0>
0

>  <SCORE.INTRA.SOLV>
-1.26281

>  <SCORE.INTRA.SOLV.lig_0>
-112.452

>  <SCORE.INTRA.VDW>
0.267049

>  <SCORE.INTRA.VDW.0>
-5.95059

>  <SCORE.INTRA.norm>
-0.0321507

>  <SCORE.RESTR>
0

>  <SCORE.RESTR.CAVITY>
0

>  <SCORE.RESTR.norm>
0

>  <SCORE.SYSTEM>
0

>  <SCORE.SYSTEM.CONST>
0

>  <SCORE.SYSTEM.DIHEDRAL>
0

>  <SCORE.SYSTEM.SOLV>
0

>  <SCORE.SYSTEM.norm>
0

>  <SCORE.heavy>
42

>  <SCORE.norm>
-0.424632

>  <RMSD>
1.496

$$$$
2fcy_lig
 OpenBabel11021811433D
libRbt.so/2013.1/901 2013/11/27
 42 45  0  0  0  0  0  0  0  0999 V2000
    0.1043   91.0918   14.3125 C   0  0  2  0  0  0  0  0  0  0  0  0
    0.6430   92.3635   14.7124 O   0  0  0  0  0  0  0  0  0  0  0  0
   -1.2747   91.0092   14.9687 C   0  0  2  0  0  0  0  0  0  0  0  0
   -2.0525   92.1940   14.5815 N   0  0  0  0  0  0  0  0  0  0  0  0
   -1.1167   90.9795   16.4910 C   0  0  1  0  0  0  0  0  0  0  0  0
   -2.3948   90.8979   17.1277 O   0  0  0  0  0  0  0  0  0  0  0  0
   -0.2440   89.7880   16.8868 C   0  0  2  0  0  0  0  0  0  0  0  0
   -0.0183   89.8179   18.2960 O   0  0  0  0  0  0  0  0  0  0  0  0
    1.1095   89.9143   16.1858 C   0  0  2  0  0  0  0  0  0  0  0  0
    0.9097   89.9843   14.7654 O   0  0  0  0  0  0  0  0  0  0  0  0
    1.9891   88.7207   16.5669 C   0  0  0  0  0  0  0  0  0  0  0  0
    3.4135   89.0365   16.3825 N   0  0  0  0  0  0  0  0  0  0  0  0
    2.7972   95.3358   12.6701 C   0  0  2  0  0  0  0  0  0  0  0  0
    3.7288   96.1651   11.8908 N   0  0  0  0  0  0  0  0  0  0  0  0
    3.5244   94.6342   13.8189 C   0  0  0  0  0  0  0  0  0  0  0  0
    2.4844   93.8965   14.6682 C   0  0  2  0  0  0  0  0  0  0  0  0
    3.1695   93.1427   15.7281 N   0  0  0  0  0  0  0  0  0  0  0  0
    1.6581   92.9023   13.8471 C   0  0  2  0  0  0  0  0  0  0  0  0
    1.0909   93.4656   12.5489 C   0  0  2  0  0  0  0  0  0  0  0  0
    0.7077   92.3223   11.7678 O   0  0  0  0  0  0  0  0  0  0  0  0
    2.1351   94.2835   11.7774 C   0  0  1  0  0  0  0  0  0  0  0  0
    1.5345   94.9626   10.6714 O   0  0  0  0  0  0  0  0  0  0  0  0
   -0.4858   92.4754   10.9827 C   0  0  1  0  0  0  0  0  0  0  0  0
   -0.3361   91.5980    9.7388 C   0  0  2  0  0  0  0  0  0  0  0  0
    0.4075   92.3015    8.7409 O   0  0  0  0  0  0  0  0  0  0  0  0
   -1.8031   91.5257    9.3252 C   0  0  1  0  0  0  0  0  0  0  0  0
   -2.4541   91.2453   10.6704 C   0  0  2  0  0  0  0  0  0  0  0  0
   -1.6705   91.9758   11.6364 O   0  0  0  0  0  0  0  0  0  0  0  0
   -2.4252   89.7358   10.9362 C   0  0  0  0  0  0  0  0  0  0  0  0
   -3.3764   89.3850   11.9454 O   0  0  0  0  0  0  0  0  0  0  0  0
   -1.7925   92.9587    7.4691 C   0  0  2  0  0  0  0  0  0  0  0  0
   -2.2322   92.8028    8.8270 O   0  0  0  0  0  0  0  0  0  0  0  0
   -2.1427   94.3661    6.9754 C   0  0  1  0  0  0  0  0  0  0  0  0
   -4.0620   90.9744    4.4467 N   0  0  0  0  0  0  0  0  0  0  0  0
   -1.7740   94.5208    5.4960 C   0  0  1  0  0  0  0  0  0  0  0  0
   -0.3523   94.4958    5.3336 O   0  0  0  0  0  0  0  0  0  0  0  0
   -2.4102   93.3906    4.6821 C   0  0  2  0  0  0  0  0  0  0  0  0
   -3.8333   93.5376    4.7329 O   0  0  0  0  0  0  0  0  0  0  0  0
   -2.0001   92.0380    5.2742 C   0  0  1  0  0  0  0  0  0  0  0  0
   -2.4198   91.9573    6.6490 O   0  0  0  0  0  0  0  0  0  0  0  0
   -2.5957   90.8719    4.4806 C   0  0  0  0  0  0  0  0  0  0  0  0
   -3.5926   94.5682    7.1163 N   0  0  0  0  0  0  0  0  0  0  0  0
  1  2  1  1  0  0  0
  1  3  1  0  0  0  0
  1 10  1  0  0  0  0
  3  4  1  1  0  0  0
  3  5  1  0  0  0  0
  5  6  1  1  0  0  0
  5  7  1  0  0  0  0
  7  8  1  1  0  0  0
  7  9  1  0  0  0  0
  9 10  1  0  0  0  0
  9 11  1  6  0  0  0
 11 12  1  0  0  0  0
 13 14  1  6  0  0  0
 13 15  1  0  0  0  0
 13 21  1  0  0  0  0
 16 15  1  0  0  0  0
 16 17  1  1  0  0  0
 18  2  1  1  0  0  0
 18 16  1  0  0  0  0
 19 18  1  0  0  0  0
 19 20  1  6  0  0  0
 21 19  1  0  0  0  0
 21 22  1  6  0  0  0
 23 20  1  1  0  0  0
 23 24  1  0  0  0  0
 23 28  1  0  0  0  0
 24 25  1  6  0  0  0
 24 26  1  0  0  0  0
 26 27  1  0  0  0  0
 26 32  1  1  0  0  0
 27 28  1  0  0  0  0
 27 29  1  1  0  0  0
 29 30  1  0  0  0  0
 31 32  1  1  0  0  0
 31 40  1  0  0  0  0
 33 31  1  0  0  0  0
 33 42  1  6  0  0  0
 35 33  1  0  0  0  0
 35 36  1  1  0  0  0
 37 35  1  0  0  0  0
 37 38  1  1  0  0  0
 37 39  1  0  0  0  0
 39 40  1  0  0  0  0
 39 41  1  6  0  0  0
 41 34  1  0  0  0  0
M  END
>  <CHROM.1>
-156.78953466,-157.48383017,-157.55950835,143.46045172,149.69005968,79.86220262
-161.52375820,-175.13727989,-57.78837033,-0.44024357,92.21455385,11.32976510
1.15055696,0.68959528,2.02368216

>  <Name>
2fcy_lig

>  <RI>
0

>  <Rbt.Current_Directory>
/home/itssahil/PROJECTS/Mol_Feturizer/New_Systems/rnas/2fcy

>  <Rbt.Executable>
rbdock ($Id: //depot/dev/client3/rdock/2013.1/src/exe/rbdock.cxx#4 $)

>  <Rbt.Library>
libRbt.so (2013.1, Build901 2013/11/27)

>  <Rbt.Parameter_File>
/export/apps/rDock/src/rDock_2013.1_src/data/scripts/dock_solv.prm

>  <Rbt.Receptor>
prm/pocket_docking_2.prm

>  <SCORE>
-11.812

>  <SCORE.INTER>
-14.7235

>  <SCORE.INTER.CONST>
1

>  <SCORE.INTER.POLAR>
-0.959166

>  <SCORE.INTER.ROT>
9

>  <SCORE.INTER.SOLV>
17.2735

>  <SCORE.INTER.VDW>
-21.9763

>  <SCORE.INTER.norm>
-0.35056

>  <SCORE.INTRA>
1.78422

>  <SCORE.INTRA.DIHEDRAL>
0.636908

>  <SCORE.INTRA.DIHEDRAL.0>
17.3446

>  <SCORE.INTRA.POLAR>
0

>  <SCORE.INTRA.POLAR.0>
0

>  <SCORE.INTRA.REPUL>
0

>  <SCORE.INTRA.REPUL.0>
0

>  <SCORE.INTRA.SOLV>
-0.73998

>  <SCORE.INTRA.SOLV.lig_0>
-112.452

>  <SCORE.INTRA.VDW>
1.83576

>  <SCORE.INTRA.VDW.0>
-5.95059

>  <SCORE.INTRA.norm>
0.0424814

>  <SCORE.RESTR>
1.1273

>  <SCORE.RESTR.CAVITY>
1.1273

>  <SCORE.RESTR.norm>
0.0268406

>  <SCORE.SYSTEM>
0

>  <SCORE.SYSTEM.CONST>
0

>  <SCORE.SYSTEM.DIHEDRAL>
0

>  <SCORE.SYSTEM.SOLV>
0

>  <SCORE.SYSTEM.norm>
0

>  <SCORE.heavy>
42

>  <SCORE.norm>
-0.281238

>  <RMSD>
1.533

$$$$
2fcy_lig
 OpenBabel11021811433D
libRbt.so/2013.1/901 2013/11/27
 42 45  0  0  0  0  0  0  0  0999 V2000
   -0.4653   91.1931   13.9024 C   0  0  2  0  0  0  0  0  0  0  0  0
    0.1162   92.4906   14.1159 O   0  0  0  0  0  0  0  0  0  0  0  0
   -1.8108   91.2253   14.6289 C   0  0  2  0  0  0  0  0  0  0  0  0
   -2.5851   92.3725   14.1358 N   0  0  0  0  0  0  0  0  0  0  0  0
   -1.5768   91.3785   16.1339 C   0  0  1  0  0  0  0  0  0  0  0  0
   -2.8226   91.4068   16.8360 O   0  0  0  0  0  0  0  0  0  0  0  0
   -0.7075   90.2234   16.6318 C   0  0  2  0  0  0  0  0  0  0  0  0
   -0.4106   90.4202   18.0141 O   0  0  0  0  0  0  0  0  0  0  0  0
    0.6111   90.2297   15.8568 C   0  0  2  0  0  0  0  0  0  0  0  0
    0.3413   90.1299   14.4497 O   0  0  0  0  0  0  0  0  0  0  0  0
    1.4866   89.0706   16.3400 C   0  0  0  0  0  0  0  0  0  0  0  0
    2.2066   88.4512   15.2172 N   0  0  0  0  0  0  0  0  0  0  0  0
    2.6158   94.8630   11.7137 C   0  0  2  0  0  0  0  0  0  0  0  0
    3.6687   95.4736   10.8883 N   0  0  0  0  0  0  0  0  0  0  0  0
    3.1599   94.4758   13.0903 C   0  0  0  0  0  0  0  0  0  0  0  0
    1.9929   93.9711   13.9450 C   0  0  2  0  0  0  0  0  0  0  0  0
    2.5057   93.5110   15.2435 N   0  0  0  0  0  0  0  0  0  0  0  0
    1.2546   92.7988   13.2922 C   0  0  2  0  0  0  0  0  0  0  0  0
    0.8848   93.0151   11.8290 C   0  0  2  0  0  0  0  0  0  0  0  0
    0.5754   91.7105   11.3129 O   0  0  0  0  0  0  0  0  0  0  0  0
    2.0479   93.6171   11.0294 C   0  0  1  0  0  0  0  0  0  0  0  0
    1.6227   93.9937    9.7170 O   0  0  0  0  0  0  0  0  0  0  0  0
   -0.1444   91.6866   10.0697 C   0  0  1  0  0  0  0  0  0  0  0  0
   -0.0539   90.2656    9.5109 C   0  0  2  0  0  0  0  0  0  0  0  0
    1.1756   90.1063    8.7991 O   0  0  0  0  0  0  0  0  0  0  0  0
   -1.2123   90.3295    8.5197 C   0  0  1  0  0  0  0  0  0  0  0  0
   -2.2736   90.9964    9.3804 C   0  0  2  0  0  0  0  0  0  0  0  0
   -1.5588   91.9255   10.2210 O   0  0  0  0  0  0  0  0  0  0  0  0
   -2.9986   89.9245   10.2023 C   0  0  0  0  0  0  0  0  0  0  0  0
   -4.0480   90.5105   10.9780 O   0  0  0  0  0  0  0  0  0  0  0  0
   -1.7656   90.9453    6.3258 C   0  0  2  0  0  0  0  0  0  0  0  0
   -0.8641   91.1827    7.4178 O   0  0  0  0  0  0  0  0  0  0  0  0
   -1.3446   91.7920    5.1204 C   0  0  1  0  0  0  0  0  0  0  0  0
   -5.7294   90.4220    7.4102 N   0  0  0  0  0  0  0  0  0  0  0  0
   -2.3518   91.6318    3.9766 C   0  0  1  0  0  0  0  0  0  0  0  0
   -2.2894   90.3055    3.4424 O   0  0  0  0  0  0  0  0  0  0  0  0
   -3.7662   91.9208    4.4869 C   0  0  2  0  0  0  0  0  0  0  0  0
   -3.8417   93.2995    4.8648 O   0  0  0  0  0  0  0  0  0  0  0  0
   -4.0685   91.0275    5.6948 C   0  0  1  0  0  0  0  0  0  0  0  0
   -3.1052   91.2699    6.7370 O   0  0  0  0  0  0  0  0  0  0  0  0
   -5.4831   91.2645    6.2306 C   0  0  0  0  0  0  0  0  0  0  0  0
   -1.3200   93.2064    5.5229 N   0  0  0  0  0  0  0  0  0  0  0  0
  1  2  1  1  0  0  0
  1  3  1  0  0  0  0
  1 10  1  0  0  0  0
  3  4  1  6  0  0  0
  3  5  1  0  0  0  0
  5  6  1  1  0  0  0
  5  7  1  0  0  0  0
  7  8  1  1  0  0  0
  7  9  1  0  0  0  0
  9 10  1  0  0  0  0
  9 11  1  1  0  0  0
 11 12  1  0  0  0  0
 13 14  1  6  0  0  0
 13 15  1  0  0  0  0
 13 21  1  0  0  0  0
 16 15  1  0  0  0  0
 16 17  1  1  0  0  0
 18  2  1  1  0  0  0
 18 16  1  0  0  0  0
 19 18  1  0  0  0  0
 19 20  1  6  0  0  0
 21 19  1  0  0  0  0
 21 22  1  6  0  0  0
 23 20  1  1  0  0  0
 23 24  1  0  0  0  0
 23 28  1  0  0  0  0
 24 25  1  6  0  0  0
 24 26  1  0  0  0  0
 26 27  1  0  0  0  0
 26 32  1  6  0  0  0
 27 28  1  0  0  0  0
 27 29  1  1  0  0  0
 29 30  1  0  0  0  0
 31 32  1  1  0  0  0
 31 40  1  0  0  0  0
 33 31  1  0  0  0  0
 33 42  1  1  0  0  0
 35 33  1  0  0  0  0
 35 36  1  1  0  0  0
 37 35  1  0  0  0  0
 37 38  1  1  0  0  0
 37 39  1  0  0  0  0
 39 40  1  0  0  0  0
 39 41  1  1  0  0  0
 41 34  1  0  0  0  0
M  END
>  <CHROM.1>
-167.26941470,141.42543408,-162.10991791,163.73240180,165.36855506,163.57337467
-177.26845430,-176.59132659,-178.40740298,-0.79104948,91.65526179,10.78504291
1.17357500,0.52812230,1.77643958

>  <Name>
2fcy_lig

>  <RI>
4.13508e+07

>  <Rbt.Current_Directory>
/home/itssahil/PROJECTS/Mol_Feturizer/New_Systems/rnas/2fcy

>  <Rbt.Executable>
rbdock ($Id: //depot/dev/client3/rdock/2013.1/src/exe/rbdock.cxx#4 $)

>  <Rbt.Library>
libRbt.so (2013.1, Build901 2013/11/27)

>  <Rbt.Parameter_File>
/export/apps/rDock/src/rDock_2013.1_src/data/scripts/dock_solv.prm

>  <Rbt.Receptor>
prm/pocket_docking_3.prm

>  <SCORE>
-18.5951

>  <SCORE.INTER>
-14.81

>  <SCORE.INTER.CONST>
1

>  <SCORE.INTER.POLAR>
-1.84879

>  <SCORE.INTER.ROT>
9

>  <SCORE.INTER.SOLV>
24.5761

>  <SCORE.INTER.VDW>
-21.5027

>  <SCORE.INTER.norm>
-0.352618

>  <SCORE.INTRA>
-3.78514

>  <SCORE.INTRA.DIHEDRAL>
-7.3059

>  <SCORE.INTRA.DIHEDRAL.0>
17.3446

>  <SCORE.INTRA.POLAR>
0

>  <SCORE.INTRA.POLAR.0>
0

>  <SCORE.INTRA.REPUL>
0

>  <SCORE.INTRA.REPUL.0>
0

>  <SCORE.INTRA.SOLV>
-3.54036

>  <SCORE.INTRA.SOLV.lig_0>
-112.452

>  <SCORE.INTRA.VDW>
1.63799

>  <SCORE.INTRA.VDW.0>
-5.95059

>  <SCORE.INTRA.norm>
-0.0901224

>  <SCORE.RESTR>
0

>  <SCORE.RESTR.CAVITY>
0

>  <SCORE.RESTR.norm>
0

>  <SCORE.SYSTEM>
0

>  <SCORE.SYSTEM.CONST>
0

>  <SCORE.SYSTEM.DIHEDRAL>
0

>  <SCORE.SYSTEM.SOLV>
0

>  <SCORE.SYSTEM.norm>
0

>  <SCORE.heavy>
42

>  <SCORE.norm>
-0.442741

>  <RMSD>
1.553

$$$$
2fcy_lig
 OpenBabel11021811433D
libRbt.so/2013.1/901 2013/11/27
 42 45  0  0  0  0  0  0  0  0999 V2000
    0.3129   90.9958   14.4649 C   0  0  2  0  0  0  0  0  0  0  0  0
    0.8212   92.2688   14.8989 O   0  0  0  0  0  0  0  0  0  0  0  0
   -1.0812   90.8816   15.0832 C   0  0  2  0  0  0  0  0  0  0  0  0
   -1.8670   92.0607   14.6945 N   0  0  0  0  0  0  0  0  0  0  0  0
   -0.9624   90.8296   16.6084 C   0  0  1  0  0  0  0  0  0  0  0  0
   -2.2553   90.7182   17.2099 O   0  0  0  0  0  0  0  0  0  0  0  0
   -0.0819   89.6452   17.0081 C   0  0  2  0  0  0  0  0  0  0  0  0
    0.1065   89.6556   18.4231 O   0  0  0  0  0  0  0  0  0  0  0  0
    1.2872   89.8034   16.3451 C   0  0  2  0  0  0  0  0  0  0  0  0
    1.1235   89.8933   14.9211 O   0  0  0  0  0  0  0  0  0  0  0  0
    2.1751   88.6172   16.7302 C   0  0  0  0  0  0  0  0  0  0  0  0
    3.5941   88.9240   16.4957 N   0  0  0  0  0  0  0  0  0  0  0  0
    3.1140   95.2235   12.9859 C   0  0  2  0  0  0  0  0  0  0  0  0
    4.1011   96.0473   12.2719 N   0  0  0  0  0  0  0  0  0  0  0  0
    3.7465   94.5539   14.2076 C   0  0  0  0  0  0  0  0  0  0  0  0
    2.6445   93.8219   14.9802 C   0  0  2  0  0  0  0  0  0  0  0  0
    3.2432   93.0979   16.1108 N   0  0  0  0  0  0  0  0  0  0  0  0
    1.9017   92.8015   14.1126 C   0  0  2  0  0  0  0  0  0  0  0  0
    1.4428   93.3315   12.7587 C   0  0  2  0  0  0  0  0  0  0  0  0
    1.1395   92.1680   11.9723 O   0  0  0  0  0  0  0  0  0  0  0  0
    2.5415   94.1454   12.0624 C   0  0  1  0  0  0  0  0  0  0  0  0
    2.0317   94.7947   10.8947 O   0  0  0  0  0  0  0  0  0  0  0  0
    0.2541   92.3805   10.8608 C   0  0  1  0  0  0  0  0  0  0  0  0
    0.0732   91.0376   10.1513 C   0  0  2  0  0  0  0  0  0  0  0  0
    1.1568   90.8233    9.2439 O   0  0  0  0  0  0  0  0  0  0  0  0
   -1.1948   91.3571    9.3649 C   0  0  1  0  0  0  0  0  0  0  0  0
   -2.0243   92.0339   10.4448 C   0  0  2  0  0  0  0  0  0  0  0  0
   -1.0795   92.7633   11.2547 O   0  0  0  0  0  0  0  0  0  0  0  0
   -2.7628   90.9621   11.2548 C   0  0  0  0  0  0  0  0  0  0  0  0
   -1.8432   90.2180   12.0593 O   0  0  0  0  0  0  0  0  0  0  0  0
   -2.1049   92.6407    7.6263 C   0  0  2  0  0  0  0  0  0  0  0  0
   -0.8950   92.2917    8.3160 O   0  0  0  0  0  0  0  0  0  0  0  0
   -2.0847   92.0367    6.2185 C   0  0  1  0  0  0  0  0  0  0  0  0
   -3.4281   96.4652    8.3887 N   0  0  0  0  0  0  0  0  0  0  0  0
   -3.3203   92.4810    5.4284 C   0  0  1  0  0  0  0  0  0  0  0  0
   -4.5019   91.8953    5.9843 O   0  0  0  0  0  0  0  0  0  0  0  0
   -3.4333   94.0077    5.4578 C   0  0  2  0  0  0  0  0  0  0  0  0
   -2.3168   94.5611    4.7532 O   0  0  0  0  0  0  0  0  0  0  0  0
   -3.4316   94.4945    6.9109 C   0  0  1  0  0  0  0  0  0  0  0  0
   -2.2216   94.0732    7.5675 O   0  0  0  0  0  0  0  0  0  0  0  0
   -3.5640   96.0175    6.9948 C   0  0  0  0  0  0  0  0  0  0  0  0
   -0.8859   92.5184    5.5156 N   0  0  0  0  0  0  0  0  0  0  0  0
  1  2  1  1  0  0  0
  1  3  1  0  0  0  0
  1 10  1  0  0  0  0
  3  4  1  1  0  0  0
  3  5  1  0  0  0  0
  5  6  1  1  0  0  0
  5  7  1  0  0  0  0
  7  8  1  1  0  0  0
  7  9  1  0  0  0  0
  9 10  1  0  0  0  0
  9 11  1  6  0  0  0
 11 12  1  0  0  0  0
 13 14  1  6  0  0  0
 13 15  1  0  0  0  0
 13 21  1  0  0  0  0
 16 15  1  0  0  0  0
 16 17  1  1  0  0  0
 18  2  1  1  0  0  0
 18 16  1  0  0  0  0
 19 18  1  0  0  0  0
 19 20  1  6  0  0  0
 21 19  1  0  0  0  0
 21 22  1  6  0  0  0
 23 20  1  1  0  0  0
 23 24  1  0  0  0  0
 23 28  1  0  0  0  0
 24 25  1  6  0  0  0
 24 26  1  0  0  0  0
 26 27  1  0  0  0  0
 26 32  1  6  0  0  0
 27 28  1  0  0  0  0
 27 29  1  1  0  0  0
 29 30  1  0  0  0  0
 31 32  1  6  0  0  0
 31 40  1  0  0  0  0
 33 31  1  0  0  0  0
 33 42  1  6  0  0  0
 35 33  1  0  0  0  0
 35 36  1  1  0  0  0
 37 35  1  0  0  0  0
 37 38  1  6  0  0  0
 37 39  1  0  0  0  0
 39 40  1  0  0  0  0
 39 41  1  6  0  0  0
 41 34  1  0  0  0  0
M  END
>  <CHROM.1>
-160.14939292,-161.59811839,-158.79012016,158.48080825,179.36627336,-176.98621584
70.35150522,-110.13049800,-174.51188506,-0.26670752,92.35137376,11.63477714
1.10057968,0.61952425,2.11845671

>  <Name>
2fcy_lig

>  <RI>
0

>  <Rbt.Current_Directory>
/home/itssahil/PROJECTS/Mol_Feturizer/New_Systems/rnas/2fcy

>  <Rbt.Executable>
rbdock ($Id: //depot/dev/client3/rdock/2013.1/src/exe/rbdock.cxx#4 $)

>  <Rbt.Library>
libRbt.so (2013.1, Build901 2013/11/27)

>  <Rbt.Parameter_File>
/export/apps/rDock/src/rDock_2013.1_src/data/scripts/dock_solv.prm

>  <Rbt.Receptor>
prm/pocket_docking_2.prm

>  <SCORE>
-18.5553

>  <SCORE.INTER>
-17.7978

>  <SCORE.INTER.CONST>
1

>  <SCORE.INTER.POLAR>
-1.7441

>  <SCORE.INTER.ROT>
9

>  <SCORE.INTER.SOLV>
19.9047

>  <SCORE.INTER.VDW>
-22.2865

>  <SCORE.INTER.norm>
-0.423758

>  <SCORE.INTRA>
-1.36512

>  <SCORE.INTRA.DIHEDRAL>
-2.58946

>  <SCORE.INTRA.DIHEDRAL.0>
17.3446

>  <SCORE.INTRA.POLAR>
0

>  <SCORE.INTRA.POLAR.0>
0

>  <SCORE.INTRA.REPUL>
0

>  <SCORE.INTRA.REPUL.0>
0

>  <SCORE.INTRA.SOLV>
-2.28668

>  <SCORE.INTRA.SOLV.lig_0>
-112.452

>  <SCORE.INTRA.VDW>
1.07295

>  <SCORE.INTRA.VDW.0>
-5.95059

>  <SCORE.INTRA.norm>
-0.0325028

>  <SCORE.RESTR>
0.607644

>  <SCORE.RESTR.CAVITY>
0.607644

>  <SCORE.RESTR.norm>
0.0144677

>  <SCORE.SYSTEM>
0

>  <SCORE.SYSTEM.CONST>
0

>  <SCORE.SYSTEM.DIHEDRAL>
0

>  <SCORE.SYSTEM.SOLV>
0

>  <SCORE.SYSTEM.norm>
0

>  <SCORE.heavy>
42

>  <SCORE.norm>
-0.441793

>  <RMSD>
1.559

$$$$
2fcy_lig
 OpenBabel11021811433D
libRbt.so/2013.1/901 2013/11/27
 42 45  0  0  0  0  0  0  0  0999 V2000
   -0.1895   91.4413   13.9118 C   0  0  2  0  0  0  0  0  0  0  0  0
    0.1844   92.7966   14.2128 O   0  0  0  0  0  0  0  0  0  0  0  0
   -1.4985   91.2028   14.6658 C   0  0  2  0  0  0  0  0  0  0  0  0
   -2.4615   92.2428   14.2786 N   0  0  0  0  0  0  0  0  0  0  0  0
   -1.2432   91.2818   16.1731 C   0  0  1  0  0  0  0  0  0  0  0  0
   -2.4540   91.0574   16.9006 O   0  0  0  0  0  0  0  0  0  0  0  0
   -0.1850   90.2491   16.5626 C   0  0  2  0  0  0  0  0  0  0  0  0
    0.1215   90.3900   17.9497 O   0  0  0  0  0  0  0  0  0  0  0  0
    1.0898   90.5246   15.7637 C   0  0  2  0  0  0  0  0  0  0  0  0
    0.7938   90.4853   14.3590 O   0  0  0  0  0  0  0  0  0  0  0  0
    2.1542   89.4900   16.1382 C   0  0  0  0  0  0  0  0  0  0  0  0
    2.0940   88.3252   15.2425 N   0  0  0  0  0  0  0  0  0  0  0  0
    2.3596   95.6653   12.0482 C   0  0  2  0  0  0  0  0  0  0  0  0
    3.3277   96.4757   11.2939 N   0  0  0  0  0  0  0  0  0  0  0  0
    2.9349   95.2540   13.4049 C   0  0  0  0  0  0  0  0  0  0  0  0
    1.8388   94.5302   14.1935 C   0  0  2  0  0  0  0  0  0  0  0  0
    2.3943   94.0484   15.4664 N   0  0  0  0  0  0  0  0  0  0  0  0
    1.2791   93.3201   13.4400 C   0  0  2  0  0  0  0  0  0  0  0  0
    0.9012   93.5932   11.9885 C   0  0  2  0  0  0  0  0  0  0  0  0
    0.7828   92.3011   11.3715 O   0  0  0  0  0  0  0  0  0  0  0  0
    1.9792   94.4083   11.2619 C   0  0  1  0  0  0  0  0  0  0  0  0
    1.5223   94.8207    9.9711 O   0  0  0  0  0  0  0  0  0  0  0  0
    0.0791   92.2704   10.1193 C   0  0  1  0  0  0  0  0  0  0  0  0
   -0.0617   90.8049    9.7045 C   0  0  2  0  0  0  0  0  0  0  0  0
    1.1304   90.3759    9.0422 O   0  0  0  0  0  0  0  0  0  0  0  0
   -1.1855   90.9574    8.6835 C   0  0  1  0  0  0  0  0  0  0  0  0
   -2.1291   91.8720    9.4485 C   0  0  2  0  0  0  0  0  0  0  0  0
   -1.2775   92.7514   10.2116 O   0  0  0  0  0  0  0  0  0  0  0  0
   -3.0279   91.0212   10.3532 C   0  0  0  0  0  0  0  0  0  0  0  0
   -3.8425   90.1439    9.5701 O   0  0  0  0  0  0  0  0  0  0  0  0
   -1.7399   91.7147    6.5347 C   0  0  2  0  0  0  0  0  0  0  0  0
   -0.6921   91.6271    7.5124 O   0  0  0  0  0  0  0  0  0  0  0  0
   -1.1270   91.8752    5.1398 C   0  0  1  0  0  0  0  0  0  0  0  0
   -5.1420   93.7846    7.7299 N   0  0  0  0  0  0  0  0  0  0  0  0
   -2.2275   92.0729    4.0918 C   0  0  1  0  0  0  0  0  0  0  0  0
   -2.9919   90.8723    3.9423 O   0  0  0  0  0  0  0  0  0  0  0  0
   -3.1446   93.2241    4.5138 C   0  0  2  0  0  0  0  0  0  0  0  0
   -2.3876   94.4391    4.4986 O   0  0  0  0  0  0  0  0  0  0  0  0
   -3.6854   92.9594    5.9230 C   0  0  1  0  0  0  0  0  0  0  0  0
   -2.5924   92.8292    6.8510 O   0  0  0  0  0  0  0  0  0  0  0  0
   -4.6271   94.0753    6.3837 C   0  0  0  0  0  0  0  0  0  0  0  0
   -0.2644   93.0664    5.1378 N   0  0  0  0  0  0  0  0  0  0  0  0
  1  2  1  1  0  0  0
  1  3  1  0  0  0  0
  1 10  1  0  0  0  0
  3  4  1  6  0  0  0
  3  5  1  0  0  0  0
  5  6  1  1  0  0  0
  5  7  1  0  0  0  0
  7  8  1  1  0  0  0
  7  9  1  0  0  0  0
  9 10  1  0  0  0  0
  9 11  1  6  0  0  0
 11 12  1  0  0  0  0
 13 14  1  6  0  0  0
 13 15  1  0  0  0  0
 13 21  1  0  0  0  0
 16 15  1  0  0  0  0
 16 17  1  1  0  0  0
 18  2  1  1  0  0  0
 18 16  1  0  0  0  0
 19 18  1  0  0  0  0
 19 20  1  6  0  0  0
 21 19  1  0  0  0  0
 21 22  1  6  0  0  0
 23 20  1  1  0  0  0
 23 24  1  0  0  0  0
 23 28  1  0  0  0  0
 24 25  1  6  0  0  0
 24 26  1  0  0  0  0
 26 27  1  0  0  0  0
 26 32  1  6  0  0  0
 27 28  1  0  0  0  0
 27 29  1  1  0  0  0
 29 30  1  0  0  0  0
 31 32  1  1  0  0  0
 31 40  1  0  0  0  0
 33 31  1  0  0  0  0
 33 42  1  1  0  0  0
 35 33  1  0  0  0  0
 35 36  1  1  0  0  0
 37 35  1  0  0  0  0
 37 38  1  1  0  0  0
 37 39  1  0  0  0  0
 39 40  1  0  0  0  0
 39 41  1  1  0  0  0
 41 34  1  0  0  0  0
M  END
>  <CHROM.1>
-170.41769210,91.51454546,-160.82296947,163.22708985,-174.31770736,177.52374532
-62.71200553,-156.86682518,179.27554022,-0.57044027,92.28377529,10.84461349
1.15231687,0.69411909,1.94888419

>  <Name>
2fcy_lig

>  <RI>
4.13508e+07

>  <Rbt.Current_Directory>
/home/itssahil/PROJECTS/Mol_Feturizer/New_Systems/rnas/2fcy

>  <Rbt.Executable>
rbdock ($Id: //depot/dev/client3/rdock/2013.1/src/exe/rbdock.cxx#4 $)

>  <Rbt.Library>
libRbt.so (2013.1, Build901 2013/11/27)

>  <Rbt.Parameter_File>
/export/apps/rDock/src/rDock_2013.1_src/data/scripts/dock_solv.prm

>  <Rbt.Receptor>
prm/pocket_docking_3.prm

>  <SCORE>
-17.3522

>  <SCORE.INTER>
-13.2563

>  <SCORE.INTER.CONST>
1

>  <SCORE.INTER.POLAR>
-1.87916

>  <SCORE.INTER.ROT>
9

>  <SCORE.INTER.SOLV>
21.6274

>  <SCORE.INTER.VDW>
-19.3828

>  <SCORE.INTER.norm>
-0.315626

>  <SCORE.INTRA>
-4.09592

>  <SCORE.INTRA.DIHEDRAL>
-7.9536

>  <SCORE.INTRA.DIHEDRAL.0>
17.3446

>  <SCORE.INTRA.POLAR>
0

>  <SCORE.INTRA.POLAR.0>
0

>  <SCORE.INTRA.REPUL>
0

>  <SCORE.INTRA.REPUL.0>
0

>  <SCORE.INTRA.SOLV>
-3.49741

>  <SCORE.INTRA.SOLV.lig_0>
-112.452

>  <SCORE.INTRA.VDW>
1.62959

>  <SCORE.INTRA.VDW.0>
-5.95059

>  <SCORE.INTRA.norm>
-0.0975219

>  <SCORE.RESTR>
0

>  <SCORE.RESTR.CAVITY>
0

>  <SCORE.RESTR.norm>
0

>  <SCORE.SYSTEM>
0

>  <SCORE.SYSTEM.CONST>
0

>  <SCORE.SYSTEM.DIHEDRAL>
0

>  <SCORE.SYSTEM.SOLV>
0

>  <SCORE.SYSTEM.norm>
0

>  <SCORE.heavy>
42

>  <SCORE.norm>
-0.413148

>  <RMSD>
1.562

$$$$
2fcy_lig
 OpenBabel11021811433D
libRbt.so/2013.1/901 2013/11/27
 42 45  0  0  0  0  0  0  0  0999 V2000
    0.4150   90.9364   14.4872 C   0  0  2  0  0  0  0  0  0  0  0  0
    0.8966   92.2251   14.9049 O   0  0  0  0  0  0  0  0  0  0  0  0
   -0.9948   90.8203   15.0686 C   0  0  2  0  0  0  0  0  0  0  0  0
   -1.7823   91.9807   14.6302 N   0  0  0  0  0  0  0  0  0  0  0  0
   -0.9187   90.8055   16.5974 C   0  0  1  0  0  0  0  0  0  0  0  0
   -2.2268   90.6931   17.1649 O   0  0  0  0  0  0  0  0  0  0  0  0
   -0.0367   89.6413   17.0497 C   0  0  2  0  0  0  0  0  0  0  0  0
    0.1114   89.6870   18.4687 O   0  0  0  0  0  0  0  0  0  0  0  0
    1.3488   89.8000   16.4218 C   0  0  2  0  0  0  0  0  0  0  0  0
    1.2244   89.8546   14.9921 O   0  0  0  0  0  0  0  0  0  0  0  0
    2.2385   88.6336   16.8597 C   0  0  0  0  0  0  0  0  0  0  0  0
    3.6298   88.8435   16.4319 N   0  0  0  0  0  0  0  0  0  0  0  0
    3.1610   95.1992   12.9881 C   0  0  2  0  0  0  0  0  0  0  0  0
    4.1396   96.0313   12.2720 N   0  0  0  0  0  0  0  0  0  0  0  0
    3.8019   94.5338   14.2076 C   0  0  0  0  0  0  0  0  0  0  0  0
    2.7077   93.7925   14.9825 C   0  0  2  0  0  0  0  0  0  0  0  0
    3.3151   93.0725   16.1111 N   0  0  0  0  0  0  0  0  0  0  0  0
    1.9708   92.7670   14.1162 C   0  0  2  0  0  0  0  0  0  0  0  0
    1.5042   93.2942   12.7639 C   0  0  2  0  0  0  0  0  0  0  0  0
    1.2080   92.1290   11.9774 O   0  0  0  0  0  0  0  0  0  0  0  0
    2.5946   94.1173   12.0652 C   0  0  1  0  0  0  0  0  0  0  0  0
    2.0766   94.7634   10.8993 O   0  0  0  0  0  0  0  0  0  0  0  0
    0.2949   92.3290   10.8863 C   0  0  1  0  0  0  0  0  0  0  0  0
    0.1402   90.9906   10.1623 C   0  0  2  0  0  0  0  0  0  0  0  0
    1.2116   90.8209    9.2312 O   0  0  0  0  0  0  0  0  0  0  0  0
   -1.1521   91.2819    9.4049 C   0  0  1  0  0  0  0  0  0  0  0  0
   -1.9800   91.9193   10.5097 C   0  0  2  0  0  0  0  0  0  0  0  0
   -1.0416   92.6663   11.3111 O   0  0  0  0  0  0  0  0  0  0  0  0
   -2.6699   90.8152   11.3193 C   0  0  0  0  0  0  0  0  0  0  0  0
   -3.4546   91.3808   12.3732 O   0  0  0  0  0  0  0  0  0  0  0  0
   -2.1272   92.5284    7.6746 C   0  0  2  0  0  0  0  0  0  0  0  0
   -0.9011   92.2387    8.3632 O   0  0  0  0  0  0  0  0  0  0  0  0
   -2.0759   91.9326    6.2641 C   0  0  1  0  0  0  0  0  0  0  0  0
   -2.4961   96.4989    7.4080 N   0  0  0  0  0  0  0  0  0  0  0  0
   -3.3325   92.3167    5.4755 C   0  0  1  0  0  0  0  0  0  0  0  0
   -4.4827   91.6688    6.0283 O   0  0  0  0  0  0  0  0  0  0  0  0
   -3.5236   93.8354    5.5119 C   0  0  2  0  0  0  0  0  0  0  0  0
   -2.4367   94.4485    4.8102 O   0  0  0  0  0  0  0  0  0  0  0  0
   -3.5469   94.3151    6.9671 C   0  0  1  0  0  0  0  0  0  0  0  0
   -2.3171   93.9533    7.6222 O   0  0  0  0  0  0  0  0  0  0  0  0
   -3.7572   95.8290    7.0578 C   0  0  0  0  0  0  0  0  0  0  0  0
   -0.9033   92.4783    5.5639 N   0  0  0  0  0  0  0  0  0  0  0  0
  1  2  1  1  0  0  0
  1  3  1  0  0  0  0
  1 10  1  0  0  0  0
  3  4  1  1  0  0  0
  3  5  1  0  0  0  0
  5  6  1  1  0  0  0
  5  7  1  0  0  0  0
  7  8  1  1  0  0  0
  7  9  1  0  0  0  0
  9 10  1  0  0  0  0
  9 11  1  6  0  0  0
 11 12  1  0  0  0  0
 13 14  1  6  0  0  0
 13 15  1  0  0  0  0
 13 21  1  0  0  0  0
 16 15  1  0  0  0  0
 16 17  1  1  0  0  0
 18  2  1  1  0  0  0
 18 16  1  0  0  0  0
 19 18  1  0  0  0  0
 19 20  1  6  0  0  0
 21 19  1  0  0  0  0
 21 22  1  6  0  0  0
 23 20  1  1  0  0  0
 23 24  1  0  0  0  0
 23 28  1  0  0  0  0
 24 25  1  6  0  0  0
 24 26  1  0  0  0  0
 26 27  1  0  0  0  0
 26 32  1  6  0  0  0
 27 28  1  0  0  0  0
 27 29  1  1  0  0  0
 29 30  1  0  0  0  0
 31 32  1  6  0  0  0
 31 40  1  0  0  0  0
 33 31  1  0  0  0  0
 33 42  1  6  0  0  0
 35 33  1  0  0  0  0
 35 36  1  1  0  0  0
 37 35  1  0  0  0  0
 37 38  1  6  0  0  0
 37 39  1  0  0  0  0
 39 40  1  0  0  0  0
 39 41  1  6  0  0  0
 41 34  1  0  0  0  0
M  END
>  <CHROM.1>
-158.65982883,-172.13895231,-157.61438789,157.15684676,178.65676438,-178.77517667
179.75605738,-109.94467716,-105.16059515,-0.26385830,92.32037351,11.64476022
1.10510597,0.57912717,2.08927889

>  <Name>
2fcy_lig

>  <RI>
0

>  <Rbt.Current_Directory>
/home/itssahil/PROJECTS/Mol_Feturizer/New_Systems/rnas/2fcy

>  <Rbt.Executable>
rbdock ($Id: //depot/dev/client3/rdock/2013.1/src/exe/rbdock.cxx#4 $)

>  <Rbt.Library>
libRbt.so (2013.1, Build901 2013/11/27)

>  <Rbt.Parameter_File>
/export/apps/rDock/src/rDock_2013.1_src/data/scripts/dock_solv.prm

>  <Rbt.Receptor>
prm/pocket_docking_2.prm

>  <SCORE>
-16.0385

>  <SCORE.INTER>
-17.2971

>  <SCORE.INTER.CONST>
1

>  <SCORE.INTER.POLAR>
-1.69967

>  <SCORE.INTER.ROT>
9

>  <SCORE.INTER.SOLV>
19.9388

>  <SCORE.INTER.VDW>
-22.1121

>  <SCORE.INTER.norm>
-0.411835

>  <SCORE.INTRA>
1.08567

>  <SCORE.INTRA.DIHEDRAL>
1.1663

>  <SCORE.INTRA.DIHEDRAL.0>
17.3446

>  <SCORE.INTRA.POLAR>
0

>  <SCORE.INTRA.POLAR.0>
0

>  <SCORE.INTRA.REPUL>
0

>  <SCORE.INTRA.REPUL.0>
0

>  <SCORE.INTRA.SOLV>
-1.32861

>  <SCORE.INTRA.SOLV.lig_0>
-112.452

>  <SCORE.INTRA.VDW>
1.16683

>  <SCORE.INTRA.VDW.0>
-5.95059

>  <SCORE.INTRA.norm>
0.0258493

>  <SCORE.RESTR>
0.172905

>  <SCORE.RESTR.CAVITY>
0.172905

>  <SCORE.RESTR.norm>
0.00411679

>  <SCORE.SYSTEM>
0

>  <SCORE.SYSTEM.CONST>
0

>  <SCORE.SYSTEM.DIHEDRAL>
0

>  <SCORE.SYSTEM.SOLV>
0

>  <SCORE.SYSTEM.norm>
0

>  <SCORE.heavy>
42

>  <SCORE.norm>
-0.381868

>  <RMSD>
1.567

$$$$
2fcy_lig
 OpenBabel11021811433D
libRbt.so/2013.1/901 2013/11/27
 42 45  0  0  0  0  0  0  0  0999 V2000
   -0.2299   91.3837   13.9025 C   0  0  2  0  0  0  0  0  0  0  0  0
    0.2062   92.7194   14.2075 O   0  0  0  0  0  0  0  0  0  0  0  0
   -1.5883   91.2321   14.5887 C   0  0  2  0  0  0  0  0  0  0  0  0
   -2.4673   92.3202   14.1392 N   0  0  0  0  0  0  0  0  0  0  0  0
   -1.4078   91.3178   16.1064 C   0  0  1  0  0  0  0  0  0  0  0  0
   -2.6661   91.1742   16.7712 O   0  0  0  0  0  0  0  0  0  0  0  0
   -0.4336   90.2315   16.5631 C   0  0  2  0  0  0  0  0  0  0  0  0
   -0.1923   90.3745   17.9628 O   0  0  0  0  0  0  0  0  0  0  0  0
    0.8951   90.4215   15.8298 C   0  0  2  0  0  0  0  0  0  0  0  0
    0.6711   90.3791   14.4119 O   0  0  0  0  0  0  0  0  0  0  0  0
    1.8762   89.3326   16.2719 C   0  0  0  0  0  0  0  0  0  0  0  0
    2.1295   88.3784   15.1820 N   0  0  0  0  0  0  0  0  0  0  0  0
    2.4557   95.4925   11.9948 C   0  0  2  0  0  0  0  0  0  0  0  0
    3.4443   96.2638   11.2262 N   0  0  0  0  0  0  0  0  0  0  0  0
    3.0225   95.0862   13.3566 C   0  0  0  0  0  0  0  0  0  0  0  0
    1.9084   94.4055   14.1583 C   0  0  2  0  0  0  0  0  0  0  0  0
    2.4532   93.9280   15.4374 N   0  0  0  0  0  0  0  0  0  0  0  0
    1.3133   93.2001   13.4247 C   0  0  2  0  0  0  0  0  0  0  0  0
    0.9398   93.4613   11.9698 C   0  0  2  0  0  0  0  0  0  0  0  0
    0.7840   92.1637   11.3731 O   0  0  0  0  0  0  0  0  0  0  0  0
    2.0385   94.2347   11.2287 C   0  0  1  0  0  0  0  0  0  0  0  0
    1.5903   94.6399    9.9325 O   0  0  0  0  0  0  0  0  0  0  0  0
    0.0801   92.1340   10.1209 C   0  0  1  0  0  0  0  0  0  0  0  0
    0.0169   90.6765    9.6611 C   0  0  2  0  0  0  0  0  0  0  0  0
    1.2287   90.3326    8.9852 O   0  0  0  0  0  0  0  0  0  0  0  0
   -1.1157   90.8000    8.6461 C   0  0  1  0  0  0  0  0  0  0  0  0
   -2.1051   91.6388    9.4395 C   0  0  2  0  0  0  0  0  0  0  0  0
   -1.3001   92.5386   10.2288 O   0  0  0  0  0  0  0  0  0  0  0  0
   -2.9551   90.7136   10.3180 C   0  0  0  0  0  0  0  0  0  0  0  0
   -3.6889   89.7885    9.5105 O   0  0  0  0  0  0  0  0  0  0  0  0
   -1.6792   91.5094    6.4833 C   0  0  2  0  0  0  0  0  0  0  0  0
   -0.6615   91.5309    7.4959 O   0  0  0  0  0  0  0  0  0  0  0  0
   -1.0596   91.8598    5.1266 C   0  0  1  0  0  0  0  0  0  0  0  0
   -4.3916   94.7126    6.6460 N   0  0  0  0  0  0  0  0  0  0  0  0
   -2.1454   91.9426    4.0484 C   0  0  1  0  0  0  0  0  0  0  0  0
   -2.6946   90.6452    3.7963 O   0  0  0  0  0  0  0  0  0  0  0  0
   -3.2537   92.8973    4.5008 C   0  0  2  0  0  0  0  0  0  0  0  0
   -2.7093   94.2184    4.5893 O   0  0  0  0  0  0  0  0  0  0  0  0
   -3.7853   92.4553    5.8685 C   0  0  1  0  0  0  0  0  0  0  0  0
   -2.7144   92.4456    6.8307 O   0  0  0  0  0  0  0  0  0  0  0  0
   -4.9130   93.3687    6.3565 C   0  0  0  0  0  0  0  0  0  0  0  0
   -0.4076   93.1740    5.2311 N   0  0  0  0  0  0  0  0  0  0  0  0
  1  2  1  1  0  0  0
  1  3  1  0  0  0  0
  1 10  1  0  0  0  0
  3  4  1  6  0  0  0
  3  5  1  0  0  0  0
  5  6  1  1  0  0  0
  5  7  1  0  0  0  0
  7  8  1  1  0  0  0
  7  9  1  0  0  0  0
  9 10  1  0  0  0  0
  9 11  1  1  0  0  0
 11 12  1  0  0  0  0
 13 14  1  6  0  0  0
 13 15  1  0  0  0  0
 13 21  1  0  0  0  0
 16 15  1  0  0  0  0
 16 17  1  1  0  0  0
 18  2  1  1  0  0  0
 18 16  1  0  0  0  0
 19 18  1  0  0  0  0
 19 20  1  6  0  0  0
 21 19  1  0  0  0  0
 21 22  1  6  0  0  0
 23 20  1  1  0  0  0
 23 24  1  0  0  0  0
 23 28  1  0  0  0  0
 24 25  1  6  0  0  0
 24 26  1  0  0  0  0
 26 27  1  0  0  0  0
 26 32  1  6  0  0  0
 27 28  1  0  0  0  0
 27 29  1  1  0  0  0
 29 30  1  0  0  0  0
 31 32  1  1  0  0  0
 31 40  1  0  0  0  0
 33 31  1  0  0  0  0
 33 42  1  1  0  0  0
 35 33  1  0  0  0  0
 35 36  1  1  0  0  0
 37 35  1  0  0  0  0
 37 38  1  1  0  0  0
 37 39  1  0  0  0  0
 39 40  1  0  0  0  0
 39 41  1  1  0  0  0
 41 34  1  0  0  0  0
M  END
>  <CHROM.1>
-166.44826027,110.33483905,-162.47302544,163.39698462,-179.75744993,173.37015284
-60.75213584,-161.33933243,-67.16287234,-0.57857159,92.16130342,10.79584434
1.16410180,0.69193902,1.92630142

>  <Name>
2fcy_lig

>  <RI>
0

>  <Rbt.Current_Directory>
/home/itssahil/PROJECTS/Mol_Feturizer/New_Systems/rnas/2fcy

>  <Rbt.Executable>
rbdock ($Id: //depot/dev/client3/rdock/2013.1/src/exe/rbdock.cxx#4 $)

>  <Rbt.Library>
libRbt.so (2013.1, Build901 2013/11/27)

>  <Rbt.Parameter_File>
/export/apps/rDock/src/rDock_2013.1_src/data/scripts/dock_solv.prm

>  <Rbt.Receptor>
prm/pocket_docking_5.prm

>  <SCORE>
-16.5927

>  <SCORE.INTER>
-14.1293

>  <SCORE.INTER.CONST>
1

>  <SCORE.INTER.POLAR>
-1.95937

>  <SCORE.INTER.ROT>
9

>  <SCORE.INTER.SOLV>
22.6496

>  <SCORE.INTER.VDW>
-20.0382

>  <SCORE.INTER.norm>
-0.336412

>  <SCORE.INTRA>
-2.46345

>  <SCORE.INTRA.DIHEDRAL>
-6.2762

>  <SCORE.INTRA.DIHEDRAL.0>
17.3446

>  <SCORE.INTRA.POLAR>
0

>  <SCORE.INTRA.POLAR.0>
0

>  <SCORE.INTRA.REPUL>
0

>  <SCORE.INTRA.REPUL.0>
0

>  <SCORE.INTRA.SOLV>
-2.49028

>  <SCORE.INTRA.SOLV.lig_0>
-112.452

>  <SCORE.INTRA.VDW>
1.91979

>  <SCORE.INTRA.VDW.0>
-5.95059

>  <SCORE.INTRA.norm>
-0.0586536

>  <SCORE.RESTR>
0

>  <SCORE.RESTR.CAVITY>
0

>  <SCORE.RESTR.norm>
0

>  <SCORE.SYSTEM>
0

>  <SCORE.SYSTEM.CONST>
0

>  <SCORE.SYSTEM.DIHEDRAL>
0

>  <SCORE.SYSTEM.SOLV>
0

>  <SCORE.SYSTEM.norm>
0

>  <SCORE.heavy>
42

>  <SCORE.norm>
-0.395065

>  <RMSD>
1.572

$$$$
2fcy_lig
 OpenBabel11021811433D
libRbt.so/2013.1/901 2013/11/27
 42 45  0  0  0  0  0  0  0  0999 V2000
    0.0413   91.3765   14.0470 C   0  0  2  0  0  0  0  0  0  0  0  0
    0.4893   92.6448   14.5549 O   0  0  0  0  0  0  0  0  0  0  0  0
   -1.3171   91.1309   14.7054 C   0  0  2  0  0  0  0  0  0  0  0  0
   -2.1876   92.2829   14.4335 N   0  0  0  0  0  0  0  0  0  0  0  0
   -1.1333   90.9778   16.2174 C   0  0  1  0  0  0  0  0  0  0  0  0
   -2.3915   90.7426   16.8555 O   0  0  0  0  0  0  0  0  0  0  0  0
   -0.1675   89.8257   16.4964 C   0  0  2  0  0  0  0  0  0  0  0  0
    0.0775   89.7470   17.9005 O   0  0  0  0  0  0  0  0  0  0  0  0
    1.1615   90.1167   15.7976 C   0  0  2  0  0  0  0  0  0  0  0  0
    0.9347   90.2976   14.3910 O   0  0  0  0  0  0  0  0  0  0  0  0
    2.1341   88.9644   16.0617 C   0  0  0  0  0  0  0  0  0  0  0  0
    2.6019   88.9797   17.4558 N   0  0  0  0  0  0  0  0  0  0  0  0
    3.0496   95.5941   13.0079 C   0  0  2  0  0  0  0  0  0  0  0  0
    4.1332   96.4149   12.4466 N   0  0  0  0  0  0  0  0  0  0  0  0
    3.4988   94.9110   14.3011 C   0  0  0  0  0  0  0  0  0  0  0  0
    2.2938   94.1825   14.9048 C   0  0  2  0  0  0  0  0  0  0  0  0
    2.7220   93.4459   16.1026 N   0  0  0  0  0  0  0  0  0  0  0  0
    1.6736   93.1742   13.9331 C   0  0  2  0  0  0  0  0  0  0  0  0
    1.4138   93.7173   12.5323 C   0  0  2  0  0  0  0  0  0  0  0  0
    1.2162   92.5618   11.7017 O   0  0  0  0  0  0  0  0  0  0  0  0
    2.6054   94.5271   12.0043 C   0  0  1  0  0  0  0  0  0  0  0  0
    2.2698   95.1886   10.7816 O   0  0  0  0  0  0  0  0  0  0  0  0
    0.0910   92.6202   10.8102 C   0  0  1  0  0  0  0  0  0  0  0  0
    0.5664   92.1485    9.4350 C   0  0  2  0  0  0  0  0  0  0  0  0
    1.1733   93.2381    8.7363 O   0  0  0  0  0  0  0  0  0  0  0  0
   -0.7911   91.8363    8.8122 C   0  0  1  0  0  0  0  0  0  0  0  0
   -1.4489   91.0774    9.9539 C   0  0  2  0  0  0  0  0  0  0  0  0
   -0.9665   91.7040   11.1603 O   0  0  0  0  0  0  0  0  0  0  0  0
   -1.0414   89.6016    9.8750 C   0  0  0  0  0  0  0  0  0  0  0  0
    0.3216   89.4346   10.2760 O   0  0  0  0  0  0  0  0  0  0  0  0
   -1.7141   93.2031    7.1453 C   0  0  2  0  0  0  0  0  0  0  0  0
   -1.5030   93.0578    8.5580 O   0  0  0  0  0  0  0  0  0  0  0  0
   -2.4408   94.5232    6.8689 C   0  0  1  0  0  0  0  0  0  0  0  0
   -3.4989   90.8623    3.2997 N   0  0  0  0  0  0  0  0  0  0  0  0
   -2.7671   94.6516    5.3771 C   0  0  1  0  0  0  0  0  0  0  0  0
   -1.5645   94.8116    4.6179 O   0  0  0  0  0  0  0  0  0  0  0  0
   -3.5201   93.4059    4.9019 C   0  0  2  0  0  0  0  0  0  0  0  0
   -4.7893   93.3608    5.5625 O   0  0  0  0  0  0  0  0  0  0  0  0
   -2.7058   92.1531    5.2420 C   0  0  1  0  0  0  0  0  0  0  0  0
   -2.4804   92.0857    6.6624 O   0  0  0  0  0  0  0  0  0  0  0  0
   -3.4086   90.8784    4.7672 C   0  0  0  0  0  0  0  0  0  0  0  0
   -3.7033   94.5336    7.6231 N   0  0  0  0  0  0  0  0  0  0  0  0
  1  2  1  1  0  0  0
  1  3  1  0  0  0  0
  1 10  1  0  0  0  0
  3  4  1  1  0  0  0
  3  5  1  0  0  0  0
  5  6  1  1  0  0  0
  5  7  1  0  0  0  0
  7  8  1  1  0  0  0
  7  9  1  0  0  0  0
  9 10  1  0  0  0  0
  9 11  1  6  0  0  0
 11 12  1  0  0  0  0
 13 14  1  6  0  0  0
 13 15  1  0  0  0  0
 13 21  1  0  0  0  0
 16 15  1  0  0  0  0
 16 17  1  1  0  0  0
 18  2  1  1  0  0  0
 18 16  1  0  0  0  0
 19 18  1  0  0  0  0
 19 20  1  6  0  0  0
 21 19  1  0  0  0  0
 21 22  1  6  0  0  0
 23 20  1  1  0  0  0
 23 24  1  0  0  0  0
 23 28  1  0  0  0  0
 24 25  1  6  0  0  0
 24 26  1  0  0  0  0
 26 27  1  0  0  0  0
 26 32  1  1  0  0  0
 27 28  1  0  0  0  0
 27 29  1  1  0  0  0
 29 30  1  0  0  0  0
 31 32  1  1  0  0  0
 31 40  1  0  0  0  0
 33 31  1  0  0  0  0
 33 42  1  1  0  0  0
 35 33  1  0  0  0  0
 35 36  1  6  0  0  0
 37 35  1  0  0  0  0
 37 38  1  1  0  0  0
 37 39  1  0  0  0  0
 39 40  1  0  0  0  0
 39 41  1  1  0  0  0
 41 34  1  0  0  0  0
M  END
>  <CHROM.1>
-171.90853673,-71.96846653,-158.55987330,133.88013438,133.75795739,116.71643289
73.03390878,-178.52301041,64.69887302,-0.27605019,92.36532236,11.18621710
1.04662408,0.77655293,2.10127001

>  <Name>
2fcy_lig

>  <RI>
0

>  <Rbt.Current_Directory>
/home/itssahil/PROJECTS/Mol_Feturizer/New_Systems/rnas/2fcy

>  <Rbt.Executable>
rbdock ($Id: //depot/dev/client3/rdock/2013.1/src/exe/rbdock.cxx#4 $)

>  <Rbt.Library>
libRbt.so (2013.1, Build901 2013/11/27)

>  <Rbt.Parameter_File>
/export/apps/rDock/src/rDock_2013.1_src/data/scripts/dock_solv.prm

>  <Rbt.Receptor>
prm/pocket_docking_2.prm

>  <SCORE>
-12.7534

>  <SCORE.INTER>
-17.9574

>  <SCORE.INTER.CONST>
1

>  <SCORE.INTER.POLAR>
-1.91341

>  <SCORE.INTER.ROT>
9

>  <SCORE.INTER.SOLV>
14.3068

>  <SCORE.INTER.VDW>
-19.9625

>  <SCORE.INTER.norm>
-0.427558

>  <SCORE.INTRA>
2.49547

>  <SCORE.INTRA.DIHEDRAL>
5.64716

>  <SCORE.INTRA.DIHEDRAL.0>
17.3446

>  <SCORE.INTRA.POLAR>
0

>  <SCORE.INTRA.POLAR.0>
0

>  <SCORE.INTRA.REPUL>
0

>  <SCORE.INTRA.REPUL.0>
0

>  <SCORE.INTRA.SOLV>
-2.32081

>  <SCORE.INTRA.SOLV.lig_0>
-112.452

>  <SCORE.INTRA.VDW>
0.832292

>  <SCORE.INTRA.VDW.0>
-5.95059

>  <SCORE.INTRA.norm>
0.059416

>  <SCORE.RESTR>
2.70858

>  <SCORE.RESTR.CAVITY>
2.70858

>  <SCORE.RESTR.norm>
0.0644899

>  <SCORE.SYSTEM>
0

>  <SCORE.SYSTEM.CONST>
0

>  <SCORE.SYSTEM.DIHEDRAL>
0

>  <SCORE.SYSTEM.SOLV>
0

>  <SCORE.SYSTEM.norm>
0

>  <SCORE.heavy>
42

>  <SCORE.norm>
-0.303652

>  <RMSD>
1.664

$$$$
2fcy_lig
 OpenBabel11021811433D
libRbt.so/2013.1/901 2013/11/27
 42 45  0  0  0  0  0  0  0  0999 V2000
    0.3928   90.8813   14.4879 C   0  0  2  0  0  0  0  0  0  0  0  0
    0.9069   92.1577   14.9047 O   0  0  0  0  0  0  0  0  0  0  0  0
   -1.0142   90.7955   15.0811 C   0  0  2  0  0  0  0  0  0  0  0  0
   -1.7790   91.9744   14.6523 N   0  0  0  0  0  0  0  0  0  0  0  0
   -0.9254   90.7748   16.6091 C   0  0  1  0  0  0  0  0  0  0  0  0
   -2.2309   90.6904   17.1875 O   0  0  0  0  0  0  0  0  0  0  0  0
   -0.0662   89.5898   17.0509 C   0  0  2  0  0  0  0  0  0  0  0  0
    0.0950   89.6283   18.4687 O   0  0  0  0  0  0  0  0  0  0  0  0
    1.3172   89.7189   16.4115 C   0  0  2  0  0  0  0  0  0  0  0  0
    1.1819   89.7802   14.9831 O   0  0  0  0  0  0  0  0  0  0  0  0
    2.1841   88.5316   16.8389 C   0  0  0  0  0  0  0  0  0  0  0  0
    3.6039   88.7869   16.5532 N   0  0  0  0  0  0  0  0  0  0  0  0
    3.0383   95.0918   12.7844 C   0  0  2  0  0  0  0  0  0  0  0  0
    3.9818   95.9174   12.0156 N   0  0  0  0  0  0  0  0  0  0  0  0
    3.6956   94.5588   14.0590 C   0  0  0  0  0  0  0  0  0  0  0  0
    2.6311   93.8219   14.8781 C   0  0  2  0  0  0  0  0  0  0  0  0
    3.2592   93.2257   16.0660 N   0  0  0  0  0  0  0  0  0  0  0  0
    1.9623   92.6938   14.0872 C   0  0  2  0  0  0  0  0  0  0  0  0
    1.4883   93.0884   12.6929 C   0  0  2  0  0  0  0  0  0  0  0  0
    1.2658   91.8513   11.9971 O   0  0  0  0  0  0  0  0  0  0  0  0
    2.5436   93.9124   11.9434 C   0  0  1  0  0  0  0  0  0  0  0  0
    2.0092   94.4370   10.7250 O   0  0  0  0  0  0  0  0  0  0  0  0
    0.2878   91.8948   10.9456 C   0  0  1  0  0  0  0  0  0  0  0  0
    0.2415   90.5087   10.3004 C   0  0  2  0  0  0  0  0  0  0  0  0
    1.2810   90.3971    9.3255 O   0  0  0  0  0  0  0  0  0  0  0  0
   -1.1076   90.6228    9.5965 C   0  0  1  0  0  0  0  0  0  0  0  0
   -1.9463   91.2336   10.7081 C   0  0  2  0  0  0  0  0  0  0  0  0
   -1.0559   92.1169   11.4206 O   0  0  0  0  0  0  0  0  0  0  0  0
   -2.4787   90.1124   11.6079 C   0  0  0  0  0  0  0  0  0  0  0  0
   -3.3920   90.6363   12.5764 O   0  0  0  0  0  0  0  0  0  0  0  0
   -2.2392   91.5409    7.7594 C   0  0  2  0  0  0  0  0  0  0  0  0
   -1.0064   91.5397    8.4954 O   0  0  0  0  0  0  0  0  0  0  0  0
   -2.2715   90.3377    6.8117 C   0  0  1  0  0  0  0  0  0  0  0  0
   -5.0669   94.4272    5.1035 N   0  0  0  0  0  0  0  0  0  0  0  0
   -3.5333   90.3752    5.9428 C   0  0  1  0  0  0  0  0  0  0  0  0
   -4.6960   90.1498    6.7463 O   0  0  0  0  0  0  0  0  0  0  0  0
   -3.6405   91.7325    5.2424 C   0  0  2  0  0  0  0  0  0  0  0  0
   -2.5482   91.8600    4.3258 O   0  0  0  0  0  0  0  0  0  0  0  0
   -3.5850   92.8540    6.2852 C   0  0  1  0  0  0  0  0  0  0  0  0
   -2.3535   92.7734    7.0267 O   0  0  0  0  0  0  0  0  0  0  0  0
   -3.7096   94.2345    5.6349 C   0  0  0  0  0  0  0  0  0  0  0  0
   -1.0973   90.4014    5.9284 N   0  0  0  0  0  0  0  0  0  0  0  0
  1  2  1  1  0  0  0
  1  3  1  0  0  0  0
  1 10  1  0  0  0  0
  3  4  1  1  0  0  0
  3  5  1  0  0  0  0
  5  6  1  1  0  0  0
  5  7  1  0  0  0  0
  7  8  1  1  0  0  0
  7  9  1  0  0  0  0
  9 10  1  0  0  0  0
  9 11  1  6  0  0  0
 11 12  1  0  0  0  0
 13 14  1  6  0  0  0
 13 15  1  0  0  0  0
 13 21  1  0  0  0  0
 16 15  1  0  0  0  0
 16 17  1  1  0  0  0
 18  2  1  1  0  0  0
 18 16  1  0  0  0  0
 19 18  1  0  0  0  0
 19 20  1  6  0  0  0
 21 19  1  0  0  0  0
 21 22  1  6  0  0  0
 23 20  1  1  0  0  0
 23 24  1  0  0  0  0
 23 28  1  0  0  0  0
 24 25  1  6  0  0  0
 24 26  1  0  0  0  0
 26 27  1  0  0  0  0
 26 32  1  6  0  0  0
 27 28  1  0  0  0  0
 27 29  1  1  0  0  0
 29 30  1  0  0  0  0
 31 32  1  6  0  0  0
 31 40  1  0  0  0  0
 33 31  1  0  0  0  0
 33 42  1  6  0  0  0
 35 33  1  0  0  0  0
 35 36  1  1  0  0  0
 37 35  1  0  0  0  0
 37 38  1  6  0  0  0
 37 39  1  0  0  0  0
 39 40  1  0  0  0  0
 39 41  1  6  0  0  0
 41 34  1  0  0  0  0
M  END
>  <CHROM.1>
-157.07896786,-164.90173204,-164.60668425,152.86972624,177.75662439,174.32206355
-173.59420357,-80.93972305,69.10467999,-0.36277974,91.69378760,11.57051718
1.02691509,0.64692343,1.99745319

>  <Name>
2fcy_lig

>  <RI>
4.13508e+07

>  <Rbt.Current_Directory>
/home/itssahil/PROJECTS/Mol_Feturizer/New_Systems/rnas/2fcy

>  <Rbt.Executable>
rbdock ($Id: //depot/dev/client3/rdock/2013.1/src/exe/rbdock.cxx#4 $)

>  <Rbt.Library>
libRbt.so (2013.1, Build901 2013/11/27)

>  <Rbt.Parameter_File>
/export/apps/rDock/src/rDock_2013.1_src/data/scripts/dock_solv.prm

>  <Rbt.Receptor>
prm/pocket_docking_3.prm

>  <SCORE>
-21.0024

>  <SCORE.INTER>
-17.2452

>  <SCORE.INTER.CONST>
1

>  <SCORE.INTER.POLAR>
-1.55905

>  <SCORE.INTER.ROT>
9

>  <SCORE.INTER.SOLV>
19.3097

>  <SCORE.INTER.VDW>
-22.3365

>  <SCORE.INTER.norm>
-0.410601

>  <SCORE.INTRA>
-3.75718

>  <SCORE.INTRA.DIHEDRAL>
-6.94131

>  <SCORE.INTRA.DIHEDRAL.0>
17.3446

>  <SCORE.INTRA.POLAR>
0

>  <SCORE.INTRA.POLAR.0>
0

>  <SCORE.INTRA.REPUL>
0

>  <SCORE.INTRA.REPUL.0>
0

>  <SCORE.INTRA.SOLV>
-2.45752

>  <SCORE.INTRA.SOLV.lig_0>
-112.452

>  <SCORE.INTRA.VDW>
0.94224

>  <SCORE.INTRA.VDW.0>
-5.95059

>  <SCORE.INTRA.norm>
-0.0894566

>  <SCORE.RESTR>
0

>  <SCORE.RESTR.CAVITY>
0

>  <SCORE.RESTR.norm>
0

>  <SCORE.SYSTEM>
0

>  <SCORE.SYSTEM.CONST>
0

>  <SCORE.SYSTEM.DIHEDRAL>
0

>  <SCORE.SYSTEM.SOLV>
0

>  <SCORE.SYSTEM.norm>
0

>  <SCORE.heavy>
42

>  <SCORE.norm>
-0.500057

>  <RMSD>
1.687

$$$$
2fcy_lig
 OpenBabel11021811433D
libRbt.so/2013.1/901 2013/11/27
 42 45  0  0  0  0  0  0  0  0999 V2000
    0.4293   90.9003   14.5143 C   0  0  2  0  0  0  0  0  0  0  0  0
    0.9341   92.1722   14.9555 O   0  0  0  0  0  0  0  0  0  0  0  0
   -0.9791   90.7953   15.1011 C   0  0  2  0  0  0  0  0  0  0  0  0
   -1.7498   91.9769   14.6907 N   0  0  0  0  0  0  0  0  0  0  0  0
   -0.8953   90.7480   16.6288 C   0  0  1  0  0  0  0  0  0  0  0  0
   -2.2021   90.6452   17.2011 O   0  0  0  0  0  0  0  0  0  0  0  0
   -0.0302   89.5606   17.0524 C   0  0  2  0  0  0  0  0  0  0  0  0
    0.1260   89.5749   18.4713 O   0  0  0  0  0  0  0  0  0  0  0  0
    1.3545   89.7096   16.4202 C   0  0  2  0  0  0  0  0  0  0  0  0
    1.2236   89.7954   14.9926 O   0  0  0  0  0  0  0  0  0  0  0  0
    2.2273   88.5203   16.8294 C   0  0  0  0  0  0  0  0  0  0  0  0
    3.6456   88.7861   16.5458 N   0  0  0  0  0  0  0  0  0  0  0  0
    3.1197   95.1378   12.9369 C   0  0  2  0  0  0  0  0  0  0  0  0
    4.0806   95.9732   12.2008 N   0  0  0  0  0  0  0  0  0  0  0  0
    3.7562   94.5659   14.2052 C   0  0  0  0  0  0  0  0  0  0  0  0
    2.6745   93.8192   14.9923 C   0  0  2  0  0  0  0  0  0  0  0  0
    3.2822   93.1865   16.1719 N   0  0  0  0  0  0  0  0  0  0  0  0
    2.0046   92.7184   14.1648 C   0  0  2  0  0  0  0  0  0  0  0  0
    1.5515   93.1532   12.7755 C   0  0  2  0  0  0  0  0  0  0  0  0
    1.3255   91.9365   12.0456 O   0  0  0  0  0  0  0  0  0  0  0  0
    2.6239   93.9853   12.0600 C   0  0  1  0  0  0  0  0  0  0  0  0
    2.1096   94.5462   10.8492 O   0  0  0  0  0  0  0  0  0  0  0  0
    0.3068   91.9964   11.0342 C   0  0  1  0  0  0  0  0  0  0  0  0
    0.2249   90.6167   10.3789 C   0  0  2  0  0  0  0  0  0  0  0  0
    1.2241   90.5072    9.3624 O   0  0  0  0  0  0  0  0  0  0  0  0
   -1.1502   90.7466    9.7304 C   0  0  1  0  0  0  0  0  0  0  0  0
   -1.9397   91.3526   10.8800 C   0  0  2  0  0  0  0  0  0  0  0  0
   -1.0153   92.2232   11.5644 O   0  0  0  0  0  0  0  0  0  0  0  0
   -2.4438   90.2267   11.7901 C   0  0  0  0  0  0  0  0  0  0  0  0
   -3.3666   89.3886   11.0883 O   0  0  0  0  0  0  0  0  0  0  0  0
   -2.3681   91.7418    7.9913 C   0  0  2  0  0  0  0  0  0  0  0  0
   -1.0863   91.6730    8.6344 O   0  0  0  0  0  0  0  0  0  0  0  0
   -2.5672   90.5035    7.1115 C   0  0  1  0  0  0  0  0  0  0  0  0
   -3.6230   95.5400    6.8152 N   0  0  0  0  0  0  0  0  0  0  0  0
   -3.8853   90.6048    6.3363 C   0  0  1  0  0  0  0  0  0  0  0  0
   -4.9969   90.5121    7.2329 O   0  0  0  0  0  0  0  0  0  0  0  0
   -3.9393   91.9331    5.5767 C   0  0  2  0  0  0  0  0  0  0  0  0
   -2.9141   91.9289    4.5775 O   0  0  0  0  0  0  0  0  0  0  0  0
   -3.7162   93.0925    6.5536 C   0  0  1  0  0  0  0  0  0  0  0  0
   -2.4415   92.9450    7.2064 O   0  0  0  0  0  0  0  0  0  0  0  0
   -3.7819   94.4476    5.8440 C   0  0  0  0  0  0  0  0  0  0  0  0
   -1.4630   90.4305    6.1428 N   0  0  0  0  0  0  0  0  0  0  0  0
  1  2  1  1  0  0  0
  1  3  1  0  0  0  0
  1 10  1  0  0  0  0
  3  4  1  1  0  0  0
  3  5  1  0  0  0  0
  5  6  1  1  0  0  0
  5  7  1  0  0  0  0
  7  8  1  1  0  0  0
  7  9  1  0  0  0  0
  9 10  1  0  0  0  0
  9 11  1  6  0  0  0
 11 12  1  0  0  0  0
 13 14  1  6  0  0  0
 13 15  1  0  0  0  0
 13 21  1  0  0  0  0
 16 15  1  0  0  0  0
 16 17  1  1  0  0  0
 18  2  1  1  0  0  0
 18 16  1  0  0  0  0
 19 18  1  0  0  0  0
 19 20  1  6  0  0  0
 21 19  1  0  0  0  0
 21 22  1  6  0  0  0
 23 20  1  1  0  0  0
 23 24  1  0  0  0  0
 23 28  1  0  0  0  0
 24 25  1  6  0  0  0
 24 26  1  0  0  0  0
 26 27  1  0  0  0  0
 26 32  1  6  0  0  0
 27 28  1  0  0  0  0
 27 29  1  1  0  0  0
 29 30  1  0  0  0  0
 31 32  1  6  0  0  0
 31 40  1  0  0  0  0
 33 31  1  0  0  0  0
 33 42  1  6  0  0  0
 35 33  1  0  0  0  0
 35 36  1  1  0  0  0
 37 35  1  0  0  0  0
 37 38  1  6  0  0  0
 37 39  1  0  0  0  0
 39 40  1  0  0  0  0
 39 41  1  6  0  0  0
 41 34  1  0  0  0  0
M  END
>  <CHROM.1>
-158.10981737,-165.23706457,-163.50807772,149.47543576,179.86798765,177.32386531
-64.26333728,-76.97219371,177.53843771,-0.36224049,91.76012712,11.69309147
0.96758322,0.68248270,2.07370477

>  <Name>
2fcy_lig

>  <RI>
4.13508e+07

>  <Rbt.Current_Directory>
/home/itssahil/PROJECTS/Mol_Feturizer/New_Systems/rnas/2fcy

>  <Rbt.Executable>
rbdock ($Id: //depot/dev/client3/rdock/2013.1/src/exe/rbdock.cxx#4 $)

>  <Rbt.Library>
libRbt.so (2013.1, Build901 2013/11/27)

>  <Rbt.Parameter_File>
/export/apps/rDock/src/rDock_2013.1_src/data/scripts/dock_solv.prm

>  <Rbt.Receptor>
prm/pocket_docking_3.prm

>  <SCORE>
-21.6097

>  <SCORE.INTER>
-17.3447

>  <SCORE.INTER.CONST>
1

>  <SCORE.INTER.POLAR>
-1.5715

>  <SCORE.INTER.ROT>
9

>  <SCORE.INTER.SOLV>
19.7379

>  <SCORE.INTER.VDW>
-22.5041

>  <SCORE.INTER.norm>
-0.412968

>  <SCORE.INTRA>
-4.26503

>  <SCORE.INTRA.DIHEDRAL>
-7.45943

>  <SCORE.INTRA.DIHEDRAL.0>
17.3446

>  <SCORE.INTRA.POLAR>
0

>  <SCORE.INTRA.POLAR.0>
0

>  <SCORE.INTRA.REPUL>
0

>  <SCORE.INTRA.REPUL.0>
0

>  <SCORE.INTRA.SOLV>
-3.29466

>  <SCORE.INTRA.SOLV.lig_0>
-112.452

>  <SCORE.INTRA.VDW>
1.11201

>  <SCORE.INTRA.VDW.0>
-5.95059

>  <SCORE.INTRA.norm>
-0.101548

>  <SCORE.RESTR>
0

>  <SCORE.RESTR.CAVITY>
0

>  <SCORE.RESTR.norm>
0

>  <SCORE.SYSTEM>
0

>  <SCORE.SYSTEM.CONST>
0

>  <SCORE.SYSTEM.DIHEDRAL>
0

>  <SCORE.SYSTEM.SOLV>
0

>  <SCORE.SYSTEM.norm>
0

>  <SCORE.heavy>
42

>  <SCORE.norm>
-0.514517

>  <RMSD>
1.692

$$$$
2fcy_lig
 OpenBabel11021811433D
libRbt.so/2013.1/901 2013/11/27
 42 45  0  0  0  0  0  0  0  0999 V2000
    0.4059   91.1530   14.3656 C   0  0  2  0  0  0  0  0  0  0  0  0
    1.0016   92.3543   14.8845 O   0  0  0  0  0  0  0  0  0  0  0  0
   -0.9238   91.0048   15.1065 C   0  0  2  0  0  0  0  0  0  0  0  0
   -1.6995   92.2407   14.9340 N   0  0  0  0  0  0  0  0  0  0  0  0
   -0.6573   90.7753   16.5963 C   0  0  1  0  0  0  0  0  0  0  0  0
   -1.8878   90.6293   17.3105 O   0  0  0  0  0  0  0  0  0  0  0  0
    0.2135   89.5305   16.7694 C   0  0  2  0  0  0  0  0  0  0  0  0
    0.5408   89.3737   18.1500 O   0  0  0  0  0  0  0  0  0  0  0  0
    1.5156   89.7281   15.9917 C   0  0  2  0  0  0  0  0  0  0  0  0
    1.2157   89.9849   14.6109 O   0  0  0  0  0  0  0  0  0  0  0  0
    2.3922   88.4830   16.1495 C   0  0  0  0  0  0  0  0  0  0  0  0
    2.9600   88.4073   17.5040 N   0  0  0  0  0  0  0  0  0  0  0  0
    3.3836   95.2604   13.0065 C   0  0  2  0  0  0  0  0  0  0  0  0
    4.4020   96.0654   12.3153 N   0  0  0  0  0  0  0  0  0  0  0  0
    3.9659   94.6088   14.2623 C   0  0  0  0  0  0  0  0  0  0  0  0
    2.8312   93.8973   15.0062 C   0  0  2  0  0  0  0  0  0  0  0  0
    3.3827   93.1898   16.1707 N   0  0  0  0  0  0  0  0  0  0  0  0
    2.1140   92.8663   14.1296 C   0  0  2  0  0  0  0  0  0  0  0  0
    1.7091   93.3751   12.7506 C   0  0  2  0  0  0  0  0  0  0  0  0
    1.4271   92.1998   11.9739 O   0  0  0  0  0  0  0  0  0  0  0  0
    2.8383   94.1698   12.0814 C   0  0  1  0  0  0  0  0  0  0  0  0
    2.3764   94.8014   10.8844 O   0  0  0  0  0  0  0  0  0  0  0  0
    0.2990   92.2933   11.0891 C   0  0  1  0  0  0  0  0  0  0  0  0
    0.1523   90.9440   10.3837 C   0  0  2  0  0  0  0  0  0  0  0  0
    1.0294   90.8932    9.2559 O   0  0  0  0  0  0  0  0  0  0  0  0
   -1.2888   91.0865    9.9028 C   0  0  1  0  0  0  0  0  0  0  0  0
   -1.9458   91.6298   11.1619 C   0  0  2  0  0  0  0  0  0  0  0  0
   -0.9553   92.4795   11.7764 O   0  0  0  0  0  0  0  0  0  0  0  0
   -2.3348   90.4575   12.0699 C   0  0  0  0  0  0  0  0  0  0  0  0
   -3.2427   89.5805   11.3969 O   0  0  0  0  0  0  0  0  0  0  0  0
   -2.7310   92.3028    8.5102 C   0  0  2  0  0  0  0  0  0  0  0  0
   -1.3571   92.0626    8.8511 O   0  0  0  0  0  0  0  0  0  0  0  0
   -3.2867   91.0987    7.7431 C   0  0  1  0  0  0  0  0  0  0  0  0
   -3.4495   96.1698    7.3798 N   0  0  0  0  0  0  0  0  0  0  0  0
   -4.7212   91.3752    7.2805 C   0  0  1  0  0  0  0  0  0  0  0  0
   -5.6021   91.4402    8.4066 O   0  0  0  0  0  0  0  0  0  0  0  0
   -4.7708   92.6944    6.5048 C   0  0  2  0  0  0  0  0  0  0  0  0
   -4.0094   92.5447    5.3017 O   0  0  0  0  0  0  0  0  0  0  0  0
   -4.1803   93.8175    7.3641 C   0  0  1  0  0  0  0  0  0  0  0  0
   -2.8215   93.5005    7.7188 O   0  0  0  0  0  0  0  0  0  0  0  0
   -4.2262   95.1651    6.6388 C   0  0  0  0  0  0  0  0  0  0  0  0
   -2.4512   90.8703    6.5544 N   0  0  0  0  0  0  0  0  0  0  0  0
  1  2  1  1  0  0  0
  1  3  1  0  0  0  0
  1 10  1  0  0  0  0
  3  4  1  1  0  0  0
  3  5  1  0  0  0  0
  5  6  1  1  0  0  0
  5  7  1  0  0  0  0
  7  8  1  1  0  0  0
  7  9  1  0  0  0  0
  9 10  1  0  0  0  0
  9 11  1  6  0  0  0
 11 12  1  0  0  0  0
 13 14  1  6  0  0  0
 13 15  1  0  0  0  0
 13 21  1  0  0  0  0
 16 15  1  0  0  0  0
 16 17  1  1  0  0  0
 18  2  1  1  0  0  0
 18 16  1  0  0  0  0
 19 18  1  0  0  0  0
 19 20  1  6  0  0  0
 21 19  1  0  0  0  0
 21 22  1  6  0  0  0
 23 20  1  1  0  0  0
 23 24  1  0  0  0  0
 23 28  1  0  0  0  0
 24 25  1  6  0  0  0
 24 26  1  0  0  0  0
 26 27  1  0  0  0  0
 26 32  1  6  0  0  0
 27 28  1  0  0  0  0
 27 29  1  1  0  0  0
 29 30  1  0  0  0  0
 31 32  1  6  0  0  0
 31 40  1  0  0  0  0
 33 31  1  0  0  0  0
 33 42  1  6  0  0  0
 35 33  1  0  0  0  0
 35 36  1  1  0  0  0
 37 35  1  0  0  0  0
 37 38  1  6  0  0  0
 37 39  1  0  0  0  0
 39 40  1  0  0  0  0
 39 41  1  6  0  0  0
 41 34  1  0  0  0  0
M  END
>  <CHROM.1>
-166.50621394,-72.54679449,-165.44082068,140.62216233,-178.84024217,-173.44174954
-59.49789271,-72.87854621,-170.17083240,-0.45858734,92.04336982,11.89711000
0.87860540,0.60821947,2.18206847

>  <Name>
2fcy_lig

>  <RI>
0

>  <Rbt.Current_Directory>
/home/itssahil/PROJECTS/Mol_Feturizer/New_Systems/rnas/2fcy

>  <Rbt.Executable>
rbdock ($Id: //depot/dev/client3/rdock/2013.1/src/exe/rbdock.cxx#4 $)

>  <Rbt.Library>
libRbt.so (2013.1, Build901 2013/11/27)

>  <Rbt.Parameter_File>
/export/apps/rDock/src/rDock_2013.1_src/data/scripts/dock_solv.prm

>  <Rbt.Receptor>
prm/pocket_docking_2.prm

>  <SCORE>
-19.5464

>  <SCORE.INTER>
-16.4054

>  <SCORE.INTER.CONST>
1

>  <SCORE.INTER.POLAR>
-1.40995

>  <SCORE.INTER.ROT>
9

>  <SCORE.INTER.SOLV>
19.0847

>  <SCORE.INTER.VDW>
-22.1987

>  <SCORE.INTER.norm>
-0.390605

>  <SCORE.INTRA>
-3.30531

>  <SCORE.INTRA.DIHEDRAL>
-7.71117

>  <SCORE.INTRA.DIHEDRAL.0>
17.3446

>  <SCORE.INTRA.POLAR>
0

>  <SCORE.INTRA.POLAR.0>
0

>  <SCORE.INTRA.REPUL>
0

>  <SCORE.INTRA.REPUL.0>
0

>  <SCORE.INTRA.SOLV>
-2.1452

>  <SCORE.INTRA.SOLV.lig_0>
-112.452

>  <SCORE.INTRA.VDW>
1.62287

>  <SCORE.INTRA.VDW.0>
-5.95059

>  <SCORE.INTRA.norm>
-0.078698

>  <SCORE.RESTR>
0.164331

>  <SCORE.RESTR.CAVITY>
0.164331

>  <SCORE.RESTR.norm>
0.00391265

>  <SCORE.SYSTEM>
0

>  <SCORE.SYSTEM.CONST>
0

>  <SCORE.SYSTEM.DIHEDRAL>
0

>  <SCORE.SYSTEM.SOLV>
0

>  <SCORE.SYSTEM.norm>
0

>  <SCORE.heavy>
42

>  <SCORE.norm>
-0.46539

>  <RMSD>
1.695

$$$$
2fcy_lig
 OpenBabel11021811433D
libRbt.so/2013.1/901 2013/11/27
 42 45  0  0  0  0  0  0  0  0999 V2000
    0.5947   90.7665   14.7487 C   0  0  2  0  0  0  0  0  0  0  0  0
    1.1006   92.0484   15.1585 O   0  0  0  0  0  0  0  0  0  0  0  0
   -0.6365   90.5167   15.6210 C   0  0  2  0  0  0  0  0  0  0  0  0
   -1.5556   91.6537   15.4754 N   0  0  0  0  0  0  0  0  0  0  0  0
   -0.2096   90.3918   17.0857 C   0  0  1  0  0  0  0  0  0  0  0  0
   -1.3454   90.1532   17.9218 O   0  0  0  0  0  0  0  0  0  0  0  0
    0.8046   89.2559   17.2230 C   0  0  2  0  0  0  0  0  0  0  0  0
    1.2734   89.2042   18.5703 O   0  0  0  0  0  0  0  0  0  0  0  0
    1.9996   89.5501   16.3148 C   0  0  2  0  0  0  0  0  0  0  0  0
    1.5469   89.7040   14.9606 O   0  0  0  0  0  0  0  0  0  0  0  0
    3.0182   88.4137   16.4363 C   0  0  0  0  0  0  0  0  0  0  0  0
    3.6991   88.4543   17.7391 N   0  0  0  0  0  0  0  0  0  0  0  0
    2.9382   95.1273   12.9700 C   0  0  2  0  0  0  0  0  0  0  0  0
    3.7803   96.0107   12.1493 N   0  0  0  0  0  0  0  0  0  0  0  0
    3.7316   94.5618   14.1496 C   0  0  0  0  0  0  0  0  0  0  0  0
    2.7719   93.7615   15.0360 C   0  0  2  0  0  0  0  0  0  0  0  0
    3.5291   93.1355   16.1295 N   0  0  0  0  0  0  0  0  0  0  0  0
    2.0563   92.6479   14.2659 C   0  0  2  0  0  0  0  0  0  0  0  0
    1.4369   93.0855   12.9433 C   0  0  2  0  0  0  0  0  0  0  0  0
    1.1773   91.8720   12.2193 O   0  0  0  0  0  0  0  0  0  0  0  0
    2.3921   93.9697   12.1307 C   0  0  1  0  0  0  0  0  0  0  0  0
    1.7269   94.5281   10.9946 O   0  0  0  0  0  0  0  0  0  0  0  0
    0.2025   91.9696   11.1683 C   0  0  1  0  0  0  0  0  0  0  0  0
    0.1593   90.6190   10.4516 C   0  0  2  0  0  0  0  0  0  0  0  0
    1.2020   90.5591    9.4755 O   0  0  0  0  0  0  0  0  0  0  0  0
   -1.1876   90.7688    9.7504 C   0  0  1  0  0  0  0  0  0  0  0  0
   -2.0303   91.3202   10.8897 C   0  0  2  0  0  0  0  0  0  0  0  0
   -1.1428   92.1657   11.6501 O   0  0  0  0  0  0  0  0  0  0  0  0
   -2.5645   90.1533   11.7282 C   0  0  0  0  0  0  0  0  0  0  0  0
   -3.3759   90.6367   12.8026 O   0  0  0  0  0  0  0  0  0  0  0  0
   -2.3223   91.7973    7.9748 C   0  0  2  0  0  0  0  0  0  0  0  0
   -1.0838   91.7419    8.6989 O   0  0  0  0  0  0  0  0  0  0  0  0
   -2.4451   90.5640    7.0743 C   0  0  1  0  0  0  0  0  0  0  0  0
   -3.5959   95.5867    6.7521 N   0  0  0  0  0  0  0  0  0  0  0  0
   -3.7117   90.6525    6.2162 C   0  0  1  0  0  0  0  0  0  0  0  0
   -4.8774   90.5353    7.0383 O   0  0  0  0  0  0  0  0  0  0  0  0
   -3.7371   91.9865    5.4651 C   0  0  2  0  0  0  0  0  0  0  0  0
   -2.6496   92.0064    4.5344 O   0  0  0  0  0  0  0  0  0  0  0  0
   -3.5955   93.1404    6.4635 C   0  0  1  0  0  0  0  0  0  0  0  0
   -2.3635   93.0061    7.1962 O   0  0  0  0  0  0  0  0  0  0  0  0
   -3.6362   94.5006    5.7618 C   0  0  0  0  0  0  0  0  0  0  0  0
   -1.2796   90.5161    6.1785 N   0  0  0  0  0  0  0  0  0  0  0  0
  1  2  1  1  0  0  0
  1  3  1  0  0  0  0
  1 10  1  0  0  0  0
  3  4  1  1  0  0  0
  3  5  1  0  0  0  0
  5  6  1  1  0  0  0
  5  7  1  0  0  0  0
  7  8  1  1  0  0  0
  7  9  1  0  0  0  0
  9 10  1  0  0  0  0
  9 11  1  6  0  0  0
 11 12  1  0  0  0  0
 13 14  1  6  0  0  0
 13 15  1  0  0  0  0
 13 21  1  0  0  0  0
 16 15  1  0  0  0  0
 16 17  1  1  0  0  0
 18  2  1  1  0  0  0
 18 16  1  0  0  0  0
 19 18  1  0  0  0  0
 19 20  1  6  0  0  0
 21 19  1  0  0  0  0
 21 22  1  6  0  0  0
 23 20  1  1  0  0  0
 23 24  1  0  0  0  0
 23 28  1  0  0  0  0
 24 25  1  6  0  0  0
 24 26  1  0  0  0  0
 26 27  1  0  0  0  0
 26 32  1  6  0  0  0
 27 28  1  0  0  0  0
 27 29  1  1  0  0  0
 29 30  1  0  0  0  0
 31 32  1  6  0  0  0
 31 40  1  0  0  0  0
 33 31  1  0  0  0  0
 33 42  1  6  0  0  0
 35 33  1  0  0  0  0
 35 36  1  1  0  0  0
 37 35  1  0  0  0  0
 37 38  1  6  0  0  0
 37 39  1  0  0  0  0
 39 40  1  0  0  0  0
 39 41  1  6  0  0  0
 41 34  1  0  0  0  0
M  END
>  <CHROM.1>
-165.35524693,-71.67969345,-163.70690052,159.56326960,175.28367498,175.31687807
-179.34831467,-74.84850630,175.92603996,-0.21494388,91.72606636,11.83842972
0.96285058,0.71551069,2.14066260

>  <Name>
2fcy_lig

>  <RI>
4.13508e+07

>  <Rbt.Current_Directory>
/home/itssahil/PROJECTS/Mol_Feturizer/New_Systems/rnas/2fcy

>  <Rbt.Executable>
rbdock ($Id: //depot/dev/client3/rdock/2013.1/src/exe/rbdock.cxx#4 $)

>  <Rbt.Library>
libRbt.so (2013.1, Build901 2013/11/27)

>  <Rbt.Parameter_File>
/export/apps/rDock/src/rDock_2013.1_src/data/scripts/dock_solv.prm

>  <Rbt.Receptor>
prm/pocket_docking_3.prm

>  <SCORE>
-20.9375

>  <SCORE.INTER>
-15.7381

>  <SCORE.INTER.CONST>
1

>  <SCORE.INTER.POLAR>
-1.64276

>  <SCORE.INTER.ROT>
9

>  <SCORE.INTER.SOLV>
17.0958

>  <SCORE.INTER.VDW>
-20.3148

>  <SCORE.INTER.norm>
-0.374717

>  <SCORE.INTRA>
-5.19938

>  <SCORE.INTRA.DIHEDRAL>
-10.8548

>  <SCORE.INTRA.DIHEDRAL.0>
17.3446

>  <SCORE.INTRA.POLAR>
0

>  <SCORE.INTRA.POLAR.0>
0

>  <SCORE.INTRA.REPUL>
0

>  <SCORE.INTRA.REPUL.0>
0

>  <SCORE.INTRA.SOLV>
-3.14875

>  <SCORE.INTRA.SOLV.lig_0>
-112.452

>  <SCORE.INTRA.VDW>
1.80238

>  <SCORE.INTRA.VDW.0>
-5.95059

>  <SCORE.INTRA.norm>
-0.123795

>  <SCORE.RESTR>
0

>  <SCORE.RESTR.CAVITY>
0

>  <SCORE.RESTR.norm>
0

>  <SCORE.SYSTEM>
0

>  <SCORE.SYSTEM.CONST>
0

>  <SCORE.SYSTEM.DIHEDRAL>
0

>  <SCORE.SYSTEM.SOLV>
0

>  <SCORE.SYSTEM.norm>
0

>  <SCORE.heavy>
42

>  <SCORE.norm>
-0.498511

>  <RMSD>
1.770

$$$$
2fcy_lig
 OpenBabel11021811433D
libRbt.so/2013.1/901 2013/11/27
 42 45  0  0  0  0  0  0  0  0999 V2000
    0.2434   91.0490   14.1447 C   0  0  2  0  0  0  0  0  0  0  0  0
    0.5393   92.4349   14.3876 O   0  0  0  0  0  0  0  0  0  0  0  0
   -1.0211   90.7547   14.9531 C   0  0  2  0  0  0  0  0  0  0  0  0
   -2.0616   91.7177   14.5675 N   0  0  0  0  0  0  0  0  0  0  0  0
   -0.7199   90.9020   16.4467 C   0  0  1  0  0  0  0  0  0  0  0  0
   -1.8882   90.6270   17.2247 O   0  0  0  0  0  0  0  0  0  0  0  0
    0.4153   89.9524   16.8309 C   0  0  2  0  0  0  0  0  0  0  0  0
    0.7594   90.1606   18.2006 O   0  0  0  0  0  0  0  0  0  0  0  0
    1.6416   90.2799   15.9776 C   0  0  2  0  0  0  0  0  0  0  0  0
    1.3008   90.1732   14.5866 O   0  0  0  0  0  0  0  0  0  0  0  0
    2.7826   89.3282   16.3466 C   0  0  0  0  0  0  0  0  0  0  0  0
    2.4148   87.9322   16.0665 N   0  0  0  0  0  0  0  0  0  0  0  0
    2.8026   95.3296   12.3517 C   0  0  2  0  0  0  0  0  0  0  0  0
    3.7989   96.1463   11.6423 N   0  0  0  0  0  0  0  0  0  0  0  0
    3.3396   94.8755   13.7105 C   0  0  0  0  0  0  0  0  0  0  0  0
    2.2156   94.1462   14.4534 C   0  0  2  0  0  0  0  0  0  0  0  0
    2.7340   93.6241   15.7261 N   0  0  0  0  0  0  0  0  0  0  0  0
    1.6590   92.9636   13.6552 C   0  0  2  0  0  0  0  0  0  0  0  0
    1.3198   93.2794   12.2028 C   0  0  2  0  0  0  0  0  0  0  0  0
    1.2000   92.0054   11.5494 O   0  0  0  0  0  0  0  0  0  0  0  0
    2.4254   94.0986   11.5238 C   0  0  1  0  0  0  0  0  0  0  0  0
    2.0052   94.5505   10.2337 O   0  0  0  0  0  0  0  0  0  0  0  0
    0.1998   91.9239   10.5212 C   0  0  1  0  0  0  0  0  0  0  0  0
    0.2487   90.5098    9.9404 C   0  0  2  0  0  0  0  0  0  0  0  0
    1.2733   90.4335    8.9463 O   0  0  0  0  0  0  0  0  0  0  0  0
   -1.1195   90.4862    9.2653 C   0  0  1  0  0  0  0  0  0  0  0  0
   -1.9801   91.0816   10.3685 C   0  0  2  0  0  0  0  0  0  0  0  0
   -1.1469   92.0634   11.0185 O   0  0  0  0  0  0  0  0  0  0  0  0
   -2.4040   89.9658   11.3306 C   0  0  0  0  0  0  0  0  0  0  0  0
   -3.2274   89.0086   10.6582 O   0  0  0  0  0  0  0  0  0  0  0  0
   -2.4410   91.4449    7.5821 C   0  0  2  0  0  0  0  0  0  0  0  0
   -1.1136   91.3557    8.1219 O   0  0  0  0  0  0  0  0  0  0  0  0
   -2.7440   90.1901    6.7570 C   0  0  1  0  0  0  0  0  0  0  0  0
   -5.3328   94.3869    5.0445 N   0  0  0  0  0  0  0  0  0  0  0  0
   -4.1174   90.3092    6.0875 C   0  0  1  0  0  0  0  0  0  0  0  0
   -5.1547   90.2726    7.0729 O   0  0  0  0  0  0  0  0  0  0  0  0
   -4.1972   91.6181    5.2971 C   0  0  2  0  0  0  0  0  0  0  0  0
   -3.2569   91.5578    4.2193 O   0  0  0  0  0  0  0  0  0  0  0  0
   -3.8645   92.7958    6.2194 C   0  0  1  0  0  0  0  0  0  0  0  0
   -2.5455   92.6286    6.7716 O   0  0  0  0  0  0  0  0  0  0  0  0
   -3.9512   94.1332    5.4789 C   0  0  0  0  0  0  0  0  0  0  0  0
   -1.7244   90.0596    5.7051 N   0  0  0  0  0  0  0  0  0  0  0  0
  1  2  1  1  0  0  0
  1  3  1  0  0  0  0
  1 10  1  0  0  0  0
  3  4  1  6  0  0  0
  3  5  1  0  0  0  0
  5  6  1  1  0  0  0
  5  7  1  0  0  0  0
  7  8  1  1  0  0  0
  7  9  1  0  0  0  0
  9 10  1  0  0  0  0
  9 11  1  1  0  0  0
 11 12  1  0  0  0  0
 13 14  1  6  0  0  0
 13 15  1  0  0  0  0
 13 21  1  0  0  0  0
 16 15  1  0  0  0  0
 16 17  1  1  0  0  0
 18  2  1  1  0  0  0
 18 16  1  0  0  0  0
 19 18  1  0  0  0  0
 19 20  1  6  0  0  0
 21 19  1  0  0  0  0
 21 22  1  6  0  0  0
 23 20  1  1  0  0  0
 23 24  1  0  0  0  0
 23 28  1  0  0  0  0
 24 25  1  6  0  0  0
 24 26  1  0  0  0  0
 26 27  1  0  0  0  0
 26 32  1  6  0  0  0
 27 28  1  0  0  0  0
 27 29  1  1  0  0  0
 29 30  1  0  0  0  0
 31 32  1  6  0  0  0
 31 40  1  0  0  0  0
 33 31  1  0  0  0  0
 33 42  1  6  0  0  0
 35 33  1  0  0  0  0
 35 36  1  1  0  0  0
 37 35  1  0  0  0  0
 37 38  1  6  0  0  0
 37 39  1  0  0  0  0
 39 40  1  0  0  0  0
 39 41  1  6  0  0  0
 41 34  1  0  0  0  0
M  END
>  <CHROM.1>
-176.38107825,61.86835705,-154.56522573,144.71660968,179.02657814,-173.57071438
-63.70363297,-78.36538620,64.40440290,-0.50941154,91.70974233,11.25397402
0.91479138,0.73693734,2.07784260

>  <Name>
2fcy_lig

>  <RI>
4.13508e+07

>  <Rbt.Current_Directory>
/home/itssahil/PROJECTS/Mol_Feturizer/New_Systems/rnas/2fcy

>  <Rbt.Executable>
rbdock ($Id: //depot/dev/client3/rdock/2013.1/src/exe/rbdock.cxx#4 $)

>  <Rbt.Library>
libRbt.so (2013.1, Build901 2013/11/27)

>  <Rbt.Parameter_File>
/export/apps/rDock/src/rDock_2013.1_src/data/scripts/dock_solv.prm

>  <Rbt.Receptor>
prm/pocket_docking_3.prm

>  <SCORE>
-16.4561

>  <SCORE.INTER>
-13.0185

>  <SCORE.INTER.CONST>
1

>  <SCORE.INTER.POLAR>
-1.41794

>  <SCORE.INTER.ROT>
9

>  <SCORE.INTER.SOLV>
21.0252

>  <SCORE.INTER.VDW>
-20.5609

>  <SCORE.INTER.norm>
-0.309963

>  <SCORE.INTRA>
-3.43769

>  <SCORE.INTRA.DIHEDRAL>
-7.5626

>  <SCORE.INTRA.DIHEDRAL.0>
17.3446

>  <SCORE.INTRA.POLAR>
0

>  <SCORE.INTRA.POLAR.0>
0

>  <SCORE.INTRA.REPUL>
0

>  <SCORE.INTRA.REPUL.0>
0

>  <SCORE.INTRA.SOLV>
-1.92176

>  <SCORE.INTRA.SOLV.lig_0>
-112.452

>  <SCORE.INTRA.VDW>
1.30449

>  <SCORE.INTRA.VDW.0>
-5.95059

>  <SCORE.INTRA.norm>
-0.0818498

>  <SCORE.RESTR>
0

>  <SCORE.RESTR.CAVITY>
0

>  <SCORE.RESTR.norm>
0

>  <SCORE.SYSTEM>
0

>  <SCORE.SYSTEM.CONST>
0

>  <SCORE.SYSTEM.DIHEDRAL>
0

>  <SCORE.SYSTEM.SOLV>
0

>  <SCORE.SYSTEM.norm>
0

>  <SCORE.heavy>
42

>  <SCORE.norm>
-0.391813

>  <RMSD>
1.800

$$$$
2fcy_lig
 OpenBabel11021811433D
libRbt.so/2013.1/901 2013/11/27
 42 45  0  0  0  0  0  0  0  0999 V2000
   -0.0131   91.1432   13.9914 C   0  0  2  0  0  0  0  0  0  0  0  0
    0.3811   92.4742   14.3659 O   0  0  0  0  0  0  0  0  0  0  0  0
   -1.3796   90.9248   14.6427 C   0  0  2  0  0  0  0  0  0  0  0  0
   -2.2789   92.0094   14.2260 N   0  0  0  0  0  0  0  0  0  0  0  0
   -1.2301   90.9448   16.1660 C   0  0  1  0  0  0  0  0  0  0  0  0
   -2.4962   90.7380   16.7982 O   0  0  0  0  0  0  0  0  0  0  0  0
   -0.2357   89.8642   16.5919 C   0  0  2  0  0  0  0  0  0  0  0  0
   -0.0247   89.9485   18.0012 O   0  0  0  0  0  0  0  0  0  0  0  0
    1.1009   90.1224   15.8948 C   0  0  2  0  0  0  0  0  0  0  0  0
    0.9048   90.1399   14.4722 O   0  0  0  0  0  0  0  0  0  0  0  0
    2.1025   89.0400   16.3061 C   0  0  0  0  0  0  0  0  0  0  0  0
    2.4926   89.1925   17.7158 N   0  0  0  0  0  0  0  0  0  0  0  0
    3.1966   95.2253   12.8991 C   0  0  2  0  0  0  0  0  0  0  0  0
    4.3609   95.9687   12.3946 N   0  0  0  0  0  0  0  0  0  0  0  0
    3.4989   94.6016   14.2631 C   0  0  0  0  0  0  0  0  0  0  0  0
    2.2141   93.9575   14.7937 C   0  0  2  0  0  0  0  0  0  0  0  0
    2.5016   93.2758   16.0639 N   0  0  0  0  0  0  0  0  0  0  0  0
    1.6381   92.9195   13.8262 C   0  0  2  0  0  0  0  0  0  0  0  0
    1.5276   93.3897   12.3801 C   0  0  2  0  0  0  0  0  0  0  0  0
    1.3531   92.1965   11.5992 O   0  0  0  0  0  0  0  0  0  0  0  0
    2.7959   94.1199   11.9190 C   0  0  1  0  0  0  0  0  0  0  0  0
    2.5995   94.7217   10.6366 O   0  0  0  0  0  0  0  0  0  0  0  0
    0.2230   92.1919   10.7119 C   0  0  1  0  0  0  0  0  0  0  0  0
    0.3292   93.4318    9.8226 C   0  0  2  0  0  0  0  0  0  0  0  0
   -0.2159   94.5625   10.5069 O   0  0  0  0  0  0  0  0  0  0  0  0
   -0.6214   93.0032    8.7085 C   0  0  1  0  0  0  0  0  0  0  0  0
   -0.1552   91.5732    8.4851 C   0  0  2  0  0  0  0  0  0  0  0  0
    0.2233   91.0841    9.7883 O   0  0  0  0  0  0  0  0  0  0  0  0
    1.0290   91.5786    7.5114 C   0  0  0  0  0  0  0  0  0  0  0  0
    1.3324   90.2482    7.0821 O   0  0  0  0  0  0  0  0  0  0  0  0
   -2.8757   92.8044    8.0945 C   0  0  2  0  0  0  0  0  0  0  0  0
   -1.9738   93.0103    9.1926 O   0  0  0  0  0  0  0  0  0  0  0  0
   -2.8512   94.0293    7.1747 C   0  0  1  0  0  0  0  0  0  0  0  0
   -6.9808   93.0371    9.0486 N   0  0  0  0  0  0  0  0  0  0  0  0
   -3.8817   93.8747    6.0510 C   0  0  1  0  0  0  0  0  0  0  0  0
   -3.4893   92.8270    5.1584 O   0  0  0  0  0  0  0  0  0  0  0  0
   -5.2566   93.5617    6.6476 C   0  0  2  0  0  0  0  0  0  0  0  0
   -5.6933   94.6949    7.4057 O   0  0  0  0  0  0  0  0  0  0  0  0
   -5.1544   92.3306    7.5544 C   0  0  1  0  0  0  0  0  0  0  0  0
   -4.2005   92.5736    8.6051 O   0  0  0  0  0  0  0  0  0  0  0  0
   -6.5115   91.9632    8.1607 C   0  0  0  0  0  0  0  0  0  0  0  0
   -3.2007   95.2196    7.9648 N   0  0  0  0  0  0  0  0  0  0  0  0
  1  2  1  1  0  0  0
  1  3  1  0  0  0  0
  1 10  1  0  0  0  0
  3  4  1  1  0  0  0
  3  5  1  0  0  0  0
  5  6  1  1  0  0  0
  5  7  1  0  0  0  0
  7  8  1  1  0  0  0
  7  9  1  0  0  0  0
  9 10  1  0  0  0  0
  9 11  1  6  0  0  0
 11 12  1  0  0  0  0
 13 14  1  6  0  0  0
 13 15  1  0  0  0  0
 13 21  1  0  0  0  0
 16 15  1  0  0  0  0
 16 17  1  1  0  0  0
 18  2  1  1  0  0  0
 18 16  1  0  0  0  0
 19 18  1  0  0  0  0
 19 20  1  6  0  0  0
 21 19  1  0  0  0  0
 21 22  1  6  0  0  0
 23 20  1  1  0  0  0
 23 24  1  0  0  0  0
 23 28  1  0  0  0  0
 24 25  1  1  0  0  0
 24 26  1  0  0  0  0
 26 27  1  0  0  0  0
 26 32  1  1  0  0  0
 27 28  1  0  0  0  0
 27 29  1  6  0  0  0
 29 30  1  0  0  0  0
 31 32  1  1  0  0  0
 31 40  1  0  0  0  0
 33 31  1  0  0  0  0
 33 42  1  1  0  0  0
 35 33  1  0  0  0  0
 35 36  1  6  0  0  0
 37 35  1  0  0  0  0
 37 38  1  1  0  0  0
 37 39  1  0  0  0  0
 39 40  1  0  0  0  0
 39 41  1  1  0  0  0
 41 34  1  0  0  0  0
M  END
>  <CHROM.1>
-178.23247199,-69.71144656,-152.76048054,127.25390534,54.67410215,171.36674384
-169.11683803,-68.56581064,-64.29774980,-0.60621105,92.47441297,11.49850731
0.99444160,0.30539714,1.96646241

>  <Name>
2fcy_lig

>  <RI>
0

>  <Rbt.Current_Directory>
/home/itssahil/PROJECTS/Mol_Feturizer/New_Systems/rnas/2fcy

>  <Rbt.Executable>
rbdock ($Id: //depot/dev/client3/rdock/2013.1/src/exe/rbdock.cxx#4 $)

>  <Rbt.Library>
libRbt.so (2013.1, Build901 2013/11/27)

>  <Rbt.Parameter_File>
/export/apps/rDock/src/rDock_2013.1_src/data/scripts/dock_solv.prm

>  <Rbt.Receptor>
prm/pocket_docking_2.prm

>  <SCORE>
-11.8138

>  <SCORE.INTER>
-13.5676

>  <SCORE.INTER.CONST>
1

>  <SCORE.INTER.POLAR>
-0.97857

>  <SCORE.INTER.ROT>
9

>  <SCORE.INTER.SOLV>
13.4482

>  <SCORE.INTER.VDW>
-19.8659

>  <SCORE.INTER.norm>
-0.323037

>  <SCORE.INTRA>
0.542717

>  <SCORE.INTRA.DIHEDRAL>
-5.17488

>  <SCORE.INTRA.DIHEDRAL.0>
17.3446

>  <SCORE.INTRA.POLAR>
0

>  <SCORE.INTRA.POLAR.0>
0

>  <SCORE.INTRA.REPUL>
0

>  <SCORE.INTRA.REPUL.0>
0

>  <SCORE.INTRA.SOLV>
-0.513752

>  <SCORE.INTRA.SOLV.lig_0>
-112.452

>  <SCORE.INTRA.VDW>
3.38703

>  <SCORE.INTRA.VDW.0>
-5.95059

>  <SCORE.INTRA.norm>
0.0129218

>  <SCORE.RESTR>
1.21107

>  <SCORE.RESTR.CAVITY>
1.21107

>  <SCORE.RESTR.norm>
0.0288351

>  <SCORE.SYSTEM>
0

>  <SCORE.SYSTEM.CONST>
0

>  <SCORE.SYSTEM.DIHEDRAL>
0

>  <SCORE.SYSTEM.SOLV>
0

>  <SCORE.SYSTEM.norm>
0

>  <SCORE.heavy>
42

>  <SCORE.norm>
-0.28128

>  <RMSD>
1.812

$$$$
2fcy_lig
 OpenBabel11021811433D
libRbt.so/2013.1/901 2013/11/27
 42 45  0  0  0  0  0  0  0  0999 V2000
   -0.2494   90.9979   13.9480 C   0  0  2  0  0  0  0  0  0  0  0  0
    0.2752   92.3172   14.1750 O   0  0  0  0  0  0  0  0  0  0  0  0
   -1.5170   90.9116   14.7994 C   0  0  2  0  0  0  0  0  0  0  0  0
   -2.4001   92.0309   14.4444 N   0  0  0  0  0  0  0  0  0  0  0  0
   -1.1461   91.0064   16.2815 C   0  0  1  0  0  0  0  0  0  0  0  0
   -2.3168   90.9236   17.0990 O   0  0  0  0  0  0  0  0  0  0  0  0
   -0.1676   89.8850   16.6318 C   0  0  2  0  0  0  0  0  0  0  0  0
    0.2513   90.0331   17.9884 O   0  0  0  0  0  0  0  0  0  0  0  0
    1.0663   90.0103   15.7368 C   0  0  2  0  0  0  0  0  0  0  0  0
    0.6663   89.9618   14.3584 O   0  0  0  0  0  0  0  0  0  0  0  0
    2.0497   88.8858   16.0718 C   0  0  0  0  0  0  0  0  0  0  0  0
    2.6581   89.0954   17.3941 N   0  0  0  0  0  0  0  0  0  0  0  0
    2.6397   94.7780   11.7256 C   0  0  2  0  0  0  0  0  0  0  0  0
    3.6614   95.4348   10.8962 N   0  0  0  0  0  0  0  0  0  0  0  0
    3.1803   94.4897   13.1275 C   0  0  0  0  0  0  0  0  0  0  0  0
    2.0362   93.9307   13.9794 C   0  0  2  0  0  0  0  0  0  0  0  0
    2.5529   93.5643   15.3059 N   0  0  0  0  0  0  0  0  0  0  0  0
    1.4051   92.6795   13.3617 C   0  0  2  0  0  0  0  0  0  0  0  0
    1.0534   92.8076   11.8837 C   0  0  2  0  0  0  0  0  0  0  0  0
    0.8568   91.4632   11.4166 O   0  0  0  0  0  0  0  0  0  0  0  0
    2.1849   93.4654   11.0828 C   0  0  1  0  0  0  0  0  0  0  0  0
    1.7622   93.7549    9.7477 O   0  0  0  0  0  0  0  0  0  0  0  0
   -0.1871   91.2873   10.4453 C   0  0  1  0  0  0  0  0  0  0  0  0
    0.4513   90.7109    9.1804 C   0  0  2  0  0  0  0  0  0  0  0  0
    1.0012   91.7704    8.3938 O   0  0  0  0  0  0  0  0  0  0  0  0
   -0.8081   90.1754    8.5055 C   0  0  1  0  0  0  0  0  0  0  0  0
   -1.4806   89.4894    9.6841 C   0  0  2  0  0  0  0  0  0  0  0  0
   -1.1712   90.3063   10.8320 O   0  0  0  0  0  0  0  0  0  0  0  0
   -0.9185   88.0702    9.8253 C   0  0  0  0  0  0  0  0  0  0  0  0
    0.4550   88.1111   10.2231 O   0  0  0  0  0  0  0  0  0  0  0  0
   -2.4857   90.8142    6.9968 C   0  0  2  0  0  0  0  0  0  0  0  0
   -1.6170   91.2697    8.0453 O   0  0  0  0  0  0  0  0  0  0  0  0
   -1.6828   90.6462    5.7029 C   0  0  1  0  0  0  0  0  0  0  0  0
   -6.3457   92.3708    7.0426 N   0  0  0  0  0  0  0  0  0  0  0  0
   -2.6093   90.2586    4.5454 C   0  0  1  0  0  0  0  0  0  0  0  0
   -3.1277   88.9396    4.7449 O   0  0  0  0  0  0  0  0  0  0  0  0
   -3.7625   91.2610    4.4462 C   0  0  2  0  0  0  0  0  0  0  0  0
   -3.2261   92.5389    4.0874 O   0  0  0  0  0  0  0  0  0  0  0  0
   -4.4803   91.3528    5.7969 C   0  0  1  0  0  0  0  0  0  0  0  0
   -3.5522   91.7627    6.8184 O   0  0  0  0  0  0  0  0  0  0  0  0
   -5.6580   92.3298    5.7437 C   0  0  0  0  0  0  0  0  0  0  0  0
   -1.0420   91.9289    5.3754 N   0  0  0  0  0  0  0  0  0  0  0  0
  1  2  1  1  0  0  0
  1  3  1  0  0  0  0
  1 10  1  0  0  0  0
  3  4  1  6  0  0  0
  3  5  1  0  0  0  0
  5  6  1  1  0  0  0
  5  7  1  0  0  0  0
  7  8  1  1  0  0  0
  7  9  1  0  0  0  0
  9 10  1  0  0  0  0
  9 11  1  1  0  0  0
 11 12  1  0  0  0  0
 13 14  1  6  0  0  0
 13 15  1  0  0  0  0
 13 21  1  0  0  0  0
 16 15  1  0  0  0  0
 16 17  1  1  0  0  0
 18  2  1  1  0  0  0
 18 16  1  0  0  0  0
 19 18  1  0  0  0  0
 19 20  1  6  0  0  0
 21 19  1  0  0  0  0
 21 22  1  6  0  0  0
 23 20  1  1  0  0  0
 23 24  1  0  0  0  0
 23 28  1  0  0  0  0
 24 25  1  6  0  0  0
 24 26  1  0  0  0  0
 26 27  1  0  0  0  0
 26 32  1  1  0  0  0
 27 28  1  0  0  0  0
 27 29  1  1  0  0  0
 29 30  1  0  0  0  0
 31 32  1  1  0  0  0
 31 40  1  0  0  0  0
 33 31  1  0  0  0  0
 33 42  1  6  0  0  0
 35 33  1  0  0  0  0
 35 36  1  1  0  0  0
 37 35  1  0  0  0  0
 37 38  1  1  0  0  0
 37 39  1  0  0  0  0
 39 40  1  0  0  0  0
 39 41  1  6  0  0  0
 41 34  1  0  0  0  0
M  END
>  <CHROM.1>
-173.78805214,-70.18797325,-165.62142233,143.34895591,120.29987298,157.71429782
67.62875805,-75.70026294,178.60269961,-0.52794537,91.36023713,10.89349681
1.06794063,0.65587311,1.88649533

>  <Name>
2fcy_lig

>  <RI>
1.56845e+07

>  <Rbt.Current_Directory>
/home/itssahil/PROJECTS/Mol_Feturizer/New_Systems/rnas/2fcy

>  <Rbt.Executable>
rbdock ($Id: //depot/dev/client3/rdock/2013.1/src/exe/rbdock.cxx#4 $)

>  <Rbt.Library>
libRbt.so (2013.1, Build901 2013/11/27)

>  <Rbt.Parameter_File>
/export/apps/rDock/src/rDock_2013.1_src/data/scripts/dock_solv.prm

>  <Rbt.Receptor>
prm/pocket_docking_4.prm

>  <SCORE>
-19.2958

>  <SCORE.INTER>
-19.9422

>  <SCORE.INTER.CONST>
1

>  <SCORE.INTER.POLAR>
-2.25373

>  <SCORE.INTER.ROT>
9

>  <SCORE.INTER.SOLV>
17.7007

>  <SCORE.INTER.VDW>
-21.2826

>  <SCORE.INTER.norm>
-0.474814

>  <SCORE.INTRA>
0.64634

>  <SCORE.INTRA.DIHEDRAL>
-0.00772595

>  <SCORE.INTRA.DIHEDRAL.0>
17.3446

>  <SCORE.INTRA.POLAR>
0

>  <SCORE.INTRA.POLAR.0>
0

>  <SCORE.INTRA.REPUL>
0

>  <SCORE.INTRA.REPUL.0>
0

>  <SCORE.INTRA.SOLV>
-2.76303

>  <SCORE.INTRA.SOLV.lig_0>
-112.452

>  <SCORE.INTRA.VDW>
2.03172

>  <SCORE.INTRA.VDW.0>
-5.95059

>  <SCORE.INTRA.norm>
0.015389

>  <SCORE.RESTR>
0

>  <SCORE.RESTR.CAVITY>
0

>  <SCORE.RESTR.norm>
0

>  <SCORE.SYSTEM>
0

>  <SCORE.SYSTEM.CONST>
0

>  <SCORE.SYSTEM.DIHEDRAL>
0

>  <SCORE.SYSTEM.SOLV>
0

>  <SCORE.SYSTEM.norm>
0

>  <SCORE.heavy>
42

>  <SCORE.norm>
-0.459425

>  <RMSD>
1.865

$$$$
2fcy_lig
 OpenBabel11021811433D
libRbt.so/2013.1/901 2013/11/27
 42 45  0  0  0  0  0  0  0  0999 V2000
    0.8745   91.4937   14.6263 C   0  0  2  0  0  0  0  0  0  0  0  0
    0.8176   92.8100   14.0507 O   0  0  0  0  0  0  0  0  0  0  0  0
   -0.5133   90.8912   14.4031 C   0  0  2  0  0  0  0  0  0  0  0  0
   -0.8317   90.9596   12.9703 N   0  0  0  0  0  0  0  0  0  0  0  0
   -1.5520   91.6905   15.1938 C   0  0  1  0  0  0  0  0  0  0  0  0
   -2.8594   91.1423   15.0039 O   0  0  0  0  0  0  0  0  0  0  0  0
   -1.1775   91.6813   16.6762 C   0  0  2  0  0  0  0  0  0  0  0  0
   -2.0921   92.5065   17.3975 O   0  0  0  0  0  0  0  0  0  0  0  0
    0.2236   92.2740   16.8340 C   0  0  2  0  0  0  0  0  0  0  0  0
    1.1551   91.5217   16.0409 O   0  0  0  0  0  0  0  0  0  0  0  0
    0.6139   92.2608   18.3143 C   0  0  0  0  0  0  0  0  0  0  0  0
    0.7521   90.8832   18.8099 N   0  0  0  0  0  0  0  0  0  0  0  0
    3.6916   95.7173   13.0841 C   0  0  2  0  0  0  0  0  0  0  0  0
    4.8656   96.5128   12.6944 N   0  0  0  0  0  0  0  0  0  0  0  0
    4.0279   94.7876   14.2517 C   0  0  0  0  0  0  0  0  0  0  0  0
    2.7398   94.0873   14.6962 C   0  0  2  0  0  0  0  0  0  0  0  0
    3.0540   93.1230   15.7604 N   0  0  0  0  0  0  0  0  0  0  0  0
    2.0676   93.3201   13.5539 C   0  0  2  0  0  0  0  0  0  0  0  0
    1.9112   94.1122   12.2606 C   0  0  2  0  0  0  0  0  0  0  0  0
    1.6409   93.1364   11.2414 O   0  0  0  0  0  0  0  0  0  0  0  0
    3.1905   94.8810   11.9041 C   0  0  1  0  0  0  0  0  0  0  0  0
    2.9626   95.7668   10.8048 O   0  0  0  0  0  0  0  0  0  0  0  0
    0.5179   93.4183   10.3908 C   0  0  1  0  0  0  0  0  0  0  0  0
    0.6356   92.5207    9.1579 C   0  0  2  0  0  0  0  0  0  0  0  0
    1.5086   93.1281    8.2025 O   0  0  0  0  0  0  0  0  0  0  0  0
   -0.8049   92.6124    8.6629 C   0  0  1  0  0  0  0  0  0  0  0  0
   -1.5571   92.4172    9.9699 C   0  0  2  0  0  0  0  0  0  0  0  0
   -0.7503   93.0610   10.9776 O   0  0  0  0  0  0  0  0  0  0  0  0
   -1.7147   90.9161   10.2380 C   0  0  0  0  0  0  0  0  0  0  0  0
   -2.4555   90.2927    9.1849 O   0  0  0  0  0  0  0  0  0  0  0  0
   -2.3774   93.9708    7.5765 C   0  0  2  0  0  0  0  0  0  0  0  0
   -1.0578   93.9263    8.1405 O   0  0  0  0  0  0  0  0  0  0  0  0
   -2.4588   95.1071    6.5522 C   0  0  1  0  0  0  0  0  0  0  0  0
   -5.5799   93.0391   10.1258 N   0  0  0  0  0  0  0  0  0  0  0  0
   -3.8868   95.2383    6.0117 C   0  0  1  0  0  0  0  0  0  0  0  0
   -4.2228   94.0978    5.2151 O   0  0  0  0  0  0  0  0  0  0  0  0
   -4.8723   95.3676    7.1764 C   0  0  2  0  0  0  0  0  0  0  0  0
   -4.6131   96.5994    7.8583 O   0  0  0  0  0  0  0  0  0  0  0  0
   -4.6900   94.1870    8.1364 C   0  0  1  0  0  0  0  0  0  0  0  0
   -3.3379   94.1611    8.6302 O   0  0  0  0  0  0  0  0  0  0  0  0
   -5.6699   94.2594    9.3106 C   0  0  0  0  0  0  0  0  0  0  0  0
   -2.0960   96.3681    7.2166 N   0  0  0  0  0  0  0  0  0  0  0  0
  1  2  1  1  0  0  0
  1  3  1  0  0  0  0
  1 10  1  0  0  0  0
  3  4  1  6  0  0  0
  3  5  1  0  0  0  0
  5  6  1  1  0  0  0
  5  7  1  0  0  0  0
  7  8  1  1  0  0  0
  7  9  1  0  0  0  0
  9 10  1  0  0  0  0
  9 11  1  1  0  0  0
 11 12  1  0  0  0  0
 13 14  1  6  0  0  0
 13 15  1  0  0  0  0
 13 21  1  0  0  0  0
 16 15  1  0  0  0  0
 16 17  1  1  0  0  0
 18  2  1  1  0  0  0
 18 16  1  0  0  0  0
 19 18  1  0  0  0  0
 19 20  1  6  0  0  0
 21 19  1  0  0  0  0
 21 22  1  6  0  0  0
 23 20  1  1  0  0  0
 23 24  1  0  0  0  0
 23 28  1  0  0  0  0
 24 25  1  6  0  0  0
 24 26  1  0  0  0  0
 26 27  1  0  0  0  0
 26 32  1  1  0  0  0
 27 28  1  0  0  0  0
 27 29  1  1  0  0  0
 29 30  1  0  0  0  0
 31 32  1  1  0  0  0
 31 40  1  0  0  0  0
 33 31  1  0  0  0  0
 33 42  1  1  0  0  0
 35 33  1  0  0  0  0
 35 36  1  1  0  0  0
 37 35  1  0  0  0  0
 37 38  1  1  0  0  0
 37 39  1  0  0  0  0
 39 40  1  0  0  0  0
 39 41  1  1  0  0  0
 41 34  1  0  0  0  0
M  END
>  <CHROM.1>
-151.26392152,65.87664904,-90.89849876,130.87428122,163.82170796,175.24187269
-60.52101457,-157.27099539,173.39950863,-0.59391270,93.33242811,11.62867616
1.04544749,0.33086167,1.96689421

>  <Name>
2fcy_lig

>  <RI>
4.13508e+07

>  <Rbt.Current_Directory>
/home/itssahil/PROJECTS/Mol_Feturizer/New_Systems/rnas/2fcy

>  <Rbt.Executable>
rbdock ($Id: //depot/dev/client3/rdock/2013.1/src/exe/rbdock.cxx#4 $)

>  <Rbt.Library>
libRbt.so (2013.1, Build901 2013/11/27)

>  <Rbt.Parameter_File>
/export/apps/rDock/src/rDock_2013.1_src/data/scripts/dock_solv.prm

>  <Rbt.Receptor>
prm/pocket_docking_3.prm

>  <SCORE>
-4.19252

>  <SCORE.INTER>
-7.19979

>  <SCORE.INTER.CONST>
1

>  <SCORE.INTER.POLAR>
-0.568191

>  <SCORE.INTER.ROT>
9

>  <SCORE.INTER.SOLV>
14.6853

>  <SCORE.INTER.VDW>
-17.401

>  <SCORE.INTER.norm>
-0.171424

>  <SCORE.INTRA>
2.97843

>  <SCORE.INTRA.DIHEDRAL>
0.726691

>  <SCORE.INTRA.DIHEDRAL.0>
17.3446

>  <SCORE.INTRA.POLAR>
0

>  <SCORE.INTRA.POLAR.0>
0

>  <SCORE.INTRA.REPUL>
0.0377428

>  <SCORE.INTRA.REPUL.0>
0

>  <SCORE.INTRA.SOLV>
2.25339

>  <SCORE.INTRA.SOLV.lig_0>
-112.452

>  <SCORE.INTRA.VDW>
1.29968

>  <SCORE.INTRA.VDW.0>
-5.95059

>  <SCORE.INTRA.norm>
0.0709151

>  <SCORE.RESTR>
0.0288432

>  <SCORE.RESTR.CAVITY>
0.0288432

>  <SCORE.RESTR.norm>
0.000686742

>  <SCORE.SYSTEM>
0

>  <SCORE.SYSTEM.CONST>
0

>  <SCORE.SYSTEM.DIHEDRAL>
0

>  <SCORE.SYSTEM.SOLV>
0

>  <SCORE.SYSTEM.norm>
0

>  <SCORE.heavy>
42

>  <SCORE.norm>
-0.0998219

>  <RMSD>
1.961

$$$$
2fcy_lig
 OpenBabel11021811433D
libRbt.so/2013.1/901 2013/11/27
 42 45  0  0  0  0  0  0  0  0999 V2000
    0.3925   91.1072   14.4416 C   0  0  2  0  0  0  0  0  0  0  0  0
    0.8889   92.3499   14.9676 O   0  0  0  0  0  0  0  0  0  0  0  0
   -1.0185   90.9580   15.0124 C   0  0  2  0  0  0  0  0  0  0  0  0
   -1.7926   92.1605   14.6757 N   0  0  0  0  0  0  0  0  0  0  0  0
   -0.9425   90.8114   16.5342 C   0  0  1  0  0  0  0  0  0  0  0  0
   -2.2518   90.6659   17.0913 O   0  0  0  0  0  0  0  0  0  0  0  0
   -0.0740   89.6027   16.8843 C   0  0  2  0  0  0  0  0  0  0  0  0
    0.0747   89.5251   18.3019 O   0  0  0  0  0  0  0  0  0  0  0  0
    1.3132   89.7987   16.2708 C   0  0  2  0  0  0  0  0  0  0  0  0
    1.1895   89.9770   14.8512 O   0  0  0  0  0  0  0  0  0  0  0  0
    2.1895   88.5891   16.6064 C   0  0  0  0  0  0  0  0  0  0  0  0
    2.5454   88.5767   18.0333 N   0  0  0  0  0  0  0  0  0  0  0  0
    3.7584   95.0425   13.4973 C   0  0  2  0  0  0  0  0  0  0  0  0
    4.9403   95.7651   13.0034 N   0  0  0  0  0  0  0  0  0  0  0  0
    4.0189   94.4602   14.8879 C   0  0  0  0  0  0  0  0  0  0  0  0
    2.7164   93.8382   15.4014 C   0  0  2  0  0  0  0  0  0  0  0  0
    2.9644   93.1949   16.6997 N   0  0  0  0  0  0  0  0  0  0  0  0
    2.1628   92.7730   14.4503 C   0  0  2  0  0  0  0  0  0  0  0  0
    2.0957   93.1987   12.9879 C   0  0  2  0  0  0  0  0  0  0  0  0
    1.9374   91.9825   12.2396 O   0  0  0  0  0  0  0  0  0  0  0  0
    3.3802   93.9090   12.5407 C   0  0  1  0  0  0  0  0  0  0  0  0
    3.2232   94.4715   11.2354 O   0  0  0  0  0  0  0  0  0  0  0  0
    0.6498   91.7872   11.6326 C   0  0  1  0  0  0  0  0  0  0  0  0
    0.6641   92.5006   10.2796 C   0  0  2  0  0  0  0  0  0  0  0  0
    0.3645   93.8863   10.4635 O   0  0  0  0  0  0  0  0  0  0  0  0
   -0.5291   91.8022    9.6339 C   0  0  1  0  0  0  0  0  0  0  0  0
   -0.2332   90.3568   10.0020 C   0  0  2  0  0  0  0  0  0  0  0  0
    0.3701   90.4093   11.3112 O   0  0  0  0  0  0  0  0  0  0  0  0
    0.7176   89.7587    8.9588 C   0  0  0  0  0  0  0  0  0  0  0  0
    0.0952   89.7273    7.6712 O   0  0  0  0  0  0  0  0  0  0  0  0
   -2.8690   91.6604    9.5784 C   0  0  2  0  0  0  0  0  0  0  0  0
   -1.7455   92.2322   10.2655 O   0  0  0  0  0  0  0  0  0  0  0  0
   -2.8417   92.0878    8.1074 C   0  0  1  0  0  0  0  0  0  0  0  0
   -6.6368   93.3812   10.4480 N   0  0  0  0  0  0  0  0  0  0  0  0
   -4.0870   91.5726    7.3778 C   0  0  1  0  0  0  0  0  0  0  0  0
   -4.0455   90.1459    7.2719 O   0  0  0  0  0  0  0  0  0  0  0  0
   -5.3465   92.0012    8.1357 C   0  0  2  0  0  0  0  0  0  0  0  0
   -5.4447   93.4286    8.0862 O   0  0  0  0  0  0  0  0  0  0  0  0
   -5.2547   91.5309    9.5912 C   0  0  1  0  0  0  0  0  0  0  0  0
   -4.0846   92.0921   10.2148 O   0  0  0  0  0  0  0  0  0  0  0  0
   -6.5034   91.9181   10.3881 C   0  0  0  0  0  0  0  0  0  0  0  0
   -2.8404   93.5572    8.0431 N   0  0  0  0  0  0  0  0  0  0  0  0
  1  2  1  1  0  0  0
  1  3  1  0  0  0  0
  1 10  1  0  0  0  0
  3  4  1  1  0  0  0
  3  5  1  0  0  0  0
  5  6  1  6  0  0  0
  5  7  1  0  0  0  0
  7  8  1  1  0  0  0
  7  9  1  0  0  0  0
  9 10  1  0  0  0  0
  9 11  1  6  0  0  0
 11 12  1  0  0  0  0
 13 14  1  6  0  0  0
 13 15  1  0  0  0  0
 13 21  1  0  0  0  0
 16 15  1  0  0  0  0
 16 17  1  1  0  0  0
 18  2  1  1  0  0  0
 18 16  1  0  0  0  0
 19 18  1  0  0  0  0
 19 20  1  6  0  0  0
 21 19  1  0  0  0  0
 21 22  1  6  0  0  0
 23 20  1  6  0  0  0
 23 24  1  0  0  0  0
 23 28  1  0  0  0  0
 24 25  1  1  0  0  0
 24 26  1  0  0  0  0
 26 27  1  0  0  0  0
 26 32  1  1  0  0  0
 27 28  1  0  0  0  0
 27 29  1  6  0  0  0
 29 30  1  0  0  0  0
 31 32  1  1  0  0  0
 31 40  1  0  0  0  0
 33 31  1  0  0  0  0
 33 42  1  1  0  0  0
 35 33  1  0  0  0  0
 35 36  1  1  0  0  0
 37 35  1  0  0  0  0
 37 38  1  1  0  0  0
 37 39  1  0  0  0  0
 39 40  1  0  0  0  0
 39 41  1  1  0  0  0
 41 34  1  0  0  0  0
M  END
>  <CHROM.1>
-173.77126598,-70.87328953,-163.00888410,109.54831039,85.58717634,175.06920056
-63.38096460,-58.43935688,-62.71964426,-0.39520551,91.85841115,12.31712917
0.80483421,0.38620251,1.95488223

>  <Name>
2fcy_lig

>  <RI>
4.13508e+07

>  <Rbt.Current_Directory>
/home/itssahil/PROJECTS/Mol_Feturizer/New_Systems/rnas/2fcy

>  <Rbt.Executable>
rbdock ($Id: //depot/dev/client3/rdock/2013.1/src/exe/rbdock.cxx#4 $)

>  <Rbt.Library>
libRbt.so (2013.1, Build901 2013/11/27)

>  <Rbt.Parameter_File>
/export/apps/rDock/src/rDock_2013.1_src/data/scripts/dock_solv.prm

>  <Rbt.Receptor>
prm/pocket_docking_3.prm

>  <SCORE>
-16.8494

>  <SCORE.INTER>
-16.7874

>  <SCORE.INTER.CONST>
1

>  <SCORE.INTER.POLAR>
-1.07364

>  <SCORE.INTER.ROT>
9

>  <SCORE.INTER.SOLV>
17.0188

>  <SCORE.INTER.VDW>
-22.8857

>  <SCORE.INTER.norm>
-0.3997

>  <SCORE.INTRA>
-0.0620041

>  <SCORE.INTRA.DIHEDRAL>
-5.22819

>  <SCORE.INTRA.DIHEDRAL.0>
17.3446

>  <SCORE.INTRA.POLAR>
0

>  <SCORE.INTRA.POLAR.0>
0

>  <SCORE.INTRA.REPUL>
0

>  <SCORE.INTRA.REPUL.0>
0

>  <SCORE.INTRA.SOLV>
-0.795764

>  <SCORE.INTRA.SOLV.lig_0>
-112.452

>  <SCORE.INTRA.VDW>
2.94998

>  <SCORE.INTRA.VDW.0>
-5.95059

>  <SCORE.INTRA.norm>
-0.00147629

>  <SCORE.RESTR>
0

>  <SCORE.RESTR.CAVITY>
0

>  <SCORE.RESTR.norm>
0

>  <SCORE.SYSTEM>
0

>  <SCORE.SYSTEM.CONST>
0

>  <SCORE.SYSTEM.DIHEDRAL>
0

>  <SCORE.SYSTEM.SOLV>
0

>  <SCORE.SYSTEM.norm>
0

>  <SCORE.heavy>
42

>  <SCORE.norm>
-0.401177

>  <RMSD>
1.964

$$$$
2fcy_lig
 OpenBabel11021811433D
libRbt.so/2013.1/901 2013/11/27
 42 45  0  0  0  0  0  0  0  0999 V2000
    0.1410   90.8909   14.0466 C   0  0  2  0  0  0  0  0  0  0  0  0
    0.4543   92.2903   14.1510 O   0  0  0  0  0  0  0  0  0  0  0  0
   -1.1058   90.6873   14.9086 C   0  0  2  0  0  0  0  0  0  0  0  0
   -2.1473   91.6208   14.4587 N   0  0  0  0  0  0  0  0  0  0  0  0
   -0.7671   90.9709   16.3743 C   0  0  1  0  0  0  0  0  0  0  0  0
   -1.9183   90.7827   17.2019 O   0  0  0  0  0  0  0  0  0  0  0  0
    0.3691   90.0496   16.8193 C   0  0  2  0  0  0  0  0  0  0  0  0
    0.7483   90.3817   18.1548 O   0  0  0  0  0  0  0  0  0  0  0  0
    1.5770   90.2825   15.9104 C   0  0  2  0  0  0  0  0  0  0  0  0
    1.2015   90.0493   14.5440 O   0  0  0  0  0  0  0  0  0  0  0  0
    2.7186   89.3576   16.3404 C   0  0  0  0  0  0  0  0  0  0  0  0
    2.3665   87.9475   16.1159 N   0  0  0  0  0  0  0  0  0  0  0  0
    2.5193   94.9632   11.6535 C   0  0  2  0  0  0  0  0  0  0  0  0
    3.4514   95.7085   10.7940 N   0  0  0  0  0  0  0  0  0  0  0  0
    3.1436   94.6887   13.0230 C   0  0  0  0  0  0  0  0  0  0  0  0
    2.0835   94.0315   13.9127 C   0  0  2  0  0  0  0  0  0  0  0  0
    2.6862   93.6786   15.2061 N   0  0  0  0  0  0  0  0  0  0  0  0
    1.5163   92.7495   13.2961 C   0  0  2  0  0  0  0  0  0  0  0  0
    1.0881   92.8796   11.8387 C   0  0  2  0  0  0  0  0  0  0  0  0
    0.9676   91.5336   11.3509 O   0  0  0  0  0  0  0  0  0  0  0  0
    2.1310   93.6334   11.0027 C   0  0  1  0  0  0  0  0  0  0  0  0
    1.6271   93.9165    9.6946 O   0  0  0  0  0  0  0  0  0  0  0  0
   -0.1307   91.2906   10.4570 C   0  0  1  0  0  0  0  0  0  0  0  0
    0.4462   90.7160    9.1622 C   0  0  2  0  0  0  0  0  0  0  0  0
    0.8925   91.7816    8.3202 O   0  0  0  0  0  0  0  0  0  0  0  0
   -0.8302   90.1107    8.5854 C   0  0  1  0  0  0  0  0  0  0  0  0
   -1.3892   89.4211    9.8199 C   0  0  2  0  0  0  0  0  0  0  0  0
   -1.0404   90.2755   10.9286 O   0  0  0  0  0  0  0  0  0  0  0  0
   -0.7545   88.0316    9.9484 C   0  0  0  0  0  0  0  0  0  0  0  0
    0.6158   88.1399   10.3447 O   0  0  0  0  0  0  0  0  0  0  0  0
   -2.8536   90.5826    7.4983 C   0  0  2  0  0  0  0  0  0  0  0  0
   -1.7177   91.1578    8.1617 O   0  0  0  0  0  0  0  0  0  0  0  0
   -2.4316   90.0567    6.1227 C   0  0  1  0  0  0  0  0  0  0  0  0
   -5.6818   93.3713    6.1510 N   0  0  0  0  0  0  0  0  0  0  0  0
   -3.6490   89.5300    5.3552 C   0  0  1  0  0  0  0  0  0  0  0  0
   -4.1565   88.3471    5.9808 O   0  0  0  0  0  0  0  0  0  0  0  0
   -4.7394   90.6041    5.3122 C   0  0  2  0  0  0  0  0  0  0  0  0
   -4.2587   91.7110    4.5421 O   0  0  0  0  0  0  0  0  0  0  0  0
   -5.0680   91.0591    6.7381 C   0  0  1  0  0  0  0  0  0  0  0  0
   -3.8841   91.5781    7.3721 O   0  0  0  0  0  0  0  0  0  0  0  0
   -6.1710   92.1210    6.7504 C   0  0  0  0  0  0  0  0  0  0  0  0
   -1.8420   91.1639    5.3549 N   0  0  0  0  0  0  0  0  0  0  0  0
  1  2  1  1  0  0  0
  1  3  1  0  0  0  0
  1 10  1  0  0  0  0
  3  4  1  6  0  0  0
  3  5  1  0  0  0  0
  5  6  1  1  0  0  0
  5  7  1  0  0  0  0
  7  8  1  1  0  0  0
  7  9  1  0  0  0  0
  9 10  1  0  0  0  0
  9 11  1  1  0  0  0
 11 12  1  0  0  0  0
 13 14  1  6  0  0  0
 13 15  1  0  0  0  0
 13 21  1  0  0  0  0
 16 15  1  0  0  0  0
 16 17  1  1  0  0  0
 18  2  1  1  0  0  0
 18 16  1  0  0  0  0
 19 18  1  0  0  0  0
 19 20  1  6  0  0  0
 21 19  1  0  0  0  0
 21 22  1  6  0  0  0
 23 20  1  1  0  0  0
 23 24  1  0  0  0  0
 23 28  1  0  0  0  0
 24 25  1  6  0  0  0
 24 26  1  0  0  0  0
 26 27  1  0  0  0  0
 26 32  1  1  0  0  0
 27 28  1  0  0  0  0
 27 29  1  1  0  0  0
 29 30  1  0  0  0  0
 31 32  1  6  0  0  0
 31 40  1  0  0  0  0
 33 31  1  0  0  0  0
 33 42  1  6  0  0  0
 35 33  1  0  0  0  0
 35 36  1  1  0  0  0
 37 35  1  0  0  0  0
 37 38  1  6  0  0  0
 37 39  1  0  0  0  0
 39 40  1  0  0  0  0
 39 41  1  6  0  0  0
 41 34  1  0  0  0  0
M  END
>  <CHROM.1>
-173.39132629,65.71947480,-157.42816904,141.43257190,123.70818844,174.19783463
71.80301961,-72.51571012,-68.06906665,-0.57627958,91.27297351,11.03292621
0.86978424,0.74485172,2.03754769

>  <Name>
2fcy_lig

>  <RI>
1.56845e+07

>  <Rbt.Current_Directory>
/home/itssahil/PROJECTS/Mol_Feturizer/New_Systems/rnas/2fcy

>  <Rbt.Executable>
rbdock ($Id: //depot/dev/client3/rdock/2013.1/src/exe/rbdock.cxx#4 $)

>  <Rbt.Library>
libRbt.so (2013.1, Build901 2013/11/27)

>  <Rbt.Parameter_File>
/export/apps/rDock/src/rDock_2013.1_src/data/scripts/dock_solv.prm

>  <Rbt.Receptor>
prm/pocket_docking_4.prm

>  <SCORE>
-14.3605

>  <SCORE.INTER>
-15.5119

>  <SCORE.INTER.CONST>
1

>  <SCORE.INTER.POLAR>
-1.95393

>  <SCORE.INTER.ROT>
9

>  <SCORE.INTER.SOLV>
23.4184

>  <SCORE.INTER.VDW>
-21.2343

>  <SCORE.INTER.norm>
-0.369332

>  <SCORE.INTRA>
1.14454

>  <SCORE.INTRA.DIHEDRAL>
-0.488743

>  <SCORE.INTRA.DIHEDRAL.0>
17.3446

>  <SCORE.INTRA.POLAR>
0

>  <SCORE.INTRA.POLAR.0>
0

>  <SCORE.INTRA.REPUL>
0

>  <SCORE.INTRA.REPUL.0>
0

>  <SCORE.INTRA.SOLV>
-0.36463

>  <SCORE.INTRA.SOLV.lig_0>
-112.452

>  <SCORE.INTRA.VDW>
1.57123

>  <SCORE.INTRA.VDW.0>
-5.95059

>  <SCORE.INTRA.norm>
0.0272509

>  <SCORE.RESTR>
0.00692248

>  <SCORE.RESTR.CAVITY>
0.00692248

>  <SCORE.RESTR.norm>
0.000164821

>  <SCORE.SYSTEM>
0

>  <SCORE.SYSTEM.CONST>
0

>  <SCORE.SYSTEM.DIHEDRAL>
0

>  <SCORE.SYSTEM.SOLV>
0

>  <SCORE.SYSTEM.norm>
0

>  <SCORE.heavy>
42

>  <SCORE.norm>
-0.341916

>  <RMSD>
1.976

$$$$
2fcy_lig
 OpenBabel11021811433D
libRbt.so/2013.1/901 2013/11/27
 42 45  0  0  0  0  0  0  0  0999 V2000
   -0.1335   91.4268   13.9854 C   0  0  2  0  0  0  0  0  0  0  0  0
    0.3874   92.6862   14.4435 O   0  0  0  0  0  0  0  0  0  0  0  0
   -1.4870   91.2690   14.6798 C   0  0  2  0  0  0  0  0  0  0  0  0
   -2.3061   92.4539   14.3903 N   0  0  0  0  0  0  0  0  0  0  0  0
   -1.2766   91.1530   16.1916 C   0  0  1  0  0  0  0  0  0  0  0  0
   -2.5300   91.0000   16.8634 O   0  0  0  0  0  0  0  0  0  0  0  0
   -0.3622   89.9635   16.4863 C   0  0  2  0  0  0  0  0  0  0  0  0
   -0.0895   89.9154   17.8867 O   0  0  0  0  0  0  0  0  0  0  0  0
    0.9632   90.1669   15.7506 C   0  0  2  0  0  0  0  0  0  0  0  0
    0.7136   90.3159   14.3442 O   0  0  0  0  0  0  0  0  0  0  0  0
    1.8841   88.9763   16.0302 C   0  0  0  0  0  0  0  0  0  0  0  0
    2.4254   89.0391   17.3961 N   0  0  0  0  0  0  0  0  0  0  0  0
    3.6063   95.1744   13.3977 C   0  0  2  0  0  0  0  0  0  0  0  0
    4.8775   95.8028   13.0079 N   0  0  0  0  0  0  0  0  0  0  0  0
    3.7849   94.3201   14.6543 C   0  0  0  0  0  0  0  0  0  0  0  0
    2.4085   93.8028   15.0847 C   0  0  2  0  0  0  0  0  0  0  0  0
    2.5659   92.9076   16.2400 N   0  0  0  0  0  0  0  0  0  0  0  0
    1.7072   93.0144   13.9747 C   0  0  2  0  0  0  0  0  0  0  0  0
    1.6976   93.7023   12.6141 C   0  0  2  0  0  0  0  0  0  0  0  0
    1.3667   92.6753   11.6656 O   0  0  0  0  0  0  0  0  0  0  0  0
    3.0689   94.2960   12.2652 C   0  0  1  0  0  0  0  0  0  0  0  0
    2.9901   95.1013   11.0861 O   0  0  0  0  0  0  0  0  0  0  0  0
    0.1742   92.8985   10.8959 C   0  0  1  0  0  0  0  0  0  0  0  0
    0.5688   93.7016    9.6554 C   0  0  2  0  0  0  0  0  0  0  0  0
    0.6174   95.0933    9.9790 O   0  0  0  0  0  0  0  0  0  0  0  0
   -0.6592   93.4210    8.7942 C   0  0  1  0  0  0  0  0  0  0  0  0
   -0.8066   91.9225    9.0064 C   0  0  2  0  0  0  0  0  0  0  0  0
   -0.4056   91.6863   10.3717 O   0  0  0  0  0  0  0  0  0  0  0  0
    0.0956   91.1843    8.0107 C   0  0  0  0  0  0  0  0  0  0  0  0
    1.4735   91.3740    8.3451 O   0  0  0  0  0  0  0  0  0  0  0  0
   -2.9034   93.9900    8.4225 C   0  0  2  0  0  0  0  0  0  0  0  0
   -1.7993   94.1091    9.3326 O   0  0  0  0  0  0  0  0  0  0  0  0
   -2.5779   94.7319    7.1221 C   0  0  1  0  0  0  0  0  0  0  0  0
   -6.7577   93.9965   10.0836 N   0  0  0  0  0  0  0  0  0  0  0  0
   -3.7824   94.7043    6.1751 C   0  0  1  0  0  0  0  0  0  0  0  0
   -4.0140   93.3724    5.7053 O   0  0  0  0  0  0  0  0  0  0  0  0
   -5.0260   95.2227    6.9024 C   0  0  2  0  0  0  0  0  0  0  0  0
   -4.8266   96.6049    7.2178 O   0  0  0  0  0  0  0  0  0  0  0  0
   -5.2425   94.4164    8.1874 C   0  0  1  0  0  0  0  0  0  0  0  0
   -4.0863   94.5296    9.0378 O   0  0  0  0  0  0  0  0  0  0  0  0
   -6.4896   94.8842    8.9425 C   0  0  0  0  0  0  0  0  0  0  0  0
   -2.2714   96.1341    7.4431 N   0  0  0  0  0  0  0  0  0  0  0  0
  1  2  1  1  0  0  0
  1  3  1  0  0  0  0
  1 10  1  0  0  0  0
  3  4  1  1  0  0  0
  3  5  1  0  0  0  0
  5  6  1  1  0  0  0
  5  7  1  0  0  0  0
  7  8  1  1  0  0  0
  7  9  1  0  0  0  0
  9 10  1  0  0  0  0
  9 11  1  6  0  0  0
 11 12  1  0  0  0  0
 13 14  1  6  0  0  0
 13 15  1  0  0  0  0
 13 21  1  0  0  0  0
 16 15  1  0  0  0  0
 16 17  1  1  0  0  0
 18  2  1  1  0  0  0
 18 16  1  0  0  0  0
 19 18  1  0  0  0  0
 19 20  1  6  0  0  0
 21 19  1  0  0  0  0
 21 22  1  6  0  0  0
 23 20  1  1  0  0  0
 23 24  1  0  0  0  0
 23 28  1  0  0  0  0
 24 25  1  1  0  0  0
 24 26  1  0  0  0  0
 26 27  1  0  0  0  0
 26 32  1  1  0  0  0
 27 28  1  0  0  0  0
 27 29  1  6  0  0  0
 29 30  1  0  0  0  0
 31 32  1  1  0  0  0
 31 40  1  0  0  0  0
 33 31  1  0  0  0  0
 33 42  1  1  0  0  0
 35 33  1  0  0  0  0
 35 36  1  1  0  0  0
 37 35  1  0  0  0  0
 37 38  1  1  0  0  0
 37 39  1  0  0  0  0
 39 40  1  0  0  0  0
 39 41  1  1  0  0  0
 41 34  1  0  0  0  0
M  END
>  <CHROM.1>
176.52739589,-74.18931817,-146.52222489,120.23354016,87.97946991,172.23544596
69.75816643,-65.66639331,173.53556802,-0.54567132,93.02165415,11.70077464
1.01829354,0.21452890,2.06881042

>  <Name>
2fcy_lig

>  <RI>
4.13508e+07

>  <Rbt.Current_Directory>
/home/itssahil/PROJECTS/Mol_Feturizer/New_Systems/rnas/2fcy

>  <Rbt.Executable>
rbdock ($Id: //depot/dev/client3/rdock/2013.1/src/exe/rbdock.cxx#4 $)

>  <Rbt.Library>
libRbt.so (2013.1, Build901 2013/11/27)

>  <Rbt.Parameter_File>
/export/apps/rDock/src/rDock_2013.1_src/data/scripts/dock_solv.prm

>  <Rbt.Receptor>
prm/pocket_docking_3.prm

>  <SCORE>
-18.2883

>  <SCORE.INTER>
-19.1375

>  <SCORE.INTER.CONST>
1

>  <SCORE.INTER.POLAR>
-1.85359

>  <SCORE.INTER.ROT>
9

>  <SCORE.INTER.SOLV>
14.6981

>  <SCORE.INTER.VDW>
-21.0791

>  <SCORE.INTER.norm>
-0.455656

>  <SCORE.INTRA>
0.849251

>  <SCORE.INTRA.DIHEDRAL>
-0.644143

>  <SCORE.INTRA.DIHEDRAL.0>
17.3446

>  <SCORE.INTRA.POLAR>
0

>  <SCORE.INTRA.POLAR.0>
0

>  <SCORE.INTRA.REPUL>
0

>  <SCORE.INTRA.REPUL.0>
0

>  <SCORE.INTRA.SOLV>
-1.08479

>  <SCORE.INTRA.SOLV.lig_0>
-112.452

>  <SCORE.INTRA.VDW>
1.71371

>  <SCORE.INTRA.VDW.0>
-5.95059

>  <SCORE.INTRA.norm>
0.0202203

>  <SCORE.RESTR>
0

>  <SCORE.RESTR.CAVITY>
0

>  <SCORE.RESTR.norm>
0

>  <SCORE.SYSTEM>
0

>  <SCORE.SYSTEM.CONST>
0

>  <SCORE.SYSTEM.DIHEDRAL>
0

>  <SCORE.SYSTEM.SOLV>
0

>  <SCORE.SYSTEM.norm>
0

>  <SCORE.heavy>
42

>  <SCORE.norm>
-0.435435

>  <RMSD>
1.997

$$$$
2fcy_lig
 OpenBabel11021811433D
libRbt.so/2013.1/901 2013/11/27
 42 45  0  0  0  0  0  0  0  0999 V2000
    0.3643   91.0252   14.2830 C   0  0  2  0  0  0  0  0  0  0  0  0
    0.6804   92.4110   14.4994 O   0  0  0  0  0  0  0  0  0  0  0  0
   -0.9144   90.7695   15.0820 C   0  0  2  0  0  0  0  0  0  0  0  0
   -1.9341   91.7407   14.6628 N   0  0  0  0  0  0  0  0  0  0  0  0
   -0.6287   90.9445   16.5757 C   0  0  1  0  0  0  0  0  0  0  0  0
   -1.8106   90.7059   17.3450 O   0  0  0  0  0  0  0  0  0  0  0  0
    0.4858   89.9851   16.9944 C   0  0  2  0  0  0  0  0  0  0  0  0
    0.8169   90.2176   18.3633 O   0  0  0  0  0  0  0  0  0  0  0  0
    1.7275   90.2737   16.1493 C   0  0  2  0  0  0  0  0  0  0  0  0
    1.4016   90.1421   14.7568 O   0  0  0  0  0  0  0  0  0  0  0  0
    2.8480   89.3117   16.5529 C   0  0  0  0  0  0  0  0  0  0  0  0
    2.4925   87.9228   16.2256 N   0  0  0  0  0  0  0  0  0  0  0  0
    2.6371   95.3050   12.1665 C   0  0  2  0  0  0  0  0  0  0  0  0
    3.5321   96.1283   11.3394 N   0  0  0  0  0  0  0  0  0  0  0  0
    3.3168   94.9146   13.4804 C   0  0  0  0  0  0  0  0  0  0  0  0
    2.2948   94.1757   14.3504 C   0  0  2  0  0  0  0  0  0  0  0  0
    2.9501   93.7138   15.5825 N   0  0  0  0  0  0  0  0  0  0  0  0
    1.7060   92.9497   13.6464 C   0  0  2  0  0  0  0  0  0  0  0  0
    1.2190   93.2051   12.2244 C   0  0  2  0  0  0  0  0  0  0  0  0
    1.0817   91.9066   11.6252 O   0  0  0  0  0  0  0  0  0  0  0  0
    2.2256   94.0354   11.4171 C   0  0  1  0  0  0  0  0  0  0  0  0
    1.6687   94.4297   10.1603 O   0  0  0  0  0  0  0  0  0  0  0  0
    0.1287   91.8119   10.5542 C   0  0  1  0  0  0  0  0  0  0  0  0
    0.1581   90.3733   10.0356 C   0  0  2  0  0  0  0  0  0  0  0  0
    1.2250   90.2225    9.0961 O   0  0  0  0  0  0  0  0  0  0  0  0
   -1.1771   90.3632    9.2969 C   0  0  1  0  0  0  0  0  0  0  0  0
   -2.0683   91.0319   10.3316 C   0  0  2  0  0  0  0  0  0  0  0  0
   -1.2345   92.0145   10.9797 O   0  0  0  0  0  0  0  0  0  0  0  0
   -2.5735   89.9723   11.3176 C   0  0  0  0  0  0  0  0  0  0  0  0
   -3.4811   90.5535   12.2583 O   0  0  0  0  0  0  0  0  0  0  0  0
   -2.3548   91.1840    7.4428 C   0  0  2  0  0  0  0  0  0  0  0  0
   -1.0888   91.1821    8.1200 O   0  0  0  0  0  0  0  0  0  0  0  0
   -2.6421   89.7847    6.8893 C   0  0  1  0  0  0  0  0  0  0  0  0
   -4.8476   93.5478    4.0273 N   0  0  0  0  0  0  0  0  0  0  0  0
   -3.9404   89.7880    6.0751 C   0  0  1  0  0  0  0  0  0  0  0  0
   -5.0646   90.0024    6.9344 O   0  0  0  0  0  0  0  0  0  0  0  0
   -3.8823   90.8873    5.0109 C   0  0  2  0  0  0  0  0  0  0  0  0
   -2.8508   90.5602    4.0735 O   0  0  0  0  0  0  0  0  0  0  0  0
   -3.5783   92.2326    5.6787 C   0  0  1  0  0  0  0  0  0  0  0  0
   -2.3256   92.1575    6.3843 O   0  0  0  0  0  0  0  0  0  0  0  0
   -3.5302   93.3710    4.6559 C   0  0  0  0  0  0  0  0  0  0  0  0
   -1.5376   89.3930    6.0007 N   0  0  0  0  0  0  0  0  0  0  0  0
  1  2  1  1  0  0  0
  1  3  1  0  0  0  0
  1 10  1  0  0  0  0
  3  4  1  6  0  0  0
  3  5  1  0  0  0  0
  5  6  1  1  0  0  0
  5  7  1  0  0  0  0
  7  8  1  1  0  0  0
  7  9  1  0  0  0  0
  9 10  1  0  0  0  0
  9 11  1  1  0  0  0
 11 12  1  0  0  0  0
 13 14  1  6  0  0  0
 13 15  1  0  0  0  0
 13 21  1  0  0  0  0
 16 15  1  0  0  0  0
 16 17  1  1  0  0  0
 18  2  1  1  0  0  0
 18 16  1  0  0  0  0
 19 18  1  0  0  0  0
 19 20  1  6  0  0  0
 21 19  1  0  0  0  0
 21 22  1  6  0  0  0
 23 20  1  1  0  0  0
 23 24  1  0  0  0  0
 23 28  1  0  0  0  0
 24 25  1  6  0  0  0
 24 26  1  0  0  0  0
 26 27  1  0  0  0  0
 26 32  1  6  0  0  0
 27 28  1  0  0  0  0
 27 29  1  1  0  0  0
 29 30  1  0  0  0  0
 31 32  1  6  0  0  0
 31 40  1  0  0  0  0
 33 31  1  0  0  0  0
 33 42  1  6  0  0  0
 35 33  1  0  0  0  0
 35 36  1  1  0  0  0
 37 35  1  0  0  0  0
 37 38  1  6  0  0  0
 37 39  1  0  0  0  0
 39 40  1  0  0  0  0
 39 41  1  6  0  0  0
 41 34  1  0  0  0  0
M  END
>  <CHROM.1>
-168.79920115,65.21413881,-157.53752239,153.94144383,178.64348004,-179.08914943
-176.49652311,-66.97430134,63.72432111,-0.45832771,91.57312619,11.24717184
0.96182960,0.75591195,2.00257438

>  <Name>
2fcy_lig

>  <RI>
1.56845e+07

>  <Rbt.Current_Directory>
/home/itssahil/PROJECTS/Mol_Feturizer/New_Systems/rnas/2fcy

>  <Rbt.Executable>
rbdock ($Id: //depot/dev/client3/rdock/2013.1/src/exe/rbdock.cxx#4 $)

>  <Rbt.Library>
libRbt.so (2013.1, Build901 2013/11/27)

>  <Rbt.Parameter_File>
/export/apps/rDock/src/rDock_2013.1_src/data/scripts/dock_solv.prm

>  <Rbt.Receptor>
prm/pocket_docking_4.prm

>  <SCORE>
-17.4992

>  <SCORE.INTER>
-13.0929

>  <SCORE.INTER.CONST>
1

>  <SCORE.INTER.POLAR>
-1.43448

>  <SCORE.INTER.ROT>
9

>  <SCORE.INTER.SOLV>
20.0868

>  <SCORE.INTER.VDW>
-20.2426

>  <SCORE.INTER.norm>
-0.311735

>  <SCORE.INTRA>
-4.40634

>  <SCORE.INTRA.DIHEDRAL>
-10.673

>  <SCORE.INTRA.DIHEDRAL.0>
17.3446

>  <SCORE.INTRA.POLAR>
0

>  <SCORE.INTRA.POLAR.0>
0

>  <SCORE.INTRA.REPUL>
0

>  <SCORE.INTRA.REPUL.0>
0

>  <SCORE.INTRA.SOLV>
-1.53018

>  <SCORE.INTRA.SOLV.lig_0>
-112.452

>  <SCORE.INTRA.VDW>
1.69525

>  <SCORE.INTRA.VDW.0>
-5.95059

>  <SCORE.INTRA.norm>
-0.104913

>  <SCORE.RESTR>
0

>  <SCORE.RESTR.CAVITY>
0

>  <SCORE.RESTR.norm>
0

>  <SCORE.SYSTEM>
0

>  <SCORE.SYSTEM.CONST>
0

>  <SCORE.SYSTEM.DIHEDRAL>
0

>  <SCORE.SYSTEM.SOLV>
0

>  <SCORE.SYSTEM.norm>
0

>  <SCORE.heavy>
42

>  <SCORE.norm>
-0.416648

>  <RMSD>
2.010

$$$$
2fcy_lig
 OpenBabel11021811433D
libRbt.so/2013.1/901 2013/11/27
 42 45  0  0  0  0  0  0  0  0999 V2000
    0.1973   90.7645   14.3289 C   0  0  2  0  0  0  0  0  0  0  0  0
    0.7675   92.0641   14.5594 O   0  0  0  0  0  0  0  0  0  0  0  0
   -1.1677   90.7905   15.0180 C   0  0  2  0  0  0  0  0  0  0  0  0
   -1.9329   91.9350   14.5048 N   0  0  0  0  0  0  0  0  0  0  0  0
   -0.9759   90.9433   16.5290 C   0  0  1  0  0  0  0  0  0  0  0  0
   -2.2406   90.9659   17.1967 O   0  0  0  0  0  0  0  0  0  0  0  0
   -0.1158   89.7913   17.0497 C   0  0  2  0  0  0  0  0  0  0  0  0
    0.1421   89.9880   18.4399 O   0  0  0  0  0  0  0  0  0  0  0  0
    1.2235   89.8037   16.3113 C   0  0  2  0  0  0  0  0  0  0  0  0
    0.9930   89.7041   14.8973 O   0  0  0  0  0  0  0  0  0  0  0  0
    2.0902   88.6477   16.8176 C   0  0  0  0  0  0  0  0  0  0  0  0
    3.5138   88.9006   16.5493 N   0  0  0  0  0  0  0  0  0  0  0  0
    2.7512   94.7086   11.9675 C   0  0  2  0  0  0  0  0  0  0  0  0
    3.6353   95.4252   11.0358 N   0  0  0  0  0  0  0  0  0  0  0  0
    3.5148   94.2830   13.2231 C   0  0  0  0  0  0  0  0  0  0  0  0
    2.5170   93.6634   14.2068 C   0  0  2  0  0  0  0  0  0  0  0  0
    3.2419   93.1673   15.3855 N   0  0  0  0  0  0  0  0  0  0  0  0
    1.7520   92.4845   13.5983 C   0  0  2  0  0  0  0  0  0  0  0  0
    1.1565   92.7550   12.2211 C   0  0  2  0  0  0  0  0  0  0  0  0
    0.8423   91.4631   11.6767 O   0  0  0  0  0  0  0  0  0  0  0  0
    2.1536   93.4684   11.2984 C   0  0  1  0  0  0  0  0  0  0  0  0
    1.5176   93.8873   10.0880 O   0  0  0  0  0  0  0  0  0  0  0  0
   -0.0590   91.4607   10.5578 C   0  0  1  0  0  0  0  0  0  0  0  0
    0.0507   90.0942    9.8795 C   0  0  2  0  0  0  0  0  0  0  0  0
    1.1624   90.0914    8.9807 O   0  0  0  0  0  0  0  0  0  0  0  0
   -1.2498   90.1235    9.0818 C   0  0  1  0  0  0  0  0  0  0  0  0
   -2.2111   90.6355   10.1429 C   0  0  2  0  0  0  0  0  0  0  0  0
   -1.4464   91.5644   10.9385 O   0  0  0  0  0  0  0  0  0  0  0  0
   -2.7154   89.4511   10.9755 C   0  0  0  0  0  0  0  0  0  0  0  0
   -3.6822   89.8873   11.9354 O   0  0  0  0  0  0  0  0  0  0  0  0
   -2.4149   91.2027    7.3565 C   0  0  2  0  0  0  0  0  0  0  0  0
   -1.1438   91.0765    8.0122 O   0  0  0  0  0  0  0  0  0  0  0  0
   -2.6491   89.9867    6.4545 C   0  0  1  0  0  0  0  0  0  0  0  0
   -2.5380   94.1248    4.3531 N   0  0  0  0  0  0  0  0  0  0  0  0
   -3.9536   90.1488    5.6669 C   0  0  1  0  0  0  0  0  0  0  0  0
   -5.0780   90.0827    6.5499 O   0  0  0  0  0  0  0  0  0  0  0  0
   -3.9504   91.4901    4.9286 C   0  0  2  0  0  0  0  0  0  0  0  0
   -2.9148   91.4642    3.9405 O   0  0  0  0  0  0  0  0  0  0  0  0
   -3.6962   92.6248    5.9267 C   0  0  1  0  0  0  0  0  0  0  0  0
   -2.4352   92.4201    6.5907 O   0  0  0  0  0  0  0  0  0  0  0  0
   -3.7042   93.9926    5.2387 C   0  0  0  0  0  0  0  0  0  0  0  0
   -1.5373   89.8887    5.4967 N   0  0  0  0  0  0  0  0  0  0  0  0
  1  2  1  1  0  0  0
  1  3  1  0  0  0  0
  1 10  1  0  0  0  0
  3  4  1  6  0  0  0
  3  5  1  0  0  0  0
  5  6  1  1  0  0  0
  5  7  1  0  0  0  0
  7  8  1  1  0  0  0
  7  9  1  0  0  0  0
  9 10  1  0  0  0  0
  9 11  1  1  0  0  0
 11 12  1  0  0  0  0
 13 14  1  6  0  0  0
 13 15  1  0  0  0  0
 13 21  1  0  0  0  0
 16 15  1  0  0  0  0
 16 17  1  1  0  0  0
 18  2  1  1  0  0  0
 18 16  1  0  0  0  0
 19 18  1  0  0  0  0
 19 20  1  6  0  0  0
 21 19  1  0  0  0  0
 21 22  1  6  0  0  0
 23 20  1  1  0  0  0
 23 24  1  0  0  0  0
 23 28  1  0  0  0  0
 24 25  1  6  0  0  0
 24 26  1  0  0  0  0
 26 27  1  0  0  0  0
 26 32  1  6  0  0  0
 27 28  1  0  0  0  0
 27 29  1  1  0  0  0
 29 30  1  0  0  0  0
 31 32  1  6  0  0  0
 31 40  1  0  0  0  0
 33 31  1  0  0  0  0
 33 42  1  6  0  0  0
 35 33  1  0  0  0  0
 35 36  1  1  0  0  0
 37 35  1  0  0  0  0
 37 38  1  6  0  0  0
 37 39  1  0  0  0  0
 39 40  1  0  0  0  0
 39 41  1  6  0  0  0
 41 34  1  0  0  0  0
M  END
>  <CHROM.1>
-155.53893439,-158.31765281,-164.07170086,163.40531025,163.77631325,-173.87576435
-176.68306635,-76.27169579,-68.35275699,-0.51190140,91.44912732,11.18297468
1.07741290,0.63483767,1.93100346

>  <Name>
2fcy_lig

>  <RI>
4.13508e+07

>  <Rbt.Current_Directory>
/home/itssahil/PROJECTS/Mol_Feturizer/New_Systems/rnas/2fcy

>  <Rbt.Executable>
rbdock ($Id: //depot/dev/client3/rdock/2013.1/src/exe/rbdock.cxx#4 $)

>  <Rbt.Library>
libRbt.so (2013.1, Build901 2013/11/27)

>  <Rbt.Parameter_File>
/export/apps/rDock/src/rDock_2013.1_src/data/scripts/dock_solv.prm

>  <Rbt.Receptor>
prm/pocket_docking_3.prm

>  <SCORE>
-20.223

>  <SCORE.INTER>
-17.5238

>  <SCORE.INTER.CONST>
1

>  <SCORE.INTER.POLAR>
-1.67692

>  <SCORE.INTER.ROT>
9

>  <SCORE.INTER.SOLV>
23.1798

>  <SCORE.INTER.VDW>
-23.4194

>  <SCORE.INTER.norm>
-0.417233

>  <SCORE.INTRA>
-2.71319

>  <SCORE.INTRA.DIHEDRAL>
-7.30473

>  <SCORE.INTRA.DIHEDRAL.0>
17.3446

>  <SCORE.INTRA.POLAR>
0

>  <SCORE.INTRA.POLAR.0>
0

>  <SCORE.INTRA.REPUL>
0

>  <SCORE.INTRA.REPUL.0>
0

>  <SCORE.INTRA.SOLV>
-2.34802

>  <SCORE.INTRA.SOLV.lig_0>
-112.452

>  <SCORE.INTRA.VDW>
2.11318

>  <SCORE.INTRA.VDW.0>
-5.95059

>  <SCORE.INTRA.norm>
-0.0645998

>  <SCORE.RESTR>
0.0139388

>  <SCORE.RESTR.CAVITY>
0.0139388

>  <SCORE.RESTR.norm>
0.000331877

>  <SCORE.SYSTEM>
0

>  <SCORE.SYSTEM.CONST>
0

>  <SCORE.SYSTEM.DIHEDRAL>
0

>  <SCORE.SYSTEM.SOLV>
0

>  <SCORE.SYSTEM.norm>
0

>  <SCORE.heavy>
42

>  <SCORE.norm>
-0.481501

>  <RMSD>
2.014

$$$$
2fcy_lig
 OpenBabel11021811433D
libRbt.so/2013.1/901 2013/11/27
 42 45  0  0  0  0  0  0  0  0999 V2000
    0.2564   91.0437   14.2397 C   0  0  2  0  0  0  0  0  0  0  0  0
    0.5705   92.4215   14.5044 O   0  0  0  0  0  0  0  0  0  0  0  0
   -1.0271   90.7609   15.0220 C   0  0  2  0  0  0  0  0  0  0  0  0
   -2.0446   91.7454   14.6295 N   0  0  0  0  0  0  0  0  0  0  0  0
   -0.7504   90.8858   16.5223 C   0  0  1  0  0  0  0  0  0  0  0  0
   -1.9369   90.6211   17.2760 O   0  0  0  0  0  0  0  0  0  0  0  0
    0.3619   89.9131   16.9153 C   0  0  2  0  0  0  0  0  0  0  0  0
    0.6847   90.0995   18.2932 O   0  0  0  0  0  0  0  0  0  0  0  0
    1.6086   90.2302   16.0879 C   0  0  2  0  0  0  0  0  0  0  0  0
    1.2912   90.1454   14.6899 O   0  0  0  0  0  0  0  0  0  0  0  0
    2.7270   89.2555   16.4657 C   0  0  0  0  0  0  0  0  0  0  0  0
    2.3970   87.8863   16.0429 N   0  0  0  0  0  0  0  0  0  0  0  0
    2.7273   95.3649   12.4233 C   0  0  2  0  0  0  0  0  0  0  0  0
    3.6858   96.1986   11.6823 N   0  0  0  0  0  0  0  0  0  0  0  0
    3.3349   94.8773   13.7400 C   0  0  0  0  0  0  0  0  0  0  0  0
    2.2507   94.1302   14.5233 C   0  0  2  0  0  0  0  0  0  0  0  0
    2.8350   93.5767   15.7534 N   0  0  0  0  0  0  0  0  0  0  0  0
    1.6506   92.9678   13.7269 C   0  0  2  0  0  0  0  0  0  0  0  0
    1.2354   93.3194   12.3027 C   0  0  2  0  0  0  0  0  0  0  0  0
    1.0790   92.0621   11.6255 O   0  0  0  0  0  0  0  0  0  0  0  0
    2.3047   94.1549   11.5864 C   0  0  1  0  0  0  0  0  0  0  0  0
    1.8174   94.6386   10.3320 O   0  0  0  0  0  0  0  0  0  0  0  0
    0.2174   92.0763   10.4758 C   0  0  1  0  0  0  0  0  0  0  0  0
    0.1153   90.6409    9.9574 C   0  0  2  0  0  0  0  0  0  0  0  0
    1.2328   90.3538    9.1133 O   0  0  0  0  0  0  0  0  0  0  0  0
   -1.1424   90.7882    9.1059 C   0  0  1  0  0  0  0  0  0  0  0  0
   -2.0310   91.5685   10.0617 C   0  0  2  0  0  0  0  0  0  0  0  0
   -1.1424   92.4469   10.7824 O   0  0  0  0  0  0  0  0  0  0  0  0
   -2.7450   90.5860   10.9972 C   0  0  0  0  0  0  0  0  0  0  0  0
   -1.8176   90.0056   11.9187 O   0  0  0  0  0  0  0  0  0  0  0  0
   -2.0283   91.6726    7.1232 C   0  0  2  0  0  0  0  0  0  0  0  0
   -0.8535   91.5811    7.9435 O   0  0  0  0  0  0  0  0  0  0  0  0
   -2.3111   90.3115    6.4794 C   0  0  1  0  0  0  0  0  0  0  0  0
   -3.9440   94.2117    3.4628 N   0  0  0  0  0  0  0  0  0  0  0  0
   -3.5014   90.4112    5.5194 C   0  0  1  0  0  0  0  0  0  0  0  0
   -4.7092   90.6494    6.2494 O   0  0  0  0  0  0  0  0  0  0  0  0
   -3.2666   91.5456    4.5182 C   0  0  2  0  0  0  0  0  0  0  0  0
   -2.1467   91.2025    3.6950 O   0  0  0  0  0  0  0  0  0  0  0  0
   -2.9833   92.8476    5.2750 C   0  0  1  0  0  0  0  0  0  0  0  0
   -1.8285   92.6827    6.1188 O   0  0  0  0  0  0  0  0  0  0  0  0
   -2.7616   94.0200    4.3155 C   0  0  0  0  0  0  0  0  0  0  0  0
   -1.1275   89.8984    5.7103 N   0  0  0  0  0  0  0  0  0  0  0  0
  1  2  1  1  0  0  0
  1  3  1  0  0  0  0
  1 10  1  0  0  0  0
  3  4  1  6  0  0  0
  3  5  1  0  0  0  0
  5  6  1  1  0  0  0
  5  7  1  0  0  0  0
  7  8  1  1  0  0  0
  7  9  1  0  0  0  0
  9 10  1  0  0  0  0
  9 11  1  1  0  0  0
 11 12  1  0  0  0  0
 13 14  1  6  0  0  0
 13 15  1  0  0  0  0
 13 21  1  0  0  0  0
 16 15  1  0  0  0  0
 16 17  1  1  0  0  0
 18  2  1  1  0  0  0
 18 16  1  0  0  0  0
 19 18  1  0  0  0  0
 19 20  1  6  0  0  0
 21 19  1  0  0  0  0
 21 22  1  6  0  0  0
 23 20  1  1  0  0  0
 23 24  1  0  0  0  0
 23 28  1  0  0  0  0
 24 25  1  6  0  0  0
 24 26  1  0  0  0  0
 26 27  1  0  0  0  0
 26 32  1  6  0  0  0
 27 28  1  0  0  0  0
 27 29  1  1  0  0  0
 29 30  1  0  0  0  0
 31 32  1  6  0  0  0
 31 40  1  0  0  0  0
 33 31  1  0  0  0  0
 33 42  1  6  0  0  0
 35 33  1  0  0  0  0
 35 36  1  1  0  0  0
 37 35  1  0  0  0  0
 37 38  1  6  0  0  0
 37 39  1  0  0  0  0
 39 40  1  0  0  0  0
 39 41  1  6  0  0  0
 41 34  1  0  0  0  0
M  END
>  <CHROM.1>
-172.05814374,67.41534708,-154.80108842,156.62411522,-176.50372840,177.85234890
70.38882883,-70.34689607,58.79174940,-0.29103826,91.78899170,11.11624820
1.04559032,0.80302275,2.01914758

>  <Name>
2fcy_lig

>  <RI>
1.56845e+07

>  <Rbt.Current_Directory>
/home/itssahil/PROJECTS/Mol_Feturizer/New_Systems/rnas/2fcy

>  <Rbt.Executable>
rbdock ($Id: //depot/dev/client3/rdock/2013.1/src/exe/rbdock.cxx#4 $)

>  <Rbt.Library>
libRbt.so (2013.1, Build901 2013/11/27)

>  <Rbt.Parameter_File>
/export/apps/rDock/src/rDock_2013.1_src/data/scripts/dock_solv.prm

>  <Rbt.Receptor>
prm/pocket_docking_4.prm

>  <SCORE>
-17.4267

>  <SCORE.INTER>
-13.3576

>  <SCORE.INTER.CONST>
1

>  <SCORE.INTER.POLAR>
-1.56278

>  <SCORE.INTER.ROT>
9

>  <SCORE.INTER.SOLV>
23.5035

>  <SCORE.INTER.VDW>
-21.1304

>  <SCORE.INTER.norm>
-0.318039

>  <SCORE.INTRA>
-4.06904

>  <SCORE.INTRA.DIHEDRAL>
-10.2621

>  <SCORE.INTRA.DIHEDRAL.0>
17.3446

>  <SCORE.INTRA.POLAR>
0

>  <SCORE.INTRA.POLAR.0>
0

>  <SCORE.INTRA.REPUL>
0

>  <SCORE.INTRA.REPUL.0>
0

>  <SCORE.INTRA.SOLV>
-0.769539

>  <SCORE.INTRA.SOLV.lig_0>
-112.452

>  <SCORE.INTRA.VDW>
1.44676

>  <SCORE.INTRA.VDW.0>
-5.95059

>  <SCORE.INTRA.norm>
-0.096882

>  <SCORE.RESTR>
0

>  <SCORE.RESTR.CAVITY>
0

>  <SCORE.RESTR.norm>
0

>  <SCORE.SYSTEM>
0

>  <SCORE.SYSTEM.CONST>
0

>  <SCORE.SYSTEM.DIHEDRAL>
0

>  <SCORE.SYSTEM.SOLV>
0

>  <SCORE.SYSTEM.norm>
0

>  <SCORE.heavy>
42

>  <SCORE.norm>
-0.414921

>  <RMSD>
2.037

$$$$
2fcy_lig
 OpenBabel11021811433D
libRbt.so/2013.1/901 2013/11/27
 42 45  0  0  0  0  0  0  0  0999 V2000
    0.1942   91.1723   14.3539 C   0  0  2  0  0  0  0  0  0  0  0  0
    0.6667   92.4415   14.8368 O   0  0  0  0  0  0  0  0  0  0  0  0
   -1.2295   91.0350   14.8952 C   0  0  2  0  0  0  0  0  0  0  0  0
   -2.0048   92.2142   14.4863 N   0  0  0  0  0  0  0  0  0  0  0  0
   -1.1912   90.9561   16.4234 C   0  0  1  0  0  0  0  0  0  0  0  0
   -2.5130   90.8228   16.9533 O   0  0  0  0  0  0  0  0  0  0  0  0
   -0.3218   89.7722   16.8482 C   0  0  2  0  0  0  0  0  0  0  0  0
   -0.2087   89.7584   18.2711 O   0  0  0  0  0  0  0  0  0  0  0  0
    1.0789   89.9541   16.2617 C   0  0  2  0  0  0  0  0  0  0  0  0
    0.9899   90.0687   14.8329 O   0  0  0  0  0  0  0  0  0  0  0  0
    1.9564   88.7687   16.6723 C   0  0  0  0  0  0  0  0  0  0  0  0
    3.3813   89.0769   16.4790 N   0  0  0  0  0  0  0  0  0  0  0  0
    3.6604   95.1011   13.5676 C   0  0  2  0  0  0  0  0  0  0  0  0
    4.8754   95.8033   13.1277 N   0  0  0  0  0  0  0  0  0  0  0  0
    3.8902   94.4064   14.9113 C   0  0  0  0  0  0  0  0  0  0  0  0
    2.5592   93.8084   15.3782 C   0  0  2  0  0  0  0  0  0  0  0  0
    2.7740   93.0604   16.6253 N   0  0  0  0  0  0  0  0  0  0  0  0
    1.9601   92.8429   14.3514 C   0  0  2  0  0  0  0  0  0  0  0  0
    1.9165   93.3779   12.9245 C   0  0  2  0  0  0  0  0  0  0  0  0
    1.7048   92.2289   12.0884 O   0  0  0  0  0  0  0  0  0  0  0  0
    3.2334   94.0598   12.5302 C   0  0  1  0  0  0  0  0  0  0  0  0
    3.1058   94.7237   11.2700 O   0  0  0  0  0  0  0  0  0  0  0  0
    0.4587   92.1990   11.3739 C   0  0  1  0  0  0  0  0  0  0  0  0
    0.6861   92.8745   10.0205 C   0  0  2  0  0  0  0  0  0  0  0  0
    0.5667   94.2918   10.1644 O   0  0  0  0  0  0  0  0  0  0  0  0
   -0.5333   92.3326    9.2804 C   0  0  1  0  0  0  0  0  0  0  0  0
   -0.4726   90.8685    9.6865 C   0  0  2  0  0  0  0  0  0  0  0  0
    0.0192   90.8658   11.0425 O   0  0  0  0  0  0  0  0  0  0  0  0
    0.4712   90.1234    8.7356 C   0  0  0  0  0  0  0  0  0  0  0  0
    1.5012   89.4563    9.4707 O   0  0  0  0  0  0  0  0  0  0  0  0
   -2.7442   92.9377    8.7860 C   0  0  2  0  0  0  0  0  0  0  0  0
   -1.7275   92.9387    9.7998 O   0  0  0  0  0  0  0  0  0  0  0  0
   -3.8973   93.8503    9.2156 C   0  0  1  0  0  0  0  0  0  0  0  0
   -5.0428   89.4060    8.5184 N   0  0  0  0  0  0  0  0  0  0  0  0
   -5.0391   93.7852    8.1956 C   0  0  1  0  0  0  0  0  0  0  0  0
   -4.6348   94.3819    6.9592 O   0  0  0  0  0  0  0  0  0  0  0  0
   -5.4428   92.3269    7.9616 C   0  0  2  0  0  0  0  0  0  0  0  0
   -5.9927   91.8056    9.1762 O   0  0  0  0  0  0  0  0  0  0  0  0
   -4.2112   91.5130    7.5505 C   0  0  1  0  0  0  0  0  0  0  0  0
   -3.2064   91.5914    8.5785 O   0  0  0  0  0  0  0  0  0  0  0  0
   -4.5675   90.0479    7.2839 C   0  0  0  0  0  0  0  0  0  0  0  0
   -4.4076   93.3859   10.5144 N   0  0  0  0  0  0  0  0  0  0  0  0
  1  2  1  1  0  0  0
  1  3  1  0  0  0  0
  1 10  1  0  0  0  0
  3  4  1  1  0  0  0
  3  5  1  0  0  0  0
  5  6  1  6  0  0  0
  5  7  1  0  0  0  0
  7  8  1  1  0  0  0
  7  9  1  0  0  0  0
  9 10  1  0  0  0  0
  9 11  1  6  0  0  0
 11 12  1  0  0  0  0
 13 14  1  6  0  0  0
 13 15  1  0  0  0  0
 13 21  1  0  0  0  0
 16 15  1  0  0  0  0
 16 17  1  1  0  0  0
 18  2  1  1  0  0  0
 18 16  1  0  0  0  0
 19 18  1  0  0  0  0
 19 20  1  6  0  0  0
 21 19  1  0  0  0  0
 21 22  1  6  0  0  0
 23 20  1  1  0  0  0
 23 24  1  0  0  0  0
 23 28  1  0  0  0  0
 24 25  1  1  0  0  0
 24 26  1  0  0  0  0
 26 27  1  0  0  0  0
 26 32  1  1  0  0  0
 27 28  1  0  0  0  0
 27 29  1  6  0  0  0
 29 30  1  0  0  0  0
 31 32  1  1  0  0  0
 31 40  1  0  0  0  0
 33 31  1  0  0  0  0
 33 42  1  1  0  0  0
 35 33  1  0  0  0  0
 35 36  1  6  0  0  0
 37 35  1  0  0  0  0
 37 38  1  1  0  0  0
 37 39  1  0  0  0  0
 39 40  1  0  0  0  0
 39 41  1  1  0  0  0
 41 34  1  0  0  0  0
M  END
>  <CHROM.1>
-174.79348675,-163.37727757,-155.04727133,114.98892372,90.58447844,153.76811521
124.42185772,-167.37551366,-64.11192362,-0.43424785,92.04382692,12.13937054
0.79064593,0.47101165,2.04247449

>  <Name>
2fcy_lig

>  <RI>
4.13508e+07

>  <Rbt.Current_Directory>
/home/itssahil/PROJECTS/Mol_Feturizer/New_Systems/rnas/2fcy

>  <Rbt.Executable>
rbdock ($Id: //depot/dev/client3/rdock/2013.1/src/exe/rbdock.cxx#4 $)

>  <Rbt.Library>
libRbt.so (2013.1, Build901 2013/11/27)

>  <Rbt.Parameter_File>
/export/apps/rDock/src/rDock_2013.1_src/data/scripts/dock_solv.prm

>  <Rbt.Receptor>
prm/pocket_docking_3.prm

>  <SCORE>
-17.1619

>  <SCORE.INTER>
-20.2144

>  <SCORE.INTER.CONST>
1

>  <SCORE.INTER.POLAR>
-1.91215

>  <SCORE.INTER.ROT>
9

>  <SCORE.INTER.SOLV>
19.0953

>  <SCORE.INTER.VDW>
-23.0675

>  <SCORE.INTER.norm>
-0.481296

>  <SCORE.INTRA>
3.05255

>  <SCORE.INTRA.DIHEDRAL>
6.21242

>  <SCORE.INTRA.DIHEDRAL.0>
17.3446

>  <SCORE.INTRA.POLAR>
0

>  <SCORE.INTRA.POLAR.0>
0

>  <SCORE.INTRA.REPUL>
0

>  <SCORE.INTRA.REPUL.0>
0

>  <SCORE.INTRA.SOLV>
-1.53401

>  <SCORE.INTRA.SOLV.lig_0>
-112.452

>  <SCORE.INTRA.VDW>
0.713352

>  <SCORE.INTRA.VDW.0>
-5.95059

>  <SCORE.INTRA.norm>
0.0726799

>  <SCORE.RESTR>
0

>  <SCORE.RESTR.CAVITY>
0

>  <SCORE.RESTR.norm>
0

>  <SCORE.SYSTEM>
0

>  <SCORE.SYSTEM.CONST>
0

>  <SCORE.SYSTEM.DIHEDRAL>
0

>  <SCORE.SYSTEM.SOLV>
0

>  <SCORE.SYSTEM.norm>
0

>  <SCORE.heavy>
42

>  <SCORE.norm>
-0.408616

>  <RMSD>
2.044

$$$$
2fcy_lig
 OpenBabel11021811433D
libRbt.so/2013.1/901 2013/11/27
 42 45  0  0  0  0  0  0  0  0999 V2000
   -0.1631   90.9788   14.0129 C   0  0  2  0  0  0  0  0  0  0  0  0
    0.3590   92.2974   14.2492 O   0  0  0  0  0  0  0  0  0  0  0  0
   -1.4515   90.8979   14.8331 C   0  0  2  0  0  0  0  0  0  0  0  0
   -2.3227   92.0184   14.4535 N   0  0  0  0  0  0  0  0  0  0  0  0
   -1.1168   90.9960   16.3236 C   0  0  1  0  0  0  0  0  0  0  0  0
   -2.3075   90.9183   17.1123 O   0  0  0  0  0  0  0  0  0  0  0  0
   -0.1501   89.8731   16.7009 C   0  0  2  0  0  0  0  0  0  0  0  0
    0.2358   90.0239   18.0670 O   0  0  0  0  0  0  0  0  0  0  0  0
    1.1057   89.9929   15.8362 C   0  0  2  0  0  0  0  0  0  0  0  0
    0.7397   89.9416   14.4485 O   0  0  0  0  0  0  0  0  0  0  0  0
    2.0778   88.8670   16.1983 C   0  0  0  0  0  0  0  0  0  0  0  0
    2.6427   89.0708   17.5407 N   0  0  0  0  0  0  0  0  0  0  0  0
    2.6423   94.7767   11.7420 C   0  0  2  0  0  0  0  0  0  0  0  0
    3.6413   95.4460   10.8951 N   0  0  0  0  0  0  0  0  0  0  0  0
    3.1975   94.5298   13.1461 C   0  0  0  0  0  0  0  0  0  0  0  0
    2.0735   93.9552   14.0143 C   0  0  2  0  0  0  0  0  0  0  0  0
    2.6067   93.6280   15.3445 N   0  0  0  0  0  0  0  0  0  0  0  0
    1.4745   92.6757   13.4232 C   0  0  2  0  0  0  0  0  0  0  0  0
    1.1122   92.7664   11.9451 C   0  0  2  0  0  0  0  0  0  0  0  0
    0.9508   91.4086   11.5040 O   0  0  0  0  0  0  0  0  0  0  0  0
    2.2211   93.4403   11.1261 C   0  0  1  0  0  0  0  0  0  0  0  0
    1.7840   93.6930    9.7881 O   0  0  0  0  0  0  0  0  0  0  0  0
   -0.2038   91.1512   10.6885 C   0  0  1  0  0  0  0  0  0  0  0  0
    0.2929   90.7309    9.3042 C   0  0  2  0  0  0  0  0  0  0  0  0
    0.5818   91.8933    8.5237 O   0  0  0  0  0  0  0  0  0  0  0  0
   -0.9834   90.0737    8.7870 C   0  0  1  0  0  0  0  0  0  0  0  0
   -1.3759   89.2443    9.9995 C   0  0  2  0  0  0  0  0  0  0  0  0
   -0.9905   90.0318   11.1450 O   0  0  0  0  0  0  0  0  0  0  0  0
   -0.6327   87.9043    9.9518 C   0  0  0  0  0  0  0  0  0  0  0  0
    0.7327   88.0729   10.3440 O   0  0  0  0  0  0  0  0  0  0  0  0
   -3.1573   90.4563    7.9955 C   0  0  2  0  0  0  0  0  0  0  0  0
   -1.9796   91.0771    8.5332 O   0  0  0  0  0  0  0  0  0  0  0  0
   -2.8226   89.7996    6.6525 C   0  0  1  0  0  0  0  0  0  0  0  0
   -7.7821   91.3741    6.8742 N   0  0  0  0  0  0  0  0  0  0  0  0
   -4.0876   89.2184    6.0116 C   0  0  1  0  0  0  0  0  0  0  0  0
   -4.5639   88.1051    6.7744 O   0  0  0  0  0  0  0  0  0  0  0  0
   -5.1716   90.2969    5.9333 C   0  0  2  0  0  0  0  0  0  0  0  0
   -4.7313   91.3215    5.0356 O   0  0  0  0  0  0  0  0  0  0  0  0
   -5.4104   90.8867    7.3274 C   0  0  1  0  0  0  0  0  0  0  0  0
   -4.1871   91.4481    7.8382 O   0  0  0  0  0  0  0  0  0  0  0  0
   -6.5038   91.9584    7.3058 C   0  0  0  0  0  0  0  0  0  0  0  0
   -2.2734   90.8233    5.7506 N   0  0  0  0  0  0  0  0  0  0  0  0
  1  2  1  1  0  0  0
  1  3  1  0  0  0  0
  1 10  1  0  0  0  0
  3  4  1  6  0  0  0
  3  5  1  0  0  0  0
  5  6  1  1  0  0  0
  5  7  1  0  0  0  0
  7  8  1  1  0  0  0
  7  9  1  0  0  0  0
  9 10  1  0  0  0  0
  9 11  1  1  0  0  0
 11 12  1  0  0  0  0
 13 14  1  6  0  0  0
 13 15  1  0  0  0  0
 13 21  1  0  0  0  0
 16 15  1  0  0  0  0
 16 17  1  1  0  0  0
 18  2  1  1  0  0  0
 18 16  1  0  0  0  0
 19 18  1  0  0  0  0
 19 20  1  6  0  0  0
 21 19  1  0  0  0  0
 21 22  1  6  0  0  0
 23 20  1  1  0  0  0
 23 24  1  0  0  0  0
 23 28  1  0  0  0  0
 24 25  1  6  0  0  0
 24 26  1  0  0  0  0
 26 27  1  0  0  0  0
 26 32  1  1  0  0  0
 27 28  1  0  0  0  0
 27 29  1  6  0  0  0
 29 30  1  0  0  0  0
 31 32  1  6  0  0  0
 31 40  1  0  0  0  0
 33 31  1  0  0  0  0
 33 42  1  6  0  0  0
 35 33  1  0  0  0  0
 35 36  1  1  0  0  0
 37 35  1  0  0  0  0
 37 38  1  6  0  0  0
 37 39  1  0  0  0  0
 39 40  1  0  0  0  0
 39 41  1  6  0  0  0
 41 34  1  0  0  0  0
M  END
>  <CHROM.1>
-171.27801290,-69.55744339,-167.95472355,135.04358153,115.52307871,177.65572119
76.48607258,-62.71118297,61.80422774,-0.81693566,91.12801321,11.26528105
0.87062977,0.59303682,1.89645494

>  <Name>
2fcy_lig

>  <RI>
0

>  <Rbt.Current_Directory>
/home/itssahil/PROJECTS/Mol_Feturizer/New_Systems/rnas/2fcy

>  <Rbt.Executable>
rbdock ($Id: //depot/dev/client3/rdock/2013.1/src/exe/rbdock.cxx#4 $)

>  <Rbt.Library>
libRbt.so (2013.1, Build901 2013/11/27)

>  <Rbt.Parameter_File>
/export/apps/rDock/src/rDock_2013.1_src/data/scripts/dock_solv.prm

>  <Rbt.Receptor>
prm/pocket_docking_5.prm

>  <SCORE>
-21.4005

>  <SCORE.INTER>
-22.4683

>  <SCORE.INTER.CONST>
1

>  <SCORE.INTER.POLAR>
-2.24355

>  <SCORE.INTER.ROT>
9

>  <SCORE.INTER.SOLV>
19.6671

>  <SCORE.INTER.VDW>
-23.656

>  <SCORE.INTER.norm>
-0.534958

>  <SCORE.INTRA>
1.06774

>  <SCORE.INTRA.DIHEDRAL>
-1.28242

>  <SCORE.INTRA.DIHEDRAL.0>
17.3446

>  <SCORE.INTRA.POLAR>
0

>  <SCORE.INTRA.POLAR.0>
0

>  <SCORE.INTRA.REPUL>
0

>  <SCORE.INTRA.REPUL.0>
0

>  <SCORE.INTRA.SOLV>
-2.3373

>  <SCORE.INTRA.SOLV.lig_0>
-112.452

>  <SCORE.INTRA.VDW>
2.8776

>  <SCORE.INTRA.VDW.0>
-5.95059

>  <SCORE.INTRA.norm>
0.0254224

>  <SCORE.RESTR>
0

>  <SCORE.RESTR.CAVITY>
0

>  <SCORE.RESTR.norm>
0

>  <SCORE.SYSTEM>
0

>  <SCORE.SYSTEM.CONST>
0

>  <SCORE.SYSTEM.DIHEDRAL>
0

>  <SCORE.SYSTEM.SOLV>
0

>  <SCORE.SYSTEM.norm>
0

>  <SCORE.heavy>
42

>  <SCORE.norm>
-0.509536

>  <RMSD>
2.095

$$$$
2fcy_lig
 OpenBabel11021811433D
libRbt.so/2013.1/901 2013/11/27
 42 45  0  0  0  0  0  0  0  0999 V2000
    0.7757   91.1753   14.6528 C   0  0  2  0  0  0  0  0  0  0  0  0
    0.9309   92.4979   15.1948 O   0  0  0  0  0  0  0  0  0  0  0  0
   -0.4744   90.6043   15.3239 C   0  0  2  0  0  0  0  0  0  0  0  0
   -1.5927   91.5313   15.1033 N   0  0  0  0  0  0  0  0  0  0  0  0
   -0.2260   90.4553   16.8270 C   0  0  1  0  0  0  0  0  0  0  0  0
   -1.3815   89.9181   17.4767 O   0  0  0  0  0  0  0  0  0  0  0  0
    0.9852   89.5499   17.0533 C   0  0  2  0  0  0  0  0  0  0  0  0
    1.2735   89.4904   18.4501 O   0  0  0  0  0  0  0  0  0  0  0  0
    2.1952   90.1594   16.3437 C   0  0  2  0  0  0  0  0  0  0  0  0
    1.9010   90.3225   14.9475 O   0  0  0  0  0  0  0  0  0  0  0  0
    3.4128   89.2558   16.5550 C   0  0  0  0  0  0  0  0  0  0  0  0
    3.1014   87.8624   16.2026 N   0  0  0  0  0  0  0  0  0  0  0  0
    2.6475   96.0623   13.7823 C   0  0  2  0  0  0  0  0  0  0  0  0
    3.4704   97.1459   13.2242 N   0  0  0  0  0  0  0  0  0  0  0  0
    3.3757   95.3634   14.9321 C   0  0  0  0  0  0  0  0  0  0  0  0
    2.4214   94.3396   15.5552 C   0  0  2  0  0  0  0  0  0  0  0  0
    3.1284   93.5939   16.6063 N   0  0  0  0  0  0  0  0  0  0  0  0
    1.9026   93.3257   14.5313 C   0  0  2  0  0  0  0  0  0  0  0  0
    1.3737   93.9393   13.2397 C   0  0  2  0  0  0  0  0  0  0  0  0
    1.3122   92.8575   12.2962 O   0  0  0  0  0  0  0  0  0  0  0  0
    2.3078   95.0318   12.7027 C   0  0  1  0  0  0  0  0  0  0  0  0
    1.7029   95.7266   11.6088 O   0  0  0  0  0  0  0  0  0  0  0  0
    0.0636   92.7067   11.6015 C   0  0  1  0  0  0  0  0  0  0  0  0
    0.3812   92.2689   10.1707 C   0  0  2  0  0  0  0  0  0  0  0  0
    0.6837   93.4159    9.3729 O   0  0  0  0  0  0  0  0  0  0  0  0
   -0.9905   91.7248    9.7823 C   0  0  1  0  0  0  0  0  0  0  0  0
   -1.3245   90.9114   11.0228 C   0  0  2  0  0  0  0  0  0  0  0  0
   -0.7617   91.6476   12.1283 O   0  0  0  0  0  0  0  0  0  0  0  0
   -0.7022   89.5167   10.8900 C   0  0  0  0  0  0  0  0  0  0  0  0
   -1.3926   88.7509    9.8983 O   0  0  0  0  0  0  0  0  0  0  0  0
   -1.6701   93.4951    8.4028 C   0  0  2  0  0  0  0  0  0  0  0  0
   -1.9217   92.8091    9.6387 O   0  0  0  0  0  0  0  0  0  0  0  0
   -2.5968   94.7101    8.2931 C   0  0  1  0  0  0  0  0  0  0  0  0
   -0.7490   91.0879    5.1230 N   0  0  0  0  0  0  0  0  0  0  0  0
   -2.4169   95.3989    6.9361 C   0  0  1  0  0  0  0  0  0  0  0  0
   -1.1233   96.0057    6.8551 O   0  0  0  0  0  0  0  0  0  0  0  0
   -2.5827   94.3757    5.8091 C   0  0  2  0  0  0  0  0  0  0  0  0
   -3.9347   93.9049    5.8161 O   0  0  0  0  0  0  0  0  0  0  0  0
   -1.6178   93.2062    6.0316 C   0  0  1  0  0  0  0  0  0  0  0  0
   -1.8810   92.5892    7.3055 O   0  0  0  0  0  0  0  0  0  0  0  0
   -1.7307   92.1629    4.9167 C   0  0  0  0  0  0  0  0  0  0  0  0
   -3.9902   94.2517    8.4002 N   0  0  0  0  0  0  0  0  0  0  0  0
  1  2  1  1  0  0  0
  1  3  1  0  0  0  0
  1 10  1  0  0  0  0
  3  4  1  1  0  0  0
  3  5  1  0  0  0  0
  5  6  1  1  0  0  0
  5  7  1  0  0  0  0
  7  8  1  1  0  0  0
  7  9  1  0  0  0  0
  9 10  1  0  0  0  0
  9 11  1  6  0  0  0
 11 12  1  0  0  0  0
 13 14  1  6  0  0  0
 13 15  1  0  0  0  0
 13 21  1  0  0  0  0
 16 15  1  0  0  0  0
 16 17  1  1  0  0  0
 18  2  1  1  0  0  0
 18 16  1  0  0  0  0
 19 18  1  0  0  0  0
 19 20  1  6  0  0  0
 21 19  1  0  0  0  0
 21 22  1  6  0  0  0
 23 20  1  1  0  0  0
 23 24  1  0  0  0  0
 23 28  1  0  0  0  0
 24 25  1  6  0  0  0
 24 26  1  0  0  0  0
 26 27  1  0  0  0  0
 26 32  1  1  0  0  0
 27 28  1  0  0  0  0
 27 29  1  6  0  0  0
 29 30  1  0  0  0  0
 31 32  1  1  0  0  0
 31 40  1  0  0  0  0
 33 31  1  0  0  0  0
 33 42  1  6  0  0  0
 35 33  1  0  0  0  0
 35 36  1  1  0  0  0
 37 35  1  0  0  0  0
 37 38  1  1  0  0  0
 37 39  1  0  0  0  0
 39 40  1  0  0  0  0
 39 41  1  6  0  0  0
 41 34  1  0  0  0  0
M  END
>  <CHROM.1>
-169.07605340,51.22683672,-153.12282484,129.53391465,143.43732452,75.52988926
-71.00882614,-176.08682034,177.26705770,0.08365824,92.48493729,11.91264421
0.89034565,0.97232471,2.41232520

>  <Name>
2fcy_lig

>  <RI>
4.13508e+07

>  <Rbt.Current_Directory>
/home/itssahil/PROJECTS/Mol_Feturizer/New_Systems/rnas/2fcy

>  <Rbt.Executable>
rbdock ($Id: //depot/dev/client3/rdock/2013.1/src/exe/rbdock.cxx#4 $)

>  <Rbt.Library>
libRbt.so (2013.1, Build901 2013/11/27)

>  <Rbt.Parameter_File>
/export/apps/rDock/src/rDock_2013.1_src/data/scripts/dock_solv.prm

>  <Rbt.Receptor>
prm/pocket_docking_3.prm

>  <SCORE>
-8.67536

>  <SCORE.INTER>
-10.3257

>  <SCORE.INTER.CONST>
1

>  <SCORE.INTER.POLAR>
-0.958869

>  <SCORE.INTER.ROT>
9

>  <SCORE.INTER.SOLV>
16.8156

>  <SCORE.INTER.VDW>
-18.8928

>  <SCORE.INTER.norm>
-0.24585

>  <SCORE.INTRA>
1.59916

>  <SCORE.INTRA.DIHEDRAL>
0.0499557

>  <SCORE.INTRA.DIHEDRAL.0>
17.3446

>  <SCORE.INTRA.POLAR>
0

>  <SCORE.INTRA.POLAR.0>
0

>  <SCORE.INTRA.REPUL>
0

>  <SCORE.INTRA.REPUL.0>
0

>  <SCORE.INTRA.SOLV>
-1.62785

>  <SCORE.INTRA.SOLV.lig_0>
-112.452

>  <SCORE.INTRA.VDW>
2.38811

>  <SCORE.INTRA.VDW.0>
-5.95059

>  <SCORE.INTRA.norm>
0.0380753

>  <SCORE.RESTR>
0.0511826

>  <SCORE.RESTR.CAVITY>
0.0511826

>  <SCORE.RESTR.norm>
0.00121863

>  <SCORE.SYSTEM>
0

>  <SCORE.SYSTEM.CONST>
0

>  <SCORE.SYSTEM.DIHEDRAL>
0

>  <SCORE.SYSTEM.SOLV>
0

>  <SCORE.SYSTEM.norm>
0

>  <SCORE.heavy>
42

>  <SCORE.norm>
-0.206556

>  <RMSD>
2.097

$$$$
2fcy_lig
 OpenBabel11021811433D
libRbt.so/2013.1/901 2013/11/27
 42 45  0  0  0  0  0  0  0  0999 V2000
   -0.0016   91.0207   14.1606 C   0  0  2  0  0  0  0  0  0  0  0  0
    0.4504   92.3373   14.5202 O   0  0  0  0  0  0  0  0  0  0  0  0
   -1.4130   90.9028   14.7378 C   0  0  2  0  0  0  0  0  0  0  0  0
   -2.2208   92.0247   14.2401 N   0  0  0  0  0  0  0  0  0  0  0  0
   -1.3479   90.9614   16.2660 C   0  0  1  0  0  0  0  0  0  0  0  0
   -2.6576   90.8486   16.8297 O   0  0  0  0  0  0  0  0  0  0  0  0
   -0.4457   89.8382   16.7783 C   0  0  2  0  0  0  0  0  0  0  0  0
   -0.3091   89.9536   18.1945 O   0  0  0  0  0  0  0  0  0  0  0  0
    0.9409   89.9960   16.1525 C   0  0  2  0  0  0  0  0  0  0  0  0
    0.8260   89.9808   14.7211 O   0  0  0  0  0  0  0  0  0  0  0  0
    1.8510   88.8703   16.6507 C   0  0  0  0  0  0  0  0  0  0  0  0
    3.2654   89.1898   16.4060 N   0  0  0  0  0  0  0  0  0  0  0  0
    3.2071   95.0574   12.8927 C   0  0  2  0  0  0  0  0  0  0  0  0
    4.3444   95.7850   12.3097 N   0  0  0  0  0  0  0  0  0  0  0  0
    3.6088   94.3825   14.2058 C   0  0  0  0  0  0  0  0  0  0  0  0
    2.3567   93.7565   14.8283 C   0  0  2  0  0  0  0  0  0  0  0  0
    2.7338   93.0271   16.0476 N   0  0  0  0  0  0  0  0  0  0  0  0
    1.6681   92.7658   13.8851 C   0  0  2  0  0  0  0  0  0  0  0  0
    1.4457   93.2848   12.4689 C   0  0  2  0  0  0  0  0  0  0  0  0
    1.1686   92.1222   11.6716 O   0  0  0  0  0  0  0  0  0  0  0  0
    2.6900   93.9950   11.9196 C   0  0  1  0  0  0  0  0  0  0  0  0
    2.4003   94.6425   10.6778 O   0  0  0  0  0  0  0  0  0  0  0  0
   -0.0377   92.1736   10.8928 C   0  0  1  0  0  0  0  0  0  0  0  0
    0.1712   93.2081    9.7857 C   0  0  2  0  0  0  0  0  0  0  0  0
   -0.1031   94.5165   10.2922 O   0  0  0  0  0  0  0  0  0  0  0  0
   -0.9534   92.7782    8.8481 C   0  0  1  0  0  0  0  0  0  0  0  0
   -0.7546   91.2707    8.8543 C   0  0  2  0  0  0  0  0  0  0  0  0
   -0.3201   90.9457   10.1908 O   0  0  0  0  0  0  0  0  0  0  0  0
    0.3001   90.9001    7.8053 C   0  0  0  0  0  0  0  0  0  0  0  0
    1.6026   91.3030    8.2383 O   0  0  0  0  0  0  0  0  0  0  0  0
   -3.2016   93.2588    8.3867 C   0  0  2  0  0  0  0  0  0  0  0  0
   -2.2249   93.1098    9.4285 O   0  0  0  0  0  0  0  0  0  0  0  0
   -4.4884   93.8500    8.9715 C   0  0  1  0  0  0  0  0  0  0  0  0
   -5.0194   89.6875    6.9832 N   0  0  0  0  0  0  0  0  0  0  0  0
   -5.5793   93.9231    7.8977 C   0  0  1  0  0  0  0  0  0  0  0  0
   -5.2333   94.8932    6.9040 O   0  0  0  0  0  0  0  0  0  0  0  0
   -5.7565   92.5498    7.2442 C   0  0  2  0  0  0  0  0  0  0  0  0
   -6.2569   91.6380    8.2279 O   0  0  0  0  0  0  0  0  0  0  0  0
   -4.4072   92.0578    6.7097 C   0  0  1  0  0  0  0  0  0  0  0  0
   -3.4540   91.9767    7.7855 O   0  0  0  0  0  0  0  0  0  0  0  0
   -4.5356   90.6937    6.0264 C   0  0  0  0  0  0  0  0  0  0  0  0
   -4.9605   92.9737   10.0543 N   0  0  0  0  0  0  0  0  0  0  0  0
  1  2  1  1  0  0  0
  1  3  1  0  0  0  0
  1 10  1  0  0  0  0
  3  4  1  6  0  0  0
  3  5  1  0  0  0  0
  5  6  1  1  0  0  0
  5  7  1  0  0  0  0
  7  8  1  1  0  0  0
  7  9  1  0  0  0  0
  9 10  1  0  0  0  0
  9 11  1  1  0  0  0
 11 12  1  0  0  0  0
 13 14  1  6  0  0  0
 13 15  1  0  0  0  0
 13 21  1  0  0  0  0
 16 15  1  0  0  0  0
 16 17  1  1  0  0  0
 18  2  1  1  0  0  0
 18 16  1  0  0  0  0
 19 18  1  0  0  0  0
 19 20  1  6  0  0  0
 21 19  1  0  0  0  0
 21 22  1  6  0  0  0
 23 20  1  6  0  0  0
 23 24  1  0  0  0  0
 23 28  1  0  0  0  0
 24 25  1  1  0  0  0
 24 26  1  0  0  0  0
 26 27  1  0  0  0  0
 26 32  1  1  0  0  0
 27 28  1  0  0  0  0
 27 29  1  6  0  0  0
 29 30  1  0  0  0  0
 31 32  1  1  0  0  0
 31 40  1  0  0  0  0
 33 31  1  0  0  0  0
 33 42  1  1  0  0  0
 35 33  1  0  0  0  0
 35 36  1  6  0  0  0
 37 35  1  0  0  0  0
 37 38  1  1  0  0  0
 37 39  1  0  0  0  0
 39 40  1  0  0  0  0
 39 41  1  1  0  0  0
 41 34  1  0  0  0  0
M  END
>  <CHROM.1>
-169.57463129,-163.32558520,-151.71800227,126.95482950,69.34836591,155.15767949
71.97536594,-170.07737426,-60.87025985,-0.74173384,92.19191994,11.65540106
0.88714026,0.40618432,1.99374079

>  <Name>
2fcy_lig

>  <RI>
0

>  <Rbt.Current_Directory>
/home/itssahil/PROJECTS/Mol_Feturizer/New_Systems/rnas/2fcy

>  <Rbt.Executable>
rbdock ($Id: //depot/dev/client3/rdock/2013.1/src/exe/rbdock.cxx#4 $)

>  <Rbt.Library>
libRbt.so (2013.1, Build901 2013/11/27)

>  <Rbt.Parameter_File>
/export/apps/rDock/src/rDock_2013.1_src/data/scripts/dock_solv.prm

>  <Rbt.Receptor>
prm/pocket_docking_2.prm

>  <SCORE>
-11.7889

>  <SCORE.INTER>
-14.611

>  <SCORE.INTER.CONST>
1

>  <SCORE.INTER.POLAR>
-1.76161

>  <SCORE.INTER.ROT>
9

>  <SCORE.INTER.SOLV>
17.8751

>  <SCORE.INTER.VDW>
-19.427

>  <SCORE.INTER.norm>
-0.347881

>  <SCORE.INTRA>
0.812912

>  <SCORE.INTRA.DIHEDRAL>
-1.37178

>  <SCORE.INTRA.DIHEDRAL.0>
17.3446

>  <SCORE.INTRA.POLAR>
0

>  <SCORE.INTRA.POLAR.0>
0

>  <SCORE.INTRA.REPUL>
0

>  <SCORE.INTRA.REPUL.0>
0

>  <SCORE.INTRA.SOLV>
-0.854184

>  <SCORE.INTRA.SOLV.lig_0>
-112.452

>  <SCORE.INTRA.VDW>
1.92589

>  <SCORE.INTRA.VDW.0>
-5.95059

>  <SCORE.INTRA.norm>
0.0193551

>  <SCORE.RESTR>
2.00922

>  <SCORE.RESTR.CAVITY>
2.00922

>  <SCORE.RESTR.norm>
0.0478385

>  <SCORE.SYSTEM>
0

>  <SCORE.SYSTEM.CONST>
0

>  <SCORE.SYSTEM.DIHEDRAL>
0

>  <SCORE.SYSTEM.SOLV>
0

>  <SCORE.SYSTEM.norm>
0

>  <SCORE.heavy>
42

>  <SCORE.norm>
-0.280688

>  <RMSD>
2.162

$$$$
2fcy_lig
 OpenBabel11021811433D
libRbt.so/2013.1/901 2013/11/27
 42 45  0  0  0  0  0  0  0  0999 V2000
    0.1700   91.5461   13.7502 C   0  0  2  0  0  0  0  0  0  0  0  0
    0.5829   92.8345   14.2368 O   0  0  0  0  0  0  0  0  0  0  0  0
   -1.3123   91.4312   14.1087 C   0  0  2  0  0  0  0  0  0  0  0  0
   -2.0223   92.5921   13.5546 N   0  0  0  0  0  0  0  0  0  0  0  0
   -1.4715   91.4166   15.6310 C   0  0  1  0  0  0  0  0  0  0  0  0
   -2.8512   91.3053   15.9912 O   0  0  0  0  0  0  0  0  0  0  0  0
   -0.6703   90.2517   16.2133 C   0  0  2  0  0  0  0  0  0  0  0  0
   -0.7415   90.2976   17.6382 O   0  0  0  0  0  0  0  0  0  0  0  0
    0.7953   90.4093   15.8052 C   0  0  2  0  0  0  0  0  0  0  0  0
    0.8916   90.4637   14.3733 O   0  0  0  0  0  0  0  0  0  0  0  0
    1.6064   89.2423   16.3745 C   0  0  0  0  0  0  0  0  0  0  0  0
    3.0495   89.4797   16.2200 N   0  0  0  0  0  0  0  0  0  0  0  0
    3.8611   95.3759   13.5723 C   0  0  2  0  0  0  0  0  0  0  0  0
    5.1616   96.0277   13.3559 N   0  0  0  0  0  0  0  0  0  0  0  0
    3.8519   94.6061   14.8944 C   0  0  0  0  0  0  0  0  0  0  0  0
    2.4379   94.0637   15.1262 C   0  0  2  0  0  0  0  0  0  0  0  0
    2.4258   93.2462   16.3478 N   0  0  0  0  0  0  0  0  0  0  0  0
    1.9527   93.1839   13.9703 C   0  0  2  0  0  0  0  0  0  0  0  0
    2.1504   93.7879   12.5844 C   0  0  2  0  0  0  0  0  0  0  0  0
    2.0100   92.6938   11.6638 O   0  0  0  0  0  0  0  0  0  0  0  0
    3.5436   94.4112   12.4271 C   0  0  1  0  0  0  0  0  0  0  0  0
    3.6397   95.1406   11.2007 O   0  0  0  0  0  0  0  0  0  0  0  0
    0.7705   92.6443   10.9389 C   0  0  1  0  0  0  0  0  0  0  0  0
    0.6205   93.9693   10.1897 C   0  0  2  0  0  0  0  0  0  0  0  0
    0.0669   94.9559   11.0637 O   0  0  0  0  0  0  0  0  0  0  0  0
   -0.4316   93.5438    9.1697 C   0  0  1  0  0  0  0  0  0  0  0  0
    0.1411   92.2070    8.7260 C   0  0  2  0  0  0  0  0  0  0  0  0
    0.7511   91.6401    9.9038 O   0  0  0  0  0  0  0  0  0  0  0  0
    1.1661   92.4462    7.6113 C   0  0  0  0  0  0  0  0  0  0  0  0
    0.5286   92.9859    6.4500 O   0  0  0  0  0  0  0  0  0  0  0  0
   -2.7275   93.1992    8.8400 C   0  0  2  0  0  0  0  0  0  0  0  0
   -1.6940   93.3454    9.8259 O   0  0  0  0  0  0  0  0  0  0  0  0
   -2.7873   94.4587    7.9697 C   0  0  1  0  0  0  0  0  0  0  0  0
   -7.4699   92.2873    8.3822 N   0  0  0  0  0  0  0  0  0  0  0  0
   -3.9504   94.3671    6.9760 C   0  0  1  0  0  0  0  0  0  0  0  0
   -3.6939   93.3482    6.0042 O   0  0  0  0  0  0  0  0  0  0  0  0
   -5.2491   94.0561    7.7250 C   0  0  2  0  0  0  0  0  0  0  0  0
   -5.5639   95.1665    8.5720 O   0  0  0  0  0  0  0  0  0  0  0  0
   -5.0653   92.7887    8.5667 C   0  0  1  0  0  0  0  0  0  0  0  0
   -3.9851   92.9728    9.5005 O   0  0  0  0  0  0  0  0  0  0  0  0
   -6.3465   92.4228    9.3210 C   0  0  0  0  0  0  0  0  0  0  0  0
   -3.0104   95.6232    8.8398 N   0  0  0  0  0  0  0  0  0  0  0  0
  1  2  1  1  0  0  0
  1  3  1  0  0  0  0
  1 10  1  0  0  0  0
  3  4  1  1  0  0  0
  3  5  1  0  0  0  0
  5  6  1  6  0  0  0
  5  7  1  0  0  0  0
  7  8  1  1  0  0  0
  7  9  1  0  0  0  0
  9 10  1  0  0  0  0
  9 11  1  6  0  0  0
 11 12  1  0  0  0  0
 13 14  1  6  0  0  0
 13 15  1  0  0  0  0
 13 21  1  0  0  0  0
 16 15  1  0  0  0  0
 16 17  1  1  0  0  0
 18  2  1  1  0  0  0
 18 16  1  0  0  0  0
 19 18  1  0  0  0  0
 19 20  1  6  0  0  0
 21 19  1  0  0  0  0
 21 22  1  6  0  0  0
 23 20  1  6  0  0  0
 23 24  1  0  0  0  0
 23 28  1  0  0  0  0
 24 25  1  1  0  0  0
 24 26  1  0  0  0  0
 26 27  1  0  0  0  0
 26 32  1  1  0  0  0
 27 28  1  0  0  0  0
 27 29  1  6  0  0  0
 29 30  1  0  0  0  0
 31 32  1  1  0  0  0
 31 40  1  0  0  0  0
 33 31  1  0  0  0  0
 33 42  1  1  0  0  0
 35 33  1  0  0  0  0
 35 36  1  6  0  0  0
 37 35  1  0  0  0  0
 37 38  1  1  0  0  0
 37 39  1  0  0  0  0
 39 40  1  0  0  0  0
 39 41  1  1  0  0  0
 41 34  1  0  0  0  0
M  END
>  <CHROM.1>
-178.11186780,-169.54971380,-148.17552679,104.46475716,57.05109658,169.00634007
-64.75269928,-59.56492425,55.52498359,-0.46548384,92.90497482,11.73318780
0.85985015,0.29342309,2.00391283

>  <Name>
2fcy_lig

>  <RI>
4.13508e+07

>  <Rbt.Current_Directory>
/home/itssahil/PROJECTS/Mol_Feturizer/New_Systems/rnas/2fcy

>  <Rbt.Executable>
rbdock ($Id: //depot/dev/client3/rdock/2013.1/src/exe/rbdock.cxx#4 $)

>  <Rbt.Library>
libRbt.so (2013.1, Build901 2013/11/27)

>  <Rbt.Parameter_File>
/export/apps/rDock/src/rDock_2013.1_src/data/scripts/dock_solv.prm

>  <Rbt.Receptor>
prm/pocket_docking_3.prm

>  <SCORE>
-18.7553

>  <SCORE.INTER>
-17.8532

>  <SCORE.INTER.CONST>
1

>  <SCORE.INTER.POLAR>
-1.89833

>  <SCORE.INTER.ROT>
9

>  <SCORE.INTER.SOLV>
16.7215

>  <SCORE.INTER.VDW>
-20.7482

>  <SCORE.INTER.norm>
-0.425076

>  <SCORE.INTRA>
-0.917363

>  <SCORE.INTRA.DIHEDRAL>
-5.72381

>  <SCORE.INTRA.DIHEDRAL.0>
17.3446

>  <SCORE.INTRA.POLAR>
0

>  <SCORE.INTRA.POLAR.0>
0

>  <SCORE.INTRA.REPUL>
0

>  <SCORE.INTRA.REPUL.0>
0

>  <SCORE.INTRA.SOLV>
-0.789459

>  <SCORE.INTRA.SOLV.lig_0>
-112.452

>  <SCORE.INTRA.VDW>
2.33927

>  <SCORE.INTRA.VDW.0>
-5.95059

>  <SCORE.INTRA.norm>
-0.021842

>  <SCORE.RESTR>
0.0152322

>  <SCORE.RESTR.CAVITY>
0.0152322

>  <SCORE.RESTR.norm>
0.000362672

>  <SCORE.SYSTEM>
0

>  <SCORE.SYSTEM.CONST>
0

>  <SCORE.SYSTEM.DIHEDRAL>
0

>  <SCORE.SYSTEM.SOLV>
0

>  <SCORE.SYSTEM.norm>
0

>  <SCORE.heavy>
42

>  <SCORE.norm>
-0.446555

>  <RMSD>
2.170

$$$$
2fcy_lig
 OpenBabel11021811433D
libRbt.so/2013.1/901 2013/11/27
 42 45  0  0  0  0  0  0  0  0999 V2000
    0.2230   91.4751   13.6907 C   0  0  2  0  0  0  0  0  0  0  0  0
    0.6380   92.7617   14.1804 O   0  0  0  0  0  0  0  0  0  0  0  0
   -1.2507   91.3473   14.0792 C   0  0  2  0  0  0  0  0  0  0  0  0
   -1.9795   92.5086   13.5510 N   0  0  0  0  0  0  0  0  0  0  0  0
   -1.3776   91.3177   15.6044 C   0  0  1  0  0  0  0  0  0  0  0  0
   -2.7487   91.1941   15.9925 O   0  0  0  0  0  0  0  0  0  0  0  0
   -0.5569   90.1528   16.1587 C   0  0  2  0  0  0  0  0  0  0  0  0
   -0.5983   90.1851   17.5852 O   0  0  0  0  0  0  0  0  0  0  0  0
    0.8987   90.3236   15.7214 C   0  0  2  0  0  0  0  0  0  0  0  0
    0.9645   90.3918   14.2884 O   0  0  0  0  0  0  0  0  0  0  0  0
    1.7290   89.1568   16.2625 C   0  0  0  0  0  0  0  0  0  0  0  0
    3.1668   89.4580   16.1948 N   0  0  0  0  0  0  0  0  0  0  0  0
    3.9359   95.3002   13.6095 C   0  0  2  0  0  0  0  0  0  0  0  0
    5.2407   95.9487   13.4102 N   0  0  0  0  0  0  0  0  0  0  0  0
    3.9370   94.4573   14.8864 C   0  0  0  0  0  0  0  0  0  0  0  0
    2.5202   93.9183   15.1089 C   0  0  2  0  0  0  0  0  0  0  0  0
    2.5164   93.0335   16.2828 N   0  0  0  0  0  0  0  0  0  0  0  0
    2.0078   93.1105   13.9131 C   0  0  2  0  0  0  0  0  0  0  0  0
    2.1922   93.7893   12.5604 C   0  0  2  0  0  0  0  0  0  0  0  0
    2.0254   92.7505   11.5821 O   0  0  0  0  0  0  0  0  0  0  0  0
    3.5903   94.4051   12.4170 C   0  0  1  0  0  0  0  0  0  0  0  0
    3.6769   95.2013   11.2322 O   0  0  0  0  0  0  0  0  0  0  0  0
    0.7974   92.7873   10.8370 C   0  0  1  0  0  0  0  0  0  0  0  0
    0.7203   94.1470   10.1408 C   0  0  2  0  0  0  0  0  0  0  0  0
    0.1973   95.1219   11.0462 O   0  0  0  0  0  0  0  0  0  0  0  0
   -0.3325   93.8119    9.0883 C   0  0  1  0  0  0  0  0  0  0  0  0
    0.1866   92.4692    8.5986 C   0  0  2  0  0  0  0  0  0  0  0  0
    0.7501   91.8277    9.7613 O   0  0  0  0  0  0  0  0  0  0  0  0
    1.2402   92.7059    7.5105 C   0  0  0  0  0  0  0  0  0  0  0  0
    1.4786   91.5041    6.7720 O   0  0  0  0  0  0  0  0  0  0  0  0
   -2.6197   93.4609    8.7090 C   0  0  2  0  0  0  0  0  0  0  0  0
   -1.6135   93.6454    9.7165 O   0  0  0  0  0  0  0  0  0  0  0  0
   -2.8013   94.7626    7.9218 C   0  0  1  0  0  0  0  0  0  0  0  0
   -5.8067   91.0816    9.8518 N   0  0  0  0  0  0  0  0  0  0  0  0
   -3.9418   94.6197    6.9083 C   0  0  1  0  0  0  0  0  0  0  0  0
   -3.5759   93.6985    5.8759 O   0  0  0  0  0  0  0  0  0  0  0  0
   -5.2074   94.1300    7.6174 C   0  0  2  0  0  0  0  0  0  0  0  0
   -5.6398   95.1444    8.5304 O   0  0  0  0  0  0  0  0  0  0  0  0
   -4.9014   92.8349    8.3772 C   0  0  1  0  0  0  0  0  0  0  0  0
   -3.8523   93.0652    9.3359 O   0  0  0  0  0  0  0  0  0  0  0  0
   -6.1440   92.2920    9.0884 C   0  0  0  0  0  0  0  0  0  0  0  0
   -3.1481   95.8385    8.8626 N   0  0  0  0  0  0  0  0  0  0  0  0
  1  2  1  1  0  0  0
  1  3  1  0  0  0  0
  1 10  1  0  0  0  0
  3  4  1  1  0  0  0
  3  5  1  0  0  0  0
  5  6  1  6  0  0  0
  5  7  1  0  0  0  0
  7  8  1  1  0  0  0
  7  9  1  0  0  0  0
  9 10  1  0  0  0  0
  9 11  1  6  0  0  0
 11 12  1  0  0  0  0
 13 14  1  6  0  0  0
 13 15  1  0  0  0  0
 13 21  1  0  0  0  0
 16 15  1  0  0  0  0
 16 17  1  1  0  0  0
 18  2  1  1  0  0  0
 18 16  1  0  0  0  0
 19 18  1  0  0  0  0
 19 20  1  6  0  0  0
 21 19  1  0  0  0  0
 21 22  1  6  0  0  0
 23 20  1  6  0  0  0
 23 24  1  0  0  0  0
 23 28  1  0  0  0  0
 24 25  1  1  0  0  0
 24 26  1  0  0  0  0
 26 27  1  0  0  0  0
 26 32  1  1  0  0  0
 27 28  1  0  0  0  0
 27 29  1  6  0  0  0
 29 30  1  0  0  0  0
 31 32  1  1  0  0  0
 31 40  1  0  0  0  0
 33 31  1  0  0  0  0
 33 42  1  1  0  0  0
 35 33  1  0  0  0  0
 35 36  1  6  0  0  0
 37 35  1  0  0  0  0
 37 38  1  1  0  0  0
 37 39  1  0  0  0  0
 39 40  1  0  0  0  0
 39 41  1  1  0  0  0
 41 34  1  0  0  0  0
M  END
>  <CHROM.1>
-179.37011280,-164.26782445,-144.96466853,106.86248114,57.78386675,174.38184678
-163.89754090,-68.27471762,-177.70019854,-0.33458827,92.87515877,11.71571750
0.88624081,0.30083988,2.02589454

>  <Name>
2fcy_lig

>  <RI>
1.56845e+07

>  <Rbt.Current_Directory>
/home/itssahil/PROJECTS/Mol_Feturizer/New_Systems/rnas/2fcy

>  <Rbt.Executable>
rbdock ($Id: //depot/dev/client3/rdock/2013.1/src/exe/rbdock.cxx#4 $)

>  <Rbt.Library>
libRbt.so (2013.1, Build901 2013/11/27)

>  <Rbt.Parameter_File>
/export/apps/rDock/src/rDock_2013.1_src/data/scripts/dock_solv.prm

>  <Rbt.Receptor>
prm/pocket_docking_4.prm

>  <SCORE>
-19.1277

>  <SCORE.INTER>
-18.3379

>  <SCORE.INTER.CONST>
1

>  <SCORE.INTER.POLAR>
-1.94945

>  <SCORE.INTER.ROT>
9

>  <SCORE.INTER.SOLV>
17.468

>  <SCORE.INTER.VDW>
-21.1498

>  <SCORE.INTER.norm>
-0.436617

>  <SCORE.INTRA>
-0.789748

>  <SCORE.INTRA.DIHEDRAL>
-3.76495

>  <SCORE.INTRA.DIHEDRAL.0>
17.3446

>  <SCORE.INTRA.POLAR>
0

>  <SCORE.INTRA.POLAR.0>
0

>  <SCORE.INTRA.REPUL>
0.0246235

>  <SCORE.INTRA.REPUL.0>
0

>  <SCORE.INTRA.SOLV>
-1.81995

>  <SCORE.INTRA.SOLV.lig_0>
-112.452

>  <SCORE.INTRA.VDW>
1.87958

>  <SCORE.INTRA.VDW.0>
-5.95059

>  <SCORE.INTRA.norm>
-0.0188035

>  <SCORE.RESTR>
0

>  <SCORE.RESTR.CAVITY>
0

>  <SCORE.RESTR.norm>
0

>  <SCORE.SYSTEM>
0

>  <SCORE.SYSTEM.CONST>
0

>  <SCORE.SYSTEM.DIHEDRAL>
0

>  <SCORE.SYSTEM.SOLV>
0

>  <SCORE.SYSTEM.norm>
0

>  <SCORE.heavy>
42

>  <SCORE.norm>
-0.455421

>  <RMSD>
2.221

$$$$
2fcy_lig
 OpenBabel11021811433D
libRbt.so/2013.1/901 2013/11/27
 42 45  0  0  0  0  0  0  0  0999 V2000
   -0.1963   91.0276   14.0697 C   0  0  2  0  0  0  0  0  0  0  0  0
    0.3774   92.3261   14.2974 O   0  0  0  0  0  0  0  0  0  0  0  0
   -1.4722   90.9925   14.9123 C   0  0  2  0  0  0  0  0  0  0  0  0
   -2.3087   92.1444   14.5488 N   0  0  0  0  0  0  0  0  0  0  0  0
   -1.1080   91.0766   16.3968 C   0  0  1  0  0  0  0  0  0  0  0  0
   -2.2866   91.0412   17.2063 O   0  0  0  0  0  0  0  0  0  0  0  0
   -0.1762   89.9189   16.7564 C   0  0  2  0  0  0  0  0  0  0  0  0
    0.2388   90.0539   18.1155 O   0  0  0  0  0  0  0  0  0  0  0  0
    1.0677   89.9941   15.8697 C   0  0  2  0  0  0  0  0  0  0  0  0
    0.6757   89.9577   14.4886 O   0  0  0  0  0  0  0  0  0  0  0  0
    2.0044   88.8331   16.2140 C   0  0  0  0  0  0  0  0  0  0  0  0
    2.6383   89.0393   17.5248 N   0  0  0  0  0  0  0  0  0  0  0  0
    2.6316   94.8233   11.7816 C   0  0  2  0  0  0  0  0  0  0  0  0
    3.6080   95.4850   10.9032 N   0  0  0  0  0  0  0  0  0  0  0  0
    3.2717   94.4454   13.1189 C   0  0  0  0  0  0  0  0  0  0  0  0
    2.1790   93.8844   14.0345 C   0  0  2  0  0  0  0  0  0  0  0  0
    2.7862   93.4330   15.2948 N   0  0  0  0  0  0  0  0  0  0  0  0
    1.4515   92.6892   13.4119 C   0  0  2  0  0  0  0  0  0  0  0  0
    0.9870   92.9046   11.9758 C   0  0  2  0  0  0  0  0  0  0  0  0
    0.7008   91.5935   11.4628 O   0  0  0  0  0  0  0  0  0  0  0  0
    2.0752   93.5620   11.1166 C   0  0  1  0  0  0  0  0  0  0  0  0
    1.5579   93.9337    9.8363 O   0  0  0  0  0  0  0  0  0  0  0  0
   -0.0919   91.5522   10.2651 C   0  0  1  0  0  0  0  0  0  0  0  0
    0.0382   90.1476    9.6735 C   0  0  2  0  0  0  0  0  0  0  0  0
    1.2283   90.0660    8.8857 O   0  0  0  0  0  0  0  0  0  0  0  0
   -1.1807   90.1663    8.7556 C   0  0  1  0  0  0  0  0  0  0  0  0
   -2.2204   90.7612    9.6922 C   0  0  2  0  0  0  0  0  0  0  0  0
   -1.5048   91.7128   10.5064 O   0  0  0  0  0  0  0  0  0  0  0  0
   -2.8367   89.6385   10.5348 C   0  0  0  0  0  0  0  0  0  0  0  0
   -1.8824   89.1328   11.4729 O   0  0  0  0  0  0  0  0  0  0  0  0
   -2.0460   90.9774    6.7328 C   0  0  2  0  0  0  0  0  0  0  0  0
   -0.9458   91.0553    7.6520 O   0  0  0  0  0  0  0  0  0  0  0  0
   -1.9006   89.7235    5.8646 C   0  0  1  0  0  0  0  0  0  0  0  0
   -3.4795   94.6000    5.1919 N   0  0  0  0  0  0  0  0  0  0  0  0
   -3.0091   89.6736    4.8077 C   0  0  1  0  0  0  0  0  0  0  0  0
   -4.2793   89.4562    5.4304 O   0  0  0  0  0  0  0  0  0  0  0  0
   -3.0342   90.9864    4.0201 C   0  0  2  0  0  0  0  0  0  0  0  0
   -1.8135   91.0976    3.2805 O   0  0  0  0  0  0  0  0  0  0  0  0
   -3.1699   92.1646    4.9904 C   0  0  1  0  0  0  0  0  0  0  0  0
   -2.0701   92.1636    5.9196 O   0  0  0  0  0  0  0  0  0  0  0  0
   -3.2206   93.5027    4.2481 C   0  0  0  0  0  0  0  0  0  0  0  0
   -0.6029   89.7754    5.1745 N   0  0  0  0  0  0  0  0  0  0  0  0
  1  2  1  1  0  0  0
  1  3  1  0  0  0  0
  1 10  1  0  0  0  0
  3  4  1  6  0  0  0
  3  5  1  0  0  0  0
  5  6  1  1  0  0  0
  5  7  1  0  0  0  0
  7  8  1  1  0  0  0
  7  9  1  0  0  0  0
  9 10  1  0  0  0  0
  9 11  1  1  0  0  0
 11 12  1  0  0  0  0
 13 14  1  6  0  0  0
 13 15  1  0  0  0  0
 13 21  1  0  0  0  0
 16 15  1  0  0  0  0
 16 17  1  1  0  0  0
 18  2  1  1  0  0  0
 18 16  1  0  0  0  0
 19 18  1  0  0  0  0
 19 20  1  6  0  0  0
 21 19  1  0  0  0  0
 21 22  1  6  0  0  0
 23 20  1  1  0  0  0
 23 24  1  0  0  0  0
 23 28  1  0  0  0  0
 24 25  1  6  0  0  0
 24 26  1  0  0  0  0
 26 27  1  0  0  0  0
 26 32  1  6  0  0  0
 27 28  1  0  0  0  0
 27 29  1  1  0  0  0
 29 30  1  0  0  0  0
 31 32  1  1  0  0  0
 31 40  1  0  0  0  0
 33 31  1  0  0  0  0
 33 42  1  6  0  0  0
 35 33  1  0  0  0  0
 35 36  1  1  0  0  0
 37 35  1  0  0  0  0
 37 38  1  1  0  0  0
 37 39  1  0  0  0  0
 39 40  1  0  0  0  0
 39 41  1  6  0  0  0
 41 34  1  0  0  0  0
M  END
>  <CHROM.1>
-168.55872112,-71.65962691,-164.36217455,163.63584487,164.61418937,174.93383326
69.81359864,-79.16839475,174.60222352,-0.42563342,91.44770993,10.86066609
1.13594851,0.78503201,1.89377901

>  <Name>
2fcy_lig

>  <RI>
0

>  <Rbt.Current_Directory>
/home/itssahil/PROJECTS/Mol_Feturizer/New_Systems/rnas/2fcy

>  <Rbt.Executable>
rbdock ($Id: //depot/dev/client3/rdock/2013.1/src/exe/rbdock.cxx#4 $)

>  <Rbt.Library>
libRbt.so (2013.1, Build901 2013/11/27)

>  <Rbt.Parameter_File>
/export/apps/rDock/src/rDock_2013.1_src/data/scripts/dock_solv.prm

>  <Rbt.Receptor>
prm/pocket_docking_5.prm

>  <SCORE>
-22.5669

>  <SCORE.INTER>
-17.8098

>  <SCORE.INTER.CONST>
1

>  <SCORE.INTER.POLAR>
-1.66691

>  <SCORE.INTER.ROT>
9

>  <SCORE.INTER.SOLV>
19.4354

>  <SCORE.INTER.VDW>
-22.3953

>  <SCORE.INTER.norm>
-0.424043

>  <SCORE.INTRA>
-4.75711

>  <SCORE.INTRA.DIHEDRAL>
-9.96107

>  <SCORE.INTRA.DIHEDRAL.0>
17.3446

>  <SCORE.INTRA.POLAR>
0

>  <SCORE.INTRA.POLAR.0>
0

>  <SCORE.INTRA.REPUL>
0

>  <SCORE.INTRA.REPUL.0>
0

>  <SCORE.INTRA.SOLV>
-3.59589

>  <SCORE.INTRA.SOLV.lig_0>
-112.452

>  <SCORE.INTRA.VDW>
2.02138

>  <SCORE.INTRA.VDW.0>
-5.95059

>  <SCORE.INTRA.norm>
-0.113264

>  <SCORE.RESTR>
0

>  <SCORE.RESTR.CAVITY>
0

>  <SCORE.RESTR.norm>
0

>  <SCORE.SYSTEM>
0

>  <SCORE.SYSTEM.CONST>
0

>  <SCORE.SYSTEM.DIHEDRAL>
0

>  <SCORE.SYSTEM.SOLV>
0

>  <SCORE.SYSTEM.norm>
0

>  <SCORE.heavy>
42

>  <SCORE.norm>
-0.537307

>  <RMSD>
2.233

$$$$
2fcy_lig
 OpenBabel11021811433D
libRbt.so/2013.1/901 2013/11/27
 42 45  0  0  0  0  0  0  0  0999 V2000
    0.1986   91.0347   14.1694 C   0  0  2  0  0  0  0  0  0  0  0  0
    0.5127   92.4200   14.3920 O   0  0  0  0  0  0  0  0  0  0  0  0
   -1.0576   90.7636   14.9985 C   0  0  2  0  0  0  0  0  0  0  0  0
   -2.0930   91.7333   14.6160 N   0  0  0  0  0  0  0  0  0  0  0  0
   -0.7343   90.9249   16.4860 C   0  0  1  0  0  0  0  0  0  0  0  0
   -1.8946   90.6718   17.2831 O   0  0  0  0  0  0  0  0  0  0  0  0
    0.3958   89.9675   16.8658 C   0  0  2  0  0  0  0  0  0  0  0  0
    0.7610   90.1878   18.2280 O   0  0  0  0  0  0  0  0  0  0  0  0
    1.6136   90.2717   15.9920 C   0  0  2  0  0  0  0  0  0  0  0  0
    1.2526   90.1526   14.6071 O   0  0  0  0  0  0  0  0  0  0  0  0
    2.7493   89.3120   16.3564 C   0  0  0  0  0  0  0  0  0  0  0  0
    2.3982   87.9261   16.0119 N   0  0  0  0  0  0  0  0  0  0  0  0
    2.3202   95.3156   11.9436 C   0  0  2  0  0  0  0  0  0  0  0  0
    3.1719   96.1494   11.0819 N   0  0  0  0  0  0  0  0  0  0  0  0
    3.0228   95.0068   13.2672 C   0  0  0  0  0  0  0  0  0  0  0  0
    2.0405   94.2528   14.1693 C   0  0  2  0  0  0  0  0  0  0  0  0
    2.7217   93.8685   15.4140 N   0  0  0  0  0  0  0  0  0  0  0  0
    1.5082   92.9750   13.5142 C   0  0  2  0  0  0  0  0  0  0  0  0
    1.0043   93.1541   12.0865 C   0  0  2  0  0  0  0  0  0  0  0  0
    0.9269   91.8293   11.5362 O   0  0  0  0  0  0  0  0  0  0  0  0
    1.9671   94.0010   11.2436 C   0  0  1  0  0  0  0  0  0  0  0  0
    1.3872   94.3216    9.9763 O   0  0  0  0  0  0  0  0  0  0  0  0
    0.0510   91.6731   10.4080 C   0  0  1  0  0  0  0  0  0  0  0  0
    0.1810   90.2298    9.9187 C   0  0  2  0  0  0  0  0  0  0  0  0
    1.3126   90.1158    9.0526 O   0  0  0  0  0  0  0  0  0  0  0  0
   -1.1014   90.1450    9.0960 C   0  0  1  0  0  0  0  0  0  0  0  0
   -2.0882   90.7861   10.0589 C   0  0  2  0  0  0  0  0  0  0  0  0
   -1.3449   91.8170   10.7413 O   0  0  0  0  0  0  0  0  0  0  0  0
   -2.6066   89.7187   11.0295 C   0  0  0  0  0  0  0  0  0  0  0  0
   -3.2605   88.6656   10.3156 O   0  0  0  0  0  0  0  0  0  0  0  0
   -2.1923   90.8792    7.1545 C   0  0  2  0  0  0  0  0  0  0  0  0
   -0.9749   90.9491    7.9124 O   0  0  0  0  0  0  0  0  0  0  0  0
   -2.3311   89.4846    6.5356 C   0  0  1  0  0  0  0  0  0  0  0  0
   -4.6721   93.2182    3.7191 N   0  0  0  0  0  0  0  0  0  0  0  0
   -3.5722   89.4189    5.6389 C   0  0  1  0  0  0  0  0  0  0  0  0
   -4.7614   89.5110    6.4298 O   0  0  0  0  0  0  0  0  0  0  0  0
   -3.5362   90.5605    4.6192 C   0  0  2  0  0  0  0  0  0  0  0  0
   -2.4253   90.3521    3.7406 O   0  0  0  0  0  0  0  0  0  0  0  0
   -3.3835   91.8980    5.3513 C   0  0  1  0  0  0  0  0  0  0  0  0
   -2.1753   91.8930    6.1343 O   0  0  0  0  0  0  0  0  0  0  0  0
   -3.3632   93.0762    4.3737 C   0  0  0  0  0  0  0  0  0  0  0  0
   -1.1454   89.2156    5.7081 N   0  0  0  0  0  0  0  0  0  0  0  0
  1  2  1  1  0  0  0
  1  3  1  0  0  0  0
  1 10  1  0  0  0  0
  3  4  1  6  0  0  0
  3  5  1  0  0  0  0
  5  6  1  1  0  0  0
  5  7  1  0  0  0  0
  7  8  1  1  0  0  0
  7  9  1  0  0  0  0
  9 10  1  0  0  0  0
  9 11  1  1  0  0  0
 11 12  1  0  0  0  0
 13 14  1  6  0  0  0
 13 15  1  0  0  0  0
 13 21  1  0  0  0  0
 16 15  1  0  0  0  0
 16 17  1  1  0  0  0
 18  2  1  1  0  0  0
 18 16  1  0  0  0  0
 19 18  1  0  0  0  0
 19 20  1  6  0  0  0
 21 19  1  0  0  0  0
 21 22  1  6  0  0  0
 23 20  1  1  0  0  0
 23 24  1  0  0  0  0
 23 28  1  0  0  0  0
 24 25  1  6  0  0  0
 24 26  1  0  0  0  0
 26 27  1  0  0  0  0
 26 32  1  6  0  0  0
 27 28  1  0  0  0  0
 27 29  1  1  0  0  0
 29 30  1  0  0  0  0
 31 32  1  6  0  0  0
 31 40  1  0  0  0  0
 33 31  1  0  0  0  0
 33 42  1  6  0  0  0
 35 33  1  0  0  0  0
 35 36  1  1  0  0  0
 37 35  1  0  0  0  0
 37 38  1  6  0  0  0
 37 39  1  0  0  0  0
 39 40  1  0  0  0  0
 39 41  1  6  0  0  0
 41 34  1  0  0  0  0
M  END
>  <CHROM.1>
-168.50475388,65.76765889,-161.48221783,158.51841264,176.29404388,-179.16353660
-59.84048273,-70.53575694,66.71746066,-0.47329857,91.40501638,10.99325437
0.94792564,0.86612447,2.01904766

>  <Name>
2fcy_lig

>  <RI>
2.32494e+07

>  <Rbt.Current_Directory>
/home/itssahil/PROJECTS/Mol_Feturizer/New_Systems/rnas/2fcy

>  <Rbt.Executable>
rbdock ($Id: //depot/dev/client3/rdock/2013.1/src/exe/rbdock.cxx#4 $)

>  <Rbt.Library>
libRbt.so (2013.1, Build901 2013/11/27)

>  <Rbt.Parameter_File>
/export/apps/rDock/src/rDock_2013.1_src/data/scripts/dock_solv.prm

>  <Rbt.Receptor>
prm/pocket_docking_8.prm

>  <SCORE>
-18.0043

>  <SCORE.INTER>
-12.6757

>  <SCORE.INTER.CONST>
1

>  <SCORE.INTER.POLAR>
-1.39743

>  <SCORE.INTER.ROT>
9

>  <SCORE.INTER.SOLV>
20.8107

>  <SCORE.INTER.VDW>
-20.3292

>  <SCORE.INTER.norm>
-0.301802

>  <SCORE.INTRA>
-5.32862

>  <SCORE.INTRA.DIHEDRAL>
-11.6326

>  <SCORE.INTRA.DIHEDRAL.0>
17.3446

>  <SCORE.INTRA.POLAR>
0

>  <SCORE.INTRA.POLAR.0>
0

>  <SCORE.INTRA.REPUL>
0

>  <SCORE.INTRA.REPUL.0>
0

>  <SCORE.INTRA.SOLV>
-3.03488

>  <SCORE.INTRA.SOLV.lig_0>
-112.452

>  <SCORE.INTRA.VDW>
2.00512

>  <SCORE.INTRA.VDW.0>
-5.95059

>  <SCORE.INTRA.norm>
-0.126872

>  <SCORE.RESTR>
0

>  <SCORE.RESTR.CAVITY>
0

>  <SCORE.RESTR.norm>
0

>  <SCORE.SYSTEM>
0

>  <SCORE.SYSTEM.CONST>
0

>  <SCORE.SYSTEM.DIHEDRAL>
0

>  <SCORE.SYSTEM.SOLV>
0

>  <SCORE.SYSTEM.norm>
0

>  <SCORE.heavy>
42

>  <SCORE.norm>
-0.428674

>  <RMSD>
2.240

$$$$
2fcy_lig
 OpenBabel11021811433D
libRbt.so/2013.1/901 2013/11/27
 42 45  0  0  0  0  0  0  0  0999 V2000
    0.6959   90.6789   15.2266 C   0  0  2  0  0  0  0  0  0  0  0  0
    1.2019   91.9193   15.7485 O   0  0  0  0  0  0  0  0  0  0  0  0
   -0.4478   90.2804   16.1605 C   0  0  2  0  0  0  0  0  0  0  0  0
   -1.4054   91.3923   16.2337 N   0  0  0  0  0  0  0  0  0  0  0  0
    0.1079   89.9946   17.5579 C   0  0  1  0  0  0  0  0  0  0  0  0
   -0.9442   89.6151   18.4494 O   0  0  0  0  0  0  0  0  0  0  0  0
    1.1595   88.8883   17.4686 C   0  0  2  0  0  0  0  0  0  0  0  0
    1.7449   88.6909   18.7555 O   0  0  0  0  0  0  0  0  0  0  0  0
    2.2629   89.3338   16.5078 C   0  0  2  0  0  0  0  0  0  0  0  0
    1.6903   89.6341   15.2254 O   0  0  0  0  0  0  0  0  0  0  0  0
    3.3175   88.2291   16.4025 C   0  0  0  0  0  0  0  0  0  0  0  0
    4.0405   88.0689   17.6730 N   0  0  0  0  0  0  0  0  0  0  0  0
    3.1629   95.1922   13.9908 C   0  0  2  0  0  0  0  0  0  0  0  0
    4.0306   96.1426   13.2790 N   0  0  0  0  0  0  0  0  0  0  0  0
    3.9640   94.3874   15.0162 C   0  0  0  0  0  0  0  0  0  0  0  0
    2.9883   93.5155   15.8130 C   0  0  2  0  0  0  0  0  0  0  0  0
    3.7451   92.6680   16.7457 N   0  0  0  0  0  0  0  0  0  0  0  0
    2.1586   92.5950   14.9132 C   0  0  2  0  0  0  0  0  0  0  0  0
    1.5149   93.2862   13.7164 C   0  0  2  0  0  0  0  0  0  0  0  0
    1.1343   92.2297   12.8202 O   0  0  0  0  0  0  0  0  0  0  0  0
    2.4958   94.2286   13.0063 C   0  0  1  0  0  0  0  0  0  0  0  0
    1.8237   95.0107   12.0154 O   0  0  0  0  0  0  0  0  0  0  0  0
    0.2329   92.6019   11.7651 C   0  0  1  0  0  0  0  0  0  0  0  0
    0.1188   91.4100   10.8133 C   0  0  2  0  0  0  0  0  0  0  0  0
    1.2072   91.4288    9.8866 O   0  0  0  0  0  0  0  0  0  0  0  0
   -1.1686   91.8054   10.0959 C   0  0  1  0  0  0  0  0  0  0  0  0
   -2.0265   92.2208   11.2807 C   0  0  2  0  0  0  0  0  0  0  0  0
   -1.1169   92.8323   12.2184 O   0  0  0  0  0  0  0  0  0  0  0  0
   -2.7031   90.9776   11.8697 C   0  0  0  0  0  0  0  0  0  0  0  0
   -3.5743   91.3414   12.9444 O   0  0  0  0  0  0  0  0  0  0  0  0
   -0.7824   92.4906    7.8869 C   0  0  2  0  0  0  0  0  0  0  0  0
   -0.9241   92.9362    9.2444 O   0  0  0  0  0  0  0  0  0  0  0  0
    0.6967   92.5223    7.4889 C   0  0  1  0  0  0  0  0  0  0  0  0
   -3.8070   93.6991    5.3314 N   0  0  0  0  0  0  0  0  0  0  0  0
    0.8611   92.1479    6.0120 C   0  0  1  0  0  0  0  0  0  0  0  0
    0.5300   90.7703    5.8094 O   0  0  0  0  0  0  0  0  0  0  0  0
   -0.0430   93.0323    5.1491 C   0  0  2  0  0  0  0  0  0  0  0  0
    0.4143   94.3853    5.2477 O   0  0  0  0  0  0  0  0  0  0  0  0
   -1.4887   92.9286    5.6468 C   0  0  1  0  0  0  0  0  0  0  0  0
   -1.5629   93.3376    7.0252 O   0  0  0  0  0  0  0  0  0  0  0  0
   -2.4382   93.7813    4.8008 C   0  0  0  0  0  0  0  0  0  0  0  0
    1.2079   93.8879    7.6815 N   0  0  0  0  0  0  0  0  0  0  0  0
  1  2  1  1  0  0  0
  1  3  1  0  0  0  0
  1 10  1  0  0  0  0
  3  4  1  1  0  0  0
  3  5  1  0  0  0  0
  5  6  1  1  0  0  0
  5  7  1  0  0  0  0
  7  8  1  1  0  0  0
  7  9  1  0  0  0  0
  9 10  1  0  0  0  0
  9 11  1  6  0  0  0
 11 12  1  0  0  0  0
 13 14  1  6  0  0  0
 13 15  1  0  0  0  0
 13 21  1  0  0  0  0
 16 15  1  0  0  0  0
 16 17  1  1  0  0  0
 18  2  1  1  0  0  0
 18 16  1  0  0  0  0
 19 18  1  0  0  0  0
 19 20  1  6  0  0  0
 21 19  1  0  0  0  0
 21 22  1  6  0  0  0
 23 20  1  1  0  0  0
 23 24  1  0  0  0  0
 23 28  1  0  0  0  0
 24 25  1  6  0  0  0
 24 26  1  0  0  0  0
 26 27  1  0  0  0  0
 26 32  1  6  0  0  0
 27 28  1  0  0  0  0
 27 29  1  1  0  0  0
 29 30  1  0  0  0  0
 31 32  1  1  0  0  0
 31 40  1  0  0  0  0
 33 31  1  0  0  0  0
 33 42  1  6  0  0  0
 35 33  1  0  0  0  0
 35 36  1  1  0  0  0
 37 35  1  0  0  0  0
 37 38  1  1  0  0  0
 37 39  1  0  0  0  0
 39 40  1  0  0  0  0
 39 41  1  6  0  0  0
 41 34  1  0  0  0  0
M  END
>  <CHROM.1>
-170.97756969,-67.45619321,-157.06110541,166.06166814,171.69408264,100.90805001
-176.97340152,-104.54686487,-177.98063102,0.55104089,92.05106605,12.15666956
1.27865248,0.62802818,1.99368568

>  <Name>
2fcy_lig

>  <RI>
1.56845e+07

>  <Rbt.Current_Directory>
/home/itssahil/PROJECTS/Mol_Feturizer/New_Systems/rnas/2fcy

>  <Rbt.Executable>
rbdock ($Id: //depot/dev/client3/rdock/2013.1/src/exe/rbdock.cxx#4 $)

>  <Rbt.Library>
libRbt.so (2013.1, Build901 2013/11/27)

>  <Rbt.Parameter_File>
/export/apps/rDock/src/rDock_2013.1_src/data/scripts/dock_solv.prm

>  <Rbt.Receptor>
prm/pocket_docking_4.prm

>  <SCORE>
-23.7926

>  <SCORE.INTER>
-23.651

>  <SCORE.INTER.CONST>
1

>  <SCORE.INTER.POLAR>
-2.75792

>  <SCORE.INTER.ROT>
9

>  <SCORE.INTER.SOLV>
21.1498

>  <SCORE.INTER.VDW>
-23.2242

>  <SCORE.INTER.norm>
-0.563119

>  <SCORE.INTRA>
-0.141575

>  <SCORE.INTRA.DIHEDRAL>
-1.53257

>  <SCORE.INTRA.DIHEDRAL.0>
17.3446

>  <SCORE.INTRA.POLAR>
0

>  <SCORE.INTRA.POLAR.0>
0

>  <SCORE.INTRA.REPUL>
0

>  <SCORE.INTRA.REPUL.0>
0

>  <SCORE.INTRA.SOLV>
-2.66684

>  <SCORE.INTRA.SOLV.lig_0>
-112.452

>  <SCORE.INTRA.VDW>
1.95813

>  <SCORE.INTRA.VDW.0>
-5.95059

>  <SCORE.INTRA.norm>
-0.00337083

>  <SCORE.RESTR>
0

>  <SCORE.RESTR.CAVITY>
0

>  <SCORE.RESTR.norm>
0

>  <SCORE.SYSTEM>
0

>  <SCORE.SYSTEM.CONST>
0

>  <SCORE.SYSTEM.DIHEDRAL>
0

>  <SCORE.SYSTEM.SOLV>
0

>  <SCORE.SYSTEM.norm>
0

>  <SCORE.heavy>
42

>  <SCORE.norm>
-0.56649

>  <RMSD>
2.316

$$$$
2fcy_lig
 OpenBabel11021811433D
libRbt.so/2013.1/901 2013/11/27
 42 45  0  0  0  0  0  0  0  0999 V2000
    0.2973   91.1560   13.9854 C   0  0  2  0  0  0  0  0  0  0  0  0
    0.6418   92.4775   14.4350 O   0  0  0  0  0  0  0  0  0  0  0  0
   -1.0652   90.8550   14.6115 C   0  0  2  0  0  0  0  0  0  0  0  0
   -1.9992   91.9287   14.2461 N   0  0  0  0  0  0  0  0  0  0  0  0
   -0.9273   90.7972   16.1350 C   0  0  1  0  0  0  0  0  0  0  0  0
   -2.1899   90.5124   16.7436 O   0  0  0  0  0  0  0  0  0  0  0  0
    0.1014   89.7303   16.5107 C   0  0  2  0  0  0  0  0  0  0  0  0
    0.2994   89.7449   17.9243 O   0  0  0  0  0  0  0  0  0  0  0  0
    1.4330   90.0723   15.8406 C   0  0  2  0  0  0  0  0  0  0  0  0
    1.2465   90.1605   14.4194 O   0  0  0  0  0  0  0  0  0  0  0  0
    2.4692   89.0047   16.2017 C   0  0  0  0  0  0  0  0  0  0  0  0
    2.8553   89.1035   17.6172 N   0  0  0  0  0  0  0  0  0  0  0  0
    2.9744   95.4574   12.6114 C   0  0  2  0  0  0  0  0  0  0  0  0
    4.0025   96.3144   12.0019 N   0  0  0  0  0  0  0  0  0  0  0  0
    3.3793   95.0460   14.0283 C   0  0  0  0  0  0  0  0  0  0  0  0
    2.2165   94.2704   14.6555 C   0  0  2  0  0  0  0  0  0  0  0  0
    2.6156   93.7892   15.9859 N   0  0  0  0  0  0  0  0  0  0  0  0
    1.8087   93.0527   13.8211 C   0  0  2  0  0  0  0  0  0  0  0  0
    1.6173   93.3347   12.3351 C   0  0  2  0  0  0  0  0  0  0  0  0
    1.6316   92.0490   11.6940 O   0  0  0  0  0  0  0  0  0  0  0  0
    2.7505   94.2000   11.7678 C   0  0  1  0  0  0  0  0  0  0  0  0
    2.4540   94.6157   10.4320 O   0  0  0  0  0  0  0  0  0  0  0  0
    0.4549   91.7153   10.9401 C   0  0  1  0  0  0  0  0  0  0  0  0
   -0.1647   93.0243   10.4478 C   0  0  2  0  0  0  0  0  0  0  0  0
   -0.9853   93.5843   11.4757 O   0  0  0  0  0  0  0  0  0  0  0  0
   -1.0494   92.4622    9.3388 C   0  0  1  0  0  0  0  0  0  0  0  0
   -0.0751   91.5063    8.6685 C   0  0  2  0  0  0  0  0  0  0  0  0
    0.7365   90.9738    9.7354 O   0  0  0  0  0  0  0  0  0  0  0  0
    0.7635   92.2813    7.6456 C   0  0  0  0  0  0  0  0  0  0  0  0
   -0.0828   92.9859    6.7326 O   0  0  0  0  0  0  0  0  0  0  0  0
   -3.3324   91.9638    9.1437 C   0  0  2  0  0  0  0  0  0  0  0  0
   -2.1430   91.7286    9.9127 O   0  0  0  0  0  0  0  0  0  0  0  0
   -3.4346   90.9208    8.0262 C   0  0  1  0  0  0  0  0  0  0  0  0
   -3.2850   95.3061    6.5031 N   0  0  0  0  0  0  0  0  0  0  0  0
   -4.6429   91.2140    7.1302 C   0  0  1  0  0  0  0  0  0  0  0  0
   -5.8599   90.9952    7.8509 O   0  0  0  0  0  0  0  0  0  0  0  0
   -4.5837   92.6624    6.6374 C   0  0  2  0  0  0  0  0  0  0  0  0
   -3.4407   92.8085    5.7878 O   0  0  0  0  0  0  0  0  0  0  0  0
   -4.4709   93.6087    7.8374 C   0  0  1  0  0  0  0  0  0  0  0  0
   -3.2907   93.2948    8.6000 O   0  0  0  0  0  0  0  0  0  0  0  0
   -4.4292   95.0745    7.3969 C   0  0  0  0  0  0  0  0  0  0  0  0
   -2.2180   90.9908    7.2028 N   0  0  0  0  0  0  0  0  0  0  0  0
  1  2  1  1  0  0  0
  1  3  1  0  0  0  0
  1 10  1  0  0  0  0
  3  4  1  1  0  0  0
  3  5  1  0  0  0  0
  5  6  1  1  0  0  0
  5  7  1  0  0  0  0
  7  8  1  1  0  0  0
  7  9  1  0  0  0  0
  9 10  1  0  0  0  0
  9 11  1  6  0  0  0
 11 12  1  0  0  0  0
 13 14  1  6  0  0  0
 13 15  1  0  0  0  0
 13 21  1  0  0  0  0
 16 15  1  0  0  0  0
 16 17  1  1  0  0  0
 18  2  1  1  0  0  0
 18 16  1  0  0  0  0
 19 18  1  0  0  0  0
 19 20  1  6  0  0  0
 21 19  1  0  0  0  0
 21 22  1  6  0  0  0
 23 20  1  6  0  0  0
 23 24  1  0  0  0  0
 23 28  1  0  0  0  0
 24 25  1  1  0  0  0
 24 26  1  0  0  0  0
 26 27  1  0  0  0  0
 26 32  1  1  0  0  0
 27 28  1  0  0  0  0
 27 29  1  6  0  0  0
 29 30  1  0  0  0  0
 31 32  1  6  0  0  0
 31 40  1  0  0  0  0
 33 31  1  0  0  0  0
 33 42  1  6  0  0  0
 35 33  1  0  0  0  0
 35 36  1  1  0  0  0
 37 35  1  0  0  0  0
 37 38  1  6  0  0  0
 37 39  1  0  0  0  0
 39 40  1  0  0  0  0
 39 41  1  6  0  0  0
 41 34  1  0  0  0  0
M  END
>  <CHROM.1>
-171.76715314,-70.36884902,-165.97532517,121.61482584,28.17563485,141.71332619
-53.83811536,89.71907587,-59.00514999,-0.41792533,92.29369915,11.53161908
0.95902061,0.55330880,2.07826202

>  <Name>
2fcy_lig

>  <RI>
0

>  <Rbt.Current_Directory>
/home/itssahil/PROJECTS/Mol_Feturizer/New_Systems/rnas/2fcy

>  <Rbt.Executable>
rbdock ($Id: //depot/dev/client3/rdock/2013.1/src/exe/rbdock.cxx#4 $)

>  <Rbt.Library>
libRbt.so (2013.1, Build901 2013/11/27)

>  <Rbt.Parameter_File>
/export/apps/rDock/src/rDock_2013.1_src/data/scripts/dock_solv.prm

>  <Rbt.Receptor>
prm/pocket_docking_2.prm

>  <SCORE>
-6.35405

>  <SCORE.INTER>
-18.3534

>  <SCORE.INTER.CONST>
1

>  <SCORE.INTER.POLAR>
-1.91682

>  <SCORE.INTER.ROT>
9

>  <SCORE.INTER.SOLV>
13.4731

>  <SCORE.INTER.VDW>
-19.9373

>  <SCORE.INTER.norm>
-0.436986

>  <SCORE.INTRA>
11.6343

>  <SCORE.INTRA.DIHEDRAL>
4.24175

>  <SCORE.INTRA.DIHEDRAL.0>
17.3446

>  <SCORE.INTRA.POLAR>
0

>  <SCORE.INTRA.POLAR.0>
0

>  <SCORE.INTRA.REPUL>
0.137376

>  <SCORE.INTRA.REPUL.0>
0

>  <SCORE.INTRA.SOLV>
3.37492

>  <SCORE.INTRA.SOLV.lig_0>
-112.452

>  <SCORE.INTRA.VDW>
7.13907

>  <SCORE.INTRA.VDW.0>
-5.95059

>  <SCORE.INTRA.norm>
0.277007

>  <SCORE.RESTR>
0.36509

>  <SCORE.RESTR.CAVITY>
0.36509

>  <SCORE.RESTR.norm>
0.00869263

>  <SCORE.SYSTEM>
0

>  <SCORE.SYSTEM.CONST>
0

>  <SCORE.SYSTEM.DIHEDRAL>
0

>  <SCORE.SYSTEM.SOLV>
0

>  <SCORE.SYSTEM.norm>
0

>  <SCORE.heavy>
42

>  <SCORE.norm>
-0.151287

>  <RMSD>
2.335

$$$$
2fcy_lig
 OpenBabel11021811433D
libRbt.so/2013.1/901 2013/11/27
 42 45  0  0  0  0  0  0  0  0999 V2000
   -0.3493   91.0733   13.8593 C   0  0  2  0  0  0  0  0  0  0  0  0
    0.1882   92.3899   14.0714 O   0  0  0  0  0  0  0  0  0  0  0  0
   -1.6127   91.0059   14.7186 C   0  0  2  0  0  0  0  0  0  0  0  0
   -2.4879   92.1298   14.3586 N   0  0  0  0  0  0  0  0  0  0  0  0
   -1.2324   91.1107   16.1977 C   0  0  1  0  0  0  0  0  0  0  0  0
   -2.3990   91.0456   17.0226 O   0  0  0  0  0  0  0  0  0  0  0  0
   -0.2619   89.9837   16.5525 C   0  0  2  0  0  0  0  0  0  0  0  0
    0.1662   90.1402   17.9052 O   0  0  0  0  0  0  0  0  0  0  0  0
    0.9679   90.0901   15.6494 C   0  0  2  0  0  0  0  0  0  0  0  0
    0.5596   90.0328   14.2737 O   0  0  0  0  0  0  0  0  0  0  0  0
    1.9432   88.9599   15.9889 C   0  0  0  0  0  0  0  0  0  0  0  0
    2.6190   89.2151   17.2698 N   0  0  0  0  0  0  0  0  0  0  0  0
    2.6822   94.8181   11.7198 C   0  0  2  0  0  0  0  0  0  0  0  0
    3.7376   95.4522   10.9155 N   0  0  0  0  0  0  0  0  0  0  0  0
    3.2073   94.4420   13.1067 C   0  0  0  0  0  0  0  0  0  0  0  0
    2.0350   93.9112   13.9380 C   0  0  2  0  0  0  0  0  0  0  0  0
    2.5320   93.4615   15.2463 N   0  0  0  0  0  0  0  0  0  0  0  0
    1.3356   92.7236   13.2704 C   0  0  2  0  0  0  0  0  0  0  0  0
    0.9901   92.9327   11.8003 C   0  0  2  0  0  0  0  0  0  0  0  0
    0.7196   91.6220   11.2778 O   0  0  0  0  0  0  0  0  0  0  0  0
    2.1554   93.5606   11.0240 C   0  0  1  0  0  0  0  0  0  0  0  0
    1.7480   93.9287    9.7036 O   0  0  0  0  0  0  0  0  0  0  0  0
   -0.3032   91.5511   10.2713 C   0  0  1  0  0  0  0  0  0  0  0  0
   -1.6549   91.6706   10.9772 C   0  0  2  0  0  0  0  0  0  0  0  0
   -2.0547   90.3897   11.4702 O   0  0  0  0  0  0  0  0  0  0  0  0
   -2.5153   92.0452    9.7740 C   0  0  1  0  0  0  0  0  0  0  0  0
   -1.6336   93.0997    9.1237 C   0  0  2  0  0  0  0  0  0  0  0  0
   -0.2784   92.6598    9.3490 O   0  0  0  0  0  0  0  0  0  0  0  0
   -1.9095   94.4575    9.7797 C   0  0  0  0  0  0  0  0  0  0  0  0
   -3.2760   94.8374    9.5926 O   0  0  0  0  0  0  0  0  0  0  0  0
   -3.8495   91.0523    8.1210 C   0  0  2  0  0  0  0  0  0  0  0  0
   -2.6528   90.9121    8.9018 O   0  0  0  0  0  0  0  0  0  0  0  0
   -3.9346   89.9095    7.1041 C   0  0  1  0  0  0  0  0  0  0  0  0
   -5.1544   94.9547    7.1838 N   0  0  0  0  0  0  0  0  0  0  0  0
   -5.1517   90.0954    6.1916 C   0  0  1  0  0  0  0  0  0  0  0  0
   -6.3615   89.9194    6.9359 O   0  0  0  0  0  0  0  0  0  0  0  0
   -5.1237   91.4935    5.5680 C   0  0  2  0  0  0  0  0  0  0  0  0
   -3.9869   91.5839    4.7025 O   0  0  0  0  0  0  0  0  0  0  0  0
   -5.0258   92.5478    6.6759 C   0  0  1  0  0  0  0  0  0  0  0  0
   -3.8368   92.3285    7.4575 O   0  0  0  0  0  0  0  0  0  0  0  0
   -5.0154   93.9676    6.1030 C   0  0  0  0  0  0  0  0  0  0  0  0
   -2.7226   89.9280    6.2712 N   0  0  0  0  0  0  0  0  0  0  0  0
  1  2  1  1  0  0  0
  1  3  1  0  0  0  0
  1 10  1  0  0  0  0
  3  4  1  6  0  0  0
  3  5  1  0  0  0  0
  5  6  1  1  0  0  0
  5  7  1  0  0  0  0
  7  8  1  1  0  0  0
  7  9  1  0  0  0  0
  9 10  1  0  0  0  0
  9 11  1  1  0  0  0
 11 12  1  0  0  0  0
 13 14  1  6  0  0  0
 13 15  1  0  0  0  0
 13 21  1  0  0  0  0
 16 15  1  0  0  0  0
 16 17  1  1  0  0  0
 18  2  1  1  0  0  0
 18 16  1  0  0  0  0
 19 18  1  0  0  0  0
 19 20  1  6  0  0  0
 21 19  1  0  0  0  0
 21 22  1  6  0  0  0
 23 20  1  1  0  0  0
 23 24  1  0  0  0  0
 23 28  1  0  0  0  0
 24 25  1  6  0  0  0
 24 26  1  0  0  0  0
 26 27  1  0  0  0  0
 26 32  1  6  0  0  0
 27 28  1  0  0  0  0
 27 29  1  1  0  0  0
 29 30  1  0  0  0  0
 31 32  1  6  0  0  0
 31 40  1  0  0  0  0
 33 31  1  0  0  0  0
 33 42  1  6  0  0  0
 35 33  1  0  0  0  0
 35 36  1  1  0  0  0
 37 35  1  0  0  0  0
 37 38  1  6  0  0  0
 37 39  1  0  0  0  0
 39 40  1  0  0  0  0
 39 41  1  6  0  0  0
 41 34  1  0  0  0  0
M  END
>  <CHROM.1>
-175.16155114,-73.46791364,-161.29119238,145.31474052,-76.28344254,155.91916890
-61.02872729,175.03860204,170.28859119,-1.14472012,91.97822723,11.21470430
0.87588165,0.60133088,2.07042271

>  <Name>
2fcy_lig

>  <RI>
4.13508e+07

>  <Rbt.Current_Directory>
/home/itssahil/PROJECTS/Mol_Feturizer/New_Systems/rnas/2fcy

>  <Rbt.Executable>
rbdock ($Id: //depot/dev/client3/rdock/2013.1/src/exe/rbdock.cxx#4 $)

>  <Rbt.Library>
libRbt.so (2013.1, Build901 2013/11/27)

>  <Rbt.Parameter_File>
/export/apps/rDock/src/rDock_2013.1_src/data/scripts/dock_solv.prm

>  <Rbt.Receptor>
prm/pocket_docking_3.prm

>  <SCORE>
-14.8473

>  <SCORE.INTER>
-13.4358

>  <SCORE.INTER.CONST>
1

>  <SCORE.INTER.POLAR>
-1.31727

>  <SCORE.INTER.ROT>
9

>  <SCORE.INTER.SOLV>
15.2477

>  <SCORE.INTER.VDW>
-19.2488

>  <SCORE.INTER.norm>
-0.319899

>  <SCORE.INTRA>
-1.41153

>  <SCORE.INTRA.DIHEDRAL>
-6.01976

>  <SCORE.INTRA.DIHEDRAL.0>
17.3446

>  <SCORE.INTRA.POLAR>
0

>  <SCORE.INTRA.POLAR.0>
0

>  <SCORE.INTRA.REPUL>
0

>  <SCORE.INTRA.REPUL.0>
0

>  <SCORE.INTRA.SOLV>
-0.297878

>  <SCORE.INTRA.SOLV.lig_0>
-112.452

>  <SCORE.INTRA.VDW>
1.74729

>  <SCORE.INTRA.VDW.0>
-5.95059

>  <SCORE.INTRA.norm>
-0.0336078

>  <SCORE.RESTR>
0

>  <SCORE.RESTR.CAVITY>
0

>  <SCORE.RESTR.norm>
0

>  <SCORE.SYSTEM>
0

>  <SCORE.SYSTEM.CONST>
0

>  <SCORE.SYSTEM.DIHEDRAL>
0

>  <SCORE.SYSTEM.SOLV>
0

>  <SCORE.SYSTEM.norm>
0

>  <SCORE.heavy>
42

>  <SCORE.norm>
-0.353507

>  <RMSD>
2.348

$$$$
2fcy_lig
 OpenBabel11021811433D
libRbt.so/2013.1/901 2013/11/27
 42 45  0  0  0  0  0  0  0  0999 V2000
    1.3140   92.9521   15.1111 C   0  0  2  0  0  0  0  0  0  0  0  0
    1.9786   92.2389   14.0543 O   0  0  0  0  0  0  0  0  0  0  0  0
    1.8757   92.3719   16.4100 C   0  0  2  0  0  0  0  0  0  0  0  0
    3.3409   92.4767   16.3778 N   0  0  0  0  0  0  0  0  0  0  0  0
    1.4735   90.8998   16.5295 C   0  0  1  0  0  0  0  0  0  0  0  0
    1.9846   90.3357   17.7404 O   0  0  0  0  0  0  0  0  0  0  0  0
   -0.0507   90.7858   16.4871 C   0  0  2  0  0  0  0  0  0  0  0  0
   -0.4197   89.4069   16.5012 O   0  0  0  0  0  0  0  0  0  0  0  0
   -0.5543   91.3993   15.1797 C   0  0  2  0  0  0  0  0  0  0  0  0
   -0.1159   92.7639   15.0897 O   0  0  0  0  0  0  0  0  0  0  0  0
   -2.0812   91.2999   15.1303 C   0  0  0  0  0  0  0  0  0  0  0  0
   -2.6100   91.9250   13.9087 N   0  0  0  0  0  0  0  0  0  0  0  0
    1.8798   95.5791   11.5087 C   0  0  2  0  0  0  0  0  0  0  0  0
    2.0321   96.6019   10.4630 N   0  0  0  0  0  0  0  0  0  0  0  0
    3.2312   95.2452   12.1436 C   0  0  0  0  0  0  0  0  0  0  0  0
    2.9907   94.2790   13.3080 C   0  0  2  0  0  0  0  0  0  0  0  0
    4.2838   93.8752   13.8787 N   0  0  0  0  0  0  0  0  0  0  0  0
    2.2557   93.0085   12.8708 C   0  0  2  0  0  0  0  0  0  0  0  0
    1.0146   93.2522   12.0196 C   0  0  2  0  0  0  0  0  0  0  0  0
    0.7142   91.9885   11.4057 O   0  0  0  0  0  0  0  0  0  0  0  0
    1.2677   94.3016   10.9290 C   0  0  1  0  0  0  0  0  0  0  0  0
    0.0482   94.6587   10.2730 O   0  0  0  0  0  0  0  0  0  0  0  0
   -0.1159   92.0462   10.2344 C   0  0  1  0  0  0  0  0  0  0  0  0
   -0.1796   90.6367    9.6436 C   0  0  2  0  0  0  0  0  0  0  0  0
    0.9651   90.4092    8.8181 O   0  0  0  0  0  0  0  0  0  0  0  0
   -1.4159   90.8064    8.7656 C   0  0  1  0  0  0  0  0  0  0  0  0
   -2.3433   91.5246    9.7332 C   0  0  2  0  0  0  0  0  0  0  0  0
   -1.4896   92.3800   10.5206 O   0  0  0  0  0  0  0  0  0  0  0  0
   -3.0658   90.4861   10.5990 C   0  0  0  0  0  0  0  0  0  0  0  0
   -2.1588   89.8909   11.5314 O   0  0  0  0  0  0  0  0  0  0  0  0
   -2.1734   91.5934    6.6906 C   0  0  2  0  0  0  0  0  0  0  0  0
   -1.1090   91.6603    7.6519 O   0  0  0  0  0  0  0  0  0  0  0  0
   -1.7421   92.2955    5.3990 C   0  0  1  0  0  0  0  0  0  0  0  0
   -5.4872   94.0852    7.4775 N   0  0  0  0  0  0  0  0  0  0  0  0
   -2.8993   92.3253    4.3948 C   0  0  1  0  0  0  0  0  0  0  0  0
   -3.1875   91.0027    3.9301 O   0  0  0  0  0  0  0  0  0  0  0  0
   -4.1430   92.9272    5.0545 C   0  0  2  0  0  0  0  0  0  0  0  0
   -3.8766   94.2995    5.3629 O   0  0  0  0  0  0  0  0  0  0  0  0
   -4.4688   92.1541    6.3369 C   0  0  1  0  0  0  0  0  0  0  0  0
   -3.3499   92.2111    7.2411 O   0  0  0  0  0  0  0  0  0  0  0  0
   -5.7204   92.7059    7.0248 C   0  0  0  0  0  0  0  0  0  0  0  0
   -1.3680   93.6816    5.7178 N   0  0  0  0  0  0  0  0  0  0  0  0
  1  2  1  6  0  0  0
  1  3  1  0  0  0  0
  1 10  1  0  0  0  0
  3  4  1  6  0  0  0
  3  5  1  0  0  0  0
  5  6  1  1  0  0  0
  5  7  1  0  0  0  0
  7  8  1  6  0  0  0
  7  9  1  0  0  0  0
  9 10  1  0  0  0  0
  9 11  1  1  0  0  0
 11 12  1  0  0  0  0
 13 14  1  6  0  0  0
 13 15  1  0  0  0  0
 13 21  1  0  0  0  0
 16 15  1  0  0  0  0
 16 17  1  6  0  0  0
 18  2  1  1  0  0  0
 18 16  1  0  0  0  0
 19 18  1  0  0  0  0
 19 20  1  6  0  0  0
 21 19  1  0  0  0  0
 21 22  1  1  0  0  0
 23 20  1  1  0  0  0
 23 24  1  0  0  0  0
 23 28  1  0  0  0  0
 24 25  1  6  0  0  0
 24 26  1  0  0  0  0
 26 27  1  0  0  0  0
 26 32  1  6  0  0  0
 27 28  1  0  0  0  0
 27 29  1  1  0  0  0
 29 30  1  0  0  0  0
 31 32  1  1  0  0  0
 31 40  1  0  0  0  0
 33 31  1  0  0  0  0
 33 42  1  1  0  0  0
 35 33  1  0  0  0  0
 35 36  1  1  0  0  0
 37 35  1  0  0  0  0
 37 38  1  1  0  0  0
 37 39  1  0  0  0  0
 39 40  1  0  0  0  0
 39 41  1  1  0  0  0
 41 34  1  0  0  0  0
M  END
>  <CHROM.1>
-145.37140454,177.89540226,52.15381177,-159.98793345,173.41491779,168.04782029
71.33247197,-169.86589986,-64.39830133,-0.57596465,92.37339625,10.93433102
-0.98087656,-0.61049156,-1.16753485

>  <Name>
2fcy_lig

>  <RI>
0

>  <Rbt.Current_Directory>
/home/itssahil/PROJECTS/Mol_Feturizer/New_Systems/rnas/2fcy

>  <Rbt.Executable>
rbdock ($Id: //depot/dev/client3/rdock/2013.1/src/exe/rbdock.cxx#4 $)

>  <Rbt.Library>
libRbt.so (2013.1, Build901 2013/11/27)

>  <Rbt.Parameter_File>
/export/apps/rDock/src/rDock_2013.1_src/data/scripts/dock_solv.prm

>  <Rbt.Receptor>
prm/pocket_docking_2.prm

>  <SCORE>
1.23936

>  <SCORE.INTER>
-2.58663

>  <SCORE.INTER.CONST>
1

>  <SCORE.INTER.POLAR>
-0.564717

>  <SCORE.INTER.ROT>
9

>  <SCORE.INTER.SOLV>
14.5753

>  <SCORE.INTER.VDW>
-14.3005

>  <SCORE.INTER.norm>
-0.0615864

>  <SCORE.INTRA>
2.54908

>  <SCORE.INTRA.DIHEDRAL>
-8.29389

>  <SCORE.INTRA.DIHEDRAL.0>
17.3446

>  <SCORE.INTRA.POLAR>
0

>  <SCORE.INTRA.POLAR.0>
0

>  <SCORE.INTRA.REPUL>
0.134535

>  <SCORE.INTRA.REPUL.0>
0

>  <SCORE.INTRA.SOLV>
2.3931

>  <SCORE.INTRA.SOLV.lig_0>
-112.452

>  <SCORE.INTRA.VDW>
4.8268

>  <SCORE.INTRA.VDW.0>
-5.95059

>  <SCORE.INTRA.norm>
0.0606923

>  <SCORE.RESTR>
1.27691

>  <SCORE.RESTR.CAVITY>
1.27691

>  <SCORE.RESTR.norm>
0.0304027

>  <SCORE.SYSTEM>
0

>  <SCORE.SYSTEM.CONST>
0

>  <SCORE.SYSTEM.DIHEDRAL>
0

>  <SCORE.SYSTEM.SOLV>
0

>  <SCORE.SYSTEM.norm>
0

>  <SCORE.heavy>
42

>  <SCORE.norm>
0.0295086

>  <RMSD>
2.362

$$$$
2fcy_lig
 OpenBabel11021811433D
libRbt.so/2013.1/901 2013/11/27
 42 45  0  0  0  0  0  0  0  0999 V2000
   -0.2003   91.0132   14.0478 C   0  0  2  0  0  0  0  0  0  0  0  0
    0.3642   92.3157   14.2758 O   0  0  0  0  0  0  0  0  0  0  0  0
   -1.4599   90.9580   14.9135 C   0  0  2  0  0  0  0  0  0  0  0  0
   -2.3148   92.1041   14.5750 N   0  0  0  0  0  0  0  0  0  0  0  0
   -1.0692   91.0337   16.3916 C   0  0  1  0  0  0  0  0  0  0  0  0
   -2.2322   90.9795   17.2224 O   0  0  0  0  0  0  0  0  0  0  0  0
   -0.1191   89.8829   16.7243 C   0  0  2  0  0  0  0  0  0  0  0  0
    0.3196   90.0112   18.0766 O   0  0  0  0  0  0  0  0  0  0  0  0
    1.1074   89.9783   15.8155 C   0  0  2  0  0  0  0  0  0  0  0  0
    0.6902   89.9491   14.4416 O   0  0  0  0  0  0  0  0  0  0  0  0
    2.0622   88.8244   16.1328 C   0  0  0  0  0  0  0  0  0  0  0  0
    2.8143   89.0883   17.3686 N   0  0  0  0  0  0  0  0  0  0  0  0
    2.6458   94.7671   11.7397 C   0  0  2  0  0  0  0  0  0  0  0  0
    3.6372   95.4183   10.8702 N   0  0  0  0  0  0  0  0  0  0  0  0
    3.2445   94.4635   13.1146 C   0  0  0  0  0  0  0  0  0  0  0  0
    2.1329   93.9112   14.0126 C   0  0  2  0  0  0  0  0  0  0  0  0
    2.7035   93.5301   15.3126 N   0  0  0  0  0  0  0  0  0  0  0  0
    1.4612   92.6712   13.4156 C   0  0  2  0  0  0  0  0  0  0  0  0
    1.0460   92.8131   11.9555 C   0  0  2  0  0  0  0  0  0  0  0  0
    0.8139   91.4742   11.4890 O   0  0  0  0  0  0  0  0  0  0  0  0
    2.1484   93.4639   11.1095 C   0  0  1  0  0  0  0  0  0  0  0  0
    1.6704   93.7671    9.7961 O   0  0  0  0  0  0  0  0  0  0  0  0
    0.0136   91.3578   10.3015 C   0  0  1  0  0  0  0  0  0  0  0  0
    0.2248   89.9515    9.7383 C   0  0  2  0  0  0  0  0  0  0  0  0
    1.4099   89.9265    8.9390 O   0  0  0  0  0  0  0  0  0  0  0  0
   -1.0018   89.8746    8.8339 C   0  0  1  0  0  0  0  0  0  0  0  0
   -2.0672   90.4243    9.7693 C   0  0  2  0  0  0  0  0  0  0  0  0
   -1.4041   91.4359   10.5551 O   0  0  0  0  0  0  0  0  0  0  0  0
   -2.6042   89.2842   10.6423 C   0  0  0  0  0  0  0  0  0  0  0  0
   -3.2632   88.3025    9.8371 O   0  0  0  0  0  0  0  0  0  0  0  0
   -2.0045   90.6968    6.8802 C   0  0  2  0  0  0  0  0  0  0  0  0
   -0.8335   90.7521    7.7092 O   0  0  0  0  0  0  0  0  0  0  0  0
   -2.0519   89.3509    6.1497 C   0  0  1  0  0  0  0  0  0  0  0  0
   -4.3973   93.2146    3.5119 N   0  0  0  0  0  0  0  0  0  0  0  0
   -3.2391   89.3098    5.1815 C   0  0  1  0  0  0  0  0  0  0  0  0
   -4.4720   89.2952    5.9082 O   0  0  0  0  0  0  0  0  0  0  0  0
   -3.1958   90.5285    4.2556 C   0  0  2  0  0  0  0  0  0  0  0  0
   -2.0316   90.4312    3.4282 O   0  0  0  0  0  0  0  0  0  0  0  0
   -3.1382   91.8091    5.0953 C   0  0  1  0  0  0  0  0  0  0  0  0
   -1.9747   91.7875    5.9430 O   0  0  0  0  0  0  0  0  0  0  0  0
   -3.1143   93.0604    4.2132 C   0  0  0  0  0  0  0  0  0  0  0  0
   -0.8133   89.1920    5.3727 N   0  0  0  0  0  0  0  0  0  0  0  0
  1  2  1  1  0  0  0
  1  3  1  0  0  0  0
  1 10  1  0  0  0  0
  3  4  1  6  0  0  0
  3  5  1  0  0  0  0
  5  6  1  1  0  0  0
  5  7  1  0  0  0  0
  7  8  1  1  0  0  0
  7  9  1  0  0  0  0
  9 10  1  0  0  0  0
  9 11  1  6  0  0  0
 11 12  1  0  0  0  0
 13 14  1  6  0  0  0
 13 15  1  0  0  0  0
 13 21  1  0  0  0  0
 16 15  1  0  0  0  0
 16 17  1  1  0  0  0
 18  2  1  1  0  0  0
 18 16  1  0  0  0  0
 19 18  1  0  0  0  0
 19 20  1  6  0  0  0
 21 19  1  0  0  0  0
 21 22  1  6  0  0  0
 23 20  1  1  0  0  0
 23 24  1  0  0  0  0
 23 28  1  0  0  0  0
 24 25  1  6  0  0  0
 24 26  1  0  0  0  0
 26 27  1  0  0  0  0
 26 32  1  6  0  0  0
 27 28  1  0  0  0  0
 27 29  1  1  0  0  0
 29 30  1  0  0  0  0
 31 32  1  6  0  0  0
 31 40  1  0  0  0  0
 33 31  1  0  0  0  0
 33 42  1  6  0  0  0
 35 33  1  0  0  0  0
 35 36  1  1  0  0  0
 37 35  1  0  0  0  0
 37 38  1  6  0  0  0
 37 39  1  0  0  0  0
 39 40  1  0  0  0  0
 39 41  1  6  0  0  0
 41 34  1  0  0  0  0
M  END
>  <CHROM.1>
-171.45147059,-77.15171416,-166.69669465,160.73223924,163.39170309,-178.68835878
-64.11614334,-71.74757527,67.47781630,-0.45704425,91.22818855,10.82333886
1.09478742,0.77313149,1.86555995

>  <Name>
2fcy_lig

>  <RI>
2.89127e+07

>  <Rbt.Current_Directory>
/home/itssahil/PROJECTS/Mol_Feturizer/New_Systems/rnas/2fcy

>  <Rbt.Executable>
rbdock ($Id: //depot/dev/client3/rdock/2013.1/src/exe/rbdock.cxx#4 $)

>  <Rbt.Library>
libRbt.so (2013.1, Build901 2013/11/27)

>  <Rbt.Parameter_File>
/export/apps/rDock/src/rDock_2013.1_src/data/scripts/dock_solv.prm

>  <Rbt.Receptor>
prm/pocket_docking_7.prm

>  <SCORE>
-23.6082

>  <SCORE.INTER>
-18.4957

>  <SCORE.INTER.CONST>
1

>  <SCORE.INTER.POLAR>
-1.62663

>  <SCORE.INTER.ROT>
9

>  <SCORE.INTER.SOLV>
18.0802

>  <SCORE.INTER.VDW>
-22.5351

>  <SCORE.INTER.norm>
-0.440374

>  <SCORE.INTRA>
-5.11251

>  <SCORE.INTRA.DIHEDRAL>
-10.6813

>  <SCORE.INTRA.DIHEDRAL.0>
17.3446

>  <SCORE.INTRA.POLAR>
0

>  <SCORE.INTRA.POLAR.0>
0

>  <SCORE.INTRA.REPUL>
0

>  <SCORE.INTRA.REPUL.0>
0

>  <SCORE.INTRA.SOLV>
-4.12956

>  <SCORE.INTRA.SOLV.lig_0>
-112.452

>  <SCORE.INTRA.VDW>
2.29292

>  <SCORE.INTRA.VDW.0>
-5.95059

>  <SCORE.INTRA.norm>
-0.121727

>  <SCORE.RESTR>
0

>  <SCORE.RESTR.CAVITY>
0

>  <SCORE.RESTR.norm>
0

>  <SCORE.SYSTEM>
0

>  <SCORE.SYSTEM.CONST>
0

>  <SCORE.SYSTEM.DIHEDRAL>
0

>  <SCORE.SYSTEM.SOLV>
0

>  <SCORE.SYSTEM.norm>
0

>  <SCORE.heavy>
42

>  <SCORE.norm>
-0.5621

>  <RMSD>
2.404

$$$$
2fcy_lig
 OpenBabel11021811433D
libRbt.so/2013.1/901 2013/11/27
 42 45  0  0  0  0  0  0  0  0999 V2000
    0.3396   91.0399   14.3291 C   0  0  2  0  0  0  0  0  0  0  0  0
    0.7489   92.3390   14.7895 O   0  0  0  0  0  0  0  0  0  0  0  0
   -1.0721   90.8380   14.8818 C   0  0  2  0  0  0  0  0  0  0  0  0
   -1.9094   91.9694   14.4603 N   0  0  0  0  0  0  0  0  0  0  0  0
   -1.0208   90.7850   16.4108 C   0  0  1  0  0  0  0  0  0  0  0  0
   -2.3308   90.5922   16.9514 O   0  0  0  0  0  0  0  0  0  0  0  0
   -0.0892   89.6540   16.8477 C   0  0  2  0  0  0  0  0  0  0  0  0
    0.0328   89.6680   18.2699 O   0  0  0  0  0  0  0  0  0  0  0  0
    1.2969   89.8985   16.2492 C   0  0  2  0  0  0  0  0  0  0  0  0
    1.1937   89.9862   14.8195 O   0  0  0  0  0  0  0  0  0  0  0  0
    2.2366   88.7662   16.6719 C   0  0  0  0  0  0  0  0  0  0  0  0
    2.5983   88.8852   18.0924 N   0  0  0  0  0  0  0  0  0  0  0  0
    3.2723   95.2032   13.0359 C   0  0  2  0  0  0  0  0  0  0  0  0
    4.3553   96.0066   12.4488 N   0  0  0  0  0  0  0  0  0  0  0  0
    3.6409   94.7425   14.4475 C   0  0  0  0  0  0  0  0  0  0  0  0
    2.4283   94.0282   15.0530 C   0  0  2  0  0  0  0  0  0  0  0  0
    2.7875   93.4996   16.3768 N   0  0  0  0  0  0  0  0  0  0  0  0
    1.9533   92.8528   14.1937 C   0  0  2  0  0  0  0  0  0  0  0  0
    1.7904   93.1726   12.7120 C   0  0  2  0  0  0  0  0  0  0  0  0
    1.7311   91.9002   12.0474 O   0  0  0  0  0  0  0  0  0  0  0  0
    2.9784   93.9772   12.1679 C   0  0  1  0  0  0  0  0  0  0  0  0
    2.7177   94.4342   10.8382 O   0  0  0  0  0  0  0  0  0  0  0  0
    0.4534   91.5445   11.4951 C   0  0  1  0  0  0  0  0  0  0  0  0
    0.3168   92.2591   10.1496 C   0  0  2  0  0  0  0  0  0  0  0  0
   -0.1485   93.5945   10.3594 O   0  0  0  0  0  0  0  0  0  0  0  0
   -0.8051   91.4166    9.5497 C   0  0  1  0  0  0  0  0  0  0  0  0
   -0.3115   90.0194    9.8908 C   0  0  2  0  0  0  0  0  0  0  0  0
    0.3376   90.1434   11.1730 O   0  0  0  0  0  0  0  0  0  0  0  0
    0.6607   89.5516    8.8017 C   0  0  0  0  0  0  0  0  0  0  0  0
    1.6528   88.6814    9.3539 O   0  0  0  0  0  0  0  0  0  0  0  0
   -2.6785   92.8237    9.6424 C   0  0  2  0  0  0  0  0  0  0  0  0
   -2.0372   91.6853   10.2375 O   0  0  0  0  0  0  0  0  0  0  0  0
   -3.9206   93.1967   10.4581 C   0  0  1  0  0  0  0  0  0  0  0  0
   -4.4719   94.4303    5.4347 N   0  0  0  0  0  0  0  0  0  0  0  0
   -4.6778   94.3457    9.7838 C   0  0  1  0  0  0  0  0  0  0  0  0
   -3.9094   95.5515    9.8475 O   0  0  0  0  0  0  0  0  0  0  0  0
   -4.9665   93.9898    8.3228 C   0  0  2  0  0  0  0  0  0  0  0  0
   -5.8670   92.8773    8.2941 O   0  0  0  0  0  0  0  0  0  0  0  0
   -3.6572   93.6245    7.6152 C   0  0  1  0  0  0  0  0  0  0  0  0
   -3.0326   92.5126    8.2834 O   0  0  0  0  0  0  0  0  0  0  0  0
   -3.8905   93.2797    6.1418 C   0  0  0  0  0  0  0  0  0  0  0  0
   -4.8112   92.0280   10.5223 N   0  0  0  0  0  0  0  0  0  0  0  0
  1  2  1  1  0  0  0
  1  3  1  0  0  0  0
  1 10  1  0  0  0  0
  3  4  1  1  0  0  0
  3  5  1  0  0  0  0
  5  6  1  1  0  0  0
  5  7  1  0  0  0  0
  7  8  1  1  0  0  0
  7  9  1  0  0  0  0
  9 10  1  0  0  0  0
  9 11  1  6  0  0  0
 11 12  1  0  0  0  0
 13 14  1  6  0  0  0
 13 15  1  0  0  0  0
 13 21  1  0  0  0  0
 16 15  1  0  0  0  0
 16 17  1  1  0  0  0
 18  2  1  1  0  0  0
 18 16  1  0  0  0  0
 19 18  1  0  0  0  0
 19 20  1  6  0  0  0
 21 19  1  0  0  0  0
 21 22  1  6  0  0  0
 23 20  1  6  0  0  0
 23 24  1  0  0  0  0
 23 28  1  0  0  0  0
 24 25  1  1  0  0  0
 24 26  1  0  0  0  0
 26 27  1  0  0  0  0
 26 32  1  1  0  0  0
 27 28  1  0  0  0  0
 27 29  1  6  0  0  0
 29 30  1  0  0  0  0
 31 32  1  1  0  0  0
 31 40  1  0  0  0  0
 33 31  1  0  0  0  0
 33 42  1  6  0  0  0
 35 33  1  0  0  0  0
 35 36  1  6  0  0  0
 37 35  1  0  0  0  0
 37 38  1  1  0  0  0
 37 39  1  0  0  0  0
 39 40  1  0  0  0  0
 39 41  1  6  0  0  0
 41 34  1  0  0  0  0
M  END
>  <CHROM.1>
-169.18720246,-72.83149018,-165.02465074,110.24786595,81.01226955,86.16316907
148.67242885,-174.47106716,60.46783124,-0.39415853,92.16539774,12.16479497
0.93769352,0.38765112,2.10458078

>  <Name>
2fcy_lig

>  <RI>
1.56845e+07

>  <Rbt.Current_Directory>
/home/itssahil/PROJECTS/Mol_Feturizer/New_Systems/rnas/2fcy

>  <Rbt.Executable>
rbdock ($Id: //depot/dev/client3/rdock/2013.1/src/exe/rbdock.cxx#4 $)

>  <Rbt.Library>
libRbt.so (2013.1, Build901 2013/11/27)

>  <Rbt.Parameter_File>
/export/apps/rDock/src/rDock_2013.1_src/data/scripts/dock_solv.prm

>  <Rbt.Receptor>
prm/pocket_docking_4.prm

>  <SCORE>
-20.5182

>  <SCORE.INTER>
-21.3456

>  <SCORE.INTER.CONST>
1

>  <SCORE.INTER.POLAR>
-2.17237

>  <SCORE.INTER.ROT>
9

>  <SCORE.INTER.SOLV>
16.3648

>  <SCORE.INTER.VDW>
-22.0441

>  <SCORE.INTER.norm>
-0.508228

>  <SCORE.INTRA>
0.8138

>  <SCORE.INTRA.DIHEDRAL>
-0.319768

>  <SCORE.INTRA.DIHEDRAL.0>
17.3446

>  <SCORE.INTRA.POLAR>
0

>  <SCORE.INTRA.POLAR.0>
0

>  <SCORE.INTRA.REPUL>
0

>  <SCORE.INTRA.REPUL.0>
0

>  <SCORE.INTRA.SOLV>
-2.83996

>  <SCORE.INTRA.SOLV.lig_0>
-112.452

>  <SCORE.INTRA.VDW>
2.39366

>  <SCORE.INTRA.VDW.0>
-5.95059

>  <SCORE.INTRA.norm>
0.0193762

>  <SCORE.RESTR>
0.0135834

>  <SCORE.RESTR.CAVITY>
0.0135834

>  <SCORE.RESTR.norm>
0.000323415

>  <SCORE.SYSTEM>
0

>  <SCORE.SYSTEM.CONST>
0

>  <SCORE.SYSTEM.DIHEDRAL>
0

>  <SCORE.SYSTEM.SOLV>
0

>  <SCORE.SYSTEM.norm>
0

>  <SCORE.heavy>
42

>  <SCORE.norm>
-0.488529

>  <RMSD>
2.412

$$$$
2fcy_lig
 OpenBabel11021811433D
libRbt.so/2013.1/901 2013/11/27
 42 45  0  0  0  0  0  0  0  0999 V2000
    0.2691   91.8154   13.4645 C   0  0  2  0  0  0  0  0  0  0  0  0
    0.5272   93.2258   13.5717 O   0  0  0  0  0  0  0  0  0  0  0  0
   -0.9915   91.5678   14.2943 C   0  0  2  0  0  0  0  0  0  0  0  0
   -2.0549   92.4605   13.8135 N   0  0  0  0  0  0  0  0  0  0  0  0
   -0.7024   91.8682   15.7672 C   0  0  1  0  0  0  0  0  0  0  0  0
   -1.8673   91.6394   16.5650 O   0  0  0  0  0  0  0  0  0  0  0  0
    0.4552   90.9913   16.2455 C   0  0  2  0  0  0  0  0  0  0  0  0
    0.7862   91.3412   17.5893 O   0  0  0  0  0  0  0  0  0  0  0  0
    1.6770   91.2665   15.3678 C   0  0  2  0  0  0  0  0  0  0  0  0
    1.3467   91.0155   13.9929 O   0  0  0  0  0  0  0  0  0  0  0  0
    2.8406   90.3862   15.8313 C   0  0  0  0  0  0  0  0  0  0  0  0
    2.4662   88.9642   15.8087 N   0  0  0  0  0  0  0  0  0  0  0  0
    1.3632   96.0252   10.5532 C   0  0  2  0  0  0  0  0  0  0  0  0
    1.8975   96.8603    9.4670 N   0  0  0  0  0  0  0  0  0  0  0  0
    2.3293   95.9919   11.7391 C   0  0  0  0  0  0  0  0  0  0  0  0
    1.6619   95.2209   12.8825 C   0  0  2  0  0  0  0  0  0  0  0  0
    2.6062   95.1004   14.0028 N   0  0  0  0  0  0  0  0  0  0  0  0
    1.2451   93.8065   12.4686 C   0  0  2  0  0  0  0  0  0  0  0  0
    0.4751   93.7288   11.1550 C   0  0  2  0  0  0  0  0  0  0  0  0
    0.5259   92.3484   10.7598 O   0  0  0  0  0  0  0  0  0  0  0  0
    1.1184   94.5955   10.0644 C   0  0  1  0  0  0  0  0  0  0  0  0
    0.2792   94.6655    8.9085 O   0  0  0  0  0  0  0  0  0  0  0  0
   -0.4085   91.9571    9.7409 C   0  0  1  0  0  0  0  0  0  0  0  0
    0.3959   91.3906    8.5697 C   0  0  2  0  0  0  0  0  0  0  0  0
    0.8516   92.4600    7.7375 O   0  0  0  0  0  0  0  0  0  0  0  0
   -0.7237   90.6343    7.8606 C   0  0  1  0  0  0  0  0  0  0  0  0
   -1.3813   89.9436    9.0450 C   0  0  2  0  0  0  0  0  0  0  0  0
   -1.2740   90.8750   10.1413 O   0  0  0  0  0  0  0  0  0  0  0  0
   -0.6409   88.6329    9.3350 C   0  0  0  0  0  0  0  0  0  0  0  0
    0.6073   88.8938    9.9833 O   0  0  0  0  0  0  0  0  0  0  0  0
   -2.3828   90.9086    6.2264 C   0  0  2  0  0  0  0  0  0  0  0  0
   -1.6392   91.5664    7.2636 O   0  0  0  0  0  0  0  0  0  0  0  0
   -1.5545   90.8854    4.9378 C   0  0  1  0  0  0  0  0  0  0  0  0
   -6.8173   90.7498    4.4105 N   0  0  0  0  0  0  0  0  0  0  0  0
   -2.3685   90.2786    3.7899 C   0  0  1  0  0  0  0  0  0  0  0  0
   -2.5919   88.8843    4.0228 O   0  0  0  0  0  0  0  0  0  0  0  0
   -3.7099   91.0062    3.6642 C   0  0  2  0  0  0  0  0  0  0  0  0
   -3.4591   92.3603    3.2733 O   0  0  0  0  0  0  0  0  0  0  0  0
   -4.4391   90.9746    5.0117 C   0  0  1  0  0  0  0  0  0  0  0  0
   -3.6275   91.6002    6.0230 O   0  0  0  0  0  0  0  0  0  0  0  0
   -5.7992   91.6733    4.9325 C   0  0  0  0  0  0  0  0  0  0  0  0
   -1.2031   92.2675    4.5781 N   0  0  0  0  0  0  0  0  0  0  0  0
  1  2  1  1  0  0  0
  1  3  1  0  0  0  0
  1 10  1  0  0  0  0
  3  4  1  6  0  0  0
  3  5  1  0  0  0  0
  5  6  1  1  0  0  0
  5  7  1  0  0  0  0
  7  8  1  1  0  0  0
  7  9  1  0  0  0  0
  9 10  1  0  0  0  0
  9 11  1  1  0  0  0
 11 12  1  0  0  0  0
 13 14  1  6  0  0  0
 13 15  1  0  0  0  0
 13 21  1  0  0  0  0
 16 15  1  0  0  0  0
 16 17  1  1  0  0  0
 18  2  1  1  0  0  0
 18 16  1  0  0  0  0
 19 18  1  0  0  0  0
 19 20  1  6  0  0  0
 21 19  1  0  0  0  0
 21 22  1  6  0  0  0
 23 20  1  1  0  0  0
 23 24  1  0  0  0  0
 23 28  1  0  0  0  0
 24 25  1  6  0  0  0
 24 26  1  0  0  0  0
 26 27  1  0  0  0  0
 26 32  1  1  0  0  0
 27 28  1  0  0  0  0
 27 29  1  1  0  0  0
 29 30  1  0  0  0  0
 31 32  1  1  0  0  0
 31 40  1  0  0  0  0
 33 31  1  0  0  0  0
 33 42  1  6  0  0  0
 35 33  1  0  0  0  0
 35 36  1  1  0  0  0
 37 35  1  0  0  0  0
 37 38  1  1  0  0  0
 37 39  1  0  0  0  0
 39 40  1  0  0  0  0
 39 41  1  6  0  0  0
 41 34  1  0  0  0  0
M  END
>  <CHROM.1>
-153.38390962,56.48554956,-169.01574358,164.64060498,121.91134444,159.31955011
75.46861395,-82.48963487,83.59153484,-0.57778436,91.95379783,10.11196434
0.82178159,0.96773164,2.11156524

>  <Name>
2fcy_lig

>  <RI>
1.56845e+07

>  <Rbt.Current_Directory>
/home/itssahil/PROJECTS/Mol_Feturizer/New_Systems/rnas/2fcy

>  <Rbt.Executable>
rbdock ($Id: //depot/dev/client3/rdock/2013.1/src/exe/rbdock.cxx#4 $)

>  <Rbt.Library>
libRbt.so (2013.1, Build901 2013/11/27)

>  <Rbt.Parameter_File>
/export/apps/rDock/src/rDock_2013.1_src/data/scripts/dock_solv.prm

>  <Rbt.Receptor>
prm/pocket_docking_4.prm

>  <SCORE>
-10.8315

>  <SCORE.INTER>
-12.9037

>  <SCORE.INTER.CONST>
1

>  <SCORE.INTER.POLAR>
-2.50023

>  <SCORE.INTER.ROT>
9

>  <SCORE.INTER.SOLV>
17.8395

>  <SCORE.INTER.VDW>
-15.8149

>  <SCORE.INTER.norm>
-0.307231

>  <SCORE.INTRA>
2.0565

>  <SCORE.INTRA.DIHEDRAL>
1.49028

>  <SCORE.INTRA.DIHEDRAL.0>
17.3446

>  <SCORE.INTRA.POLAR>
0

>  <SCORE.INTRA.POLAR.0>
0

>  <SCORE.INTRA.REPUL>
0.0633926

>  <SCORE.INTRA.REPUL.0>
0

>  <SCORE.INTRA.SOLV>
-2.24966

>  <SCORE.INTRA.SOLV.lig_0>
-112.452

>  <SCORE.INTRA.VDW>
2.11923

>  <SCORE.INTRA.VDW.0>
-5.95059

>  <SCORE.INTRA.norm>
0.0489644

>  <SCORE.RESTR>
0.0157278

>  <SCORE.RESTR.CAVITY>
0.0157278

>  <SCORE.RESTR.norm>
0.000374471

>  <SCORE.SYSTEM>
0

>  <SCORE.SYSTEM.CONST>
0

>  <SCORE.SYSTEM.DIHEDRAL>
0

>  <SCORE.SYSTEM.SOLV>
0

>  <SCORE.SYSTEM.norm>
0

>  <SCORE.heavy>
42

>  <SCORE.norm>
-0.257892

>  <RMSD>
2.415

$$$$
2fcy_lig
 OpenBabel11021811433D
libRbt.so/2013.1/901 2013/11/27
 42 45  0  0  0  0  0  0  0  0999 V2000
   -0.2146   90.7938   13.9555 C   0  0  2  0  0  0  0  0  0  0  0  0
    0.4168   92.0855   13.9711 O   0  0  0  0  0  0  0  0  0  0  0  0
   -1.5543   90.9868   14.6676 C   0  0  2  0  0  0  0  0  0  0  0  0
   -2.2869   92.0752   14.0062 N   0  0  0  0  0  0  0  0  0  0  0  0
   -1.3072   91.3563   16.1324 C   0  0  1  0  0  0  0  0  0  0  0  0
   -2.5475   91.5380   16.8211 O   0  0  0  0  0  0  0  0  0  0  0  0
   -0.4798   90.2573   16.7998 C   0  0  2  0  0  0  0  0  0  0  0  0
   -0.1689   90.6490   18.1368 O   0  0  0  0  0  0  0  0  0  0  0  0
    0.8341   90.0961   16.0339 C   0  0  2  0  0  0  0  0  0  0  0  0
    0.5539   89.7954   14.6578 O   0  0  0  0  0  0  0  0  0  0  0  0
    1.6674   88.9905   16.6874 C   0  0  0  0  0  0  0  0  0  0  0  0
    3.0714   89.0651   16.2562 N   0  0  0  0  0  0  0  0  0  0  0  0
    1.5447   94.6807   10.8663 C   0  0  2  0  0  0  0  0  0  0  0  0
    2.1019   95.3730    9.6946 N   0  0  0  0  0  0  0  0  0  0  0  0
    2.6605   94.2107   11.8017 C   0  0  0  0  0  0  0  0  0  0  0  0
    2.0171   93.6191   13.0599 C   0  0  2  0  0  0  0  0  0  0  0  0
    3.0682   93.0812   13.9356 N   0  0  0  0  0  0  0  0  0  0  0  0
    1.0471   92.4783   12.7390 C   0  0  2  0  0  0  0  0  0  0  0  0
    0.0436   92.7881   11.6338 C   0  0  2  0  0  0  0  0  0  0  0  0
   -0.4846   91.5160   11.2253 O   0  0  0  0  0  0  0  0  0  0  0  0
    0.7103   93.4728   10.4332 C   0  0  1  0  0  0  0  0  0  0  0  0
   -0.2706   93.9305    9.4986 O   0  0  0  0  0  0  0  0  0  0  0  0
   -1.5814   91.5651   10.2985 C   0  0  1  0  0  0  0  0  0  0  0  0
   -1.7669   90.1582    9.7277 C   0  0  2  0  0  0  0  0  0  0  0  0
   -0.8606   89.9570    8.6405 O   0  0  0  0  0  0  0  0  0  0  0  0
   -3.1858   90.3099    9.1872 C   0  0  1  0  0  0  0  0  0  0  0  0
   -3.8545   91.0050   10.3628 C   0  0  2  0  0  0  0  0  0  0  0  0
   -2.8456   91.8715   10.9215 O   0  0  0  0  0  0  0  0  0  0  0  0
   -4.3209   89.9480   11.3705 C   0  0  0  0  0  0  0  0  0  0  0  0
   -5.0094   90.5644   12.4625 O   0  0  0  0  0  0  0  0  0  0  0  0
   -4.5043   91.2474    7.4897 C   0  0  2  0  0  0  0  0  0  0  0  0
   -3.1805   91.1759    8.0411 O   0  0  0  0  0  0  0  0  0  0  0  0
   -4.7734   90.0013    6.6400 C   0  0  1  0  0  0  0  0  0  0  0  0
   -5.8409   95.0428    6.3690 N   0  0  0  0  0  0  0  0  0  0  0  0
   -6.1424   90.1041    5.9590 C   0  0  1  0  0  0  0  0  0  0  0  0
   -7.1882   90.0290    6.9331 O   0  0  0  0  0  0  0  0  0  0  0  0
   -6.2415   91.4247    5.1906 C   0  0  2  0  0  0  0  0  0  0  0  0
   -5.2898   91.4025    4.1213 O   0  0  0  0  0  0  0  0  0  0  0  0
   -5.9421   92.5926    6.1364 C   0  0  1  0  0  0  0  0  0  0  0  0
   -4.6253   92.4427    6.6988 O   0  0  0  0  0  0  0  0  0  0  0  0
   -6.0491   93.9407    5.4184 C   0  0  0  0  0  0  0  0  0  0  0  0
   -3.7412   89.9102    5.5963 N   0  0  0  0  0  0  0  0  0  0  0  0
  1  2  1  1  0  0  0
  1  3  1  0  0  0  0
  1 10  1  0  0  0  0
  3  4  1  6  0  0  0
  3  5  1  0  0  0  0
  5  6  1  1  0  0  0
  5  7  1  0  0  0  0
  7  8  1  1  0  0  0
  7  9  1  0  0  0  0
  9 10  1  0  0  0  0
  9 11  1  1  0  0  0
 11 12  1  0  0  0  0
 13 14  1  6  0  0  0
 13 15  1  0  0  0  0
 13 21  1  0  0  0  0
 16 15  1  0  0  0  0
 16 17  1  1  0  0  0
 18  2  1  1  0  0  0
 18 16  1  0  0  0  0
 19 18  1  0  0  0  0
 19 20  1  6  0  0  0
 21 19  1  0  0  0  0
 21 22  1  6  0  0  0
 23 20  1  1  0  0  0
 23 24  1  0  0  0  0
 23 28  1  0  0  0  0
 24 25  1  6  0  0  0
 24 26  1  0  0  0  0
 26 27  1  0  0  0  0
 26 32  1  6  0  0  0
 27 28  1  0  0  0  0
 27 29  1  1  0  0  0
 29 30  1  0  0  0  0
 31 32  1  6  0  0  0
 31 40  1  0  0  0  0
 33 31  1  0  0  0  0
 33 42  1  6  0  0  0
 35 33  1  0  0  0  0
 35 36  1  1  0  0  0
 37 35  1  0  0  0  0
 37 38  1  6  0  0  0
 37 39  1  0  0  0  0
 39 40  1  0  0  0  0
 39 41  1  6  0  0  0
 41 34  1  0  0  0  0
M  END
>  <CHROM.1>
-136.70939298,-163.14630498,-162.23782745,172.54172442,166.19712508,176.46384739
-177.38475200,-79.63806159,176.42376014,-1.84682665,91.59740545,10.96649880
0.88009768,0.51585165,2.00234911

>  <Name>
2fcy_lig

>  <RI>
4.13508e+07

>  <Rbt.Current_Directory>
/home/itssahil/PROJECTS/Mol_Feturizer/New_Systems/rnas/2fcy

>  <Rbt.Executable>
rbdock ($Id: //depot/dev/client3/rdock/2013.1/src/exe/rbdock.cxx#4 $)

>  <Rbt.Library>
libRbt.so (2013.1, Build901 2013/11/27)

>  <Rbt.Parameter_File>
/export/apps/rDock/src/rDock_2013.1_src/data/scripts/dock_solv.prm

>  <Rbt.Receptor>
prm/pocket_docking_3.prm

>  <SCORE>
-17.0444

>  <SCORE.INTER>
-14.8774

>  <SCORE.INTER.CONST>
1

>  <SCORE.INTER.POLAR>
-1.49596

>  <SCORE.INTER.ROT>
9

>  <SCORE.INTER.SOLV>
19.4078

>  <SCORE.INTER.VDW>
-21.001

>  <SCORE.INTER.norm>
-0.354224

>  <SCORE.INTRA>
-2.16696

>  <SCORE.INTRA.DIHEDRAL>
-5.42

>  <SCORE.INTRA.DIHEDRAL.0>
17.3446

>  <SCORE.INTRA.POLAR>
0

>  <SCORE.INTRA.POLAR.0>
0

>  <SCORE.INTRA.REPUL>
0

>  <SCORE.INTRA.REPUL.0>
0

>  <SCORE.INTRA.SOLV>
-2.57387

>  <SCORE.INTRA.SOLV.lig_0>
-112.452

>  <SCORE.INTRA.VDW>
1.82998

>  <SCORE.INTRA.VDW.0>
-5.95059

>  <SCORE.INTRA.norm>
-0.0515942

>  <SCORE.RESTR>
0

>  <SCORE.RESTR.CAVITY>
0

>  <SCORE.RESTR.norm>
0

>  <SCORE.SYSTEM>
0

>  <SCORE.SYSTEM.CONST>
0

>  <SCORE.SYSTEM.DIHEDRAL>
0

>  <SCORE.SYSTEM.SOLV>
0

>  <SCORE.SYSTEM.norm>
0

>  <SCORE.heavy>
42

>  <SCORE.norm>
-0.405819

>  <RMSD>
2.490

$$$$
2fcy_lig
 OpenBabel11021811433D
libRbt.so/2013.1/901 2013/11/27
 42 45  0  0  0  0  0  0  0  0999 V2000
    0.0325   90.9604   14.0360 C   0  0  2  0  0  0  0  0  0  0  0  0
    0.4803   92.2972   14.3179 O   0  0  0  0  0  0  0  0  0  0  0  0
   -1.3052   90.8170   14.7634 C   0  0  2  0  0  0  0  0  0  0  0  0
   -2.1948   91.9039   14.3322 N   0  0  0  0  0  0  0  0  0  0  0  0
   -1.0795   90.9135   16.2744 C   0  0  1  0  0  0  0  0  0  0  0  0
   -2.3176   90.7777   16.9773 O   0  0  0  0  0  0  0  0  0  0  0  0
   -0.0944   89.8283   16.7099 C   0  0  2  0  0  0  0  0  0  0  0  0
    0.1888   89.9809   18.1007 O   0  0  0  0  0  0  0  0  0  0  0  0
    1.2123   90.0097   15.9360 C   0  0  2  0  0  0  0  0  0  0  0  0
    0.9461   89.9575   14.5258 O   0  0  0  0  0  0  0  0  0  0  0  0
    2.2038   88.9218   16.3568 C   0  0  0  0  0  0  0  0  0  0  0  0
    2.6445   89.1200   17.7457 N   0  0  0  0  0  0  0  0  0  0  0  0
    2.6356   94.8397   11.7612 C   0  0  2  0  0  0  0  0  0  0  0  0
    3.6094   95.5616   10.9283 N   0  0  0  0  0  0  0  0  0  0  0  0
    3.1036   94.7797   13.2166 C   0  0  0  0  0  0  0  0  0  0  0  0
    1.9928   94.1372   14.0536 C   0  0  2  0  0  0  0  0  0  0  0  0
    2.4548   93.9890   15.4412 N   0  0  0  0  0  0  0  0  0  0  0  0
    1.6033   92.7480   13.5399 C   0  0  2  0  0  0  0  0  0  0  0  0
    1.3510   92.6724   12.0382 C   0  0  2  0  0  0  0  0  0  0  0  0
    1.3920   91.2742   11.7105 O   0  0  0  0  0  0  0  0  0  0  0  0
    2.4308   93.4152   11.2401 C   0  0  1  0  0  0  0  0  0  0  0  0
    2.0736   93.5014    9.8580 O   0  0  0  0  0  0  0  0  0  0  0  0
    0.2331   90.7577   11.0365 C   0  0  1  0  0  0  0  0  0  0  0  0
    0.0872   91.5202    9.7186 C   0  0  2  0  0  0  0  0  0  0  0  0
   -0.5995   92.7526    9.9496 O   0  0  0  0  0  0  0  0  0  0  0  0
   -0.8372   90.5506    8.9880 C   0  0  1  0  0  0  0  0  0  0  0  0
   -0.1547   89.2293    9.3050 C   0  0  2  0  0  0  0  0  0  0  0  0
    0.3669   89.3769   10.6417 O   0  0  0  0  0  0  0  0  0  0  0  0
    0.9596   88.9827    8.2815 C   0  0  0  0  0  0  0  0  0  0  0  0
    0.4291   88.9761    6.9530 O   0  0  0  0  0  0  0  0  0  0  0  0
   -2.9174   91.6328    8.9766 C   0  0  2  0  0  0  0  0  0  0  0  0
   -2.1451   90.5841    9.5810 O   0  0  0  0  0  0  0  0  0  0  0  0
   -4.2713   91.7455    9.6847 C   0  0  1  0  0  0  0  0  0  0  0  0
   -4.4728   93.2190    4.6751 N   0  0  0  0  0  0  0  0  0  0  0  0
   -5.1521   92.7900    8.9909 C   0  0  1  0  0  0  0  0  0  0  0  0
   -4.6099   94.1010    9.1797 O   0  0  0  0  0  0  0  0  0  0  0  0
   -5.2471   92.4772    7.4951 C   0  0  2  0  0  0  0  0  0  0  0  0
   -5.9380   91.2339    7.3323 O   0  0  0  0  0  0  0  0  0  0  0  0
   -3.8380   92.3769    6.9012 C   0  0  1  0  0  0  0  0  0  0  0  0
   -3.0931   91.3473    7.5778 O   0  0  0  0  0  0  0  0  0  0  0  0
   -3.8794   92.0850    5.3988 C   0  0  0  0  0  0  0  0  0  0  0  0
   -4.9510   90.4432    9.6130 N   0  0  0  0  0  0  0  0  0  0  0  0
  1  2  1  1  0  0  0
  1  3  1  0  0  0  0
  1 10  1  0  0  0  0
  3  4  1  6  0  0  0
  3  5  1  0  0  0  0
  5  6  1  1  0  0  0
  5  7  1  0  0  0  0
  7  8  1  1  0  0  0
  7  9  1  0  0  0  0
  9 10  1  0  0  0  0
  9 11  1  1  0  0  0
 11 12  1  0  0  0  0
 13 14  1  6  0  0  0
 13 15  1  0  0  0  0
 13 21  1  0  0  0  0
 16 15  1  0  0  0  0
 16 17  1  1  0  0  0
 18  2  1  1  0  0  0
 18 16  1  0  0  0  0
 19 18  1  0  0  0  0
 19 20  1  6  0  0  0
 21 19  1  0  0  0  0
 21 22  1  6  0  0  0
 23 20  1  6  0  0  0
 23 24  1  0  0  0  0
 23 28  1  0  0  0  0
 24 25  1  1  0  0  0
 24 26  1  0  0  0  0
 26 27  1  0  0  0  0
 26 32  1  1  0  0  0
 27 28  1  0  0  0  0
 27 29  1  6  0  0  0
 29 30  1  0  0  0  0
 31 32  1  1  0  0  0
 31 40  1  0  0  0  0
 33 31  1  0  0  0  0
 33 42  1  6  0  0  0
 35 33  1  0  0  0  0
 35 36  1  6  0  0  0
 37 35  1  0  0  0  0
 37 38  1  1  0  0  0
 37 39  1  0  0  0  0
 39 40  1  0  0  0  0
 39 41  1  6  0  0  0
 41 34  1  0  0  0  0
M  END
>  <CHROM.1>
-169.10343502,-68.43265707,-175.83546955,124.93418885,60.54586902,86.78970347
-57.85652043,-175.41854141,65.72813650,-0.64798289,91.61206350,11.51256833
0.99114875,0.38486810,1.88456068

>  <Name>
2fcy_lig

>  <RI>
1.56845e+07

>  <Rbt.Current_Directory>
/home/itssahil/PROJECTS/Mol_Feturizer/New_Systems/rnas/2fcy

>  <Rbt.Executable>
rbdock ($Id: //depot/dev/client3/rdock/2013.1/src/exe/rbdock.cxx#4 $)

>  <Rbt.Library>
libRbt.so (2013.1, Build901 2013/11/27)

>  <Rbt.Parameter_File>
/export/apps/rDock/src/rDock_2013.1_src/data/scripts/dock_solv.prm

>  <Rbt.Receptor>
prm/pocket_docking_4.prm

>  <SCORE>
-20.2945

>  <SCORE.INTER>
-19.7086

>  <SCORE.INTER.CONST>
1

>  <SCORE.INTER.POLAR>
-1.93935

>  <SCORE.INTER.ROT>
9

>  <SCORE.INTER.SOLV>
16.329

>  <SCORE.INTER.VDW>
-21.7176

>  <SCORE.INTER.norm>
-0.469253

>  <SCORE.INTRA>
-0.585855

>  <SCORE.INTRA.DIHEDRAL>
-5.75529

>  <SCORE.INTRA.DIHEDRAL.0>
17.3446

>  <SCORE.INTRA.POLAR>
0

>  <SCORE.INTRA.POLAR.0>
0

>  <SCORE.INTRA.REPUL>
0

>  <SCORE.INTRA.REPUL.0>
0

>  <SCORE.INTRA.SOLV>
-3.44203

>  <SCORE.INTRA.SOLV.lig_0>
-112.452

>  <SCORE.INTRA.VDW>
4.0128

>  <SCORE.INTRA.VDW.0>
-5.95059

>  <SCORE.INTRA.norm>
-0.0139489

>  <SCORE.RESTR>
0

>  <SCORE.RESTR.CAVITY>
0

>  <SCORE.RESTR.norm>
0

>  <SCORE.SYSTEM>
0

>  <SCORE.SYSTEM.CONST>
0

>  <SCORE.SYSTEM.DIHEDRAL>
0

>  <SCORE.SYSTEM.SOLV>
0

>  <SCORE.SYSTEM.norm>
0

>  <SCORE.heavy>
42

>  <SCORE.norm>
-0.483202

>  <RMSD>
2.531

$$$$
2fcy_lig
 OpenBabel11021811433D
libRbt.so/2013.1/901 2013/11/27
 42 45  0  0  0  0  0  0  0  0999 V2000
   -0.0012   91.3340   13.6249 C   0  0  2  0  0  0  0  0  0  0  0  0
    0.3452   92.6820   13.9854 O   0  0  0  0  0  0  0  0  0  0  0  0
   -1.4693   91.1708   14.0215 C   0  0  2  0  0  0  0  0  0  0  0  0
   -2.2519   92.2357   13.3794 N   0  0  0  0  0  0  0  0  0  0  0  0
   -1.6050   91.2859   15.5419 C   0  0  1  0  0  0  0  0  0  0  0  0
   -2.9707   91.1321   15.9378 O   0  0  0  0  0  0  0  0  0  0  0  0
   -0.7306   90.2246   16.2105 C   0  0  2  0  0  0  0  0  0  0  0  0
   -0.7833   90.3958   17.6267 O   0  0  0  0  0  0  0  0  0  0  0  0
    0.7175   90.4247   15.7610 C   0  0  2  0  0  0  0  0  0  0  0  0
    0.7895   90.3540   14.3284 O   0  0  0  0  0  0  0  0  0  0  0  0
    1.6016   89.3607   16.4168 C   0  0  0  0  0  0  0  0  0  0  0  0
    3.0239   89.6181   16.1454 N   0  0  0  0  0  0  0  0  0  0  0  0
    3.6453   95.2279   13.4613 C   0  0  2  0  0  0  0  0  0  0  0  0
    4.9535   95.8829   13.3112 N   0  0  0  0  0  0  0  0  0  0  0  0
    3.5537   94.4972   14.8024 C   0  0  0  0  0  0  0  0  0  0  0  0
    2.1307   93.9511   14.9572 C   0  0  2  0  0  0  0  0  0  0  0  0
    2.0431   93.1698   16.1993 N   0  0  0  0  0  0  0  0  0  0  0  0
    1.7276   93.0340   13.7989 C   0  0  2  0  0  0  0  0  0  0  0  0
    2.0123   93.5984   12.4115 C   0  0  2  0  0  0  0  0  0  0  0  0
    1.9390   92.4767   11.5167 O   0  0  0  0  0  0  0  0  0  0  0  0
    3.4093   94.2275   12.3271 C   0  0  1  0  0  0  0  0  0  0  0  0
    3.5815   94.9212   11.0884 O   0  0  0  0  0  0  0  0  0  0  0  0
    0.6698   92.2733   10.8748 C   0  0  1  0  0  0  0  0  0  0  0  0
    0.2708   93.5929   10.2121 C   0  0  2  0  0  0  0  0  0  0  0  0
   -0.3553   94.4444   11.1747 O   0  0  0  0  0  0  0  0  0  0  0  0
   -0.7802   93.0598    9.2427 C   0  0  1  0  0  0  0  0  0  0  0  0
   -0.0515   91.8459    8.6881 C   0  0  2  0  0  0  0  0  0  0  0  0
    0.7213   91.3252    9.7891 O   0  0  0  0  0  0  0  0  0  0  0  0
    0.8412   92.2869    7.5223 C   0  0  0  0  0  0  0  0  0  0  0  0
    0.0666   92.9517    6.5200 O   0  0  0  0  0  0  0  0  0  0  0  0
   -3.0999   92.7401    9.1195 C   0  0  2  0  0  0  0  0  0  0  0  0
   -1.9471   92.6439    9.9699 O   0  0  0  0  0  0  0  0  0  0  0  0
   -3.5623   91.3346    8.7221 C   0  0  1  0  0  0  0  0  0  0  0  0
   -2.4717   94.0128    5.0848 N   0  0  0  0  0  0  0  0  0  0  0  0
   -4.7295   91.4157    7.7324 C   0  0  1  0  0  0  0  0  0  0  0  0
   -5.8941   91.9377    8.3801 O   0  0  0  0  0  0  0  0  0  0  0  0
   -4.3464   92.3110    6.5509 C   0  0  2  0  0  0  0  0  0  0  0  0
   -3.2829   91.6816    5.8281 O   0  0  0  0  0  0  0  0  0  0  0  0
   -3.8914   93.6791    7.0700 C   0  0  1  0  0  0  0  0  0  0  0  0
   -2.7681   93.5183    7.9562 O   0  0  0  0  0  0  0  0  0  0  0  0
   -3.5161   94.6207    5.9224 C   0  0  0  0  0  0  0  0  0  0  0  0
   -2.4450   90.6383    8.0664 N   0  0  0  0  0  0  0  0  0  0  0  0
  1  2  1  1  0  0  0
  1  3  1  0  0  0  0
  1 10  1  0  0  0  0
  3  4  1  6  0  0  0
  3  5  1  0  0  0  0
  5  6  1  6  0  0  0
  5  7  1  0  0  0  0
  7  8  1  1  0  0  0
  7  9  1  0  0  0  0
  9 10  1  0  0  0  0
  9 11  1  1  0  0  0
 11 12  1  0  0  0  0
 13 14  1  6  0  0  0
 13 15  1  0  0  0  0
 13 21  1  0  0  0  0
 16 15  1  0  0  0  0
 16 17  1  1  0  0  0
 18  2  1  6  0  0  0
 18 16  1  0  0  0  0
 19 18  1  0  0  0  0
 19 20  1  6  0  0  0
 21 19  1  0  0  0  0
 21 22  1  6  0  0  0
 23 20  1  6  0  0  0
 23 24  1  0  0  0  0
 23 28  1  0  0  0  0
 24 25  1  1  0  0  0
 24 26  1  0  0  0  0
 26 27  1  0  0  0  0
 26 32  1  1  0  0  0
 27 28  1  0  0  0  0
 27 29  1  6  0  0  0
 29 30  1  0  0  0  0
 31 32  1  1  0  0  0
 31 40  1  0  0  0  0
 33 31  1  0  0  0  0
 33 42  1  6  0  0  0
 35 33  1  0  0  0  0
 35 36  1  1  0  0  0
 37 35  1  0  0  0  0
 37 38  1  1  0  0  0
 37 39  1  0  0  0  0
 39 40  1  0  0  0  0
 39 41  1  6  0  0  0
 41 34  1  0  0  0  0
M  END
>  <CHROM.1>
175.27004632,-172.92040468,-142.70495026,94.81483249,52.63095345,153.36997183
-56.40038792,107.55701798,-56.70482176,-0.36989390,92.45964923,11.43841121
0.99468295,0.46485529,1.92954714

>  <Name>
2fcy_lig

>  <RI>
0

>  <Rbt.Current_Directory>
/home/itssahil/PROJECTS/Mol_Feturizer/New_Systems/rnas/2fcy

>  <Rbt.Executable>
rbdock ($Id: //depot/dev/client3/rdock/2013.1/src/exe/rbdock.cxx#4 $)

>  <Rbt.Library>
libRbt.so (2013.1, Build901 2013/11/27)

>  <Rbt.Parameter_File>
/export/apps/rDock/src/rDock_2013.1_src/data/scripts/dock_solv.prm

>  <Rbt.Receptor>
prm/pocket_docking_2.prm

>  <SCORE>
-8.97562

>  <SCORE.INTER>
-18.2343

>  <SCORE.INTER.CONST>
1

>  <SCORE.INTER.POLAR>
-2.03024

>  <SCORE.INTER.ROT>
9

>  <SCORE.INTER.SOLV>
15.9572

>  <SCORE.INTER.VDW>
-20.3078

>  <SCORE.INTER.norm>
-0.434149

>  <SCORE.INTRA>
8.47724

>  <SCORE.INTRA.DIHEDRAL>
2.27403

>  <SCORE.INTRA.DIHEDRAL.0>
17.3446

>  <SCORE.INTRA.POLAR>
0

>  <SCORE.INTRA.POLAR.0>
0

>  <SCORE.INTRA.REPUL>
0

>  <SCORE.INTRA.REPUL.0>
0

>  <SCORE.INTRA.SOLV>
5.77838

>  <SCORE.INTRA.SOLV.lig_0>
-112.452

>  <SCORE.INTRA.VDW>
4.45103

>  <SCORE.INTRA.VDW.0>
-5.95059

>  <SCORE.INTRA.norm>
0.201839

>  <SCORE.RESTR>
0.78142

>  <SCORE.RESTR.CAVITY>
0.78142

>  <SCORE.RESTR.norm>
0.0186052

>  <SCORE.SYSTEM>
0

>  <SCORE.SYSTEM.CONST>
0

>  <SCORE.SYSTEM.DIHEDRAL>
0

>  <SCORE.SYSTEM.SOLV>
0

>  <SCORE.SYSTEM.norm>
0

>  <SCORE.heavy>
42

>  <SCORE.norm>
-0.213705

>  <RMSD>
2.561

$$$$
2fcy_lig
 OpenBabel11021811433D
libRbt.so/2013.1/901 2013/11/27
 42 45  0  0  0  0  0  0  0  0999 V2000
    0.7892   93.0133   14.9371 C   0  0  2  0  0  0  0  0  0  0  0  0
    1.5384   92.1050   14.1119 O   0  0  0  0  0  0  0  0  0  0  0  0
    1.1683   92.6630   16.3767 C   0  0  2  0  0  0  0  0  0  0  0  0
    2.6305   92.7236   16.5069 N   0  0  0  0  0  0  0  0  0  0  0  0
    0.6868   91.2471   16.7031 C   0  0  1  0  0  0  0  0  0  0  0  0
    1.0266   90.8979   18.0478 O   0  0  0  0  0  0  0  0  0  0  0  0
   -0.8257   91.1654   16.4944 C   0  0  2  0  0  0  0  0  0  0  0  0
   -1.2577   89.8213   16.7055 O   0  0  0  0  0  0  0  0  0  0  0  0
   -1.1446   91.5456   15.0477 C   0  0  2  0  0  0  0  0  0  0  0  0
   -0.6357   92.8602   14.7735 O   0  0  0  0  0  0  0  0  0  0  0  0
   -2.6583   91.4771   14.8293 C   0  0  0  0  0  0  0  0  0  0  0  0
   -3.3509   92.5076   15.6172 N   0  0  0  0  0  0  0  0  0  0  0  0
    2.0902   95.0074   11.1256 C   0  0  2  0  0  0  0  0  0  0  0  0
    2.4764   95.8427    9.9785 N   0  0  0  0  0  0  0  0  0  0  0  0
    3.3049   94.6882   11.9993 C   0  0  0  0  0  0  0  0  0  0  0  0
    2.8201   93.9330   13.2410 C   0  0  2  0  0  0  0  0  0  0  0  0
    3.9803   93.5388   14.0531 N   0  0  0  0  0  0  0  0  0  0  0  0
    2.0447   92.6610   12.8856 C   0  0  2  0  0  0  0  0  0  0  0  0
    0.9610   92.8503   11.8301 C   0  0  2  0  0  0  0  0  0  0  0  0
    0.6395   91.5290   11.3667 O   0  0  0  0  0  0  0  0  0  0  0  0
    1.4552   93.6982   10.6505 C   0  0  1  0  0  0  0  0  0  0  0  0
    0.3755   94.0283    9.7728 O   0  0  0  0  0  0  0  0  0  0  0  0
   -0.1568   91.4638   10.1725 C   0  0  1  0  0  0  0  0  0  0  0  0
    0.0279   90.0702    9.5698 C   0  0  2  0  0  0  0  0  0  0  0  0
    1.2164   90.0433    8.7758 O   0  0  0  0  0  0  0  0  0  0  0  0
   -1.1953   90.0454    8.6578 C   0  0  1  0  0  0  0  0  0  0  0  0
   -2.2539   90.5902    9.6036 C   0  0  2  0  0  0  0  0  0  0  0  0
   -1.5739   91.5645   10.4216 O   0  0  0  0  0  0  0  0  0  0  0  0
   -2.8193   89.4370   10.4407 C   0  0  0  0  0  0  0  0  0  0  0  0
   -1.9015   89.0698   11.4748 O   0  0  0  0  0  0  0  0  0  0  0  0
   -1.9246   90.6296    6.5072 C   0  0  2  0  0  0  0  0  0  0  0  0
   -1.0026   90.9512    7.5598 O   0  0  0  0  0  0  0  0  0  0  0  0
   -1.6771   91.5523    5.3095 C   0  0  1  0  0  0  0  0  0  0  0  0
   -5.7556   89.5185    7.7145 N   0  0  0  0  0  0  0  0  0  0  0  0
   -2.7162   91.2951    4.2128 C   0  0  1  0  0  0  0  0  0  0  0  0
   -2.5179   90.0010    3.6348 O   0  0  0  0  0  0  0  0  0  0  0  0
   -4.1263   91.3910    4.8018 C   0  0  2  0  0  0  0  0  0  0  0  0
   -4.3524   92.7394    5.2261 O   0  0  0  0  0  0  0  0  0  0  0  0
   -4.2502   90.4370    5.9946 C   0  0  1  0  0  0  0  0  0  0  0  0
   -3.2703   90.7726    6.9946 O   0  0  0  0  0  0  0  0  0  0  0  0
   -5.6526   90.4806    6.6074 C   0  0  0  0  0  0  0  0  0  0  0  0
   -1.8072   92.9480    5.7545 N   0  0  0  0  0  0  0  0  0  0  0  0
  1  2  1  6  0  0  0
  1  3  1  0  0  0  0
  1 10  1  0  0  0  0
  3  4  1  6  0  0  0
  3  5  1  0  0  0  0
  5  6  1  1  0  0  0
  5  7  1  0  0  0  0
  7  8  1  6  0  0  0
  7  9  1  0  0  0  0
  9 10  1  0  0  0  0
  9 11  1  1  0  0  0
 11 12  1  0  0  0  0
 13 14  1  6  0  0  0
 13 15  1  0  0  0  0
 13 21  1  0  0  0  0
 16 15  1  0  0  0  0
 16 17  1  1  0  0  0
 18  2  1  1  0  0  0
 18 16  1  0  0  0  0
 19 18  1  0  0  0  0
 19 20  1  6  0  0  0
 21 19  1  0  0  0  0
 21 22  1  6  0  0  0
 23 20  1  1  0  0  0
 23 24  1  0  0  0  0
 23 28  1  0  0  0  0
 24 25  1  6  0  0  0
 24 26  1  0  0  0  0
 26 27  1  0  0  0  0
 26 32  1  6  0  0  0
 27 28  1  0  0  0  0
 27 29  1  1  0  0  0
 29 30  1  0  0  0  0
 31 32  1  1  0  0  0
 31 40  1  0  0  0  0
 33 31  1  0  0  0  0
 33 42  1  1  0  0  0
 35 33  1  0  0  0  0
 35 36  1  1  0  0  0
 37 35  1  0  0  0  0
 37 38  1  1  0  0  0
 37 39  1  0  0  0  0
 39 40  1  0  0  0  0
 39 41  1  1  0  0  0
 41 34  1  0  0  0  0
M  END
>  <CHROM.1>
-142.35821814,66.42580415,52.60819121,-167.48815034,159.98748801,161.99215536
76.68506633,-177.38297825,177.81662735,-0.72191563,91.75600849,10.86461164
-1.08352813,-0.57741641,-1.43330549

>  <Name>
2fcy_lig

>  <RI>
4.13508e+07

>  <Rbt.Current_Directory>
/home/itssahil/PROJECTS/Mol_Feturizer/New_Systems/rnas/2fcy

>  <Rbt.Executable>
rbdock ($Id: //depot/dev/client3/rdock/2013.1/src/exe/rbdock.cxx#4 $)

>  <Rbt.Library>
libRbt.so (2013.1, Build901 2013/11/27)

>  <Rbt.Parameter_File>
/export/apps/rDock/src/rDock_2013.1_src/data/scripts/dock_solv.prm

>  <Rbt.Receptor>
prm/pocket_docking_3.prm

>  <SCORE>
-3.18862

>  <SCORE.INTER>
-4.08766

>  <SCORE.INTER.CONST>
1

>  <SCORE.INTER.POLAR>
-0.562152

>  <SCORE.INTER.ROT>
9

>  <SCORE.INTER.SOLV>
21.9529

>  <SCORE.INTER.VDW>
-17.7689

>  <SCORE.INTER.norm>
-0.0973253

>  <SCORE.INTRA>
0.899042

>  <SCORE.INTRA.DIHEDRAL>
-6.46019

>  <SCORE.INTRA.DIHEDRAL.0>
17.3446

>  <SCORE.INTRA.POLAR>
0

>  <SCORE.INTRA.POLAR.0>
0

>  <SCORE.INTRA.REPUL>
0

>  <SCORE.INTRA.REPUL.0>
0

>  <SCORE.INTRA.SOLV>
-0.0720653

>  <SCORE.INTRA.SOLV.lig_0>
-112.452

>  <SCORE.INTRA.VDW>
4.16517

>  <SCORE.INTRA.VDW.0>
-5.95059

>  <SCORE.INTRA.norm>
0.0214058

>  <SCORE.RESTR>
0

>  <SCORE.RESTR.CAVITY>
0

>  <SCORE.RESTR.norm>
0

>  <SCORE.SYSTEM>
0

>  <SCORE.SYSTEM.CONST>
0

>  <SCORE.SYSTEM.DIHEDRAL>
0

>  <SCORE.SYSTEM.SOLV>
0

>  <SCORE.SYSTEM.norm>
0

>  <SCORE.heavy>
42

>  <SCORE.norm>
-0.0759195

>  <RMSD>
2.600

$$$$
2fcy_lig
 OpenBabel11021811433D
libRbt.so/2013.1/901 2013/11/27
 42 45  0  0  0  0  0  0  0  0999 V2000
    0.5431   91.2570   13.9417 C   0  0  2  0  0  0  0  0  0  0  0  0
    0.8218   92.6143   14.3256 O   0  0  0  0  0  0  0  0  0  0  0  0
   -0.8440   90.9502   14.5080 C   0  0  2  0  0  0  0  0  0  0  0  0
   -1.7864   91.9680   14.0235 N   0  0  0  0  0  0  0  0  0  0  0  0
   -0.7934   90.9907   16.0374 C   0  0  1  0  0  0  0  0  0  0  0  0
   -2.0803   90.7021   16.5908 O   0  0  0  0  0  0  0  0  0  0  0  0
    0.2427   89.9833   16.5370 C   0  0  2  0  0  0  0  0  0  0  0  0
    0.3575   90.0912   17.9557 O   0  0  0  0  0  0  0  0  0  0  0  0
    1.6004   90.3274   15.9226 C   0  0  2  0  0  0  0  0  0  0  0  0
    1.4944   90.3220   14.4904 O   0  0  0  0  0  0  0  0  0  0  0  0
    2.6448   89.3188   16.4081 C   0  0  0  0  0  0  0  0  0  0  0  0
    2.4031   87.9899   15.8266 N   0  0  0  0  0  0  0  0  0  0  0  0
    3.7601   95.4861   13.4505 C   0  0  2  0  0  0  0  0  0  0  0  0
    4.9655   96.2701   13.1419 N   0  0  0  0  0  0  0  0  0  0  0  0
    3.9413   94.6990   14.7499 C   0  0  0  0  0  0  0  0  0  0  0  0
    2.6138   94.0120   15.0860 C   0  0  2  0  0  0  0  0  0  0  0  0
    2.7883   93.1786   16.2843 N   0  0  0  0  0  0  0  0  0  0  0  0
    2.1218   93.1054   13.9539 C   0  0  2  0  0  0  0  0  0  0  0  0
    2.1386   93.7478   12.5713 C   0  0  2  0  0  0  0  0  0  0  0  0
    2.0300   92.6595   11.6396 O   0  0  0  0  0  0  0  0  0  0  0  0
    3.4438   94.5120   12.3130 C   0  0  1  0  0  0  0  0  0  0  0  0
    3.3609   95.2663   11.1008 O   0  0  0  0  0  0  0  0  0  0  0  0
    0.7556   92.5188   10.9913 C   0  0  1  0  0  0  0  0  0  0  0  0
    0.4357   93.8493   10.3080 C   0  0  2  0  0  0  0  0  0  0  0  0
   -0.1479   94.7478   11.2544 O   0  0  0  0  0  0  0  0  0  0  0  0
   -0.6373   93.3625    9.3383 C   0  0  1  0  0  0  0  0  0  0  0  0
    0.0257   92.1021    8.8054 C   0  0  2  0  0  0  0  0  0  0  0  0
    0.7609   91.5542    9.9190 O   0  0  0  0  0  0  0  0  0  0  0  0
    0.9492   92.4761    7.6403 C   0  0  0  0  0  0  0  0  0  0  0  0
    1.3888   91.3022    6.9509 O   0  0  0  0  0  0  0  0  0  0  0  0
   -2.9614   93.0930    9.1808 C   0  0  2  0  0  0  0  0  0  0  0  0
   -1.8305   93.0228   10.0626 O   0  0  0  0  0  0  0  0  0  0  0  0
   -4.2415   92.7835    9.9635 C   0  0  1  0  0  0  0  0  0  0  0  0
   -3.2959   89.9115    6.4412 N   0  0  0  0  0  0  0  0  0  0  0  0
   -5.4498   92.7527    9.0215 C   0  0  1  0  0  0  0  0  0  0  0  0
   -5.7209   94.0650    8.5188 O   0  0  0  0  0  0  0  0  0  0  0  0
   -5.1757   91.7964    7.8575 C   0  0  2  0  0  0  0  0  0  0  0  0
   -5.0684   90.4663    8.3759 O   0  0  0  0  0  0  0  0  0  0  0  0
   -3.8703   92.1961    7.1615 C   0  0  1  0  0  0  0  0  0  0  0  0
   -2.7814   92.1581    8.1026 O   0  0  0  0  0  0  0  0  0  0  0  0
   -3.5618   91.2801    5.9740 C   0  0  0  0  0  0  0  0  0  0  0  0
   -4.1045   91.4584   10.5867 N   0  0  0  0  0  0  0  0  0  0  0  0
  1  2  1  1  0  0  0
  1  3  1  0  0  0  0
  1 10  1  0  0  0  0
  3  4  1  6  0  0  0
  3  5  1  0  0  0  0
  5  6  1  1  0  0  0
  5  7  1  0  0  0  0
  7  8  1  1  0  0  0
  7  9  1  0  0  0  0
  9 10  1  0  0  0  0
  9 11  1  6  0  0  0
 11 12  1  0  0  0  0
 13 14  1  6  0  0  0
 13 15  1  0  0  0  0
 13 21  1  0  0  0  0
 16 15  1  0  0  0  0
 16 17  1  1  0  0  0
 18  2  1  1  0  0  0
 18 16  1  0  0  0  0
 19 18  1  0  0  0  0
 19 20  1  6  0  0  0
 21 19  1  0  0  0  0
 21 22  1  6  0  0  0
 23 20  1  6  0  0  0
 23 24  1  0  0  0  0
 23 28  1  0  0  0  0
 24 25  1  1  0  0  0
 24 26  1  0  0  0  0
 26 27  1  0  0  0  0
 26 32  1  1  0  0  0
 27 28  1  0  0  0  0
 27 29  1  6  0  0  0
 29 30  1  0  0  0  0
 31 32  1  1  0  0  0
 31 40  1  0  0  0  0
 33 31  1  0  0  0  0
 33 42  1  6  0  0  0
 35 33  1  0  0  0  0
 35 36  1  6  0  0  0
 37 35  1  0  0  0  0
 37 38  1  1  0  0  0
 37 39  1  0  0  0  0
 39 40  1  0  0  0  0
 39 41  1  6  0  0  0
 41 34  1  0  0  0  0
M  END
>  <CHROM.1>
176.97413836,69.51854878,-143.13542144,106.17862068,55.67878116,156.84869015
-168.87698317,-177.85070398,-65.57830772,-0.22037429,92.28243016,11.82188338
0.81083690,0.49092084,1.99039436

>  <Name>
2fcy_lig

>  <RI>
4.13508e+07

>  <Rbt.Current_Directory>
/home/itssahil/PROJECTS/Mol_Feturizer/New_Systems/rnas/2fcy

>  <Rbt.Executable>
rbdock ($Id: //depot/dev/client3/rdock/2013.1/src/exe/rbdock.cxx#4 $)

>  <Rbt.Library>
libRbt.so (2013.1, Build901 2013/11/27)

>  <Rbt.Parameter_File>
/export/apps/rDock/src/rDock_2013.1_src/data/scripts/dock_solv.prm

>  <Rbt.Receptor>
prm/pocket_docking_3.prm

>  <SCORE>
-15.7461

>  <SCORE.INTER>
-16.1661

>  <SCORE.INTER.CONST>
1

>  <SCORE.INTER.POLAR>
-1.8727

>  <SCORE.INTER.ROT>
9

>  <SCORE.INTER.SOLV>
20.2779

>  <SCORE.INTER.VDW>
-20.8944

>  <SCORE.INTER.norm>
-0.384907

>  <SCORE.INTRA>
0.42002

>  <SCORE.INTRA.DIHEDRAL>
-2.63139

>  <SCORE.INTRA.DIHEDRAL.0>
17.3446

>  <SCORE.INTRA.POLAR>
0

>  <SCORE.INTRA.POLAR.0>
0

>  <SCORE.INTRA.REPUL>
0.00343089

>  <SCORE.INTRA.REPUL.0>
0

>  <SCORE.INTRA.SOLV>
0.378421

>  <SCORE.INTRA.SOLV.lig_0>
-112.452

>  <SCORE.INTRA.VDW>
1.52935

>  <SCORE.INTRA.VDW.0>
-5.95059

>  <SCORE.INTRA.norm>
0.0100005

>  <SCORE.RESTR>
0

>  <SCORE.RESTR.CAVITY>
0

>  <SCORE.RESTR.norm>
0

>  <SCORE.SYSTEM>
0

>  <SCORE.SYSTEM.CONST>
0

>  <SCORE.SYSTEM.DIHEDRAL>
0

>  <SCORE.SYSTEM.SOLV>
0

>  <SCORE.SYSTEM.norm>
0

>  <SCORE.heavy>
42

>  <SCORE.norm>
-0.374907

>  <RMSD>
2.607

$$$$
2fcy_lig
 OpenBabel11021811433D
libRbt.so/2013.1/901 2013/11/27
 42 45  0  0  0  0  0  0  0  0999 V2000
    0.2210   91.3221   14.1880 C   0  0  2  0  0  0  0  0  0  0  0  0
    0.7233   92.5671   14.7026 O   0  0  0  0  0  0  0  0  0  0  0  0
   -1.1506   91.1362   14.8385 C   0  0  2  0  0  0  0  0  0  0  0  0
   -1.9665   92.3274   14.5661 N   0  0  0  0  0  0  0  0  0  0  0  0
   -0.9820   90.9700   16.3508 C   0  0  1  0  0  0  0  0  0  0  0  0
   -2.2530   90.7901   16.9817 O   0  0  0  0  0  0  0  0  0  0  0  0
   -0.0709   89.7744   16.6308 C   0  0  2  0  0  0  0  0  0  0  0  0
    0.1627   89.6801   18.0359 O   0  0  0  0  0  0  0  0  0  0  0  0
    1.2735   90.0071   15.9399 C   0  0  2  0  0  0  0  0  0  0  0  0
    1.0626   90.2026   14.5328 O   0  0  0  0  0  0  0  0  0  0  0  0
    2.1915   88.8110   16.2050 C   0  0  0  0  0  0  0  0  0  0  0  0
    2.6561   88.8032   17.6002 N   0  0  0  0  0  0  0  0  0  0  0  0
    3.6745   95.2760   13.4380 C   0  0  2  0  0  0  0  0  0  0  0  0
    4.8714   95.9941   12.9748 N   0  0  0  0  0  0  0  0  0  0  0  0
    3.9720   94.4914   14.7173 C   0  0  0  0  0  0  0  0  0  0  0  0
    2.6622   93.8767   15.2210 C   0  0  2  0  0  0  0  0  0  0  0  0
    2.9386   93.0455   16.4015 N   0  0  0  0  0  0  0  0  0  0  0  0
    1.9918   92.9873   14.1698 C   0  0  2  0  0  0  0  0  0  0  0  0
    1.8731   93.6163   12.7861 C   0  0  2  0  0  0  0  0  0  0  0  0
    1.5980   92.5274   11.8902 O   0  0  0  0  0  0  0  0  0  0  0  0
    3.1742   94.3100   12.3611 C   0  0  1  0  0  0  0  0  0  0  0  0
    2.9830   95.0574   11.1570 O   0  0  0  0  0  0  0  0  0  0  0  0
    0.2751   92.5000   11.3303 C   0  0  1  0  0  0  0  0  0  0  0  0
    0.0901   93.7838   10.5196 C   0  0  2  0  0  0  0  0  0  0  0  0
   -0.3025   94.8489   11.3886 O   0  0  0  0  0  0  0  0  0  0  0  0
   -1.1016   93.3541    9.6690 C   0  0  1  0  0  0  0  0  0  0  0  0
   -0.6507   91.9647    9.2467 C   0  0  2  0  0  0  0  0  0  0  0  0
    0.0786   91.4380   10.3743 O   0  0  0  0  0  0  0  0  0  0  0  0
    0.2332   92.0822    7.9997 C   0  0  0  0  0  0  0  0  0  0  0  0
    1.6173   92.0444    8.3596 O   0  0  0  0  0  0  0  0  0  0  0  0
   -3.4421   93.2116    9.6508 C   0  0  2  0  0  0  0  0  0  0  0  0
   -2.2775   93.2623   10.4890 O   0  0  0  0  0  0  0  0  0  0  0  0
   -4.7015   93.2077   10.5232 C   0  0  1  0  0  0  0  0  0  0  0  0
   -5.3502   90.7570    5.9440 N   0  0  0  0  0  0  0  0  0  0  0  0
   -5.9537   93.0513    9.6537 C   0  0  1  0  0  0  0  0  0  0  0  0
   -6.1519   94.2215    8.8538 O   0  0  0  0  0  0  0  0  0  0  0  0
   -5.8082   91.8231    8.7511 C   0  0  2  0  0  0  0  0  0  0  0  0
   -5.7736   90.6532    9.5754 O   0  0  0  0  0  0  0  0  0  0  0  0
   -4.5127   91.9329    7.9399 C   0  0  1  0  0  0  0  0  0  0  0  0
   -3.3847   92.0325    8.8290 O   0  0  0  0  0  0  0  0  0  0  0  0
   -4.3312   90.7350    7.0037 C   0  0  0  0  0  0  0  0  0  0  0  0
   -4.6319   92.0654   11.4470 N   0  0  0  0  0  0  0  0  0  0  0  0
  1  2  1  1  0  0  0
  1  3  1  0  0  0  0
  1 10  1  0  0  0  0
  3  4  1  1  0  0  0
  3  5  1  0  0  0  0
  5  6  1  1  0  0  0
  5  7  1  0  0  0  0
  7  8  1  1  0  0  0
  7  9  1  0  0  0  0
  9 10  1  0  0  0  0
  9 11  1  6  0  0  0
 11 12  1  0  0  0  0
 13 14  1  6  0  0  0
 13 15  1  0  0  0  0
 13 21  1  0  0  0  0
 16 15  1  0  0  0  0
 16 17  1  1  0  0  0
 18  2  1  1  0  0  0
 18 16  1  0  0  0  0
 19 18  1  0  0  0  0
 19 20  1  6  0  0  0
 21 19  1  0  0  0  0
 21 22  1  6  0  0  0
 23 20  1  6  0  0  0
 23 24  1  0  0  0  0
 23 28  1  0  0  0  0
 24 25  1  1  0  0  0
 24 26  1  0  0  0  0
 26 27  1  0  0  0  0
 26 32  1  1  0  0  0
 27 28  1  0  0  0  0
 27 29  1  6  0  0  0
 29 30  1  0  0  0  0
 31 32  1  1  0  0  0
 31 40  1  0  0  0  0
 33 31  1  0  0  0  0
 33 42  1  1  0  0  0
 35 33  1  0  0  0  0
 35 36  1  6  0  0  0
 37 35  1  0  0  0  0
 37 38  1  1  0  0  0
 37 39  1  0  0  0  0
 39 40  1  0  0  0  0
 39 41  1  1  0  0  0
 41 34  1  0  0  0  0
M  END
>  <CHROM.1>
-176.97472939,-72.17863233,-153.70046115,110.30488182,61.22720123,164.77828215
98.21474497,-176.26176082,67.70245080,-0.59365200,92.28932604,12.20579047
0.73402722,0.41725885,2.02854761

>  <Name>
2fcy_lig

>  <RI>
4.13508e+07

>  <Rbt.Current_Directory>
/home/itssahil/PROJECTS/Mol_Feturizer/New_Systems/rnas/2fcy

>  <Rbt.Executable>
rbdock ($Id: //depot/dev/client3/rdock/2013.1/src/exe/rbdock.cxx#4 $)

>  <Rbt.Library>
libRbt.so (2013.1, Build901 2013/11/27)

>  <Rbt.Parameter_File>
/export/apps/rDock/src/rDock_2013.1_src/data/scripts/dock_solv.prm

>  <Rbt.Receptor>
prm/pocket_docking_3.prm

>  <SCORE>
-18.2783

>  <SCORE.INTER>
-18.4119

>  <SCORE.INTER.CONST>
1

>  <SCORE.INTER.POLAR>
-1.85359

>  <SCORE.INTER.ROT>
9

>  <SCORE.INTER.SOLV>
16.0497

>  <SCORE.INTER.VDW>
-21.0459

>  <SCORE.INTER.norm>
-0.438379

>  <SCORE.INTRA>
0.133571

>  <SCORE.INTRA.DIHEDRAL>
-1.67841

>  <SCORE.INTRA.DIHEDRAL.0>
17.3446

>  <SCORE.INTRA.POLAR>
0

>  <SCORE.INTRA.POLAR.0>
0

>  <SCORE.INTRA.REPUL>
0

>  <SCORE.INTRA.REPUL.0>
0

>  <SCORE.INTRA.SOLV>
-1.76473

>  <SCORE.INTRA.SOLV.lig_0>
-112.452

>  <SCORE.INTRA.VDW>
1.85514

>  <SCORE.INTRA.VDW.0>
-5.95059

>  <SCORE.INTRA.norm>
0.00318026

>  <SCORE.RESTR>
0

>  <SCORE.RESTR.CAVITY>
0

>  <SCORE.RESTR.norm>
0

>  <SCORE.SYSTEM>
0

>  <SCORE.SYSTEM.CONST>
0

>  <SCORE.SYSTEM.DIHEDRAL>
0

>  <SCORE.SYSTEM.SOLV>
0

>  <SCORE.SYSTEM.norm>
0

>  <SCORE.heavy>
42

>  <SCORE.norm>
-0.435199

>  <RMSD>
2.610

$$$$
2fcy_lig
 OpenBabel11021811433D
libRbt.so/2013.1/901 2013/11/27
 42 45  0  0  0  0  0  0  0  0999 V2000
    1.0419   92.9835   15.1507 C   0  0  2  0  0  0  0  0  0  0  0  0
    1.7362   92.1612   14.1973 O   0  0  0  0  0  0  0  0  0  0  0  0
    1.5514   92.5363   16.5217 C   0  0  2  0  0  0  0  0  0  0  0  0
    3.0178   92.6277   16.5322 N   0  0  0  0  0  0  0  0  0  0  0  0
    1.1302   91.0870   16.7769 C   0  0  1  0  0  0  0  0  0  0  0  0
    1.5923   90.6470   18.0570 O   0  0  0  0  0  0  0  0  0  0  0  0
   -0.3926   90.9791   16.6910 C   0  0  2  0  0  0  0  0  0  0  0  0
   -0.7760   89.6115   16.8331 O   0  0  0  0  0  0  0  0  0  0  0  0
   -0.8433   91.4582   15.3103 C   0  0  2  0  0  0  0  0  0  0  0  0
   -0.3881   92.8035   15.0968 O   0  0  0  0  0  0  0  0  0  0  0  0
   -2.3685   91.3642   15.2159 C   0  0  0  0  0  0  0  0  0  0  0  0
   -3.0058   91.9320   16.4134 N   0  0  0  0  0  0  0  0  0  0  0  0
    2.3541   95.3956   11.5890 C   0  0  2  0  0  0  0  0  0  0  0  0
    2.7638   96.3590   10.5561 N   0  0  0  0  0  0  0  0  0  0  0  0
    3.5529   94.9637   12.4359 C   0  0  0  0  0  0  0  0  0  0  0  0
    3.0437   94.0693   13.5708 C   0  0  2  0  0  0  0  0  0  0  0  0
    4.1884   93.5708   14.3468 N   0  0  0  0  0  0  0  0  0  0  0  0
    2.2654   92.8558   13.0541 C   0  0  2  0  0  0  0  0  0  0  0  0
    1.1995   93.1795   12.0131 C   0  0  2  0  0  0  0  0  0  0  0  0
    0.8764   91.9259   11.3899 O   0  0  0  0  0  0  0  0  0  0  0  0
    1.7178   94.1583   10.9511 C   0  0  1  0  0  0  0  0  0  0  0  0
    0.6542   94.6004   10.1036 O   0  0  0  0  0  0  0  0  0  0  0  0
   -0.1510   91.9751   10.3868 C   0  0  1  0  0  0  0  0  0  0  0  0
   -0.1278   90.6425    9.6363 C   0  0  2  0  0  0  0  0  0  0  0  0
    0.8696   90.6844    8.6130 O   0  0  0  0  0  0  0  0  0  0  0  0
   -1.5135   90.7075    9.0006 C   0  0  1  0  0  0  0  0  0  0  0  0
   -2.3404   91.1667   10.1912 C   0  0  2  0  0  0  0  0  0  0  0  0
   -1.4831   92.0582   10.9337 O   0  0  0  0  0  0  0  0  0  0  0  0
   -2.7470   89.9433   11.0206 C   0  0  0  0  0  0  0  0  0  0  0  0
   -3.4497   90.3467   12.1996 O   0  0  0  0  0  0  0  0  0  0  0  0
   -2.8888   91.9798    7.5905 C   0  0  2  0  0  0  0  0  0  0  0  0
   -1.5312   91.7104    7.9724 O   0  0  0  0  0  0  0  0  0  0  0  0
   -3.3479   90.9405    6.5628 C   0  0  1  0  0  0  0  0  0  0  0  0
   -3.6149   95.9656    7.1608 N   0  0  0  0  0  0  0  0  0  0  0  0
   -4.7596   91.2684    6.0650 C   0  0  1  0  0  0  0  0  0  0  0  0
   -5.7122   91.0844    7.1172 O   0  0  0  0  0  0  0  0  0  0  0  0
   -4.8103   92.7146    5.5649 C   0  0  2  0  0  0  0  0  0  0  0  0
   -3.9687   92.8281    4.4123 O   0  0  0  0  0  0  0  0  0  0  0  0
   -4.3192   93.6570    6.6690 C   0  0  1  0  0  0  0  0  0  0  0  0
   -2.9745   93.3092    7.0480 O   0  0  0  0  0  0  0  0  0  0  0  0
   -4.3705   95.1211    6.2239 C   0  0  0  0  0  0  0  0  0  0  0  0
   -2.4303   90.9758    5.4139 N   0  0  0  0  0  0  0  0  0  0  0  0
  1  2  1  6  0  0  0
  1  3  1  0  0  0  0
  1 10  1  0  0  0  0
  3  4  1  6  0  0  0
  3  5  1  0  0  0  0
  5  6  1  1  0  0  0
  5  7  1  0  0  0  0
  7  8  1  6  0  0  0
  7  9  1  0  0  0  0
  9 10  1  0  0  0  0
  9 11  1  1  0  0  0
 11 12  1  0  0  0  0
 13 14  1  6  0  0  0
 13 15  1  0  0  0  0
 13 21  1  0  0  0  0
 16 15  1  0  0  0  0
 16 17  1  6  0  0  0
 18  2  1  1  0  0  0
 18 16  1  0  0  0  0
 19 18  1  0  0  0  0
 19 20  1  6  0  0  0
 21 19  1  0  0  0  0
 21 22  1  6  0  0  0
 23 20  1  1  0  0  0
 23 24  1  0  0  0  0
 23 28  1  0  0  0  0
 24 25  1  6  0  0  0
 24 26  1  0  0  0  0
 26 27  1  0  0  0  0
 26 32  1  6  0  0  0
 27 28  1  0  0  0  0
 27 29  1  1  0  0  0
 29 30  1  0  0  0  0
 31 32  1  6  0  0  0
 31 40  1  0  0  0  0
 33 31  1  0  0  0  0
 33 42  1  6  0  0  0
 35 33  1  0  0  0  0
 35 36  1  1  0  0  0
 37 35  1  0  0  0  0
 37 38  1  6  0  0  0
 37 39  1  0  0  0  0
 39 40  1  0  0  0  0
 39 41  1  6  0  0  0
 41 34  1  0  0  0  0
M  END
>  <CHROM.1>
-135.10273629,46.69569837,49.40331260,178.17822557,167.49467451,-167.05410812
176.05343924,-83.46211193,-166.88462435,-0.75383188,92.36764514,11.24522810
-0.97164873,-0.56291835,-1.19461977

>  <Name>
2fcy_lig

>  <RI>
0

>  <Rbt.Current_Directory>
/home/itssahil/PROJECTS/Mol_Feturizer/New_Systems/rnas/2fcy

>  <Rbt.Executable>
rbdock ($Id: //depot/dev/client3/rdock/2013.1/src/exe/rbdock.cxx#4 $)

>  <Rbt.Library>
libRbt.so (2013.1, Build901 2013/11/27)

>  <Rbt.Parameter_File>
/export/apps/rDock/src/rDock_2013.1_src/data/scripts/dock_solv.prm

>  <Rbt.Receptor>
prm/pocket_docking_2.prm

>  <SCORE>
2.11814

>  <SCORE.INTER>
-0.543694

>  <SCORE.INTER.CONST>
1

>  <SCORE.INTER.POLAR>
-0.261324

>  <SCORE.INTER.ROT>
9

>  <SCORE.INTER.SOLV>
21.0077

>  <SCORE.INTER.VDW>
-16.094

>  <SCORE.INTER.norm>
-0.0129451

>  <SCORE.INTRA>
2.01215

>  <SCORE.INTRA.DIHEDRAL>
-4.93195

>  <SCORE.INTRA.DIHEDRAL.0>
17.3446

>  <SCORE.INTRA.POLAR>
0

>  <SCORE.INTRA.POLAR.0>
0

>  <SCORE.INTRA.REPUL>
0

>  <SCORE.INTRA.REPUL.0>
0

>  <SCORE.INTRA.SOLV>
-0.391226

>  <SCORE.INTRA.SOLV.lig_0>
-112.452

>  <SCORE.INTRA.VDW>
4.67374

>  <SCORE.INTRA.VDW.0>
-5.95059

>  <SCORE.INTRA.norm>
0.0479084

>  <SCORE.RESTR>
0.649686

>  <SCORE.RESTR.CAVITY>
0.649686

>  <SCORE.RESTR.norm>
0.0154687

>  <SCORE.SYSTEM>
0

>  <SCORE.SYSTEM.CONST>
0

>  <SCORE.SYSTEM.DIHEDRAL>
0

>  <SCORE.SYSTEM.SOLV>
0

>  <SCORE.SYSTEM.norm>
0

>  <SCORE.heavy>
42

>  <SCORE.norm>
0.050432

>  <RMSD>
2.621

$$$$
2fcy_lig
 OpenBabel11021811433D
libRbt.so/2013.1/901 2013/11/27
 42 45  0  0  0  0  0  0  0  0999 V2000
   -0.0368   91.2079   14.1184 C   0  0  2  0  0  0  0  0  0  0  0  0
    0.4743   92.4868   14.5310 O   0  0  0  0  0  0  0  0  0  0  0  0
   -1.3603   91.0378   14.8657 C   0  0  2  0  0  0  0  0  0  0  0  0
   -2.2139   92.1998   14.5827 N   0  0  0  0  0  0  0  0  0  0  0  0
   -1.0922   90.9581   16.3707 C   0  0  1  0  0  0  0  0  0  0  0  0
   -2.3166   90.7944   17.0915 O   0  0  0  0  0  0  0  0  0  0  0  0
   -0.1431   89.7936   16.6554 C   0  0  2  0  0  0  0  0  0  0  0  0
    0.1817   89.7806   18.0453 O   0  0  0  0  0  0  0  0  0  0  0  0
    1.1498   90.0077   15.8670 C   0  0  2  0  0  0  0  0  0  0  0  0
    0.8457   90.1219   14.4681 O   0  0  0  0  0  0  0  0  0  0  0  0
    2.1048   88.8419   16.1364 C   0  0  0  0  0  0  0  0  0  0  0  0
    2.6753   88.9308   17.4890 N   0  0  0  0  0  0  0  0  0  0  0  0
    2.8355   95.3494   12.5620 C   0  0  2  0  0  0  0  0  0  0  0  0
    3.8489   96.1400   11.8471 N   0  0  0  0  0  0  0  0  0  0  0  0
    3.4184   94.7486   13.8427 C   0  0  0  0  0  0  0  0  0  0  0  0
    2.2874   94.0521   14.6061 C   0  0  2  0  0  0  0  0  0  0  0  0
    2.8406   93.3921   15.7974 N   0  0  0  0  0  0  0  0  0  0  0  0
    1.5851   92.9834   13.7635 C   0  0  2  0  0  0  0  0  0  0  0  0
    1.1816   93.4388   12.3655 C   0  0  2  0  0  0  0  0  0  0  0  0
    0.9154   92.2339   11.6297 O   0  0  0  0  0  0  0  0  0  0  0  0
    2.3059   94.2210   11.6736 C   0  0  1  0  0  0  0  0  0  0  0  0
    1.8433   94.8051   10.4529 O   0  0  0  0  0  0  0  0  0  0  0  0
    0.2142   92.4044   10.3873 C   0  0  1  0  0  0  0  0  0  0  0  0
    0.0393   91.0195    9.7620 C   0  0  2  0  0  0  0  0  0  0  0  0
    1.2223   90.6638    9.0425 O   0  0  0  0  0  0  0  0  0  0  0  0
   -1.0781   91.3472    8.7758 C   0  0  1  0  0  0  0  0  0  0  0  0
   -2.0013   92.1620    9.6679 C   0  0  2  0  0  0  0  0  0  0  0  0
   -1.1307   92.8991   10.5508 O   0  0  0  0  0  0  0  0  0  0  0  0
   -2.9224   91.2094   10.4388 C   0  0  0  0  0  0  0  0  0  0  0  0
   -3.8213   91.9456   11.2734 O   0  0  0  0  0  0  0  0  0  0  0  0
    0.0145   91.3351    6.7011 C   0  0  2  0  0  0  0  0  0  0  0  0
   -0.5660   92.1694    7.7151 O   0  0  0  0  0  0  0  0  0  0  0  0
    0.6066   92.2119    5.5930 C   0  0  1  0  0  0  0  0  0  0  0  0
   -2.0120   87.7893    5.8989 N   0  0  0  0  0  0  0  0  0  0  0  0
    1.1414   91.3414    4.4508 C   0  0  1  0  0  0  0  0  0  0  0  0
    2.2865   90.6011    4.8853 O   0  0  0  0  0  0  0  0  0  0  0  0
    0.0489   90.3789    3.9771 C   0  0  2  0  0  0  0  0  0  0  0  0
   -1.0147   91.1445    3.4008 O   0  0  0  0  0  0  0  0  0  0  0  0
   -0.4727   89.5682    5.1684 C   0  0  1  0  0  0  0  0  0  0  0  0
   -0.9948   90.4560    6.1744 O   0  0  0  0  0  0  0  0  0  0  0  0
   -1.5556   88.5734    4.7418 C   0  0  0  0  0  0  0  0  0  0  0  0
   -0.4553   93.0781    5.0589 N   0  0  0  0  0  0  0  0  0  0  0  0
  1  2  1  1  0  0  0
  1  3  1  0  0  0  0
  1 10  1  0  0  0  0
  3  4  1  1  0  0  0
  3  5  1  0  0  0  0
  5  6  1  1  0  0  0
  5  7  1  0  0  0  0
  7  8  1  1  0  0  0
  7  9  1  0  0  0  0
  9 10  1  0  0  0  0
  9 11  1  6  0  0  0
 11 12  1  0  0  0  0
 13 14  1  6  0  0  0
 13 15  1  0  0  0  0
 13 21  1  0  0  0  0
 16 15  1  0  0  0  0
 16 17  1  1  0  0  0
 18  2  1  1  0  0  0
 18 16  1  0  0  0  0
 19 18  1  0  0  0  0
 19 20  1  6  0  0  0
 21 19  1  0  0  0  0
 21 22  1  6  0  0  0
 23 20  1  1  0  0  0
 23 24  1  0  0  0  0
 23 28  1  0  0  0  0
 24 25  1  6  0  0  0
 24 26  1  0  0  0  0
 26 27  1  0  0  0  0
 26 32  1  6  0  0  0
 27 28  1  0  0  0  0
 27 29  1  1  0  0  0
 29 30  1  0  0  0  0
 31 32  1  1  0  0  0
 31 40  1  0  0  0  0
 33 31  1  0  0  0  0
 33 42  1  6  0  0  0
 35 33  1  0  0  0  0
 35 36  1  1  0  0  0
 37 35  1  0  0  0  0
 37 38  1  1  0  0  0
 37 39  1  0  0  0  0
 39 40  1  0  0  0  0
 39 41  1  6  0  0  0
 41 34  1  0  0  0  0
M  END
>  <CHROM.1>
-168.40318370,-73.13364883,-160.58256557,165.70849629,179.65558359,84.99991392
-179.04493660,-177.96391150,178.63476957,0.23700830,91.65195289,11.00030284
1.40910060,0.84391284,1.63477290

>  <Name>
2fcy_lig

>  <RI>
224

>  <Rbt.Current_Directory>
/home/itssahil/PROJECTS/Mol_Feturizer/New_Systems/rnas/2fcy

>  <Rbt.Executable>
rbdock ($Id: //depot/dev/client3/rdock/2013.1/src/exe/rbdock.cxx#4 $)

>  <Rbt.Library>
libRbt.so (2013.1, Build901 2013/11/27)

>  <Rbt.Parameter_File>
/export/apps/rDock/src/rDock_2013.1_src/data/scripts/dock_solv.prm

>  <Rbt.Receptor>
prm/pocket_docking_6.prm

>  <SCORE>
-26.9397

>  <SCORE.INTER>
-22.1426

>  <SCORE.INTER.CONST>
1

>  <SCORE.INTER.POLAR>
-1.75873

>  <SCORE.INTER.ROT>
9

>  <SCORE.INTER.SOLV>
17.7665

>  <SCORE.INTER.VDW>
-24.4214

>  <SCORE.INTER.norm>
-0.527204

>  <SCORE.INTRA>
-4.79713

>  <SCORE.INTRA.DIHEDRAL>
-10.4138

>  <SCORE.INTRA.DIHEDRAL.0>
17.3446

>  <SCORE.INTRA.POLAR>
0

>  <SCORE.INTRA.POLAR.0>
0

>  <SCORE.INTRA.REPUL>
0

>  <SCORE.INTRA.REPUL.0>
0

>  <SCORE.INTRA.SOLV>
-3.70865

>  <SCORE.INTRA.SOLV.lig_0>
-112.452

>  <SCORE.INTRA.VDW>
2.26412

>  <SCORE.INTRA.VDW.0>
-5.95059

>  <SCORE.INTRA.norm>
-0.114217

>  <SCORE.RESTR>
0

>  <SCORE.RESTR.CAVITY>
0

>  <SCORE.RESTR.norm>
0

>  <SCORE.SYSTEM>
0

>  <SCORE.SYSTEM.CONST>
0

>  <SCORE.SYSTEM.DIHEDRAL>
0

>  <SCORE.SYSTEM.SOLV>
0

>  <SCORE.SYSTEM.norm>
0

>  <SCORE.heavy>
42

>  <SCORE.norm>
-0.641422

>  <RMSD>
2.623

$$$$
2fcy_lig
 OpenBabel11021811433D
libRbt.so/2013.1/901 2013/11/27
 42 45  0  0  0  0  0  0  0  0999 V2000
    0.1388   91.0921   14.3637 C   0  0  2  0  0  0  0  0  0  0  0  0
    0.5486   92.4032   14.7883 O   0  0  0  0  0  0  0  0  0  0  0  0
   -1.2680   90.9010   14.9323 C   0  0  2  0  0  0  0  0  0  0  0  0
   -2.1112   92.0197   14.4891 N   0  0  0  0  0  0  0  0  0  0  0  0
   -1.2048   90.8864   16.4617 C   0  0  1  0  0  0  0  0  0  0  0  0
   -2.5101   90.7044   17.0172 O   0  0  0  0  0  0  0  0  0  0  0  0
   -0.2671   89.7688   16.9195 C   0  0  2  0  0  0  0  0  0  0  0  0
   -0.1341   89.8187   18.3399 O   0  0  0  0  0  0  0  0  0  0  0  0
    1.1137   90.0013   16.3043 C   0  0  2  0  0  0  0  0  0  0  0  0
    0.9993   90.0529   14.8737 O   0  0  0  0  0  0  0  0  0  0  0  0
    2.0593   88.8820   16.7479 C   0  0  0  0  0  0  0  0  0  0  0  0
    3.4359   89.1497   16.3051 N   0  0  0  0  0  0  0  0  0  0  0  0
    3.0696   95.1841   12.9020 C   0  0  2  0  0  0  0  0  0  0  0  0
    4.1540   95.9640   12.2866 N   0  0  0  0  0  0  0  0  0  0  0  0
    3.4111   94.8262   14.3498 C   0  0  0  0  0  0  0  0  0  0  0  0
    2.1954   94.1343   14.9746 C   0  0  2  0  0  0  0  0  0  0  0  0
    2.5307   93.7026   16.3392 N   0  0  0  0  0  0  0  0  0  0  0  0
    1.7590   92.8957   14.1866 C   0  0  2  0  0  0  0  0  0  0  0  0
    1.6269   93.1117   12.6832 C   0  0  2  0  0  0  0  0  0  0  0  0
    1.6028   91.7964   12.1056 O   0  0  0  0  0  0  0  0  0  0  0  0
    2.8152   93.8974   12.1130 C   0  0  1  0  0  0  0  0  0  0  0  0
    2.5796   94.2589   10.7496 O   0  0  0  0  0  0  0  0  0  0  0  0
    0.4230   91.4669   11.3548 C   0  0  1  0  0  0  0  0  0  0  0  0
    0.4888   92.2319   10.0319 C   0  0  2  0  0  0  0  0  0  0  0  0
   -0.0049   93.5603   10.2197 O   0  0  0  0  0  0  0  0  0  0  0  0
   -0.5291   91.4170    9.2392 C   0  0  1  0  0  0  0  0  0  0  0  0
   -0.0901   90.0060    9.5978 C   0  0  2  0  0  0  0  0  0  0  0  0
    0.3590   90.0792   10.9666 O   0  0  0  0  0  0  0  0  0  0  0  0
    1.0353   89.5753    8.6500 C   0  0  0  0  0  0  0  0  0  0  0  0
    1.9615   88.7199    9.3259 O   0  0  0  0  0  0  0  0  0  0  0  0
   -2.8187   91.3099    8.7446 C   0  0  2  0  0  0  0  0  0  0  0  0
   -1.8509   91.6648    9.7440 O   0  0  0  0  0  0  0  0  0  0  0  0
   -4.2296   91.5678    9.2831 C   0  0  1  0  0  0  0  0  0  0  0  0
   -3.7353   87.8322    5.5712 N   0  0  0  0  0  0  0  0  0  0  0  0
   -5.2816   91.1007    8.2714 C   0  0  1  0  0  0  0  0  0  0  0  0
   -5.2534   91.9317    7.1066 O   0  0  0  0  0  0  0  0  0  0  0  0
   -5.0130   89.6454    7.8785 C   0  0  2  0  0  0  0  0  0  0  0  0
   -5.2061   88.8189    9.0313 O   0  0  0  0  0  0  0  0  0  0  0  0
   -3.5743   89.5086    7.3688 C   0  0  1  0  0  0  0  0  0  0  0  0
   -2.6504   89.9258    8.3911 O   0  0  0  0  0  0  0  0  0  0  0  0
   -3.2620   88.0716    6.9425 C   0  0  0  0  0  0  0  0  0  0  0  0
   -4.4076   90.8013   10.5257 N   0  0  0  0  0  0  0  0  0  0  0  0
  1  2  1  1  0  0  0
  1  3  1  0  0  0  0
  1 10  1  0  0  0  0
  3  4  1  1  0  0  0
  3  5  1  0  0  0  0
  5  6  1  1  0  0  0
  5  7  1  0  0  0  0
  7  8  1  1  0  0  0
  7  9  1  0  0  0  0
  9 10  1  0  0  0  0
  9 11  1  6  0  0  0
 11 12  1  0  0  0  0
 13 14  1  6  0  0  0
 13 15  1  0  0  0  0
 13 21  1  0  0  0  0
 16 15  1  0  0  0  0
 16 17  1  1  0  0  0
 18  2  1  1  0  0  0
 18 16  1  0  0  0  0
 19 18  1  0  0  0  0
 19 20  1  6  0  0  0
 21 19  1  0  0  0  0
 21 22  1  6  0  0  0
 23 20  1  1  0  0  0
 23 24  1  0  0  0  0
 23 28  1  0  0  0  0
 24 25  1  1  0  0  0
 24 26  1  0  0  0  0
 26 27  1  0  0  0  0
 26 32  1  1  0  0  0
 27 28  1  0  0  0  0
 27 29  1  6  0  0  0
 29 30  1  0  0  0  0
 31 32  1  1  0  0  0
 31 40  1  0  0  0  0
 33 31  1  0  0  0  0
 33 42  1  1  0  0  0
 35 33  1  0  0  0  0
 35 36  1  6  0  0  0
 37 35  1  0  0  0  0
 37 38  1  1  0  0  0
 37 39  1  0  0  0  0
 39 40  1  0  0  0  0
 39 41  1  1  0  0  0
 41 34  1  0  0  0  0
M  END
>  <CHROM.1>
-170.15658994,-173.49552002,-167.62262966,120.27739710,73.64555579,159.39902591
146.56130517,179.75914324,83.07953184,-0.41630579,91.28231661,11.95361464
0.80283073,0.63480163,1.82103493

>  <Name>
2fcy_lig

>  <RI>
0

>  <Rbt.Current_Directory>
/home/itssahil/PROJECTS/Mol_Feturizer/New_Systems/rnas/2fcy

>  <Rbt.Executable>
rbdock ($Id: //depot/dev/client3/rdock/2013.1/src/exe/rbdock.cxx#4 $)

>  <Rbt.Library>
libRbt.so (2013.1, Build901 2013/11/27)

>  <Rbt.Parameter_File>
/export/apps/rDock/src/rDock_2013.1_src/data/scripts/dock_solv.prm

>  <Rbt.Receptor>
prm/pocket_docking_5.prm

>  <SCORE>
-23.2017

>  <SCORE.INTER>
-22.5541

>  <SCORE.INTER.CONST>
1

>  <SCORE.INTER.POLAR>
-2.27746

>  <SCORE.INTER.ROT>
9

>  <SCORE.INTER.SOLV>
21.1269

>  <SCORE.INTER.VDW>
-24.0868

>  <SCORE.INTER.norm>
-0.537002

>  <SCORE.INTRA>
-0.647606

>  <SCORE.INTRA.DIHEDRAL>
-0.805976

>  <SCORE.INTRA.DIHEDRAL.0>
17.3446

>  <SCORE.INTRA.POLAR>
0

>  <SCORE.INTRA.POLAR.0>
0

>  <SCORE.INTRA.REPUL>
0.00199918

>  <SCORE.INTRA.REPUL.0>
0

>  <SCORE.INTRA.SOLV>
-4.7267

>  <SCORE.INTRA.SOLV.lig_0>
-112.452

>  <SCORE.INTRA.VDW>
2.10874

>  <SCORE.INTRA.VDW.0>
-5.95059

>  <SCORE.INTRA.norm>
-0.0154192

>  <SCORE.RESTR>
0

>  <SCORE.RESTR.CAVITY>
0

>  <SCORE.RESTR.norm>
0

>  <SCORE.SYSTEM>
0

>  <SCORE.SYSTEM.CONST>
0

>  <SCORE.SYSTEM.DIHEDRAL>
0

>  <SCORE.SYSTEM.SOLV>
0

>  <SCORE.SYSTEM.norm>
0

>  <SCORE.heavy>
42

>  <SCORE.norm>
-0.552421

>  <RMSD>
2.649

$$$$
2fcy_lig
 OpenBabel11021811433D
libRbt.so/2013.1/901 2013/11/27
 42 45  0  0  0  0  0  0  0  0999 V2000
   -0.2290   91.1035   13.8025 C   0  0  2  0  0  0  0  0  0  0  0  0
    0.0350   92.5168   13.8048 O   0  0  0  0  0  0  0  0  0  0  0  0
   -1.4454   90.9148   14.7101 C   0  0  2  0  0  0  0  0  0  0  0  0
   -2.5317   91.7786   14.2276 N   0  0  0  0  0  0  0  0  0  0  0  0
   -1.0809   91.3086   16.1437 C   0  0  1  0  0  0  0  0  0  0  0  0
   -2.2033   91.1363   17.0133 O   0  0  0  0  0  0  0  0  0  0  0  0
    0.0993   90.4600   16.6178 C   0  0  2  0  0  0  0  0  0  0  0  0
    0.4992   90.8947   17.9174 O   0  0  0  0  0  0  0  0  0  0  0  0
    1.2746   90.6733   15.6627 C   0  0  2  0  0  0  0  0  0  0  0  0
    0.8740   90.3352   14.3256 O   0  0  0  0  0  0  0  0  0  0  0  0
    2.4600   89.8202   16.1219 C   0  0  0  0  0  0  0  0  0  0  0  0
    2.1490   88.3868   16.0164 N   0  0  0  0  0  0  0  0  0  0  0  0
    1.3880   95.0537   10.7421 C   0  0  2  0  0  0  0  0  0  0  0  0
    2.0961   95.7828    9.6791 N   0  0  0  0  0  0  0  0  0  0  0  0
    2.2036   95.0521   12.0366 C   0  0  0  0  0  0  0  0  0  0  0  0
    1.3609   94.3977   13.1360 C   0  0  2  0  0  0  0  0  0  0  0  0
    2.1573   94.3059   14.3682 N   0  0  0  0  0  0  0  0  0  0  0  0
    0.9117   92.9818   12.7634 C   0  0  2  0  0  0  0  0  0  0  0  0
    0.2989   92.8538   11.3732 C   0  0  2  0  0  0  0  0  0  0  0  0
    0.3129   91.4487   11.0739 O   0  0  0  0  0  0  0  0  0  0  0  0
    1.1173   93.6084   10.3171 C   0  0  1  0  0  0  0  0  0  0  0  0
    0.4261   93.6420    9.0656 O   0  0  0  0  0  0  0  0  0  0  0  0
   -0.1709   91.0841    9.7711 C   0  0  1  0  0  0  0  0  0  0  0  0
    0.2605   89.6408    9.5055 C   0  0  2  0  0  0  0  0  0  0  0  0
    1.6012   89.6232    9.0097 O   0  0  0  0  0  0  0  0  0  0  0  0
   -0.7067   89.3120    8.3720 C   0  0  1  0  0  0  0  0  0  0  0  0
   -1.9985   89.8778    8.9407 C   0  0  2  0  0  0  0  0  0  0  0  0
   -1.6102   91.0529    9.6817 O   0  0  0  0  0  0  0  0  0  0  0  0
   -2.6526   88.8246    9.8424 C   0  0  0  0  0  0  0  0  0  0  0  0
   -2.9530   87.6414    9.0967 O   0  0  0  0  0  0  0  0  0  0  0  0
   -1.0886   89.5430    6.0700 C   0  0  2  0  0  0  0  0  0  0  0  0
   -0.3324   90.0334    7.1876 O   0  0  0  0  0  0  0  0  0  0  0  0
   -0.3873   89.9345    4.7654 C   0  0  1  0  0  0  0  0  0  0  0  0
   -5.2265   89.6538    6.5004 N   0  0  0  0  0  0  0  0  0  0  0  0
   -1.2293   89.5096    3.5575 C   0  0  1  0  0  0  0  0  0  0  0  0
   -1.2670   88.0825    3.4560 O   0  0  0  0  0  0  0  0  0  0  0  0
   -2.6517   90.0586    3.6980 C   0  0  2  0  0  0  0  0  0  0  0  0
   -2.5970   91.4878    3.6350 O   0  0  0  0  0  0  0  0  0  0  0  0
   -3.2432   89.6141    5.0400 C   0  0  1  0  0  0  0  0  0  0  0  0
   -2.4185   90.0887    6.1204 O   0  0  0  0  0  0  0  0  0  0  0  0
   -4.6764   90.1218    5.2197 C   0  0  0  0  0  0  0  0  0  0  0  0
   -0.2333   91.3968    4.7330 N   0  0  0  0  0  0  0  0  0  0  0  0
  1  2  1  1  0  0  0
  1  3  1  0  0  0  0
  1 10  1  0  0  0  0
  3  4  1  6  0  0  0
  3  5  1  0  0  0  0
  5  6  1  1  0  0  0
  5  7  1  0  0  0  0
  7  8  1  1  0  0  0
  7  9  1  0  0  0  0
  9 10  1  0  0  0  0
  9 11  1  1  0  0  0
 11 12  1  0  0  0  0
 13 14  1  6  0  0  0
 13 15  1  0  0  0  0
 13 21  1  0  0  0  0
 16 15  1  0  0  0  0
 16 17  1  1  0  0  0
 18  2  1  1  0  0  0
 18 16  1  0  0  0  0
 19 18  1  0  0  0  0
 19 20  1  6  0  0  0
 21 19  1  0  0  0  0
 21 22  1  6  0  0  0
 23 20  1  1  0  0  0
 23 24  1  0  0  0  0
 23 28  1  0  0  0  0
 24 25  1  6  0  0  0
 24 26  1  0  0  0  0
 26 27  1  0  0  0  0
 26 32  1  6  0  0  0
 27 28  1  0  0  0  0
 27 29  1  1  0  0  0
 29 30  1  0  0  0  0
 31 32  1  1  0  0  0
 31 40  1  0  0  0  0
 33 31  1  0  0  0  0
 33 42  1  1  0  0  0
 35 33  1  0  0  0  0
 35 36  1  1  0  0  0
 37 35  1  0  0  0  0
 37 38  1  1  0  0  0
 37 39  1  0  0  0  0
 39 40  1  0  0  0  0
 39 41  1  1  0  0  0
 41 34  1  0  0  0  0
M  END
>  <CHROM.1>
-164.71023497,65.05449090,-165.45135853,-177.40720758,165.28202923,169.69537992
-60.24973577,-160.64475676,178.69480671,-0.52338126,91.04977861,10.35215287
1.13825541,0.93671799,1.75953401

>  <Name>
2fcy_lig

>  <RI>
0

>  <Rbt.Current_Directory>
/home/itssahil/PROJECTS/Mol_Feturizer/New_Systems/rnas/2fcy

>  <Rbt.Executable>
rbdock ($Id: //depot/dev/client3/rdock/2013.1/src/exe/rbdock.cxx#4 $)

>  <Rbt.Library>
libRbt.so (2013.1, Build901 2013/11/27)

>  <Rbt.Parameter_File>
/export/apps/rDock/src/rDock_2013.1_src/data/scripts/dock_solv.prm

>  <Rbt.Receptor>
prm/pocket_docking_5.prm

>  <SCORE>
-17.9236

>  <SCORE.INTER>
-13.3115

>  <SCORE.INTER.CONST>
1

>  <SCORE.INTER.POLAR>
-1.56867

>  <SCORE.INTER.ROT>
9

>  <SCORE.INTER.SOLV>
22.373

>  <SCORE.INTER.VDW>
-20.7031

>  <SCORE.INTER.norm>
-0.31694

>  <SCORE.INTRA>
-4.61214

>  <SCORE.INTRA.DIHEDRAL>
-11.3562

>  <SCORE.INTRA.DIHEDRAL.0>
17.3446

>  <SCORE.INTRA.POLAR>
0

>  <SCORE.INTRA.POLAR.0>
0

>  <SCORE.INTRA.REPUL>
0

>  <SCORE.INTRA.REPUL.0>
0

>  <SCORE.INTRA.SOLV>
-3.2979

>  <SCORE.INTRA.SOLV.lig_0>
-112.452

>  <SCORE.INTRA.VDW>
2.71489

>  <SCORE.INTRA.VDW.0>
-5.95059

>  <SCORE.INTRA.norm>
-0.109813

>  <SCORE.RESTR>
0

>  <SCORE.RESTR.CAVITY>
0

>  <SCORE.RESTR.norm>
0

>  <SCORE.SYSTEM>
0

>  <SCORE.SYSTEM.CONST>
0

>  <SCORE.SYSTEM.DIHEDRAL>
0

>  <SCORE.SYSTEM.SOLV>
0

>  <SCORE.SYSTEM.norm>
0

>  <SCORE.heavy>
42

>  <SCORE.norm>
-0.426753

>  <RMSD>
2.698

$$$$
2fcy_lig
 OpenBabel11021811433D
libRbt.so/2013.1/901 2013/11/27
 42 45  0  0  0  0  0  0  0  0999 V2000
    0.9443   92.9512   15.0400 C   0  0  2  0  0  0  0  0  0  0  0  0
    1.5788   92.0837   14.0850 O   0  0  0  0  0  0  0  0  0  0  0  0
    1.4993   92.5324   16.4023 C   0  0  2  0  0  0  0  0  0  0  0  0
    2.9666   92.5874   16.3503 N   0  0  0  0  0  0  0  0  0  0  0  0
    1.0547   91.1023   16.7188 C   0  0  1  0  0  0  0  0  0  0  0  0
    1.5588   90.6892   17.9920 O   0  0  0  0  0  0  0  0  0  0  0  0
   -0.4725   91.0300   16.6983 C   0  0  2  0  0  0  0  0  0  0  0  0
   -0.8821   89.6772   16.8978 O   0  0  0  0  0  0  0  0  0  0  0  0
   -0.9684   91.4790   15.3229 C   0  0  2  0  0  0  0  0  0  0  0  0
   -0.4906   92.8055   15.0498 O   0  0  0  0  0  0  0  0  0  0  0  0
   -2.4980   91.4204   15.2936 C   0  0  0  0  0  0  0  0  0  0  0  0
   -3.0366   92.2690   14.2202 N   0  0  0  0  0  0  0  0  0  0  0  0
    2.1942   95.2293   11.3696 C   0  0  2  0  0  0  0  0  0  0  0  0
    2.5930   96.1527   10.2966 N   0  0  0  0  0  0  0  0  0  0  0  0
    3.4110   94.7817   12.1820 C   0  0  0  0  0  0  0  0  0  0  0  0
    2.9188   93.9331   13.3588 C   0  0  2  0  0  0  0  0  0  0  0  0
    4.0767   93.4188   14.1042 N   0  0  0  0  0  0  0  0  0  0  0  0
    2.0845   92.7319   12.9044 C   0  0  2  0  0  0  0  0  0  0  0  0
    0.9898   93.0622   11.8960 C   0  0  2  0  0  0  0  0  0  0  0  0
    0.6049   91.8039   11.3192 O   0  0  0  0  0  0  0  0  0  0  0  0
    1.4965   93.9967   10.7894 C   0  0  1  0  0  0  0  0  0  0  0  0
    0.4149   94.4503    9.9711 O   0  0  0  0  0  0  0  0  0  0  0  0
   -0.5015   91.8504   10.4037 C   0  0  1  0  0  0  0  0  0  0  0  0
   -0.5725   90.4962    9.6961 C   0  0  2  0  0  0  0  0  0  0  0  0
    0.3365   90.4820    8.5928 O   0  0  0  0  0  0  0  0  0  0  0  0
   -2.0046   90.5786    9.1758 C   0  0  1  0  0  0  0  0  0  0  0  0
   -2.7179   91.0940   10.4158 C   0  0  2  0  0  0  0  0  0  0  0  0
   -1.7808   91.9841   11.0563 O   0  0  0  0  0  0  0  0  0  0  0  0
   -3.0824   89.9064   11.3142 C   0  0  0  0  0  0  0  0  0  0  0  0
   -1.9425   89.4743   12.0628 O   0  0  0  0  0  0  0  0  0  0  0  0
   -3.4487   91.6795    7.6923 C   0  0  2  0  0  0  0  0  0  0  0  0
   -2.0847   91.5510    8.1216 O   0  0  0  0  0  0  0  0  0  0  0  0
   -3.7268   90.6819    6.5633 C   0  0  1  0  0  0  0  0  0  0  0  0
   -4.3269   95.1506    5.4588 N   0  0  0  0  0  0  0  0  0  0  0  0
   -5.1473   90.8713    6.0203 C   0  0  1  0  0  0  0  0  0  0  0  0
   -6.1108   90.4807    7.0039 O   0  0  0  0  0  0  0  0  0  0  0  0
   -5.3636   92.3370    5.6340 C   0  0  2  0  0  0  0  0  0  0  0  0
   -4.4968   92.6525    4.5392 O   0  0  0  0  0  0  0  0  0  0  0  0
   -5.0445   93.2363    6.8330 C   0  0  1  0  0  0  0  0  0  0  0  0
   -3.6830   93.0289    7.2527 O   0  0  0  0  0  0  0  0  0  0  0  0
   -5.2660   94.7149    6.5028 C   0  0  0  0  0  0  0  0  0  0  0  0
   -2.7748   90.9294    5.4700 N   0  0  0  0  0  0  0  0  0  0  0  0
  1  2  1  6  0  0  0
  1  3  1  0  0  0  0
  1 10  1  0  0  0  0
  3  4  1  6  0  0  0
  3  5  1  0  0  0  0
  5  6  1  1  0  0  0
  5  7  1  0  0  0  0
  7  8  1  6  0  0  0
  7  9  1  0  0  0  0
  9 10  1  0  0  0  0
  9 11  1  1  0  0  0
 11 12  1  0  0  0  0
 13 14  1  6  0  0  0
 13 15  1  0  0  0  0
 13 21  1  0  0  0  0
 16 15  1  0  0  0  0
 16 17  1  6  0  0  0
 18  2  1  1  0  0  0
 18 16  1  0  0  0  0
 19 18  1  0  0  0  0
 19 20  1  6  0  0  0
 21 19  1  0  0  0  0
 21 22  1  1  0  0  0
 23 20  1  1  0  0  0
 23 24  1  0  0  0  0
 23 28  1  0  0  0  0
 24 25  1  6  0  0  0
 24 26  1  0  0  0  0
 26 27  1  0  0  0  0
 26 32  1  6  0  0  0
 27 28  1  0  0  0  0
 27 29  1  1  0  0  0
 29 30  1  0  0  0  0
 31 32  1  6  0  0  0
 31 40  1  0  0  0  0
 33 31  1  0  0  0  0
 33 42  1  6  0  0  0
 35 33  1  0  0  0  0
 35 36  1  1  0  0  0
 37 35  1  0  0  0  0
 37 38  1  6  0  0  0
 37 39  1  0  0  0  0
 39 40  1  0  0  0  0
 39 41  1  6  0  0  0
 41 34  1  0  0  0  0
M  END
>  <CHROM.1>
-134.70260042,159.65520085,49.54255228,175.25518615,168.79195810,-176.60387204
79.30672276,-89.91638350,-64.43949806,-1.01005816,92.19948831,11.13947763
-0.89245452,-0.57263312,-1.16227964

>  <Name>
2fcy_lig

>  <RI>
0

>  <Rbt.Current_Directory>
/home/itssahil/PROJECTS/Mol_Feturizer/New_Systems/rnas/2fcy

>  <Rbt.Executable>
rbdock ($Id: //depot/dev/client3/rdock/2013.1/src/exe/rbdock.cxx#4 $)

>  <Rbt.Library>
libRbt.so (2013.1, Build901 2013/11/27)

>  <Rbt.Parameter_File>
/export/apps/rDock/src/rDock_2013.1_src/data/scripts/dock_solv.prm

>  <Rbt.Receptor>
prm/pocket_docking_2.prm

>  <SCORE>
4.39464

>  <SCORE.INTER>
0.917914

>  <SCORE.INTER.CONST>
1

>  <SCORE.INTER.POLAR>
0

>  <SCORE.INTER.ROT>
9

>  <SCORE.INTER.SOLV>
17.5931

>  <SCORE.INTER.VDW>
-14.8524

>  <SCORE.INTER.norm>
0.0218551

>  <SCORE.INTRA>
3.16006

>  <SCORE.INTRA.DIHEDRAL>
-3.04322

>  <SCORE.INTRA.DIHEDRAL.0>
17.3446

>  <SCORE.INTRA.POLAR>
0

>  <SCORE.INTRA.POLAR.0>
0

>  <SCORE.INTRA.REPUL>
0

>  <SCORE.INTRA.REPUL.0>
0

>  <SCORE.INTRA.SOLV>
2.53356

>  <SCORE.INTRA.SOLV.lig_0>
-112.452

>  <SCORE.INTRA.VDW>
3.41489

>  <SCORE.INTRA.VDW.0>
-5.95059

>  <SCORE.INTRA.norm>
0.0752395

>  <SCORE.RESTR>
0.316665

>  <SCORE.RESTR.CAVITY>
0.316665

>  <SCORE.RESTR.norm>
0.00753963

>  <SCORE.SYSTEM>
0

>  <SCORE.SYSTEM.CONST>
0

>  <SCORE.SYSTEM.DIHEDRAL>
0

>  <SCORE.SYSTEM.SOLV>
0

>  <SCORE.SYSTEM.norm>
0

>  <SCORE.heavy>
42

>  <SCORE.norm>
0.104634

>  <RMSD>
2.722

$$$$
2fcy_lig
 OpenBabel11021811433D
libRbt.so/2013.1/901 2013/11/27
 42 45  0  0  0  0  0  0  0  0999 V2000
   -0.0669   90.9150   14.0900 C   0  0  2  0  0  0  0  0  0  0  0  0
    0.4536   92.2331   14.3328 O   0  0  0  0  0  0  0  0  0  0  0  0
   -1.3475   90.8234   14.9210 C   0  0  2  0  0  0  0  0  0  0  0  0
   -2.2254   91.9446   14.5588 N   0  0  0  0  0  0  0  0  0  0  0  0
   -0.9997   90.9098   16.4092 C   0  0  1  0  0  0  0  0  0  0  0  0
   -2.1830   90.8219   17.2080 O   0  0  0  0  0  0  0  0  0  0  0  0
   -0.0264   89.7866   16.7683 C   0  0  2  0  0  0  0  0  0  0  0  0
    0.3713   89.9269   18.1320 O   0  0  0  0  0  0  0  0  0  0  0  0
    1.2212   89.9175   15.8933 C   0  0  2  0  0  0  0  0  0  0  0  0
    0.8427   89.8768   14.5086 O   0  0  0  0  0  0  0  0  0  0  0  0
    2.1997   88.7913   16.2371 C   0  0  0  0  0  0  0  0  0  0  0  0
    2.8365   89.0274   17.5414 N   0  0  0  0  0  0  0  0  0  0  0  0
    2.6420   94.7288   11.7581 C   0  0  2  0  0  0  0  0  0  0  0  0
    3.6137   95.4103   10.8896 N   0  0  0  0  0  0  0  0  0  0  0  0
    3.2162   94.5252   13.1615 C   0  0  0  0  0  0  0  0  0  0  0  0
    2.1170   93.9351   14.0507 C   0  0  2  0  0  0  0  0  0  0  0  0
    2.6708   93.6492   15.3820 N   0  0  0  0  0  0  0  0  0  0  0  0
    1.5505   92.6276   13.4896 C   0  0  2  0  0  0  0  0  0  0  0  0
    1.1729   92.6792   12.0134 C   0  0  2  0  0  0  0  0  0  0  0  0
    1.0475   91.3091   11.5997 O   0  0  0  0  0  0  0  0  0  0  0  0
    2.2547   93.3691   11.1716 C   0  0  1  0  0  0  0  0  0  0  0  0
    1.7989   93.5832    9.8331 O   0  0  0  0  0  0  0  0  0  0  0  0
   -0.0013   91.0365   10.6563 C   0  0  1  0  0  0  0  0  0  0  0  0
   -1.3319   91.1322   11.4045 C   0  0  2  0  0  0  0  0  0  0  0  0
   -1.6043   89.8922   12.0618 O   0  0  0  0  0  0  0  0  0  0  0  0
   -2.2636   91.2896   10.2064 C   0  0  1  0  0  0  0  0  0  0  0  0
   -1.4980   92.3248    9.3975 C   0  0  2  0  0  0  0  0  0  0  0  0
   -0.1034   92.0245    9.6104 O   0  0  0  0  0  0  0  0  0  0  0  0
   -1.8638   93.7255    9.9020 C   0  0  0  0  0  0  0  0  0  0  0  0
   -1.2095   94.7282    9.1191 O   0  0  0  0  0  0  0  0  0  0  0  0
   -3.6316   89.9300    8.8727 C   0  0  2  0  0  0  0  0  0  0  0  0
   -2.3364   90.0524    9.4800 O   0  0  0  0  0  0  0  0  0  0  0  0
   -3.7479   88.5664    8.1842 C   0  0  1  0  0  0  0  0  0  0  0  0
   -6.6842   92.2557    5.9234 N   0  0  0  0  0  0  0  0  0  0  0  0
   -5.0843   88.4541    7.4426 C   0  0  1  0  0  0  0  0  0  0  0  0
   -6.1677   88.4070    8.3766 O   0  0  0  0  0  0  0  0  0  0  0  0
   -5.2587   89.6513    6.5041 C   0  0  2  0  0  0  0  0  0  0  0  0
   -4.2556   89.5815    5.4850 O   0  0  0  0  0  0  0  0  0  0  0  0
   -5.1103   90.9528    7.2993 C   0  0  1  0  0  0  0  0  0  0  0  0
   -3.8157   90.9985    7.9275 O   0  0  0  0  0  0  0  0  0  0  0  0
   -5.2975   92.1827    6.4067 C   0  0  0  0  0  0  0  0  0  0  0  0
   -2.6600   88.4392    7.2027 N   0  0  0  0  0  0  0  0  0  0  0  0
  1  2  1  1  0  0  0
  1  3  1  0  0  0  0
  1 10  1  0  0  0  0
  3  4  1  6  0  0  0
  3  5  1  0  0  0  0
  5  6  1  1  0  0  0
  5  7  1  0  0  0  0
  7  8  1  1  0  0  0
  7  9  1  0  0  0  0
  9 10  1  0  0  0  0
  9 11  1  1  0  0  0
 11 12  1  0  0  0  0
 13 14  1  6  0  0  0
 13 15  1  0  0  0  0
 13 21  1  0  0  0  0
 16 15  1  0  0  0  0
 16 17  1  1  0  0  0
 18  2  1  1  0  0  0
 18 16  1  0  0  0  0
 19 18  1  0  0  0  0
 19 20  1  6  0  0  0
 21 19  1  0  0  0  0
 21 22  1  6  0  0  0
 23 20  1  1  0  0  0
 23 24  1  0  0  0  0
 23 28  1  0  0  0  0
 24 25  1  6  0  0  0
 24 26  1  0  0  0  0
 26 27  1  0  0  0  0
 26 32  1  6  0  0  0
 27 28  1  0  0  0  0
 27 29  1  1  0  0  0
 29 30  1  0  0  0  0
 31 32  1  6  0  0  0
 31 40  1  0  0  0  0
 33 31  1  0  0  0  0
 33 42  1  6  0  0  0
 35 33  1  0  0  0  0
 35 36  1  1  0  0  0
 37 35  1  0  0  0  0
 37 38  1  6  0  0  0
 37 39  1  0  0  0  0
 39 40  1  0  0  0  0
 39 41  1  6  0  0  0
 41 34  1  0  0  0  0
M  END
>  <CHROM.1>
-170.58846381,-72.94689584,-170.34154046,143.06122077,-72.69084242,149.11011867
-177.21087863,-175.86594531,66.53309247,-0.98413491,91.33402594,11.54725752
0.72141760,0.68932605,2.06117848

>  <Name>
2fcy_lig

>  <RI>
1.56845e+07

>  <Rbt.Current_Directory>
/home/itssahil/PROJECTS/Mol_Feturizer/New_Systems/rnas/2fcy

>  <Rbt.Executable>
rbdock ($Id: //depot/dev/client3/rdock/2013.1/src/exe/rbdock.cxx#4 $)

>  <Rbt.Library>
libRbt.so (2013.1, Build901 2013/11/27)

>  <Rbt.Parameter_File>
/export/apps/rDock/src/rDock_2013.1_src/data/scripts/dock_solv.prm

>  <Rbt.Receptor>
prm/pocket_docking_4.prm

>  <SCORE>
-19.1204

>  <SCORE.INTER>
-17.6628

>  <SCORE.INTER.CONST>
1

>  <SCORE.INTER.POLAR>
-1.30295

>  <SCORE.INTER.ROT>
9

>  <SCORE.INTER.SOLV>
17.6164

>  <SCORE.INTER.VDW>
-22.9042

>  <SCORE.INTER.norm>
-0.420543

>  <SCORE.INTRA>
-1.45758

>  <SCORE.INTRA.DIHEDRAL>
-5.9524

>  <SCORE.INTRA.DIHEDRAL.0>
17.3446

>  <SCORE.INTRA.POLAR>
0

>  <SCORE.INTRA.POLAR.0>
0

>  <SCORE.INTRA.REPUL>
0

>  <SCORE.INTRA.REPUL.0>
0

>  <SCORE.INTRA.SOLV>
-1.57062

>  <SCORE.INTRA.SOLV.lig_0>
-112.452

>  <SCORE.INTRA.VDW>
2.30393

>  <SCORE.INTRA.VDW.0>
-5.95059

>  <SCORE.INTRA.norm>
-0.0347043

>  <SCORE.RESTR>
0

>  <SCORE.RESTR.CAVITY>
0

>  <SCORE.RESTR.norm>
0

>  <SCORE.SYSTEM>
0

>  <SCORE.SYSTEM.CONST>
0

>  <SCORE.SYSTEM.DIHEDRAL>
0

>  <SCORE.SYSTEM.SOLV>
0

>  <SCORE.SYSTEM.norm>
0

>  <SCORE.heavy>
42

>  <SCORE.norm>
-0.455247

>  <RMSD>
2.726

$$$$
2fcy_lig
 OpenBabel11021811433D
libRbt.so/2013.1/901 2013/11/27
 42 45  0  0  0  0  0  0  0  0999 V2000
    0.3932   91.1752   14.0031 C   0  0  2  0  0  0  0  0  0  0  0  0
    0.7561   92.4972   14.4365 O   0  0  0  0  0  0  0  0  0  0  0  0
   -1.0428   90.9678   14.4868 C   0  0  2  0  0  0  0  0  0  0  0  0
   -1.8743   92.0679   13.9799 N   0  0  0  0  0  0  0  0  0  0  0  0
   -1.0731   90.9706   16.0173 C   0  0  1  0  0  0  0  0  0  0  0  0
   -2.4072   90.7736   16.4940 O   0  0  0  0  0  0  0  0  0  0  0  0
   -0.1483   89.8730   16.5445 C   0  0  2  0  0  0  0  0  0  0  0  0
   -0.1034   89.9403   17.9697 O   0  0  0  0  0  0  0  0  0  0  0  0
    1.2639   90.1210   16.0122 C   0  0  2  0  0  0  0  0  0  0  0  0
    1.2366   90.1554   14.5767 O   0  0  0  0  0  0  0  0  0  0  0  0
    2.1976   89.0218   16.5258 C   0  0  0  0  0  0  0  0  0  0  0  0
    3.6061   89.3812   16.3030 N   0  0  0  0  0  0  0  0  0  0  0  0
    3.8750   95.1898   13.6190 C   0  0  2  0  0  0  0  0  0  0  0  0
    5.1312   95.9017   13.3395 N   0  0  0  0  0  0  0  0  0  0  0  0
    3.9703   94.4148   14.9347 C   0  0  0  0  0  0  0  0  0  0  0  0
    2.5968   93.8068   15.2362 C   0  0  2  0  0  0  0  0  0  0  0  0
    2.6861   92.9844   16.4514 N   0  0  0  0  0  0  0  0  0  0  0  0
    2.0926   92.9105   14.1014 C   0  0  2  0  0  0  0  0  0  0  0  0
    2.1895   93.5288   12.7112 C   0  0  2  0  0  0  0  0  0  0  0  0
    2.0514   92.4334   11.7919 O   0  0  0  0  0  0  0  0  0  0  0  0
    3.5426   94.2164   12.4855 C   0  0  1  0  0  0  0  0  0  0  0  0
    3.5408   94.9546   11.2607 O   0  0  0  0  0  0  0  0  0  0  0  0
    0.7487   92.2698   11.2083 C   0  0  1  0  0  0  0  0  0  0  0  0
    0.2681   93.6501   10.7574 C   0  0  2  0  0  0  0  0  0  0  0  0
   -0.3171   94.3407   11.8639 O   0  0  0  0  0  0  0  0  0  0  0  0
   -0.8292   93.2122    9.7917 C   0  0  1  0  0  0  0  0  0  0  0  0
   -0.1039   92.1121    9.0328 C   0  0  2  0  0  0  0  0  0  0  0  0
    0.7554   91.4783   10.0026 O   0  0  0  0  0  0  0  0  0  0  0  0
    0.6957   92.7387    7.8847 C   0  0  0  0  0  0  0  0  0  0  0  0
    1.6473   93.6797    8.3903 O   0  0  0  0  0  0  0  0  0  0  0  0
   -3.0815   92.5711    9.6702 C   0  0  2  0  0  0  0  0  0  0  0  0
   -1.9324   92.6587   10.5266 O   0  0  0  0  0  0  0  0  0  0  0  0
   -4.3032   92.1504   10.4934 C   0  0  1  0  0  0  0  0  0  0  0  0
   -2.3198   91.0794    5.8856 N   0  0  0  0  0  0  0  0  0  0  0  0
   -5.5192   91.9517    9.5821 C   0  0  1  0  0  0  0  0  0  0  0  0
   -5.9448   93.2068    9.0418 O   0  0  0  0  0  0  0  0  0  0  0  0
   -5.1635   90.9900    8.4450 C   0  0  2  0  0  0  0  0  0  0  0  0
   -4.8982   89.6997    9.0055 O   0  0  0  0  0  0  0  0  0  0  0  0
   -3.9249   91.5062    7.7047 C   0  0  1  0  0  0  0  0  0  0  0  0
   -2.8201   91.6233    8.6203 O   0  0  0  0  0  0  0  0  0  0  0  0
   -3.5401   90.5874    6.5420 C   0  0  0  0  0  0  0  0  0  0  0  0
   -4.0069   90.8721   11.1577 N   0  0  0  0  0  0  0  0  0  0  0  0
  1  2  1  1  0  0  0
  1  3  1  0  0  0  0
  1 10  1  0  0  0  0
  3  4  1  6  0  0  0
  3  5  1  0  0  0  0
  5  6  1  6  0  0  0
  5  7  1  0  0  0  0
  7  8  1  1  0  0  0
  7  9  1  0  0  0  0
  9 10  1  0  0  0  0
  9 11  1  6  0  0  0
 11 12  1  0  0  0  0
 13 14  1  6  0  0  0
 13 15  1  0  0  0  0
 13 21  1  0  0  0  0
 16 15  1  0  0  0  0
 16 17  1  1  0  0  0
 18  2  1  1  0  0  0
 18 16  1  0  0  0  0
 19 18  1  0  0  0  0
 19 20  1  6  0  0  0
 21 19  1  0  0  0  0
 21 22  1  6  0  0  0
 23 20  1  6  0  0  0
 23 24  1  0  0  0  0
 23 28  1  0  0  0  0
 24 25  1  1  0  0  0
 24 26  1  0  0  0  0
 26 27  1  0  0  0  0
 26 32  1  1  0  0  0
 27 28  1  0  0  0  0
 27 29  1  6  0  0  0
 29 30  1  0  0  0  0
 31 32  1  1  0  0  0
 31 40  1  0  0  0  0
 33 31  1  0  0  0  0
 33 42  1  6  0  0  0
 35 33  1  0  0  0  0
 35 36  1  6  0  0  0
 37 35  1  0  0  0  0
 37 38  1  1  0  0  0
 37 39  1  0  0  0  0
 39 40  1  0  0  0  0
 39 41  1  6  0  0  0
 41 34  1  0  0  0  0
M  END
>  <CHROM.1>
179.29031565,-166.92270458,-146.14649675,99.96644741,45.67428226,165.18577082
59.45191705,-172.86183662,-177.77868849,-0.25225081,92.12944049,12.10165918
0.75479180,0.46431699,1.94313058

>  <Name>
2fcy_lig

>  <RI>
4.13508e+07

>  <Rbt.Current_Directory>
/home/itssahil/PROJECTS/Mol_Feturizer/New_Systems/rnas/2fcy

>  <Rbt.Executable>
rbdock ($Id: //depot/dev/client3/rdock/2013.1/src/exe/rbdock.cxx#4 $)

>  <Rbt.Library>
libRbt.so (2013.1, Build901 2013/11/27)

>  <Rbt.Parameter_File>
/export/apps/rDock/src/rDock_2013.1_src/data/scripts/dock_solv.prm

>  <Rbt.Receptor>
prm/pocket_docking_3.prm

>  <SCORE>
-22.5029

>  <SCORE.INTER>
-23.4207

>  <SCORE.INTER.CONST>
1

>  <SCORE.INTER.POLAR>
-2.77493

>  <SCORE.INTER.ROT>
9

>  <SCORE.INTER.SOLV>
17.1465

>  <SCORE.INTER.VDW>
-21.6795

>  <SCORE.INTER.norm>
-0.557636

>  <SCORE.INTRA>
0.908031

>  <SCORE.INTRA.DIHEDRAL>
-4.4349

>  <SCORE.INTRA.DIHEDRAL.0>
17.3446

>  <SCORE.INTRA.POLAR>
0

>  <SCORE.INTRA.POLAR.0>
0

>  <SCORE.INTRA.REPUL>
0

>  <SCORE.INTRA.REPUL.0>
0

>  <SCORE.INTRA.SOLV>
1.7008

>  <SCORE.INTRA.SOLV.lig_0>
-112.452

>  <SCORE.INTRA.VDW>
2.27508

>  <SCORE.INTRA.VDW.0>
-5.95059

>  <SCORE.INTRA.norm>
0.0216198

>  <SCORE.RESTR>
0.00973207

>  <SCORE.RESTR.CAVITY>
0.00973207

>  <SCORE.RESTR.norm>
0.000231716

>  <SCORE.SYSTEM>
0

>  <SCORE.SYSTEM.CONST>
0

>  <SCORE.SYSTEM.DIHEDRAL>
0

>  <SCORE.SYSTEM.SOLV>
0

>  <SCORE.SYSTEM.norm>
0

>  <SCORE.heavy>
42

>  <SCORE.norm>
-0.535784

>  <RMSD>
2.787

$$$$
2fcy_lig
 OpenBabel11021811433D
libRbt.so/2013.1/901 2013/11/27
 42 45  0  0  0  0  0  0  0  0999 V2000
    0.9636   92.8777   15.1444 C   0  0  2  0  0  0  0  0  0  0  0  0
    1.4815   92.0692   14.0742 O   0  0  0  0  0  0  0  0  0  0  0  0
    1.6682   92.3813   16.4077 C   0  0  2  0  0  0  0  0  0  0  0  0
    3.1203   92.4428   16.1923 N   0  0  0  0  0  0  0  0  0  0  0  0
    1.2565   90.9340   16.6888 C   0  0  1  0  0  0  0  0  0  0  0  0
    1.9005   90.4484   17.8700 O   0  0  0  0  0  0  0  0  0  0  0  0
   -0.2634   90.8594   16.8382 C   0  0  2  0  0  0  0  0  0  0  0  0
   -0.6534   89.4962   17.0037 O   0  0  0  0  0  0  0  0  0  0  0  0
   -0.9108   91.3868   15.5568 C   0  0  2  0  0  0  0  0  0  0  0  0
   -0.4616   92.7282   15.3090 O   0  0  0  0  0  0  0  0  0  0  0  0
   -2.4339   91.3263   15.6985 C   0  0  0  0  0  0  0  0  0  0  0  0
   -3.0882   92.2243   14.7351 N   0  0  0  0  0  0  0  0  0  0  0  0
    1.8181   95.3684   11.4958 C   0  0  2  0  0  0  0  0  0  0  0  0
    2.1094   96.3554   10.4451 N   0  0  0  0  0  0  0  0  0  0  0  0
    3.1075   94.8954   12.1701 C   0  0  0  0  0  0  0  0  0  0  0  0
    2.7317   93.9760   13.3366 C   0  0  2  0  0  0  0  0  0  0  0  0
    3.9572   93.4392   13.9457 N   0  0  0  0  0  0  0  0  0  0  0  0
    1.8725   92.7889   12.8916 C   0  0  2  0  0  0  0  0  0  0  0  0
    0.6882   93.1575   12.0049 C   0  0  2  0  0  0  0  0  0  0  0  0
    0.2660   91.9271   11.3949 O   0  0  0  0  0  0  0  0  0  0  0  0
    1.0838   94.1591   10.9118 C   0  0  1  0  0  0  0  0  0  0  0  0
   -0.0715   94.6404   10.2198 O   0  0  0  0  0  0  0  0  0  0  0  0
   -0.8882   92.0172   10.5441 C   0  0  1  0  0  0  0  0  0  0  0  0
   -1.0221   90.6848    9.8049 C   0  0  2  0  0  0  0  0  0  0  0  0
   -0.1758   90.6870    8.6528 O   0  0  0  0  0  0  0  0  0  0  0  0
   -2.4791   90.8049    9.3676 C   0  0  1  0  0  0  0  0  0  0  0  0
   -3.1136   91.2966   10.6590 C   0  0  2  0  0  0  0  0  0  0  0  0
   -2.1270   92.1532   11.2703 O   0  0  0  0  0  0  0  0  0  0  0  0
   -3.4489   90.0903   11.5436 C   0  0  0  0  0  0  0  0  0  0  0  0
   -2.2520   89.4450   11.9879 O   0  0  0  0  0  0  0  0  0  0  0  0
   -3.9837   91.9743    8.0012 C   0  0  2  0  0  0  0  0  0  0  0  0
   -2.6000   91.8078    8.3463 O   0  0  0  0  0  0  0  0  0  0  0  0
   -4.3991   90.8838    7.0086 C   0  0  1  0  0  0  0  0  0  0  0  0
   -4.8643   95.2330    5.4528 N   0  0  0  0  0  0  0  0  0  0  0  0
   -5.8443   91.1025    6.5481 C   0  0  1  0  0  0  0  0  0  0  0  0
   -6.7505   90.8757    7.6324 O   0  0  0  0  0  0  0  0  0  0  0  0
   -6.0104   92.5307    6.0217 C   0  0  2  0  0  0  0  0  0  0  0  0
   -5.2130   92.6772    4.8418 O   0  0  0  0  0  0  0  0  0  0  0  0
   -5.5541   93.5283    7.0916 C   0  0  1  0  0  0  0  0  0  0  0  0
   -4.1779   93.2826    7.4359 O   0  0  0  0  0  0  0  0  0  0  0  0
   -5.7205   94.9754    6.6200 C   0  0  0  0  0  0  0  0  0  0  0  0
   -3.5204   90.9578    5.8315 N   0  0  0  0  0  0  0  0  0  0  0  0
  1  2  1  6  0  0  0
  1  3  1  0  0  0  0
  1 10  1  0  0  0  0
  3  4  1  6  0  0  0
  3  5  1  0  0  0  0
  5  6  1  1  0  0  0
  5  7  1  0  0  0  0
  7  8  1  6  0  0  0
  7  9  1  0  0  0  0
  9 10  1  0  0  0  0
  9 11  1  1  0  0  0
 11 12  1  0  0  0  0
 13 14  1  6  0  0  0
 13 15  1  0  0  0  0
 13 21  1  0  0  0  0
 16 15  1  0  0  0  0
 16 17  1  6  0  0  0
 18  2  1  1  0  0  0
 18 16  1  0  0  0  0
 19 18  1  0  0  0  0
 19 20  1  6  0  0  0
 21 19  1  0  0  0  0
 21 22  1  1  0  0  0
 23 20  1  1  0  0  0
 23 24  1  0  0  0  0
 23 28  1  0  0  0  0
 24 25  1  6  0  0  0
 24 26  1  0  0  0  0
 26 27  1  0  0  0  0
 26 32  1  6  0  0  0
 27 28  1  0  0  0  0
 27 29  1  1  0  0  0
 29 30  1  0  0  0  0
 31 32  1  6  0  0  0
 31 40  1  0  0  0  0
 33 31  1  0  0  0  0
 33 42  1  6  0  0  0
 35 33  1  0  0  0  0
 35 36  1  1  0  0  0
 37 35  1  0  0  0  0
 37 38  1  6  0  0  0
 37 39  1  0  0  0  0
 39 40  1  0  0  0  0
 39 41  1  6  0  0  0
 41 34  1  0  0  0  0
M  END
>  <CHROM.1>
-133.74238392,160.25915007,47.76381175,177.58066242,170.00058977,-176.36670425
66.97846961,-81.92386715,-63.11014345,-1.30305600,92.28289606,11.30379506
-0.81782289,-0.56332210,-1.07201434

>  <Name>
2fcy_lig

>  <RI>
0

>  <Rbt.Current_Directory>
/home/itssahil/PROJECTS/Mol_Feturizer/New_Systems/rnas/2fcy

>  <Rbt.Executable>
rbdock ($Id: //depot/dev/client3/rdock/2013.1/src/exe/rbdock.cxx#4 $)

>  <Rbt.Library>
libRbt.so (2013.1, Build901 2013/11/27)

>  <Rbt.Parameter_File>
/export/apps/rDock/src/rDock_2013.1_src/data/scripts/dock_solv.prm

>  <Rbt.Receptor>
prm/pocket_docking_2.prm

>  <SCORE>
3.49105

>  <SCORE.INTER>
0.185595

>  <SCORE.INTER.CONST>
1

>  <SCORE.INTER.POLAR>
0

>  <SCORE.INTER.ROT>
9

>  <SCORE.INTER.SOLV>
15.9778

>  <SCORE.INTER.VDW>
-14.8022

>  <SCORE.INTER.norm>
0.00441894

>  <SCORE.INTRA>
2.63352

>  <SCORE.INTRA.DIHEDRAL>
-5.53963

>  <SCORE.INTRA.DIHEDRAL.0>
17.3446

>  <SCORE.INTRA.POLAR>
0

>  <SCORE.INTRA.POLAR.0>
0

>  <SCORE.INTRA.REPUL>
0.000324878

>  <SCORE.INTRA.REPUL.0>
0

>  <SCORE.INTRA.SOLV>
2.10803

>  <SCORE.INTRA.SOLV.lig_0>
-112.452

>  <SCORE.INTRA.VDW>
4.3477

>  <SCORE.INTRA.VDW.0>
-5.95059

>  <SCORE.INTRA.norm>
0.0627029

>  <SCORE.RESTR>
0.671932

>  <SCORE.RESTR.CAVITY>
0.671932

>  <SCORE.RESTR.norm>
0.0159984

>  <SCORE.SYSTEM>
0

>  <SCORE.SYSTEM.CONST>
0

>  <SCORE.SYSTEM.DIHEDRAL>
0

>  <SCORE.SYSTEM.SOLV>
0

>  <SCORE.SYSTEM.norm>
0

>  <SCORE.heavy>
42

>  <SCORE.norm>
0.0831203

>  <RMSD>
2.826

$$$$
2fcy_lig
 OpenBabel11021811433D
libRbt.so/2013.1/901 2013/11/27
 42 45  0  0  0  0  0  0  0  0999 V2000
    1.2335   92.1905   15.1285 C   0  0  2  0  0  0  0  0  0  0  0  0
    1.2146   93.2156   16.1365 O   0  0  0  0  0  0  0  0  0  0  0  0
   -0.0665   91.4077   15.3193 C   0  0  2  0  0  0  0  0  0  0  0  0
   -1.1944   92.3477   15.2677 N   0  0  0  0  0  0  0  0  0  0  0  0
   -0.0484   90.7089   16.6812 C   0  0  1  0  0  0  0  0  0  0  0  0
   -1.2540   89.9657   16.8809 O   0  0  0  0  0  0  0  0  0  0  0  0
    1.1687   89.7871   16.7618 C   0  0  2  0  0  0  0  0  0  0  0  0
    1.2370   89.2111   18.0661 O   0  0  0  0  0  0  0  0  0  0  0  0
    2.4328   90.6199   16.5431 C   0  0  2  0  0  0  0  0  0  0  0  0
    2.3518   91.2917   15.2764 O   0  0  0  0  0  0  0  0  0  0  0  0
    3.6585   89.7052   16.6117 C   0  0  0  0  0  0  0  0  0  0  0  0
    3.8682   89.2079   17.9797 N   0  0  0  0  0  0  0  0  0  0  0  0
    2.6455   97.1550   15.8535 C   0  0  2  0  0  0  0  0  0  0  0  0
    3.4023   98.4125   15.7597 N   0  0  0  0  0  0  0  0  0  0  0  0
    3.0429   96.3734   17.1073 C   0  0  0  0  0  0  0  0  0  0  0  0
    2.1319   95.1468   17.2192 C   0  0  2  0  0  0  0  0  0  0  0  0
    2.5525   94.3330   18.3689 N   0  0  0  0  0  0  0  0  0  0  0  0
    2.1907   94.2595   15.9723 C   0  0  2  0  0  0  0  0  0  0  0  0
    2.0411   95.0068   14.6518 C   0  0  2  0  0  0  0  0  0  0  0  0
    2.5053   94.0983   13.6402 O   0  0  0  0  0  0  0  0  0  0  0  0
    2.8915   96.2837   14.6193 C   0  0  1  0  0  0  0  0  0  0  0  0
    2.5888   97.0678   13.4623 O   0  0  0  0  0  0  0  0  0  0  0  0
    1.8568   94.2040   12.3625 C   0  0  1  0  0  0  0  0  0  0  0  0
    2.4000   93.0830   11.4748 C   0  0  2  0  0  0  0  0  0  0  0  0
    3.6330   93.4952   10.8803 O   0  0  0  0  0  0  0  0  0  0  0  0
    1.3021   93.0705   10.4152 C   0  0  1  0  0  0  0  0  0  0  0  0
    0.0665   93.1318   11.2994 C   0  0  2  0  0  0  0  0  0  0  0  0
    0.4358   93.9634   12.4187 O   0  0  0  0  0  0  0  0  0  0  0  0
   -0.3044   91.7115   11.7413 C   0  0  0  0  0  0  0  0  0  0  0  0
   -0.5741   90.8860   10.6046 O   0  0  0  0  0  0  0  0  0  0  0  0
    0.4063   94.1977    8.5643 C   0  0  2  0  0  0  0  0  0  0  0  0
    1.3899   94.2559    9.6086 O   0  0  0  0  0  0  0  0  0  0  0  0
    0.7928   95.1660    7.4418 C   0  0  1  0  0  0  0  0  0  0  0  0
   -4.3713   94.3985    7.8328 N   0  0  0  0  0  0  0  0  0  0  0  0
   -0.2954   95.1956    6.3631 C   0  0  1  0  0  0  0  0  0  0  0  0
   -0.3420   93.9439    5.6707 O   0  0  0  0  0  0  0  0  0  0  0  0
   -1.6547   95.4853    7.0055 C   0  0  2  0  0  0  0  0  0  0  0  0
   -1.6285   96.8089    7.5504 O   0  0  0  0  0  0  0  0  0  0  0  0
   -1.9253   94.4649    8.1164 C   0  0  1  0  0  0  0  0  0  0  0  0
   -0.8831   94.5314    9.1075 O   0  0  0  0  0  0  0  0  0  0  0  0
   -3.2860   94.7000    8.7778 C   0  0  0  0  0  0  0  0  0  0  0  0
    0.9222   96.5171    8.0081 N   0  0  0  0  0  0  0  0  0  0  0  0
  1  2  1  1  0  0  0
  1  3  1  0  0  0  0
  1 10  1  0  0  0  0
  3  4  1  1  0  0  0
  3  5  1  0  0  0  0
  5  6  1  6  0  0  0
  5  7  1  0  0  0  0
  7  8  1  1  0  0  0
  7  9  1  0  0  0  0
  9 10  1  0  0  0  0
  9 11  1  6  0  0  0
 11 12  1  0  0  0  0
 13 14  1  6  0  0  0
 13 15  1  0  0  0  0
 13 21  1  0  0  0  0
 16 15  1  0  0  0  0
 16 17  1  1  0  0  0
 18  2  1  1  0  0  0
 18 16  1  0  0  0  0
 19 18  1  0  0  0  0
 19 20  1  6  0  0  0
 21 19  1  0  0  0  0
 21 22  1  6  0  0  0
 23 20  1  1  0  0  0
 23 24  1  0  0  0  0
 23 28  1  0  0  0  0
 24 25  1  6  0  0  0
 24 26  1  0  0  0  0
 26 27  1  0  0  0  0
 26 32  1  6  0  0  0
 27 28  1  0  0  0  0
 27 29  1  1  0  0  0
 29 30  1  0  0  0  0
 31 32  1  1  0  0  0
 31 40  1  0  0  0  0
 33 31  1  0  0  0  0
 33 42  1  1  0  0  0
 35 33  1  0  0  0  0
 35 36  1  1  0  0  0
 37 35  1  0  0  0  0
 37 38  1  1  0  0  0
 37 39  1  0  0  0  0
 39 40  1  0  0  0  0
 39 41  1  1  0  0  0
 41 34  1  0  0  0  0
M  END
>  <CHROM.1>
-166.90413572,-68.89509322,-173.04886649,147.76749178,-175.09295563,176.51857590
-59.66144353,-160.38311772,68.00767740,0.90973956,93.57819248,12.80105631
0.99911121,1.01210383,2.37313832

>  <Name>
2fcy_lig

>  <RI>
0

>  <Rbt.Current_Directory>
/home/itssahil/PROJECTS/Mol_Feturizer/New_Systems/rnas/2fcy

>  <Rbt.Executable>
rbdock ($Id: //depot/dev/client3/rdock/2013.1/src/exe/rbdock.cxx#4 $)

>  <Rbt.Library>
libRbt.so (2013.1, Build901 2013/11/27)

>  <Rbt.Parameter_File>
/export/apps/rDock/src/rDock_2013.1_src/data/scripts/dock_solv.prm

>  <Rbt.Receptor>
prm/pocket_docking_5.prm

>  <SCORE>
-20.851

>  <SCORE.INTER>
-16.3815

>  <SCORE.INTER.CONST>
1

>  <SCORE.INTER.POLAR>
-1.46069

>  <SCORE.INTER.ROT>
9

>  <SCORE.INTER.SOLV>
18.2358

>  <SCORE.INTER.VDW>
-21.7306

>  <SCORE.INTER.norm>
-0.390037

>  <SCORE.INTRA>
-4.46949

>  <SCORE.INTRA.DIHEDRAL>
-9.21727

>  <SCORE.INTRA.DIHEDRAL.0>
17.3446

>  <SCORE.INTRA.POLAR>
0

>  <SCORE.INTRA.POLAR.0>
0

>  <SCORE.INTRA.REPUL>
0

>  <SCORE.INTRA.REPUL.0>
0

>  <SCORE.INTRA.SOLV>
-3.13636

>  <SCORE.INTRA.SOLV.lig_0>
-112.452

>  <SCORE.INTRA.VDW>
1.70732

>  <SCORE.INTRA.VDW.0>
-5.95059

>  <SCORE.INTRA.norm>
-0.106416

>  <SCORE.RESTR>
0

>  <SCORE.RESTR.CAVITY>
0

>  <SCORE.RESTR.norm>
0

>  <SCORE.SYSTEM>
0

>  <SCORE.SYSTEM.CONST>
0

>  <SCORE.SYSTEM.DIHEDRAL>
0

>  <SCORE.SYSTEM.SOLV>
0

>  <SCORE.SYSTEM.norm>
0

>  <SCORE.heavy>
42

>  <SCORE.norm>
-0.496453

>  <RMSD>
2.921

$$$$
2fcy_lig
 OpenBabel11021811433D
libRbt.so/2013.1/901 2013/11/27
 42 45  0  0  0  0  0  0  0  0999 V2000
    1.4259   92.0986   15.4810 C   0  0  2  0  0  0  0  0  0  0  0  0
    1.2861   93.2669   16.3073 O   0  0  0  0  0  0  0  0  0  0  0  0
    0.1675   91.2673   15.7349 C   0  0  2  0  0  0  0  0  0  0  0  0
   -1.0111   92.1062   15.4783 N   0  0  0  0  0  0  0  0  0  0  0  0
    0.1497   90.7967   17.1914 C   0  0  1  0  0  0  0  0  0  0  0  0
   -1.0176   90.0123   17.4521 O   0  0  0  0  0  0  0  0  0  0  0  0
    1.4144   89.9865   17.4778 C   0  0  2  0  0  0  0  0  0  0  0  0
    1.4424   89.6312   18.8600 O   0  0  0  0  0  0  0  0  0  0  0  0
    2.6355   90.8602   17.1867 C   0  0  2  0  0  0  0  0  0  0  0  0
    2.5868   91.3149   15.8253 O   0  0  0  0  0  0  0  0  0  0  0  0
    3.9090   90.0558   17.4604 C   0  0  0  0  0  0  0  0  0  0  0  0
    3.9405   88.8285   16.6508 N   0  0  0  0  0  0  0  0  0  0  0  0
    2.6028   97.2207   15.7779 C   0  0  2  0  0  0  0  0  0  0  0  0
    3.3224   98.4893   15.5885 N   0  0  0  0  0  0  0  0  0  0  0  0
    3.0881   96.5033   17.0391 C   0  0  0  0  0  0  0  0  0  0  0  0
    2.2148   95.2630   17.2539 C   0  0  2  0  0  0  0  0  0  0  0  0
    2.7182   94.5095   18.4114 N   0  0  0  0  0  0  0  0  0  0  0  0
    2.2259   94.3239   16.0443 C   0  0  2  0  0  0  0  0  0  0  0  0
    1.9852   95.0096   14.7040 C   0  0  2  0  0  0  0  0  0  0  0  0
    2.4144   94.0683   13.7071 O   0  0  0  0  0  0  0  0  0  0  0  0
    2.8010   96.3022   14.5697 C   0  0  1  0  0  0  0  0  0  0  0  0
    2.4157   97.0284   13.3995 O   0  0  0  0  0  0  0  0  0  0  0  0
    1.7701   94.1782   12.4276 C   0  0  1  0  0  0  0  0  0  0  0  0
    2.3565   93.0951   11.5207 C   0  0  2  0  0  0  0  0  0  0  0  0
    3.5781   93.5614   10.9427 O   0  0  0  0  0  0  0  0  0  0  0  0
    1.2658   93.0670   10.4539 C   0  0  1  0  0  0  0  0  0  0  0  0
    0.0238   93.0678   11.3311 C   0  0  2  0  0  0  0  0  0  0  0  0
    0.3579   93.8881   12.4696 O   0  0  0  0  0  0  0  0  0  0  0  0
   -0.3007   91.6268   11.7415 C   0  0  0  0  0  0  0  0  0  0  0  0
   -1.4721   91.5897   12.5618 O   0  0  0  0  0  0  0  0  0  0  0  0
    0.2977   94.2301    8.6627 C   0  0  2  0  0  0  0  0  0  0  0  0
    1.3176   94.2712    9.6724 O   0  0  0  0  0  0  0  0  0  0  0  0
    0.6952   95.1395    7.4956 C   0  0  1  0  0  0  0  0  0  0  0  0
   -3.6538   93.9232   10.0039 N   0  0  0  0  0  0  0  0  0  0  0  0
   -0.4257   95.1905    6.4518 C   0  0  1  0  0  0  0  0  0  0  0  0
   -0.5597   93.9209    5.8049 O   0  0  0  0  0  0  0  0  0  0  0  0
   -1.7460   95.5719    7.1270 C   0  0  2  0  0  0  0  0  0  0  0  0
   -1.6338   96.9095    7.6247 O   0  0  0  0  0  0  0  0  0  0  0  0
   -2.0309   94.6041    8.2805 C   0  0  1  0  0  0  0  0  0  0  0  0
   -0.9539   94.6485    9.2349 O   0  0  0  0  0  0  0  0  0  0  0  0
   -3.3547   94.9316    8.9766 C   0  0  0  0  0  0  0  0  0  0  0  0
    0.9126   96.4999    8.0104 N   0  0  0  0  0  0  0  0  0  0  0  0
  1  2  1  1  0  0  0
  1  3  1  0  0  0  0
  1 10  1  0  0  0  0
  3  4  1  1  0  0  0
  3  5  1  0  0  0  0
  5  6  1  6  0  0  0
  5  7  1  0  0  0  0
  7  8  1  1  0  0  0
  7  9  1  0  0  0  0
  9 10  1  0  0  0  0
  9 11  1  6  0  0  0
 11 12  1  0  0  0  0
 13 14  1  6  0  0  0
 13 15  1  0  0  0  0
 13 21  1  0  0  0  0
 16 15  1  0  0  0  0
 16 17  1  1  0  0  0
 18  2  1  1  0  0  0
 18 16  1  0  0  0  0
 19 18  1  0  0  0  0
 19 20  1  6  0  0  0
 21 19  1  0  0  0  0
 21 22  1  6  0  0  0
 23 20  1  1  0  0  0
 23 24  1  0  0  0  0
 23 28  1  0  0  0  0
 24 25  1  6  0  0  0
 24 26  1  0  0  0  0
 26 27  1  0  0  0  0
 26 32  1  6  0  0  0
 27 28  1  0  0  0  0
 27 29  1  1  0  0  0
 29 30  1  0  0  0  0
 31 32  1  1  0  0  0
 31 40  1  0  0  0  0
 33 31  1  0  0  0  0
 33 42  1  1  0  0  0
 35 33  1  0  0  0  0
 35 36  1  1  0  0  0
 37 35  1  0  0  0  0
 37 38  1  1  0  0  0
 37 39  1  0  0  0  0
 39 40  1  0  0  0  0
 39 41  1  1  0  0  0
 41 34  1  0  0  0  0
M  END
>  <CHROM.1>
-168.39117515,57.55573275,-162.97271676,152.75986847,-179.72935860,179.39879251
-179.59077876,-155.71985649,175.37811029,0.92101331,93.62519495,13.04229034
1.04217576,0.98532215,2.34717424

>  <Name>
2fcy_lig

>  <RI>
224

>  <Rbt.Current_Directory>
/home/itssahil/PROJECTS/Mol_Feturizer/New_Systems/rnas/2fcy

>  <Rbt.Executable>
rbdock ($Id: //depot/dev/client3/rdock/2013.1/src/exe/rbdock.cxx#4 $)

>  <Rbt.Library>
libRbt.so (2013.1, Build901 2013/11/27)

>  <Rbt.Parameter_File>
/export/apps/rDock/src/rDock_2013.1_src/data/scripts/dock_solv.prm

>  <Rbt.Receptor>
prm/pocket_docking_6.prm

>  <SCORE>
-19.2236

>  <SCORE.INTER>
-14.8778

>  <SCORE.INTER.CONST>
1

>  <SCORE.INTER.POLAR>
-1.36289

>  <SCORE.INTER.ROT>
9

>  <SCORE.INTER.SOLV>
19.4376

>  <SCORE.INTER.VDW>
-21.4548

>  <SCORE.INTER.norm>
-0.354234

>  <SCORE.INTRA>
-4.34574

>  <SCORE.INTRA.DIHEDRAL>
-9.04545

>  <SCORE.INTRA.DIHEDRAL.0>
17.3446

>  <SCORE.INTRA.POLAR>
0

>  <SCORE.INTRA.POLAR.0>
0

>  <SCORE.INTRA.REPUL>
0

>  <SCORE.INTRA.REPUL.0>
0

>  <SCORE.INTRA.SOLV>
-1.56379

>  <SCORE.INTRA.SOLV.lig_0>
-112.452

>  <SCORE.INTRA.VDW>
0.958883

>  <SCORE.INTRA.VDW.0>
-5.95059

>  <SCORE.INTRA.norm>
-0.10347

>  <SCORE.RESTR>
0

>  <SCORE.RESTR.CAVITY>
0

>  <SCORE.RESTR.norm>
0

>  <SCORE.SYSTEM>
0

>  <SCORE.SYSTEM.CONST>
0

>  <SCORE.SYSTEM.DIHEDRAL>
0

>  <SCORE.SYSTEM.SOLV>
0

>  <SCORE.SYSTEM.norm>
0

>  <SCORE.heavy>
42

>  <SCORE.norm>
-0.457704

>  <RMSD>
2.943

$$$$
2fcy_lig
 OpenBabel11021811433D
libRbt.so/2013.1/901 2013/11/27
 42 45  0  0  0  0  0  0  0  0999 V2000
    0.5879   91.5097   12.8194 C   0  0  2  0  0  0  0  0  0  0  0  0
    0.9093   92.8661   13.1715 O   0  0  0  0  0  0  0  0  0  0  0  0
   -0.9389   91.4296   12.8586 C   0  0  2  0  0  0  0  0  0  0  0  0
   -1.4882   92.4746   11.9840 N   0  0  0  0  0  0  0  0  0  0  0  0
   -1.4271   91.6570   14.2915 C   0  0  1  0  0  0  0  0  0  0  0  0
   -2.8541   91.5825   14.3543 O   0  0  0  0  0  0  0  0  0  0  0  0
   -0.7951   90.6141   15.2138 C   0  0  2  0  0  0  0  0  0  0  0  0
   -1.1749   90.8871   16.5625 O   0  0  0  0  0  0  0  0  0  0  0  0
    0.7270   90.7280   15.1163 C   0  0  2  0  0  0  0  0  0  0  0  0
    1.1348   90.5534   13.7504 O   0  0  0  0  0  0  0  0  0  0  0  0
    1.3714   89.6811   16.0287 C   0  0  0  0  0  0  0  0  0  0  0  0
    2.8184   89.9116   16.1542 N   0  0  0  0  0  0  0  0  0  0  0  0
    1.2268   96.0045   10.3973 C   0  0  2  0  0  0  0  0  0  0  0  0
    1.6007   97.0048    9.3861 N   0  0  0  0  0  0  0  0  0  0  0  0
    2.1944   96.0408   11.5819 C   0  0  0  0  0  0  0  0  0  0  0  0
    1.6791   95.0759   12.6545 C   0  0  2  0  0  0  0  0  0  0  0  0
    2.6395   95.0283   13.7664 N   0  0  0  0  0  0  0  0  0  0  0  0
    1.5075   93.6496   12.1238 C   0  0  2  0  0  0  0  0  0  0  0  0
    0.7511   93.5484   10.8039 C   0  0  2  0  0  0  0  0  0  0  0  0
    1.0345   92.2342   10.2973 O   0  0  0  0  0  0  0  0  0  0  0  0
    1.2268   94.5988    9.7916 C   0  0  1  0  0  0  0  0  0  0  0  0
    0.3782   94.6178    8.6406 O   0  0  0  0  0  0  0  0  0  0  0  0
   -0.0236   91.6127    9.5500 C   0  0  1  0  0  0  0  0  0  0  0  0
    0.4851   91.3934    8.1242 C   0  0  2  0  0  0  0  0  0  0  0  0
    0.3150   92.5918    7.3635 O   0  0  0  0  0  0  0  0  0  0  0  0
   -0.5334   90.3521    7.6697 C   0  0  1  0  0  0  0  0  0  0  0  0
   -0.5408   89.4295    8.8784 C   0  0  2  0  0  0  0  0  0  0  0  0
   -0.3589   90.2912   10.0208 O   0  0  0  0  0  0  0  0  0  0  0  0
    0.6003   88.4149    8.7413 C   0  0  0  0  0  0  0  0  0  0  0  0
    1.2574   88.2251    9.9977 O   0  0  0  0  0  0  0  0  0  0  0  0
   -1.9034   91.5804    6.2161 C   0  0  2  0  0  0  0  0  0  0  0  0
   -1.8218   90.9673    7.5118 O   0  0  0  0  0  0  0  0  0  0  0  0
   -3.0318   92.6166    6.2096 C   0  0  1  0  0  0  0  0  0  0  0  0
   -2.3814   90.5165    1.5086 N   0  0  0  0  0  0  0  0  0  0  0  0
   -3.2037   93.2110    4.8076 C   0  0  1  0  0  0  0  0  0  0  0  0
   -2.0669   94.0098    4.4643 O   0  0  0  0  0  0  0  0  0  0  0  0
   -3.3759   92.0849    3.7845 C   0  0  2  0  0  0  0  0  0  0  0  0
   -4.6052   91.4043    4.0583 O   0  0  0  0  0  0  0  0  0  0  0  0
   -2.1994   91.1089    3.8927 C   0  0  1  0  0  0  0  0  0  0  0  0
   -2.1347   90.5649    5.2241 O   0  0  0  0  0  0  0  0  0  0  0  0
   -2.3147   89.9726    2.8730 C   0  0  0  0  0  0  0  0  0  0  0  0
   -4.2867   91.9499    6.5885 N   0  0  0  0  0  0  0  0  0  0  0  0
  1  2  1  1  0  0  0
  1  3  1  0  0  0  0
  1 10  1  0  0  0  0
  3  4  1  6  0  0  0
  3  5  1  0  0  0  0
  5  6  1  6  0  0  0
  5  7  1  0  0  0  0
  7  8  1  1  0  0  0
  7  9  1  0  0  0  0
  9 10  1  0  0  0  0
  9 11  1  1  0  0  0
 11 12  1  0  0  0  0
 13 14  1  6  0  0  0
 13 15  1  0  0  0  0
 13 21  1  0  0  0  0
 16 15  1  0  0  0  0
 16 17  1  1  0  0  0
 18  2  1  1  0  0  0
 18 16  1  0  0  0  0
 19 18  1  0  0  0  0
 19 20  1  6  0  0  0
 21 19  1  0  0  0  0
 21 22  1  6  0  0  0
 23 20  1  1  0  0  0
 23 24  1  0  0  0  0
 23 28  1  0  0  0  0
 24 25  1  6  0  0  0
 24 26  1  0  0  0  0
 26 27  1  0  0  0  0
 26 32  1  1  0  0  0
 27 28  1  0  0  0  0
 27 29  1  6  0  0  0
 29 30  1  0  0  0  0
 31 32  1  1  0  0  0
 31 40  1  0  0  0  0
 33 31  1  0  0  0  0
 33 42  1  6  0  0  0
 35 33  1  0  0  0  0
 35 36  1  6  0  0  0
 37 35  1  0  0  0  0
 37 38  1  1  0  0  0
 37 39  1  0  0  0  0
 39 40  1  0  0  0  0
 39 41  1  6  0  0  0
 41 34  1  0  0  0  0
M  END
>  <CHROM.1>
-113.56811411,-169.72896428,175.94915213,147.00912814,117.33839861,83.68134765
138.39475589,-160.84264592,57.89406351,-0.46439104,91.97538024,9.73936063
0.79522532,1.10472633,2.25886594

>  <Name>
2fcy_lig

>  <RI>
1.56845e+07

>  <Rbt.Current_Directory>
/home/itssahil/PROJECTS/Mol_Feturizer/New_Systems/rnas/2fcy

>  <Rbt.Executable>
rbdock ($Id: //depot/dev/client3/rdock/2013.1/src/exe/rbdock.cxx#4 $)

>  <Rbt.Library>
libRbt.so (2013.1, Build901 2013/11/27)

>  <Rbt.Parameter_File>
/export/apps/rDock/src/rDock_2013.1_src/data/scripts/dock_solv.prm

>  <Rbt.Receptor>
prm/pocket_docking_4.prm

>  <SCORE>
-12.164

>  <SCORE.INTER>
-20.6667

>  <SCORE.INTER.CONST>
1

>  <SCORE.INTER.POLAR>
-3.39331

>  <SCORE.INTER.ROT>
9

>  <SCORE.INTER.SOLV>
15.4818

>  <SCORE.INTER.VDW>
-17.2274

>  <SCORE.INTER.norm>
-0.492063

>  <SCORE.INTRA>
8.48992

>  <SCORE.INTRA.DIHEDRAL>
9.91879

>  <SCORE.INTRA.DIHEDRAL.0>
17.3446

>  <SCORE.INTRA.POLAR>
0

>  <SCORE.INTRA.POLAR.0>
0

>  <SCORE.INTRA.REPUL>
0

>  <SCORE.INTRA.REPUL.0>
0

>  <SCORE.INTRA.SOLV>
-0.778891

>  <SCORE.INTRA.SOLV.lig_0>
-112.452

>  <SCORE.INTRA.VDW>
3.91997

>  <SCORE.INTRA.VDW.0>
-5.95059

>  <SCORE.INTRA.norm>
0.202141

>  <SCORE.RESTR>
0.0126947

>  <SCORE.RESTR.CAVITY>
0.0126947

>  <SCORE.RESTR.norm>
0.000302254

>  <SCORE.SYSTEM>
0

>  <SCORE.SYSTEM.CONST>
0

>  <SCORE.SYSTEM.DIHEDRAL>
0

>  <SCORE.SYSTEM.SOLV>
0

>  <SCORE.SYSTEM.norm>
0

>  <SCORE.heavy>
42

>  <SCORE.norm>
-0.28962

>  <RMSD>
2.983

$$$$
2fcy_lig
 OpenBabel11021811433D
libRbt.so/2013.1/901 2013/11/27
 42 45  0  0  0  0  0  0  0  0999 V2000
    0.0056   91.7554   13.4264 C   0  0  2  0  0  0  0  0  0  0  0  0
    0.2265   93.1197   13.8229 O   0  0  0  0  0  0  0  0  0  0  0  0
   -1.4185   91.4259   13.8762 C   0  0  2  0  0  0  0  0  0  0  0  0
   -2.3350   92.4235   13.3073 N   0  0  0  0  0  0  0  0  0  0  0  0
   -1.4974   91.4756   15.4042 C   0  0  1  0  0  0  0  0  0  0  0  0
   -2.8209   91.1662   15.8496 O   0  0  0  0  0  0  0  0  0  0  0  0
   -0.4890   90.4904   15.9960 C   0  0  2  0  0  0  0  0  0  0  0  0
   -0.4958   90.6080   17.4186 O   0  0  0  0  0  0  0  0  0  0  0  0
    0.9092   90.8563   15.4955 C   0  0  2  0  0  0  0  0  0  0  0  0
    0.9242   90.8411   14.0595 O   0  0  0  0  0  0  0  0  0  0  0  0
    1.9270   89.8698   16.0740 C   0  0  0  0  0  0  0  0  0  0  0  0
    1.9818   88.6389   15.2712 N   0  0  0  0  0  0  0  0  0  0  0  0
    2.8084   96.1225   12.4217 C   0  0  2  0  0  0  0  0  0  0  0  0
    3.9161   96.9828   11.9791 N   0  0  0  0  0  0  0  0  0  0  0  0
    3.0267   95.6523   13.8612 C   0  0  0  0  0  0  0  0  0  0  0  0
    1.7843   94.8750   14.3076 C   0  0  2  0  0  0  0  0  0  0  0  0
    2.0067   94.3384   15.6580 N   0  0  0  0  0  0  0  0  0  0  0  0
    1.4687   93.6961   13.3824 C   0  0  2  0  0  0  0  0  0  0  0  0
    1.4692   94.0357   11.8961 C   0  0  2  0  0  0  0  0  0  0  0  0
    1.5472   92.7744   11.2127 O   0  0  0  0  0  0  0  0  0  0  0  0
    2.6759   94.9009   11.5089 C   0  0  1  0  0  0  0  0  0  0  0  0
    2.5551   95.3706   10.1635 O   0  0  0  0  0  0  0  0  0  0  0  0
    0.8711   92.7086    9.9467 C   0  0  1  0  0  0  0  0  0  0  0  0
   -0.6016   93.0413   10.1918 C   0  0  2  0  0  0  0  0  0  0  0  0
   -1.2950   91.8669   10.6203 O   0  0  0  0  0  0  0  0  0  0  0  0
   -1.0069   93.3789    8.7599 C   0  0  1  0  0  0  0  0  0  0  0  0
    0.1592   94.2625    8.3457 C   0  0  2  0  0  0  0  0  0  0  0  0
    1.3154   93.7080    9.0064 O   0  0  0  0  0  0  0  0  0  0  0  0
   -0.1188   95.7019    8.7939 C   0  0  0  0  0  0  0  0  0  0  0  0
    0.8604   96.5942    8.2542 O   0  0  0  0  0  0  0  0  0  0  0  0
   -1.2096   92.5305    6.5833 C   0  0  2  0  0  0  0  0  0  0  0  0
   -1.0258   92.1831    7.9642 O   0  0  0  0  0  0  0  0  0  0  0  0
   -2.6035   93.1358    6.3884 C   0  0  1  0  0  0  0  0  0  0  0  0
   -0.9609   90.6733    2.1120 N   0  0  0  0  0  0  0  0  0  0  0  0
   -2.8600   93.4204    4.9046 C   0  0  1  0  0  0  0  0  0  0  0  0
   -2.0117   94.4789    4.4483 O   0  0  0  0  0  0  0  0  0  0  0  0
   -2.6012   92.1554    4.0817 C   0  0  2  0  0  0  0  0  0  0  0  0
   -3.5697   91.1669    4.4485 O   0  0  0  0  0  0  0  0  0  0  0  0
   -1.1876   91.6374    4.3674 C   0  0  1  0  0  0  0  0  0  0  0  0
   -1.0437   91.3546    5.7717 O   0  0  0  0  0  0  0  0  0  0  0  0
   -0.8720   90.3816    3.5503 C   0  0  0  0  0  0  0  0  0  0  0  0
   -3.6075   92.1683    6.8561 N   0  0  0  0  0  0  0  0  0  0  0  0
  1  2  1  1  0  0  0
  1  3  1  0  0  0  0
  1 10  1  0  0  0  0
  3  4  1  6  0  0  0
  3  5  1  0  0  0  0
  5  6  1  6  0  0  0
  5  7  1  0  0  0  0
  7  8  1  1  0  0  0
  7  9  1  0  0  0  0
  9 10  1  0  0  0  0
  9 11  1  1  0  0  0
 11 12  1  0  0  0  0
 13 14  1  6  0  0  0
 13 15  1  0  0  0  0
 13 21  1  0  0  0  0
 16 15  1  0  0  0  0
 16 17  1  1  0  0  0
 18  2  1  1  0  0  0
 18 16  1  0  0  0  0
 19 18  1  0  0  0  0
 19 20  1  6  0  0  0
 21 19  1  0  0  0  0
 21 22  1  6  0  0  0
 23 20  1  1  0  0  0
 23 24  1  0  0  0  0
 23 28  1  0  0  0  0
 24 25  1  6  0  0  0
 24 26  1  0  0  0  0
 26 27  1  0  0  0  0
 26 32  1  6  0  0  0
 27 28  1  0  0  0  0
 27 29  1  1  0  0  0
 29 30  1  0  0  0  0
 31 32  1  1  0  0  0
 31 40  1  0  0  0  0
 33 31  1  0  0  0  0
 33 42  1  6  0  0  0
 35 33  1  0  0  0  0
 35 36  1  6  0  0  0
 37 35  1  0  0  0  0
 37 38  1  1  0  0  0
 37 39  1  0  0  0  0
 39 40  1  0  0  0  0
 39 41  1  6  0  0  0
 41 34  1  0  0  0  0
M  END
>  <CHROM.1>
-174.13115278,83.11779700,-158.12867131,147.53520572,-58.37201191,-171.41771582
-171.61096525,-66.25233167,60.24742632,-0.08564127,92.80027010,10.50400860
1.17741864,0.88853271,1.90415753

>  <Name>
2fcy_lig

>  <RI>
1.56845e+07

>  <Rbt.Current_Directory>
/home/itssahil/PROJECTS/Mol_Feturizer/New_Systems/rnas/2fcy

>  <Rbt.Executable>
rbdock ($Id: //depot/dev/client3/rdock/2013.1/src/exe/rbdock.cxx#4 $)

>  <Rbt.Library>
libRbt.so (2013.1, Build901 2013/11/27)

>  <Rbt.Parameter_File>
/export/apps/rDock/src/rDock_2013.1_src/data/scripts/dock_solv.prm

>  <Rbt.Receptor>
prm/pocket_docking_4.prm

>  <SCORE>
-20.9935

>  <SCORE.INTER>
-20.1909

>  <SCORE.INTER.CONST>
1

>  <SCORE.INTER.POLAR>
-3.27716

>  <SCORE.INTER.ROT>
9

>  <SCORE.INTER.SOLV>
23.1843

>  <SCORE.INTER.VDW>
-19.8648

>  <SCORE.INTER.norm>
-0.480735

>  <SCORE.INTRA>
-0.80265

>  <SCORE.INTRA.DIHEDRAL>
-7.95958

>  <SCORE.INTRA.DIHEDRAL.0>
17.3446

>  <SCORE.INTRA.POLAR>
0

>  <SCORE.INTRA.POLAR.0>
0

>  <SCORE.INTRA.REPUL>
0

>  <SCORE.INTRA.REPUL.0>
0

>  <SCORE.INTRA.SOLV>
-0.472272

>  <SCORE.INTRA.SOLV.lig_0>
-112.452

>  <SCORE.INTRA.VDW>
3.41327

>  <SCORE.INTRA.VDW.0>
-5.95059

>  <SCORE.INTRA.norm>
-0.0191107

>  <SCORE.RESTR>
0

>  <SCORE.RESTR.CAVITY>
0

>  <SCORE.RESTR.norm>
0

>  <SCORE.SYSTEM>
0

>  <SCORE.SYSTEM.CONST>
0

>  <SCORE.SYSTEM.DIHEDRAL>
0

>  <SCORE.SYSTEM.SOLV>
0

>  <SCORE.SYSTEM.norm>
0

>  <SCORE.heavy>
42

>  <SCORE.norm>
-0.499846

>  <RMSD>
2.997

$$$$
2fcy_lig
 OpenBabel11021811433D
libRbt.so/2013.1/901 2013/11/27
 42 45  0  0  0  0  0  0  0  0999 V2000
   -0.5633   91.0603   13.6941 C   0  0  2  0  0  0  0  0  0  0  0  0
   -0.1088   92.4226   13.7641 O   0  0  0  0  0  0  0  0  0  0  0  0
   -1.7987   90.9964   14.5934 C   0  0  2  0  0  0  0  0  0  0  0  0
   -2.7544   92.0226   14.1547 N   0  0  0  0  0  0  0  0  0  0  0  0
   -1.3911   91.2674   16.0437 C   0  0  1  0  0  0  0  0  0  0  0  0
   -2.5310   91.2087   16.9057 O   0  0  0  0  0  0  0  0  0  0  0  0
   -0.3403   90.2438   16.4746 C   0  0  2  0  0  0  0  0  0  0  0  0
    0.1086   90.5570   17.7930 O   0  0  0  0  0  0  0  0  0  0  0  0
    0.8580   90.3400   15.5291 C   0  0  2  0  0  0  0  0  0  0  0  0
    0.4217   90.1243   14.1779 O   0  0  0  0  0  0  0  0  0  0  0  0
    1.9134   89.3119   15.9449 C   0  0  0  0  0  0  0  0  0  0  0  0
    2.5098   89.6651   17.2418 N   0  0  0  0  0  0  0  0  0  0  0  0
    1.2539   94.7706   10.5585 C   0  0  2  0  0  0  0  0  0  0  0  0
    1.9677   95.4388    9.4599 N   0  0  0  0  0  0  0  0  0  0  0  0
    2.0474   94.8706   11.8628 C   0  0  0  0  0  0  0  0  0  0  0  0
    1.1971   94.2771   12.9906 C   0  0  2  0  0  0  0  0  0  0  0  0
    1.9740   94.2825   14.2385 N   0  0  0  0  0  0  0  0  0  0  0  0
    0.7776   92.8316   12.7075 C   0  0  2  0  0  0  0  0  0  0  0  0
    0.1905   92.5995   11.3197 C   0  0  2  0  0  0  0  0  0  0  0  0
    0.2328   91.1779   11.1164 O   0  0  0  0  0  0  0  0  0  0  0  0
    1.0142   93.2954   10.2280 C   0  0  1  0  0  0  0  0  0  0  0  0
    0.3438   93.2325    8.9664 O   0  0  0  0  0  0  0  0  0  0  0  0
   -0.1379   90.7246    9.8044 C   0  0  1  0  0  0  0  0  0  0  0  0
    0.1243   89.2188    9.7448 C   0  0  2  0  0  0  0  0  0  0  0  0
    1.4997   88.9821    9.4351 O   0  0  0  0  0  0  0  0  0  0  0  0
   -0.7373   88.8788    8.5321 C   0  0  1  0  0  0  0  0  0  0  0  0
   -1.9996   89.6585    8.8650 C   0  0  2  0  0  0  0  0  0  0  0  0
   -1.5475   90.8567    9.5289 O   0  0  0  0  0  0  0  0  0  0  0  0
   -2.8912   88.8043    9.7736 C   0  0  0  0  0  0  0  0  0  0  0  0
   -4.1057   89.4956   10.0793 O   0  0  0  0  0  0  0  0  0  0  0  0
   -0.8802   88.9768    6.1937 C   0  0  2  0  0  0  0  0  0  0  0  0
   -0.1319   89.4066    7.3412 O   0  0  0  0  0  0  0  0  0  0  0  0
   -0.0586   89.2234    4.9243 C   0  0  1  0  0  0  0  0  0  0  0  0
   -5.1421   89.5909    3.9614 N   0  0  0  0  0  0  0  0  0  0  0  0
   -0.8778   88.8663    3.6794 C   0  0  1  0  0  0  0  0  0  0  0  0
   -1.0984   87.4536    3.6188 O   0  0  0  0  0  0  0  0  0  0  0  0
   -2.2206   89.6012    3.7140 C   0  0  2  0  0  0  0  0  0  0  0  0
   -1.9734   91.0076    3.6114 O   0  0  0  0  0  0  0  0  0  0  0  0
   -2.9428   89.2891    5.0290 C   0  0  1  0  0  0  0  0  0  0  0  0
   -2.1267   89.6928    6.1442 O   0  0  0  0  0  0  0  0  0  0  0  0
   -4.3041   89.9859    5.1032 C   0  0  0  0  0  0  0  0  0  0  0  0
    0.2895   90.6508    4.8576 N   0  0  0  0  0  0  0  0  0  0  0  0
  1  2  1  1  0  0  0
  1  3  1  0  0  0  0
  1 10  1  0  0  0  0
  3  4  1  6  0  0  0
  3  5  1  0  0  0  0
  5  6  1  1  0  0  0
  5  7  1  0  0  0  0
  7  8  1  1  0  0  0
  7  9  1  0  0  0  0
  9 10  1  0  0  0  0
  9 11  1  1  0  0  0
 11 12  1  0  0  0  0
 13 14  1  6  0  0  0
 13 15  1  0  0  0  0
 13 21  1  0  0  0  0
 16 15  1  0  0  0  0
 16 17  1  1  0  0  0
 18  2  1  1  0  0  0
 18 16  1  0  0  0  0
 19 18  1  0  0  0  0
 19 20  1  6  0  0  0
 21 19  1  0  0  0  0
 21 22  1  6  0  0  0
 23 20  1  1  0  0  0
 23 24  1  0  0  0  0
 23 28  1  0  0  0  0
 24 25  1  6  0  0  0
 24 26  1  0  0  0  0
 26 27  1  0  0  0  0
 26 32  1  6  0  0  0
 27 28  1  0  0  0  0
 27 29  1  1  0  0  0
 29 30  1  0  0  0  0
 31 32  1  1  0  0  0
 31 40  1  0  0  0  0
 33 31  1  0  0  0  0
 33 42  1  6  0  0  0
 35 33  1  0  0  0  0
 35 36  1  1  0  0  0
 37 35  1  0  0  0  0
 37 38  1  1  0  0  0
 37 39  1  0  0  0  0
 39 40  1  0  0  0  0
 39 41  1  6  0  0  0
 41 34  1  0  0  0  0
M  END
>  <CHROM.1>
-161.80510663,-67.98156727,-177.45731700,-173.41687688,173.64053101,174.64984275
-178.53052792,-165.60040186,57.34006290,-0.58590742,90.84740506,10.32311596
1.24487677,0.88758915,1.63658793

>  <Name>
2fcy_lig

>  <RI>
224

>  <Rbt.Current_Directory>
/home/itssahil/PROJECTS/Mol_Feturizer/New_Systems/rnas/2fcy

>  <Rbt.Executable>
rbdock ($Id: //depot/dev/client3/rdock/2013.1/src/exe/rbdock.cxx#4 $)

>  <Rbt.Library>
libRbt.so (2013.1, Build901 2013/11/27)

>  <Rbt.Parameter_File>
/export/apps/rDock/src/rDock_2013.1_src/data/scripts/dock_solv.prm

>  <Rbt.Receptor>
prm/pocket_docking_6.prm

>  <SCORE>
-20.9119

>  <SCORE.INTER>
-16.629

>  <SCORE.INTER.CONST>
1

>  <SCORE.INTER.POLAR>
-1.60892

>  <SCORE.INTER.ROT>
9

>  <SCORE.INTER.SOLV>
16.5411

>  <SCORE.INTER.VDW>
-20.8366

>  <SCORE.INTER.norm>
-0.395929

>  <SCORE.INTRA>
-4.2829

>  <SCORE.INTRA.DIHEDRAL>
-13.3714

>  <SCORE.INTRA.DIHEDRAL.0>
17.3446

>  <SCORE.INTRA.POLAR>
0

>  <SCORE.INTRA.POLAR.0>
0

>  <SCORE.INTRA.REPUL>
0

>  <SCORE.INTRA.REPUL.0>
0

>  <SCORE.INTRA.SOLV>
-4.27125

>  <SCORE.INTRA.SOLV.lig_0>
-112.452

>  <SCORE.INTRA.VDW>
4.53842

>  <SCORE.INTRA.VDW.0>
-5.95059

>  <SCORE.INTRA.norm>
-0.101974

>  <SCORE.RESTR>
0

>  <SCORE.RESTR.CAVITY>
0

>  <SCORE.RESTR.norm>
0

>  <SCORE.SYSTEM>
0

>  <SCORE.SYSTEM.CONST>
0

>  <SCORE.SYSTEM.DIHEDRAL>
0

>  <SCORE.SYSTEM.SOLV>
0

>  <SCORE.SYSTEM.norm>
0

>  <SCORE.heavy>
42

>  <SCORE.norm>
-0.497903

>  <RMSD>
3.035

$$$$
2fcy_lig
 OpenBabel11021811433D
libRbt.so/2013.1/901 2013/11/27
 42 45  0  0  0  0  0  0  0  0999 V2000
    1.3536   92.1282   14.0615 C   0  0  2  0  0  0  0  0  0  0  0  0
    1.1276   93.4920   14.4569 O   0  0  0  0  0  0  0  0  0  0  0  0
    0.0176   91.4154   14.2753 C   0  0  2  0  0  0  0  0  0  0  0  0
   -1.0265   92.1402   13.5382 N   0  0  0  0  0  0  0  0  0  0  0  0
   -0.3255   91.4071   15.7671 C   0  0  1  0  0  0  0  0  0  0  0  0
   -1.5709   90.7408   15.9929 O   0  0  0  0  0  0  0  0  0  0  0  0
    0.7985   90.7185   16.5419 C   0  0  2  0  0  0  0  0  0  0  0  0
    0.5229   90.7975   17.9403 O   0  0  0  0  0  0  0  0  0  0  0  0
    2.1086   91.4605   16.2729 C   0  0  2  0  0  0  0  0  0  0  0  0
    2.3664   91.4826   14.8603 O   0  0  0  0  0  0  0  0  0  0  0  0
    3.2441   90.7736   17.0361 C   0  0  0  0  0  0  0  0  0  0  0  0
    3.4152   89.3839   16.5864 N   0  0  0  0  0  0  0  0  0  0  0  0
    2.9473   97.1344   13.4235 C   0  0  2  0  0  0  0  0  0  0  0  0
    3.8248   98.2789   13.1351 N   0  0  0  0  0  0  0  0  0  0  0  0
    3.1034   96.6821   14.8767 C   0  0  0  0  0  0  0  0  0  0  0  0
    2.0743   95.5810   15.1517 C   0  0  2  0  0  0  0  0  0  0  0  0
    2.2636   95.0695   16.5168 N   0  0  0  0  0  0  0  0  0  0  0  0
    2.2106   94.3995   14.1869 C   0  0  2  0  0  0  0  0  0  0  0  0
    2.3047   94.7871   12.7153 C   0  0  2  0  0  0  0  0  0  0  0  0
    2.8086   93.6226   12.0416 O   0  0  0  0  0  0  0  0  0  0  0  0
    3.2683   95.9608   12.4949 C   0  0  1  0  0  0  0  0  0  0  0  0
    3.1935   96.4350   11.1478 O   0  0  0  0  0  0  0  0  0  0  0  0
    2.2382   93.3536   10.7507 C   0  0  1  0  0  0  0  0  0  0  0  0
    0.8880   92.6709   10.9755 C   0  0  2  0  0  0  0  0  0  0  0  0
    1.0855   91.2695   11.1774 O   0  0  0  0  0  0  0  0  0  0  0  0
    0.2743   92.9062    9.5984 C   0  0  1  0  0  0  0  0  0  0  0  0
    0.6285   94.3697    9.3865 C   0  0  2  0  0  0  0  0  0  0  0  0
    1.9199   94.5461   10.0044 O   0  0  0  0  0  0  0  0  0  0  0  0
   -0.4438   95.2452   10.0453 C   0  0  0  0  0  0  0  0  0  0  0  0
   -1.7264   94.9908    9.4650 O   0  0  0  0  0  0  0  0  0  0  0  0
    0.0321   91.7801    7.5560 C   0  0  2  0  0  0  0  0  0  0  0  0
    0.9422   92.0915    8.6218 O   0  0  0  0  0  0  0  0  0  0  0  0
    0.7369   90.8959    6.5222 C   0  0  1  0  0  0  0  0  0  0  0  0
   -0.8265   95.0196    5.0682 N   0  0  0  0  0  0  0  0  0  0  0  0
   -0.1839   90.6350    5.3253 C   0  0  1  0  0  0  0  0  0  0  0  0
   -1.2858   89.8101    5.7174 O   0  0  0  0  0  0  0  0  0  0  0  0
   -0.7015   91.9645    4.7697 C   0  0  2  0  0  0  0  0  0  0  0  0
    0.4067   92.6992    4.2390 O   0  0  0  0  0  0  0  0  0  0  0  0
   -1.3726   92.7634    5.8921 C   0  0  1  0  0  0  0  0  0  0  0  0
   -0.4308   93.0020    6.9545 O   0  0  0  0  0  0  0  0  0  0  0  0
   -1.9269   94.0960    5.3812 C   0  0  0  0  0  0  0  0  0  0  0  0
    1.9365   91.5976    6.0409 N   0  0  0  0  0  0  0  0  0  0  0  0
  1  2  1  1  0  0  0
  1  3  1  0  0  0  0
  1 10  1  0  0  0  0
  3  4  1  6  0  0  0
  3  5  1  0  0  0  0
  5  6  1  6  0  0  0
  5  7  1  0  0  0  0
  7  8  1  1  0  0  0
  7  9  1  0  0  0  0
  9 10  1  0  0  0  0
  9 11  1  1  0  0  0
 11 12  1  0  0  0  0
 13 14  1  6  0  0  0
 13 15  1  0  0  0  0
 13 21  1  0  0  0  0
 16 15  1  0  0  0  0
 16 17  1  1  0  0  0
 18  2  1  6  0  0  0
 18 16  1  0  0  0  0
 19 18  1  0  0  0  0
 19 20  1  6  0  0  0
 21 19  1  0  0  0  0
 21 22  1  6  0  0  0
 23 20  1  1  0  0  0
 23 24  1  0  0  0  0
 23 28  1  0  0  0  0
 24 25  1  6  0  0  0
 24 26  1  0  0  0  0
 26 27  1  0  0  0  0
 26 32  1  6  0  0  0
 27 28  1  0  0  0  0
 27 29  1  1  0  0  0
 29 30  1  0  0  0  0
 31 32  1  1  0  0  0
 31 40  1  0  0  0  0
 33 31  1  0  0  0  0
 33 42  1  6  0  0  0
 35 33  1  0  0  0  0
 35 36  1  1  0  0  0
 37 35  1  0  0  0  0
 37 38  1  1  0  0  0
 37 39  1  0  0  0  0
 39 40  1  0  0  0  0
 39 41  1  6  0  0  0
 41 34  1  0  0  0  0
M  END
>  <CHROM.1>
-172.70124874,61.31532869,-156.46250761,141.44942083,-80.09491848,151.36227273
-60.31572048,-179.26736567,-71.01145110,0.99253019,93.07244782,11.32909908
1.01813294,1.15189000,2.06660161

>  <Name>
2fcy_lig

>  <RI>
0

>  <Rbt.Current_Directory>
/home/itssahil/PROJECTS/Mol_Feturizer/New_Systems/rnas/2fcy

>  <Rbt.Executable>
rbdock ($Id: //depot/dev/client3/rdock/2013.1/src/exe/rbdock.cxx#4 $)

>  <Rbt.Library>
libRbt.so (2013.1, Build901 2013/11/27)

>  <Rbt.Parameter_File>
/export/apps/rDock/src/rDock_2013.1_src/data/scripts/dock_solv.prm

>  <Rbt.Receptor>
prm/pocket_docking_5.prm

>  <SCORE>
-11.7388

>  <SCORE.INTER>
-11.1433

>  <SCORE.INTER.CONST>
1

>  <SCORE.INTER.POLAR>
-1.27343

>  <SCORE.INTER.ROT>
9

>  <SCORE.INTER.SOLV>
21.0151

>  <SCORE.INTER.VDW>
-19.7891

>  <SCORE.INTER.norm>
-0.265316

>  <SCORE.INTRA>
-0.609512

>  <SCORE.INTRA.DIHEDRAL>
-3.73497

>  <SCORE.INTRA.DIHEDRAL.0>
17.3446

>  <SCORE.INTRA.POLAR>
0

>  <SCORE.INTRA.POLAR.0>
0

>  <SCORE.INTRA.REPUL>
0

>  <SCORE.INTRA.REPUL.0>
0

>  <SCORE.INTRA.SOLV>
1.07068

>  <SCORE.INTRA.SOLV.lig_0>
-112.452

>  <SCORE.INTRA.VDW>
0.722635

>  <SCORE.INTRA.VDW.0>
-5.95059

>  <SCORE.INTRA.norm>
-0.0145122

>  <SCORE.RESTR>
0.0140074

>  <SCORE.RESTR.CAVITY>
0.0140074

>  <SCORE.RESTR.norm>
0.00033351

>  <SCORE.SYSTEM>
0

>  <SCORE.SYSTEM.CONST>
0

>  <SCORE.SYSTEM.DIHEDRAL>
0

>  <SCORE.SYSTEM.SOLV>
0

>  <SCORE.SYSTEM.norm>
0

>  <SCORE.heavy>
42

>  <SCORE.norm>
-0.279495

>  <RMSD>
3.049

$$$$
2fcy_lig
 OpenBabel11021811433D
libRbt.so/2013.1/901 2013/11/27
 42 45  0  0  0  0  0  0  0  0999 V2000
    0.3870   92.2693   11.9491 C   0  0  2  0  0  0  0  0  0  0  0  0
    0.1171   93.6591   12.1996 O   0  0  0  0  0  0  0  0  0  0  0  0
   -0.8623   91.5211   12.4165 C   0  0  2  0  0  0  0  0  0  0  0  0
   -2.0337   92.0879   11.7343 N   0  0  0  0  0  0  0  0  0  0  0  0
   -1.0240   91.6892   13.9294 C   0  0  1  0  0  0  0  0  0  0  0  0
   -2.1852   90.9935   14.3913 O   0  0  0  0  0  0  0  0  0  0  0  0
    0.2287   91.1674   14.6340 C   0  0  2  0  0  0  0  0  0  0  0  0
    0.1168   91.4133   16.0357 O   0  0  0  0  0  0  0  0  0  0  0  0
    1.4437   91.9359   14.1121 C   0  0  2  0  0  0  0  0  0  0  0  0
    1.5293   91.7874   12.6862 O   0  0  0  0  0  0  0  0  0  0  0  0
    2.7062   91.4149   14.8036 C   0  0  0  0  0  0  0  0  0  0  0  0
    2.7482   91.8386   16.2112 N   0  0  0  0  0  0  0  0  0  0  0  0
    1.9623   97.3387   11.3612 C   0  0  2  0  0  0  0  0  0  0  0  0
    2.8496   98.4822   11.1006 N   0  0  0  0  0  0  0  0  0  0  0  0
    2.2516   96.7277   12.7337 C   0  0  0  0  0  0  0  0  0  0  0  0
    1.2139   95.6330   13.0021 C   0  0  2  0  0  0  0  0  0  0  0  0
    1.5247   94.9717   14.2776 N   0  0  0  0  0  0  0  0  0  0  0  0
    1.2012   94.5594   11.9100 C   0  0  2  0  0  0  0  0  0  0  0  0
    1.1559   95.1010   10.4856 C   0  0  2  0  0  0  0  0  0  0  0  0
    1.5397   94.0023    9.6432 O   0  0  0  0  0  0  0  0  0  0  0  0
    2.1372   96.2637   10.2858 C   0  0  1  0  0  0  0  0  0  0  0  0
    1.9407   96.8827    9.0117 O   0  0  0  0  0  0  0  0  0  0  0  0
    0.4712   93.1427    9.2146 C   0  0  1  0  0  0  0  0  0  0  0  0
   -0.3222   93.8917    8.1425 C   0  0  2  0  0  0  0  0  0  0  0  0
   -1.2729   94.7585    8.7657 O   0  0  0  0  0  0  0  0  0  0  0  0
   -1.0482   92.7046    7.5163 C   0  0  1  0  0  0  0  0  0  0  0  0
    0.0985   91.7132    7.3974 C   0  0  2  0  0  0  0  0  0  0  0  0
    0.9284   91.9447    8.5542 O   0  0  0  0  0  0  0  0  0  0  0  0
    0.8550   91.9764    6.0902 C   0  0  0  0  0  0  0  0  0  0  0  0
    1.6607   90.8475    5.7399 O   0  0  0  0  0  0  0  0  0  0  0  0
   -3.3457   92.3843    7.8591 C   0  0  2  0  0  0  0  0  0  0  0  0
   -2.0396   92.2041    8.4274 O   0  0  0  0  0  0  0  0  0  0  0  0
   -3.6025   91.2974    6.8103 C   0  0  1  0  0  0  0  0  0  0  0  0
   -6.1713   95.7307    5.7941 N   0  0  0  0  0  0  0  0  0  0  0  0
   -4.9497   91.5303    6.1180 C   0  0  1  0  0  0  0  0  0  0  0  0
   -6.0245   91.3132    7.0379 O   0  0  0  0  0  0  0  0  0  0  0  0
   -5.0125   92.9597    5.5730 C   0  0  2  0  0  0  0  0  0  0  0  0
   -4.0300   93.0977    4.5410 O   0  0  0  0  0  0  0  0  0  0  0  0
   -4.7290   93.9534    6.7047 C   0  0  1  0  0  0  0  0  0  0  0  0
   -3.4310   93.6941    7.2709 O   0  0  0  0  0  0  0  0  0  0  0  0
   -4.8010   95.4018    6.2136 C   0  0  0  0  0  0  0  0  0  0  0  0
   -2.5410   91.3620    5.7944 N   0  0  0  0  0  0  0  0  0  0  0  0
  1  2  1  1  0  0  0
  1  3  1  0  0  0  0
  1 10  1  0  0  0  0
  3  4  1  6  0  0  0
  3  5  1  0  0  0  0
  5  6  1  1  0  0  0
  5  7  1  0  0  0  0
  7  8  1  1  0  0  0
  7  9  1  0  0  0  0
  9 10  1  0  0  0  0
  9 11  1  1  0  0  0
 11 12  1  0  0  0  0
 13 14  1  6  0  0  0
 13 15  1  0  0  0  0
 13 21  1  0  0  0  0
 16 15  1  0  0  0  0
 16 17  1  1  0  0  0
 18  2  1  1  0  0  0
 18 16  1  0  0  0  0
 19 18  1  0  0  0  0
 19 20  1  6  0  0  0
 21 19  1  0  0  0  0
 21 22  1  6  0  0  0
 23 20  1  6  0  0  0
 23 24  1  0  0  0  0
 23 28  1  0  0  0  0
 24 25  1  1  0  0  0
 24 26  1  0  0  0  0
 26 27  1  0  0  0  0
 26 32  1  1  0  0  0
 27 28  1  0  0  0  0
 27 29  1  6  0  0  0
 29 30  1  0  0  0  0
 31 32  1  6  0  0  0
 31 40  1  0  0  0  0
 33 31  1  0  0  0  0
 33 42  1  6  0  0  0
 35 33  1  0  0  0  0
 35 36  1  1  0  0  0
 37 35  1  0  0  0  0
 37 38  1  6  0  0  0
 37 39  1  0  0  0  0
 39 40  1  0  0  0  0
 39 41  1  6  0  0  0
 41 34  1  0  0  0  0
M  END
>  <CHROM.1>
176.29527896,-71.66456185,-141.17428510,88.15013133,74.25485237,115.70753032
-162.45075686,78.13318078,65.21180448,-0.68008687,93.25932013,9.94613932
0.69539445,0.73853928,2.18689716

>  <Name>
2fcy_lig

>  <RI>
1.56845e+07

>  <Rbt.Current_Directory>
/home/itssahil/PROJECTS/Mol_Feturizer/New_Systems/rnas/2fcy

>  <Rbt.Executable>
rbdock ($Id: //depot/dev/client3/rdock/2013.1/src/exe/rbdock.cxx#4 $)

>  <Rbt.Library>
libRbt.so (2013.1, Build901 2013/11/27)

>  <Rbt.Parameter_File>
/export/apps/rDock/src/rDock_2013.1_src/data/scripts/dock_solv.prm

>  <Rbt.Receptor>
prm/pocket_docking_4.prm

>  <SCORE>
-8.14852

>  <SCORE.INTER>
-13.4691

>  <SCORE.INTER.CONST>
1

>  <SCORE.INTER.POLAR>
-2.33831

>  <SCORE.INTER.ROT>
9

>  <SCORE.INTER.SOLV>
8.23011

>  <SCORE.INTER.VDW>
-13.5284

>  <SCORE.INTER.norm>
-0.320692

>  <SCORE.INTRA>
5.32056

>  <SCORE.INTRA.DIHEDRAL>
2.02284

>  <SCORE.INTRA.DIHEDRAL.0>
17.3446

>  <SCORE.INTRA.POLAR>
0

>  <SCORE.INTRA.POLAR.0>
0

>  <SCORE.INTRA.REPUL>
0

>  <SCORE.INTRA.REPUL.0>
0

>  <SCORE.INTRA.SOLV>
3.2009

>  <SCORE.INTRA.SOLV.lig_0>
-112.452

>  <SCORE.INTRA.VDW>
2.70869

>  <SCORE.INTRA.VDW.0>
-5.95059

>  <SCORE.INTRA.norm>
0.12668

>  <SCORE.RESTR>
0

>  <SCORE.RESTR.CAVITY>
0

>  <SCORE.RESTR.norm>
0

>  <SCORE.SYSTEM>
0

>  <SCORE.SYSTEM.CONST>
0

>  <SCORE.SYSTEM.DIHEDRAL>
0

>  <SCORE.SYSTEM.SOLV>
0

>  <SCORE.SYSTEM.norm>
0

>  <SCORE.heavy>
42

>  <SCORE.norm>
-0.194012

>  <RMSD>
3.177

$$$$
2fcy_lig
 OpenBabel11021811433D
libRbt.so/2013.1/901 2013/11/27
 42 45  0  0  0  0  0  0  0  0999 V2000
    0.6183   91.0845   14.4459 C   0  0  2  0  0  0  0  0  0  0  0  0
    1.1334   92.3231   14.9634 O   0  0  0  0  0  0  0  0  0  0  0  0
   -0.7534   90.9093   15.0991 C   0  0  2  0  0  0  0  0  0  0  0  0
   -1.5589   92.1089   14.8326 N   0  0  0  0  0  0  0  0  0  0  0  0
   -0.5828   90.7366   16.6105 C   0  0  1  0  0  0  0  0  0  0  0  0
   -1.8539   90.5665   17.2438 O   0  0  0  0  0  0  0  0  0  0  0  0
    0.3177   89.5317   16.8844 C   0  0  2  0  0  0  0  0  0  0  0  0
    0.5538   89.4306   18.2886 O   0  0  0  0  0  0  0  0  0  0  0  0
    1.6627   89.7541   16.1910 C   0  0  2  0  0  0  0  0  0  0  0  0
    1.4503   89.9562   14.7851 O   0  0  0  0  0  0  0  0  0  0  0  0
    2.5701   88.5486   16.4501 C   0  0  0  0  0  0  0  0  0  0  0  0
    3.0058   88.5100   17.8541 N   0  0  0  0  0  0  0  0  0  0  0  0
    3.8304   95.1785   13.4736 C   0  0  2  0  0  0  0  0  0  0  0  0
    4.9469   95.9562   12.9154 N   0  0  0  0  0  0  0  0  0  0  0  0
    4.2751   94.4028   14.7151 C   0  0  0  0  0  0  0  0  0  0  0  0
    3.0449   93.7227   15.3244 C   0  0  2  0  0  0  0  0  0  0  0  0
    3.4622   92.8999   16.4689 N   0  0  0  0  0  0  0  0  0  0  0  0
    2.3293   92.8071   14.3269 C   0  0  2  0  0  0  0  0  0  0  0  0
    2.0610   93.4367   12.9645 C   0  0  2  0  0  0  0  0  0  0  0  0
    1.7617   92.3402   12.0857 O   0  0  0  0  0  0  0  0  0  0  0  0
    3.2855   94.1949   12.4351 C   0  0  1  0  0  0  0  0  0  0  0  0
    2.9550   94.9382   11.2590 O   0  0  0  0  0  0  0  0  0  0  0  0
    0.3668   92.1087   11.8306 C   0  0  1  0  0  0  0  0  0  0  0  0
   -0.1036   93.1722   10.8369 C   0  0  2  0  0  0  0  0  0  0  0  0
   -0.4338   94.3732   11.5385 O   0  0  0  0  0  0  0  0  0  0  0  0
   -1.3833   92.4941   10.3564 C   0  0  1  0  0  0  0  0  0  0  0  0
   -0.8769   91.0775   10.1351 C   0  0  2  0  0  0  0  0  0  0  0  0
    0.1052   90.8546   11.1678 O   0  0  0  0  0  0  0  0  0  0  0  0
   -0.2639   90.9778    8.7335 C   0  0  0  0  0  0  0  0  0  0  0  0
    1.1171   91.3499    8.7614 O   0  0  0  0  0  0  0  0  0  0  0  0
   -3.6572   92.2105   10.8539 C   0  0  2  0  0  0  0  0  0  0  0  0
   -2.3652   92.5079   11.4049 O   0  0  0  0  0  0  0  0  0  0  0  0
   -4.7346   92.4483   11.9168 C   0  0  1  0  0  0  0  0  0  0  0  0
   -3.8628   89.0210    8.1473 N   0  0  0  0  0  0  0  0  0  0  0  0
   -6.1118   92.0400   11.3827 C   0  0  1  0  0  0  0  0  0  0  0  0
   -6.5237   92.9299   10.3403 O   0  0  0  0  0  0  0  0  0  0  0  0
   -6.0571   90.6054   10.8503 C   0  0  2  0  0  0  0  0  0  0  0  0
   -5.8013   89.7216   11.9470 O   0  0  0  0  0  0  0  0  0  0  0  0
   -4.9397   90.4870    9.8083 C   0  0  1  0  0  0  0  0  0  0  0  0
   -3.6773   90.8456   10.4005 O   0  0  0  0  0  0  0  0  0  0  0  0
   -4.8575   89.0722    9.2288 C   0  0  0  0  0  0  0  0  0  0  0  0
   -4.4282   91.6197   13.0927 N   0  0  0  0  0  0  0  0  0  0  0  0
  1  2  1  1  0  0  0
  1  3  1  0  0  0  0
  1 10  1  0  0  0  0
  3  4  1  1  0  0  0
  3  5  1  0  0  0  0
  5  6  1  1  0  0  0
  5  7  1  0  0  0  0
  7  8  1  1  0  0  0
  7  9  1  0  0  0  0
  9 10  1  0  0  0  0
  9 11  1  6  0  0  0
 11 12  1  0  0  0  0
 13 14  1  6  0  0  0
 13 15  1  0  0  0  0
 13 21  1  0  0  0  0
 16 15  1  0  0  0  0
 16 17  1  1  0  0  0
 18  2  1  1  0  0  0
 18 16  1  0  0  0  0
 19 18  1  0  0  0  0
 19 20  1  6  0  0  0
 21 19  1  0  0  0  0
 21 22  1  6  0  0  0
 23 20  1  6  0  0  0
 23 24  1  0  0  0  0
 23 28  1  0  0  0  0
 24 25  1  1  0  0  0
 24 26  1  0  0  0  0
 26 27  1  0  0  0  0
 26 32  1  1  0  0  0
 27 28  1  0  0  0  0
 27 29  1  6  0  0  0
 29 30  1  0  0  0  0
 31 32  1  1  0  0  0
 31 40  1  0  0  0  0
 33 31  1  0  0  0  0
 33 42  1  1  0  0  0
 35 33  1  0  0  0  0
 35 36  1  6  0  0  0
 37 35  1  0  0  0  0
 37 38  1  1  0  0  0
 37 39  1  0  0  0  0
 39 40  1  0  0  0  0
 39 41  1  1  0  0  0
 41 34  1  0  0  0  0
M  END
>  <CHROM.1>
-170.50352338,-70.50532926,-156.10696933,99.72895527,76.52490088,164.47331514
87.51098717,-170.79974162,174.80382116,-0.48911088,91.73417173,12.90007919
0.44286922,0.43067299,2.05683466

>  <Name>
2fcy_lig

>  <RI>
2.32494e+07

>  <Rbt.Current_Directory>
/home/itssahil/PROJECTS/Mol_Feturizer/New_Systems/rnas/2fcy

>  <Rbt.Executable>
rbdock ($Id: //depot/dev/client3/rdock/2013.1/src/exe/rbdock.cxx#4 $)

>  <Rbt.Library>
libRbt.so (2013.1, Build901 2013/11/27)

>  <Rbt.Parameter_File>
/export/apps/rDock/src/rDock_2013.1_src/data/scripts/dock_solv.prm

>  <Rbt.Receptor>
prm/pocket_docking_8.prm

>  <SCORE>
-22.5323

>  <SCORE.INTER>
-22.5969

>  <SCORE.INTER.CONST>
1

>  <SCORE.INTER.POLAR>
-1.85359

>  <SCORE.INTER.ROT>
9

>  <SCORE.INTER.SOLV>
19.3951

>  <SCORE.INTER.VDW>
-24.951

>  <SCORE.INTER.norm>
-0.538022

>  <SCORE.INTRA>
0.0645947

>  <SCORE.INTRA.DIHEDRAL>
-3.14829

>  <SCORE.INTRA.DIHEDRAL.0>
17.3446

>  <SCORE.INTRA.POLAR>
0

>  <SCORE.INTRA.POLAR.0>
0

>  <SCORE.INTRA.REPUL>
0

>  <SCORE.INTRA.REPUL.0>
0

>  <SCORE.INTRA.SOLV>
0.332971

>  <SCORE.INTRA.SOLV.lig_0>
-112.452

>  <SCORE.INTRA.VDW>
1.47225

>  <SCORE.INTRA.VDW.0>
-5.95059

>  <SCORE.INTRA.norm>
0.00153797

>  <SCORE.RESTR>
0

>  <SCORE.RESTR.CAVITY>
0

>  <SCORE.RESTR.norm>
0

>  <SCORE.SYSTEM>
0

>  <SCORE.SYSTEM.CONST>
0

>  <SCORE.SYSTEM.DIHEDRAL>
0

>  <SCORE.SYSTEM.SOLV>
0

>  <SCORE.SYSTEM.norm>
0

>  <SCORE.heavy>
42

>  <SCORE.norm>
-0.536484

>  <RMSD>
3.177

$$$$
2fcy_lig
 OpenBabel11021811433D
libRbt.so/2013.1/901 2013/11/27
 42 45  0  0  0  0  0  0  0  0999 V2000
    2.3264   91.8083   15.3439 C   0  0  2  0  0  0  0  0  0  0  0  0
    1.3541   92.5671   14.6050 O   0  0  0  0  0  0  0  0  0  0  0  0
    1.5574   90.6248   15.9329 C   0  0  2  0  0  0  0  0  0  0  0  0
    0.8746   89.9166   14.8416 N   0  0  0  0  0  0  0  0  0  0  0  0
    0.5197   91.1360   16.9354 C   0  0  1  0  0  0  0  0  0  0  0  0
   -0.2104   90.0452   17.5037 O   0  0  0  0  0  0  0  0  0  0  0  0
    1.2246   91.9371   18.0305 C   0  0  2  0  0  0  0  0  0  0  0  0
    0.2471   92.4934   18.9095 O   0  0  0  0  0  0  0  0  0  0  0  0
    1.9912   93.0903   17.3811 C   0  0  2  0  0  0  0  0  0  0  0  0
    2.9190   92.5676   16.4176 O   0  0  0  0  0  0  0  0  0  0  0  0
    2.7099   93.8944   18.4678 C   0  0  0  0  0  0  0  0  0  0  0  0
    1.7450   94.5877   19.3343 N   0  0  0  0  0  0  0  0  0  0  0  0
    1.5403   94.7728   11.0347 C   0  0  2  0  0  0  0  0  0  0  0  0
    1.7793   95.3385    9.6983 N   0  0  0  0  0  0  0  0  0  0  0  0
    2.8582   94.5820   11.7881 C   0  0  0  0  0  0  0  0  0  0  0  0
    2.5361   94.1184   13.2123 C   0  0  2  0  0  0  0  0  0  0  0  0
    3.7900   93.8443   13.9288 N   0  0  0  0  0  0  0  0  0  0  0  0
    1.6960   92.8381   13.2341 C   0  0  2  0  0  0  0  0  0  0  0  0
    0.4803   92.8588   12.3142 C   0  0  2  0  0  0  0  0  0  0  0  0
    0.0739   91.4872   12.1819 O   0  0  0  0  0  0  0  0  0  0  0  0
    0.8220   93.4252   10.9297 C   0  0  1  0  0  0  0  0  0  0  0  0
   -0.3625   93.6196   10.1524 O   0  0  0  0  0  0  0  0  0  0  0  0
   -1.0935   91.2579   11.3763 C   0  0  1  0  0  0  0  0  0  0  0  0
   -1.5600   89.8247   11.6365 C   0  0  2  0  0  0  0  0  0  0  0  0
   -0.8181   88.9208   10.8142 O   0  0  0  0  0  0  0  0  0  0  0  0
   -2.9861   89.9426   11.1067 C   0  0  1  0  0  0  0  0  0  0  0  0
   -3.4068   91.2587   11.7416 C   0  0  2  0  0  0  0  0  0  0  0  0
   -2.2194   92.0777   11.7514 O   0  0  0  0  0  0  0  0  0  0  0  0
   -3.9253   90.9882   13.1587 C   0  0  0  0  0  0  0  0  0  0  0  0
   -4.4059   92.1956   13.7568 O   0  0  0  0  0  0  0  0  0  0  0  0
   -4.2655   89.7643    9.1497 C   0  0  2  0  0  0  0  0  0  0  0  0
   -2.9652   90.0704    9.6761 O   0  0  0  0  0  0  0  0  0  0  0  0
   -4.1935   88.4763    8.3232 C   0  0  1  0  0  0  0  0  0  0  0  0
   -5.4972   92.3549    6.1265 N   0  0  0  0  0  0  0  0  0  0  0  0
   -5.5479   88.1854    7.6678 C   0  0  1  0  0  0  0  0  0  0  0  0
   -6.5179   87.8440    8.6631 O   0  0  0  0  0  0  0  0  0  0  0  0
   -6.0183   89.4128    6.8827 C   0  0  2  0  0  0  0  0  0  0  0  0
   -5.1133   89.6330    5.7955 O   0  0  0  0  0  0  0  0  0  0  0  0
   -6.0382   90.6359    7.8058 C   0  0  1  0  0  0  0  0  0  0  0  0
   -4.7228   90.8648    8.3444 O   0  0  0  0  0  0  0  0  0  0  0  0
   -6.5231   91.8885    7.0708 C   0  0  0  0  0  0  0  0  0  0  0  0
   -3.1918   88.6528    7.2610 N   0  0  0  0  0  0  0  0  0  0  0  0
  1  2  1  1  0  0  0
  1  3  1  0  0  0  0
  1 10  1  0  0  0  0
  3  4  1  6  0  0  0
  3  5  1  0  0  0  0
  5  6  1  1  0  0  0
  5  7  1  0  0  0  0
  7  8  1  1  0  0  0
  7  9  1  0  0  0  0
  9 10  1  0  0  0  0
  9 11  1  1  0  0  0
 11 12  1  0  0  0  0
 13 14  1  6  0  0  0
 13 15  1  0  0  0  0
 13 21  1  0  0  0  0
 16 15  1  0  0  0  0
 16 17  1  1  0  0  0
 18  2  1  1  0  0  0
 18 16  1  0  0  0  0
 19 18  1  0  0  0  0
 19 20  1  6  0  0  0
 21 19  1  0  0  0  0
 21 22  1  6  0  0  0
 23 20  1  1  0  0  0
 23 24  1  0  0  0  0
 23 28  1  0  0  0  0
 24 25  1  6  0  0  0
 24 26  1  0  0  0  0
 26 27  1  0  0  0  0
 26 32  1  6  0  0  0
 27 28  1  0  0  0  0
 27 29  1  1  0  0  0
 29 30  1  0  0  0  0
 31 32  1  6  0  0  0
 31 40  1  0  0  0  0
 33 31  1  0  0  0  0
 33 42  1  6  0  0  0
 35 33  1  0  0  0  0
 35 36  1  1  0  0  0
 37 35  1  0  0  0  0
 37 38  1  6  0  0  0
 37 39  1  0  0  0  0
 39 40  1  0  0  0  0
 39 41  1  6  0  0  0
 41 34  1  0  0  0  0
M  END
>  <CHROM.1>
-126.50575750,-67.19527346,-86.56893809,178.38046058,-166.22456087,162.13252279
-176.49700691,-113.32146487,-71.94425430,-1.18405768,91.55418359,12.15317671
0.70330473,0.65349731,1.86573860

>  <Name>
2fcy_lig

>  <RI>
0

>  <Rbt.Current_Directory>
/home/itssahil/PROJECTS/Mol_Feturizer/New_Systems/rnas/2fcy

>  <Rbt.Executable>
rbdock ($Id: //depot/dev/client3/rdock/2013.1/src/exe/rbdock.cxx#4 $)

>  <Rbt.Library>
libRbt.so (2013.1, Build901 2013/11/27)

>  <Rbt.Parameter_File>
/export/apps/rDock/src/rDock_2013.1_src/data/scripts/dock_solv.prm

>  <Rbt.Receptor>
prm/pocket_docking_5.prm

>  <SCORE>
-12.3853

>  <SCORE.INTER>
-16.5916

>  <SCORE.INTER.CONST>
1

>  <SCORE.INTER.POLAR>
-1.61682

>  <SCORE.INTER.ROT>
9

>  <SCORE.INTER.SOLV>
20.3421

>  <SCORE.INTER.VDW>
-22.0524

>  <SCORE.INTER.norm>
-0.395039

>  <SCORE.INTRA>
4.20636

>  <SCORE.INTRA.DIHEDRAL>
3.02188

>  <SCORE.INTRA.DIHEDRAL.0>
17.3446

>  <SCORE.INTRA.POLAR>
0

>  <SCORE.INTRA.POLAR.0>
0

>  <SCORE.INTRA.REPUL>
0

>  <SCORE.INTRA.REPUL.0>
0

>  <SCORE.INTRA.SOLV>
0.282689

>  <SCORE.INTRA.SOLV.lig_0>
-112.452

>  <SCORE.INTRA.VDW>
2.55408

>  <SCORE.INTRA.VDW.0>
-5.95059

>  <SCORE.INTRA.norm>
0.100151

>  <SCORE.RESTR>
0

>  <SCORE.RESTR.CAVITY>
0

>  <SCORE.RESTR.norm>
0

>  <SCORE.SYSTEM>
0

>  <SCORE.SYSTEM.CONST>
0

>  <SCORE.SYSTEM.DIHEDRAL>
0

>  <SCORE.SYSTEM.SOLV>
0

>  <SCORE.SYSTEM.norm>
0

>  <SCORE.heavy>
42

>  <SCORE.norm>
-0.294888

>  <RMSD>
3.330

$$$$
2fcy_lig
 OpenBabel11021811433D
libRbt.so/2013.1/901 2013/11/27
 42 45  0  0  0  0  0  0  0  0999 V2000
    2.6589   94.5269   14.7770 C   0  0  2  0  0  0  0  0  0  0  0  0
    4.0340   94.9455   14.8099 O   0  0  0  0  0  0  0  0  0  0  0  0
    2.0449   95.0427   16.0793 C   0  0  2  0  0  0  0  0  0  0  0  0
    2.2805   96.4901   16.1704 N   0  0  0  0  0  0  0  0  0  0  0  0
    2.7064   94.3436   17.2697 C   0  0  1  0  0  0  0  0  0  0  0  0
    2.1447   94.8073   18.5006 O   0  0  0  0  0  0  0  0  0  0  0  0
    2.5251   92.8315   17.1341 C   0  0  2  0  0  0  0  0  0  0  0  0
    3.2248   92.1772   18.1924 O   0  0  0  0  0  0  0  0  0  0  0  0
    3.1378   92.3788   15.8079 C   0  0  2  0  0  0  0  0  0  0  0  0
    2.5198   93.0922   14.7254 O   0  0  0  0  0  0  0  0  0  0  0  0
    2.9533   90.8666   15.6562 C   0  0  0  0  0  0  0  0  0  0  0  0
    1.7698   90.5602   14.8389 N   0  0  0  0  0  0  0  0  0  0  0  0
    5.1034   97.6577   11.7855 C   0  0  2  0  0  0  0  0  0  0  0  0
    5.6099   98.3846   10.6116 N   0  0  0  0  0  0  0  0  0  0  0  0
    6.2533   97.0215   12.5689 C   0  0  0  0  0  0  0  0  0  0  0  0
    5.6793   96.3958   13.8441 C   0  0  2  0  0  0  0  0  0  0  0  0
    6.7528   95.7022   14.5703 N   0  0  0  0  0  0  0  0  0  0  0  0
    4.5784   95.3729   13.5488 C   0  0  2  0  0  0  0  0  0  0  0  0
    3.5083   95.8530   12.5747 C   0  0  2  0  0  0  0  0  0  0  0  0
    2.8243   94.6673   12.1386 O   0  0  0  0  0  0  0  0  0  0  0  0
    4.1198   96.5647   11.3605 C   0  0  1  0  0  0  0  0  0  0  0  0
    3.1025   97.1768   10.5634 O   0  0  0  0  0  0  0  0  0  0  0  0
    1.6276   94.8837   11.3736 C   0  0  1  0  0  0  0  0  0  0  0  0
    1.1784   93.5282   10.8255 C   0  0  2  0  0  0  0  0  0  0  0  0
    1.8920   93.2359    9.6217 O   0  0  0  0  0  0  0  0  0  0  0  0
   -0.2678   93.8794   10.4884 C   0  0  1  0  0  0  0  0  0  0  0  0
   -0.6697   94.6275   11.7497 C   0  0  2  0  0  0  0  0  0  0  0  0
    0.5133   95.3390   12.1681 O   0  0  0  0  0  0  0  0  0  0  0  0
   -1.1314   93.6169   12.8060 C   0  0  0  0  0  0  0  0  0  0  0  0
   -2.2649   92.8815   12.3361 O   0  0  0  0  0  0  0  0  0  0  0  0
   -1.5624   94.6276    8.6821 C   0  0  2  0  0  0  0  0  0  0  0  0
   -0.3032   94.7651    9.3580 O   0  0  0  0  0  0  0  0  0  0  0  0
   -1.5544   95.4757    7.4062 C   0  0  1  0  0  0  0  0  0  0  0  0
   -6.3362   94.9008    9.4374 N   0  0  0  0  0  0  0  0  0  0  0  0
   -2.9246   95.4244    6.7217 C   0  0  1  0  0  0  0  0  0  0  0  0
   -3.1718   94.1134    6.2035 O   0  0  0  0  0  0  0  0  0  0  0  0
   -4.0192   95.8025    7.7233 C   0  0  2  0  0  0  0  0  0  0  0  0
   -3.8381   97.1714    8.1012 O   0  0  0  0  0  0  0  0  0  0  0  0
   -3.9202   94.8992    8.9571 C   0  0  1  0  0  0  0  0  0  0  0  0
   -2.6220   95.0386    9.5638 O   0  0  0  0  0  0  0  0  0  0  0  0
   -5.0096   95.2248    9.9825 C   0  0  0  0  0  0  0  0  0  0  0  0
   -1.2688   96.8719    7.7696 N   0  0  0  0  0  0  0  0  0  0  0  0
  1  2  1  1  0  0  0
  1  3  1  0  0  0  0
  1 10  1  0  0  0  0
  3  4  1  1  0  0  0
  3  5  1  0  0  0  0
  5  6  1  1  0  0  0
  5  7  1  0  0  0  0
  7  8  1  1  0  0  0
  7  9  1  0  0  0  0
  9 10  1  0  0  0  0
  9 11  1  6  0  0  0
 11 12  1  0  0  0  0
 13 14  1  6  0  0  0
 13 15  1  0  0  0  0
 13 21  1  0  0  0  0
 16 15  1  0  0  0  0
 16 17  1  6  0  0  0
 18  2  1  1  0  0  0
 18 16  1  0  0  0  0
 19 18  1  0  0  0  0
 19 20  1  6  0  0  0
 21 19  1  0  0  0  0
 21 22  1  1  0  0  0
 23 20  1  1  0  0  0
 23 24  1  0  0  0  0
 23 28  1  0  0  0  0
 24 25  1  6  0  0  0
 24 26  1  0  0  0  0
 26 27  1  0  0  0  0
 26 32  1  6  0  0  0
 27 28  1  0  0  0  0
 27 29  1  1  0  0  0
 29 30  1  0  0  0  0
 31 32  1  1  0  0  0
 31 40  1  0  0  0  0
 33 31  1  0  0  0  0
 33 42  1  1  0  0  0
 35 33  1  0  0  0  0
 35 36  1  1  0  0  0
 37 35  1  0  0  0  0
 37 38  1  1  0  0  0
 37 39  1  0  0  0  0
 39 40  1  0  0  0  0
 39 41  1  1  0  0  0
 41 34  1  0  0  0  0
M  END
>  <CHROM.1>
-141.76257739,96.71946290,151.50892107,170.43399483,171.28599241,154.43693014
-60.87016408,-174.92526996,66.01624752,1.01940865,94.82192691,12.11385234
0.71744027,0.38108967,2.08162720

>  <Name>
2fcy_lig

>  <RI>
1.56845e+07

>  <Rbt.Current_Directory>
/home/itssahil/PROJECTS/Mol_Feturizer/New_Systems/rnas/2fcy

>  <Rbt.Executable>
rbdock ($Id: //depot/dev/client3/rdock/2013.1/src/exe/rbdock.cxx#4 $)

>  <Rbt.Library>
libRbt.so (2013.1, Build901 2013/11/27)

>  <Rbt.Parameter_File>
/export/apps/rDock/src/rDock_2013.1_src/data/scripts/dock_solv.prm

>  <Rbt.Receptor>
prm/pocket_docking_4.prm

>  <SCORE>
-8.02163

>  <SCORE.INTER>
-9.37085

>  <SCORE.INTER.CONST>
1

>  <SCORE.INTER.POLAR>
-1.48881

>  <SCORE.INTER.ROT>
9

>  <SCORE.INTER.SOLV>
19.5264

>  <SCORE.INTER.VDW>
-17.3933

>  <SCORE.INTER.norm>
-0.223116

>  <SCORE.INTRA>
1.34922

>  <SCORE.INTRA.DIHEDRAL>
-1.31322

>  <SCORE.INTRA.DIHEDRAL.0>
17.3446

>  <SCORE.INTRA.POLAR>
0

>  <SCORE.INTRA.POLAR.0>
0

>  <SCORE.INTRA.REPUL>
0

>  <SCORE.INTRA.REPUL.0>
0

>  <SCORE.INTRA.SOLV>
-4.07291

>  <SCORE.INTRA.SOLV.lig_0>
-112.452

>  <SCORE.INTRA.VDW>
4.04229

>  <SCORE.INTRA.VDW.0>
-5.95059

>  <SCORE.INTRA.norm>
0.0321243

>  <SCORE.RESTR>
0

>  <SCORE.RESTR.CAVITY>
0

>  <SCORE.RESTR.norm>
0

>  <SCORE.SYSTEM>
0

>  <SCORE.SYSTEM.CONST>
0

>  <SCORE.SYSTEM.DIHEDRAL>
0

>  <SCORE.SYSTEM.SOLV>
0

>  <SCORE.SYSTEM.norm>
0

>  <SCORE.heavy>
42

>  <SCORE.norm>
-0.190991

>  <RMSD>
3.361

$$$$
2fcy_lig
 OpenBabel11021811433D
libRbt.so/2013.1/901 2013/11/27
 42 45  0  0  0  0  0  0  0  0999 V2000
    2.7078   93.4866   16.5047 C   0  0  2  0  0  0  0  0  0  0  0  0
    1.6760   94.2576   15.8658 O   0  0  0  0  0  0  0  0  0  0  0  0
    2.9242   92.2699   15.6036 C   0  0  2  0  0  0  0  0  0  0  0  0
    3.2133   92.7381   14.2412 N   0  0  0  0  0  0  0  0  0  0  0  0
    1.6566   91.4119   15.5884 C   0  0  1  0  0  0  0  0  0  0  0  0
    1.8365   90.2640   14.7543 O   0  0  0  0  0  0  0  0  0  0  0  0
    1.3146   90.9877   17.0170 C   0  0  2  0  0  0  0  0  0  0  0  0
    0.0807   90.2699   17.0118 O   0  0  0  0  0  0  0  0  0  0  0  0
    1.1313   92.2420   17.8728 C   0  0  2  0  0  0  0  0  0  0  0  0
    2.3261   93.0372   17.8210 O   0  0  0  0  0  0  0  0  0  0  0  0
    0.7980   91.8294   19.3089 C   0  0  0  0  0  0  0  0  0  0  0  0
    1.9371   91.1436   19.9372 N   0  0  0  0  0  0  0  0  0  0  0  0
    1.6133   97.6147   13.3415 C   0  0  2  0  0  0  0  0  0  0  0  0
    1.8440   98.6954   12.3711 N   0  0  0  0  0  0  0  0  0  0  0  0
    2.7471   97.5535   14.3669 C   0  0  0  0  0  0  0  0  0  0  0  0
    2.3861   96.5029   15.4220 C   0  0  2  0  0  0  0  0  0  0  0  0
    3.5010   96.3641   16.3700 N   0  0  0  0  0  0  0  0  0  0  0  0
    2.1204   95.1253   14.8080 C   0  0  2  0  0  0  0  0  0  0  0  0
    1.1744   95.1331   13.6125 C   0  0  2  0  0  0  0  0  0  0  0  0
    1.3635   93.8655   12.9633 O   0  0  0  0  0  0  0  0  0  0  0  0
    1.5062   96.2639   12.6297 C   0  0  1  0  0  0  0  0  0  0  0  0
    0.4957   96.3776   11.6241 O   0  0  0  0  0  0  0  0  0  0  0  0
    0.1904   93.2902   12.3656 C   0  0  1  0  0  0  0  0  0  0  0  0
    0.5339   91.8552   11.9626 C   0  0  2  0  0  0  0  0  0  0  0  0
    1.1803   91.8554   10.6876 O   0  0  0  0  0  0  0  0  0  0  0  0
   -0.8828   91.3076   11.8160 C   0  0  1  0  0  0  0  0  0  0  0  0
   -1.5236   91.8623   13.0784 C   0  0  2  0  0  0  0  0  0  0  0  0
   -0.9130   93.1529   13.2843 O   0  0  0  0  0  0  0  0  0  0  0  0
   -1.2442   90.9063   14.2438 C   0  0  0  0  0  0  0  0  0  0  0  0
   -1.9337   91.3349   15.4216 O   0  0  0  0  0  0  0  0  0  0  0  0
   -2.8890   91.4881   10.6155 C   0  0  2  0  0  0  0  0  0  0  0  0
   -1.5077   91.8778   10.6550 O   0  0  0  0  0  0  0  0  0  0  0  0
   -2.9883   89.9734   10.4081 C   0  0  1  0  0  0  0  0  0  0  0  0
   -4.9215   92.6336    7.1312 N   0  0  0  0  0  0  0  0  0  0  0  0
   -4.4534   89.5489   10.2609 C   0  0  1  0  0  0  0  0  0  0  0  0
   -5.1477   89.7236   11.5002 O   0  0  0  0  0  0  0  0  0  0  0  0
   -5.1268   90.3807    9.1659 C   0  0  2  0  0  0  0  0  0  0  0  0
   -4.5150   90.0633    7.9111 O   0  0  0  0  0  0  0  0  0  0  0  0
   -4.9523   91.8717    9.4735 C   0  0  1  0  0  0  0  0  0  0  0  0
   -3.5516   92.1952    9.5525 O   0  0  0  0  0  0  0  0  0  0  0  0
   -5.6282   92.7480    8.4154 C   0  0  0  0  0  0  0  0  0  0  0  0
   -2.2755   89.6189    9.1714 N   0  0  0  0  0  0  0  0  0  0  0  0
  1  2  1  6  0  0  0
  1  3  1  0  0  0  0
  1 10  1  0  0  0  0
  3  4  1  6  0  0  0
  3  5  1  0  0  0  0
  5  6  1  6  0  0  0
  5  7  1  0  0  0  0
  7  8  1  6  0  0  0
  7  9  1  0  0  0  0
  9 10  1  0  0  0  0
  9 11  1  1  0  0  0
 11 12  1  0  0  0  0
 13 14  1  6  0  0  0
 13 15  1  0  0  0  0
 13 21  1  0  0  0  0
 16 15  1  0  0  0  0
 16 17  1  1  0  0  0
 18  2  1  1  0  0  0
 18 16  1  0  0  0  0
 19 18  1  0  0  0  0
 19 20  1  6  0  0  0
 21 19  1  0  0  0  0
 21 22  1  6  0  0  0
 23 20  1  1  0  0  0
 23 24  1  0  0  0  0
 23 28  1  0  0  0  0
 24 25  1  6  0  0  0
 24 26  1  0  0  0  0
 26 27  1  0  0  0  0
 26 32  1  6  0  0  0
 27 28  1  0  0  0  0
 27 29  1  1  0  0  0
 29 30  1  0  0  0  0
 31 32  1  6  0  0  0
 31 40  1  0  0  0  0
 33 31  1  0  0  0  0
 33 42  1  6  0  0  0
 35 33  1  0  0  0  0
 35 36  1  1  0  0  0
 37 35  1  0  0  0  0
 37 38  1  6  0  0  0
 37 39  1  0  0  0  0
 39 40  1  0  0  0  0
 39 41  1  6  0  0  0
 41 34  1  0  0  0  0
M  END
>  <CHROM.1>
-82.66542491,66.29993811,-93.36706845,145.39649853,-169.80454180,-172.94559359
-174.79046159,-65.65917180,-68.20005525,-0.30987795,92.71555153,13.23166777
0.27674131,0.84530987,2.38416049

>  <Name>
2fcy_lig

>  <RI>
0

>  <Rbt.Current_Directory>
/home/itssahil/PROJECTS/Mol_Feturizer/New_Systems/rnas/2fcy

>  <Rbt.Executable>
rbdock ($Id: //depot/dev/client3/rdock/2013.1/src/exe/rbdock.cxx#4 $)

>  <Rbt.Library>
libRbt.so (2013.1, Build901 2013/11/27)

>  <Rbt.Parameter_File>
/export/apps/rDock/src/rDock_2013.1_src/data/scripts/dock_solv.prm

>  <Rbt.Receptor>
prm/pocket_docking_5.prm

>  <SCORE>
-10.7765

>  <SCORE.INTER>
-12.3518

>  <SCORE.INTER.CONST>
1

>  <SCORE.INTER.POLAR>
-1.47147

>  <SCORE.INTER.ROT>
9

>  <SCORE.INTER.SOLV>
8.88201

>  <SCORE.INTER.VDW>
-15.8903

>  <SCORE.INTER.norm>
-0.294091

>  <SCORE.INTRA>
1.57529

>  <SCORE.INTRA.DIHEDRAL>
-4.60545

>  <SCORE.INTRA.DIHEDRAL.0>
17.3446

>  <SCORE.INTRA.POLAR>
0

>  <SCORE.INTRA.POLAR.0>
0

>  <SCORE.INTRA.REPUL>
0

>  <SCORE.INTRA.REPUL.0>
0

>  <SCORE.INTRA.SOLV>
3.82221

>  <SCORE.INTRA.SOLV.lig_0>
-112.452

>  <SCORE.INTRA.VDW>
1.96692

>  <SCORE.INTRA.VDW.0>
-5.95059

>  <SCORE.INTRA.norm>
0.037507

>  <SCORE.RESTR>
0

>  <SCORE.RESTR.CAVITY>
0

>  <SCORE.RESTR.norm>
0

>  <SCORE.SYSTEM>
0

>  <SCORE.SYSTEM.CONST>
0

>  <SCORE.SYSTEM.DIHEDRAL>
0

>  <SCORE.SYSTEM.SOLV>
0

>  <SCORE.SYSTEM.norm>
0

>  <SCORE.heavy>
42

>  <SCORE.norm>
-0.256584

>  <RMSD>
3.404

$$$$
2fcy_lig
 OpenBabel11021811433D
libRbt.so/2013.1/901 2013/11/27
 42 45  0  0  0  0  0  0  0  0999 V2000
    0.3006   91.5168   14.4739 C   0  0  2  0  0  0  0  0  0  0  0  0
    0.6747   92.7191   15.1680 O   0  0  0  0  0  0  0  0  0  0  0  0
   -1.0815   91.1475   15.0147 C   0  0  2  0  0  0  0  0  0  0  0  0
   -1.9770   92.3000   14.8453 N   0  0  0  0  0  0  0  0  0  0  0  0
   -0.9738   90.8011   16.5018 C   0  0  1  0  0  0  0  0  0  0  0  0
   -2.2553   90.4478   17.0298 O   0  0  0  0  0  0  0  0  0  0  0  0
    0.0164   89.6504   16.6838 C   0  0  2  0  0  0  0  0  0  0  0  0
    0.1882   89.3937   18.0775 O   0  0  0  0  0  0  0  0  0  0  0  0
    1.3697   90.0692   16.1072 C   0  0  2  0  0  0  0  0  0  0  0  0
    1.2124   90.4279   14.7255 O   0  0  0  0  0  0  0  0  0  0  0  0
    2.3675   88.9203   16.2748 C   0  0  0  0  0  0  0  0  0  0  0  0
    2.8494   88.8400   17.6619 N   0  0  0  0  0  0  0  0  0  0  0  0
    3.4196   95.6911   14.0370 C   0  0  2  0  0  0  0  0  0  0  0  0
    4.5749   96.5298   13.6835 N   0  0  0  0  0  0  0  0  0  0  0  0
    3.5701   95.1261   15.4508 C   0  0  0  0  0  0  0  0  0  0  0  0
    2.2834   94.3756   15.8091 C   0  0  2  0  0  0  0  0  0  0  0  0
    2.4385   93.7495   17.1301 N   0  0  0  0  0  0  0  0  0  0  0  0
    1.9531   93.2689   14.8034 C   0  0  2  0  0  0  0  0  0  0  0  0
    2.0175   93.6974   13.3416 C   0  0  2  0  0  0  0  0  0  0  0  0
    2.0686   92.4776   12.5844 O   0  0  0  0  0  0  0  0  0  0  0  0
    3.2699   94.5335   13.0467 C   0  0  1  0  0  0  0  0  0  0  0  0
    3.2135   95.0883   11.7298 O   0  0  0  0  0  0  0  0  0  0  0  0
    1.6840   92.5841   11.2042 C   0  0  1  0  0  0  0  0  0  0  0  0
    0.5217   91.6170   10.9727 C   0  0  2  0  0  0  0  0  0  0  0  0
    1.0305   90.3039   10.7270 O   0  0  0  0  0  0  0  0  0  0  0  0
   -0.0180   92.2063    9.6728 C   0  0  1  0  0  0  0  0  0  0  0  0
   -0.0069   93.6873   10.0174 C   0  0  2  0  0  0  0  0  0  0  0  0
    1.1516   93.8784   10.8553 O   0  0  0  0  0  0  0  0  0  0  0  0
   -1.3061   94.0409   10.7504 C   0  0  0  0  0  0  0  0  0  0  0  0
   -1.3259   95.4288   11.0964 O   0  0  0  0  0  0  0  0  0  0  0  0
    0.2154   91.2578    7.5411 C   0  0  2  0  0  0  0  0  0  0  0  0
    0.9007   91.9432    8.6003 O   0  0  0  0  0  0  0  0  0  0  0  0
    0.0881   89.7716    7.8906 C   0  0  1  0  0  0  0  0  0  0  0  0
    0.2678   90.6660    2.7388 N   0  0  0  0  0  0  0  0  0  0  0  0
   -0.5497   89.0019    6.7290 C   0  0  1  0  0  0  0  0  0  0  0  0
   -1.9191   89.3867    6.5711 O   0  0  0  0  0  0  0  0  0  0  0  0
    0.2214   89.2817    5.4362 C   0  0  2  0  0  0  0  0  0  0  0  0
    1.5408   88.7416    5.5664 O   0  0  0  0  0  0  0  0  0  0  0  0
    0.2936   90.7939    5.1986 C   0  0  1  0  0  0  0  0  0  0  0  0
    0.9425   91.4346    6.3127 O   0  0  0  0  0  0  0  0  0  0  0  0
    1.0392   91.1256    3.9031 C   0  0  0  0  0  0  0  0  0  0  0  0
    1.4332   89.2256    8.1267 N   0  0  0  0  0  0  0  0  0  0  0  0
  1  2  1  1  0  0  0
  1  3  1  0  0  0  0
  1 10  1  0  0  0  0
  3  4  1  1  0  0  0
  3  5  1  0  0  0  0
  5  6  1  6  0  0  0
  5  7  1  0  0  0  0
  7  8  1  1  0  0  0
  7  9  1  0  0  0  0
  9 10  1  0  0  0  0
  9 11  1  6  0  0  0
 11 12  1  0  0  0  0
 13 14  1  6  0  0  0
 13 15  1  0  0  0  0
 13 21  1  0  0  0  0
 16 15  1  0  0  0  0
 16 17  1  1  0  0  0
 18  2  1  1  0  0  0
 18 16  1  0  0  0  0
 19 18  1  0  0  0  0
 19 20  1  6  0  0  0
 21 19  1  0  0  0  0
 21 22  1  6  0  0  0
 23 20  1  1  0  0  0
 23 24  1  0  0  0  0
 23 28  1  0  0  0  0
 24 25  1  6  0  0  0
 24 26  1  0  0  0  0
 26 27  1  0  0  0  0
 26 32  1  6  0  0  0
 27 28  1  0  0  0  0
 27 29  1  1  0  0  0
 29 30  1  0  0  0  0
 31 32  1  1  0  0  0
 31 40  1  0  0  0  0
 33 31  1  0  0  0  0
 33 42  1  6  0  0  0
 35 33  1  0  0  0  0
 35 36  1  6  0  0  0
 37 35  1  0  0  0  0
 37 38  1  1  0  0  0
 37 39  1  0  0  0  0
 39 40  1  0  0  0  0
 39 41  1  6  0  0  0
 41 34  1  0  0  0  0
M  END
>  <CHROM.1>
-179.26067660,-76.97448521,-169.93688458,159.72527794,-122.26633439,124.31075384
179.70074710,-79.80835056,67.19684035,0.88696888,91.82944917,11.74944326
1.35150204,1.13007079,1.62309229

>  <Name>
2fcy_lig

>  <RI>
224

>  <Rbt.Current_Directory>
/home/itssahil/PROJECTS/Mol_Feturizer/New_Systems/rnas/2fcy

>  <Rbt.Executable>
rbdock ($Id: //depot/dev/client3/rdock/2013.1/src/exe/rbdock.cxx#4 $)

>  <Rbt.Library>
libRbt.so (2013.1, Build901 2013/11/27)

>  <Rbt.Parameter_File>
/export/apps/rDock/src/rDock_2013.1_src/data/scripts/dock_solv.prm

>  <Rbt.Receptor>
prm/pocket_docking_6.prm

>  <SCORE>
-20.0874

>  <SCORE.INTER>
-22.1852

>  <SCORE.INTER.CONST>
1

>  <SCORE.INTER.POLAR>
-2.16163

>  <SCORE.INTER.ROT>
9

>  <SCORE.INTER.SOLV>
24.847

>  <SCORE.INTER.VDW>
-25.467

>  <SCORE.INTER.norm>
-0.528219

>  <SCORE.INTRA>
2.09785

>  <SCORE.INTRA.DIHEDRAL>
1.99023

>  <SCORE.INTRA.DIHEDRAL.0>
17.3446

>  <SCORE.INTRA.POLAR>
0

>  <SCORE.INTRA.POLAR.0>
0

>  <SCORE.INTRA.REPUL>
0

>  <SCORE.INTRA.REPUL.0>
0

>  <SCORE.INTRA.SOLV>
-2.62001

>  <SCORE.INTRA.SOLV.lig_0>
-112.452

>  <SCORE.INTRA.VDW>
2.41274

>  <SCORE.INTRA.VDW.0>
-5.95059

>  <SCORE.INTRA.norm>
0.0499487

>  <SCORE.RESTR>
0

>  <SCORE.RESTR.CAVITY>
0

>  <SCORE.RESTR.norm>
0

>  <SCORE.SYSTEM>
0

>  <SCORE.SYSTEM.CONST>
0

>  <SCORE.SYSTEM.DIHEDRAL>
0

>  <SCORE.SYSTEM.SOLV>
0

>  <SCORE.SYSTEM.norm>
0

>  <SCORE.heavy>
42

>  <SCORE.norm>
-0.47827

>  <RMSD>
3.503

$$$$
2fcy_lig
 OpenBabel11021811433D
libRbt.so/2013.1/901 2013/11/27
 42 45  0  0  0  0  0  0  0  0999 V2000
   -0.5027   91.3590   13.2923 C   0  0  2  0  0  0  0  0  0  0  0  0
   -0.0682   92.7251   13.4027 O   0  0  0  0  0  0  0  0  0  0  0  0
   -1.8376   91.2948   14.0358 C   0  0  2  0  0  0  0  0  0  0  0  0
   -2.7392   92.3098   13.4739 N   0  0  0  0  0  0  0  0  0  0  0  0
   -1.6106   91.5828   15.5220 C   0  0  1  0  0  0  0  0  0  0  0  0
   -2.8462   91.5241   16.2400 O   0  0  0  0  0  0  0  0  0  0  0  0
   -0.6136   90.5710   16.0878 C   0  0  2  0  0  0  0  0  0  0  0  0
   -0.3299   90.9002   17.4475 O   0  0  0  0  0  0  0  0  0  0  0  0
    0.6899   90.6667   15.2935 C   0  0  2  0  0  0  0  0  0  0  0  0
    0.4220   90.4349   13.9018 O   0  0  0  0  0  0  0  0  0  0  0  0
    1.6933   89.6504   15.8450 C   0  0  0  0  0  0  0  0  0  0  0  0
    2.1137   90.0119   17.2070 N   0  0  0  0  0  0  0  0  0  0  0  0
    1.1123   95.1527   10.1841 C   0  0  2  0  0  0  0  0  0  0  0  0
    1.7720   95.8645    9.0791 N   0  0  0  0  0  0  0  0  0  0  0  0
    1.9083   95.3058   11.4817 C   0  0  0  0  0  0  0  0  0  0  0  0
    1.1077   94.6597   12.6169 C   0  0  2  0  0  0  0  0  0  0  0  0
    1.8928   94.7173   13.8584 N   0  0  0  0  0  0  0  0  0  0  0  0
    0.7810   93.1896   12.3384 C   0  0  2  0  0  0  0  0  0  0  0  0
    0.1989   92.9179   10.9558 C   0  0  2  0  0  0  0  0  0  0  0  0
    0.3320   91.5018   10.7532 O   0  0  0  0  0  0  0  0  0  0  0  0
    0.9664   93.6646    9.8567 C   0  0  1  0  0  0  0  0  0  0  0  0
    0.2913   93.5566    8.6007 O   0  0  0  0  0  0  0  0  0  0  0  0
   -0.4225   90.9550    9.6595 C   0  0  1  0  0  0  0  0  0  0  0  0
    0.5405   90.1370    8.7975 C   0  0  2  0  0  0  0  0  0  0  0  0
    1.2258   91.0022    7.8889 O   0  0  0  0  0  0  0  0  0  0  0  0
   -0.4818   89.3012    8.0329 C   0  0  1  0  0  0  0  0  0  0  0  0
   -1.4013   88.8845    9.1700 C   0  0  2  0  0  0  0  0  0  0  0  0
   -1.4291   90.0086   10.0735 O   0  0  0  0  0  0  0  0  0  0  0  0
   -0.8325   87.6281    9.8395 C   0  0  0  0  0  0  0  0  0  0  0  0
    0.4914   87.8722   10.3234 O   0  0  0  0  0  0  0  0  0  0  0  0
   -0.5160   90.1250    5.8377 C   0  0  2  0  0  0  0  0  0  0  0  0
   -1.1939   90.1332    7.1034 O   0  0  0  0  0  0  0  0  0  0  0  0
   -0.6787   91.4895    5.1604 C   0  0  1  0  0  0  0  0  0  0  0  0
   -0.2867   87.7033    1.6413 N   0  0  0  0  0  0  0  0  0  0  0  0
   -0.0496   91.4711    3.7631 C   0  0  1  0  0  0  0  0  0  0  0  0
    1.3737   91.3575    3.8610 O   0  0  0  0  0  0  0  0  0  0  0  0
   -0.6107   90.2963    2.9572 C   0  0  2  0  0  0  0  0  0  0  0  0
   -2.0077   90.5196    2.7383 O   0  0  0  0  0  0  0  0  0  0  0  0
   -0.4025   88.9933    3.7365 C   0  0  1  0  0  0  0  0  0  0  0  0
   -1.0586   89.0769    5.0154 O   0  0  0  0  0  0  0  0  0  0  0  0
   -0.9297   87.7829    2.9612 C   0  0  0  0  0  0  0  0  0  0  0  0
   -2.1139   91.7783    5.0198 N   0  0  0  0  0  0  0  0  0  0  0  0
  1  2  1  1  0  0  0
  1  3  1  0  0  0  0
  1 10  1  0  0  0  0
  3  4  1  6  0  0  0
  3  5  1  0  0  0  0
  5  6  1  1  0  0  0
  5  7  1  0  0  0  0
  7  8  1  1  0  0  0
  7  9  1  0  0  0  0
  9 10  1  0  0  0  0
  9 11  1  1  0  0  0
 11 12  1  0  0  0  0
 13 14  1  6  0  0  0
 13 15  1  0  0  0  0
 13 21  1  0  0  0  0
 16 15  1  0  0  0  0
 16 17  1  1  0  0  0
 18  2  1  1  0  0  0
 18 16  1  0  0  0  0
 19 18  1  0  0  0  0
 19 20  1  6  0  0  0
 21 19  1  0  0  0  0
 21 22  1  6  0  0  0
 23 20  1  1  0  0  0
 23 24  1  0  0  0  0
 23 28  1  0  0  0  0
 24 25  1  6  0  0  0
 24 26  1  0  0  0  0
 26 27  1  0  0  0  0
 26 32  1  6  0  0  0
 27 28  1  0  0  0  0
 27 29  1  1  0  0  0
 29 30  1  0  0  0  0
 31 32  1  1  0  0  0
 31 40  1  0  0  0  0
 33 31  1  0  0  0  0
 33 42  1  6  0  0  0
 35 33  1  0  0  0  0
 35 36  1  1  0  0  0
 37 35  1  0  0  0  0
 37 38  1  1  0  0  0
 37 39  1  0  0  0  0
 39 40  1  0  0  0  0
 39 41  1  6  0  0  0
 41 34  1  0  0  0  0
M  END
>  <CHROM.1>
-152.75818642,-67.31057790,178.76613321,166.02255552,128.43343160,91.00851002
58.05435134,-146.76105636,56.71337441,-0.15211310,91.16907195,9.87930493
1.39839235,1.25048261,1.57271106

>  <Name>
2fcy_lig

>  <RI>
224

>  <Rbt.Current_Directory>
/home/itssahil/PROJECTS/Mol_Feturizer/New_Systems/rnas/2fcy

>  <Rbt.Executable>
rbdock ($Id: //depot/dev/client3/rdock/2013.1/src/exe/rbdock.cxx#4 $)

>  <Rbt.Library>
libRbt.so (2013.1, Build901 2013/11/27)

>  <Rbt.Parameter_File>
/export/apps/rDock/src/rDock_2013.1_src/data/scripts/dock_solv.prm

>  <Rbt.Receptor>
prm/pocket_docking_6.prm

>  <SCORE>
-22.2963

>  <SCORE.INTER>
-24.8491

>  <SCORE.INTER.CONST>
1

>  <SCORE.INTER.POLAR>
-2.68848

>  <SCORE.INTER.ROT>
9

>  <SCORE.INTER.SOLV>
17.6471

>  <SCORE.INTER.VDW>
-23.0868

>  <SCORE.INTER.norm>
-0.591645

>  <SCORE.INTRA>
2.55277

>  <SCORE.INTRA.DIHEDRAL>
1.90145

>  <SCORE.INTRA.DIHEDRAL.0>
17.3446

>  <SCORE.INTRA.POLAR>
0

>  <SCORE.INTRA.POLAR.0>
0

>  <SCORE.INTRA.REPUL>
0

>  <SCORE.INTRA.REPUL.0>
0

>  <SCORE.INTRA.SOLV>
-2.90145

>  <SCORE.INTRA.SOLV.lig_0>
-112.452

>  <SCORE.INTRA.VDW>
3.05277

>  <SCORE.INTRA.VDW.0>
-5.95059

>  <SCORE.INTRA.norm>
0.0607803

>  <SCORE.RESTR>
0

>  <SCORE.RESTR.CAVITY>
0

>  <SCORE.RESTR.norm>
0

>  <SCORE.SYSTEM>
0

>  <SCORE.SYSTEM.CONST>
0

>  <SCORE.SYSTEM.DIHEDRAL>
0

>  <SCORE.SYSTEM.SOLV>
0

>  <SCORE.SYSTEM.norm>
0

>  <SCORE.heavy>
42

>  <SCORE.norm>
-0.530865

>  <RMSD>
3.605

$$$$
2fcy_lig
 OpenBabel11021811433D
libRbt.so/2013.1/901 2013/11/27
 42 45  0  0  0  0  0  0  0  0999 V2000
   -0.0354   91.3095   13.9488 C   0  0  2  0  0  0  0  0  0  0  0  0
    0.1628   92.7037   14.2388 O   0  0  0  0  0  0  0  0  0  0  0  0
   -1.3404   90.9291   14.6498 C   0  0  2  0  0  0  0  0  0  0  0  0
   -2.4001   91.8424   14.2005 N   0  0  0  0  0  0  0  0  0  0  0  0
   -1.1649   91.0596   16.1648 C   0  0  1  0  0  0  0  0  0  0  0  0
   -2.3729   90.7045   16.8433 O   0  0  0  0  0  0  0  0  0  0  0  0
   -0.0117   90.1650   16.6204 C   0  0  2  0  0  0  0  0  0  0  0  0
    0.2127   90.3613   18.0164 O   0  0  0  0  0  0  0  0  0  0  0  0
    1.2570   90.5774   15.8723 C   0  0  2  0  0  0  0  0  0  0  0  0
    1.0318   90.4830   14.4571 O   0  0  0  0  0  0  0  0  0  0  0  0
    2.4173   89.6813   16.3132 C   0  0  0  0  0  0  0  0  0  0  0  0
    2.1726   88.2807   15.9376 N   0  0  0  0  0  0  0  0  0  0  0  0
    2.8530   95.6807   12.9949 C   0  0  2  0  0  0  0  0  0  0  0  0
    3.8212   96.5633   12.3268 N   0  0  0  0  0  0  0  0  0  0  0  0
    3.4226   94.2695   13.1531 C   0  0  0  0  0  0  0  0  0  0  0  0
    2.4282   93.4373   13.9690 C   0  0  2  0  0  0  0  0  0  0  0  0
    2.9135   92.0527   14.0596 N   0  0  0  0  0  0  0  0  0  0  0  0
    1.0350   93.4036   13.3339 C   0  0  2  0  0  0  0  0  0  0  0  0
    0.4900   94.7667   12.9224 C   0  0  2  0  0  0  0  0  0  0  0  0
   -0.5978   94.4918   12.0251 O   0  0  0  0  0  0  0  0  0  0  0  0
    1.5482   95.6093   12.1979 C   0  0  1  0  0  0  0  0  0  0  0  0
    1.0840   96.9469   11.9968 O   0  0  0  0  0  0  0  0  0  0  0  0
   -0.2546   93.7665   10.8332 C   0  0  1  0  0  0  0  0  0  0  0  0
   -1.5158   93.6676    9.9735 C   0  0  2  0  0  0  0  0  0  0  0  0
   -2.3118   92.5643   10.4126 O   0  0  0  0  0  0  0  0  0  0  0  0
   -0.8624   93.3252    8.6377 C   0  0  1  0  0  0  0  0  0  0  0  0
    0.2773   94.3317    8.6236 C   0  0  2  0  0  0  0  0  0  0  0  0
    0.6989   94.4542    9.9977 O   0  0  0  0  0  0  0  0  0  0  0  0
   -0.2367   95.6629    8.0634 C   0  0  0  0  0  0  0  0  0  0  0  0
    0.8363   96.5995    7.9298 O   0  0  0  0  0  0  0  0  0  0  0  0
    0.1459   91.6231    7.3789 C   0  0  2  0  0  0  0  0  0  0  0  0
   -0.3385   91.9884    8.6802 O   0  0  0  0  0  0  0  0  0  0  0  0
   -0.9566   91.8499    6.3395 C   0  0  1  0  0  0  0  0  0  0  0  0
    2.2326   88.1816    7.5623 N   0  0  0  0  0  0  0  0  0  0  0  0
   -0.4961   91.3710    4.9585 C   0  0  1  0  0  0  0  0  0  0  0  0
    0.5521   92.2117    4.4657 O   0  0  0  0  0  0  0  0  0  0  0  0
   -0.0030   89.9243    5.0492 C   0  0  2  0  0  0  0  0  0  0  0  0
   -1.1121   89.0850    5.3882 O   0  0  0  0  0  0  0  0  0  0  0  0
    1.0838   89.8189    6.1245 C   0  0  1  0  0  0  0  0  0  0  0  0
    0.5587   90.2453    7.3954 O   0  0  0  0  0  0  0  0  0  0  0  0
    1.6257   88.3915    6.2397 C   0  0  0  0  0  0  0  0  0  0  0  0
   -2.1409   91.0703    6.7303 N   0  0  0  0  0  0  0  0  0  0  0  0
  1  2  1  1  0  0  0
  1  3  1  0  0  0  0
  1 10  1  0  0  0  0
  3  4  1  6  0  0  0
  3  5  1  0  0  0  0
  5  6  1  1  0  0  0
  5  7  1  0  0  0  0
  7  8  1  1  0  0  0
  7  9  1  0  0  0  0
  9 10  1  0  0  0  0
  9 11  1  1  0  0  0
 11 12  1  0  0  0  0
 13 14  1  6  0  0  0
 13 15  1  0  0  0  0
 13 21  1  0  0  0  0
 16 15  1  0  0  0  0
 16 17  1  6  0  0  0
 18  2  1  1  0  0  0
 18 16  1  0  0  0  0
 19 18  1  0  0  0  0
 19 20  1  6  0  0  0
 21 19  1  0  0  0  0
 21 22  1  1  0  0  0
 23 20  1  1  0  0  0
 23 24  1  0  0  0  0
 23 28  1  0  0  0  0
 24 25  1  1  0  0  0
 24 26  1  0  0  0  0
 26 27  1  0  0  0  0
 26 32  1  1  0  0  0
 27 28  1  0  0  0  0
 27 29  1  1  0  0  0
 29 30  1  0  0  0  0
 31 32  1  1  0  0  0
 31 40  1  0  0  0  0
 33 31  1  0  0  0  0
 33 42  1  1  0  0  0
 35 33  1  0  0  0  0
 35 36  1  1  0  0  0
 37 35  1  0  0  0  0
 37 38  1  1  0  0  0
 37 39  1  0  0  0  0
 39 40  1  0  0  0  0
 39 41  1  1  0  0  0
 41 34  1  0  0  0  0
M  END
>  <CHROM.1>
-158.90422679,63.88326587,-96.74963112,-60.36627638,-175.91429444,173.89496974
-175.10443553,-53.25344093,-157.57278952,0.38049802,92.27795649,11.11172182
1.17444365,1.38879014,1.94657479

>  <Name>
2fcy_lig

>  <RI>
0

>  <Rbt.Current_Directory>
/home/itssahil/PROJECTS/Mol_Feturizer/New_Systems/rnas/2fcy

>  <Rbt.Executable>
rbdock ($Id: //depot/dev/client3/rdock/2013.1/src/exe/rbdock.cxx#4 $)

>  <Rbt.Library>
libRbt.so (2013.1, Build901 2013/11/27)

>  <Rbt.Parameter_File>
/export/apps/rDock/src/rDock_2013.1_src/data/scripts/dock_solv.prm

>  <Rbt.Receptor>
prm/pocket_docking_5.prm

>  <SCORE>
-14.531

>  <SCORE.INTER>
-16.5257

>  <SCORE.INTER.CONST>
1

>  <SCORE.INTER.POLAR>
-1.86954

>  <SCORE.INTER.ROT>
9

>  <SCORE.INTER.SOLV>
23.135

>  <SCORE.INTER.VDW>
-22.097

>  <SCORE.INTER.norm>
-0.39347

>  <SCORE.INTRA>
1.98152

>  <SCORE.INTRA.DIHEDRAL>
-7.88966

>  <SCORE.INTRA.DIHEDRAL.0>
17.3446

>  <SCORE.INTRA.POLAR>
0

>  <SCORE.INTRA.POLAR.0>
0

>  <SCORE.INTRA.REPUL>
0

>  <SCORE.INTRA.REPUL.0>
0

>  <SCORE.INTRA.SOLV>
0.946366

>  <SCORE.INTRA.SOLV.lig_0>
-112.452

>  <SCORE.INTRA.VDW>
5.45317

>  <SCORE.INTRA.VDW.0>
-5.95059

>  <SCORE.INTRA.norm>
0.047179

>  <SCORE.RESTR>
0.0132414

>  <SCORE.RESTR.CAVITY>
0.0132414

>  <SCORE.RESTR.norm>
0.000315271

>  <SCORE.SYSTEM>
0

>  <SCORE.SYSTEM.CONST>
0

>  <SCORE.SYSTEM.DIHEDRAL>
0

>  <SCORE.SYSTEM.SOLV>
0

>  <SCORE.SYSTEM.norm>
0

>  <SCORE.heavy>
42

>  <SCORE.norm>
-0.345976

>  <RMSD>
3.631

$$$$
2fcy_lig
 OpenBabel11021811433D
libRbt.so/2013.1/901 2013/11/27
 42 45  0  0  0  0  0  0  0  0999 V2000
   -0.4717   90.6281   12.9053 C   0  0  2  0  0  0  0  0  0  0  0  0
   -0.0342   91.8144   12.2209 O   0  0  0  0  0  0  0  0  0  0  0  0
   -1.6068   90.0606   12.0518 C   0  0  2  0  0  0  0  0  0  0  0  0
   -1.1164   89.8744   10.6793 N   0  0  0  0  0  0  0  0  0  0  0  0
   -2.7814   91.0422   12.0435 C   0  0  1  0  0  0  0  0  0  0  0  0
   -3.8586   90.5305   11.2538 O   0  0  0  0  0  0  0  0  0  0  0  0
   -3.2422   91.2932   13.4797 C   0  0  2  0  0  0  0  0  0  0  0  0
   -4.2725   92.2812   13.4772 O   0  0  0  0  0  0  0  0  0  0  0  0
   -2.0632   91.8380   14.2872 C   0  0  2  0  0  0  0  0  0  0  0  0
   -0.9709   90.9073   14.2295 O   0  0  0  0  0  0  0  0  0  0  0  0
   -2.5101   92.0839   15.7307 C   0  0  0  0  0  0  0  0  0  0  0  0
   -2.4138   90.8523   16.5285 N   0  0  0  0  0  0  0  0  0  0  0  0
    3.2087   94.0796   13.6348 C   0  0  2  0  0  0  0  0  0  0  0  0
    4.5011   94.6576   14.0331 N   0  0  0  0  0  0  0  0  0  0  0  0
    3.0094   92.7028   14.2714 C   0  0  0  0  0  0  0  0  0  0  0  0
    1.5985   92.2135   13.9292 C   0  0  2  0  0  0  0  0  0  0  0  0
    1.4148   90.8539   14.4570 N   0  0  0  0  0  0  0  0  0  0  0  0
    1.3464   92.1667   12.4193 C   0  0  2  0  0  0  0  0  0  0  0  0
    1.7484   93.4306   11.6675 C   0  0  2  0  0  0  0  0  0  0  0  0
    1.8052   93.0534   10.2824 O   0  0  0  0  0  0  0  0  0  0  0  0
    3.1234   93.9463   12.1124 C   0  0  1  0  0  0  0  0  0  0  0  0
    3.3939   95.2305   11.5444 O   0  0  0  0  0  0  0  0  0  0  0  0
    0.5378   92.9350    9.6161 C   0  0  1  0  0  0  0  0  0  0  0  0
   -0.2346   94.2327    9.8590 C   0  0  2  0  0  0  0  0  0  0  0  0
   -0.8967   94.1685   11.1244 O   0  0  0  0  0  0  0  0  0  0  0  0
   -1.2628   94.1066    8.7386 C   0  0  1  0  0  0  0  0  0  0  0  0
   -0.3642   93.6818    7.5879 C   0  0  2  0  0  0  0  0  0  0  0  0
    0.6502   92.8451    8.1810 O   0  0  0  0  0  0  0  0  0  0  0  0
    0.2370   94.9313    6.9341 C   0  0  0  0  0  0  0  0  0  0  0  0
    1.4312   95.3290    7.6141 O   0  0  0  0  0  0  0  0  0  0  0  0
   -3.1107   92.8941    7.9551 C   0  0  2  0  0  0  0  0  0  0  0  0
   -2.1948   93.0583    9.0485 O   0  0  0  0  0  0  0  0  0  0  0  0
   -4.0517   94.1013    7.8891 C   0  0  1  0  0  0  0  0  0  0  0  0
   -4.4139   89.0127    7.3396 N   0  0  0  0  0  0  0  0  0  0  0  0
   -5.1034   93.9001    6.7928 C   0  0  1  0  0  0  0  0  0  0  0  0
   -4.4871   93.9349    5.5015 O   0  0  0  0  0  0  0  0  0  0  0  0
   -5.8125   92.5581    6.9944 C   0  0  2  0  0  0  0  0  0  0  0  0
   -6.5513   92.6125    8.2194 O   0  0  0  0  0  0  0  0  0  0  0  0
   -4.7739   91.4331    7.0566 C   0  0  1  0  0  0  0  0  0  0  0  0
   -3.8528   91.6754    8.1362 O   0  0  0  0  0  0  0  0  0  0  0  0
   -5.4362   90.0645    7.2371 C   0  0  0  0  0  0  0  0  0  0  0  0
   -4.7451   94.2300    9.1798 N   0  0  0  0  0  0  0  0  0  0  0  0
  1  2  1  6  0  0  0
  1  3  1  0  0  0  0
  1 10  1  0  0  0  0
  3  4  1  6  0  0  0
  3  5  1  0  0  0  0
  5  6  1  6  0  0  0
  5  7  1  0  0  0  0
  7  8  1  6  0  0  0
  7  9  1  0  0  0  0
  9 10  1  0  0  0  0
  9 11  1  1  0  0  0
 11 12  1  0  0  0  0
 13 14  1  6  0  0  0
 13 15  1  0  0  0  0
 13 21  1  0  0  0  0
 16 15  1  0  0  0  0
 16 17  1  6  0  0  0
 18  2  1  1  0  0  0
 18 16  1  0  0  0  0
 19 18  1  0  0  0  0
 19 20  1  6  0  0  0
 21 19  1  0  0  0  0
 21 22  1  6  0  0  0
 23 20  1  1  0  0  0
 23 24  1  0  0  0  0
 23 28  1  0  0  0  0
 24 25  1  1  0  0  0
 24 26  1  0  0  0  0
 26 27  1  0  0  0  0
 26 32  1  1  0  0  0
 27 28  1  0  0  0  0
 27 29  1  1  0  0  0
 29 30  1  0  0  0  0
 31 32  1  1  0  0  0
 31 40  1  0  0  0  0
 33 31  1  0  0  0  0
 33 42  1  1  0  0  0
 35 33  1  0  0  0  0
 35 36  1  6  0  0  0
 37 35  1  0  0  0  0
 37 38  1  1  0  0  0
 37 39  1  0  0  0  0
 39 40  1  0  0  0  0
 39 41  1  1  0  0  0
 41 34  1  0  0  0  0
M  END
>  <CHROM.1>
-151.58229022,84.83005618,-52.61612742,77.45618583,52.16768968,-176.66565274
86.18942568,-70.46600476,-178.05031708,-1.31277073,92.56431255,10.64897979
0.68343388,0.39769751,1.95415649

>  <Name>
2fcy_lig

>  <RI>
1.56845e+07

>  <Rbt.Current_Directory>
/home/itssahil/PROJECTS/Mol_Feturizer/New_Systems/rnas/2fcy

>  <Rbt.Executable>
rbdock ($Id: //depot/dev/client3/rdock/2013.1/src/exe/rbdock.cxx#4 $)

>  <Rbt.Library>
libRbt.so (2013.1, Build901 2013/11/27)

>  <Rbt.Parameter_File>
/export/apps/rDock/src/rDock_2013.1_src/data/scripts/dock_solv.prm

>  <Rbt.Receptor>
prm/pocket_docking_4.prm

>  <SCORE>
-9.99679

>  <SCORE.INTER>
-16.2886

>  <SCORE.INTER.CONST>
1

>  <SCORE.INTER.POLAR>
-2.17425

>  <SCORE.INTER.ROT>
9

>  <SCORE.INTER.SOLV>
20.9968

>  <SCORE.INTER.VDW>
-20.2105

>  <SCORE.INTER.norm>
-0.387824

>  <SCORE.INTRA>
6.278

>  <SCORE.INTRA.DIHEDRAL>
-6.83958

>  <SCORE.INTRA.DIHEDRAL.0>
17.3446

>  <SCORE.INTRA.POLAR>
0

>  <SCORE.INTRA.POLAR.0>
0

>  <SCORE.INTRA.REPUL>
0.36546

>  <SCORE.INTRA.REPUL.0>
0

>  <SCORE.INTRA.SOLV>
0.997872

>  <SCORE.INTRA.SOLV.lig_0>
-112.452

>  <SCORE.INTRA.VDW>
7.37155

>  <SCORE.INTRA.VDW.0>
-5.95059

>  <SCORE.INTRA.norm>
0.149476

>  <SCORE.RESTR>
0.0138292

>  <SCORE.RESTR.CAVITY>
0.0138292

>  <SCORE.RESTR.norm>
0.000329266

>  <SCORE.SYSTEM>
0

>  <SCORE.SYSTEM.CONST>
0

>  <SCORE.SYSTEM.DIHEDRAL>
0

>  <SCORE.SYSTEM.SOLV>
0

>  <SCORE.SYSTEM.norm>
0

>  <SCORE.heavy>
42

>  <SCORE.norm>
-0.238019

>  <RMSD>
3.670

$$$$
2fcy_lig
 OpenBabel11021811433D
libRbt.so/2013.1/901 2013/11/27
 42 45  0  0  0  0  0  0  0  0999 V2000
    1.4012   93.4629   13.0792 C   0  0  2  0  0  0  0  0  0  0  0  0
    0.5766   94.5538   13.5233 O   0  0  0  0  0  0  0  0  0  0  0  0
    1.1293   92.3214   14.0600 C   0  0  2  0  0  0  0  0  0  0  0  0
   -0.3174   92.0675   14.0982 N   0  0  0  0  0  0  0  0  0  0  0  0
    1.6129   92.7199   15.4566 C   0  0  1  0  0  0  0  0  0  0  0  0
    1.3729   91.6647   16.3919 O   0  0  0  0  0  0  0  0  0  0  0  0
    3.1033   93.0567   15.3999 C   0  0  2  0  0  0  0  0  0  0  0  0
    3.5298   93.5204   16.6809 O   0  0  0  0  0  0  0  0  0  0  0  0
    3.3150   94.1862   14.3908 C   0  0  2  0  0  0  0  0  0  0  0  0
    2.8066   93.7860   13.1087 O   0  0  0  0  0  0  0  0  0  0  0  0
    4.8061   94.5256   14.3179 C   0  0  0  0  0  0  0  0  0  0  0  0
    5.0405   95.6806   13.4382 N   0  0  0  0  0  0  0  0  0  0  0  0
   -1.2741   97.6985   11.4418 C   0  0  2  0  0  0  0  0  0  0  0  0
   -1.6583   98.8652   10.6330 N   0  0  0  0  0  0  0  0  0  0  0  0
   -0.2727   98.0958   12.5281 C   0  0  0  0  0  0  0  0  0  0  0  0
   -0.0144   96.8738   13.4153 C   0  0  2  0  0  0  0  0  0  0  0  0
    1.0115   97.2071   14.4140 N   0  0  0  0  0  0  0  0  0  0  0  0
    0.4859   95.6668   12.6164 C   0  0  2  0  0  0  0  0  0  0  0  0
   -0.3291   95.3478   11.3680 C   0  0  2  0  0  0  0  0  0  0  0  0
    0.4983   94.4770   10.5798 O   0  0  0  0  0  0  0  0  0  0  0  0
   -0.6542   96.6114   10.5604 C   0  0  1  0  0  0  0  0  0  0  0  0
   -1.5786   96.3200    9.5089 O   0  0  0  0  0  0  0  0  0  0  0  0
   -0.1742   93.7549    9.5355 C   0  0  1  0  0  0  0  0  0  0  0  0
    0.8980   93.1125    8.6539 C   0  0  2  0  0  0  0  0  0  0  0  0
    1.3636   94.0632    7.6932 O   0  0  0  0  0  0  0  0  0  0  0  0
    0.0328   92.0660    7.9577 C   0  0  1  0  0  0  0  0  0  0  0  0
   -0.7423   91.5167    9.1450 C   0  0  2  0  0  0  0  0  0  0  0  0
   -0.9575   92.6443   10.0185 O   0  0  0  0  0  0  0  0  0  0  0  0
    0.0887   90.4206    9.8220 C   0  0  0  0  0  0  0  0  0  0  0  0
   -0.6037   89.8947   10.9580 O   0  0  0  0  0  0  0  0  0  0  0  0
   -1.3756   91.7392    6.1115 C   0  0  2  0  0  0  0  0  0  0  0  0
   -0.8646   92.7091    7.0387 O   0  0  0  0  0  0  0  0  0  0  0  0
   -2.0474   92.4574    4.9368 C   0  0  1  0  0  0  0  0  0  0  0  0
   -2.9185   88.1849    7.7237 N   0  0  0  0  0  0  0  0  0  0  0  0
   -2.6893   91.4416    3.9857 C   0  0  1  0  0  0  0  0  0  0  0  0
   -1.6789   90.6740    3.3239 O   0  0  0  0  0  0  0  0  0  0  0  0
   -3.6183   90.5114    4.7706 C   0  0  2  0  0  0  0  0  0  0  0  0
   -4.7072   91.2842    5.2869 O   0  0  0  0  0  0  0  0  0  0  0  0
   -2.8422   89.8626    5.9216 C   0  0  1  0  0  0  0  0  0  0  0  0
   -2.3099   90.8808    6.7892 O   0  0  0  0  0  0  0  0  0  0  0  0
   -3.7245   88.9045    6.7265 C   0  0  0  0  0  0  0  0  0  0  0  0
   -3.1048   93.3342    5.4624 N   0  0  0  0  0  0  0  0  0  0  0  0
  1  2  1  1  0  0  0
  1  3  1  0  0  0  0
  1 10  1  0  0  0  0
  3  4  1  1  0  0  0
  3  5  1  0  0  0  0
  5  6  1  1  0  0  0
  5  7  1  0  0  0  0
  7  8  1  1  0  0  0
  7  9  1  0  0  0  0
  9 10  1  0  0  0  0
  9 11  1  6  0  0  0
 11 12  1  0  0  0  0
 13 14  1  6  0  0  0
 13 15  1  0  0  0  0
 13 21  1  0  0  0  0
 16 15  1  0  0  0  0
 16 17  1  1  0  0  0
 18  2  1  1  0  0  0
 18 16  1  0  0  0  0
 19 18  1  0  0  0  0
 19 20  1  6  0  0  0
 21 19  1  0  0  0  0
 21 22  1  6  0  0  0
 23 20  1  1  0  0  0
 23 24  1  0  0  0  0
 23 28  1  0  0  0  0
 24 25  1  6  0  0  0
 24 26  1  0  0  0  0
 26 27  1  0  0  0  0
 26 32  1  6  0  0  0
 27 28  1  0  0  0  0
 27 29  1  1  0  0  0
 29 30  1  0  0  0  0
 31 32  1  1  0  0  0
 31 40  1  0  0  0  0
 33 31  1  0  0  0  0
 33 42  1  1  0  0  0
 35 33  1  0  0  0  0
 35 36  1  1  0  0  0
 37 35  1  0  0  0  0
 37 38  1  1  0  0  0
 37 39  1  0  0  0  0
 39 40  1  0  0  0  0
 39 41  1  1  0  0  0
 41 34  1  0  0  0  0
M  END
>  <CHROM.1>
-169.54564038,-175.45036132,-161.56144877,163.95918050,169.11762813,162.66841548
179.12498689,-166.20960100,173.58998201,-0.17593550,93.26540443,10.30125069
-0.42918980,1.06377637,-3.05498821

>  <Name>
2fcy_lig

>  <RI>
224

>  <Rbt.Current_Directory>
/home/itssahil/PROJECTS/Mol_Feturizer/New_Systems/rnas/2fcy

>  <Rbt.Executable>
rbdock ($Id: //depot/dev/client3/rdock/2013.1/src/exe/rbdock.cxx#4 $)

>  <Rbt.Library>
libRbt.so (2013.1, Build901 2013/11/27)

>  <Rbt.Parameter_File>
/export/apps/rDock/src/rDock_2013.1_src/data/scripts/dock_solv.prm

>  <Rbt.Receptor>
prm/pocket_docking_6.prm

>  <SCORE>
-7.93593

>  <SCORE.INTER>
-1.36069

>  <SCORE.INTER.CONST>
1

>  <SCORE.INTER.POLAR>
0

>  <SCORE.INTER.ROT>
9

>  <SCORE.INTER.SOLV>
13.499

>  <SCORE.INTER.VDW>
-15.0068

>  <SCORE.INTER.norm>
-0.0323973

>  <SCORE.INTRA>
-6.57524

>  <SCORE.INTRA.DIHEDRAL>
-10.5465

>  <SCORE.INTRA.DIHEDRAL.0>
17.3446

>  <SCORE.INTRA.POLAR>
0

>  <SCORE.INTRA.POLAR.0>
0

>  <SCORE.INTRA.REPUL>
0

>  <SCORE.INTRA.REPUL.0>
0

>  <SCORE.INTRA.SOLV>
-4.81057

>  <SCORE.INTRA.SOLV.lig_0>
-112.452

>  <SCORE.INTRA.VDW>
1.10331

>  <SCORE.INTRA.VDW.0>
-5.95059

>  <SCORE.INTRA.norm>
-0.156553

>  <SCORE.RESTR>
0

>  <SCORE.RESTR.CAVITY>
0

>  <SCORE.RESTR.norm>
0

>  <SCORE.SYSTEM>
0

>  <SCORE.SYSTEM.CONST>
0

>  <SCORE.SYSTEM.DIHEDRAL>
0

>  <SCORE.SYSTEM.SOLV>
0

>  <SCORE.SYSTEM.norm>
0

>  <SCORE.heavy>
42

>  <SCORE.norm>
-0.188951

>  <RMSD>
3.683

$$$$
2fcy_lig
 OpenBabel11021811433D
libRbt.so/2013.1/901 2013/11/27
 42 45  0  0  0  0  0  0  0  0999 V2000
    1.9772   92.5394   12.5684 C   0  0  2  0  0  0  0  0  0  0  0  0
    1.3288   93.6932   12.0067 O   0  0  0  0  0  0  0  0  0  0  0  0
    1.1410   91.3415   12.1158 C   0  0  2  0  0  0  0  0  0  0  0  0
    1.0268   91.3730   10.6513 N   0  0  0  0  0  0  0  0  0  0  0  0
   -0.2555   91.4278   12.7369 C   0  0  1  0  0  0  0  0  0  0  0  0
   -1.0560   90.3142   12.3309 O   0  0  0  0  0  0  0  0  0  0  0  0
   -0.1309   91.4709   14.2602 C   0  0  2  0  0  0  0  0  0  0  0  0
   -1.4262   91.6486   14.8332 O   0  0  0  0  0  0  0  0  0  0  0  0
    0.7304   92.6730   14.6502 C   0  0  2  0  0  0  0  0  0  0  0  0
    2.0121   92.5731   14.0100 O   0  0  0  0  0  0  0  0  0  0  0  0
    0.8707   92.7209   16.1740 C   0  0  0  0  0  0  0  0  0  0  0  0
    1.7189   93.8482   16.5892 N   0  0  0  0  0  0  0  0  0  0  0  0
    2.5991   97.6357   11.3074 C   0  0  2  0  0  0  0  0  0  0  0  0
    3.2904   98.8951   10.9928 N   0  0  0  0  0  0  0  0  0  0  0  0
    3.3498   96.8594   12.3912 C   0  0  0  0  0  0  0  0  0  0  0  0
    2.5162   95.6305   12.7682 C   0  0  2  0  0  0  0  0  0  0  0  0
    3.2586   94.8218   13.7459 N   0  0  0  0  0  0  0  0  0  0  0  0
    2.2099   94.7394   11.5610 C   0  0  2  0  0  0  0  0  0  0  0  0
    1.6768   95.4819   10.3408 C   0  0  2  0  0  0  0  0  0  0  0  0
    1.8272   94.5714    9.2396 O   0  0  0  0  0  0  0  0  0  0  0  0
    2.4755   96.7611   10.0573 C   0  0  1  0  0  0  0  0  0  0  0  0
    1.8438   97.5405    9.0382 O   0  0  0  0  0  0  0  0  0  0  0  0
    0.7563   93.6309    9.0578 C   0  0  1  0  0  0  0  0  0  0  0  0
   -0.2475   94.2560    8.0877 C   0  0  2  0  0  0  0  0  0  0  0  0
   -1.1324   95.1215    8.8029 O   0  0  0  0  0  0  0  0  0  0  0  0
   -0.9943   92.9906    7.6758 C   0  0  1  0  0  0  0  0  0  0  0  0
    0.1746   92.0493    7.4315 C   0  0  2  0  0  0  0  0  0  0  0  0
    1.1693   92.4090    8.4123 O   0  0  0  0  0  0  0  0  0  0  0  0
    0.6867   92.2472    6.0002 C   0  0  0  0  0  0  0  0  0  0  0  0
    1.6548   91.2470    5.6701 O   0  0  0  0  0  0  0  0  0  0  0  0
   -2.8808   91.7308    8.2693 C   0  0  2  0  0  0  0  0  0  0  0  0
   -1.7888   92.5147    8.7738 O   0  0  0  0  0  0  0  0  0  0  0  0
   -3.8461   91.4012    9.4124 C   0  0  1  0  0  0  0  0  0  0  0  0
   -1.7695   87.8698    7.2209 N   0  0  0  0  0  0  0  0  0  0  0  0
   -4.9661   90.4797    8.9175 C   0  0  1  0  0  0  0  0  0  0  0  0
   -5.8174   91.1794    8.0043 O   0  0  0  0  0  0  0  0  0  0  0  0
   -4.3618   89.2528    8.2290 C   0  0  2  0  0  0  0  0  0  0  0  0
   -3.6483   88.4872    9.2058 O   0  0  0  0  0  0  0  0  0  0  0  0
   -3.4090   89.7053    7.1174 C   0  0  1  0  0  0  0  0  0  0  0  0
   -2.3656   90.5284    7.6712 O   0  0  0  0  0  0  0  0  0  0  0  0
   -2.7931   88.5114    6.3828 C   0  0  0  0  0  0  0  0  0  0  0  0
   -3.1024   90.7014   10.4708 N   0  0  0  0  0  0  0  0  0  0  0  0
  1  2  1  1  0  0  0
  1  3  1  0  0  0  0
  1 10  1  0  0  0  0
  3  4  1  6  0  0  0
  3  5  1  0  0  0  0
  5  6  1  1  0  0  0
  5  7  1  0  0  0  0
  7  8  1  1  0  0  0
  7  9  1  0  0  0  0
  9 10  1  0  0  0  0
  9 11  1  1  0  0  0
 11 12  1  0  0  0  0
 13 14  1  6  0  0  0
 13 15  1  0  0  0  0
 13 21  1  0  0  0  0
 16 15  1  0  0  0  0
 16 17  1  1  0  0  0
 18  2  1  1  0  0  0
 18 16  1  0  0  0  0
 19 18  1  0  0  0  0
 19 20  1  6  0  0  0
 21 19  1  0  0  0  0
 21 22  1  6  0  0  0
 23 20  1  6  0  0  0
 23 24  1  0  0  0  0
 23 28  1  0  0  0  0
 24 25  1  1  0  0  0
 24 26  1  0  0  0  0
 26 27  1  0  0  0  0
 26 32  1  1  0  0  0
 27 28  1  0  0  0  0
 27 29  1  6  0  0  0
 29 30  1  0  0  0  0
 31 32  1  1  0  0  0
 31 40  1  0  0  0  0
 33 31  1  0  0  0  0
 33 42  1  1  0  0  0
 35 33  1  0  0  0  0
 35 36  1  6  0  0  0
 37 35  1  0  0  0  0
 37 38  1  1  0  0  0
 37 39  1  0  0  0  0
 39 40  1  0  0  0  0
 39 41  1  1  0  0  0
 41 34  1  0  0  0  0
M  END
>  <CHROM.1>
-143.34177760,178.73259185,-85.98513974,85.15977110,91.83268003,155.45120496
-171.57078839,-171.44905481,-74.23133012,-0.15066627,92.71722956,10.33956175
0.40332968,0.86251318,1.80540619

>  <Name>
2fcy_lig

>  <RI>
0

>  <Rbt.Current_Directory>
/home/itssahil/PROJECTS/Mol_Feturizer/New_Systems/rnas/2fcy

>  <Rbt.Executable>
rbdock ($Id: //depot/dev/client3/rdock/2013.1/src/exe/rbdock.cxx#4 $)

>  <Rbt.Library>
libRbt.so (2013.1, Build901 2013/11/27)

>  <Rbt.Parameter_File>
/export/apps/rDock/src/rDock_2013.1_src/data/scripts/dock_solv.prm

>  <Rbt.Receptor>
prm/pocket_docking_5.prm

>  <SCORE>
-11.5326

>  <SCORE.INTER>
-16.3055

>  <SCORE.INTER.CONST>
1

>  <SCORE.INTER.POLAR>
-2.91721

>  <SCORE.INTER.ROT>
9

>  <SCORE.INTER.SOLV>
13.2151

>  <SCORE.INTER.VDW>
-15.1513

>  <SCORE.INTER.norm>
-0.388226

>  <SCORE.INTRA>
4.74264

>  <SCORE.INTRA.DIHEDRAL>
1.05033

>  <SCORE.INTRA.DIHEDRAL.0>
17.3446

>  <SCORE.INTRA.POLAR>
0

>  <SCORE.INTRA.POLAR.0>
0

>  <SCORE.INTRA.REPUL>
0.0430628

>  <SCORE.INTRA.REPUL.0>
0

>  <SCORE.INTRA.SOLV>
5.53031

>  <SCORE.INTRA.SOLV.lig_0>
-112.452

>  <SCORE.INTRA.VDW>
1.23701

>  <SCORE.INTRA.VDW.0>
-5.95059

>  <SCORE.INTRA.norm>
0.11292

>  <SCORE.RESTR>
0.0302295

>  <SCORE.RESTR.CAVITY>
0.0302295

>  <SCORE.RESTR.norm>
0.00071975

>  <SCORE.SYSTEM>
0

>  <SCORE.SYSTEM.CONST>
0

>  <SCORE.SYSTEM.DIHEDRAL>
0

>  <SCORE.SYSTEM.SOLV>
0

>  <SCORE.SYSTEM.norm>
0

>  <SCORE.heavy>
42

>  <SCORE.norm>
-0.274586

>  <RMSD>
3.962

$$$$
2fcy_lig
 OpenBabel11021811433D
libRbt.so/2013.1/901 2013/11/27
 42 45  0  0  0  0  0  0  0  0999 V2000
    1.3539   91.9593   12.2881 C   0  0  2  0  0  0  0  0  0  0  0  0
    0.9278   93.2812   11.9163 O   0  0  0  0  0  0  0  0  0  0  0  0
    0.6997   91.0201   11.2737 C   0  0  2  0  0  0  0  0  0  0  0  0
    1.0624   91.4621    9.9202 N   0  0  0  0  0  0  0  0  0  0  0  0
   -0.8216   91.0714   11.4351 C   0  0  1  0  0  0  0  0  0  0  0  0
   -1.4564   90.1965   10.4984 O   0  0  0  0  0  0  0  0  0  0  0  0
   -1.1928   90.6835   12.8667 C   0  0  2  0  0  0  0  0  0  0  0  0
   -2.6023   90.8254   13.0421 O   0  0  0  0  0  0  0  0  0  0  0  0
   -0.4947   91.6415   13.8333 C   0  0  2  0  0  0  0  0  0  0  0  0
    0.9240   91.5938   13.6155 O   0  0  0  0  0  0  0  0  0  0  0  0
   -0.8511   91.2566   15.2715 C   0  0  0  0  0  0  0  0  0  0  0  0
   -0.1271   92.0979   16.2363 N   0  0  0  0  0  0  0  0  0  0  0  0
    3.0179   96.9100   11.5852 C   0  0  2  0  0  0  0  0  0  0  0  0
    3.9499   98.0222   11.3461 N   0  0  0  0  0  0  0  0  0  0  0  0
    3.6819   95.8143   12.4214 C   0  0  0  0  0  0  0  0  0  0  0  0
    2.6275   94.7517   12.7477 C   0  0  2  0  0  0  0  0  0  0  0  0
    3.2633   93.6449   13.4769 N   0  0  0  0  0  0  0  0  0  0  0  0
    1.9759   94.1695   11.4900 C   0  0  2  0  0  0  0  0  0  0  0  0
    1.4973   95.2085   10.4821 C   0  0  2  0  0  0  0  0  0  0  0  0
    1.2935   94.4895    9.2550 O   0  0  0  0  0  0  0  0  0  0  0  0
    2.5412   96.3110   10.2597 C   0  0  1  0  0  0  0  0  0  0  0  0
    2.0002   97.3725    9.4688 O   0  0  0  0  0  0  0  0  0  0  0  0
    0.0850   94.8014    8.5432 C   0  0  1  0  0  0  0  0  0  0  0  0
   -1.0915   94.4631    9.4603 C   0  0  2  0  0  0  0  0  0  0  0  0
   -1.3947   93.0697    9.3594 O   0  0  0  0  0  0  0  0  0  0  0  0
   -2.1769   95.2733    8.7575 C   0  0  1  0  0  0  0  0  0  0  0  0
   -1.4368   96.5814    8.5267 C   0  0  2  0  0  0  0  0  0  0  0  0
   -0.0689   96.2078    8.2626 O   0  0  0  0  0  0  0  0  0  0  0  0
   -1.5582   97.4539    9.7814 C   0  0  0  0  0  0  0  0  0  0  0  0
   -2.9327   97.6508   10.1254 O   0  0  0  0  0  0  0  0  0  0  0  0
   -3.6289   95.3369    6.9173 C   0  0  2  0  0  0  0  0  0  0  0  0
   -2.5023   94.6628    7.4986 O   0  0  0  0  0  0  0  0  0  0  0  0
   -4.8342   95.2235    7.8562 C   0  0  1  0  0  0  0  0  0  0  0  0
   -5.3340   93.3659    3.6311 N   0  0  0  0  0  0  0  0  0  0  0  0
   -6.0756   95.8481    7.2102 C   0  0  1  0  0  0  0  0  0  0  0  0
   -5.9181   97.2664    7.1014 O   0  0  0  0  0  0  0  0  0  0  0  0
   -6.2984   95.2418    5.8220 C   0  0  2  0  0  0  0  0  0  0  0  0
   -6.6122   93.8535    5.9759 O   0  0  0  0  0  0  0  0  0  0  0  0
   -5.0274   95.4032    4.9813 C   0  0  1  0  0  0  0  0  0  0  0  0
   -3.9214   94.7538    5.6354 O   0  0  0  0  0  0  0  0  0  0  0  0
   -5.2067   94.8295    3.5731 C   0  0  0  0  0  0  0  0  0  0  0  0
   -5.1064   93.7996    8.1044 N   0  0  0  0  0  0  0  0  0  0  0  0
  1  2  1  6  0  0  0
  1  3  1  0  0  0  0
  1 10  1  0  0  0  0
  3  4  1  6  0  0  0
  3  5  1  0  0  0  0
  5  6  1  6  0  0  0
  5  7  1  0  0  0  0
  7  8  1  6  0  0  0
  7  9  1  0  0  0  0
  9 10  1  0  0  0  0
  9 11  1  1  0  0  0
 11 12  1  0  0  0  0
 13 14  1  6  0  0  0
 13 15  1  0  0  0  0
 13 21  1  0  0  0  0
 16 15  1  0  0  0  0
 16 17  1  6  0  0  0
 18  2  1  1  0  0  0
 18 16  1  0  0  0  0
 19 18  1  0  0  0  0
 19 20  1  6  0  0  0
 21 19  1  0  0  0  0
 21 22  1  6  0  0  0
 23 20  1  1  0  0  0
 23 24  1  0  0  0  0
 23 28  1  0  0  0  0
 24 25  1  6  0  0  0
 24 26  1  0  0  0  0
 26 27  1  0  0  0  0
 26 32  1  6  0  0  0
 27 28  1  0  0  0  0
 27 29  1  1  0  0  0
 29 30  1  0  0  0  0
 31 32  1  1  0  0  0
 31 40  1  0  0  0  0
 33 31  1  0  0  0  0
 33 42  1  6  0  0  0
 35 33  1  0  0  0  0
 35 36  1  6  0  0  0
 37 35  1  0  0  0  0
 37 38  1  1  0  0  0
 37 39  1  0  0  0  0
 39 40  1  0  0  0  0
 39 41  1  6  0  0  0
 41 34  1  0  0  0  0
M  END
>  <CHROM.1>
-115.88456768,176.17468396,-82.12409934,135.88285312,-60.47870835,173.27215246
-55.55143225,-60.41528939,-68.05609730,-1.16625158,94.25677438,9.78690166
0.63198303,0.56148386,2.46207387

>  <Name>
2fcy_lig

>  <RI>
224

>  <Rbt.Current_Directory>
/home/itssahil/PROJECTS/Mol_Feturizer/New_Systems/rnas/2fcy

>  <Rbt.Executable>
rbdock ($Id: //depot/dev/client3/rdock/2013.1/src/exe/rbdock.cxx#4 $)

>  <Rbt.Library>
libRbt.so (2013.1, Build901 2013/11/27)

>  <Rbt.Parameter_File>
/export/apps/rDock/src/rDock_2013.1_src/data/scripts/dock_solv.prm

>  <Rbt.Receptor>
prm/pocket_docking_6.prm

>  <SCORE>
-11.618

>  <SCORE.INTER>
-14.399

>  <SCORE.INTER.CONST>
1

>  <SCORE.INTER.POLAR>
-2.33869

>  <SCORE.INTER.ROT>
9

>  <SCORE.INTER.SOLV>
13.1777

>  <SCORE.INTER.VDW>
-15.7963

>  <SCORE.INTER.norm>
-0.342834

>  <SCORE.INTRA>
2.78102

>  <SCORE.INTRA.DIHEDRAL>
-0.941409

>  <SCORE.INTRA.DIHEDRAL.0>
17.3446

>  <SCORE.INTRA.POLAR>
0

>  <SCORE.INTRA.POLAR.0>
0

>  <SCORE.INTRA.REPUL>
0.00150312

>  <SCORE.INTRA.REPUL.0>
0

>  <SCORE.INTRA.SOLV>
2.65087

>  <SCORE.INTRA.SOLV.lig_0>
-112.452

>  <SCORE.INTRA.VDW>
1.91877

>  <SCORE.INTRA.VDW.0>
-5.95059

>  <SCORE.INTRA.norm>
0.0662147

>  <SCORE.RESTR>
0

>  <SCORE.RESTR.CAVITY>
0

>  <SCORE.RESTR.norm>
0

>  <SCORE.SYSTEM>
0

>  <SCORE.SYSTEM.CONST>
0

>  <SCORE.SYSTEM.DIHEDRAL>
0

>  <SCORE.SYSTEM.SOLV>
0

>  <SCORE.SYSTEM.norm>
0

>  <SCORE.heavy>
42

>  <SCORE.norm>
-0.276619

>  <RMSD>
4.084

$$$$
2fcy_lig
 OpenBabel11021811433D
libRbt.so/2013.1/901 2013/11/27
 42 45  0  0  0  0  0  0  0  0999 V2000
    2.9715   93.1851   13.7837 C   0  0  2  0  0  0  0  0  0  0  0  0
    2.2400   94.1882   13.0584 O   0  0  0  0  0  0  0  0  0  0  0  0
    2.1540   91.9007   13.6391 C   0  0  2  0  0  0  0  0  0  0  0  0
    1.9368   91.6388   12.2097 N   0  0  0  0  0  0  0  0  0  0  0  0
    0.8020   92.0728   14.3360 C   0  0  1  0  0  0  0  0  0  0  0  0
    0.0201   90.8810   14.2177 O   0  0  0  0  0  0  0  0  0  0  0  0
    1.0308   92.4196   15.8074 C   0  0  2  0  0  0  0  0  0  0  0  0
   -0.2274   92.6743   16.4317 O   0  0  0  0  0  0  0  0  0  0  0  0
    1.8687   93.6965   15.8881 C   0  0  2  0  0  0  0  0  0  0  0  0
    3.1055   93.5043   15.1839 O   0  0  0  0  0  0  0  0  0  0  0  0
    2.1130   94.0485   17.3578 C   0  0  0  0  0  0  0  0  0  0  0  0
    2.8351   92.9672   18.0449 N   0  0  0  0  0  0  0  0  0  0  0  0
    3.4435   97.8932   11.4863 C   0  0  2  0  0  0  0  0  0  0  0  0
    4.0904   99.0464   10.8426 N   0  0  0  0  0  0  0  0  0  0  0  0
    4.3707   97.2596   12.5254 C   0  0  0  0  0  0  0  0  0  0  0  0
    3.5970   96.1541   13.2509 C   0  0  2  0  0  0  0  0  0  0  0  0
    4.4948   95.4721   14.1942 N   0  0  0  0  0  0  0  0  0  0  0  0
    3.0429   95.1000   12.2879 C   0  0  2  0  0  0  0  0  0  0  0  0
    2.3020   95.6666   11.0819 C   0  0  2  0  0  0  0  0  0  0  0  0
    2.2159   94.5853   10.1398 O   0  0  0  0  0  0  0  0  0  0  0  0
    3.0607   96.8385   10.4451 C   0  0  1  0  0  0  0  0  0  0  0  0
    2.2628   97.4789    9.4459 O   0  0  0  0  0  0  0  0  0  0  0  0
    1.0394   93.7663   10.2369 C   0  0  1  0  0  0  0  0  0  0  0  0
   -0.1398   94.5880    9.7137 C   0  0  2  0  0  0  0  0  0  0  0  0
   -0.6412   95.4274   10.7567 O   0  0  0  0  0  0  0  0  0  0  0  0
   -1.1234   93.4498    9.4580 C   0  0  1  0  0  0  0  0  0  0  0  0
   -0.2137   92.4533    8.7569 C   0  0  2  0  0  0  0  0  0  0  0  0
    1.0770   92.6046    9.3828 O   0  0  0  0  0  0  0  0  0  0  0  0
   -0.1652   92.7854    7.2610 C   0  0  0  0  0  0  0  0  0  0  0  0
    0.4711   94.0487    7.0473 O   0  0  0  0  0  0  0  0  0  0  0  0
   -2.6799   92.0194   10.4728 C   0  0  2  0  0  0  0  0  0  0  0  0
   -1.5768   92.9076   10.7086 O   0  0  0  0  0  0  0  0  0  0  0  0
   -3.3472   91.6659   11.8058 C   0  0  1  0  0  0  0  0  0  0  0  0
   -2.1242   89.2232    7.4438 N   0  0  0  0  0  0  0  0  0  0  0  0
   -4.4637   90.6389   11.5889 C   0  0  1  0  0  0  0  0  0  0  0  0
   -5.5471   91.2291   10.8634 O   0  0  0  0  0  0  0  0  0  0  0  0
   -3.9173   89.4339   10.8183 C   0  0  2  0  0  0  0  0  0  0  0  0
   -2.9489   88.7700   11.6374 O   0  0  0  0  0  0  0  0  0  0  0  0
   -3.2659   89.9102    9.5156 C   0  0  1  0  0  0  0  0  0  0  0  0
   -2.2030   90.8358    9.8090 O   0  0  0  0  0  0  0  0  0  0  0  0
   -2.7209   88.7370    8.6966 C   0  0  0  0  0  0  0  0  0  0  0  0
   -2.3377   91.0735   12.6962 N   0  0  0  0  0  0  0  0  0  0  0  0
  1  2  1  6  0  0  0
  1  3  1  0  0  0  0
  1 10  1  0  0  0  0
  3  4  1  6  0  0  0
  3  5  1  0  0  0  0
  5  6  1  1  0  0  0
  5  7  1  0  0  0  0
  7  8  1  1  0  0  0
  7  9  1  0  0  0  0
  9 10  1  0  0  0  0
  9 11  1  1  0  0  0
 11 12  1  0  0  0  0
 13 14  1  6  0  0  0
 13 15  1  0  0  0  0
 13 21  1  0  0  0  0
 16 15  1  0  0  0  0
 16 17  1  1  0  0  0
 18  2  1  1  0  0  0
 18 16  1  0  0  0  0
 19 18  1  0  0  0  0
 19 20  1  6  0  0  0
 21 19  1  0  0  0  0
 21 22  1  6  0  0  0
 23 20  1  6  0  0  0
 23 24  1  0  0  0  0
 23 28  1  0  0  0  0
 24 25  1  1  0  0  0
 24 26  1  0  0  0  0
 26 27  1  0  0  0  0
 26 32  1  1  0  0  0
 27 28  1  0  0  0  0
 27 29  1  6  0  0  0
 29 30  1  0  0  0  0
 31 32  1  1  0  0  0
 31 40  1  0  0  0  0
 33 31  1  0  0  0  0
 33 42  1  1  0  0  0
 35 33  1  0  0  0  0
 35 36  1  6  0  0  0
 37 35  1  0  0  0  0
 37 38  1  1  0  0  0
 37 39  1  0  0  0  0
 39 40  1  0  0  0  0
 39 41  1  1  0  0  0
 41 34  1  0  0  0  0
M  END
>  <CHROM.1>
-139.86721677,60.18311761,-79.96037071,91.07444656,72.04199004,169.19041682
66.09975995,-168.46101909,179.00971453,0.38159879,93.18457326,11.75395468
0.16422369,0.76985092,1.92077861

>  <Name>
2fcy_lig

>  <RI>
1.56845e+07

>  <Rbt.Current_Directory>
/home/itssahil/PROJECTS/Mol_Feturizer/New_Systems/rnas/2fcy

>  <Rbt.Executable>
rbdock ($Id: //depot/dev/client3/rdock/2013.1/src/exe/rbdock.cxx#4 $)

>  <Rbt.Library>
libRbt.so (2013.1, Build901 2013/11/27)

>  <Rbt.Parameter_File>
/export/apps/rDock/src/rDock_2013.1_src/data/scripts/dock_solv.prm

>  <Rbt.Receptor>
prm/pocket_docking_4.prm

>  <SCORE>
-9.74838

>  <SCORE.INTER>
-11.3444

>  <SCORE.INTER.CONST>
1

>  <SCORE.INTER.POLAR>
-1.66068

>  <SCORE.INTER.ROT>
9

>  <SCORE.INTER.SOLV>
16.9833

>  <SCORE.INTER.VDW>
-17.2884

>  <SCORE.INTER.norm>
-0.270105

>  <SCORE.INTRA>
1.59602

>  <SCORE.INTRA.DIHEDRAL>
-3.80714

>  <SCORE.INTRA.DIHEDRAL.0>
17.3446

>  <SCORE.INTRA.POLAR>
0

>  <SCORE.INTRA.POLAR.0>
0

>  <SCORE.INTRA.REPUL>
0

>  <SCORE.INTRA.REPUL.0>
0

>  <SCORE.INTRA.SOLV>
3.79395

>  <SCORE.INTRA.SOLV.lig_0>
-112.452

>  <SCORE.INTRA.VDW>
1.60261

>  <SCORE.INTRA.VDW.0>
-5.95059

>  <SCORE.INTRA.norm>
0.0380004

>  <SCORE.RESTR>
0

>  <SCORE.RESTR.CAVITY>
0

>  <SCORE.RESTR.norm>
0

>  <SCORE.SYSTEM>
0

>  <SCORE.SYSTEM.CONST>
0

>  <SCORE.SYSTEM.DIHEDRAL>
0

>  <SCORE.SYSTEM.SOLV>
0

>  <SCORE.SYSTEM.norm>
0

>  <SCORE.heavy>
42

>  <SCORE.norm>
-0.232104

>  <RMSD>
4.129

$$$$
2fcy_lig
 OpenBabel11021811433D
libRbt.so/2013.1/901 2013/11/27
 42 45  0  0  0  0  0  0  0  0999 V2000
   -1.3740   91.1194   13.0397 C   0  0  2  0  0  0  0  0  0  0  0  0
   -0.2048   91.1688   12.2045 O   0  0  0  0  0  0  0  0  0  0  0  0
   -2.4711   90.5053   12.1689 C   0  0  2  0  0  0  0  0  0  0  0  0
   -1.9924   89.2184   11.6459 N   0  0  0  0  0  0  0  0  0  0  0  0
   -2.7838   91.4444   11.0011 C   0  0  1  0  0  0  0  0  0  0  0  0
   -3.8116   90.8926   10.1735 O   0  0  0  0  0  0  0  0  0  0  0  0
   -3.2097   92.8076   11.5470 C   0  0  2  0  0  0  0  0  0  0  0  0
   -3.4072   93.7094   10.4583 O   0  0  0  0  0  0  0  0  0  0  0  0
   -2.0853   93.3602   12.4241 C   0  0  2  0  0  0  0  0  0  0  0  0
   -1.7954   92.4277   13.4771 O   0  0  0  0  0  0  0  0  0  0  0  0
   -2.5047   94.7216   12.9850 C   0  0  0  0  0  0  0  0  0  0  0  0
   -3.6158   94.5786   13.9377 N   0  0  0  0  0  0  0  0  0  0  0  0
    1.8787   93.7240   14.8077 C   0  0  2  0  0  0  0  0  0  0  0  0
    2.8392   94.4951   15.6113 N   0  0  0  0  0  0  0  0  0  0  0  0
    2.0619   92.2221   15.0347 C   0  0  0  0  0  0  0  0  0  0  0  0
    0.9536   91.4820   14.2789 C   0  0  2  0  0  0  0  0  0  0  0  0
    1.1606   90.0326   14.4106 N   0  0  0  0  0  0  0  0  0  0  0  0
    0.9402   91.8182   12.7848 C   0  0  2  0  0  0  0  0  0  0  0  0
    0.9994   93.3082   12.4672 C   0  0  2  0  0  0  0  0  0  0  0  0
    1.3668   93.3923   11.0808 O   0  0  0  0  0  0  0  0  0  0  0  0
    2.0513   94.0317   13.3183 C   0  0  1  0  0  0  0  0  0  0  0  0
    1.9559   95.4486   13.1499 O   0  0  0  0  0  0  0  0  0  0  0  0
    0.3370   93.0452   10.1409 C   0  0  1  0  0  0  0  0  0  0  0  0
    0.3334   94.1121    9.0449 C   0  0  2  0  0  0  0  0  0  0  0  0
   -0.4387   95.2371    9.4715 O   0  0  0  0  0  0  0  0  0  0  0  0
   -0.4341   93.3440    7.9728 C   0  0  1  0  0  0  0  0  0  0  0  0
    0.2639   91.9952    8.0488 C   0  0  2  0  0  0  0  0  0  0  0  0
    0.5915   91.8098    9.4413 O   0  0  0  0  0  0  0  0  0  0  0  0
    1.5176   92.0294    7.1672 C   0  0  0  0  0  0  0  0  0  0  0  0
    1.1579   92.0479    5.7828 O   0  0  0  0  0  0  0  0  0  0  0  0
   -2.5901   92.8031    7.2262 C   0  0  2  0  0  0  0  0  0  0  0  0
   -1.8103   93.2089    8.3614 O   0  0  0  0  0  0  0  0  0  0  0  0
   -2.5728   93.9123    6.1696 C   0  0  1  0  0  0  0  0  0  0  0  0
   -6.7931   92.8097    7.7598 N   0  0  0  0  0  0  0  0  0  0  0  0
   -3.4817   93.5433    4.9923 C   0  0  1  0  0  0  0  0  0  0  0  0
   -2.9324   92.4374    4.2687 O   0  0  0  0  0  0  0  0  0  0  0  0
   -4.8784   93.1853    5.5077 C   0  0  2  0  0  0  0  0  0  0  0  0
   -5.4657   94.3567    6.0841 O   0  0  0  0  0  0  0  0  0  0  0  0
   -4.7682   92.0792    6.5625 C   0  0  1  0  0  0  0  0  0  0  0  0
   -3.9352   92.5208    7.6506 O   0  0  0  0  0  0  0  0  0  0  0  0
   -6.1440   91.6700    7.0954 C   0  0  0  0  0  0  0  0  0  0  0  0
   -3.0807   95.1513    6.7780 N   0  0  0  0  0  0  0  0  0  0  0  0
  1  2  1  6  0  0  0
  1  3  1  0  0  0  0
  1 10  1  0  0  0  0
  3  4  1  6  0  0  0
  3  5  1  0  0  0  0
  5  6  1  1  0  0  0
  5  7  1  0  0  0  0
  7  8  1  6  0  0  0
  7  9  1  0  0  0  0
  9 10  1  0  0  0  0
  9 11  1  1  0  0  0
 11 12  1  0  0  0  0
 13 14  1  1  0  0  0
 13 15  1  0  0  0  0
 13 21  1  0  0  0  0
 16 15  1  0  0  0  0
 16 17  1  6  0  0  0
 18  2  1  1  0  0  0
 18 16  1  0  0  0  0
 19 18  1  0  0  0  0
 19 20  1  6  0  0  0
 21 19  1  0  0  0  0
 21 22  1  1  0  0  0
 23 20  1  1  0  0  0
 23 24  1  0  0  0  0
 23 28  1  0  0  0  0
 24 25  1  1  0  0  0
 24 26  1  0  0  0  0
 26 27  1  0  0  0  0
 26 32  1  1  0  0  0
 27 28  1  0  0  0  0
 27 29  1  6  0  0  0
 29 30  1  0  0  0  0
 31 32  1  1  0  0  0
 31 40  1  0  0  0  0
 33 31  1  0  0  0  0
 33 42  1  1  0  0  0
 35 33  1  0  0  0  0
 35 36  1  1  0  0  0
 37 35  1  0  0  0  0
 37 38  1  1  0  0  0
 37 39  1  0  0  0  0
 39 40  1  0  0  0  0
 39 41  1  1  0  0  0
 41 34  1  0  0  0  0
M  END
>  <CHROM.1>
175.11593745,67.50883895,36.08088454,73.67691597,134.37720823,165.30544153
-70.85859774,-64.90676788,-62.12176791,-1.39314214,92.80093158,10.14336433
0.98820520,0.13636562,1.68257751

>  <Name>
2fcy_lig

>  <RI>
1.56845e+07

>  <Rbt.Current_Directory>
/home/itssahil/PROJECTS/Mol_Feturizer/New_Systems/rnas/2fcy

>  <Rbt.Executable>
rbdock ($Id: //depot/dev/client3/rdock/2013.1/src/exe/rbdock.cxx#4 $)

>  <Rbt.Library>
libRbt.so (2013.1, Build901 2013/11/27)

>  <Rbt.Parameter_File>
/export/apps/rDock/src/rDock_2013.1_src/data/scripts/dock_solv.prm

>  <Rbt.Receptor>
prm/pocket_docking_4.prm

>  <SCORE>
-5.68926

>  <SCORE.INTER>
-4.95114

>  <SCORE.INTER.CONST>
1

>  <SCORE.INTER.POLAR>
-1.52675

>  <SCORE.INTER.ROT>
9

>  <SCORE.INTER.SOLV>
15.6074

>  <SCORE.INTER.VDW>
-13.0141

>  <SCORE.INTER.norm>
-0.117884

>  <SCORE.INTRA>
-0.738117

>  <SCORE.INTRA.DIHEDRAL>
-5.5586

>  <SCORE.INTRA.DIHEDRAL.0>
17.3446

>  <SCORE.INTRA.POLAR>
0

>  <SCORE.INTRA.POLAR.0>
0

>  <SCORE.INTRA.REPUL>
0

>  <SCORE.INTRA.REPUL.0>
0

>  <SCORE.INTRA.SOLV>
1.45682

>  <SCORE.INTRA.SOLV.lig_0>
-112.452

>  <SCORE.INTRA.VDW>
1.31277

>  <SCORE.INTRA.VDW.0>
-5.95059

>  <SCORE.INTRA.norm>
-0.0175742

>  <SCORE.RESTR>
0

>  <SCORE.RESTR.CAVITY>
0

>  <SCORE.RESTR.norm>
0

>  <SCORE.SYSTEM>
0

>  <SCORE.SYSTEM.CONST>
0

>  <SCORE.SYSTEM.DIHEDRAL>
0

>  <SCORE.SYSTEM.SOLV>
0

>  <SCORE.SYSTEM.norm>
0

>  <SCORE.heavy>
42

>  <SCORE.norm>
-0.135459

>  <RMSD>
4.141

$$$$
2fcy_lig
 OpenBabel11021811433D
libRbt.so/2013.1/901 2013/11/27
 42 45  0  0  0  0  0  0  0  0999 V2000
    3.3597   94.4504   14.6823 C   0  0  2  0  0  0  0  0  0  0  0  0
    2.1560   94.8205   13.9884 O   0  0  0  0  0  0  0  0  0  0  0  0
    2.9128   93.5014   15.7953 C   0  0  2  0  0  0  0  0  0  0  0  0
    2.1448   92.4013   15.1964 N   0  0  0  0  0  0  0  0  0  0  0  0
    2.0276   94.2580   16.7889 C   0  0  1  0  0  0  0  0  0  0  0  0
    1.6001   93.3909   17.8429 O   0  0  0  0  0  0  0  0  0  0  0  0
    2.8035   95.4476   17.3552 C   0  0  2  0  0  0  0  0  0  0  0  0
    1.9452   96.2065   18.2067 O   0  0  0  0  0  0  0  0  0  0  0  0
    3.2407   96.3466   16.1978 C   0  0  2  0  0  0  0  0  0  0  0  0
    4.0290   95.5851   15.2698 O   0  0  0  0  0  0  0  0  0  0  0  0
    4.0278   97.5369   16.7521 C   0  0  0  0  0  0  0  0  0  0  0  0
    3.1543   98.4300   17.5281 N   0  0  0  0  0  0  0  0  0  0  0  0
    1.4667   96.7625   10.3278 C   0  0  2  0  0  0  0  0  0  0  0  0
    1.4437   97.2871    8.9541 N   0  0  0  0  0  0  0  0  0  0  0  0
    2.8340   96.9920   10.9748 C   0  0  0  0  0  0  0  0  0  0  0  0
    2.7547   96.5478   12.4389 C   0  0  2  0  0  0  0  0  0  0  0  0
    4.0817   96.6774   13.0580 N   0  0  0  0  0  0  0  0  0  0  0  0
    2.3120   95.0888   12.5837 C   0  0  2  0  0  0  0  0  0  0  0  0
    1.0789   94.7141   11.7693 C   0  0  2  0  0  0  0  0  0  0  0  0
    1.0662   93.2780   11.7280 O   0  0  0  0  0  0  0  0  0  0  0  0
    1.1507   95.2648   10.3389 C   0  0  1  0  0  0  0  0  0  0  0  0
   -0.0916   95.0742    9.6568 O   0  0  0  0  0  0  0  0  0  0  0  0
   -0.0771   92.6828   11.0934 C   0  0  1  0  0  0  0  0  0  0  0  0
    0.0800   91.1643   11.1891 C   0  0  2  0  0  0  0  0  0  0  0  0
    0.9109   90.6987   10.1230 O   0  0  0  0  0  0  0  0  0  0  0  0
   -1.3672   90.7617   10.9207 C   0  0  1  0  0  0  0  0  0  0  0  0
   -2.0974   91.7470   11.8196 C   0  0  2  0  0  0  0  0  0  0  0  0
   -1.3192   92.9607   11.7718 O   0  0  0  0  0  0  0  0  0  0  0  0
   -2.1706   91.1715   13.2386 C   0  0  0  0  0  0  0  0  0  0  0  0
   -2.9022   92.0490   14.0996 O   0  0  0  0  0  0  0  0  0  0  0  0
   -3.0793   90.7033    9.3196 C   0  0  2  0  0  0  0  0  0  0  0  0
   -1.6956   91.0132    9.5451 O   0  0  0  0  0  0  0  0  0  0  0  0
   -3.2910   89.1904    9.4345 C   0  0  1  0  0  0  0  0  0  0  0  0
   -6.6952   91.5095    6.2071 N   0  0  0  0  0  0  0  0  0  0  0  0
   -4.7409   88.8263    9.0972 C   0  0  1  0  0  0  0  0  0  0  0  0
   -5.6255   89.3258   10.1053 O   0  0  0  0  0  0  0  0  0  0  0  0
   -5.1198   89.4143    7.7352 C   0  0  2  0  0  0  0  0  0  0  0  0
   -4.3274   88.7773    6.7273 O   0  0  0  0  0  0  0  0  0  0  0  0
   -4.8549   90.9236    7.7361 C   0  0  1  0  0  0  0  0  0  0  0  0
   -3.4659   91.1773    8.0177 O   0  0  0  0  0  0  0  0  0  0  0  0
   -5.2384   91.5637    6.3991 C   0  0  0  0  0  0  0  0  0  0  0  0
   -2.4068   88.5159    8.4720 N   0  0  0  0  0  0  0  0  0  0  0  0
  1  2  1  1  0  0  0
  1  3  1  0  0  0  0
  1 10  1  0  0  0  0
  3  4  1  6  0  0  0
  3  5  1  0  0  0  0
  5  6  1  1  0  0  0
  5  7  1  0  0  0  0
  7  8  1  1  0  0  0
  7  9  1  0  0  0  0
  9 10  1  0  0  0  0
  9 11  1  1  0  0  0
 11 12  1  0  0  0  0
 13 14  1  6  0  0  0
 13 15  1  0  0  0  0
 13 21  1  0  0  0  0
 16 15  1  0  0  0  0
 16 17  1  6  0  0  0
 18  2  1  1  0  0  0
 18 16  1  0  0  0  0
 19 18  1  0  0  0  0
 19 20  1  6  0  0  0
 21 19  1  0  0  0  0
 21 22  1  1  0  0  0
 23 20  1  1  0  0  0
 23 24  1  0  0  0  0
 23 28  1  0  0  0  0
 24 25  1  6  0  0  0
 24 26  1  0  0  0  0
 26 27  1  0  0  0  0
 26 32  1  6  0  0  0
 27 28  1  0  0  0  0
 27 29  1  1  0  0  0
 29 30  1  0  0  0  0
 31 32  1  6  0  0  0
 31 40  1  0  0  0  0
 33 31  1  0  0  0  0
 33 42  1  6  0  0  0
 35 33  1  0  0  0  0
 35 36  1  1  0  0  0
 37 35  1  0  0  0  0
 37 38  1  6  0  0  0
 37 39  1  0  0  0  0
 39 40  1  0  0  0  0
 39 41  1  6  0  0  0
 41 34  1  0  0  0  0
M  END
>  <CHROM.1>
-148.66901251,-67.99544914,-84.65184644,175.32012736,-178.37671278,-176.74676047
-177.55120708,-68.58311924,67.39477324,-0.21127662,93.17709404,11.92324267
0.41104733,0.84429621,1.94573540

>  <Name>
2fcy_lig

>  <RI>
224

>  <Rbt.Current_Directory>
/home/itssahil/PROJECTS/Mol_Feturizer/New_Systems/rnas/2fcy

>  <Rbt.Executable>
rbdock ($Id: //depot/dev/client3/rdock/2013.1/src/exe/rbdock.cxx#4 $)

>  <Rbt.Library>
libRbt.so (2013.1, Build901 2013/11/27)

>  <Rbt.Parameter_File>
/export/apps/rDock/src/rDock_2013.1_src/data/scripts/dock_solv.prm

>  <Rbt.Receptor>
prm/pocket_docking_6.prm

>  <SCORE>
-11.8324

>  <SCORE.INTER>
-10.7028

>  <SCORE.INTER.CONST>
1

>  <SCORE.INTER.POLAR>
-1.35348

>  <SCORE.INTER.ROT>
9

>  <SCORE.INTER.SOLV>
15.1563

>  <SCORE.INTER.VDW>
-17.2757

>  <SCORE.INTER.norm>
-0.254829

>  <SCORE.INTRA>
-1.12956

>  <SCORE.INTRA.DIHEDRAL>
-9.39893

>  <SCORE.INTRA.DIHEDRAL.0>
17.3446

>  <SCORE.INTRA.POLAR>
0

>  <SCORE.INTRA.POLAR.0>
0

>  <SCORE.INTRA.REPUL>
0

>  <SCORE.INTRA.REPUL.0>
0

>  <SCORE.INTRA.SOLV>
-1.11499

>  <SCORE.INTRA.SOLV.lig_0>
-112.452

>  <SCORE.INTRA.VDW>
4.1274

>  <SCORE.INTRA.VDW.0>
-5.95059

>  <SCORE.INTRA.norm>
-0.0268942

>  <SCORE.RESTR>
0

>  <SCORE.RESTR.CAVITY>
0

>  <SCORE.RESTR.norm>
0

>  <SCORE.SYSTEM>
0

>  <SCORE.SYSTEM.CONST>
0

>  <SCORE.SYSTEM.DIHEDRAL>
0

>  <SCORE.SYSTEM.SOLV>
0

>  <SCORE.SYSTEM.norm>
0

>  <SCORE.heavy>
42

>  <SCORE.norm>
-0.281723

>  <RMSD>
4.182

$$$$
2fcy_lig
 OpenBabel11021811433D
libRbt.so/2013.1/901 2013/11/27
 42 45  0  0  0  0  0  0  0  0999 V2000
    0.2209   93.1079   12.8372 C   0  0  2  0  0  0  0  0  0  0  0  0
    1.2273   92.7890   11.8612 O   0  0  0  0  0  0  0  0  0  0  0  0
   -0.3697   91.7642   13.2672 C   0  0  2  0  0  0  0  0  0  0  0  0
    0.7227   90.8935   13.7224 N   0  0  0  0  0  0  0  0  0  0  0  0
   -1.0783   91.1118   12.0775 C   0  0  1  0  0  0  0  0  0  0  0  0
   -1.6433   89.8538   12.4569 O   0  0  0  0  0  0  0  0  0  0  0  0
   -2.1658   92.0524   11.5573 C   0  0  2  0  0  0  0  0  0  0  0  0
   -2.7594   91.4849   10.3897 O   0  0  0  0  0  0  0  0  0  0  0  0
   -1.5203   93.3820   11.1640 C   0  0  2  0  0  0  0  0  0  0  0  0
   -0.8304   93.9341   12.2962 O   0  0  0  0  0  0  0  0  0  0  0  0
   -2.6017   94.3363   10.6506 C   0  0  0  0  0  0  0  0  0  0  0  0
   -2.0245   95.6390   10.2867 N   0  0  0  0  0  0  0  0  0  0  0  0
    2.5471   96.7677   11.5888 C   0  0  2  0  0  0  0  0  0  0  0  0
    3.2518   98.0452   11.4038 N   0  0  0  0  0  0  0  0  0  0  0  0
    3.3106   95.8605   12.5556 C   0  0  0  0  0  0  0  0  0  0  0  0
    2.4657   94.6081   12.8099 C   0  0  2  0  0  0  0  0  0  0  0  0
    3.2179   93.6811   13.6678 N   0  0  0  0  0  0  0  0  0  0  0  0
    2.1150   93.8672   11.5163 C   0  0  2  0  0  0  0  0  0  0  0  0
    1.5649   94.7536   10.4044 C   0  0  2  0  0  0  0  0  0  0  0  0
    1.6728   93.9748    9.2019 O   0  0  0  0  0  0  0  0  0  0  0  0
    2.3780   96.0457   10.2498 C   0  0  1  0  0  0  0  0  0  0  0  0
    1.7351   96.9468    9.3444 O   0  0  0  0  0  0  0  0  0  0  0  0
    0.4683   93.3187    8.7741 C   0  0  1  0  0  0  0  0  0  0  0  0
    0.6905   92.8347    7.3402 C   0  0  2  0  0  0  0  0  0  0  0  0
    0.4302   93.9029    6.4264 O   0  0  0  0  0  0  0  0  0  0  0  0
   -0.4375   91.8101    7.2615 C   0  0  1  0  0  0  0  0  0  0  0  0
   -0.2558   91.0989    8.5931 C   0  0  2  0  0  0  0  0  0  0  0  0
    0.1731   92.1190    9.5184 O   0  0  0  0  0  0  0  0  0  0  0  0
    0.7962   89.9954    8.4323 C   0  0  0  0  0  0  0  0  0  0  0  0
    1.0612   89.3669    9.6898 O   0  0  0  0  0  0  0  0  0  0  0  0
   -2.0710   92.7558    5.8701 C   0  0  2  0  0  0  0  0  0  0  0  0
   -1.7060   92.4834    7.2318 O   0  0  0  0  0  0  0  0  0  0  0  0
   -3.2831   93.6923    5.8421 C   0  0  1  0  0  0  0  0  0  0  0  0
   -1.6709   89.5465    3.2880 N   0  0  0  0  0  0  0  0  0  0  0  0
   -3.7531   93.9154    4.4006 C   0  0  1  0  0  0  0  0  0  0  0  0
   -2.7794   94.6703    3.6723 O   0  0  0  0  0  0  0  0  0  0  0  0
   -3.9832   92.5656    3.7154 C   0  0  2  0  0  0  0  0  0  0  0  0
   -5.0716   91.9029    4.3680 O   0  0  0  0  0  0  0  0  0  0  0  0
   -2.7127   91.7149    3.8175 C   0  0  1  0  0  0  0  0  0  0  0  0
   -2.3651   91.5172    5.2006 O   0  0  0  0  0  0  0  0  0  0  0  0
   -2.8855   90.3593    3.1271 C   0  0  0  0  0  0  0  0  0  0  0  0
   -4.3799   93.0672    6.5966 N   0  0  0  0  0  0  0  0  0  0  0  0
  1  2  1  6  0  0  0
  1  3  1  0  0  0  0
  1 10  1  0  0  0  0
  3  4  1  6  0  0  0
  3  5  1  0  0  0  0
  5  6  1  1  0  0  0
  5  7  1  0  0  0  0
  7  8  1  6  0  0  0
  7  9  1  0  0  0  0
  9 10  1  0  0  0  0
  9 11  1  1  0  0  0
 11 12  1  0  0  0  0
 13 14  1  6  0  0  0
 13 15  1  0  0  0  0
 13 21  1  0  0  0  0
 16 15  1  0  0  0  0
 16 17  1  1  0  0  0
 18  2  1  1  0  0  0
 18 16  1  0  0  0  0
 19 18  1  0  0  0  0
 19 20  1  6  0  0  0
 21 19  1  0  0  0  0
 21 22  1  6  0  0  0
 23 20  1  1  0  0  0
 23 24  1  0  0  0  0
 23 28  1  0  0  0  0
 24 25  1  6  0  0  0
 24 26  1  0  0  0  0
 26 27  1  0  0  0  0
 26 32  1  1  0  0  0
 27 28  1  0  0  0  0
 27 29  1  6  0  0  0
 29 30  1  0  0  0  0
 31 32  1  1  0  0  0
 31 40  1  0  0  0  0
 33 31  1  0  0  0  0
 33 42  1  1  0  0  0
 35 33  1  0  0  0  0
 35 36  1  6  0  0  0
 37 35  1  0  0  0  0
 37 38  1  1  0  0  0
 37 39  1  0  0  0  0
 39 40  1  0  0  0  0
 39 41  1  1  0  0  0
 41 34  1  0  0  0  0
M  END
>  <CHROM.1>
-167.43030846,178.85015303,41.07509233,99.13475635,166.74264376,89.77723904
175.93008685,-169.67474904,-177.75229142,-0.54563367,93.01562125,8.98979917
0.52811658,0.95245770,2.25095527

>  <Name>
2fcy_lig

>  <RI>
1.56845e+07

>  <Rbt.Current_Directory>
/home/itssahil/PROJECTS/Mol_Feturizer/New_Systems/rnas/2fcy

>  <Rbt.Executable>
rbdock ($Id: //depot/dev/client3/rdock/2013.1/src/exe/rbdock.cxx#4 $)

>  <Rbt.Library>
libRbt.so (2013.1, Build901 2013/11/27)

>  <Rbt.Parameter_File>
/export/apps/rDock/src/rDock_2013.1_src/data/scripts/dock_solv.prm

>  <Rbt.Receptor>
prm/pocket_docking_4.prm

>  <SCORE>
-16.2191

>  <SCORE.INTER>
-14.7858

>  <SCORE.INTER.CONST>
1

>  <SCORE.INTER.POLAR>
-3.02215

>  <SCORE.INTER.ROT>
9

>  <SCORE.INTER.SOLV>
12.0885

>  <SCORE.INTER.VDW>
-13.4129

>  <SCORE.INTER.norm>
-0.352043

>  <SCORE.INTRA>
-1.43335

>  <SCORE.INTRA.DIHEDRAL>
-4.49537

>  <SCORE.INTRA.DIHEDRAL.0>
17.3446

>  <SCORE.INTRA.POLAR>
0

>  <SCORE.INTRA.POLAR.0>
0

>  <SCORE.INTRA.REPUL>
0.142483

>  <SCORE.INTRA.REPUL.0>
0

>  <SCORE.INTRA.SOLV>
-0.924085

>  <SCORE.INTRA.SOLV.lig_0>
-112.452

>  <SCORE.INTRA.VDW>
0.563958

>  <SCORE.INTRA.VDW.0>
-5.95059

>  <SCORE.INTRA.norm>
-0.0341275

>  <SCORE.RESTR>
0

>  <SCORE.RESTR.CAVITY>
0

>  <SCORE.RESTR.norm>
0

>  <SCORE.SYSTEM>
0

>  <SCORE.SYSTEM.CONST>
0

>  <SCORE.SYSTEM.DIHEDRAL>
0

>  <SCORE.SYSTEM.SOLV>
0

>  <SCORE.SYSTEM.norm>
0

>  <SCORE.heavy>
42

>  <SCORE.norm>
-0.38617

>  <RMSD>
4.195

$$$$
2fcy_lig
 OpenBabel11021811433D
libRbt.so/2013.1/901 2013/11/27
 42 45  0  0  0  0  0  0  0  0999 V2000
   -0.7029   91.0429   13.5010 C   0  0  2  0  0  0  0  0  0  0  0  0
   -0.2323   92.4013   13.5219 O   0  0  0  0  0  0  0  0  0  0  0  0
   -1.9606   91.0341   14.3711 C   0  0  2  0  0  0  0  0  0  0  0  0
   -2.8917   92.0513   13.8638 N   0  0  0  0  0  0  0  0  0  0  0  0
   -1.5849   91.3647   15.8178 C   0  0  1  0  0  0  0  0  0  0  0  0
   -2.7462   91.3583   16.6528 O   0  0  0  0  0  0  0  0  0  0  0  0
   -0.5585   90.3487   16.3197 C   0  0  2  0  0  0  0  0  0  0  0  0
   -0.1378   90.7150   17.6337 O   0  0  0  0  0  0  0  0  0  0  0  0
    0.6636   90.3881   15.4010 C   0  0  2  0  0  0  0  0  0  0  0  0
    0.2576   90.1176   14.0502 O   0  0  0  0  0  0  0  0  0  0  0  0
    1.6949   89.3669   15.8881 C   0  0  0  0  0  0  0  0  0  0  0  0
    2.3406   89.8218   17.1286 N   0  0  0  0  0  0  0  0  0  0  0  0
    1.1192   94.5580   10.1799 C   0  0  2  0  0  0  0  0  0  0  0  0
    1.8328   95.1680    9.0479 N   0  0  0  0  0  0  0  0  0  0  0  0
    1.8874   94.7715   11.4857 C   0  0  0  0  0  0  0  0  0  0  0  0
    1.0348   94.2340   12.6396 C   0  0  2  0  0  0  0  0  0  0  0  0
    1.7900   94.3489   13.8955 N   0  0  0  0  0  0  0  0  0  0  0  0
    0.6602   92.7609   12.4525 C   0  0  2  0  0  0  0  0  0  0  0  0
    0.1034   92.4157   11.0759 C   0  0  2  0  0  0  0  0  0  0  0  0
    0.1883   90.9851   10.9736 O   0  0  0  0  0  0  0  0  0  0  0  0
    0.9259   93.0570    9.9504 C   0  0  1  0  0  0  0  0  0  0  0  0
    0.2790   92.8870    8.6864 O   0  0  0  0  0  0  0  0  0  0  0  0
   -0.1531   90.4304    9.6930 C   0  0  1  0  0  0  0  0  0  0  0  0
    0.0331   88.9148    9.7817 C   0  0  2  0  0  0  0  0  0  0  0  0
    1.4056   88.5850    9.5559 O   0  0  0  0  0  0  0  0  0  0  0  0
   -0.7961   88.5055    8.5679 C   0  0  1  0  0  0  0  0  0  0  0  0
   -2.0286   89.3721    8.7726 C   0  0  2  0  0  0  0  0  0  0  0  0
   -1.5419   90.6037    9.3445 O   0  0  0  0  0  0  0  0  0  0  0  0
   -2.9985   88.6495    9.7145 C   0  0  0  0  0  0  0  0  0  0  0  0
   -3.4498   87.4251    9.1282 O   0  0  0  0  0  0  0  0  0  0  0  0
   -0.8987   88.4919    6.2253 C   0  0  2  0  0  0  0  0  0  0  0  0
   -0.1176   88.8911    7.3620 O   0  0  0  0  0  0  0  0  0  0  0  0
   -0.9081   86.9635    6.1212 C   0  0  1  0  0  0  0  0  0  0  0  0
   -1.3742   89.2577    1.4644 N   0  0  0  0  0  0  0  0  0  0  0  0
   -1.6512   86.5183    4.8571 C   0  0  1  0  0  0  0  0  0  0  0  0
   -3.0466   86.8153    4.9711 O   0  0  0  0  0  0  0  0  0  0  0  0
   -1.0664   87.2300    3.6340 C   0  0  2  0  0  0  0  0  0  0  0  0
    0.2835   86.7892    3.4522 O   0  0  0  0  0  0  0  0  0  0  0  0
   -1.0986   88.7456    3.8580 C   0  0  1  0  0  0  0  0  0  0  0  0
   -0.3442   89.0830    5.0370 O   0  0  0  0  0  0  0  0  0  0  0  0
   -0.5419   89.5054    2.6509 C   0  0  0  0  0  0  0  0  0  0  0  0
    0.4810   86.4880    6.0351 N   0  0  0  0  0  0  0  0  0  0  0  0
  1  2  1  1  0  0  0
  1  3  1  0  0  0  0
  1 10  1  0  0  0  0
  3  4  1  6  0  0  0
  3  5  1  0  0  0  0
  5  6  1  1  0  0  0
  5  7  1  0  0  0  0
  7  8  1  1  0  0  0
  7  9  1  0  0  0  0
  9 10  1  0  0  0  0
  9 11  1  1  0  0  0
 11 12  1  0  0  0  0
 13 14  1  6  0  0  0
 13 15  1  0  0  0  0
 13 21  1  0  0  0  0
 16 15  1  0  0  0  0
 16 17  1  1  0  0  0
 18  2  1  1  0  0  0
 18 16  1  0  0  0  0
 19 18  1  0  0  0  0
 19 20  1  6  0  0  0
 21 19  1  0  0  0  0
 21 22  1  6  0  0  0
 23 20  1  1  0  0  0
 23 24  1  0  0  0  0
 23 28  1  0  0  0  0
 24 25  1  6  0  0  0
 24 26  1  0  0  0  0
 26 27  1  0  0  0  0
 26 32  1  6  0  0  0
 27 28  1  0  0  0  0
 27 29  1  1  0  0  0
 29 30  1  0  0  0  0
 31 32  1  1  0  0  0
 31 40  1  0  0  0  0
 33 31  1  0  0  0  0
 33 42  1  6  0  0  0
 35 33  1  0  0  0  0
 35 36  1  1  0  0  0
 37 35  1  0  0  0  0
 37 38  1  1  0  0  0
 37 39  1  0  0  0  0
 39 40  1  0  0  0  0
 39 41  1  6  0  0  0
 41 34  1  0  0  0  0
M  END
>  <CHROM.1>
-160.40247451,-72.43767035,179.43838766,-173.67452728,178.62020255,179.50011149
-62.97387586,-68.54546843,62.68164350,-0.38887587,90.27142653,10.10793242
1.34691443,1.13738353,1.43548327

>  <Name>
2fcy_lig

>  <RI>
2.32494e+07

>  <Rbt.Current_Directory>
/home/itssahil/PROJECTS/Mol_Feturizer/New_Systems/rnas/2fcy

>  <Rbt.Executable>
rbdock ($Id: //depot/dev/client3/rdock/2013.1/src/exe/rbdock.cxx#4 $)

>  <Rbt.Library>
libRbt.so (2013.1, Build901 2013/11/27)

>  <Rbt.Parameter_File>
/export/apps/rDock/src/rDock_2013.1_src/data/scripts/dock_solv.prm

>  <Rbt.Receptor>
prm/pocket_docking_8.prm

>  <SCORE>
-22.0182

>  <SCORE.INTER>
-18.0154

>  <SCORE.INTER.CONST>
1

>  <SCORE.INTER.POLAR>
-1.90019

>  <SCORE.INTER.ROT>
9

>  <SCORE.INTER.SOLV>
16.1256

>  <SCORE.INTER.VDW>
-20.6515

>  <SCORE.INTER.norm>
-0.428938

>  <SCORE.INTRA>
-4.00279

>  <SCORE.INTRA.DIHEDRAL>
-13.788

>  <SCORE.INTRA.DIHEDRAL.0>
17.3446

>  <SCORE.INTRA.POLAR>
0

>  <SCORE.INTRA.POLAR.0>
0

>  <SCORE.INTRA.REPUL>
0

>  <SCORE.INTRA.REPUL.0>
0

>  <SCORE.INTRA.SOLV>
-4.02357

>  <SCORE.INTRA.SOLV.lig_0>
-112.452

>  <SCORE.INTRA.VDW>
4.90302

>  <SCORE.INTRA.VDW.0>
-5.95059

>  <SCORE.INTRA.norm>
-0.0953045

>  <SCORE.RESTR>
0

>  <SCORE.RESTR.CAVITY>
0

>  <SCORE.RESTR.norm>
0

>  <SCORE.SYSTEM>
0

>  <SCORE.SYSTEM.CONST>
0

>  <SCORE.SYSTEM.DIHEDRAL>
0

>  <SCORE.SYSTEM.SOLV>
0

>  <SCORE.SYSTEM.norm>
0

>  <SCORE.heavy>
42

>  <SCORE.norm>
-0.524243

>  <RMSD>
4.259

$$$$
2fcy_lig
 OpenBabel11021811433D
libRbt.so/2013.1/901 2013/11/27
 42 45  0  0  0  0  0  0  0  0999 V2000
    2.7373   92.9459   17.0073 C   0  0  2  0  0  0  0  0  0  0  0  0
    1.9293   93.8752   16.2652 O   0  0  0  0  0  0  0  0  0  0  0  0
    1.8718   91.6961   17.1738 C   0  0  2  0  0  0  0  0  0  0  0  0
    1.4254   91.2519   15.8463 N   0  0  0  0  0  0  0  0  0  0  0  0
    0.6514   92.0293   18.0357 C   0  0  1  0  0  0  0  0  0  0  0  0
   -0.1723   90.8730   18.2093 O   0  0  0  0  0  0  0  0  0  0  0  0
    1.1182   92.5628   19.3905 C   0  0  2  0  0  0  0  0  0  0  0  0
   -0.0187   92.9631   20.1554 O   0  0  0  0  0  0  0  0  0  0  0  0
    1.9937   93.7954   19.1594 C   0  0  2  0  0  0  0  0  0  0  0  0
    3.0986   93.4470   18.3107 O   0  0  0  0  0  0  0  0  0  0  0  0
    2.4756   94.3329   20.5094 C   0  0  0  0  0  0  0  0  0  0  0  0
    3.2706   93.3233   21.2244 N   0  0  0  0  0  0  0  0  0  0  0  0
    2.4220   97.6480   14.4848 C   0  0  2  0  0  0  0  0  0  0  0  0
    2.8713   98.9173   13.8932 N   0  0  0  0  0  0  0  0  0  0  0  0
    2.9643   97.4887   15.9066 C   0  0  0  0  0  0  0  0  0  0  0  0
    2.3575   96.2200   16.5142 C   0  0  2  0  0  0  0  0  0  0  0  0
    2.9316   95.9986   17.8492 N   0  0  0  0  0  0  0  0  0  0  0  0
    2.6424   94.9740   15.6705 C   0  0  2  0  0  0  0  0  0  0  0  0
    2.3506   95.1326   14.1825 C   0  0  2  0  0  0  0  0  0  0  0  0
    3.0303   94.0430   13.5383 O   0  0  0  0  0  0  0  0  0  0  0  0
    2.8852   96.4625   13.6347 C   0  0  1  0  0  0  0  0  0  0  0  0
    2.4328   96.6804   12.2957 O   0  0  0  0  0  0  0  0  0  0  0  0
    2.3740   93.4941   12.3842 C   0  0  1  0  0  0  0  0  0  0  0  0
    1.2213   92.6198   12.8806 C   0  0  2  0  0  0  0  0  0  0  0  0
    1.7133   91.3201   13.2159 O   0  0  0  0  0  0  0  0  0  0  0  0
    0.4133   92.5415   11.5885 C   0  0  1  0  0  0  0  0  0  0  0  0
    0.4446   93.9991   11.1565 C   0  0  2  0  0  0  0  0  0  0  0  0
    1.7404   94.4908   11.5562 O   0  0  0  0  0  0  0  0  0  0  0  0
   -0.6925   94.7533   11.8553 C   0  0  0  0  0  0  0  0  0  0  0  0
   -1.9608   94.2037   11.4868 O   0  0  0  0  0  0  0  0  0  0  0  0
    0.2260   91.4199    9.5378 C   0  0  2  0  0  0  0  0  0  0  0  0
    1.1070   91.7283   10.6288 O   0  0  0  0  0  0  0  0  0  0  0  0
   -0.6111   90.1856    9.8883 C   0  0  1  0  0  0  0  0  0  0  0  0
    0.2057   90.6727    4.7533 N   0  0  0  0  0  0  0  0  0  0  0  0
   -1.4859   89.7775    8.6981 C   0  0  1  0  0  0  0  0  0  0  0  0
   -2.4967   90.7632    8.4639 O   0  0  0  0  0  0  0  0  0  0  0  0
   -0.6175   89.6160    7.4474 C   0  0  2  0  0  0  0  0  0  0  0  0
    0.2766   88.5167    7.6520 O   0  0  0  0  0  0  0  0  0  0  0  0
    0.1786   90.9029    7.2057 C   0  0  1  0  0  0  0  0  0  0  0  0
    1.0038   91.1909    8.3497 O   0  0  0  0  0  0  0  0  0  0  0  0
    1.0496   90.7991    5.9507 C   0  0  0  0  0  0  0  0  0  0  0  0
    0.2979   89.0722   10.2000 N   0  0  0  0  0  0  0  0  0  0  0  0
  1  2  1  1  0  0  0
  1  3  1  0  0  0  0
  1 10  1  0  0  0  0
  3  4  1  6  0  0  0
  3  5  1  0  0  0  0
  5  6  1  1  0  0  0
  5  7  1  0  0  0  0
  7  8  1  1  0  0  0
  7  9  1  0  0  0  0
  9 10  1  0  0  0  0
  9 11  1  1  0  0  0
 11 12  1  0  0  0  0
 13 14  1  6  0  0  0
 13 15  1  0  0  0  0
 13 21  1  0  0  0  0
 16 15  1  0  0  0  0
 16 17  1  1  0  0  0
 18  2  1  1  0  0  0
 18 16  1  0  0  0  0
 19 18  1  0  0  0  0
 19 20  1  6  0  0  0
 21 19  1  0  0  0  0
 21 22  1  6  0  0  0
 23 20  1  1  0  0  0
 23 24  1  0  0  0  0
 23 28  1  0  0  0  0
 24 25  1  6  0  0  0
 24 26  1  0  0  0  0
 26 27  1  0  0  0  0
 26 32  1  6  0  0  0
 27 28  1  0  0  0  0
 27 29  1  1  0  0  0
 29 30  1  0  0  0  0
 31 32  1  1  0  0  0
 31 40  1  0  0  0  0
 33 31  1  0  0  0  0
 33 42  1  6  0  0  0
 35 33  1  0  0  0  0
 35 36  1  6  0  0  0
 37 35  1  0  0  0  0
 37 38  1  1  0  0  0
 37 39  1  0  0  0  0
 39 40  1  0  0  0  0
 39 41  1  6  0  0  0
 41 34  1  0  0  0  0
M  END
>  <CHROM.1>
-163.62954045,60.40059262,-104.58580249,145.50736494,-76.55986525,167.61402265
-61.06453344,-85.35611007,64.93418842,1.21586307,93.04624459,13.41592318
0.93500731,1.21636486,1.84061568

>  <Name>
2fcy_lig

>  <RI>
2.89127e+07

>  <Rbt.Current_Directory>
/home/itssahil/PROJECTS/Mol_Feturizer/New_Systems/rnas/2fcy

>  <Rbt.Executable>
rbdock ($Id: //depot/dev/client3/rdock/2013.1/src/exe/rbdock.cxx#4 $)

>  <Rbt.Library>
libRbt.so (2013.1, Build901 2013/11/27)

>  <Rbt.Parameter_File>
/export/apps/rDock/src/rDock_2013.1_src/data/scripts/dock_solv.prm

>  <Rbt.Receptor>
prm/pocket_docking_7.prm

>  <SCORE>
-16.7096

>  <SCORE.INTER>
-20.3543

>  <SCORE.INTER.CONST>
1

>  <SCORE.INTER.POLAR>
-2.73493

>  <SCORE.INTER.ROT>
9

>  <SCORE.INTER.SOLV>
12.6472

>  <SCORE.INTER.VDW>
-18.2688

>  <SCORE.INTER.norm>
-0.484626

>  <SCORE.INTRA>
3.64468

>  <SCORE.INTRA.DIHEDRAL>
-0.491704

>  <SCORE.INTRA.DIHEDRAL.0>
17.3446

>  <SCORE.INTRA.POLAR>
0

>  <SCORE.INTRA.POLAR.0>
0

>  <SCORE.INTRA.REPUL>
0

>  <SCORE.INTRA.REPUL.0>
0

>  <SCORE.INTRA.SOLV>
2.56678

>  <SCORE.INTRA.SOLV.lig_0>
-112.452

>  <SCORE.INTRA.VDW>
2.60714

>  <SCORE.INTRA.VDW.0>
-5.95059

>  <SCORE.INTRA.norm>
0.086778

>  <SCORE.RESTR>
0

>  <SCORE.RESTR.CAVITY>
0

>  <SCORE.RESTR.norm>
0

>  <SCORE.SYSTEM>
0

>  <SCORE.SYSTEM.CONST>
0

>  <SCORE.SYSTEM.DIHEDRAL>
0

>  <SCORE.SYSTEM.SOLV>
0

>  <SCORE.SYSTEM.norm>
0

>  <SCORE.heavy>
42

>  <SCORE.norm>
-0.397848

>  <RMSD>
4.323

$$$$
2fcy_lig
 OpenBabel11021811433D
libRbt.so/2013.1/901 2013/11/27
 42 45  0  0  0  0  0  0  0  0999 V2000
    0.9555   91.7730   12.0007 C   0  0  2  0  0  0  0  0  0  0  0  0
    0.5852   93.0527   11.4602 O   0  0  0  0  0  0  0  0  0  0  0  0
    0.3327   90.7386   11.0620 C   0  0  2  0  0  0  0  0  0  0  0  0
    0.7796   91.0176    9.6904 N   0  0  0  0  0  0  0  0  0  0  0  0
   -1.1933   90.8384   11.1301 C   0  0  1  0  0  0  0  0  0  0  0  0
   -1.7993   89.8763   10.2623 O   0  0  0  0  0  0  0  0  0  0  0  0
   -1.6515   90.6222   12.5727 C   0  0  2  0  0  0  0  0  0  0  0  0
   -3.0643   90.8114   12.6508 O   0  0  0  0  0  0  0  0  0  0  0  0
   -0.9818   91.6689   13.4644 C   0  0  2  0  0  0  0  0  0  0  0  0
    0.4449   91.5684   13.3341 O   0  0  0  0  0  0  0  0  0  0  0  0
   -1.4255   91.4561   14.9140 C   0  0  0  0  0  0  0  0  0  0  0  0
   -2.8308   91.8487   15.0972 N   0  0  0  0  0  0  0  0  0  0  0  0
    2.5334   96.7696   11.6484 C   0  0  2  0  0  0  0  0  0  0  0  0
    3.4461   97.9229   11.6421 N   0  0  0  0  0  0  0  0  0  0  0  0
    3.0261   95.6916   12.6158 C   0  0  0  0  0  0  0  0  0  0  0  0
    1.9718   94.5818   12.6777 C   0  0  2  0  0  0  0  0  0  0  0  0
    2.4630   93.4928   13.5344 N   0  0  0  0  0  0  0  0  0  0  0  0
    1.6649   93.9896   11.2991 C   0  0  2  0  0  0  0  0  0  0  0  0
    1.3955   95.0210   10.2091 C   0  0  2  0  0  0  0  0  0  0  0  0
    1.5218   94.3105    8.9667 O   0  0  0  0  0  0  0  0  0  0  0  0
    2.4131   96.1689   10.2457 C   0  0  1  0  0  0  0  0  0  0  0  0
    2.0305   97.2174    9.3515 O   0  0  0  0  0  0  0  0  0  0  0  0
    0.5956   94.6888    7.9355 C   0  0  1  0  0  0  0  0  0  0  0  0
   -0.8130   94.3741    8.4417 C   0  0  2  0  0  0  0  0  0  0  0  0
   -1.1133   92.9970    8.2027 O   0  0  0  0  0  0  0  0  0  0  0  0
   -1.6095   95.2449    7.4745 C   0  0  1  0  0  0  0  0  0  0  0  0
   -0.7952   96.5280    7.5261 C   0  0  2  0  0  0  0  0  0  0  0  0
    0.5766   96.1070    7.6735 O   0  0  0  0  0  0  0  0  0  0  0  0
   -1.2644   97.3718    8.7169 C   0  0  0  0  0  0  0  0  0  0  0  0
   -0.4095   98.5043    8.8981 O   0  0  0  0  0  0  0  0  0  0  0  0
   -2.8718   94.6879    5.5785 C   0  0  2  0  0  0  0  0  0  0  0  0
   -1.5567   94.6808    6.1545 O   0  0  0  0  0  0  0  0  0  0  0  0
   -3.7942   93.7779    6.3959 C   0  0  1  0  0  0  0  0  0  0  0  0
   -5.2001   94.0313    1.3808 N   0  0  0  0  0  0  0  0  0  0  0  0
   -5.1766   93.6902    5.7404 C   0  0  1  0  0  0  0  0  0  0  0  0
   -5.8493   94.9503    5.8302 O   0  0  0  0  0  0  0  0  0  0  0  0
   -5.0292   93.2830    4.2718 C   0  0  2  0  0  0  0  0  0  0  0  0
   -4.5021   91.9531    4.2181 O   0  0  0  0  0  0  0  0  0  0  0  0
   -4.0790   94.2540    3.5628 C   0  0  1  0  0  0  0  0  0  0  0  0
   -2.7942   94.2444    4.2123 O   0  0  0  0  0  0  0  0  0  0  0  0
   -3.9144   93.9008    2.0821 C   0  0  0  0  0  0  0  0  0  0  0  0
   -3.2119   92.4279    6.4342 N   0  0  0  0  0  0  0  0  0  0  0  0
  1  2  1  6  0  0  0
  1  3  1  0  0  0  0
  1 10  1  0  0  0  0
  3  4  1  6  0  0  0
  3  5  1  0  0  0  0
  5  6  1  6  0  0  0
  5  7  1  0  0  0  0
  7  8  1  6  0  0  0
  7  9  1  0  0  0  0
  9 10  1  0  0  0  0
  9 11  1  1  0  0  0
 11 12  1  0  0  0  0
 13 14  1  6  0  0  0
 13 15  1  0  0  0  0
 13 21  1  0  0  0  0
 16 15  1  0  0  0  0
 16 17  1  1  0  0  0
 18  2  1  1  0  0  0
 18 16  1  0  0  0  0
 19 18  1  0  0  0  0
 19 20  1  6  0  0  0
 21 19  1  0  0  0  0
 21 22  1  6  0  0  0
 23 20  1  1  0  0  0
 23 24  1  0  0  0  0
 23 28  1  0  0  0  0
 24 25  1  6  0  0  0
 24 26  1  0  0  0  0
 26 27  1  0  0  0  0
 26 32  1  6  0  0  0
 27 28  1  0  0  0  0
 27 29  1  1  0  0  0
 29 30  1  0  0  0  0
 31 32  1  1  0  0  0
 31 40  1  0  0  0  0
 33 31  1  0  0  0  0
 33 42  1  6  0  0  0
 35 33  1  0  0  0  0
 35 36  1  6  0  0  0
 37 35  1  0  0  0  0
 37 38  1  1  0  0  0
 37 39  1  0  0  0  0
 39 40  1  0  0  0  0
 39 41  1  6  0  0  0
 41 34  1  0  0  0  0
M  END
>  <CHROM.1>
-130.29861405,-71.39432194,-78.27951141,142.52165310,-62.52386426,134.55384451
172.66489878,-63.92646120,63.22926244,-0.97207785,93.86184805,9.03722401
0.79457167,0.75834279,2.24227243

>  <Name>
2fcy_lig

>  <RI>
0

>  <Rbt.Current_Directory>
/home/itssahil/PROJECTS/Mol_Feturizer/New_Systems/rnas/2fcy

>  <Rbt.Executable>
rbdock ($Id: //depot/dev/client3/rdock/2013.1/src/exe/rbdock.cxx#4 $)

>  <Rbt.Library>
libRbt.so (2013.1, Build901 2013/11/27)

>  <Rbt.Parameter_File>
/export/apps/rDock/src/rDock_2013.1_src/data/scripts/dock_solv.prm

>  <Rbt.Receptor>
prm/pocket_docking_5.prm

>  <SCORE>
-17.5306

>  <SCORE.INTER>
-22.5942

>  <SCORE.INTER.CONST>
1

>  <SCORE.INTER.POLAR>
-3.19444

>  <SCORE.INTER.ROT>
9

>  <SCORE.INTER.SOLV>
12.9413

>  <SCORE.INTER.VDW>
-18.3284

>  <SCORE.INTER.norm>
-0.537956

>  <SCORE.INTRA>
5.05855

>  <SCORE.INTRA.DIHEDRAL>
2.82804

>  <SCORE.INTRA.DIHEDRAL.0>
17.3446

>  <SCORE.INTRA.POLAR>
0

>  <SCORE.INTRA.POLAR.0>
0

>  <SCORE.INTRA.REPUL>
0

>  <SCORE.INTRA.REPUL.0>
0

>  <SCORE.INTRA.SOLV>
2.88422

>  <SCORE.INTRA.SOLV.lig_0>
-112.452

>  <SCORE.INTRA.VDW>
2.20242

>  <SCORE.INTRA.VDW.0>
-5.95059

>  <SCORE.INTRA.norm>
0.120442

>  <SCORE.RESTR>
0.00503551

>  <SCORE.RESTR.CAVITY>
0.00503551

>  <SCORE.RESTR.norm>
0.000119893

>  <SCORE.SYSTEM>
0

>  <SCORE.SYSTEM.CONST>
0

>  <SCORE.SYSTEM.DIHEDRAL>
0

>  <SCORE.SYSTEM.SOLV>
0

>  <SCORE.SYSTEM.norm>
0

>  <SCORE.heavy>
42

>  <SCORE.norm>
-0.417395

>  <RMSD>
4.405

$$$$
2fcy_lig
 OpenBabel11021811433D
libRbt.so/2013.1/901 2013/11/27
 42 45  0  0  0  0  0  0  0  0999 V2000
    1.0272   95.8338   12.9821 C   0  0  2  0  0  0  0  0  0  0  0  0
    0.7310   95.0399   11.8206 O   0  0  0  0  0  0  0  0  0  0  0  0
    2.2245   96.7003   12.5887 C   0  0  2  0  0  0  0  0  0  0  0  0
    1.8883   97.4409   11.3651 N   0  0  0  0  0  0  0  0  0  0  0  0
    3.4389   95.8066   12.3250 C   0  0  1  0  0  0  0  0  0  0  0  0
    4.5741   96.5960   11.9590 O   0  0  0  0  0  0  0  0  0  0  0  0
    3.7416   94.9808   13.5757 C   0  0  2  0  0  0  0  0  0  0  0  0
    4.8125   94.0793   13.2963 O   0  0  0  0  0  0  0  0  0  0  0  0
    2.5049   94.1541   13.9313 C   0  0  2  0  0  0  0  0  0  0  0  0
    1.3824   95.0287   14.1249 O   0  0  0  0  0  0  0  0  0  0  0  0
    2.7928   93.3298   15.1889 C   0  0  0  0  0  0  0  0  0  0  0  0
    1.6780   92.4183   15.4873 N   0  0  0  0  0  0  0  0  0  0  0  0
   -1.2878   92.0260   13.9388 C   0  0  2  0  0  0  0  0  0  0  0  0
   -2.1613   90.9597   14.4516 N   0  0  0  0  0  0  0  0  0  0  0  0
   -2.1018   93.2715   13.5827 C   0  0  0  0  0  0  0  0  0  0  0  0
   -1.1284   94.3851   13.1832 C   0  0  2  0  0  0  0  0  0  0  0  0
   -1.8915   95.5654   12.7526 N   0  0  0  0  0  0  0  0  0  0  0  0
   -0.2123   93.9736   12.0270 C   0  0  2  0  0  0  0  0  0  0  0  0
    0.4586   92.6154   12.1991 C   0  0  2  0  0  0  0  0  0  0  0  0
    0.9329   92.2516   10.8926 O   0  0  0  0  0  0  0  0  0  0  0  0
   -0.5275   91.5509   12.6982 C   0  0  1  0  0  0  0  0  0  0  0  0
    0.1570   90.3428   13.0399 O   0  0  0  0  0  0  0  0  0  0  0  0
    0.0215   92.4946    9.8088 C   0  0  1  0  0  0  0  0  0  0  0  0
    0.7045   92.0354    8.5194 C   0  0  2  0  0  0  0  0  0  0  0  0
    1.5577   93.0734    8.0313 O   0  0  0  0  0  0  0  0  0  0  0  0
   -0.5285   91.9271    7.6270 C   0  0  1  0  0  0  0  0  0  0  0  0
   -1.4820   91.2013    8.5632 C   0  0  2  0  0  0  0  0  0  0  0  0
   -1.1814   91.7022    9.8821 O   0  0  0  0  0  0  0  0  0  0  0  0
   -1.2369   89.6918    8.4563 C   0  0  0  0  0  0  0  0  0  0  0  0
   -2.1391   88.9751    9.3041 O   0  0  0  0  0  0  0  0  0  0  0  0
   -2.0743   93.1409    6.3481 C   0  0  2  0  0  0  0  0  0  0  0  0
   -1.0325   93.2393    7.3311 O   0  0  0  0  0  0  0  0  0  0  0  0
   -2.3638   94.5287    5.7674 C   0  0  1  0  0  0  0  0  0  0  0  0
   -6.5359   91.3797    5.6963 N   0  0  0  0  0  0  0  0  0  0  0  0
   -3.5422   94.4641    4.7898 C   0  0  1  0  0  0  0  0  0  0  0  0
   -3.1768   93.7248    3.6202 O   0  0  0  0  0  0  0  0  0  0  0  0
   -4.7439   93.8018    5.4693 C   0  0  2  0  0  0  0  0  0  0  0  0
   -5.1864   94.6464    6.5372 O   0  0  0  0  0  0  0  0  0  0  0  0
   -4.3321   92.4319    6.0188 C   0  0  1  0  0  0  0  0  0  0  0  0
   -3.2522   92.5852    6.9586 O   0  0  0  0  0  0  0  0  0  0  0  0
   -5.5078   91.7182    6.6915 C   0  0  0  0  0  0  0  0  0  0  0  0
   -2.7229   95.4352    6.8685 N   0  0  0  0  0  0  0  0  0  0  0  0
  1  2  1  6  0  0  0
  1  3  1  0  0  0  0
  1 10  1  0  0  0  0
  3  4  1  6  0  0  0
  3  5  1  0  0  0  0
  5  6  1  1  0  0  0
  5  7  1  0  0  0  0
  7  8  1  6  0  0  0
  7  9  1  0  0  0  0
  9 10  1  0  0  0  0
  9 11  1  1  0  0  0
 11 12  1  0  0  0  0
 13 14  1  6  0  0  0
 13 15  1  0  0  0  0
 13 21  1  0  0  0  0
 16 15  1  0  0  0  0
 16 17  1  6  0  0  0
 18  2  1  1  0  0  0
 18 16  1  0  0  0  0
 19 18  1  0  0  0  0
 19 20  1  6  0  0  0
 21 19  1  0  0  0  0
 21 22  1  1  0  0  0
 23 20  1  1  0  0  0
 23 24  1  0  0  0  0
 23 28  1  0  0  0  0
 24 25  1  6  0  0  0
 24 26  1  0  0  0  0
 26 27  1  0  0  0  0
 26 32  1  1  0  0  0
 27 28  1  0  0  0  0
 27 29  1  1  0  0  0
 29 30  1  0  0  0  0
 31 32  1  1  0  0  0
 31 40  1  0  0  0  0
 33 31  1  0  0  0  0
 33 42  1  1  0  0  0
 35 33  1  0  0  0  0
 35 36  1  6  0  0  0
 37 35  1  0  0  0  0
 37 38  1  1  0  0  0
 37 39  1  0  0  0  0
 39 40  1  0  0  0  0
 39 41  1  1  0  0  0
 41 34  1  0  0  0  0
M  END
>  <CHROM.1>
169.40720745,-174.25660186,27.50413684,-43.34484286,-179.62118545,172.12836424
-178.73408846,-165.55459839,66.16609630,-0.59783689,93.33134520,10.21364505
-0.56138863,-0.76925545,-0.93454564

>  <Name>
2fcy_lig

>  <RI>
4.13508e+07

>  <Rbt.Current_Directory>
/home/itssahil/PROJECTS/Mol_Feturizer/New_Systems/rnas/2fcy

>  <Rbt.Executable>
rbdock ($Id: //depot/dev/client3/rdock/2013.1/src/exe/rbdock.cxx#4 $)

>  <Rbt.Library>
libRbt.so (2013.1, Build901 2013/11/27)

>  <Rbt.Parameter_File>
/export/apps/rDock/src/rDock_2013.1_src/data/scripts/dock_solv.prm

>  <Rbt.Receptor>
prm/pocket_docking_3.prm

>  <SCORE>
1.69283

>  <SCORE.INTER>
-0.771021

>  <SCORE.INTER.CONST>
1

>  <SCORE.INTER.POLAR>
-0.905792

>  <SCORE.INTER.ROT>
9

>  <SCORE.INTER.SOLV>
12.4858

>  <SCORE.INTER.VDW>
-11.2566

>  <SCORE.INTER.norm>
-0.0183577

>  <SCORE.INTRA>
1.83042

>  <SCORE.INTRA.DIHEDRAL>
-9.47905

>  <SCORE.INTRA.DIHEDRAL.0>
17.3446

>  <SCORE.INTRA.POLAR>
0

>  <SCORE.INTRA.POLAR.0>
0

>  <SCORE.INTRA.REPUL>
0

>  <SCORE.INTRA.REPUL.0>
0

>  <SCORE.INTRA.SOLV>
-0.8887

>  <SCORE.INTRA.SOLV.lig_0>
-112.452

>  <SCORE.INTRA.VDW>
7.0143

>  <SCORE.INTRA.VDW.0>
-5.95059

>  <SCORE.INTRA.norm>
0.0435815

>  <SCORE.RESTR>
0.633427

>  <SCORE.RESTR.CAVITY>
0.633427

>  <SCORE.RESTR.norm>
0.0150816

>  <SCORE.SYSTEM>
0

>  <SCORE.SYSTEM.CONST>
0

>  <SCORE.SYSTEM.DIHEDRAL>
0

>  <SCORE.SYSTEM.SOLV>
0

>  <SCORE.SYSTEM.norm>
0

>  <SCORE.heavy>
42

>  <SCORE.norm>
0.0403054

>  <RMSD>
4.426

$$$$
2fcy_lig
 OpenBabel11021811433D
libRbt.so/2013.1/901 2013/11/27
 42 45  0  0  0  0  0  0  0  0999 V2000
    0.7729   91.6496   11.7914 C   0  0  2  0  0  0  0  0  0  0  0  0
    0.4228   92.9104   11.1955 O   0  0  0  0  0  0  0  0  0  0  0  0
    0.2624   90.5842   10.8202 C   0  0  2  0  0  0  0  0  0  0  0  0
    0.8250   90.8515    9.4894 N   0  0  0  0  0  0  0  0  0  0  0  0
   -1.2655   90.6465   10.7484 C   0  0  1  0  0  0  0  0  0  0  0  0
   -1.7673   89.6550    9.8480 O   0  0  0  0  0  0  0  0  0  0  0  0
   -1.8473   90.4430   12.1477 C   0  0  2  0  0  0  0  0  0  0  0  0
   -3.2653   90.5976   12.0945 O   0  0  0  0  0  0  0  0  0  0  0  0
   -1.2860   91.5211   13.0761 C   0  0  2  0  0  0  0  0  0  0  0  0
    0.1485   91.4545   13.0770 O   0  0  0  0  0  0  0  0  0  0  0  0
   -1.8542   91.3214   14.4836 C   0  0  0  0  0  0  0  0  0  0  0  0
   -1.3705   92.3655   15.3994 N   0  0  0  0  0  0  0  0  0  0  0  0
    2.3214   96.6279   11.6662 C   0  0  2  0  0  0  0  0  0  0  0  0
    3.2190   97.7899   11.7500 N   0  0  0  0  0  0  0  0  0  0  0  0
    2.8216   95.4890   12.5569 C   0  0  0  0  0  0  0  0  0  0  0  0
    1.7814   94.3646   12.5307 C   0  0  2  0  0  0  0  0  0  0  0  0
    2.2810   93.2228   13.3102 N   0  0  0  0  0  0  0  0  0  0  0  0
    1.4914   93.8698   11.1106 C   0  0  2  0  0  0  0  0  0  0  0  0
    1.2159   94.9738   10.0959 C   0  0  2  0  0  0  0  0  0  0  0  0
    1.3595   94.3566    8.8065 O   0  0  0  0  0  0  0  0  0  0  0  0
    2.2182   96.1287   10.2229 C   0  0  1  0  0  0  0  0  0  0  0  0
    1.8280   97.2342    9.4039 O   0  0  0  0  0  0  0  0  0  0  0  0
    0.1657   93.7762    8.2568 C   0  0  1  0  0  0  0  0  0  0  0  0
   -0.8791   94.8877    8.1453 C   0  0  2  0  0  0  0  0  0  0  0  0
   -1.5410   95.0532    9.4016 O   0  0  0  0  0  0  0  0  0  0  0  0
   -1.8271   94.2196    7.1536 C   0  0  1  0  0  0  0  0  0  0  0  0
   -0.8295   93.6837    6.1388 C   0  0  2  0  0  0  0  0  0  0  0  0
    0.3297   93.2981    6.9059 O   0  0  0  0  0  0  0  0  0  0  0  0
   -0.5027   94.7875    5.1264 C   0  0  0  0  0  0  0  0  0  0  0  0
    0.3127   94.2740    4.0691 O   0  0  0  0  0  0  0  0  0  0  0  0
   -3.6355   92.7359    6.9901 C   0  0  2  0  0  0  0  0  0  0  0  0
   -2.5125   93.1310    7.7928 O   0  0  0  0  0  0  0  0  0  0  0  0
   -4.5076   91.7528    7.7774 C   0  0  1  0  0  0  0  0  0  0  0  0
   -4.7589   91.0419    2.5992 N   0  0  0  0  0  0  0  0  0  0  0  0
   -5.6569   91.2392    6.9034 C   0  0  1  0  0  0  0  0  0  0  0  0
   -6.5804   92.2968    6.6261 O   0  0  0  0  0  0  0  0  0  0  0  0
   -5.1003   90.6778    5.5922 C   0  0  2  0  0  0  0  0  0  0  0  0
   -4.3088   89.5228    5.8904 O   0  0  0  0  0  0  0  0  0  0  0  0
   -4.2389   91.7415    4.9031 C   0  0  1  0  0  0  0  0  0  0  0  0
   -3.1608   92.1371    5.7714 O   0  0  0  0  0  0  0  0  0  0  0  0
   -3.6744   91.2344    3.5732 C   0  0  0  0  0  0  0  0  0  0  0  0
   -3.6802   90.6048    8.1784 N   0  0  0  0  0  0  0  0  0  0  0  0
  1  2  1  6  0  0  0
  1  3  1  0  0  0  0
  1 10  1  0  0  0  0
  3  4  1  6  0  0  0
  3  5  1  0  0  0  0
  5  6  1  6  0  0  0
  5  7  1  0  0  0  0
  7  8  1  6  0  0  0
  7  9  1  0  0  0  0
  9 10  1  0  0  0  0
  9 11  1  1  0  0  0
 11 12  1  0  0  0  0
 13 14  1  6  0  0  0
 13 15  1  0  0  0  0
 13 21  1  0  0  0  0
 16 15  1  0  0  0  0
 16 17  1  1  0  0  0
 18  2  1  1  0  0  0
 18 16  1  0  0  0  0
 19 18  1  0  0  0  0
 19 20  1  6  0  0  0
 21 19  1  0  0  0  0
 21 22  1  6  0  0  0
 23 20  1  6  0  0  0
 23 24  1  0  0  0  0
 23 28  1  0  0  0  0
 24 25  1  1  0  0  0
 24 26  1  0  0  0  0
 26 27  1  0  0  0  0
 26 32  1  1  0  0  0
 27 28  1  0  0  0  0
 27 29  1  6  0  0  0
 29 30  1  0  0  0  0
 31 32  1  1  0  0  0
 31 40  1  0  0  0  0
 33 31  1  0  0  0  0
 33 42  1  6  0  0  0
 35 33  1  0  0  0  0
 35 36  1  6  0  0  0
 37 35  1  0  0  0  0
 37 38  1  1  0  0  0
 37 39  1  0  0  0  0
 39 40  1  0  0  0  0
 39 41  1  6  0  0  0
 41 34  1  0  0  0  0
M  END
>  <CHROM.1>
-130.09787480,-178.23295238,-71.29699612,89.73231398,58.71341687,164.98467156
-173.34555946,-170.05229826,67.39765647,-1.11662218,92.85466131,9.09859106
0.62447333,0.74032017,1.95654132

>  <Name>
2fcy_lig

>  <RI>
224

>  <Rbt.Current_Directory>
/home/itssahil/PROJECTS/Mol_Feturizer/New_Systems/rnas/2fcy

>  <Rbt.Executable>
rbdock ($Id: //depot/dev/client3/rdock/2013.1/src/exe/rbdock.cxx#4 $)

>  <Rbt.Library>
libRbt.so (2013.1, Build901 2013/11/27)

>  <Rbt.Parameter_File>
/export/apps/rDock/src/rDock_2013.1_src/data/scripts/dock_solv.prm

>  <Rbt.Receptor>
prm/pocket_docking_6.prm

>  <SCORE>
-15.5583

>  <SCORE.INTER>
-16.0536

>  <SCORE.INTER.CONST>
1

>  <SCORE.INTER.POLAR>
-2.57976

>  <SCORE.INTER.ROT>
9

>  <SCORE.INTER.SOLV>
12.1931

>  <SCORE.INTER.VDW>
-15.7675

>  <SCORE.INTER.norm>
-0.382228

>  <SCORE.INTRA>
0.495257

>  <SCORE.INTRA.DIHEDRAL>
-4.05689

>  <SCORE.INTRA.DIHEDRAL.0>
17.3446

>  <SCORE.INTRA.POLAR>
0

>  <SCORE.INTRA.POLAR.0>
0

>  <SCORE.INTRA.REPUL>
0

>  <SCORE.INTRA.REPUL.0>
0

>  <SCORE.INTRA.SOLV>
0.508842

>  <SCORE.INTRA.SOLV.lig_0>
-112.452

>  <SCORE.INTRA.VDW>
2.26928

>  <SCORE.INTRA.VDW.0>
-5.95059

>  <SCORE.INTRA.norm>
0.0117918

>  <SCORE.RESTR>
0

>  <SCORE.RESTR.CAVITY>
0

>  <SCORE.RESTR.norm>
0

>  <SCORE.SYSTEM>
0

>  <SCORE.SYSTEM.CONST>
0

>  <SCORE.SYSTEM.DIHEDRAL>
0

>  <SCORE.SYSTEM.SOLV>
0

>  <SCORE.SYSTEM.norm>
0

>  <SCORE.heavy>
42

>  <SCORE.norm>
-0.370436

>  <RMSD>
4.426

$$$$
2fcy_lig
 OpenBabel11021811433D
libRbt.so/2013.1/901 2013/11/27
 42 45  0  0  0  0  0  0  0  0999 V2000
   -0.4916   90.9701   13.8588 C   0  0  2  0  0  0  0  0  0  0  0  0
   -0.0119   92.3238   13.9273 O   0  0  0  0  0  0  0  0  0  0  0  0
   -1.7133   90.9240   14.7777 C   0  0  2  0  0  0  0  0  0  0  0  0
   -2.6575   91.9689   14.3589 N   0  0  0  0  0  0  0  0  0  0  0  0
   -1.2777   91.1812   16.2224 C   0  0  1  0  0  0  0  0  0  0  0  0
   -2.4044   91.1387   17.1024 O   0  0  0  0  0  0  0  0  0  0  0  0
   -0.2384   90.1372   16.6319 C   0  0  2  0  0  0  0  0  0  0  0  0
    0.2372   90.4364   17.9442 O   0  0  0  0  0  0  0  0  0  0  0  0
    0.9460   90.2165   15.6675 C   0  0  2  0  0  0  0  0  0  0  0  0
    0.4843   90.0147   14.3227 O   0  0  0  0  0  0  0  0  0  0  0  0
    1.9896   89.1681   16.0618 C   0  0  0  0  0  0  0  0  0  0  0  0
    2.6932   89.5624   17.2914 N   0  0  0  0  0  0  0  0  0  0  0  0
    1.1522   94.6287   10.6138 C   0  0  2  0  0  0  0  0  0  0  0  0
    1.8035   95.2926    9.4745 N   0  0  0  0  0  0  0  0  0  0  0  0
    1.9793   94.8015   11.8893 C   0  0  0  0  0  0  0  0  0  0  0  0
    1.1893   94.2073   13.0598 C   0  0  2  0  0  0  0  0  0  0  0  0
    2.0022   94.2833   14.2823 N   0  0  0  0  0  0  0  0  0  0  0  0
    0.8242   92.7375   12.8321 C   0  0  2  0  0  0  0  0  0  0  0  0
    0.2064   92.4388   11.4706 C   0  0  2  0  0  0  0  0  0  0  0  0
    0.3037   91.0147   11.3075 O   0  0  0  0  0  0  0  0  0  0  0  0
    0.9664   93.1353   10.3340 C   0  0  1  0  0  0  0  0  0  0  0  0
    0.2620   93.0060    9.0962 O   0  0  0  0  0  0  0  0  0  0  0  0
   -0.2720   90.4846   10.1026 C   0  0  1  0  0  0  0  0  0  0  0  0
   -0.2759   88.9599   10.2247 C   0  0  2  0  0  0  0  0  0  0  0  0
    1.0002   88.4434    9.8391 O   0  0  0  0  0  0  0  0  0  0  0  0
   -1.3032   88.6409    9.1424 C   0  0  1  0  0  0  0  0  0  0  0  0
   -2.3742   89.6698    9.4687 C   0  0  2  0  0  0  0  0  0  0  0  0
   -1.6598   90.8362    9.9269 O   0  0  0  0  0  0  0  0  0  0  0  0
   -3.2987   89.1042   10.5530 C   0  0  0  0  0  0  0  0  0  0  0  0
   -4.3620   90.0190   10.8338 O   0  0  0  0  0  0  0  0  0  0  0  0
    0.0468   87.7833    7.4276 C   0  0  2  0  0  0  0  0  0  0  0  0
   -0.7437   88.9063    7.8463 O   0  0  0  0  0  0  0  0  0  0  0  0
    0.9351   88.1930    6.2486 C   0  0  1  0  0  0  0  0  0  0  0  0
   -1.8469   84.0875    7.6172 N   0  0  0  0  0  0  0  0  0  0  0  0
    1.7131   86.9833    5.7197 C   0  0  1  0  0  0  0  0  0  0  0  0
    2.6804   86.5551    6.6837 O   0  0  0  0  0  0  0  0  0  0  0  0
    0.7444   85.8383    5.4112 C   0  0  2  0  0  0  0  0  0  0  0  0
   -0.1068   86.2396    4.3323 O   0  0  0  0  0  0  0  0  0  0  0  0
   -0.0948   85.5269    6.6549 C   0  0  1  0  0  0  0  0  0  0  0  0
   -0.8249   86.6998    7.0599 O   0  0  0  0  0  0  0  0  0  0  0  0
   -1.0675   84.3715    6.4033 C   0  0  0  0  0  0  0  0  0  0  0  0
    0.0784   88.7032    5.1674 N   0  0  0  0  0  0  0  0  0  0  0  0
  1  2  1  1  0  0  0
  1  3  1  0  0  0  0
  1 10  1  0  0  0  0
  3  4  1  6  0  0  0
  3  5  1  0  0  0  0
  5  6  1  1  0  0  0
  5  7  1  0  0  0  0
  7  8  1  1  0  0  0
  7  9  1  0  0  0  0
  9 10  1  0  0  0  0
  9 11  1  1  0  0  0
 11 12  1  0  0  0  0
 13 14  1  6  0  0  0
 13 15  1  0  0  0  0
 13 21  1  0  0  0  0
 16 15  1  0  0  0  0
 16 17  1  1  0  0  0
 18  2  1  1  0  0  0
 18 16  1  0  0  0  0
 19 18  1  0  0  0  0
 19 20  1  6  0  0  0
 21 19  1  0  0  0  0
 21 22  1  6  0  0  0
 23 20  1  1  0  0  0
 23 24  1  0  0  0  0
 23 28  1  0  0  0  0
 24 25  1  6  0  0  0
 24 26  1  0  0  0  0
 26 27  1  0  0  0  0
 26 32  1  6  0  0  0
 27 28  1  0  0  0  0
 27 29  1  1  0  0  0
 29 30  1  0  0  0  0
 31 32  1  6  0  0  0
 31 40  1  0  0  0  0
 33 31  1  0  0  0  0
 33 42  1  6  0  0  0
 35 33  1  0  0  0  0
 35 36  1  1  0  0  0
 37 35  1  0  0  0  0
 37 38  1  6  0  0  0
 37 39  1  0  0  0  0
 39 40  1  0  0  0  0
 39 41  1  6  0  0  0
 41 34  1  0  0  0  0
M  END
>  <CHROM.1>
-159.57785791,-72.78401964,178.06815437,177.54717033,-170.77936074,82.66600188
-176.91113549,-164.98444271,179.39345620,-0.08392574,89.97227242,10.92984251
1.48761932,1.25423730,1.12570638

>  <Name>
2fcy_lig

>  <RI>
2.32494e+07

>  <Rbt.Current_Directory>
/home/itssahil/PROJECTS/Mol_Feturizer/New_Systems/rnas/2fcy

>  <Rbt.Executable>
rbdock ($Id: //depot/dev/client3/rdock/2013.1/src/exe/rbdock.cxx#4 $)

>  <Rbt.Library>
libRbt.so (2013.1, Build901 2013/11/27)

>  <Rbt.Parameter_File>
/export/apps/rDock/src/rDock_2013.1_src/data/scripts/dock_solv.prm

>  <Rbt.Receptor>
prm/pocket_docking_8.prm

>  <SCORE>
-26.866

>  <SCORE.INTER>
-23.2414

>  <SCORE.INTER.CONST>
1

>  <SCORE.INTER.POLAR>
-2.663

>  <SCORE.INTER.ROT>
9

>  <SCORE.INTER.SOLV>
17.2835

>  <SCORE.INTER.VDW>
-21.9788

>  <SCORE.INTER.norm>
-0.553366

>  <SCORE.INTRA>
-3.63908

>  <SCORE.INTRA.DIHEDRAL>
-10.6739

>  <SCORE.INTRA.DIHEDRAL.0>
17.3446

>  <SCORE.INTRA.POLAR>
0

>  <SCORE.INTRA.POLAR.0>
0

>  <SCORE.INTRA.REPUL>
0

>  <SCORE.INTRA.REPUL.0>
0

>  <SCORE.INTRA.SOLV>
-4.79756

>  <SCORE.INTRA.SOLV.lig_0>
-112.452

>  <SCORE.INTRA.VDW>
4.09666

>  <SCORE.INTRA.VDW.0>
-5.95059

>  <SCORE.INTRA.norm>
-0.0866448

>  <SCORE.RESTR>
0.0144691

>  <SCORE.RESTR.CAVITY>
0.0144691

>  <SCORE.RESTR.norm>
0.000344504

>  <SCORE.SYSTEM>
0

>  <SCORE.SYSTEM.CONST>
0

>  <SCORE.SYSTEM.DIHEDRAL>
0

>  <SCORE.SYSTEM.SOLV>
0

>  <SCORE.SYSTEM.norm>
0

>  <SCORE.heavy>
42

>  <SCORE.norm>
-0.639667

>  <RMSD>
4.441

$$$$
2fcy_lig
 OpenBabel11021811433D
libRbt.so/2013.1/901 2013/11/27
 42 45  0  0  0  0  0  0  0  0999 V2000
    0.3098   93.1954   12.6710 C   0  0  2  0  0  0  0  0  0  0  0  0
    1.3648   92.8720   11.7493 O   0  0  0  0  0  0  0  0  0  0  0  0
   -0.3472   91.8599   13.0229 C   0  0  2  0  0  0  0  0  0  0  0  0
    0.6876   90.9415   13.5174 N   0  0  0  0  0  0  0  0  0  0  0  0
   -1.0000   91.2650   11.7726 C   0  0  1  0  0  0  0  0  0  0  0  0
   -1.6257   90.0157   12.0782 O   0  0  0  0  0  0  0  0  0  0  0  0
   -2.0237   92.2548   11.2157 C   0  0  2  0  0  0  0  0  0  0  0  0
   -2.5606   91.7404    9.9972 O   0  0  0  0  0  0  0  0  0  0  0  0
   -1.3146   93.5735   10.9034 C   0  0  2  0  0  0  0  0  0  0  0  0
   -0.6799   94.0704   12.0920 O   0  0  0  0  0  0  0  0  0  0  0  0
   -2.3323   94.5765   10.3540 C   0  0  0  0  0  0  0  0  0  0  0  0
   -3.2636   95.0110   11.4059 N   0  0  0  0  0  0  0  0  0  0  0  0
    2.6773   96.8586   11.5734 C   0  0  2  0  0  0  0  0  0  0  0  0
    3.3726   98.1430   11.4012 N   0  0  0  0  0  0  0  0  0  0  0  0
    3.4997   95.9076   12.4452 C   0  0  0  0  0  0  0  0  0  0  0  0
    2.6691   94.6451   12.6969 C   0  0  2  0  0  0  0  0  0  0  0  0
    3.4729   93.6794   13.4599 N   0  0  0  0  0  0  0  0  0  0  0  0
    2.2315   93.9647   11.3965 C   0  0  2  0  0  0  0  0  0  0  0  0
    1.6125   94.9014   10.3651 C   0  0  2  0  0  0  0  0  0  0  0  0
    1.6384   94.1788    9.1237 O   0  0  0  0  0  0  0  0  0  0  0  0
    2.4181   96.1990   10.2167 C   0  0  1  0  0  0  0  0  0  0  0  0
    1.7200   97.1410    9.3980 O   0  0  0  0  0  0  0  0  0  0  0  0
    0.3918   94.1172    8.4121 C   0  0  1  0  0  0  0  0  0  0  0  0
    0.5655   94.8970    7.1078 C   0  0  2  0  0  0  0  0  0  0  0  0
    0.3561   96.2905    7.3491 O   0  0  0  0  0  0  0  0  0  0  0  0
   -0.6217   94.3292    6.3355 C   0  0  1  0  0  0  0  0  0  0  0  0
   -0.4640   92.8478    6.6399 C   0  0  2  0  0  0  0  0  0  0  0  0
    0.0366   92.7842    7.9912 O   0  0  0  0  0  0  0  0  0  0  0  0
    0.5190   92.2322    5.6374 C   0  0  0  0  0  0  0  0  0  0  0  0
    0.7122   90.8417    5.9125 O   0  0  0  0  0  0  0  0  0  0  0  0
   -2.9222   94.6000    5.9708 C   0  0  2  0  0  0  0  0  0  0  0  0
   -1.8488   94.8199    6.8986 O   0  0  0  0  0  0  0  0  0  0  0  0
   -4.1790   95.3272    6.4595 C   0  0  1  0  0  0  0  0  0  0  0  0
   -5.2844   91.0688    3.6466 N   0  0  0  0  0  0  0  0  0  0  0  0
   -5.3650   95.0230    5.5380 C   0  0  1  0  0  0  0  0  0  0  0  0
   -5.1603   95.6181    4.2526 O   0  0  0  0  0  0  0  0  0  0  0  0
   -5.5309   93.5081    5.3891 C   0  0  2  0  0  0  0  0  0  0  0  0
   -5.8932   92.9620    6.6619 O   0  0  0  0  0  0  0  0  0  0  0  0
   -4.2124   92.8922    4.9090 C   0  0  1  0  0  0  0  0  0  0  0  0
   -3.1626   93.1870    5.8492 O   0  0  0  0  0  0  0  0  0  0  0  0
   -4.3328   91.3770    4.7242 C   0  0  0  0  0  0  0  0  0  0  0  0
   -4.5059   94.8478    7.8109 N   0  0  0  0  0  0  0  0  0  0  0  0
  1  2  1  6  0  0  0
  1  3  1  0  0  0  0
  1 10  1  0  0  0  0
  3  4  1  6  0  0  0
  3  5  1  0  0  0  0
  5  6  1  1  0  0  0
  5  7  1  0  0  0  0
  7  8  1  6  0  0  0
  7  9  1  0  0  0  0
  9 10  1  0  0  0  0
  9 11  1  1  0  0  0
 11 12  1  0  0  0  0
 13 14  1  6  0  0  0
 13 15  1  0  0  0  0
 13 21  1  0  0  0  0
 16 15  1  0  0  0  0
 16 17  1  1  0  0  0
 18  2  1  1  0  0  0
 18 16  1  0  0  0  0
 19 18  1  0  0  0  0
 19 20  1  6  0  0  0
 21 19  1  0  0  0  0
 21 22  1  6  0  0  0
 23 20  1  6  0  0  0
 23 24  1  0  0  0  0
 23 28  1  0  0  0  0
 24 25  1  1  0  0  0
 24 26  1  0  0  0  0
 26 27  1  0  0  0  0
 26 32  1  1  0  0  0
 27 28  1  0  0  0  0
 27 29  1  6  0  0  0
 29 30  1  0  0  0  0
 31 32  1  1  0  0  0
 31 40  1  0  0  0  0
 33 31  1  0  0  0  0
 33 42  1  1  0  0  0
 35 33  1  0  0  0  0
 35 36  1  6  0  0  0
 37 35  1  0  0  0  0
 37 38  1  1  0  0  0
 37 39  1  0  0  0  0
 39 40  1  0  0  0  0
 39 41  1  1  0  0  0
 41 34  1  0  0  0  0
M  END
>  <CHROM.1>
-172.96500844,69.89377096,49.13359806,128.86467525,114.15520634,164.03525986
178.81263430,-170.53385908,64.86028568,-0.92819991,93.80630352,8.93290239
0.53830495,0.66542834,2.21693831

>  <Name>
2fcy_lig

>  <RI>
1.56845e+07

>  <Rbt.Current_Directory>
/home/itssahil/PROJECTS/Mol_Feturizer/New_Systems/rnas/2fcy

>  <Rbt.Executable>
rbdock ($Id: //depot/dev/client3/rdock/2013.1/src/exe/rbdock.cxx#4 $)

>  <Rbt.Library>
libRbt.so (2013.1, Build901 2013/11/27)

>  <Rbt.Parameter_File>
/export/apps/rDock/src/rDock_2013.1_src/data/scripts/dock_solv.prm

>  <Rbt.Receptor>
prm/pocket_docking_4.prm

>  <SCORE>
-11.0598

>  <SCORE.INTER>
-11.2718

>  <SCORE.INTER.CONST>
1

>  <SCORE.INTER.POLAR>
-2.07707

>  <SCORE.INTER.ROT>
9

>  <SCORE.INTER.SOLV>
11.3135

>  <SCORE.INTER.VDW>
-13.9621

>  <SCORE.INTER.norm>
-0.268377

>  <SCORE.INTRA>
0.212018

>  <SCORE.INTRA.DIHEDRAL>
-0.260543

>  <SCORE.INTRA.DIHEDRAL.0>
17.3446

>  <SCORE.INTRA.POLAR>
0

>  <SCORE.INTRA.POLAR.0>
0

>  <SCORE.INTRA.REPUL>
0

>  <SCORE.INTRA.REPUL.0>
0

>  <SCORE.INTRA.SOLV>
-0.696025

>  <SCORE.INTRA.SOLV.lig_0>
-112.452

>  <SCORE.INTRA.VDW>
0.690302

>  <SCORE.INTRA.VDW.0>
-5.95059

>  <SCORE.INTRA.norm>
0.00504804

>  <SCORE.RESTR>
0

>  <SCORE.RESTR.CAVITY>
0

>  <SCORE.RESTR.norm>
0

>  <SCORE.SYSTEM>
0

>  <SCORE.SYSTEM.CONST>
0

>  <SCORE.SYSTEM.DIHEDRAL>
0

>  <SCORE.SYSTEM.SOLV>
0

>  <SCORE.SYSTEM.norm>
0

>  <SCORE.heavy>
42

>  <SCORE.norm>
-0.263329

>  <RMSD>
4.484

$$$$
2fcy_lig
 OpenBabel11021811433D
libRbt.so/2013.1/901 2013/11/27
 42 45  0  0  0  0  0  0  0  0999 V2000
    0.8133   91.7611   11.8170 C   0  0  2  0  0  0  0  0  0  0  0  0
    0.4424   92.9873   11.1642 O   0  0  0  0  0  0  0  0  0  0  0  0
    0.2610   90.6443   10.9299 C   0  0  2  0  0  0  0  0  0  0  0  0
    0.7698   90.8321    9.5644 N   0  0  0  0  0  0  0  0  0  0  0  0
   -1.2683   90.7097   10.9166 C   0  0  1  0  0  0  0  0  0  0  0  0
   -1.8088   89.6707   10.0956 O   0  0  0  0  0  0  0  0  0  0  0  0
   -1.7932   90.5896   12.3476 C   0  0  2  0  0  0  0  0  0  0  0  0
   -3.2119   90.7477   12.3430 O   0  0  0  0  0  0  0  0  0  0  0  0
   -1.1921   91.7164   13.1891 C   0  0  2  0  0  0  0  0  0  0  0  0
    0.2412   91.6431   13.1358 O   0  0  0  0  0  0  0  0  0  0  0  0
   -1.7031   91.6005   14.6275 C   0  0  0  0  0  0  0  0  0  0  0  0
   -3.0994   92.0507   14.7279 N   0  0  0  0  0  0  0  0  0  0  0  0
    2.1081   96.8141   11.6419 C   0  0  2  0  0  0  0  0  0  0  0  0
    2.9366   98.0242   11.7515 N   0  0  0  0  0  0  0  0  0  0  0  0
    2.5937   95.7331   12.6097 C   0  0  0  0  0  0  0  0  0  0  0  0
    1.6168   94.5547   12.5452 C   0  0  2  0  0  0  0  0  0  0  0  0
    2.1107   93.4673   13.4022 N   0  0  0  0  0  0  0  0  0  0  0  0
    1.4645   93.9990   11.1263 C   0  0  2  0  0  0  0  0  0  0  0  0
    1.2142   95.0529   10.0534 C   0  0  2  0  0  0  0  0  0  0  0  0
    1.4896   94.4023    8.8025 O   0  0  0  0  0  0  0  0  0  0  0  0
    2.1439   96.2630   10.2144 C   0  0  1  0  0  0  0  0  0  0  0  0
    1.7638   97.3187    9.3277 O   0  0  0  0  0  0  0  0  0  0  0  0
    0.3821   93.7112    8.2022 C   0  0  1  0  0  0  0  0  0  0  0  0
   -0.7101   94.7447    7.9222 C   0  0  2  0  0  0  0  0  0  0  0  0
   -1.4861   94.9565    9.1040 O   0  0  0  0  0  0  0  0  0  0  0  0
   -1.5299   93.9506    6.9094 C   0  0  1  0  0  0  0  0  0  0  0  0
   -0.4201   93.4079    6.0230 C   0  0  2  0  0  0  0  0  0  0  0  0
    0.6886   93.1504    6.9092 O   0  0  0  0  0  0  0  0  0  0  0  0
   -0.0699   94.4560    4.9604 C   0  0  0  0  0  0  0  0  0  0  0  0
   -1.2464   94.8792    4.2653 O   0  0  0  0  0  0  0  0  0  0  0  0
   -3.2436   92.3614    6.7183 C   0  0  2  0  0  0  0  0  0  0  0  0
   -2.2055   92.8689    7.5706 O   0  0  0  0  0  0  0  0  0  0  0  0
   -4.0996   91.3567    7.4960 C   0  0  1  0  0  0  0  0  0  0  0  0
   -1.9626   89.6796    3.7318 N   0  0  0  0  0  0  0  0  0  0  0  0
   -5.1512   90.7260    6.5769 C   0  0  1  0  0  0  0  0  0  0  0  0
   -6.1219   91.7036    6.1891 O   0  0  0  0  0  0  0  0  0  0  0  0
   -4.4721   90.1460    5.3332 C   0  0  2  0  0  0  0  0  0  0  0  0
   -3.6278   89.0631    5.7381 O   0  0  0  0  0  0  0  0  0  0  0  0
   -3.6386   91.2347    4.6488 C   0  0  1  0  0  0  0  0  0  0  0  0
   -2.6497   91.7426    5.5636 O   0  0  0  0  0  0  0  0  0  0  0  0
   -2.9539   90.7085    3.3844 C   0  0  0  0  0  0  0  0  0  0  0  0
   -3.2270   90.2879    8.0052 N   0  0  0  0  0  0  0  0  0  0  0  0
  1  2  1  6  0  0  0
  1  3  1  0  0  0  0
  1 10  1  0  0  0  0
  3  4  1  6  0  0  0
  3  5  1  0  0  0  0
  5  6  1  6  0  0  0
  5  7  1  0  0  0  0
  7  8  1  6  0  0  0
  7  9  1  0  0  0  0
  9 10  1  0  0  0  0
  9 11  1  1  0  0  0
 11 12  1  0  0  0  0
 13 14  1  6  0  0  0
 13 15  1  0  0  0  0
 13 21  1  0  0  0  0
 16 15  1  0  0  0  0
 16 17  1  1  0  0  0
 18  2  1  1  0  0  0
 18 16  1  0  0  0  0
 19 18  1  0  0  0  0
 19 20  1  6  0  0  0
 21 19  1  0  0  0  0
 21 22  1  6  0  0  0
 23 20  1  6  0  0  0
 23 24  1  0  0  0  0
 23 28  1  0  0  0  0
 24 25  1  1  0  0  0
 24 26  1  0  0  0  0
 26 27  1  0  0  0  0
 26 32  1  1  0  0  0
 27 28  1  0  0  0  0
 27 29  1  6  0  0  0
 29 30  1  0  0  0  0
 31 32  1  1  0  0  0
 31 40  1  0  0  0  0
 33 31  1  0  0  0  0
 33 42  1  6  0  0  0
 35 33  1  0  0  0  0
 35 36  1  6  0  0  0
 37 35  1  0  0  0  0
 37 38  1  1  0  0  0
 37 39  1  0  0  0  0
 39 40  1  0  0  0  0
 39 41  1  6  0  0  0
 41 34  1  0  0  0  0
M  END
>  <CHROM.1>
-137.35797769,-74.99316855,-72.02151425,88.13202507,61.15159354,164.17545054
-52.60265008,-171.50054087,-65.36722160,-0.96773310,92.75063947,9.05558898
0.68511484,0.83410734,1.85984668

>  <Name>
2fcy_lig

>  <RI>
1.56845e+07

>  <Rbt.Current_Directory>
/home/itssahil/PROJECTS/Mol_Feturizer/New_Systems/rnas/2fcy

>  <Rbt.Executable>
rbdock ($Id: //depot/dev/client3/rdock/2013.1/src/exe/rbdock.cxx#4 $)

>  <Rbt.Library>
libRbt.so (2013.1, Build901 2013/11/27)

>  <Rbt.Parameter_File>
/export/apps/rDock/src/rDock_2013.1_src/data/scripts/dock_solv.prm

>  <Rbt.Receptor>
prm/pocket_docking_4.prm

>  <SCORE>
-15.0747

>  <SCORE.INTER>
-17.3566

>  <SCORE.INTER.CONST>
1

>  <SCORE.INTER.POLAR>
-2.63763

>  <SCORE.INTER.ROT>
9

>  <SCORE.INTER.SOLV>
10.8226

>  <SCORE.INTER.VDW>
-15.9865

>  <SCORE.INTER.norm>
-0.413252

>  <SCORE.INTRA>
2.2819

>  <SCORE.INTRA.DIHEDRAL>
-4.49908

>  <SCORE.INTRA.DIHEDRAL.0>
17.3446

>  <SCORE.INTRA.POLAR>
0

>  <SCORE.INTRA.POLAR.0>
0

>  <SCORE.INTRA.REPUL>
0

>  <SCORE.INTRA.REPUL.0>
0

>  <SCORE.INTRA.SOLV>
3.60879

>  <SCORE.INTRA.SOLV.lig_0>
-112.452

>  <SCORE.INTRA.VDW>
2.72704

>  <SCORE.INTRA.VDW.0>
-5.95059

>  <SCORE.INTRA.norm>
0.0543309

>  <SCORE.RESTR>
0

>  <SCORE.RESTR.CAVITY>
0

>  <SCORE.RESTR.norm>
0

>  <SCORE.SYSTEM>
0

>  <SCORE.SYSTEM.CONST>
0

>  <SCORE.SYSTEM.DIHEDRAL>
0

>  <SCORE.SYSTEM.SOLV>
0

>  <SCORE.SYSTEM.norm>
0

>  <SCORE.heavy>
42

>  <SCORE.norm>
-0.358921

>  <RMSD>
4.510

$$$$
2fcy_lig
 OpenBabel11021811433D
libRbt.so/2013.1/901 2013/11/27
 42 45  0  0  0  0  0  0  0  0999 V2000
   -0.1986   91.5212   11.7111 C   0  0  2  0  0  0  0  0  0  0  0  0
   -0.3134   92.6904   10.8821 O   0  0  0  0  0  0  0  0  0  0  0  0
   -0.1933   90.3357   10.7448 C   0  0  2  0  0  0  0  0  0  0  0  0
    0.8751   90.5380    9.7568 N   0  0  0  0  0  0  0  0  0  0  0  0
   -1.5424   90.2548   10.0260 C   0  0  1  0  0  0  0  0  0  0  0  0
   -1.5630   89.1494    9.1186 O   0  0  0  0  0  0  0  0  0  0  0  0
   -2.6604   90.1199   11.0602 C   0  0  2  0  0  0  0  0  0  0  0  0
   -3.9226   90.1419   10.3938 O   0  0  0  0  0  0  0  0  0  0  0  0
   -2.6022   91.3189   12.0079 C   0  0  2  0  0  0  0  0  0  0  0  0
   -1.3065   91.3811   12.6241 O   0  0  0  0  0  0  0  0  0  0  0  0
   -3.7117   91.1896   13.0548 C   0  0  0  0  0  0  0  0  0  0  0  0
   -3.6915   92.3274   13.9863 N   0  0  0  0  0  0  0  0  0  0  0  0
    1.5555   96.4044   11.4819 C   0  0  2  0  0  0  0  0  0  0  0  0
    2.4500   97.5548   11.6806 N   0  0  0  0  0  0  0  0  0  0  0  0
    1.7898   95.3414   12.5571 C   0  0  0  0  0  0  0  0  0  0  0  0
    0.7446   94.2358   12.3772 C   0  0  2  0  0  0  0  0  0  0  0  0
    1.0045   93.1601   13.3448 N   0  0  0  0  0  0  0  0  0  0  0  0
    0.7794   93.6213   10.9749 C   0  0  2  0  0  0  0  0  0  0  0  0
    0.7913   94.6349    9.8360 C   0  0  2  0  0  0  0  0  0  0  0  0
    1.2120   93.9032    8.6734 O   0  0  0  0  0  0  0  0  0  0  0  0
    1.7770   95.7804   10.1019 C   0  0  1  0  0  0  0  0  0  0  0  0
    1.6314   96.8147    9.1251 O   0  0  0  0  0  0  0  0  0  0  0  0
    0.1643   93.2642    7.9262 C   0  0  1  0  0  0  0  0  0  0  0  0
    0.1240   93.9118    6.5410 C   0  0  2  0  0  0  0  0  0  0  0  0
   -0.6496   95.1127    6.5940 O   0  0  0  0  0  0  0  0  0  0  0  0
   -0.6601   92.8323    5.8005 C   0  0  1  0  0  0  0  0  0  0  0  0
    0.0535   91.5850    6.2975 C   0  0  2  0  0  0  0  0  0  0  0  0
    0.4153   91.8682    7.6649 O   0  0  0  0  0  0  0  0  0  0  0  0
    1.2859   91.3304    5.4220 C   0  0  0  0  0  0  0  0  0  0  0  0
    1.7993   90.0144    5.6477 O   0  0  0  0  0  0  0  0  0  0  0  0
   -2.7934   91.9319    5.4306 C   0  0  2  0  0  0  0  0  0  0  0  0
   -2.0255   92.8294    6.2468 O   0  0  0  0  0  0  0  0  0  0  0  0
   -3.0378   92.5689    4.0588 C   0  0  1  0  0  0  0  0  0  0  0  0
   -6.8378   91.5550    6.5248 N   0  0  0  0  0  0  0  0  0  0  0  0
   -3.9418   91.6719    3.2063 C   0  0  1  0  0  0  0  0  0  0  0  0
   -3.2552   90.4665    2.8544 O   0  0  0  0  0  0  0  0  0  0  0  0
   -5.2185   91.3356    3.9818 C   0  0  2  0  0  0  0  0  0  0  0  0
   -5.9633   92.5422    4.1789 O   0  0  0  0  0  0  0  0  0  0  0  0
   -4.8495   90.7188    5.3352 C   0  0  1  0  0  0  0  0  0  0  0  0
   -4.0385   91.6393    6.0886 O   0  0  0  0  0  0  0  0  0  0  0  0
   -6.0957   90.3447    6.1422 C   0  0  0  0  0  0  0  0  0  0  0  0
   -3.7143   93.8604    4.2522 N   0  0  0  0  0  0  0  0  0  0  0  0
  1  2  1  6  0  0  0
  1  3  1  0  0  0  0
  1 10  1  0  0  0  0
  3  4  1  6  0  0  0
  3  5  1  0  0  0  0
  5  6  1  6  0  0  0
  5  7  1  0  0  0  0
  7  8  1  6  0  0  0
  7  9  1  0  0  0  0
  9 10  1  0  0  0  0
  9 11  1  1  0  0  0
 11 12  1  0  0  0  0
 13 14  1  1  0  0  0
 13 15  1  0  0  0  0
 13 21  1  0  0  0  0
 16 15  1  0  0  0  0
 16 17  1  1  0  0  0
 18  2  1  6  0  0  0
 18 16  1  0  0  0  0
 19 18  1  0  0  0  0
 19 20  1  6  0  0  0
 21 19  1  0  0  0  0
 21 22  1  6  0  0  0
 23 20  1  1  0  0  0
 23 24  1  0  0  0  0
 23 28  1  0  0  0  0
 24 25  1  1  0  0  0
 24 26  1  0  0  0  0
 26 27  1  0  0  0  0
 26 32  1  1  0  0  0
 27 28  1  0  0  0  0
 27 29  1  6  0  0  0
 29 30  1  0  0  0  0
 31 32  1  1  0  0  0
 31 40  1  0  0  0  0
 33 31  1  0  0  0  0
 33 42  1  1  0  0  0
 35 33  1  0  0  0  0
 35 36  1  1  0  0  0
 37 35  1  0  0  0  0
 37 38  1  1  0  0  0
 37 39  1  0  0  0  0
 39 40  1  0  0  0  0
 39 41  1  1  0  0  0
 41 34  1  0  0  0  0
M  END
>  <CHROM.1>
-119.25317421,-179.88702978,-67.55121331,88.07355958,116.14858383,172.77019857
-166.34214814,-74.41110962,-66.29011805,-1.34941018,92.45766989,8.43933822
0.83390425,0.64553100,1.72625239

>  <Name>
2fcy_lig

>  <RI>
0

>  <Rbt.Current_Directory>
/home/itssahil/PROJECTS/Mol_Feturizer/New_Systems/rnas/2fcy

>  <Rbt.Executable>
rbdock ($Id: //depot/dev/client3/rdock/2013.1/src/exe/rbdock.cxx#4 $)

>  <Rbt.Library>
libRbt.so (2013.1, Build901 2013/11/27)

>  <Rbt.Parameter_File>
/export/apps/rDock/src/rDock_2013.1_src/data/scripts/dock_solv.prm

>  <Rbt.Receptor>
prm/pocket_docking_5.prm

>  <SCORE>
-12.0324

>  <SCORE.INTER>
-16.8978

>  <SCORE.INTER.CONST>
1

>  <SCORE.INTER.POLAR>
-2.56037

>  <SCORE.INTER.ROT>
9

>  <SCORE.INTER.SOLV>
9.93116

>  <SCORE.INTER.VDW>
-15.641

>  <SCORE.INTER.norm>
-0.402329

>  <SCORE.INTRA>
4.86539

>  <SCORE.INTRA.DIHEDRAL>
2.95493

>  <SCORE.INTRA.DIHEDRAL.0>
17.3446

>  <SCORE.INTRA.POLAR>
0

>  <SCORE.INTRA.POLAR.0>
0

>  <SCORE.INTRA.REPUL>
0

>  <SCORE.INTRA.REPUL.0>
0

>  <SCORE.INTRA.SOLV>
1.50725

>  <SCORE.INTRA.SOLV.lig_0>
-112.452

>  <SCORE.INTRA.VDW>
2.6343

>  <SCORE.INTRA.VDW.0>
-5.95059

>  <SCORE.INTRA.norm>
0.115843

>  <SCORE.RESTR>
0

>  <SCORE.RESTR.CAVITY>
0

>  <SCORE.RESTR.norm>
0

>  <SCORE.SYSTEM>
0

>  <SCORE.SYSTEM.CONST>
0

>  <SCORE.SYSTEM.DIHEDRAL>
0

>  <SCORE.SYSTEM.SOLV>
0

>  <SCORE.SYSTEM.norm>
0

>  <SCORE.heavy>
42

>  <SCORE.norm>
-0.286486

>  <RMSD>
4.537

$$$$
2fcy_lig
 OpenBabel11021811433D
libRbt.so/2013.1/901 2013/11/27
 42 45  0  0  0  0  0  0  0  0999 V2000
    1.4135   90.7713   17.0536 C   0  0  2  0  0  0  0  0  0  0  0  0
    1.4383   91.5895   18.2356 O   0  0  0  0  0  0  0  0  0  0  0  0
    0.5561   89.5578   17.4161 C   0  0  2  0  0  0  0  0  0  0  0  0
   -0.7462   90.0305   17.9055 N   0  0  0  0  0  0  0  0  0  0  0  0
    1.2502   88.7502   18.5157 C   0  0  1  0  0  0  0  0  0  0  0  0
    0.4679   87.6061   18.8691 O   0  0  0  0  0  0  0  0  0  0  0  0
    2.6364   88.3228   18.0323 C   0  0  2  0  0  0  0  0  0  0  0  0
    3.3187   87.6538   19.0927 O   0  0  0  0  0  0  0  0  0  0  0  0
    3.4374   89.5731   17.6657 C   0  0  2  0  0  0  0  0  0  0  0  0
    2.7281   90.3216   16.6661 O   0  0  0  0  0  0  0  0  0  0  0  0
    4.8249   89.1569   17.1703 C   0  0  0  0  0  0  0  0  0  0  0  0
    5.6438   88.6363   18.2753 N   0  0  0  0  0  0  0  0  0  0  0  0
    2.3839   95.6729   18.5148 C   0  0  2  0  0  0  0  0  0  0  0  0
    2.9807   97.0160   18.5666 N   0  0  0  0  0  0  0  0  0  0  0  0
    3.0282   94.7511   19.5521 C   0  0  0  0  0  0  0  0  0  0  0  0
    2.2785   93.4151   19.5410 C   0  0  2  0  0  0  0  0  0  0  0  0
    2.9351   92.4823   20.4682 N   0  0  0  0  0  0  0  0  0  0  0  0
    2.2649   92.7641   18.1549 C   0  0  2  0  0  0  0  0  0  0  0  0
    1.8595   93.6957   17.0182 C   0  0  2  0  0  0  0  0  0  0  0  0
    2.2791   93.0373   15.8121 O   0  0  0  0  0  0  0  0  0  0  0  0
    2.5546   95.0597   17.1228 C   0  0  1  0  0  0  0  0  0  0  0  0
    2.0164   95.9801   16.1698 O   0  0  0  0  0  0  0  0  0  0  0  0
    1.7726   93.5952   14.5888 C   0  0  1  0  0  0  0  0  0  0  0  0
    2.7224   93.1803   13.4640 C   0  0  2  0  0  0  0  0  0  0  0  0
    3.8307   94.0818   13.4133 O   0  0  0  0  0  0  0  0  0  0  0  0
    1.8021   93.4362   12.2740 C   0  0  1  0  0  0  0  0  0  0  0  0
    0.5168   92.7998   12.7791 C   0  0  2  0  0  0  0  0  0  0  0  0
    0.4932   93.0555   14.1986 O   0  0  0  0  0  0  0  0  0  0  0  0
    0.5459   91.2985   12.4701 C   0  0  0  0  0  0  0  0  0  0  0  0
   -0.6637   90.6721   12.9071 O   0  0  0  0  0  0  0  0  0  0  0  0
    1.3179   95.1242   10.7201 C   0  0  2  0  0  0  0  0  0  0  0  0
    1.6156   94.8495   12.0975 O   0  0  0  0  0  0  0  0  0  0  0  0
    0.3495   96.3081   10.6313 C   0  0  1  0  0  0  0  0  0  0  0  0
    1.0077   91.7958    8.2422 N   0  0  0  0  0  0  0  0  0  0  0  0
   -0.0618   96.5543    9.1758 C   0  0  1  0  0  0  0  0  0  0  0  0
    1.0555   97.0290    8.4178 O   0  0  0  0  0  0  0  0  0  0  0  0
   -0.5939   95.2570    8.5607 C   0  0  2  0  0  0  0  0  0  0  0  0
   -1.8022   94.8939    9.2372 O   0  0  0  0  0  0  0  0  0  0  0  0
    0.4511   94.1474    8.7194 C   0  0  1  0  0  0  0  0  0  0  0  0
    0.7489   93.9504   10.1141 O   0  0  0  0  0  0  0  0  0  0  0  0
   -0.0265   92.8312    8.0999 C   0  0  0  0  0  0  0  0  0  0  0  0
   -0.8582   95.9888   11.4076 N   0  0  0  0  0  0  0  0  0  0  0  0
  1  2  1  1  0  0  0
  1  3  1  0  0  0  0
  1 10  1  0  0  0  0
  3  4  1  1  0  0  0
  3  5  1  0  0  0  0
  5  6  1  6  0  0  0
  5  7  1  0  0  0  0
  7  8  1  1  0  0  0
  7  9  1  0  0  0  0
  9 10  1  0  0  0  0
  9 11  1  6  0  0  0
 11 12  1  0  0  0  0
 13 14  1  6  0  0  0
 13 15  1  0  0  0  0
 13 21  1  0  0  0  0
 16 15  1  0  0  0  0
 16 17  1  1  0  0  0
 18  2  1  1  0  0  0
 18 16  1  0  0  0  0
 19 18  1  0  0  0  0
 19 20  1  6  0  0  0
 21 19  1  0  0  0  0
 21 22  1  6  0  0  0
 23 20  1  1  0  0  0
 23 24  1  0  0  0  0
 23 28  1  0  0  0  0
 24 25  1  6  0  0  0
 24 26  1  0  0  0  0
 26 27  1  0  0  0  0
 26 32  1  1  0  0  0
 27 28  1  0  0  0  0
 27 29  1  1  0  0  0
 29 30  1  0  0  0  0
 31 32  1  1  0  0  0
 31 40  1  0  0  0  0
 33 31  1  0  0  0  0
 33 42  1  1  0  0  0
 35 33  1  0  0  0  0
 35 36  1  6  0  0  0
 37 35  1  0  0  0  0
 37 38  1  1  0  0  0
 37 39  1  0  0  0  0
 39 40  1  0  0  0  0
 39 41  1  1  0  0  0
 41 34  1  0  0  0  0
M  END
>  <CHROM.1>
176.35051438,-70.38651868,-174.12066507,168.15202943,157.23563415,153.28641898
-178.75150745,146.15878009,178.78663902,1.55803054,92.76500806,14.67775337
0.67579564,1.28122777,2.89832754

>  <Name>
2fcy_lig

>  <RI>
0

>  <Rbt.Current_Directory>
/home/itssahil/PROJECTS/Mol_Feturizer/New_Systems/rnas/2fcy

>  <Rbt.Executable>
rbdock ($Id: //depot/dev/client3/rdock/2013.1/src/exe/rbdock.cxx#4 $)

>  <Rbt.Library>
libRbt.so (2013.1, Build901 2013/11/27)

>  <Rbt.Parameter_File>
/export/apps/rDock/src/rDock_2013.1_src/data/scripts/dock_solv.prm

>  <Rbt.Receptor>
prm/pocket_docking_5.prm

>  <SCORE>
-19.3783

>  <SCORE.INTER>
-18.6655

>  <SCORE.INTER.CONST>
1

>  <SCORE.INTER.POLAR>
-1.83251

>  <SCORE.INTER.ROT>
9

>  <SCORE.INTER.SOLV>
22.561

>  <SCORE.INTER.VDW>
-23.4557

>  <SCORE.INTER.norm>
-0.444417

>  <SCORE.INTRA>
-0.712779

>  <SCORE.INTRA.DIHEDRAL>
-6.16839

>  <SCORE.INTRA.DIHEDRAL.0>
17.3446

>  <SCORE.INTRA.POLAR>
0

>  <SCORE.INTRA.POLAR.0>
0

>  <SCORE.INTRA.REPUL>
0.00137962

>  <SCORE.INTRA.REPUL.0>
0

>  <SCORE.INTRA.SOLV>
-3.7691

>  <SCORE.INTRA.SOLV.lig_0>
-112.452

>  <SCORE.INTRA.VDW>
4.24907

>  <SCORE.INTRA.VDW.0>
-5.95059

>  <SCORE.INTRA.norm>
-0.0169709

>  <SCORE.RESTR>
0

>  <SCORE.RESTR.CAVITY>
0

>  <SCORE.RESTR.norm>
0

>  <SCORE.SYSTEM>
0

>  <SCORE.SYSTEM.CONST>
0

>  <SCORE.SYSTEM.DIHEDRAL>
0

>  <SCORE.SYSTEM.SOLV>
0

>  <SCORE.SYSTEM.norm>
0

>  <SCORE.heavy>
42

>  <SCORE.norm>
-0.461388

>  <RMSD>
4.753

$$$$
2fcy_lig
 OpenBabel11021811433D
libRbt.so/2013.1/901 2013/11/27
 42 45  0  0  0  0  0  0  0  0999 V2000
    0.1083   93.6850   12.2137 C   0  0  2  0  0  0  0  0  0  0  0  0
    1.1666   92.7997   12.6181 O   0  0  0  0  0  0  0  0  0  0  0  0
    0.2623   93.8393   10.6999 C   0  0  2  0  0  0  0  0  0  0  0  0
    0.2605   92.5036   10.0877 N   0  0  0  0  0  0  0  0  0  0  0  0
    1.5873   94.5398   10.3887 C   0  0  1  0  0  0  0  0  0  0  0  0
    1.7521   94.6994    8.9769 O   0  0  0  0  0  0  0  0  0  0  0  0
    1.6188   95.8988   11.0887 C   0  0  2  0  0  0  0  0  0  0  0  0
    2.8924   96.5077   10.8767 O   0  0  0  0  0  0  0  0  0  0  0  0
    1.4395   95.6827   12.5922 C   0  0  2  0  0  0  0  0  0  0  0  0
    0.2083   94.9838   12.8332 O   0  0  0  0  0  0  0  0  0  0  0  0
    1.4593   97.0383   13.3033 C   0  0  0  0  0  0  0  0  0  0  0  0
    2.8159   97.6058   13.3166 N   0  0  0  0  0  0  0  0  0  0  0  0
    2.1390   90.5446   16.0262 C   0  0  2  0  0  0  0  0  0  0  0  0
    2.3616   89.9699   17.3615 N   0  0  0  0  0  0  0  0  0  0  0  0
    2.7910   91.9239   15.9122 C   0  0  0  0  0  0  0  0  0  0  0  0
    2.6404   92.4100   14.4671 C   0  0  2  0  0  0  0  0  0  0  0  0
    3.1825   93.7717   14.3540 N   0  0  0  0  0  0  0  0  0  0  0  0
    1.1782   92.4500   14.0134 C   0  0  2  0  0  0  0  0  0  0  0  0
    0.3842   91.1833   14.3124 C   0  0  2  0  0  0  0  0  0  0  0  0
   -0.9975   91.5546   14.1811 O   0  0  0  0  0  0  0  0  0  0  0  0
    0.6415   90.6712   15.7359 C   0  0  1  0  0  0  0  0  0  0  0  0
    0.0475   89.3849   15.9295 O   0  0  0  0  0  0  0  0  0  0  0  0
   -1.5119   91.5774   12.8398 C   0  0  1  0  0  0  0  0  0  0  0  0
   -1.4664   90.1457   12.3034 C   0  0  2  0  0  0  0  0  0  0  0  0
   -0.1603   89.8640   11.7949 O   0  0  0  0  0  0  0  0  0  0  0  0
   -2.4436   90.2996   11.1416 C   0  0  1  0  0  0  0  0  0  0  0  0
   -3.5608   91.0737   11.8233 C   0  0  2  0  0  0  0  0  0  0  0  0
   -2.9043   91.9465   12.7656 O   0  0  0  0  0  0  0  0  0  0  0  0
   -4.5019   90.0850   12.5212 C   0  0  0  0  0  0  0  0  0  0  0  0
   -5.7945   90.6686   12.7084 O   0  0  0  0  0  0  0  0  0  0  0  0
   -2.6063   90.9567    8.8965 C   0  0  2  0  0  0  0  0  0  0  0  0
   -1.8491   91.1005   10.1079 O   0  0  0  0  0  0  0  0  0  0  0  0
   -1.8757   91.6611    7.7488 C   0  0  1  0  0  0  0  0  0  0  0  0
   -7.0538   91.5867    7.0864 N   0  0  0  0  0  0  0  0  0  0  0  0
   -2.7153   91.6077    6.4679 C   0  0  1  0  0  0  0  0  0  0  0  0
   -2.7982   90.2632    5.9845 O   0  0  0  0  0  0  0  0  0  0  0  0
   -4.1208   92.1477    6.7463 C   0  0  2  0  0  0  0  0  0  0  0  0
   -4.0187   93.5380    7.0720 O   0  0  0  0  0  0  0  0  0  0  0  0
   -4.7439   91.3783    7.9160 C   0  0  1  0  0  0  0  0  0  0  0  0
   -3.9182   91.5145    9.0876 O   0  0  0  0  0  0  0  0  0  0  0  0
   -6.1620   91.8684    8.2209 C   0  0  0  0  0  0  0  0  0  0  0  0
   -1.6737   93.0715    8.1134 N   0  0  0  0  0  0  0  0  0  0  0  0
  1  2  1  1  0  0  0
  1  3  1  0  0  0  0
  1 10  1  0  0  0  0
  3  4  1  6  0  0  0
  3  5  1  0  0  0  0
  5  6  1  6  0  0  0
  5  7  1  0  0  0  0
  7  8  1  1  0  0  0
  7  9  1  0  0  0  0
  9 10  1  0  0  0  0
  9 11  1  1  0  0  0
 11 12  1  0  0  0  0
 13 14  1  1  0  0  0
 13 15  1  0  0  0  0
 13 21  1  0  0  0  0
 16 15  1  0  0  0  0
 16 17  1  1  0  0  0
 18  2  1  6  0  0  0
 18 16  1  0  0  0  0
 19 18  1  0  0  0  0
 19 20  1  1  0  0  0
 21 19  1  0  0  0  0
 21 22  1  6  0  0  0
 23 20  1  1  0  0  0
 23 24  1  0  0  0  0
 23 28  1  0  0  0  0
 24 25  1  6  0  0  0
 24 26  1  0  0  0  0
 26 27  1  0  0  0  0
 26 32  1  6  0  0  0
 27 28  1  0  0  0  0
 27 29  1  1  0  0  0
 29 30  1  0  0  0  0
 31 32  1  1  0  0  0
 31 40  1  0  0  0  0
 33 31  1  0  0  0  0
 33 42  1  1  0  0  0
 35 33  1  0  0  0  0
 35 36  1  1  0  0  0
 37 35  1  0  0  0  0
 37 38  1  1  0  0  0
 37 39  1  0  0  0  0
 39 40  1  0  0  0  0
 39 41  1  1  0  0  0
 41 34  1  0  0  0  0
M  END
>  <CHROM.1>
-176.89823453,-72.04014915,-141.36716746,81.64734749,64.52293802,165.06257191
-157.15531231,-172.70078542,64.62659561,-0.87871012,92.37972810,11.47806409
-0.49588614,-0.67810220,-0.95494459

>  <Name>
2fcy_lig

>  <RI>
4.13508e+07

>  <Rbt.Current_Directory>
/home/itssahil/PROJECTS/Mol_Feturizer/New_Systems/rnas/2fcy

>  <Rbt.Executable>
rbdock ($Id: //depot/dev/client3/rdock/2013.1/src/exe/rbdock.cxx#4 $)

>  <Rbt.Library>
libRbt.so (2013.1, Build901 2013/11/27)

>  <Rbt.Parameter_File>
/export/apps/rDock/src/rDock_2013.1_src/data/scripts/dock_solv.prm

>  <Rbt.Receptor>
prm/pocket_docking_3.prm

>  <SCORE>
-1.82373

>  <SCORE.INTER>
-4.24471

>  <SCORE.INTER.CONST>
1

>  <SCORE.INTER.POLAR>
-0.527799

>  <SCORE.INTER.ROT>
9

>  <SCORE.INTER.SOLV>
9.35715

>  <SCORE.INTER.VDW>
-13.7895

>  <SCORE.INTER.norm>
-0.101064

>  <SCORE.INTRA>
1.90305

>  <SCORE.INTRA.DIHEDRAL>
-6.1307

>  <SCORE.INTRA.DIHEDRAL.0>
17.3446

>  <SCORE.INTRA.POLAR>
0

>  <SCORE.INTRA.POLAR.0>
0

>  <SCORE.INTRA.REPUL>
0.00241703

>  <SCORE.INTRA.REPUL.0>
0

>  <SCORE.INTRA.SOLV>
5.61669

>  <SCORE.INTRA.SOLV.lig_0>
-112.452

>  <SCORE.INTRA.VDW>
2.14798

>  <SCORE.INTRA.VDW.0>
-5.95059

>  <SCORE.INTRA.norm>
0.0453107

>  <SCORE.RESTR>
0.517927

>  <SCORE.RESTR.CAVITY>
0.517927

>  <SCORE.RESTR.norm>
0.0123316

>  <SCORE.SYSTEM>
0

>  <SCORE.SYSTEM.CONST>
0

>  <SCORE.SYSTEM.DIHEDRAL>
0

>  <SCORE.SYSTEM.SOLV>
0

>  <SCORE.SYSTEM.norm>
0

>  <SCORE.heavy>
42

>  <SCORE.norm>
-0.0434221

>  <RMSD>
4.784

$$$$
2fcy_lig
 OpenBabel11021811433D
libRbt.so/2013.1/901 2013/11/27
 42 45  0  0  0  0  0  0  0  0999 V2000
    1.9212   92.2189   15.6185 C   0  0  2  0  0  0  0  0  0  0  0  0
    0.8117   91.3045   15.6175 O   0  0  0  0  0  0  0  0  0  0  0  0
    3.1552   91.3624   15.3310 C   0  0  2  0  0  0  0  0  0  0  0  0
    2.9307   90.6158   14.0856 N   0  0  0  0  0  0  0  0  0  0  0  0
    3.3746   90.3774   16.4820 C   0  0  1  0  0  0  0  0  0  0  0  0
    4.5274   89.5670   16.2374 O   0  0  0  0  0  0  0  0  0  0  0  0
    3.5330   91.1535   17.7899 C   0  0  2  0  0  0  0  0  0  0  0  0
    3.6406   90.2312   18.8740 O   0  0  0  0  0  0  0  0  0  0  0  0
    2.2820   92.0047   18.0123 C   0  0  2  0  0  0  0  0  0  0  0  0
    2.0908   92.8795   16.8895 O   0  0  0  0  0  0  0  0  0  0  0  0
    2.4334   92.7947   19.3149 C   0  0  0  0  0  0  0  0  0  0  0  0
    1.2254   93.5855   19.5942 N   0  0  0  0  0  0  0  0  0  0  0  0
   -3.3835   91.5042   15.7000 C   0  0  2  0  0  0  0  0  0  0  0  0
   -4.8106   91.8233   15.8569 N   0  0  0  0  0  0  0  0  0  0  0  0
   -2.6739   91.5049   17.0554 C   0  0  0  0  0  0  0  0  0  0  0  0
   -1.2301   91.0382   16.8435 C   0  0  2  0  0  0  0  0  0  0  0  0
   -0.5032   91.1144   18.1189 N   0  0  0  0  0  0  0  0  0  0  0  0
   -0.4800   91.9025   15.8258 C   0  0  2  0  0  0  0  0  0  0  0  0
   -1.2336   92.1513   14.5240 C   0  0  2  0  0  0  0  0  0  0  0  0
   -0.5666   93.2594   13.8985 O   0  0  0  0  0  0  0  0  0  0  0  0
   -2.7025   92.5166   14.7758 C   0  0  1  0  0  0  0  0  0  0  0  0
   -3.4361   92.5521   13.5487 O   0  0  0  0  0  0  0  0  0  0  0  0
   -1.1004   93.6730   12.6303 C   0  0  1  0  0  0  0  0  0  0  0  0
   -0.4823   95.0300   12.2895 C   0  0  2  0  0  0  0  0  0  0  0  0
   -1.2194   96.0702   12.9362 O   0  0  0  0  0  0  0  0  0  0  0  0
   -0.7761   95.0518   10.7923 C   0  0  1  0  0  0  0  0  0  0  0  0
   -0.3570   93.6411   10.4097 C   0  0  2  0  0  0  0  0  0  0  0  0
   -0.7130   92.8151   11.5375 O   0  0  0  0  0  0  0  0  0  0  0  0
    1.1524   93.6220   10.1421 C   0  0  0  0  0  0  0  0  0  0  0  0
    1.5310   92.4083    9.4863 O   0  0  0  0  0  0  0  0  0  0  0  0
   -2.4292   95.4588    9.1798 C   0  0  2  0  0  0  0  0  0  0  0  0
   -2.1857   95.2229   10.5749 O   0  0  0  0  0  0  0  0  0  0  0  0
   -2.3628   96.9627    8.8952 C   0  0  1  0  0  0  0  0  0  0  0  0
   -5.5323   94.3758    5.6298 N   0  0  0  0  0  0  0  0  0  0  0  0
   -2.7201   97.2463    7.4322 C   0  0  1  0  0  0  0  0  0  0  0  0
   -1.7024   96.7362    6.5649 O   0  0  0  0  0  0  0  0  0  0  0  0
   -4.0654   96.5990    7.0921 C   0  0  2  0  0  0  0  0  0  0  0  0
   -5.0878   97.2419    7.8609 O   0  0  0  0  0  0  0  0  0  0  0  0
   -4.0159   95.1049    7.4289 C   0  0  1  0  0  0  0  0  0  0  0  0
   -3.7180   94.9270    8.8262 O   0  0  0  0  0  0  0  0  0  0  0  0
   -5.3346   94.4063    7.0865 C   0  0  0  0  0  0  0  0  0  0  0  0
   -3.3404   97.6488    9.7535 N   0  0  0  0  0  0  0  0  0  0  0  0
  1  2  1  1  0  0  0
  1  3  1  0  0  0  0
  1 10  1  0  0  0  0
  3  4  1  6  0  0  0
  3  5  1  0  0  0  0
  5  6  1  6  0  0  0
  5  7  1  0  0  0  0
  7  8  1  1  0  0  0
  7  9  1  0  0  0  0
  9 10  1  0  0  0  0
  9 11  1  1  0  0  0
 11 12  1  0  0  0  0
 13 14  1  1  0  0  0
 13 15  1  0  0  0  0
 13 21  1  0  0  0  0
 16 15  1  0  0  0  0
 16 17  1  1  0  0  0
 18  2  1  6  0  0  0
 18 16  1  0  0  0  0
 19 18  1  0  0  0  0
 19 20  1  1  0  0  0
 21 19  1  0  0  0  0
 21 22  1  6  0  0  0
 23 20  1  1  0  0  0
 23 24  1  0  0  0  0
 23 28  1  0  0  0  0
 24 25  1  1  0  0  0
 24 26  1  0  0  0  0
 26 27  1  0  0  0  0
 26 32  1  1  0  0  0
 27 28  1  0  0  0  0
 27 29  1  1  0  0  0
 29 30  1  0  0  0  0
 31 32  1  1  0  0  0
 31 40  1  0  0  0  0
 33 31  1  0  0  0  0
 33 42  1  1  0  0  0
 35 33  1  0  0  0  0
 35 36  1  6  0  0  0
 37 35  1  0  0  0  0
 37 38  1  1  0  0  0
 37 39  1  0  0  0  0
 39 40  1  0  0  0  0
 39 41  1  1  0  0  0
 41 34  1  0  0  0  0
M  END
>  <CHROM.1>
-177.98119610,-177.65868817,-134.82241161,179.40659148,167.29188351,170.74618684
-166.54974734,-89.42518657,67.80938335,-0.78785009,93.37691711,12.99216184
-1.09241396,0.15652618,-1.20557004

>  <Name>
2fcy_lig

>  <RI>
0

>  <Rbt.Current_Directory>
/home/itssahil/PROJECTS/Mol_Feturizer/New_Systems/rnas/2fcy

>  <Rbt.Executable>
rbdock ($Id: //depot/dev/client3/rdock/2013.1/src/exe/rbdock.cxx#4 $)

>  <Rbt.Library>
libRbt.so (2013.1, Build901 2013/11/27)

>  <Rbt.Parameter_File>
/export/apps/rDock/src/rDock_2013.1_src/data/scripts/dock_solv.prm

>  <Rbt.Receptor>
prm/pocket_docking_5.prm

>  <SCORE>
-2.92343

>  <SCORE.INTER>
-1.34664

>  <SCORE.INTER.CONST>
1

>  <SCORE.INTER.POLAR>
-1.12211

>  <SCORE.INTER.ROT>
9

>  <SCORE.INTER.SOLV>
28.2099

>  <SCORE.INTER.VDW>
-16.1607

>  <SCORE.INTER.norm>
-0.0320629

>  <SCORE.INTRA>
-1.57679

>  <SCORE.INTRA.DIHEDRAL>
-5.34842

>  <SCORE.INTRA.DIHEDRAL.0>
17.3446

>  <SCORE.INTRA.POLAR>
0

>  <SCORE.INTRA.POLAR.0>
0

>  <SCORE.INTRA.REPUL>
0

>  <SCORE.INTRA.REPUL.0>
0

>  <SCORE.INTRA.SOLV>
-1.8904

>  <SCORE.INTRA.SOLV.lig_0>
-112.452

>  <SCORE.INTRA.VDW>
2.04262

>  <SCORE.INTRA.VDW.0>
-5.95059

>  <SCORE.INTRA.norm>
-0.0375426

>  <SCORE.RESTR>
0

>  <SCORE.RESTR.CAVITY>
0

>  <SCORE.RESTR.norm>
0

>  <SCORE.SYSTEM>
0

>  <SCORE.SYSTEM.CONST>
0

>  <SCORE.SYSTEM.DIHEDRAL>
0

>  <SCORE.SYSTEM.SOLV>
0

>  <SCORE.SYSTEM.norm>
0

>  <SCORE.heavy>
42

>  <SCORE.norm>
-0.0696055

>  <RMSD>
4.804

$$$$
2fcy_lig
 OpenBabel11021811433D
libRbt.so/2013.1/901 2013/11/27
 42 45  0  0  0  0  0  0  0  0999 V2000
   -1.2656   89.9980   11.8708 C   0  0  2  0  0  0  0  0  0  0  0  0
   -0.9437   91.3169   11.3973 O   0  0  0  0  0  0  0  0  0  0  0  0
   -1.0499   89.0714   10.6733 C   0  0  2  0  0  0  0  0  0  0  0  0
    0.3164   89.2642   10.1685 N   0  0  0  0  0  0  0  0  0  0  0  0
   -2.0533   89.4178    9.5704 C   0  0  1  0  0  0  0  0  0  0  0  0
   -1.8736   88.5603    8.4398 O   0  0  0  0  0  0  0  0  0  0  0  0
   -3.4745   89.2894   10.1196 C   0  0  2  0  0  0  0  0  0  0  0  0
   -4.4044   89.7056    9.1198 O   0  0  0  0  0  0  0  0  0  0  0  0
   -3.6231   90.2202   11.3240 C   0  0  2  0  0  0  0  0  0  0  0  0
   -2.6346   89.8888   12.3117 O   0  0  0  0  0  0  0  0  0  0  0  0
   -5.0402   90.0928   11.8891 C   0  0  0  0  0  0  0  0  0  0  0  0
   -6.0192   90.7453   11.0068 N   0  0  0  0  0  0  0  0  0  0  0  0
    2.2300   93.8094   12.5638 C   0  0  2  0  0  0  0  0  0  0  0  0
    3.5038   94.4591   12.9079 N   0  0  0  0  0  0  0  0  0  0  0  0
    2.0388   92.5249   13.3726 C   0  0  0  0  0  0  0  0  0  0  0  0
    0.6439   91.9683   13.0700 C   0  0  2  0  0  0  0  0  0  0  0  0
    0.4705   90.6868   13.7690 N   0  0  0  0  0  0  0  0  0  0  0  0
    0.4263   91.7182   11.5748 C   0  0  2  0  0  0  0  0  0  0  0  0
    0.8244   92.8795   10.6708 C   0  0  2  0  0  0  0  0  0  0  0  0
    0.9180   92.3242    9.3490 O   0  0  0  0  0  0  0  0  0  0  0  0
    2.1808   93.4751   11.0709 C   0  0  1  0  0  0  0  0  0  0  0  0
    2.4431   94.6783   10.3438 O   0  0  0  0  0  0  0  0  0  0  0  0
   -0.2759   92.4032    8.5537 C   0  0  1  0  0  0  0  0  0  0  0  0
   -0.1566   93.6411    7.6632 C   0  0  2  0  0  0  0  0  0  0  0  0
   -0.5687   94.7996    8.3924 O   0  0  0  0  0  0  0  0  0  0  0  0
   -1.2184   93.2869    6.6262 C   0  0  1  0  0  0  0  0  0  0  0  0
   -0.8687   91.8309    6.3615 C   0  0  2  0  0  0  0  0  0  0  0  0
   -0.4229   91.3061    7.6290 O   0  0  0  0  0  0  0  0  0  0  0  0
    0.2329   91.7657    5.2975 C   0  0  0  0  0  0  0  0  0  0  0  0
    1.5250   91.7642    5.9114 O   0  0  0  0  0  0  0  0  0  0  0  0
   -3.5206   93.3252    6.1824 C   0  0  2  0  0  0  0  0  0  0  0  0
   -2.5251   93.3803    7.2155 O   0  0  0  0  0  0  0  0  0  0  0  0
   -3.5861   94.6754    5.4613 C   0  0  1  0  0  0  0  0  0  0  0  0
   -7.0562   90.9708    6.7163 N   0  0  0  0  0  0  0  0  0  0  0  0
   -4.7123   94.6723    4.4220 C   0  0  1  0  0  0  0  0  0  0  0  0
   -4.3953   93.7795    3.3493 O   0  0  0  0  0  0  0  0  0  0  0  0
   -6.0262   94.2458    5.0823 C   0  0  2  0  0  0  0  0  0  0  0  0
   -6.3999   95.2426    6.0395 O   0  0  0  0  0  0  0  0  0  0  0  0
   -5.8356   92.8940    5.7785 C   0  0  1  0  0  0  0  0  0  0  0  0
   -4.7928   92.9940    6.7661 O   0  0  0  0  0  0  0  0  0  0  0  0
   -7.1307   92.4127    6.4384 C   0  0  0  0  0  0  0  0  0  0  0  0
   -3.8704   95.7254    6.4511 N   0  0  0  0  0  0  0  0  0  0  0  0
  1  2  1  6  0  0  0
  1  3  1  0  0  0  0
  1 10  1  0  0  0  0
  3  4  1  6  0  0  0
  3  5  1  0  0  0  0
  5  6  1  6  0  0  0
  5  7  1  0  0  0  0
  7  8  1  6  0  0  0
  7  9  1  0  0  0  0
  9 10  1  0  0  0  0
  9 11  1  1  0  0  0
 11 12  1  0  0  0  0
 13 14  1  1  0  0  0
 13 15  1  0  0  0  0
 13 21  1  0  0  0  0
 16 15  1  0  0  0  0
 16 17  1  1  0  0  0
 18  2  1  1  0  0  0
 18 16  1  0  0  0  0
 19 18  1  0  0  0  0
 19 20  1  6  0  0  0
 21 19  1  0  0  0  0
 21 22  1  6  0  0  0
 23 20  1  6  0  0  0
 23 24  1  0  0  0  0
 23 28  1  0  0  0  0
 24 25  1  1  0  0  0
 24 26  1  0  0  0  0
 26 27  1  0  0  0  0
 26 32  1  1  0  0  0
 27 28  1  0  0  0  0
 27 29  1  6  0  0  0
 29 30  1  0  0  0  0
 31 32  1  1  0  0  0
 31 40  1  0  0  0  0
 33 31  1  0  0  0  0
 33 42  1  1  0  0  0
 35 33  1  0  0  0  0
 35 36  1  6  0  0  0
 37 35  1  0  0  0  0
 37 38  1  1  0  0  0
 37 39  1  0  0  0  0
 39 40  1  0  0  0  0
 39 41  1  1  0  0  0
 41 34  1  0  0  0  0
M  END
>  <CHROM.1>
-91.13492131,-73.12615369,-71.80249743,92.42798823,96.48068916,167.95063852
91.24353704,-76.44638692,162.03607712,-1.86328358,92.17406861,8.84856738
0.72202493,0.38308783,2.20101153

>  <Name>
2fcy_lig

>  <RI>
1.56845e+07

>  <Rbt.Current_Directory>
/home/itssahil/PROJECTS/Mol_Feturizer/New_Systems/rnas/2fcy

>  <Rbt.Executable>
rbdock ($Id: //depot/dev/client3/rdock/2013.1/src/exe/rbdock.cxx#4 $)

>  <Rbt.Library>
libRbt.so (2013.1, Build901 2013/11/27)

>  <Rbt.Parameter_File>
/export/apps/rDock/src/rDock_2013.1_src/data/scripts/dock_solv.prm

>  <Rbt.Receptor>
prm/pocket_docking_4.prm

>  <SCORE>
-11.8674

>  <SCORE.INTER>
-16.2156

>  <SCORE.INTER.CONST>
1

>  <SCORE.INTER.POLAR>
-2.64613

>  <SCORE.INTER.ROT>
9

>  <SCORE.INTER.SOLV>
19.1831

>  <SCORE.INTER.VDW>
-17.9843

>  <SCORE.INTER.norm>
-0.386087

>  <SCORE.INTRA>
4.34825

>  <SCORE.INTRA.DIHEDRAL>
2.82676

>  <SCORE.INTRA.DIHEDRAL.0>
17.3446

>  <SCORE.INTRA.POLAR>
0

>  <SCORE.INTRA.POLAR.0>
0

>  <SCORE.INTRA.REPUL>
0.0786984

>  <SCORE.INTRA.REPUL.0>
0

>  <SCORE.INTRA.SOLV>
1.70291

>  <SCORE.INTRA.SOLV.lig_0>
-112.452

>  <SCORE.INTRA.VDW>
1.68993

>  <SCORE.INTRA.VDW.0>
-5.95059

>  <SCORE.INTRA.norm>
0.10353

>  <SCORE.RESTR>
0

>  <SCORE.RESTR.CAVITY>
0

>  <SCORE.RESTR.norm>
0

>  <SCORE.SYSTEM>
0

>  <SCORE.SYSTEM.CONST>
0

>  <SCORE.SYSTEM.DIHEDRAL>
0

>  <SCORE.SYSTEM.SOLV>
0

>  <SCORE.SYSTEM.norm>
0

>  <SCORE.heavy>
42

>  <SCORE.norm>
-0.282557

>  <RMSD>
4.840

$$$$
2fcy_lig
 OpenBabel11021811433D
libRbt.so/2013.1/901 2013/11/27
 42 45  0  0  0  0  0  0  0  0999 V2000
    0.9316   92.8199   13.4943 C   0  0  2  0  0  0  0  0  0  0  0  0
    0.0069   93.9198   13.5414 O   0  0  0  0  0  0  0  0  0  0  0  0
    0.8327   92.1457   14.8635 C   0  0  2  0  0  0  0  0  0  0  0  0
   -0.5727   91.8013   15.1186 N   0  0  0  0  0  0  0  0  0  0  0  0
    1.3249   93.1097   15.9459 C   0  0  1  0  0  0  0  0  0  0  0  0
    1.2457   92.4989   17.2368 O   0  0  0  0  0  0  0  0  0  0  0  0
    2.7634   93.5262   15.6376 C   0  0  2  0  0  0  0  0  0  0  0  0
    3.1866   94.4984   16.5933 O   0  0  0  0  0  0  0  0  0  0  0  0
    2.8029   94.1728   14.2522 C   0  0  2  0  0  0  0  0  0  0  0  0
    2.2910   93.2507   13.2774 O   0  0  0  0  0  0  0  0  0  0  0  0
    4.2411   94.5853   13.9280 C   0  0  0  0  0  0  0  0  0  0  0  0
    4.6436   95.7573   14.7198 N   0  0  0  0  0  0  0  0  0  0  0  0
   -1.9767   95.9214   10.4260 C   0  0  2  0  0  0  0  0  0  0  0  0
   -2.4108   96.7040    9.2590 N   0  0  0  0  0  0  0  0  0  0  0  0
   -1.1840   96.7937   11.4014 C   0  0  0  0  0  0  0  0  0  0  0  0
   -0.8760   95.9619   12.6505 C   0  0  2  0  0  0  0  0  0  0  0  0
   -0.0394   96.7517   13.5656 N   0  0  0  0  0  0  0  0  0  0  0  0
   -0.1191   94.6718   12.3215 C   0  0  2  0  0  0  0  0  0  0  0  0
   -0.7189   93.8550   11.1824 C   0  0  2  0  0  0  0  0  0  0  0  0
    0.3122   92.9386   10.7809 O   0  0  0  0  0  0  0  0  0  0  0  0
   -1.1082   94.7388    9.9899 C   0  0  1  0  0  0  0  0  0  0  0  0
   -1.8441   93.9893    9.0194 O   0  0  0  0  0  0  0  0  0  0  0  0
   -0.1380   91.6454   10.3460 C   0  0  1  0  0  0  0  0  0  0  0  0
   -0.7555   90.9407   11.5550 C   0  0  2  0  0  0  0  0  0  0  0  0
    0.2747   90.3195   12.3273 O   0  0  0  0  0  0  0  0  0  0  0  0
   -1.5563   89.8706   10.8186 C   0  0  1  0  0  0  0  0  0  0  0  0
   -2.1923   90.7100    9.7218 C   0  0  2  0  0  0  0  0  0  0  0  0
   -1.2061   91.7052    9.3786 O   0  0  0  0  0  0  0  0  0  0  0  0
   -3.4802   91.3443   10.2594 C   0  0  0  0  0  0  0  0  0  0  0  0
   -3.1832   92.2790   11.3007 O   0  0  0  0  0  0  0  0  0  0  0  0
   -1.4116   87.7527    9.8227 C   0  0  2  0  0  0  0  0  0  0  0  0
   -0.6633   88.9035   10.2435 O   0  0  0  0  0  0  0  0  0  0  0  0
   -0.4984   86.8074    9.0355 C   0  0  1  0  0  0  0  0  0  0  0  0
   -4.1695   88.4122    6.6906 N   0  0  0  0  0  0  0  0  0  0  0  0
   -1.3003   85.6211    8.4894 C   0  0  1  0  0  0  0  0  0  0  0  0
   -1.7390   84.7823    9.5628 O   0  0  0  0  0  0  0  0  0  0  0  0
   -2.5094   86.1316    7.7008 C   0  0  2  0  0  0  0  0  0  0  0  0
   -2.0372   86.8312    6.5445 O   0  0  0  0  0  0  0  0  0  0  0  0
   -3.3373   87.0724    8.5827 C   0  0  1  0  0  0  0  0  0  0  0  0
   -2.5246   88.1786    9.0172 O   0  0  0  0  0  0  0  0  0  0  0  0
   -4.5727   87.5949    7.8444 C   0  0  0  0  0  0  0  0  0  0  0  0
    0.0747   87.5435    7.8985 N   0  0  0  0  0  0  0  0  0  0  0  0
  1  2  1  1  0  0  0
  1  3  1  0  0  0  0
  1 10  1  0  0  0  0
  3  4  1  1  0  0  0
  3  5  1  0  0  0  0
  5  6  1  1  0  0  0
  5  7  1  0  0  0  0
  7  8  1  1  0  0  0
  7  9  1  0  0  0  0
  9 10  1  0  0  0  0
  9 11  1  6  0  0  0
 11 12  1  0  0  0  0
 13 14  1  6  0  0  0
 13 15  1  0  0  0  0
 13 21  1  0  0  0  0
 16 15  1  0  0  0  0
 16 17  1  1  0  0  0
 18  2  1  1  0  0  0
 18 16  1  0  0  0  0
 19 18  1  0  0  0  0
 19 20  1  6  0  0  0
 21 19  1  0  0  0  0
 21 22  1  6  0  0  0
 23 20  1  1  0  0  0
 23 24  1  0  0  0  0
 23 28  1  0  0  0  0
 24 25  1  1  0  0  0
 24 26  1  0  0  0  0
 26 27  1  0  0  0  0
 26 32  1  6  0  0  0
 27 28  1  0  0  0  0
 27 29  1  1  0  0  0
 29 30  1  0  0  0  0
 31 32  1  6  0  0  0
 31 40  1  0  0  0  0
 33 31  1  0  0  0  0
 33 42  1  6  0  0  0
 35 33  1  0  0  0  0
 35 36  1  1  0  0  0
 37 35  1  0  0  0  0
 37 38  1  6  0  0  0
 37 39  1  0  0  0  0
 39 40  1  0  0  0  0
 39 41  1  6  0  0  0
 41 34  1  0  0  0  0
M  END
>  <CHROM.1>
-177.11749890,-72.72517336,-167.21339313,145.49849704,-66.12028637,166.93628021
65.56534314,172.13911661,-63.73140652,-0.54903372,91.62154709,11.34388111
-0.92273626,0.88557937,-2.98843507

>  <Name>
2fcy_lig

>  <RI>
2.89127e+07

>  <Rbt.Current_Directory>
/home/itssahil/PROJECTS/Mol_Feturizer/New_Systems/rnas/2fcy

>  <Rbt.Executable>
rbdock ($Id: //depot/dev/client3/rdock/2013.1/src/exe/rbdock.cxx#4 $)

>  <Rbt.Library>
libRbt.so (2013.1, Build901 2013/11/27)

>  <Rbt.Parameter_File>
/export/apps/rDock/src/rDock_2013.1_src/data/scripts/dock_solv.prm

>  <Rbt.Receptor>
prm/pocket_docking_7.prm

>  <SCORE>
-8.61652

>  <SCORE.INTER>
-8.08517

>  <SCORE.INTER.CONST>
1

>  <SCORE.INTER.POLAR>
-0.884369

>  <SCORE.INTER.ROT>
9

>  <SCORE.INTER.SOLV>
13.163

>  <SCORE.INTER.VDW>
-16.4299

>  <SCORE.INTER.norm>
-0.192504

>  <SCORE.INTRA>
-0.53135

>  <SCORE.INTRA.DIHEDRAL>
-9.5306

>  <SCORE.INTRA.DIHEDRAL.0>
17.3446

>  <SCORE.INTRA.POLAR>
0

>  <SCORE.INTRA.POLAR.0>
0

>  <SCORE.INTRA.REPUL>
0

>  <SCORE.INTRA.REPUL.0>
0

>  <SCORE.INTRA.SOLV>
1.5122

>  <SCORE.INTRA.SOLV.lig_0>
-112.452

>  <SCORE.INTRA.VDW>
3.47785

>  <SCORE.INTRA.VDW.0>
-5.95059

>  <SCORE.INTRA.norm>
-0.0126512

>  <SCORE.RESTR>
0

>  <SCORE.RESTR.CAVITY>
0

>  <SCORE.RESTR.norm>
0

>  <SCORE.SYSTEM>
0

>  <SCORE.SYSTEM.CONST>
0

>  <SCORE.SYSTEM.DIHEDRAL>
0

>  <SCORE.SYSTEM.SOLV>
0

>  <SCORE.SYSTEM.norm>
0

>  <SCORE.heavy>
42

>  <SCORE.norm>
-0.205155

>  <RMSD>
4.875

$$$$
2fcy_lig
 OpenBabel11021811433D
libRbt.so/2013.1/901 2013/11/27
 42 45  0  0  0  0  0  0  0  0999 V2000
    1.3468   90.5037   17.4578 C   0  0  2  0  0  0  0  0  0  0  0  0
    1.2022   91.3942   18.5773 O   0  0  0  0  0  0  0  0  0  0  0  0
    0.3633   89.3614   17.7163 C   0  0  2  0  0  0  0  0  0  0  0  0
   -0.9753   89.9301   17.9244 N   0  0  0  0  0  0  0  0  0  0  0  0
    0.7896   88.5922   18.9693 C   0  0  1  0  0  0  0  0  0  0  0  0
   -0.1141   87.5145   19.2294 O   0  0  0  0  0  0  0  0  0  0  0  0
    2.2123   88.0646   18.7806 C   0  0  2  0  0  0  0  0  0  0  0  0
    2.6429   87.4318   19.9854 O   0  0  0  0  0  0  0  0  0  0  0  0
    3.1434   89.2463   18.5053 C   0  0  2  0  0  0  0  0  0  0  0  0
    2.6800   89.9638   17.3507 O   0  0  0  0  0  0  0  0  0  0  0  0
    4.5702   88.7291   18.3045 C   0  0  0  0  0  0  0  0  0  0  0  0
    4.6448   87.8271   17.1455 N   0  0  0  0  0  0  0  0  0  0  0  0
    2.4957   95.3548   19.1131 C   0  0  2  0  0  0  0  0  0  0  0  0
    3.2083   96.6310   19.2759 N   0  0  0  0  0  0  0  0  0  0  0  0
    2.9483   94.3412   20.1660 C   0  0  0  0  0  0  0  0  0  0  0  0
    2.0810   93.0856   20.0299 C   0  0  2  0  0  0  0  0  0  0  0  0
    2.5553   92.0634   20.9739 N   0  0  0  0  0  0  0  0  0  0  0  0
    2.1393   92.4848   18.6224 C   0  0  2  0  0  0  0  0  0  0  0  0
    1.9339   93.4883   17.4931 C   0  0  2  0  0  0  0  0  0  0  0  0
    2.4035   92.8320   16.3044 O   0  0  0  0  0  0  0  0  0  0  0  0
    2.7408   94.7739   17.7184 C   0  0  1  0  0  0  0  0  0  0  0  0
    2.3851   95.7731   16.7590 O   0  0  0  0  0  0  0  0  0  0  0  0
    1.9048   93.3578   15.0638 C   0  0  1  0  0  0  0  0  0  0  0  0
    2.6832   92.6860   13.9314 C   0  0  2  0  0  0  0  0  0  0  0  0
    3.9190   93.3740   13.7233 O   0  0  0  0  0  0  0  0  0  0  0  0
    1.7300   92.9901   12.7793 C   0  0  1  0  0  0  0  0  0  0  0  0
    0.3992   92.6334   13.4227 C   0  0  2  0  0  0  0  0  0  0  0  0
    0.5273   93.0150   14.8078 O   0  0  0  0  0  0  0  0  0  0  0  0
    0.1543   91.1282   13.2656 C   0  0  0  0  0  0  0  0  0  0  0  0
   -1.0912   90.7569   13.8633 O   0  0  0  0  0  0  0  0  0  0  0  0
    1.1842   94.6160   11.1802 C   0  0  2  0  0  0  0  0  0  0  0  0
    1.7685   94.3929   12.4726 O   0  0  0  0  0  0  0  0  0  0  0  0
    1.5534   96.0183   10.6860 C   0  0  1  0  0  0  0  0  0  0  0  0
   -2.5921   92.9512   10.5510 N   0  0  0  0  0  0  0  0  0  0  0  0
    0.8567   96.3164    9.3540 C   0  0  1  0  0  0  0  0  0  0  0  0
    1.3921   95.4873    8.3175 O   0  0  0  0  0  0  0  0  0  0  0  0
   -0.6486   96.0718    9.4900 C   0  0  2  0  0  0  0  0  0  0  0  0
   -1.1833   97.0239   10.4159 O   0  0  0  0  0  0  0  0  0  0  0  0
   -0.8932   94.6478   10.0004 C   0  0  1  0  0  0  0  0  0  0  0  0
   -0.2433   94.4645   11.2719 O   0  0  0  0  0  0  0  0  0  0  0  0
   -2.3884   94.3463   10.1339 C   0  0  0  0  0  0  0  0  0  0  0  0
    1.0983   97.0034   11.6788 N   0  0  0  0  0  0  0  0  0  0  0  0
  1  2  1  1  0  0  0
  1  3  1  0  0  0  0
  1 10  1  0  0  0  0
  3  4  1  1  0  0  0
  3  5  1  0  0  0  0
  5  6  1  6  0  0  0
  5  7  1  0  0  0  0
  7  8  1  1  0  0  0
  7  9  1  0  0  0  0
  9 10  1  0  0  0  0
  9 11  1  6  0  0  0
 11 12  1  0  0  0  0
 13 14  1  6  0  0  0
 13 15  1  0  0  0  0
 13 21  1  0  0  0  0
 16 15  1  0  0  0  0
 16 17  1  1  0  0  0
 18  2  1  1  0  0  0
 18 16  1  0  0  0  0
 19 18  1  0  0  0  0
 19 20  1  6  0  0  0
 21 19  1  0  0  0  0
 21 22  1  6  0  0  0
 23 20  1  1  0  0  0
 23 24  1  0  0  0  0
 23 28  1  0  0  0  0
 24 25  1  6  0  0  0
 24 26  1  0  0  0  0
 26 27  1  0  0  0  0
 26 32  1  1  0  0  0
 27 28  1  0  0  0  0
 27 29  1  1  0  0  0
 29 30  1  0  0  0  0
 31 32  1  1  0  0  0
 31 40  1  0  0  0  0
 33 31  1  0  0  0  0
 33 42  1  1  0  0  0
 35 33  1  0  0  0  0
 35 36  1  6  0  0  0
 37 35  1  0  0  0  0
 37 38  1  1  0  0  0
 37 39  1  0  0  0  0
 39 40  1  0  0  0  0
 39 41  1  1  0  0  0
 41 34  1  0  0  0  0
M  END
>  <CHROM.1>
173.72373910,61.59884336,-165.27993509,159.09571409,171.05404722,163.81050009
179.89608838,-164.87975622,176.77739827,1.36132213,92.67213480,15.28616110
1.06685201,1.11645160,2.57425442

>  <Name>
2fcy_lig

>  <RI>
0

>  <Rbt.Current_Directory>
/home/itssahil/PROJECTS/Mol_Feturizer/New_Systems/rnas/2fcy

>  <Rbt.Executable>
rbdock ($Id: //depot/dev/client3/rdock/2013.1/src/exe/rbdock.cxx#4 $)

>  <Rbt.Library>
libRbt.so (2013.1, Build901 2013/11/27)

>  <Rbt.Parameter_File>
/export/apps/rDock/src/rDock_2013.1_src/data/scripts/dock_solv.prm

>  <Rbt.Receptor>
prm/pocket_docking_5.prm

>  <SCORE>
-20.5879

>  <SCORE.INTER>
-14.5381

>  <SCORE.INTER.CONST>
1

>  <SCORE.INTER.POLAR>
-1.69534

>  <SCORE.INTER.ROT>
9

>  <SCORE.INTER.SOLV>
21.5786

>  <SCORE.INTER.VDW>
-20.8338

>  <SCORE.INTER.norm>
-0.346145

>  <SCORE.INTRA>
-6.14681

>  <SCORE.INTRA.DIHEDRAL>
-10.9706

>  <SCORE.INTRA.DIHEDRAL.0>
17.3446

>  <SCORE.INTRA.POLAR>
0

>  <SCORE.INTRA.POLAR.0>
0

>  <SCORE.INTRA.REPUL>
0

>  <SCORE.INTRA.REPUL.0>
0

>  <SCORE.INTRA.SOLV>
-3.66737

>  <SCORE.INTRA.SOLV.lig_0>
-112.452

>  <SCORE.INTRA.VDW>
1.17217

>  <SCORE.INTRA.VDW.0>
-5.95059

>  <SCORE.INTRA.norm>
-0.146353

>  <SCORE.RESTR>
0.0969654

>  <SCORE.RESTR.CAVITY>
0.0969654

>  <SCORE.RESTR.norm>
0.0023087

>  <SCORE.SYSTEM>
0

>  <SCORE.SYSTEM.CONST>
0

>  <SCORE.SYSTEM.DIHEDRAL>
0

>  <SCORE.SYSTEM.SOLV>
0

>  <SCORE.SYSTEM.norm>
0

>  <SCORE.heavy>
42

>  <SCORE.norm>
-0.490189

>  <RMSD>
4.968

$$$$
2fcy_lig
 OpenBabel11021811433D
libRbt.so/2013.1/901 2013/11/27
 42 45  0  0  0  0  0  0  0  0999 V2000
    1.4174   90.8749   17.3600 C   0  0  2  0  0  0  0  0  0  0  0  0
    1.1955   91.7191   18.5025 O   0  0  0  0  0  0  0  0  0  0  0  0
    0.4714   89.6870   17.5415 C   0  0  2  0  0  0  0  0  0  0  0  0
   -0.8958   90.1958   17.7166 N   0  0  0  0  0  0  0  0  0  0  0  0
    0.8810   88.8911   18.7833 C   0  0  1  0  0  0  0  0  0  0  0  0
    0.0121   87.7708   18.9717 O   0  0  0  0  0  0  0  0  0  0  0  0
    2.3297   88.4260   18.6321 C   0  0  2  0  0  0  0  0  0  0  0  0
    2.7400   87.7682   19.8307 O   0  0  0  0  0  0  0  0  0  0  0  0
    3.2224   89.6518   18.4332 C   0  0  2  0  0  0  0  0  0  0  0  0
    2.7742   90.3911   17.2864 O   0  0  0  0  0  0  0  0  0  0  0  0
    4.6754   89.1976   18.2705 C   0  0  0  0  0  0  0  0  0  0  0  0
    4.8498   88.4259   17.0309 N   0  0  0  0  0  0  0  0  0  0  0  0
    2.4118   95.6821   19.1824 C   0  0  2  0  0  0  0  0  0  0  0  0
    3.0989   96.9599   19.4231 N   0  0  0  0  0  0  0  0  0  0  0  0
    2.7532   94.6668   20.2750 C   0  0  0  0  0  0  0  0  0  0  0  0
    1.9094   93.4091   20.0444 C   0  0  2  0  0  0  0  0  0  0  0  0
    2.2839   92.3857   21.0310 N   0  0  0  0  0  0  0  0  0  0  0  0
    2.1190   92.8123   18.6496 C   0  0  2  0  0  0  0  0  0  0  0  0
    2.0316   93.8183   17.5073 C   0  0  2  0  0  0  0  0  0  0  0  0
    2.6271   93.1667   16.3738 O   0  0  0  0  0  0  0  0  0  0  0  0
    2.8057   95.1057   17.8203 C   0  0  1  0  0  0  0  0  0  0  0  0
    2.5509   96.1064   16.8310 O   0  0  0  0  0  0  0  0  0  0  0  0
    2.1725   93.6158   15.0869 C   0  0  1  0  0  0  0  0  0  0  0  0
    2.9830   92.8707   14.0250 C   0  0  2  0  0  0  0  0  0  0  0  0
    4.2294   93.5386   13.8150 O   0  0  0  0  0  0  0  0  0  0  0  0
    2.0698   93.1061   12.8254 C   0  0  1  0  0  0  0  0  0  0  0  0
    0.7165   92.7965   13.4457 C   0  0  2  0  0  0  0  0  0  0  0  0
    0.8019   93.2638   14.8077 O   0  0  0  0  0  0  0  0  0  0  0  0
    0.4669   91.2856   13.3752 C   0  0  0  0  0  0  0  0  0  0  0  0
   -0.8324   90.9669   13.8818 O   0  0  0  0  0  0  0  0  0  0  0  0
    1.4637   94.6531   11.1707 C   0  0  2  0  0  0  0  0  0  0  0  0
    2.1275   94.4867   12.4329 O   0  0  0  0  0  0  0  0  0  0  0  0
    1.7393   96.0591   10.6281 C   0  0  1  0  0  0  0  0  0  0  0  0
   -2.7530   95.1053   11.3129 N   0  0  0  0  0  0  0  0  0  0  0  0
    0.9578   96.2943    9.3311 C   0  0  1  0  0  0  0  0  0  0  0  0
    1.4739   95.4669    8.2836 O   0  0  0  0  0  0  0  0  0  0  0  0
   -0.5248   95.9845    9.5555 C   0  0  2  0  0  0  0  0  0  0  0  0
   -1.0521   96.9322   10.4900 O   0  0  0  0  0  0  0  0  0  0  0  0
   -0.6742   94.5629   10.1079 C   0  0  1  0  0  0  0  0  0  0  0  0
    0.0521   94.4388   11.3448 O   0  0  0  0  0  0  0  0  0  0  0  0
   -2.1441   94.1966   10.3304 C   0  0  0  0  0  0  0  0  0  0  0  0
    1.2934   97.0449   11.6243 N   0  0  0  0  0  0  0  0  0  0  0  0
  1  2  1  1  0  0  0
  1  3  1  0  0  0  0
  1 10  1  0  0  0  0
  3  4  1  1  0  0  0
  3  5  1  0  0  0  0
  5  6  1  6  0  0  0
  5  7  1  0  0  0  0
  7  8  1  1  0  0  0
  7  9  1  0  0  0  0
  9 10  1  0  0  0  0
  9 11  1  6  0  0  0
 11 12  1  0  0  0  0
 13 14  1  1  0  0  0
 13 15  1  0  0  0  0
 13 21  1  0  0  0  0
 16 15  1  0  0  0  0
 16 17  1  1  0  0  0
 18  2  1  6  0  0  0
 18 16  1  0  0  0  0
 19 18  1  0  0  0  0
 19 20  1  6  0  0  0
 21 19  1  0  0  0  0
 21 22  1  6  0  0  0
 23 20  1  1  0  0  0
 23 24  1  0  0  0  0
 23 28  1  0  0  0  0
 24 25  1  6  0  0  0
 24 26  1  0  0  0  0
 26 27  1  0  0  0  0
 26 32  1  1  0  0  0
 27 28  1  0  0  0  0
 27 29  1  1  0  0  0
 29 30  1  0  0  0  0
 31 32  1  1  0  0  0
 31 40  1  0  0  0  0
 33 31  1  0  0  0  0
 33 42  1  1  0  0  0
 35 33  1  0  0  0  0
 35 36  1  6  0  0  0
 37 35  1  0  0  0  0
 37 38  1  1  0  0  0
 37 39  1  0  0  0  0
 39 40  1  0  0  0  0
 39 41  1  1  0  0  0
 41 34  1  0  0  0  0
M  END
>  <CHROM.1>
171.36476737,65.90823458,-168.57250575,153.84002034,176.45139214,169.69910387
-176.70845042,-169.82482569,-61.23433226,1.49002745,92.93558464,15.29889357
0.99369557,1.18446705,2.63832227

>  <Name>
2fcy_lig

>  <RI>
224

>  <Rbt.Current_Directory>
/home/itssahil/PROJECTS/Mol_Feturizer/New_Systems/rnas/2fcy

>  <Rbt.Executable>
rbdock ($Id: //depot/dev/client3/rdock/2013.1/src/exe/rbdock.cxx#4 $)

>  <Rbt.Library>
libRbt.so (2013.1, Build901 2013/11/27)

>  <Rbt.Parameter_File>
/export/apps/rDock/src/rDock_2013.1_src/data/scripts/dock_solv.prm

>  <Rbt.Receptor>
prm/pocket_docking_6.prm

>  <SCORE>
-20.1545

>  <SCORE.INTER>
-14.9241

>  <SCORE.INTER.CONST>
1

>  <SCORE.INTER.POLAR>
-1.60221

>  <SCORE.INTER.ROT>
9

>  <SCORE.INTER.SOLV>
20.5817

>  <SCORE.INTER.VDW>
-21.0693

>  <SCORE.INTER.norm>
-0.355336

>  <SCORE.INTRA>
-5.23038

>  <SCORE.INTRA.DIHEDRAL>
-11.6516

>  <SCORE.INTRA.DIHEDRAL.0>
17.3446

>  <SCORE.INTRA.POLAR>
0

>  <SCORE.INTRA.POLAR.0>
0

>  <SCORE.INTRA.REPUL>
0

>  <SCORE.INTRA.REPUL.0>
0

>  <SCORE.INTRA.SOLV>
-2.18624

>  <SCORE.INTRA.SOLV.lig_0>
-112.452

>  <SCORE.INTRA.VDW>
1.68855

>  <SCORE.INTRA.VDW.0>
-5.95059

>  <SCORE.INTRA.norm>
-0.124533

>  <SCORE.RESTR>
0

>  <SCORE.RESTR.CAVITY>
0

>  <SCORE.RESTR.norm>
0

>  <SCORE.SYSTEM>
0

>  <SCORE.SYSTEM.CONST>
0

>  <SCORE.SYSTEM.DIHEDRAL>
0

>  <SCORE.SYSTEM.SOLV>
0

>  <SCORE.SYSTEM.norm>
0

>  <SCORE.heavy>
42

>  <SCORE.norm>
-0.479868

>  <RMSD>
5.054

$$$$
2fcy_lig
 OpenBabel11021811433D
libRbt.so/2013.1/901 2013/11/27
 42 45  0  0  0  0  0  0  0  0999 V2000
    0.1601   95.0539   11.2450 C   0  0  2  0  0  0  0  0  0  0  0  0
    1.3738   94.5991   11.8672 O   0  0  0  0  0  0  0  0  0  0  0  0
    0.6019   95.7849    9.9763 C   0  0  2  0  0  0  0  0  0  0  0  0
    1.4402   94.8795    9.1787 N   0  0  0  0  0  0  0  0  0  0  0  0
    1.4127   97.0263   10.3565 C   0  0  1  0  0  0  0  0  0  0  0  0
    1.8340   97.7299    9.1847 O   0  0  0  0  0  0  0  0  0  0  0  0
    0.5640   97.9322   11.2492 C   0  0  2  0  0  0  0  0  0  0  0  0
    1.3535   99.0403   11.6810 O   0  0  0  0  0  0  0  0  0  0  0  0
    0.1357   97.1426   12.4870 C   0  0  2  0  0  0  0  0  0  0  0  0
   -0.5808   95.9659   12.0816 O   0  0  0  0  0  0  0  0  0  0  0  0
   -0.7238   98.0370   13.3843 C   0  0  0  0  0  0  0  0  0  0  0  0
    0.1013   99.0427   14.0701 N   0  0  0  0  0  0  0  0  0  0  0  0
    2.2374   91.6008   14.6799 C   0  0  2  0  0  0  0  0  0  0  0  0
    2.3373   90.6757   15.8188 N   0  0  0  0  0  0  0  0  0  0  0  0
    2.4648   93.0450   15.1310 C   0  0  0  0  0  0  0  0  0  0  0  0
    2.4808   93.9409   13.8882 C   0  0  2  0  0  0  0  0  0  0  0  0
    2.6106   95.3450   14.3037 N   0  0  0  0  0  0  0  0  0  0  0  0
    1.1984   93.8151   13.0606 C   0  0  2  0  0  0  0  0  0  0  0  0
    0.7672   92.3821   12.7689 C   0  0  2  0  0  0  0  0  0  0  0  0
   -0.6041   92.4702   12.3493 O   0  0  0  0  0  0  0  0  0  0  0  0
    0.8628   91.4925   14.0155 C   0  0  1  0  0  0  0  0  0  0  0  0
    0.6458   90.1196   13.6793 O   0  0  0  0  0  0  0  0  0  0  0  0
   -0.8350   92.3225   10.9389 C   0  0  1  0  0  0  0  0  0  0  0  0
   -0.3108   90.9460   10.5268 C   0  0  2  0  0  0  0  0  0  0  0  0
    1.0965   91.0197   10.2861 O   0  0  0  0  0  0  0  0  0  0  0  0
   -1.0484   90.8023    9.1988 C   0  0  1  0  0  0  0  0  0  0  0  0
   -2.4405   91.2575    9.6075 C   0  0  2  0  0  0  0  0  0  0  0  0
   -2.2333   92.2967   10.5862 O   0  0  0  0  0  0  0  0  0  0  0  0
   -3.2055   90.0654   10.1939 C   0  0  0  0  0  0  0  0  0  0  0  0
   -2.6481   89.6817   11.4542 O   0  0  0  0  0  0  0  0  0  0  0  0
   -0.8745   91.2956    6.9130 C   0  0  2  0  0  0  0  0  0  0  0  0
   -0.4962   91.7120    8.2340 O   0  0  0  0  0  0  0  0  0  0  0  0
   -0.1012   92.1163    5.8759 C   0  0  1  0  0  0  0  0  0  0  0  0
   -4.8784   90.2951    6.4337 N   0  0  0  0  0  0  0  0  0  0  0  0
   -0.5637   91.7595    4.4591 C   0  0  1  0  0  0  0  0  0  0  0  0
   -0.1712   90.4230    4.1306 O   0  0  0  0  0  0  0  0  0  0  0  0
   -2.0858   91.8933    4.3613 C   0  0  2  0  0  0  0  0  0  0  0  0
   -2.4346   93.2708    4.5356 O   0  0  0  0  0  0  0  0  0  0  0  0
   -2.7469   91.0420    5.4507 C   0  0  1  0  0  0  0  0  0  0  0  0
   -2.2930   91.4683    6.7488 O   0  0  0  0  0  0  0  0  0  0  0  0
   -4.2741   91.1257    5.3817 C   0  0  0  0  0  0  0  0  0  0  0  0
   -0.3713   93.5434    6.1070 N   0  0  0  0  0  0  0  0  0  0  0  0
  1  2  1  1  0  0  0
  1  3  1  0  0  0  0
  1 10  1  0  0  0  0
  3  4  1  6  0  0  0
  3  5  1  0  0  0  0
  5  6  1  6  0  0  0
  5  7  1  0  0  0  0
  7  8  1  1  0  0  0
  7  9  1  0  0  0  0
  9 10  1  0  0  0  0
  9 11  1  1  0  0  0
 11 12  1  0  0  0  0
 13 14  1  1  0  0  0
 13 15  1  0  0  0  0
 13 21  1  0  0  0  0
 16 15  1  0  0  0  0
 16 17  1  1  0  0  0
 18  2  1  6  0  0  0
 18 16  1  0  0  0  0
 19 18  1  0  0  0  0
 19 20  1  1  0  0  0
 21 19  1  0  0  0  0
 21 22  1  6  0  0  0
 23 20  1  1  0  0  0
 23 24  1  0  0  0  0
 23 28  1  0  0  0  0
 24 25  1  6  0  0  0
 24 26  1  0  0  0  0
 26 27  1  0  0  0  0
 26 32  1  6  0  0  0
 27 28  1  0  0  0  0
 27 29  1  1  0  0  0
 29 30  1  0  0  0  0
 31 32  1  1  0  0  0
 31 40  1  0  0  0  0
 33 31  1  0  0  0  0
 33 42  1  1  0  0  0
 35 33  1  0  0  0  0
 35 36  1  1  0  0  0
 37 35  1  0  0  0  0
 37 38  1  1  0  0  0
 37 39  1  0  0  0  0
 39 40  1  0  0  0  0
 39 41  1  1  0  0  0
 41 34  1  0  0  0  0
M  END
>  <CHROM.1>
-176.97130173,-73.46568567,-155.77174000,104.24441078,59.60260674,161.75724850
69.14656342,-170.56842089,179.74304937,-0.25739839,93.22081152,10.17309660
-0.08535867,-1.18748601,-0.58622812

>  <Name>
2fcy_lig

>  <RI>
224

>  <Rbt.Current_Directory>
/home/itssahil/PROJECTS/Mol_Feturizer/New_Systems/rnas/2fcy

>  <Rbt.Executable>
rbdock ($Id: //depot/dev/client3/rdock/2013.1/src/exe/rbdock.cxx#4 $)

>  <Rbt.Library>
libRbt.so (2013.1, Build901 2013/11/27)

>  <Rbt.Parameter_File>
/export/apps/rDock/src/rDock_2013.1_src/data/scripts/dock_solv.prm

>  <Rbt.Receptor>
prm/pocket_docking_6.prm

>  <SCORE>
-15.6507

>  <SCORE.INTER>
-14.4056

>  <SCORE.INTER.CONST>
1

>  <SCORE.INTER.POLAR>
-3.00953

>  <SCORE.INTER.ROT>
9

>  <SCORE.INTER.SOLV>
14.752

>  <SCORE.INTER.VDW>
-14.0893

>  <SCORE.INTER.norm>
-0.342989

>  <SCORE.INTRA>
-1.24512

>  <SCORE.INTRA.DIHEDRAL>
-5.47544

>  <SCORE.INTRA.DIHEDRAL.0>
17.3446

>  <SCORE.INTRA.POLAR>
0

>  <SCORE.INTRA.POLAR.0>
0

>  <SCORE.INTRA.REPUL>
0

>  <SCORE.INTRA.REPUL.0>
0

>  <SCORE.INTRA.SOLV>
-0.567231

>  <SCORE.INTRA.SOLV.lig_0>
-112.452

>  <SCORE.INTRA.VDW>
1.77622

>  <SCORE.INTRA.VDW.0>
-5.95059

>  <SCORE.INTRA.norm>
-0.0296456

>  <SCORE.RESTR>
0

>  <SCORE.RESTR.CAVITY>
0

>  <SCORE.RESTR.norm>
0

>  <SCORE.SYSTEM>
0

>  <SCORE.SYSTEM.CONST>
0

>  <SCORE.SYSTEM.DIHEDRAL>
0

>  <SCORE.SYSTEM.SOLV>
0

>  <SCORE.SYSTEM.norm>
0

>  <SCORE.heavy>
42

>  <SCORE.norm>
-0.372635

>  <RMSD>
5.136

$$$$
2fcy_lig
 OpenBabel11021811433D
libRbt.so/2013.1/901 2013/11/27
 42 45  0  0  0  0  0  0  0  0999 V2000
   -0.5637   90.7683   13.5817 C   0  0  2  0  0  0  0  0  0  0  0  0
   -1.6137   91.7070   13.8709 O   0  0  0  0  0  0  0  0  0  0  0  0
    0.2140   90.6114   14.8892 C   0  0  2  0  0  0  0  0  0  0  0  0
   -0.7246   90.2277   15.9525 N   0  0  0  0  0  0  0  0  0  0  0  0
    0.8784   91.9416   15.2528 C   0  0  1  0  0  0  0  0  0  0  0  0
    1.6163   91.8184   16.4718 O   0  0  0  0  0  0  0  0  0  0  0  0
    1.7981   92.3773   14.1116 C   0  0  2  0  0  0  0  0  0  0  0  0
    2.3413   93.6632   14.4102 O   0  0  0  0  0  0  0  0  0  0  0  0
    0.9711   92.4964   12.8306 C   0  0  2  0  0  0  0  0  0  0  0  0
    0.3312   91.2408   12.5539 O   0  0  0  0  0  0  0  0  0  0  0  0
    1.8839   92.9227   11.6778 C   0  0  0  0  0  0  0  0  0  0  0  0
    2.2888   94.3294   11.8198 N   0  0  0  0  0  0  0  0  0  0  0  0
   -5.4380   92.1981   12.2037 C   0  0  2  0  0  0  0  0  0  0  0  0
   -6.6358   92.4169   11.3789 N   0  0  0  0  0  0  0  0  0  0  0  0
   -4.5061   93.4099   12.1414 C   0  0  0  0  0  0  0  0  0  0  0  0
   -3.3492   93.1785   13.1187 C   0  0  2  0  0  0  0  0  0  0  0  0
   -2.3940   94.2908   13.0122 N   0  0  0  0  0  0  0  0  0  0  0  0
   -2.5895   91.8808   12.8283 C   0  0  2  0  0  0  0  0  0  0  0  0
   -3.4748   90.6545   12.6363 C   0  0  2  0  0  0  0  0  0  0  0  0
   -2.6389   89.6708   12.0057 O   0  0  0  0  0  0  0  0  0  0  0  0
   -4.6784   90.9553   11.7332 C   0  0  1  0  0  0  0  0  0  0  0  0
   -5.5957   89.8583   11.7249 O   0  0  0  0  0  0  0  0  0  0  0  0
   -2.2258   89.9722   10.6630 C   0  0  1  0  0  0  0  0  0  0  0  0
   -1.2568   88.8745   10.2206 C   0  0  2  0  0  0  0  0  0  0  0  0
    0.0591   89.1766   10.6906 O   0  0  0  0  0  0  0  0  0  0  0  0
   -1.3233   89.0973    8.7125 C   0  0  1  0  0  0  0  0  0  0  0  0
   -2.8253   89.2374    8.5217 C   0  0  2  0  0  0  0  0  0  0  0  0
   -3.3018   89.9117    9.7045 O   0  0  0  0  0  0  0  0  0  0  0  0
   -3.4436   87.8427    8.3716 C   0  0  0  0  0  0  0  0  0  0  0  0
   -4.8615   87.9368    8.2062 O   0  0  0  0  0  0  0  0  0  0  0  0
   -0.1732   90.2519    7.0265 C   0  0  2  0  0  0  0  0  0  0  0  0
   -0.6666   90.3288    8.3726 O   0  0  0  0  0  0  0  0  0  0  0  0
    0.7710   91.4283    6.7587 C   0  0  1  0  0  0  0  0  0  0  0  0
   -2.8191   88.8119    4.1061 N   0  0  0  0  0  0  0  0  0  0  0  0
    1.2300   91.4234    5.2966 C   0  0  1  0  0  0  0  0  0  0  0  0
    2.0801   90.2994    5.0470 O   0  0  0  0  0  0  0  0  0  0  0  0
    0.0116   91.3695    4.3708 C   0  0  2  0  0  0  0  0  0  0  0  0
   -0.7339   92.5816    4.5274 O   0  0  0  0  0  0  0  0  0  0  0  0
   -0.8605   90.1647    4.7399 C   0  0  1  0  0  0  0  0  0  0  0  0
   -1.2835   90.2679    6.1122 O   0  0  0  0  0  0  0  0  0  0  0  0
   -2.0845   90.0545    3.8266 C   0  0  0  0  0  0  0  0  0  0  0  0
    0.0462   92.6824    7.0138 N   0  0  0  0  0  0  0  0  0  0  0  0
  1  2  1  1  0  0  0
  1  3  1  0  0  0  0
  1 10  1  0  0  0  0
  3  4  1  1  0  0  0
  3  5  1  0  0  0  0
  5  6  1  1  0  0  0
  5  7  1  0  0  0  0
  7  8  1  1  0  0  0
  7  9  1  0  0  0  0
  9 10  1  0  0  0  0
  9 11  1  6  0  0  0
 11 12  1  0  0  0  0
 13 14  1  6  0  0  0
 13 15  1  0  0  0  0
 13 21  1  0  0  0  0
 16 15  1  0  0  0  0
 16 17  1  6  0  0  0
 18  2  1  1  0  0  0
 18 16  1  0  0  0  0
 19 18  1  0  0  0  0
 19 20  1  6  0  0  0
 21 19  1  0  0  0  0
 21 22  1  1  0  0  0
 23 20  1  1  0  0  0
 23 24  1  0  0  0  0
 23 28  1  0  0  0  0
 24 25  1  1  0  0  0
 24 26  1  0  0  0  0
 26 27  1  0  0  0  0
 26 32  1  1  0  0  0
 27 28  1  0  0  0  0
 27 29  1  1  0  0  0
 29 30  1  0  0  0  0
 31 32  1  1  0  0  0
 31 40  1  0  0  0  0
 33 31  1  0  0  0  0
 33 42  1  6  0  0  0
 35 33  1  0  0  0  0
 35 36  1  1  0  0  0
 37 35  1  0  0  0  0
 37 38  1  1  0  0  0
 37 39  1  0  0  0  0
 39 40  1  0  0  0  0
 39 41  1  6  0  0  0
 41 34  1  0  0  0  0
M  END
>  <CHROM.1>
-172.17720064,-71.93461016,-163.12291403,-67.34581876,175.20666226,153.07654505
179.29534232,-168.26435429,173.74824430,-1.31642357,91.03985747,10.29039050
-1.51085441,-0.28645696,-1.75446126

>  <Name>
2fcy_lig

>  <RI>
0

>  <Rbt.Current_Directory>
/home/itssahil/PROJECTS/Mol_Feturizer/New_Systems/rnas/2fcy

>  <Rbt.Executable>
rbdock ($Id: //depot/dev/client3/rdock/2013.1/src/exe/rbdock.cxx#4 $)

>  <Rbt.Library>
libRbt.so (2013.1, Build901 2013/11/27)

>  <Rbt.Parameter_File>
/export/apps/rDock/src/rDock_2013.1_src/data/scripts/dock_solv.prm

>  <Rbt.Receptor>
prm/pocket_docking_5.prm

>  <SCORE>
-17.5368

>  <SCORE.INTER>
-12.8004

>  <SCORE.INTER.CONST>
1

>  <SCORE.INTER.POLAR>
-0.674987

>  <SCORE.INTER.ROT>
9

>  <SCORE.INTER.SOLV>
15.9932

>  <SCORE.INTER.VDW>
-21.2147

>  <SCORE.INTER.norm>
-0.304772

>  <SCORE.INTRA>
-4.73634

>  <SCORE.INTRA.DIHEDRAL>
-10.7248

>  <SCORE.INTRA.DIHEDRAL.0>
17.3446

>  <SCORE.INTRA.POLAR>
0

>  <SCORE.INTRA.POLAR.0>
0

>  <SCORE.INTRA.REPUL>
0.00432231

>  <SCORE.INTRA.REPUL.0>
0

>  <SCORE.INTRA.SOLV>
-3.65142

>  <SCORE.INTRA.SOLV.lig_0>
-112.452

>  <SCORE.INTRA.VDW>
2.43017

>  <SCORE.INTRA.VDW.0>
-5.95059

>  <SCORE.INTRA.norm>
-0.11277

>  <SCORE.RESTR>
0

>  <SCORE.RESTR.CAVITY>
0

>  <SCORE.RESTR.norm>
0

>  <SCORE.SYSTEM>
0

>  <SCORE.SYSTEM.CONST>
0

>  <SCORE.SYSTEM.DIHEDRAL>
0

>  <SCORE.SYSTEM.SOLV>
0

>  <SCORE.SYSTEM.norm>
0

>  <SCORE.heavy>
42

>  <SCORE.norm>
-0.417542

>  <RMSD>
5.340

$$$$
2fcy_lig
 OpenBabel11021811433D
libRbt.so/2013.1/901 2013/11/27
 42 45  0  0  0  0  0  0  0  0999 V2000
   -1.4236   90.0325   11.6415 C   0  0  2  0  0  0  0  0  0  0  0  0
   -1.0987   91.2813   11.0073 O   0  0  0  0  0  0  0  0  0  0  0  0
   -1.1192   88.9552   10.5995 C   0  0  2  0  0  0  0  0  0  0  0  0
    0.2711   89.1129   10.1511 N   0  0  0  0  0  0  0  0  0  0  0  0
   -2.0609   89.1184    9.4037 C   0  0  1  0  0  0  0  0  0  0  0  0
   -1.7977   88.1178    8.4162 O   0  0  0  0  0  0  0  0  0  0  0  0
   -3.5098   89.0291    9.8839 C   0  0  2  0  0  0  0  0  0  0  0  0
   -4.3858   89.2778    8.7845 O   0  0  0  0  0  0  0  0  0  0  0  0
   -3.7478   90.1134   10.9360 C   0  0  2  0  0  0  0  0  0  0  0  0
   -2.8143   89.9485   12.0148 O   0  0  0  0  0  0  0  0  0  0  0  0
   -5.1937   90.0274   11.4319 C   0  0  0  0  0  0  0  0  0  0  0  0
   -5.5360   91.1930   12.2606 N   0  0  0  0  0  0  0  0  0  0  0  0
    1.6564   94.1906   12.2690 C   0  0  2  0  0  0  0  0  0  0  0  0
    2.8061   94.9947   12.7101 N   0  0  0  0  0  0  0  0  0  0  0  0
    1.4077   93.0252   13.2285 C   0  0  0  0  0  0  0  0  0  0  0  0
    0.1258   92.3080   12.7932 C   0  0  2  0  0  0  0  0  0  0  0  0
   -0.0864   91.1313   13.6483 N   0  0  0  0  0  0  0  0  0  0  0  0
    0.1906   91.8251   11.3414 C   0  0  2  0  0  0  0  0  0  0  0  0
    0.6671   92.8737   10.3425 C   0  0  2  0  0  0  0  0  0  0  0  0
    1.0266   92.1430    9.1589 O   0  0  0  0  0  0  0  0  0  0  0  0
    1.8916   93.6400   10.8602 C   0  0  1  0  0  0  0  0  0  0  0  0
    2.2010   94.7434   10.0047 O   0  0  0  0  0  0  0  0  0  0  0  0
    0.1202   92.2664    8.0509 C   0  0  1  0  0  0  0  0  0  0  0  0
    0.6865   93.3285    7.1071 C   0  0  2  0  0  0  0  0  0  0  0  0
    0.3038   94.6288    7.5616 O   0  0  0  0  0  0  0  0  0  0  0  0
   -0.1059   92.9734    5.8523 C   0  0  1  0  0  0  0  0  0  0  0  0
    0.0420   91.4600    5.8536 C   0  0  2  0  0  0  0  0  0  0  0  0
    0.0356   91.0742    7.2435 O   0  0  0  0  0  0  0  0  0  0  0  0
    1.3582   91.0846    5.1631 C   0  0  0  0  0  0  0  0  0  0  0  0
    1.3047   91.4070    3.7704 O   0  0  0  0  0  0  0  0  0  0  0  0
   -2.1751   93.2133    4.7756 C   0  0  2  0  0  0  0  0  0  0  0  0
   -1.4852   93.3336    6.0290 O   0  0  0  0  0  0  0  0  0  0  0  0
   -3.5148   93.9522    4.8551 C   0  0  1  0  0  0  0  0  0  0  0  0
   -1.7536   89.5556    2.8540 N   0  0  0  0  0  0  0  0  0  0  0  0
   -4.3135   93.7515    3.5627 C   0  0  1  0  0  0  0  0  0  0  0  0
   -3.6710   94.4210    2.4731 O   0  0  0  0  0  0  0  0  0  0  0  0
   -4.4353   92.2565    3.2552 C   0  0  2  0  0  0  0  0  0  0  0  0
   -5.2208   91.6423    4.2825 O   0  0  0  0  0  0  0  0  0  0  0  0
   -3.0394   91.6258    3.2132 C   0  0  1  0  0  0  0  0  0  0  0  0
   -2.3751   91.8208    4.4755 O   0  0  0  0  0  0  0  0  0  0  0  0
   -3.1061   90.1312    2.8876 C   0  0  0  0  0  0  0  0  0  0  0  0
   -4.2934   93.3982    5.9731 N   0  0  0  0  0  0  0  0  0  0  0  0
  1  2  1  6  0  0  0
  1  3  1  0  0  0  0
  1 10  1  0  0  0  0
  3  4  1  6  0  0  0
  3  5  1  0  0  0  0
  5  6  1  6  0  0  0
  5  7  1  0  0  0  0
  7  8  1  6  0  0  0
  7  9  1  0  0  0  0
  9 10  1  0  0  0  0
  9 11  1  1  0  0  0
 11 12  1  0  0  0  0
 13 14  1  1  0  0  0
 13 15  1  0  0  0  0
 13 21  1  0  0  0  0
 16 15  1  0  0  0  0
 16 17  1  1  0  0  0
 18  2  1  6  0  0  0
 18 16  1  0  0  0  0
 19 18  1  0  0  0  0
 19 20  1  6  0  0  0
 21 19  1  0  0  0  0
 21 22  1  6  0  0  0
 23 20  1  1  0  0  0
 23 24  1  0  0  0  0
 23 28  1  0  0  0  0
 24 25  1  1  0  0  0
 24 26  1  0  0  0  0
 26 27  1  0  0  0  0
 26 32  1  1  0  0  0
 27 28  1  0  0  0  0
 27 29  1  1  0  0  0
 29 30  1  0  0  0  0
 31 32  1  1  0  0  0
 31 40  1  0  0  0  0
 33 31  1  0  0  0  0
 33 42  1  1  0  0  0
 35 33  1  0  0  0  0
 35 36  1  6  0  0  0
 37 35  1  0  0  0  0
 37 38  1  1  0  0  0
 37 39  1  0  0  0  0
 39 40  1  0  0  0  0
 39 41  1  1  0  0  0
 41 34  1  0  0  0  0
M  END
>  <CHROM.1>
-98.71374857,-169.85551994,-70.82928001,106.79140438,97.81842221,170.13716109
-67.15944910,-164.33621040,179.98012984,-1.34155157,91.76881443,8.10712687
1.17105070,0.57714809,1.82903526

>  <Name>
2fcy_lig

>  <RI>
2.89127e+07

>  <Rbt.Current_Directory>
/home/itssahil/PROJECTS/Mol_Feturizer/New_Systems/rnas/2fcy

>  <Rbt.Executable>
rbdock ($Id: //depot/dev/client3/rdock/2013.1/src/exe/rbdock.cxx#4 $)

>  <Rbt.Library>
libRbt.so (2013.1, Build901 2013/11/27)

>  <Rbt.Parameter_File>
/export/apps/rDock/src/rDock_2013.1_src/data/scripts/dock_solv.prm

>  <Rbt.Receptor>
prm/pocket_docking_7.prm

>  <SCORE>
-17.123

>  <SCORE.INTER>
-20.0929

>  <SCORE.INTER.CONST>
1

>  <SCORE.INTER.POLAR>
-2.22569

>  <SCORE.INTER.ROT>
9

>  <SCORE.INTER.SOLV>
15.1015

>  <SCORE.INTER.VDW>
-20.6101

>  <SCORE.INTER.norm>
-0.478402

>  <SCORE.INTRA>
2.96988

>  <SCORE.INTRA.DIHEDRAL>
2.45329

>  <SCORE.INTRA.DIHEDRAL.0>
17.3446

>  <SCORE.INTRA.POLAR>
0

>  <SCORE.INTRA.POLAR.0>
0

>  <SCORE.INTRA.REPUL>
0

>  <SCORE.INTRA.REPUL.0>
0

>  <SCORE.INTRA.SOLV>
0.142251

>  <SCORE.INTRA.SOLV.lig_0>
-112.452

>  <SCORE.INTRA.VDW>
1.67211

>  <SCORE.INTRA.VDW.0>
-5.95059

>  <SCORE.INTRA.norm>
0.0707115

>  <SCORE.RESTR>
0

>  <SCORE.RESTR.CAVITY>
0

>  <SCORE.RESTR.norm>
0

>  <SCORE.SYSTEM>
0

>  <SCORE.SYSTEM.CONST>
0

>  <SCORE.SYSTEM.DIHEDRAL>
0

>  <SCORE.SYSTEM.SOLV>
0

>  <SCORE.SYSTEM.norm>
0

>  <SCORE.heavy>
42

>  <SCORE.norm>
-0.40769

>  <RMSD>
5.346

$$$$
2fcy_lig
 OpenBabel11021811433D
libRbt.so/2013.1/901 2013/11/27
 42 45  0  0  0  0  0  0  0  0999 V2000
    0.1027   95.0445   10.9884 C   0  0  2  0  0  0  0  0  0  0  0  0
    1.2632   94.8510   11.8147 O   0  0  0  0  0  0  0  0  0  0  0  0
    0.6010   95.8036    9.7577 C   0  0  2  0  0  0  0  0  0  0  0  0
    1.7082   95.0489    9.1550 N   0  0  0  0  0  0  0  0  0  0  0  0
    1.0987   97.1891   10.1773 C   0  0  1  0  0  0  0  0  0  0  0  0
    1.5666   97.9207    9.0408 O   0  0  0  0  0  0  0  0  0  0  0  0
   -0.0339   97.9456   10.8721 C   0  0  2  0  0  0  0  0  0  0  0  0
    0.4593   99.1978   11.3478 O   0  0  0  0  0  0  0  0  0  0  0  0
   -0.5034   97.1305   12.0781 C   0  0  2  0  0  0  0  0  0  0  0  0
   -0.9174   95.8257   11.6439 O   0  0  0  0  0  0  0  0  0  0  0  0
   -1.6451   97.8738   12.7766 C   0  0  0  0  0  0  0  0  0  0  0  0
   -2.8299   97.9531   11.9091 N   0  0  0  0  0  0  0  0  0  0  0  0
    2.1343   91.9300   14.7054 C   0  0  2  0  0  0  0  0  0  0  0  0
    2.2151   91.0145   15.8535 N   0  0  0  0  0  0  0  0  0  0  0  0
    2.2032   93.3874   15.1661 C   0  0  0  0  0  0  0  0  0  0  0  0
    2.2486   94.2834   13.9242 C   0  0  2  0  0  0  0  0  0  0  0  0
    2.2269   95.6928   14.3416 N   0  0  0  0  0  0  0  0  0  0  0  0
    1.0544   94.0533   12.9935 C   0  0  2  0  0  0  0  0  0  0  0  0
    0.7688   92.5900   12.6746 C   0  0  2  0  0  0  0  0  0  0  0  0
   -0.5653   92.5650   12.1420 O   0  0  0  0  0  0  0  0  0  0  0  0
    0.8334   91.7093   13.9296 C   0  0  1  0  0  0  0  0  0  0  0  0
    0.7594   90.3237   13.5838 O   0  0  0  0  0  0  0  0  0  0  0  0
   -0.6828   92.1390   10.7749 C   0  0  1  0  0  0  0  0  0  0  0  0
   -0.2725   90.6668   10.7131 C   0  0  2  0  0  0  0  0  0  0  0  0
    1.1506   90.5678   10.6190 O   0  0  0  0  0  0  0  0  0  0  0  0
   -0.8987   90.3053    9.3694 C   0  0  1  0  0  0  0  0  0  0  0  0
   -2.2658   90.9537    9.5204 C   0  0  2  0  0  0  0  0  0  0  0  0
   -2.0385   92.1568   10.2829 O   0  0  0  0  0  0  0  0  0  0  0  0
   -3.2025   89.9839   10.2500 C   0  0  0  0  0  0  0  0  0  0  0  0
   -4.5086   90.5519   10.3838 O   0  0  0  0  0  0  0  0  0  0  0  0
   -0.5547   90.3576    7.0504 C   0  0  2  0  0  0  0  0  0  0  0  0
   -0.1686   90.9373    8.3059 O   0  0  0  0  0  0  0  0  0  0  0  0
    0.3591   90.8853    5.9397 C   0  0  1  0  0  0  0  0  0  0  0  0
   -4.1625   91.8173    5.4550 N   0  0  0  0  0  0  0  0  0  0  0  0
   -0.0988   90.3586    4.5754 C   0  0  1  0  0  0  0  0  0  0  0  0
    0.1179   88.9465    4.4903 O   0  0  0  0  0  0  0  0  0  0  0  0
   -1.5840   90.6699    4.3712 C   0  0  2  0  0  0  0  0  0  0  0  0
   -1.7464   92.0905    4.3002 O   0  0  0  0  0  0  0  0  0  0  0  0
   -2.3926   90.1065    5.5447 C   0  0  1  0  0  0  0  0  0  0  0  0
   -1.9296   90.6824    6.7803 O   0  0  0  0  0  0  0  0  0  0  0  0
   -3.8907   90.3745    5.3766 C   0  0  0  0  0  0  0  0  0  0  0  0
    0.2794   92.3538    5.9212 N   0  0  0  0  0  0  0  0  0  0  0  0
  1  2  1  1  0  0  0
  1  3  1  0  0  0  0
  1 10  1  0  0  0  0
  3  4  1  1  0  0  0
  3  5  1  0  0  0  0
  5  6  1  6  0  0  0
  5  7  1  0  0  0  0
  7  8  1  1  0  0  0
  7  9  1  0  0  0  0
  9 10  1  0  0  0  0
  9 11  1  6  0  0  0
 11 12  1  0  0  0  0
 13 14  1  1  0  0  0
 13 15  1  0  0  0  0
 13 21  1  0  0  0  0
 16 15  1  0  0  0  0
 16 17  1  1  0  0  0
 18  2  1  6  0  0  0
 18 16  1  0  0  0  0
 19 18  1  0  0  0  0
 19 20  1  1  0  0  0
 21 19  1  0  0  0  0
 21 22  1  6  0  0  0
 23 20  1  1  0  0  0
 23 24  1  0  0  0  0
 23 28  1  0  0  0  0
 24 25  1  6  0  0  0
 24 26  1  0  0  0  0
 26 27  1  0  0  0  0
 26 32  1  6  0  0  0
 27 28  1  0  0  0  0
 27 29  1  1  0  0  0
 29 30  1  0  0  0  0
 31 32  1  1  0  0  0
 31 40  1  0  0  0  0
 33 31  1  0  0  0  0
 33 42  1  6  0  0  0
 35 33  1  0  0  0  0
 35 36  1  1  0  0  0
 37 35  1  0  0  0  0
 37 38  1  1  0  0  0
 37 39  1  0  0  0  0
 39 40  1  0  0  0  0
 39 41  1  6  0  0  0
 41 34  1  0  0  0  0
M  END
>  <CHROM.1>
-175.12117622,65.56339444,-164.28587159,116.15216141,66.07388757,166.65832467
-178.75158932,-172.03946684,-66.33903067,-0.34523402,93.00240803,10.00373472
0.46198490,-1.24850842,-0.12076981

>  <Name>
2fcy_lig

>  <RI>
224

>  <Rbt.Current_Directory>
/home/itssahil/PROJECTS/Mol_Feturizer/New_Systems/rnas/2fcy

>  <Rbt.Executable>
rbdock ($Id: //depot/dev/client3/rdock/2013.1/src/exe/rbdock.cxx#4 $)

>  <Rbt.Library>
libRbt.so (2013.1, Build901 2013/11/27)

>  <Rbt.Parameter_File>
/export/apps/rDock/src/rDock_2013.1_src/data/scripts/dock_solv.prm

>  <Rbt.Receptor>
prm/pocket_docking_6.prm

>  <SCORE>
-15.7989

>  <SCORE.INTER>
-13.6727

>  <SCORE.INTER.CONST>
1

>  <SCORE.INTER.POLAR>
-3.0516

>  <SCORE.INTER.ROT>
9

>  <SCORE.INTER.SOLV>
13.3727

>  <SCORE.INTER.VDW>
-13.0007

>  <SCORE.INTER.norm>
-0.32554

>  <SCORE.INTRA>
-2.12619

>  <SCORE.INTRA.DIHEDRAL>
-6.82877

>  <SCORE.INTRA.DIHEDRAL.0>
17.3446

>  <SCORE.INTRA.POLAR>
0

>  <SCORE.INTRA.POLAR.0>
0

>  <SCORE.INTRA.REPUL>
0.000603306

>  <SCORE.INTRA.REPUL.0>
0

>  <SCORE.INTRA.SOLV>
-1.61639

>  <SCORE.INTRA.SOLV.lig_0>
-112.452

>  <SCORE.INTRA.VDW>
2.09338

>  <SCORE.INTRA.VDW.0>
-5.95059

>  <SCORE.INTRA.norm>
-0.0506235

>  <SCORE.RESTR>
0

>  <SCORE.RESTR.CAVITY>
0

>  <SCORE.RESTR.norm>
0

>  <SCORE.SYSTEM>
0

>  <SCORE.SYSTEM.CONST>
0

>  <SCORE.SYSTEM.DIHEDRAL>
0

>  <SCORE.SYSTEM.SOLV>
0

>  <SCORE.SYSTEM.norm>
0

>  <SCORE.heavy>
42

>  <SCORE.norm>
-0.376164

>  <RMSD>
5.429

$$$$
2fcy_lig
 OpenBabel11021811433D
libRbt.so/2013.1/901 2013/11/27
 42 45  0  0  0  0  0  0  0  0999 V2000
    1.5812   96.7573   12.9832 C   0  0  2  0  0  0  0  0  0  0  0  0
    1.9186   95.3690   12.8219 O   0  0  0  0  0  0  0  0  0  0  0  0
    0.1782   96.9067   12.3931 C   0  0  2  0  0  0  0  0  0  0  0  0
   -0.7142   95.9416   13.0495 N   0  0  0  0  0  0  0  0  0  0  0  0
    0.2213   96.6192   10.8902 C   0  0  1  0  0  0  0  0  0  0  0  0
   -1.0807   96.7571   10.3144 O   0  0  0  0  0  0  0  0  0  0  0  0
    1.2078   97.5756   10.2193 C   0  0  2  0  0  0  0  0  0  0  0  0
    1.3188   97.2425    8.8357 O   0  0  0  0  0  0  0  0  0  0  0  0
    2.5834   97.3960   10.8633 C   0  0  2  0  0  0  0  0  0  0  0  0
    2.4860   97.6307   12.2768 O   0  0  0  0  0  0  0  0  0  0  0  0
    3.5781   98.3563   10.2060 C   0  0  0  0  0  0  0  0  0  0  0  0
    3.2430   99.7543   10.5156 N   0  0  0  0  0  0  0  0  0  0  0  0
    2.7828   92.4145   15.6803 C   0  0  2  0  0  0  0  0  0  0  0  0
    2.8544   91.4785   16.8125 N   0  0  0  0  0  0  0  0  0  0  0  0
    2.7985   93.8636   16.1710 C   0  0  0  0  0  0  0  0  0  0  0  0
    2.8563   94.7854   14.9487 C   0  0  2  0  0  0  0  0  0  0  0  0
    2.7840   96.1850   15.3924 N   0  0  0  0  0  0  0  0  0  0  0  0
    1.6967   94.5424   13.9782 C   0  0  2  0  0  0  0  0  0  0  0  0
    1.4604   93.0788   13.6226 C   0  0  2  0  0  0  0  0  0  0  0  0
    0.1438   93.0292   13.0498 O   0  0  0  0  0  0  0  0  0  0  0  0
    1.5118   92.1751   14.8617 C   0  0  1  0  0  0  0  0  0  0  0  0
    1.4856   90.7952   14.4870 O   0  0  0  0  0  0  0  0  0  0  0  0
    0.0812   92.6610   11.6624 C   0  0  1  0  0  0  0  0  0  0  0  0
    0.5931   91.2246   11.5422 C   0  0  2  0  0  0  0  0  0  0  0  0
    2.0211   91.2272   11.4745 O   0  0  0  0  0  0  0  0  0  0  0  0
    0.0181   90.8850   10.1702 C   0  0  1  0  0  0  0  0  0  0  0  0
   -1.3929   91.4311   10.3211 C   0  0  2  0  0  0  0  0  0  0  0  0
   -1.2632   92.6097   11.1426 O   0  0  0  0  0  0  0  0  0  0  0  0
   -2.2738   90.3666   10.9852 C   0  0  0  0  0  0  0  0  0  0  0  0
   -3.6282   90.8186   11.0729 O   0  0  0  0  0  0  0  0  0  0  0  0
    0.4548   91.0263    7.8707 C   0  0  2  0  0  0  0  0  0  0  0  0
    0.7224   91.6145    9.1528 O   0  0  0  0  0  0  0  0  0  0  0  0
    1.1868   91.8166    6.7814 C   0  0  1  0  0  0  0  0  0  0  0  0
   -3.1898   89.5420    5.0514 N   0  0  0  0  0  0  0  0  0  0  0  0
    0.8340   91.2683    5.3945 C   0  0  1  0  0  0  0  0  0  0  0  0
    1.3807   89.9564    5.2257 O   0  0  0  0  0  0  0  0  0  0  0  0
   -0.6872   91.2232    5.2263 C   0  0  2  0  0  0  0  0  0  0  0  0
   -1.1872   92.5646    5.2392 O   0  0  0  0  0  0  0  0  0  0  0  0
   -1.3070   90.4203    6.3750 C   0  0  1  0  0  0  0  0  0  0  0  0
   -0.9643   91.0244    7.6361 O   0  0  0  0  0  0  0  0  0  0  0  0
   -2.8295   90.3282    6.2405 C   0  0  0  0  0  0  0  0  0  0  0  0
    0.7570   93.2216    6.8484 N   0  0  0  0  0  0  0  0  0  0  0  0
  1  2  1  6  0  0  0
  1  3  1  0  0  0  0
  1 10  1  0  0  0  0
  3  4  1  1  0  0  0
  3  5  1  0  0  0  0
  5  6  1  6  0  0  0
  5  7  1  0  0  0  0
  7  8  1  6  0  0  0
  7  9  1  0  0  0  0
  9 10  1  0  0  0  0
  9 11  1  6  0  0  0
 11 12  1  0  0  0  0
 13 14  1  1  0  0  0
 13 15  1  0  0  0  0
 13 21  1  0  0  0  0
 16 15  1  0  0  0  0
 16 17  1  1  0  0  0
 18  2  1  6  0  0  0
 18 16  1  0  0  0  0
 19 18  1  0  0  0  0
 19 20  1  1  0  0  0
 21 19  1  0  0  0  0
 21 22  1  6  0  0  0
 23 20  1  1  0  0  0
 23 24  1  0  0  0  0
 23 28  1  0  0  0  0
 24 25  1  6  0  0  0
 24 26  1  0  0  0  0
 26 27  1  0  0  0  0
 26 32  1  6  0  0  0
 27 28  1  0  0  0  0
 27 29  1  1  0  0  0
 29 30  1  0  0  0  0
 31 32  1  1  0  0  0
 31 40  1  0  0  0  0
 33 31  1  0  0  0  0
 33 42  1  6  0  0  0
 35 33  1  0  0  0  0
 35 36  1  1  0  0  0
 37 35  1  0  0  0  0
 37 38  1  1  0  0  0
 37 39  1  0  0  0  0
 39 40  1  0  0  0  0
 39 41  1  6  0  0  0
 41 34  1  0  0  0  0
M  END
>  <CHROM.1>
-97.30137403,66.88717368,-78.22803423,114.62382332,64.19472316,163.70335810
-176.67053309,179.08823894,66.01634325,0.60171642,93.41420573,10.68366336
-0.35931391,-1.19635097,-0.95213501

>  <Name>
2fcy_lig

>  <RI>
224

>  <Rbt.Current_Directory>
/home/itssahil/PROJECTS/Mol_Feturizer/New_Systems/rnas/2fcy

>  <Rbt.Executable>
rbdock ($Id: //depot/dev/client3/rdock/2013.1/src/exe/rbdock.cxx#4 $)

>  <Rbt.Library>
libRbt.so (2013.1, Build901 2013/11/27)

>  <Rbt.Parameter_File>
/export/apps/rDock/src/rDock_2013.1_src/data/scripts/dock_solv.prm

>  <Rbt.Receptor>
prm/pocket_docking_6.prm

>  <SCORE>
-14.5191

>  <SCORE.INTER>
-16.3518

>  <SCORE.INTER.CONST>
1

>  <SCORE.INTER.POLAR>
-2.60127

>  <SCORE.INTER.ROT>
9

>  <SCORE.INTER.SOLV>
14.5265

>  <SCORE.INTER.VDW>
-16.6725

>  <SCORE.INTER.norm>
-0.389329

>  <SCORE.INTRA>
1.83275

>  <SCORE.INTRA.DIHEDRAL>
-1.70374

>  <SCORE.INTRA.DIHEDRAL.0>
17.3446

>  <SCORE.INTRA.POLAR>
0

>  <SCORE.INTRA.POLAR.0>
0

>  <SCORE.INTRA.REPUL>
0

>  <SCORE.INTRA.REPUL.0>
0

>  <SCORE.INTRA.SOLV>
0.26144

>  <SCORE.INTRA.SOLV.lig_0>
-112.452

>  <SCORE.INTRA.VDW>
2.5539

>  <SCORE.INTRA.VDW.0>
-5.95059

>  <SCORE.INTRA.norm>
0.0436369

>  <SCORE.RESTR>
0

>  <SCORE.RESTR.CAVITY>
0

>  <SCORE.RESTR.norm>
0

>  <SCORE.SYSTEM>
0

>  <SCORE.SYSTEM.CONST>
0

>  <SCORE.SYSTEM.DIHEDRAL>
0

>  <SCORE.SYSTEM.SOLV>
0

>  <SCORE.SYSTEM.norm>
0

>  <SCORE.heavy>
42

>  <SCORE.norm>
-0.345692

>  <RMSD>
5.438

$$$$
2fcy_lig
 OpenBabel11021811433D
libRbt.so/2013.1/901 2013/11/27
 42 45  0  0  0  0  0  0  0  0999 V2000
    0.0853   95.1058   10.7916 C   0  0  2  0  0  0  0  0  0  0  0  0
    1.2176   94.9548   11.6647 O   0  0  0  0  0  0  0  0  0  0  0  0
    0.6011   95.8972    9.5888 C   0  0  2  0  0  0  0  0  0  0  0  0
    1.7643   95.1967    9.0277 N   0  0  0  0  0  0  0  0  0  0  0  0
    1.0199   97.2989   10.0394 C   0  0  1  0  0  0  0  0  0  0  0  0
    1.5026   98.0606    8.9292 O   0  0  0  0  0  0  0  0  0  0  0  0
   -0.1727   97.9991   10.6915 C   0  0  2  0  0  0  0  0  0  0  0  0
    0.2452   99.2670   11.1969 O   0  0  0  0  0  0  0  0  0  0  0  0
   -0.6562   97.1533   11.8705 C   0  0  2  0  0  0  0  0  0  0  0  0
   -0.9944   95.8359   11.4093 O   0  0  0  0  0  0  0  0  0  0  0  0
   -1.8574   97.8400   12.5257 C   0  0  0  0  0  0  0  0  0  0  0  0
   -2.3996   97.0206   13.6200 N   0  0  0  0  0  0  0  0  0  0  0  0
    2.0405   92.0752   14.6105 C   0  0  2  0  0  0  0  0  0  0  0  0
    2.0992   91.1729   15.7703 N   0  0  0  0  0  0  0  0  0  0  0  0
    2.0786   93.5381   15.0572 C   0  0  0  0  0  0  0  0  0  0  0  0
    2.1488   94.4216   13.8075 C   0  0  2  0  0  0  0  0  0  0  0  0
    2.0981   95.8349   14.2089 N   0  0  0  0  0  0  0  0  0  0  0  0
    0.9846   94.1670   12.8456 C   0  0  2  0  0  0  0  0  0  0  0  0
    0.7260   92.6970   12.5345 C   0  0  2  0  0  0  0  0  0  0  0  0
   -0.5919   92.6500   11.9643 O   0  0  0  0  0  0  0  0  0  0  0  0
    0.7651   91.8304   13.8003 C   0  0  1  0  0  0  0  0  0  0  0  0
    0.7177   90.4404   13.4675 O   0  0  0  0  0  0  0  0  0  0  0  0
   -0.6687   92.1753   10.6104 C   0  0  1  0  0  0  0  0  0  0  0  0
   -0.3093   90.6886   10.6212 C   0  0  2  0  0  0  0  0  0  0  0  0
    1.1120   90.5373   10.5910 O   0  0  0  0  0  0  0  0  0  0  0  0
   -0.8927   90.2968    9.2667 C   0  0  1  0  0  0  0  0  0  0  0  0
   -2.2406   90.9971    9.3355 C   0  0  2  0  0  0  0  0  0  0  0  0
   -2.0016   92.2205   10.0613 O   0  0  0  0  0  0  0  0  0  0  0  0
   -3.2405   90.0891   10.0608 C   0  0  0  0  0  0  0  0  0  0  0  0
   -2.8341   89.8755   11.4156 O   0  0  0  0  0  0  0  0  0  0  0  0
   -0.4640   90.2584    6.9617 C   0  0  2  0  0  0  0  0  0  0  0  0
   -0.0975   90.8614    8.2121 O   0  0  0  0  0  0  0  0  0  0  0  0
    0.5698   90.6268    5.8927 C   0  0  1  0  0  0  0  0  0  0  0  0
   -4.5596   90.0114    6.1083 N   0  0  0  0  0  0  0  0  0  0  0  0
    0.1446   90.0782    4.5264 C   0  0  1  0  0  0  0  0  0  0  0  0
    0.2123   88.6486    4.5227 O   0  0  0  0  0  0  0  0  0  0  0  0
   -1.2823   90.5319    4.2065 C   0  0  2  0  0  0  0  0  0  0  0  0
   -1.2853   91.9558    4.0580 O   0  0  0  0  0  0  0  0  0  0  0  0
   -2.2195   90.1205    5.3470 C   0  0  1  0  0  0  0  0  0  0  0  0
   -1.7759   90.7105    6.5830 O   0  0  0  0  0  0  0  0  0  0  0  0
   -3.6662   90.5345    5.0643 C   0  0  0  0  0  0  0  0  0  0  0  0
    0.6506   92.0924    5.7999 N   0  0  0  0  0  0  0  0  0  0  0  0
  1  2  1  1  0  0  0
  1  3  1  0  0  0  0
  1 10  1  0  0  0  0
  3  4  1  1  0  0  0
  3  5  1  0  0  0  0
  5  6  1  6  0  0  0
  5  7  1  0  0  0  0
  7  8  1  1  0  0  0
  7  9  1  0  0  0  0
  9 10  1  0  0  0  0
  9 11  1  6  0  0  0
 11 12  1  0  0  0  0
 13 14  1  1  0  0  0
 13 15  1  0  0  0  0
 13 21  1  0  0  0  0
 16 15  1  0  0  0  0
 16 17  1  1  0  0  0
 18  2  1  6  0  0  0
 18 16  1  0  0  0  0
 19 18  1  0  0  0  0
 19 20  1  1  0  0  0
 21 19  1  0  0  0  0
 21 22  1  6  0  0  0
 23 20  1  1  0  0  0
 23 24  1  0  0  0  0
 23 28  1  0  0  0  0
 24 25  1  6  0  0  0
 24 26  1  0  0  0  0
 26 27  1  0  0  0  0
 26 32  1  6  0  0  0
 27 28  1  0  0  0  0
 27 29  1  1  0  0  0
 29 30  1  0  0  0  0
 31 32  1  1  0  0  0
 31 40  1  0  0  0  0
 33 31  1  0  0  0  0
 33 42  1  6  0  0  0
 35 33  1  0  0  0  0
 35 36  1  1  0  0  0
 37 35  1  0  0  0  0
 37 38  1  1  0  0  0
 37 39  1  0  0  0  0
 39 40  1  0  0  0  0
 39 41  1  6  0  0  0
 41 34  1  0  0  0  0
M  END
>  <CHROM.1>
-176.69236131,176.88296288,-165.33522223,117.70403259,68.30884939,167.35655859
63.66273043,-167.92784514,174.41250948,-0.28458294,92.94179853,9.95332059
0.30130700,-1.32318900,-0.33171886

>  <Name>
2fcy_lig

>  <RI>
2.89127e+07

>  <Rbt.Current_Directory>
/home/itssahil/PROJECTS/Mol_Feturizer/New_Systems/rnas/2fcy

>  <Rbt.Executable>
rbdock ($Id: //depot/dev/client3/rdock/2013.1/src/exe/rbdock.cxx#4 $)

>  <Rbt.Library>
libRbt.so (2013.1, Build901 2013/11/27)

>  <Rbt.Parameter_File>
/export/apps/rDock/src/rDock_2013.1_src/data/scripts/dock_solv.prm

>  <Rbt.Receptor>
prm/pocket_docking_7.prm

>  <SCORE>
-16.6225

>  <SCORE.INTER>
-13.6076

>  <SCORE.INTER.CONST>
1

>  <SCORE.INTER.POLAR>
-3.0731

>  <SCORE.INTER.ROT>
9

>  <SCORE.INTER.SOLV>
16.947

>  <SCORE.INTER.VDW>
-14.0771

>  <SCORE.INTER.norm>
-0.323991

>  <SCORE.INTRA>
-3.02686

>  <SCORE.INTRA.DIHEDRAL>
-6.58825

>  <SCORE.INTRA.DIHEDRAL.0>
17.3446

>  <SCORE.INTRA.POLAR>
0

>  <SCORE.INTRA.POLAR.0>
0

>  <SCORE.INTRA.REPUL>
0.0056817

>  <SCORE.INTRA.REPUL.0>
0

>  <SCORE.INTRA.SOLV>
-3.53394

>  <SCORE.INTRA.SOLV.lig_0>
-112.452

>  <SCORE.INTRA.VDW>
2.00583

>  <SCORE.INTRA.VDW.0>
-5.95059

>  <SCORE.INTRA.norm>
-0.072068

>  <SCORE.RESTR>
0.0119538

>  <SCORE.RESTR.CAVITY>
0.0119538

>  <SCORE.RESTR.norm>
0.000284613

>  <SCORE.SYSTEM>
0

>  <SCORE.SYSTEM.CONST>
0

>  <SCORE.SYSTEM.DIHEDRAL>
0

>  <SCORE.SYSTEM.SOLV>
0

>  <SCORE.SYSTEM.norm>
0

>  <SCORE.heavy>
42

>  <SCORE.norm>
-0.395774

>  <RMSD>
5.464

$$$$
2fcy_lig
 OpenBabel11021811433D
libRbt.so/2013.1/901 2013/11/27
 42 45  0  0  0  0  0  0  0  0999 V2000
    3.9676   94.7096   14.0470 C   0  0  2  0  0  0  0  0  0  0  0  0
    3.8085   94.2349   15.3948 O   0  0  0  0  0  0  0  0  0  0  0  0
    5.1713   95.6524   14.0866 C   0  0  2  0  0  0  0  0  0  0  0  0
    6.3158   94.9313   14.6600 N   0  0  0  0  0  0  0  0  0  0  0  0
    4.8437   96.8648   14.9617 C   0  0  1  0  0  0  0  0  0  0  0  0
    5.9546   97.7644   15.0107 O   0  0  0  0  0  0  0  0  0  0  0  0
    3.6065   97.5711   14.4066 C   0  0  2  0  0  0  0  0  0  0  0  0
    3.2460   98.6428   15.2779 O   0  0  0  0  0  0  0  0  0  0  0  0
    2.4454   96.5761   14.3713 C   0  0  2  0  0  0  0  0  0  0  0  0
    2.8136   95.4369   13.5782 O   0  0  0  0  0  0  0  0  0  0  0  0
    1.2026   97.2698   13.8074 C   0  0  0  0  0  0  0  0  0  0  0  0
    1.4487   97.7641   12.4444 N   0  0  0  0  0  0  0  0  0  0  0  0
    1.5193   91.1560   17.1054 C   0  0  2  0  0  0  0  0  0  0  0  0
    0.5003   90.2050   17.5746 N   0  0  0  0  0  0  0  0  0  0  0  0
    1.1664   92.5835   17.5276 C   0  0  0  0  0  0  0  0  0  0  0  0
    2.3241   93.5041   17.1284 C   0  0  2  0  0  0  0  0  0  0  0  0
    1.9698   94.8951   17.4456 N   0  0  0  0  0  0  0  0  0  0  0  0
    2.6388   93.4317   15.6314 C   0  0  2  0  0  0  0  0  0  0  0  0
    2.7699   92.0178   15.0762 C   0  0  2  0  0  0  0  0  0  0  0  0
    2.6698   92.1533   13.6494 O   0  0  0  0  0  0  0  0  0  0  0  0
    1.6484   91.1003   15.5812 C   0  0  1  0  0  0  0  0  0  0  0  0
    1.8973   89.7413   15.2121 O   0  0  0  0  0  0  0  0  0  0  0  0
    1.5092   92.8511   13.1695 C   0  0  1  0  0  0  0  0  0  0  0  0
    1.0068   92.1124   11.9279 C   0  0  2  0  0  0  0  0  0  0  0  0
    1.7398   92.5474   10.7802 O   0  0  0  0  0  0  0  0  0  0  0  0
   -0.4086   92.6801   11.8742 C   0  0  1  0  0  0  0  0  0  0  0  0
   -0.8085   92.5590   13.3363 C   0  0  2  0  0  0  0  0  0  0  0  0
    0.3968   92.8132   14.0868 O   0  0  0  0  0  0  0  0  0  0  0  0
   -1.3532   91.1489   13.5916 C   0  0  0  0  0  0  0  0  0  0  0  0
   -1.6932   90.9838   14.9713 O   0  0  0  0  0  0  0  0  0  0  0  0
   -0.1607   94.1579   10.0706 C   0  0  2  0  0  0  0  0  0  0  0  0
   -0.3644   94.0631   11.4886 O   0  0  0  0  0  0  0  0  0  0  0  0
    0.1549   95.6090    9.6940 C   0  0  1  0  0  0  0  0  0  0  0  0
   -3.6375   93.8601    7.6654 N   0  0  0  0  0  0  0  0  0  0  0  0
    0.2757   95.7524    8.1731 C   0  0  1  0  0  0  0  0  0  0  0  0
    1.4386   95.0649    7.7005 O   0  0  0  0  0  0  0  0  0  0  0  0
   -0.9750   95.1835    7.4975 C   0  0  2  0  0  0  0  0  0  0  0  0
   -2.0985   95.9917    7.8639 O   0  0  0  0  0  0  0  0  0  0  0  0
   -1.1947   93.7385    7.9579 C   0  0  1  0  0  0  0  0  0  0  0  0
   -1.3409   93.6970    9.3896 O   0  0  0  0  0  0  0  0  0  0  0  0
   -2.4253   93.1163    7.2925 C   0  0  0  0  0  0  0  0  0  0  0  0
   -0.9474   96.4665   10.1553 N   0  0  0  0  0  0  0  0  0  0  0  0
  1  2  1  1  0  0  0
  1  3  1  0  0  0  0
  1 10  1  0  0  0  0
  3  4  1  1  0  0  0
  3  5  1  0  0  0  0
  5  6  1  6  0  0  0
  5  7  1  0  0  0  0
  7  8  1  1  0  0  0
  7  9  1  0  0  0  0
  9 10  1  0  0  0  0
  9 11  1  6  0  0  0
 11 12  1  0  0  0  0
 13 14  1  6  0  0  0
 13 15  1  0  0  0  0
 13 21  1  0  0  0  0
 16 15  1  0  0  0  0
 16 17  1  6  0  0  0
 18  2  1  1  0  0  0
 18 16  1  0  0  0  0
 19 18  1  0  0  0  0
 19 20  1  6  0  0  0
 21 19  1  0  0  0  0
 21 22  1  1  0  0  0
 23 20  1  1  0  0  0
 23 24  1  0  0  0  0
 23 28  1  0  0  0  0
 24 25  1  6  0  0  0
 24 26  1  0  0  0  0
 26 27  1  0  0  0  0
 26 32  1  1  0  0  0
 27 28  1  0  0  0  0
 27 29  1  6  0  0  0
 29 30  1  0  0  0  0
 31 32  1  1  0  0  0
 31 40  1  0  0  0  0
 33 31  1  0  0  0  0
 33 42  1  6  0  0  0
 35 33  1  0  0  0  0
 35 36  1  6  0  0  0
 37 35  1  0  0  0  0
 37 38  1  1  0  0  0
 37 39  1  0  0  0  0
 39 40  1  0  0  0  0
 39 41  1  6  0  0  0
 41 34  1  0  0  0  0
M  END
>  <CHROM.1>
173.75084629,59.87392577,-157.22091835,-53.64347300,-139.43036100,77.94704733
177.84133910,-169.20244850,-61.93485794,1.25904190,94.10996428,12.90768113
-0.73159326,-0.81449282,-0.83759398

>  <Name>
2fcy_lig

>  <RI>
224

>  <Rbt.Current_Directory>
/home/itssahil/PROJECTS/Mol_Feturizer/New_Systems/rnas/2fcy

>  <Rbt.Executable>
rbdock ($Id: //depot/dev/client3/rdock/2013.1/src/exe/rbdock.cxx#4 $)

>  <Rbt.Library>
libRbt.so (2013.1, Build901 2013/11/27)

>  <Rbt.Parameter_File>
/export/apps/rDock/src/rDock_2013.1_src/data/scripts/dock_solv.prm

>  <Rbt.Receptor>
prm/pocket_docking_6.prm

>  <SCORE>
-14.2117

>  <SCORE.INTER>
-16.3156

>  <SCORE.INTER.CONST>
1

>  <SCORE.INTER.POLAR>
-2.07265

>  <SCORE.INTER.ROT>
9

>  <SCORE.INTER.SOLV>
16.3528

>  <SCORE.INTER.VDW>
-19.0192

>  <SCORE.INTER.norm>
-0.388468

>  <SCORE.INTRA>
2.10397

>  <SCORE.INTRA.DIHEDRAL>
-6.8334

>  <SCORE.INTRA.DIHEDRAL.0>
17.3446

>  <SCORE.INTRA.POLAR>
0

>  <SCORE.INTRA.POLAR.0>
0

>  <SCORE.INTRA.REPUL>
0.00920587

>  <SCORE.INTRA.REPUL.0>
0

>  <SCORE.INTRA.SOLV>
2.43502

>  <SCORE.INTRA.SOLV.lig_0>
-112.452

>  <SCORE.INTRA.VDW>
4.25713

>  <SCORE.INTRA.VDW.0>
-5.95059

>  <SCORE.INTRA.norm>
0.0500945

>  <SCORE.RESTR>
0

>  <SCORE.RESTR.CAVITY>
0

>  <SCORE.RESTR.norm>
0

>  <SCORE.SYSTEM>
0

>  <SCORE.SYSTEM.CONST>
0

>  <SCORE.SYSTEM.DIHEDRAL>
0

>  <SCORE.SYSTEM.SOLV>
0

>  <SCORE.SYSTEM.norm>
0

>  <SCORE.heavy>
42

>  <SCORE.norm>
-0.338373

>  <RMSD>
5.487

$$$$
2fcy_lig
 OpenBabel11021811433D
libRbt.so/2013.1/901 2013/11/27
 42 45  0  0  0  0  0  0  0  0999 V2000
    2.3475   95.9125   15.7157 C   0  0  2  0  0  0  0  0  0  0  0  0
    3.7555   96.1832   15.6078 O   0  0  0  0  0  0  0  0  0  0  0  0
    2.1288   95.4622   17.1608 C   0  0  2  0  0  0  0  0  0  0  0  0
    2.6623   96.4932   18.0614 N   0  0  0  0  0  0  0  0  0  0  0  0
    2.8670   94.1433   17.4035 C   0  0  1  0  0  0  0  0  0  0  0  0
    2.6734   93.6991   18.7493 O   0  0  0  0  0  0  0  0  0  0  0  0
    2.3636   93.0913   16.4146 C   0  0  2  0  0  0  0  0  0  0  0  0
    3.1202   91.8920   16.5781 O   0  0  0  0  0  0  0  0  0  0  0  0
    2.5887   93.6052   14.9918 C   0  0  2  0  0  0  0  0  0  0  0  0
    1.9173   94.8636   14.8240 O   0  0  0  0  0  0  0  0  0  0  0  0
    2.0791   92.5638   13.9920 C   0  0  0  0  0  0  0  0  0  0  0  0
    0.6323   92.3499   14.1466 N   0  0  0  0  0  0  0  0  0  0  0  0
    6.0083   98.6134   13.0260 C   0  0  2  0  0  0  0  0  0  0  0  0
    6.6707   99.3157   11.9166 N   0  0  0  0  0  0  0  0  0  0  0  0
    6.2796   97.1092   12.9567 C   0  0  0  0  0  0  0  0  0  0  0  0
    5.6791   96.4535   14.2043 C   0  0  2  0  0  0  0  0  0  0  0  0
    5.8510   94.9962   14.1172 N   0  0  0  0  0  0  0  0  0  0  0  0
    4.1817   96.7394   14.3514 C   0  0  2  0  0  0  0  0  0  0  0  0
    3.7951   98.2055   14.1919 C   0  0  2  0  0  0  0  0  0  0  0  0
    2.3751   98.2078   13.9733 O   0  0  0  0  0  0  0  0  0  0  0  0
    4.4970   98.8533   12.9910 C   0  0  1  0  0  0  0  0  0  0  0  0
    4.2782  100.2665   12.9748 O   0  0  0  0  0  0  0  0  0  0  0  0
    1.9333   97.6161   12.7409 C   0  0  1  0  0  0  0  0  0  0  0  0
    0.4112   97.7557   12.6811 C   0  0  2  0  0  0  0  0  0  0  0  0
   -0.1985   96.6874   13.4097 O   0  0  0  0  0  0  0  0  0  0  0  0
    0.2138   97.5303   11.1849 C   0  0  1  0  0  0  0  0  0  0  0  0
    1.3186   98.4132   10.6263 C   0  0  2  0  0  0  0  0  0  0  0  0
    2.4058   98.3114   11.5688 O   0  0  0  0  0  0  0  0  0  0  0  0
    0.7992   99.8507   10.5072 C   0  0  0  0  0  0  0  0  0  0  0  0
   -0.2729   99.9208    9.5626 O   0  0  0  0  0  0  0  0  0  0  0  0
    0.2519   95.9443    9.4582 C   0  0  2  0  0  0  0  0  0  0  0  0
    0.4717   96.1547   10.8613 O   0  0  0  0  0  0  0  0  0  0  0  0
   -1.1926   96.3127    9.1048 C   0  0  1  0  0  0  0  0  0  0  0  0
    0.6555   92.5792    5.9915 N   0  0  0  0  0  0  0  0  0  0  0  0
   -1.4792   95.9997    7.6323 C   0  0  1  0  0  0  0  0  0  0  0  0
   -0.7340   96.8788    6.7838 O   0  0  0  0  0  0  0  0  0  0  0  0
   -1.1072   94.5456    7.3294 C   0  0  2  0  0  0  0  0  0  0  0  0
   -1.9789   93.6876    8.0733 O   0  0  0  0  0  0  0  0  0  0  0  0
    0.3492   94.2935    7.7337 C   0  0  1  0  0  0  0  0  0  0  0  0
    0.5233   94.5690    9.1361 O   0  0  0  0  0  0  0  0  0  0  0  0
    0.7770   92.8549    7.4306 C   0  0  0  0  0  0  0  0  0  0  0  0
   -2.1012   95.5087    9.9360 N   0  0  0  0  0  0  0  0  0  0  0  0
  1  2  1  1  0  0  0
  1  3  1  0  0  0  0
  1 10  1  0  0  0  0
  3  4  1  1  0  0  0
  3  5  1  0  0  0  0
  5  6  1  1  0  0  0
  5  7  1  0  0  0  0
  7  8  1  6  0  0  0
  7  9  1  0  0  0  0
  9 10  1  0  0  0  0
  9 11  1  6  0  0  0
 11 12  1  0  0  0  0
 13 14  1  6  0  0  0
 13 15  1  0  0  0  0
 13 21  1  0  0  0  0
 16 15  1  0  0  0  0
 16 17  1  6  0  0  0
 18  2  1  1  0  0  0
 18 16  1  0  0  0  0
 19 18  1  0  0  0  0
 19 20  1  6  0  0  0
 21 19  1  0  0  0  0
 21 22  1  1  0  0  0
 23 20  1  1  0  0  0
 23 24  1  0  0  0  0
 23 28  1  0  0  0  0
 24 25  1  1  0  0  0
 24 26  1  0  0  0  0
 26 27  1  0  0  0  0
 26 32  1  1  0  0  0
 27 28  1  0  0  0  0
 27 29  1  1  0  0  0
 29 30  1  0  0  0  0
 31 32  1  1  0  0  0
 31 40  1  0  0  0  0
 33 31  1  0  0  0  0
 33 42  1  1  0  0  0
 35 33  1  0  0  0  0
 35 36  1  6  0  0  0
 37 35  1  0  0  0  0
 37 38  1  1  0  0  0
 37 39  1  0  0  0  0
 39 40  1  0  0  0  0
 39 41  1  1  0  0  0
 41 34  1  0  0  0  0
M  END
>  <CHROM.1>
-174.78891560,62.31630753,-158.27720112,-66.60485447,-178.31672037,178.59777609
-63.97805297,-58.90441154,60.18785888,1.87697024,96.05920362,12.38088866
0.66181174,0.93040226,2.36714412

>  <Name>
2fcy_lig

>  <RI>
224

>  <Rbt.Current_Directory>
/home/itssahil/PROJECTS/Mol_Feturizer/New_Systems/rnas/2fcy

>  <Rbt.Executable>
rbdock ($Id: //depot/dev/client3/rdock/2013.1/src/exe/rbdock.cxx#4 $)

>  <Rbt.Library>
libRbt.so (2013.1, Build901 2013/11/27)

>  <Rbt.Parameter_File>
/export/apps/rDock/src/rDock_2013.1_src/data/scripts/dock_solv.prm

>  <Rbt.Receptor>
prm/pocket_docking_6.prm

>  <SCORE>
-11.3737

>  <SCORE.INTER>
-7.52967

>  <SCORE.INTER.CONST>
1

>  <SCORE.INTER.POLAR>
0

>  <SCORE.INTER.ROT>
9

>  <SCORE.INTER.SOLV>
15.8934

>  <SCORE.INTER.VDW>
-19.9176

>  <SCORE.INTER.norm>
-0.179278

>  <SCORE.INTRA>
-3.84407

>  <SCORE.INTRA.DIHEDRAL>
-14.2366

>  <SCORE.INTRA.DIHEDRAL.0>
17.3446

>  <SCORE.INTRA.POLAR>
0

>  <SCORE.INTRA.POLAR.0>
0

>  <SCORE.INTRA.REPUL>
0

>  <SCORE.INTRA.REPUL.0>
0

>  <SCORE.INTRA.SOLV>
-2.0209

>  <SCORE.INTRA.SOLV.lig_0>
-112.452

>  <SCORE.INTRA.VDW>
4.28469

>  <SCORE.INTRA.VDW.0>
-5.95059

>  <SCORE.INTRA.norm>
-0.0915255

>  <SCORE.RESTR>
0

>  <SCORE.RESTR.CAVITY>
0

>  <SCORE.RESTR.norm>
0

>  <SCORE.SYSTEM>
0

>  <SCORE.SYSTEM.CONST>
0

>  <SCORE.SYSTEM.DIHEDRAL>
0

>  <SCORE.SYSTEM.SOLV>
0

>  <SCORE.SYSTEM.norm>
0

>  <SCORE.heavy>
42

>  <SCORE.norm>
-0.270803

>  <RMSD>
5.509

$$$$
2fcy_lig
 OpenBabel11021811433D
libRbt.so/2013.1/901 2013/11/27
 42 45  0  0  0  0  0  0  0  0999 V2000
   -2.6483   95.8534   13.7505 C   0  0  2  0  0  0  0  0  0  0  0  0
   -2.6136   95.9607   12.3172 O   0  0  0  0  0  0  0  0  0  0  0  0
   -2.9348   94.3796   14.0418 C   0  0  2  0  0  0  0  0  0  0  0  0
   -1.9287   93.5591   13.3538 N   0  0  0  0  0  0  0  0  0  0  0  0
   -4.3285   94.0165   13.5231 C   0  0  1  0  0  0  0  0  0  0  0  0
   -4.6212   92.6418   13.7883 O   0  0  0  0  0  0  0  0  0  0  0  0
   -5.3674   94.9226   14.1845 C   0  0  2  0  0  0  0  0  0  0  0  0
   -6.6531   94.6481   13.6283 O   0  0  0  0  0  0  0  0  0  0  0  0
   -5.0176   96.3794   13.8768 C   0  0  2  0  0  0  0  0  0  0  0  0
   -3.6877   96.6617   14.3395 O   0  0  0  0  0  0  0  0  0  0  0  0
   -6.0461   97.2973   14.5427 C   0  0  0  0  0  0  0  0  0  0  0  0
   -7.2154   97.4957   13.6732 N   0  0  0  0  0  0  0  0  0  0  0  0
    0.0956   97.7462    9.6491 C   0  0  2  0  0  0  0  0  0  0  0  0
    1.2416   98.2738    8.8933 N   0  0  0  0  0  0  0  0  0  0  0  0
    0.0961   98.2822   11.0821 C   0  0  0  0  0  0  0  0  0  0  0  0
   -1.1852   97.8069   11.7745 C   0  0  2  0  0  0  0  0  0  0  0  0
   -1.1654   98.2368   13.1802 N   0  0  0  0  0  0  0  0  0  0  0  0
   -1.3295   96.2824   11.7541 C   0  0  2  0  0  0  0  0  0  0  0  0
   -1.1040   95.6400   10.3899 C   0  0  2  0  0  0  0  0  0  0  0  0
   -0.8957   94.2428   10.6517 O   0  0  0  0  0  0  0  0  0  0  0  0
    0.1310   96.2164    9.6849 C   0  0  1  0  0  0  0  0  0  0  0  0
    0.2121   95.7484    8.3360 O   0  0  0  0  0  0  0  0  0  0  0  0
   -0.9550   93.3783    9.5056 C   0  0  1  0  0  0  0  0  0  0  0  0
   -0.5494   91.9763    9.9633 C   0  0  2  0  0  0  0  0  0  0  0  0
    0.8759   91.8660    9.9696 O   0  0  0  0  0  0  0  0  0  0  0  0
   -1.1177   91.1752    8.7955 C   0  0  1  0  0  0  0  0  0  0  0  0
   -2.4869   91.8222    8.6592 C   0  0  2  0  0  0  0  0  0  0  0  0
   -2.2876   93.2147    8.9788 O   0  0  0  0  0  0  0  0  0  0  0  0
   -3.4595   91.1467    9.6329 C   0  0  0  0  0  0  0  0  0  0  0  0
   -3.0559   91.3759   10.9860 O   0  0  0  0  0  0  0  0  0  0  0  0
   -0.6139   90.3976    6.6414 C   0  0  2  0  0  0  0  0  0  0  0  0
   -0.3384   91.4178    7.6134 O   0  0  0  0  0  0  0  0  0  0  0  0
    0.4281   90.4633    5.5202 C   0  0  1  0  0  0  0  0  0  0  0  0
   -4.1956   88.6013    3.9289 N   0  0  0  0  0  0  0  0  0  0  0  0
    0.0943   89.4499    4.4202 C   0  0  1  0  0  0  0  0  0  0  0  0
    0.2670   88.1149    4.9062 O   0  0  0  0  0  0  0  0  0  0  0  0
   -1.3495   89.6499    3.9515 C   0  0  2  0  0  0  0  0  0  0  0  0
   -1.4519   90.9330    3.3250 O   0  0  0  0  0  0  0  0  0  0  0  0
   -2.2948   89.5760    5.1554 C   0  0  1  0  0  0  0  0  0  0  0  0
   -1.9409   90.5854    6.1191 O   0  0  0  0  0  0  0  0  0  0  0  0
   -3.7568   89.7498    4.7352 C   0  0  0  0  0  0  0  0  0  0  0  0
    0.4043   91.8113    4.9325 N   0  0  0  0  0  0  0  0  0  0  0  0
  1  2  1  6  0  0  0
  1  3  1  0  0  0  0
  1 10  1  0  0  0  0
  3  4  1  6  0  0  0
  3  5  1  0  0  0  0
  5  6  1  1  0  0  0
  5  7  1  0  0  0  0
  7  8  1  6  0  0  0
  7  9  1  0  0  0  0
  9 10  1  0  0  0  0
  9 11  1  1  0  0  0
 11 12  1  0  0  0  0
 13 14  1  6  0  0  0
 13 15  1  0  0  0  0
 13 21  1  0  0  0  0
 16 15  1  0  0  0  0
 16 17  1  1  0  0  0
 18  2  1  6  0  0  0
 18 16  1  0  0  0  0
 19 18  1  0  0  0  0
 19 20  1  1  0  0  0
 21 19  1  0  0  0  0
 21 22  1  6  0  0  0
 23 20  1  1  0  0  0
 23 24  1  0  0  0  0
 23 28  1  0  0  0  0
 24 25  1  6  0  0  0
 24 26  1  0  0  0  0
 26 27  1  0  0  0  0
 26 32  1  6  0  0  0
 27 28  1  0  0  0  0
 27 29  1  1  0  0  0
 29 30  1  0  0  0  0
 31 32  1  1  0  0  0
 31 40  1  0  0  0  0
 33 31  1  0  0  0  0
 33 42  1  6  0  0  0
 35 33  1  0  0  0  0
 35 36  1  1  0  0  0
 37 35  1  0  0  0  0
 37 38  1  1  0  0  0
 37 39  1  0  0  0  0
 39 40  1  0  0  0  0
 39 41  1  6  0  0  0
 41 34  1  0  0  0  0
M  END
>  <CHROM.1>
-113.19988335,-86.58159324,-85.61780991,166.72672920,173.48247496,163.30792750
64.17740814,-167.35354178,67.29113087,-2.02752139,93.51894197,9.71242848
1.86061690,0.62408082,0.74000153

>  <Name>
2fcy_lig

>  <RI>
2.32494e+07

>  <Rbt.Current_Directory>
/home/itssahil/PROJECTS/Mol_Feturizer/New_Systems/rnas/2fcy

>  <Rbt.Executable>
rbdock ($Id: //depot/dev/client3/rdock/2013.1/src/exe/rbdock.cxx#4 $)

>  <Rbt.Library>
libRbt.so (2013.1, Build901 2013/11/27)

>  <Rbt.Parameter_File>
/export/apps/rDock/src/rDock_2013.1_src/data/scripts/dock_solv.prm

>  <Rbt.Receptor>
prm/pocket_docking_8.prm

>  <SCORE>
-7.39885

>  <SCORE.INTER>
-8.48878

>  <SCORE.INTER.CONST>
1

>  <SCORE.INTER.POLAR>
-2.22177

>  <SCORE.INTER.ROT>
9

>  <SCORE.INTER.SOLV>
15.0782

>  <SCORE.INTER.VDW>
-12.8793

>  <SCORE.INTER.norm>
-0.202114

>  <SCORE.INTRA>
1.08992

>  <SCORE.INTRA.DIHEDRAL>
-1.70443

>  <SCORE.INTRA.DIHEDRAL.0>
17.3446

>  <SCORE.INTRA.POLAR>
0

>  <SCORE.INTRA.POLAR.0>
0

>  <SCORE.INTRA.REPUL>
0.075703

>  <SCORE.INTRA.REPUL.0>
0

>  <SCORE.INTRA.SOLV>
-0.204574

>  <SCORE.INTRA.SOLV.lig_0>
-112.452

>  <SCORE.INTRA.VDW>
1.66591

>  <SCORE.INTRA.VDW.0>
-5.95059

>  <SCORE.INTRA.norm>
0.0259506

>  <SCORE.RESTR>
0

>  <SCORE.RESTR.CAVITY>
0

>  <SCORE.RESTR.norm>
0

>  <SCORE.SYSTEM>
0

>  <SCORE.SYSTEM.CONST>
0

>  <SCORE.SYSTEM.DIHEDRAL>
0

>  <SCORE.SYSTEM.SOLV>
0

>  <SCORE.SYSTEM.norm>
0

>  <SCORE.heavy>
42

>  <SCORE.norm>
-0.176163

>  <RMSD>
5.536

$$$$
2fcy_lig
 OpenBabel11021811433D
libRbt.so/2013.1/901 2013/11/27
 42 45  0  0  0  0  0  0  0  0999 V2000
    1.8307   97.1703   14.8163 C   0  0  2  0  0  0  0  0  0  0  0  0
    2.3489   96.0605   14.0633 O   0  0  0  0  0  0  0  0  0  0  0  0
    1.9254   98.3767   13.8812 C   0  0  2  0  0  0  0  0  0  0  0  0
    1.2252   98.0586   12.6293 N   0  0  0  0  0  0  0  0  0  0  0  0
    3.3959   98.6768   13.5795 C   0  0  1  0  0  0  0  0  0  0  0  0
    3.5102   99.8057   12.7087 O   0  0  0  0  0  0  0  0  0  0  0  0
    4.1399   98.9338   14.8903 C   0  0  2  0  0  0  0  0  0  0  0  0
    5.5284   99.1176   14.6147 O   0  0  0  0  0  0  0  0  0  0  0  0
    3.9923   97.7055   15.7896 C   0  0  2  0  0  0  0  0  0  0  0  0
    2.5989   97.4352   16.0081 O   0  0  0  0  0  0  0  0  0  0  0  0
    4.7254   97.9552   17.1101 C   0  0  0  0  0  0  0  0  0  0  0  0
    4.1062   99.0618   17.8548 N   0  0  0  0  0  0  0  0  0  0  0  0
    2.2650   91.8723   14.3768 C   0  0  2  0  0  0  0  0  0  0  0  0
    2.0079   90.4501   14.6493 N   0  0  0  0  0  0  0  0  0  0  0  0
    2.4543   92.6502   15.6806 C   0  0  0  0  0  0  0  0  0  0  0  0
    2.8483   94.0886   15.3304 C   0  0  2  0  0  0  0  0  0  0  0  0
    2.9504   94.8785   16.5660 N   0  0  0  0  0  0  0  0  0  0  0  0
    1.8209   94.7715   14.4228 C   0  0  2  0  0  0  0  0  0  0  0  0
    1.3944   93.9484   13.2125 C   0  0  2  0  0  0  0  0  0  0  0  0
    0.1880   94.5643   12.7334 O   0  0  0  0  0  0  0  0  0  0  0  0
    1.1073   92.4885   13.5877 C   0  0  1  0  0  0  0  0  0  0  0  0
    0.9024   91.6927   12.4173 O   0  0  0  0  0  0  0  0  0  0  0  0
   -0.4125   93.9475   11.5831 C   0  0  1  0  0  0  0  0  0  0  0  0
   -1.5749   94.8358   11.1368 C   0  0  2  0  0  0  0  0  0  0  0  0
   -2.7391   94.5272   11.9069 O   0  0  0  0  0  0  0  0  0  0  0  0
   -1.7461   94.3021    9.7176 C   0  0  1  0  0  0  0  0  0  0  0  0
   -0.2953   94.2565    9.2646 C   0  0  2  0  0  0  0  0  0  0  0  0
    0.4625   93.8955   10.4377 O   0  0  0  0  0  0  0  0  0  0  0  0
    0.1057   95.6355    8.7281 C   0  0  0  0  0  0  0  0  0  0  0  0
    1.4783   95.6381    8.3252 O   0  0  0  0  0  0  0  0  0  0  0  0
   -3.2670   92.8244    8.7166 C   0  0  2  0  0  0  0  0  0  0  0  0
   -2.2911   92.9737    9.7591 O   0  0  0  0  0  0  0  0  0  0  0  0
   -4.0006   91.4905    8.8887 C   0  0  1  0  0  0  0  0  0  0  0  0
   -3.7629   93.0760    3.9094 N   0  0  0  0  0  0  0  0  0  0  0  0
   -4.9761   91.2635    7.7288 C   0  0  1  0  0  0  0  0  0  0  0  0
   -6.0531   92.2037    7.7949 O   0  0  0  0  0  0  0  0  0  0  0  0
   -4.2389   91.4101    6.3949 C   0  0  2  0  0  0  0  0  0  0  0  0
   -3.2755   90.3566    6.2883 O   0  0  0  0  0  0  0  0  0  0  0  0
   -3.5371   92.7714    6.3433 C   0  0  1  0  0  0  0  0  0  0  0  0
   -2.6098   92.8865    7.4387 O   0  0  0  0  0  0  0  0  0  0  0  0
   -2.8006   92.9755    5.0166 C   0  0  0  0  0  0  0  0  0  0  0  0
   -3.0102   90.4032    8.8822 N   0  0  0  0  0  0  0  0  0  0  0  0
  1  2  1  6  0  0  0
  1  3  1  0  0  0  0
  1 10  1  0  0  0  0
  3  4  1  6  0  0  0
  3  5  1  0  0  0  0
  5  6  1  6  0  0  0
  5  7  1  0  0  0  0
  7  8  1  6  0  0  0
  7  9  1  0  0  0  0
  9 10  1  0  0  0  0
  9 11  1  1  0  0  0
 11 12  1  0  0  0  0
 13 14  1  1  0  0  0
 13 15  1  0  0  0  0
 13 21  1  0  0  0  0
 16 15  1  0  0  0  0
 16 17  1  1  0  0  0
 18  2  1  6  0  0  0
 18 16  1  0  0  0  0
 19 18  1  0  0  0  0
 19 20  1  1  0  0  0
 21 19  1  0  0  0  0
 21 22  1  6  0  0  0
 23 20  1  1  0  0  0
 23 24  1  0  0  0  0
 23 28  1  0  0  0  0
 24 25  1  1  0  0  0
 24 26  1  0  0  0  0
 26 27  1  0  0  0  0
 26 32  1  1  0  0  0
 27 28  1  0  0  0  0
 27 29  1  1  0  0  0
 29 30  1  0  0  0  0
 31 32  1  1  0  0  0
 31 40  1  0  0  0  0
 33 31  1  0  0  0  0
 33 42  1  6  0  0  0
 35 33  1  0  0  0  0
 35 36  1  6  0  0  0
 37 35  1  0  0  0  0
 37 38  1  1  0  0  0
 37 39  1  0  0  0  0
 39 40  1  0  0  0  0
 39 41  1  6  0  0  0
 41 34  1  0  0  0  0
M  END
>  <CHROM.1>
-151.89764828,64.16862774,-99.78566458,-179.69265899,-173.49442754,139.54848550
178.46806995,-171.44695709,66.96442589,0.20435578,94.56683445,11.62016468
-0.03944537,-0.94171150,-0.60790877

>  <Name>
2fcy_lig

>  <RI>
2.32494e+07

>  <Rbt.Current_Directory>
/home/itssahil/PROJECTS/Mol_Feturizer/New_Systems/rnas/2fcy

>  <Rbt.Executable>
rbdock ($Id: //depot/dev/client3/rdock/2013.1/src/exe/rbdock.cxx#4 $)

>  <Rbt.Library>
libRbt.so (2013.1, Build901 2013/11/27)

>  <Rbt.Parameter_File>
/export/apps/rDock/src/rDock_2013.1_src/data/scripts/dock_solv.prm

>  <Rbt.Receptor>
prm/pocket_docking_8.prm

>  <SCORE>
-10.2814

>  <SCORE.INTER>
-10.6154

>  <SCORE.INTER.CONST>
1

>  <SCORE.INTER.POLAR>
-2.27696

>  <SCORE.INTER.ROT>
9

>  <SCORE.INTER.SOLV>
12.4145

>  <SCORE.INTER.VDW>
-13.2252

>  <SCORE.INTER.norm>
-0.252747

>  <SCORE.INTRA>
0.333969

>  <SCORE.INTRA.DIHEDRAL>
-2.59412

>  <SCORE.INTRA.DIHEDRAL.0>
17.3446

>  <SCORE.INTRA.POLAR>
0

>  <SCORE.INTRA.POLAR.0>
0

>  <SCORE.INTRA.REPUL>
0

>  <SCORE.INTRA.REPUL.0>
0

>  <SCORE.INTRA.SOLV>
-1.0596

>  <SCORE.INTRA.SOLV.lig_0>
-112.452

>  <SCORE.INTRA.VDW>
2.16083

>  <SCORE.INTRA.VDW.0>
-5.95059

>  <SCORE.INTRA.norm>
0.00795165

>  <SCORE.RESTR>
0

>  <SCORE.RESTR.CAVITY>
0

>  <SCORE.RESTR.norm>
0

>  <SCORE.SYSTEM>
0

>  <SCORE.SYSTEM.CONST>
0

>  <SCORE.SYSTEM.DIHEDRAL>
0

>  <SCORE.SYSTEM.SOLV>
0

>  <SCORE.SYSTEM.norm>
0

>  <SCORE.heavy>
42

>  <SCORE.norm>
-0.244795

>  <RMSD>
5.589

$$$$
2fcy_lig
 OpenBabel11021811433D
libRbt.so/2013.1/901 2013/11/27
 42 45  0  0  0  0  0  0  0  0999 V2000
    2.7422   94.9213   12.7218 C   0  0  2  0  0  0  0  0  0  0  0  0
    1.8501   95.0966   13.8357 O   0  0  0  0  0  0  0  0  0  0  0  0
    3.6627   96.1425   12.7410 C   0  0  2  0  0  0  0  0  0  0  0  0
    4.2903   96.2386   14.0660 N   0  0  0  0  0  0  0  0  0  0  0  0
    2.8420   97.4068   12.4739 C   0  0  1  0  0  0  0  0  0  0  0  0
    3.6833   98.5635   12.4828 O   0  0  0  0  0  0  0  0  0  0  0  0
    2.1290   97.2733   11.1279 C   0  0  2  0  0  0  0  0  0  0  0  0
    1.2893   98.4098   10.9258 O   0  0  0  0  0  0  0  0  0  0  0  0
    1.2427   96.0273   11.1614 C   0  0  2  0  0  0  0  0  0  0  0  0
    2.0460   94.8747   11.4594 O   0  0  0  0  0  0  0  0  0  0  0  0
    0.5308   95.8775    9.8144 C   0  0  0  0  0  0  0  0  0  0  0  0
    1.5012   95.7173    8.7212 N   0  0  0  0  0  0  0  0  0  0  0  0
    2.4628   91.1600   15.1677 C   0  0  2  0  0  0  0  0  0  0  0  0
    2.5043   89.8557   15.8459 N   0  0  0  0  0  0  0  0  0  0  0  0
    2.9172   92.2771   16.1092 C   0  0  0  0  0  0  0  0  0  0  0  0
    2.9796   93.5836   15.3116 C   0  0  2  0  0  0  0  0  0  0  0  0
    3.3297   94.6883   16.2161 N   0  0  0  0  0  0  0  0  0  0  0  0
    1.6426   93.9282   14.6489 C   0  0  2  0  0  0  0  0  0  0  0  0
    0.9984   92.7796   13.8807 C   0  0  2  0  0  0  0  0  0  0  0  0
   -0.3708   93.1677   13.6840 O   0  0  0  0  0  0  0  0  0  0  0  0
    1.0474   91.4656   14.6717 C   0  0  1  0  0  0  0  0  0  0  0  0
    0.6205   90.3673   13.8615 O   0  0  0  0  0  0  0  0  0  0  0  0
   -1.0351   92.5630   12.5627 C   0  0  1  0  0  0  0  0  0  0  0  0
   -2.5400   92.7521   12.7606 C   0  0  2  0  0  0  0  0  0  0  0  0
   -3.0461   91.7218   13.6128 O   0  0  0  0  0  0  0  0  0  0  0  0
   -2.9984   92.4992   11.3273 C   0  0  1  0  0  0  0  0  0  0  0  0
   -1.9811   93.3317   10.5629 C   0  0  2  0  0  0  0  0  0  0  0  0
   -0.7514   93.2151   11.3078 O   0  0  0  0  0  0  0  0  0  0  0  0
   -2.4713   94.7826   10.4939 C   0  0  0  0  0  0  0  0  0  0  0  0
   -2.3573   95.4128   11.7731 O   0  0  0  0  0  0  0  0  0  0  0  0
   -3.3985   90.8536    9.7055 C   0  0  2  0  0  0  0  0  0  0  0  0
   -2.8402   91.1087   11.0034 O   0  0  0  0  0  0  0  0  0  0  0  0
   -4.9259   90.9489    9.7769 C   0  0  1  0  0  0  0  0  0  0  0  0
   -3.1122   86.8687    8.5016 N   0  0  0  0  0  0  0  0  0  0  0  0
   -5.5483   90.5802    8.4260 C   0  0  1  0  0  0  0  0  0  0  0  0
   -5.2356   91.5762    7.4470 O   0  0  0  0  0  0  0  0  0  0  0  0
   -5.0224   89.2173    7.9674 C   0  0  2  0  0  0  0  0  0  0  0  0
   -5.4873   88.2182    8.8814 O   0  0  0  0  0  0  0  0  0  0  0  0
   -3.4903   89.2387    7.9470 C   0  0  1  0  0  0  0  0  0  0  0  0
   -2.9869   89.5495    9.2596 O   0  0  0  0  0  0  0  0  0  0  0  0
   -2.9145   87.9013    7.4737 C   0  0  0  0  0  0  0  0  0  0  0  0
   -5.4112   89.9966   10.7873 N   0  0  0  0  0  0  0  0  0  0  0  0
  1  2  1  1  0  0  0
  1  3  1  0  0  0  0
  1 10  1  0  0  0  0
  3  4  1  1  0  0  0
  3  5  1  0  0  0  0
  5  6  1  6  0  0  0
  5  7  1  0  0  0  0
  7  8  1  1  0  0  0
  7  9  1  0  0  0  0
  9 10  1  0  0  0  0
  9 11  1  6  0  0  0
 11 12  1  0  0  0  0
 13 14  1  1  0  0  0
 13 15  1  0  0  0  0
 13 21  1  0  0  0  0
 16 15  1  0  0  0  0
 16 17  1  1  0  0  0
 18  2  1  6  0  0  0
 18 16  1  0  0  0  0
 19 18  1  0  0  0  0
 19 20  1  1  0  0  0
 21 19  1  0  0  0  0
 21 22  1  6  0  0  0
 23 20  1  1  0  0  0
 23 24  1  0  0  0  0
 23 28  1  0  0  0  0
 24 25  1  1  0  0  0
 24 26  1  0  0  0  0
 26 27  1  0  0  0  0
 26 32  1  6  0  0  0
 27 28  1  0  0  0  0
 27 29  1  1  0  0  0
 29 30  1  0  0  0  0
 31 32  1  1  0  0  0
 31 40  1  0  0  0  0
 33 31  1  0  0  0  0
 33 42  1  1  0  0  0
 35 33  1  0  0  0  0
 35 36  1  6  0  0  0
 37 35  1  0  0  0  0
 37 38  1  1  0  0  0
 37 39  1  0  0  0  0
 39 40  1  0  0  0  0
 39 41  1  1  0  0  0
 41 34  1  0  0  0  0
M  END
>  <CHROM.1>
-134.84080259,60.94707154,65.08798589,155.42127388,163.21354005,174.16964966
72.24996043,-70.81944615,-71.18871563,-0.53863474,92.91778259,11.71295792
0.24316404,-0.77776058,-0.57655769

>  <Name>
2fcy_lig

>  <RI>
0

>  <Rbt.Current_Directory>
/home/itssahil/PROJECTS/Mol_Feturizer/New_Systems/rnas/2fcy

>  <Rbt.Executable>
rbdock ($Id: //depot/dev/client3/rdock/2013.1/src/exe/rbdock.cxx#4 $)

>  <Rbt.Library>
libRbt.so (2013.1, Build901 2013/11/27)

>  <Rbt.Parameter_File>
/export/apps/rDock/src/rDock_2013.1_src/data/scripts/dock_solv.prm

>  <Rbt.Receptor>
prm/pocket_docking_5.prm

>  <SCORE>
-9.82135

>  <SCORE.INTER>
-10.1611

>  <SCORE.INTER.CONST>
1

>  <SCORE.INTER.POLAR>
-2.47672

>  <SCORE.INTER.ROT>
9

>  <SCORE.INTER.SOLV>
18.8723

>  <SCORE.INTER.VDW>
-14.4091

>  <SCORE.INTER.norm>
-0.241932

>  <SCORE.INTRA>
0.308451

>  <SCORE.INTRA.DIHEDRAL>
-4.86634

>  <SCORE.INTRA.DIHEDRAL.0>
17.3446

>  <SCORE.INTRA.POLAR>
0

>  <SCORE.INTRA.POLAR.0>
0

>  <SCORE.INTRA.REPUL>
0

>  <SCORE.INTRA.REPUL.0>
0

>  <SCORE.INTRA.SOLV>
2.22789

>  <SCORE.INTRA.SOLV.lig_0>
-112.452

>  <SCORE.INTRA.VDW>
1.62768

>  <SCORE.INTRA.VDW.0>
-5.95059

>  <SCORE.INTRA.norm>
0.00734406

>  <SCORE.RESTR>
0.0313287

>  <SCORE.RESTR.CAVITY>
0.0313287

>  <SCORE.RESTR.norm>
0.000745922

>  <SCORE.SYSTEM>
0

>  <SCORE.SYSTEM.CONST>
0

>  <SCORE.SYSTEM.DIHEDRAL>
0

>  <SCORE.SYSTEM.SOLV>
0

>  <SCORE.SYSTEM.norm>
0

>  <SCORE.heavy>
42

>  <SCORE.norm>
-0.233842

>  <RMSD>
5.710

$$$$
2fcy_lig
 OpenBabel11021811433D
libRbt.so/2013.1/901 2013/11/27
 42 45  0  0  0  0  0  0  0  0999 V2000
    0.2999   95.0059   11.3516 C   0  0  2  0  0  0  0  0  0  0  0  0
    1.5572   94.6492   11.9509 O   0  0  0  0  0  0  0  0  0  0  0  0
    0.6584   95.7286   10.0524 C   0  0  2  0  0  0  0  0  0  0  0  0
    1.5335   94.8583    9.2552 N   0  0  0  0  0  0  0  0  0  0  0  0
    1.3949   97.0307   10.3770 C   0  0  1  0  0  0  0  0  0  0  0  0
    1.7374   97.7275    9.1758 O   0  0  0  0  0  0  0  0  0  0  0  0
    0.5118   97.9035   11.2693 C   0  0  2  0  0  0  0  0  0  0  0  0
    1.2373   99.0726   11.6496 O   0  0  0  0  0  0  0  0  0  0  0  0
    0.1698   97.1223   12.5390 C   0  0  2  0  0  0  0  0  0  0  0  0
   -0.4774   95.8902   12.1848 O   0  0  0  0  0  0  0  0  0  0  0  0
   -0.7230   97.9831   13.4366 C   0  0  0  0  0  0  0  0  0  0  0  0
    0.0445   99.0794   14.0463 N   0  0  0  0  0  0  0  0  0  0  0  0
    2.5004   91.5223   14.5928 C   0  0  2  0  0  0  0  0  0  0  0  0
    2.6618   90.5660   15.6984 N   0  0  0  0  0  0  0  0  0  0  0  0
    2.9140   92.9300   15.0267 C   0  0  0  0  0  0  0  0  0  0  0  0
    2.8510   93.8493   13.8027 C   0  0  2  0  0  0  0  0  0  0  0  0
    3.1601   95.2264   14.2136 N   0  0  0  0  0  0  0  0  0  0  0  0
    1.4666   93.8566   13.1480 C   0  0  2  0  0  0  0  0  0  0  0  0
    0.8731   92.4745   12.8988 C   0  0  2  0  0  0  0  0  0  0  0  0
   -0.5270   92.6933   12.6626 O   0  0  0  0  0  0  0  0  0  0  0  0
    1.0475   91.5514   14.1121 C   0  0  1  0  0  0  0  0  0  0  0  0
    0.6653   90.2112   13.7915 O   0  0  0  0  0  0  0  0  0  0  0  0
   -1.1237   91.8709   11.6468 C   0  0  1  0  0  0  0  0  0  0  0  0
   -2.6402   92.0463   11.7424 C   0  0  2  0  0  0  0  0  0  0  0  0
   -3.1623   91.1766   12.7497 O   0  0  0  0  0  0  0  0  0  0  0  0
   -3.0245   91.5181   10.3634 C   0  0  1  0  0  0  0  0  0  0  0  0
   -1.9915   92.2258    9.5007 C   0  0  2  0  0  0  0  0  0  0  0  0
   -0.7960   92.2876   10.3055 O   0  0  0  0  0  0  0  0  0  0  0  0
   -2.5108   93.6228    9.1417 C   0  0  0  0  0  0  0  0  0  0  0  0
   -3.7320   93.5301    8.4024 O   0  0  0  0  0  0  0  0  0  0  0  0
   -3.6023   89.5399    9.2447 C   0  0  2  0  0  0  0  0  0  0  0  0
   -2.8195   90.0973   10.3115 O   0  0  0  0  0  0  0  0  0  0  0  0
   -3.4929   88.0120    9.2730 C   0  0  1  0  0  0  0  0  0  0  0  0
   -3.6673   91.7062    5.6762 N   0  0  0  0  0  0  0  0  0  0  0  0
   -4.2382   87.4005    8.0818 C   0  0  1  0  0  0  0  0  0  0  0  0
   -5.6485   87.5985    8.2241 O   0  0  0  0  0  0  0  0  0  0  0  0
   -3.7516   88.0435    6.7802 C   0  0  2  0  0  0  0  0  0  0  0  0
   -2.3774   87.6931    6.5846 O   0  0  0  0  0  0  0  0  0  0  0  0
   -3.8976   89.5661    6.8740 C   0  0  1  0  0  0  0  0  0  0  0  0
   -3.1352   90.0638    7.9892 O   0  0  0  0  0  0  0  0  0  0  0  0
   -3.4424   90.2560    5.5852 C   0  0  0  0  0  0  0  0  0  0  0  0
   -2.0737   87.6389    9.1741 N   0  0  0  0  0  0  0  0  0  0  0  0
  1  2  1  1  0  0  0
  1  3  1  0  0  0  0
  1 10  1  0  0  0  0
  3  4  1  6  0  0  0
  3  5  1  0  0  0  0
  5  6  1  6  0  0  0
  5  7  1  0  0  0  0
  7  8  1  1  0  0  0
  7  9  1  0  0  0  0
  9 10  1  0  0  0  0
  9 11  1  1  0  0  0
 11 12  1  0  0  0  0
 13 14  1  1  0  0  0
 13 15  1  0  0  0  0
 13 21  1  0  0  0  0
 16 15  1  0  0  0  0
 16 17  1  1  0  0  0
 18  2  1  6  0  0  0
 18 16  1  0  0  0  0
 19 18  1  0  0  0  0
 19 20  1  1  0  0  0
 21 19  1  0  0  0  0
 21 22  1  6  0  0  0
 23 20  1  1  0  0  0
 23 24  1  0  0  0  0
 23 28  1  0  0  0  0
 24 25  1  1  0  0  0
 24 26  1  0  0  0  0
 26 27  1  0  0  0  0
 26 32  1  1  0  0  0
 27 28  1  0  0  0  0
 27 29  1  1  0  0  0
 29 30  1  0  0  0  0
 31 32  1  1  0  0  0
 31 40  1  0  0  0  0
 33 31  1  0  0  0  0
 33 42  1  6  0  0  0
 35 33  1  0  0  0  0
 35 36  1  1  0  0  0
 37 35  1  0  0  0  0
 37 38  1  1  0  0  0
 37 39  1  0  0  0  0
 39 40  1  0  0  0  0
 39 41  1  6  0  0  0
 41 34  1  0  0  0  0
M  END
>  <CHROM.1>
-175.27244452,-72.06960740,-167.39222866,141.54947821,168.74557204,159.38383209
-60.80091265,-174.51959009,176.70712164,-0.86875226,92.68692364,10.81141813
0.52368891,-0.94695487,-0.34448270

>  <Name>
2fcy_lig

>  <RI>
224

>  <Rbt.Current_Directory>
/home/itssahil/PROJECTS/Mol_Feturizer/New_Systems/rnas/2fcy

>  <Rbt.Executable>
rbdock ($Id: //depot/dev/client3/rdock/2013.1/src/exe/rbdock.cxx#4 $)

>  <Rbt.Library>
libRbt.so (2013.1, Build901 2013/11/27)

>  <Rbt.Parameter_File>
/export/apps/rDock/src/rDock_2013.1_src/data/scripts/dock_solv.prm

>  <Rbt.Receptor>
prm/pocket_docking_6.prm

>  <SCORE>
-16.1796

>  <SCORE.INTER>
-11.9756

>  <SCORE.INTER.CONST>
1

>  <SCORE.INTER.POLAR>
-2.46252

>  <SCORE.INTER.ROT>
9

>  <SCORE.INTER.SOLV>
15.7251

>  <SCORE.INTER.VDW>
-14.617

>  <SCORE.INTER.norm>
-0.285134

>  <SCORE.INTRA>
-4.20398

>  <SCORE.INTRA.DIHEDRAL>
-7.69858

>  <SCORE.INTRA.DIHEDRAL.0>
17.3446

>  <SCORE.INTRA.POLAR>
0

>  <SCORE.INTRA.POLAR.0>
0

>  <SCORE.INTRA.REPUL>
0

>  <SCORE.INTRA.REPUL.0>
0

>  <SCORE.INTRA.SOLV>
-2.18848

>  <SCORE.INTRA.SOLV.lig_0>
-112.452

>  <SCORE.INTRA.VDW>
0.739555

>  <SCORE.INTRA.VDW.0>
-5.95059

>  <SCORE.INTRA.norm>
-0.100095

>  <SCORE.RESTR>
0

>  <SCORE.RESTR.CAVITY>
0

>  <SCORE.RESTR.norm>
0

>  <SCORE.SYSTEM>
0

>  <SCORE.SYSTEM.CONST>
0

>  <SCORE.SYSTEM.DIHEDRAL>
0

>  <SCORE.SYSTEM.SOLV>
0

>  <SCORE.SYSTEM.norm>
0

>  <SCORE.heavy>
42

>  <SCORE.norm>
-0.385228

>  <RMSD>
5.797

$$$$
2fcy_lig
 OpenBabel11021811433D
libRbt.so/2013.1/901 2013/11/27
 42 45  0  0  0  0  0  0  0  0999 V2000
    2.3669   96.8620   15.0599 C   0  0  2  0  0  0  0  0  0  0  0  0
    3.0297   95.5944   14.9147 O   0  0  0  0  0  0  0  0  0  0  0  0
    3.0322   97.7887   14.0412 C   0  0  2  0  0  0  0  0  0  0  0  0
    2.9533   97.1635   12.7138 N   0  0  0  0  0  0  0  0  0  0  0  0
    4.5009   97.9957   14.4196 C   0  0  1  0  0  0  0  0  0  0  0  0
    5.1440   98.8637   13.4822 O   0  0  0  0  0  0  0  0  0  0  0  0
    4.5835   98.5766   15.8315 C   0  0  2  0  0  0  0  0  0  0  0  0
    5.9536   98.6782   16.2189 O   0  0  0  0  0  0  0  0  0  0  0  0
    3.8856   97.6199   16.7994 C   0  0  2  0  0  0  0  0  0  0  0  0
    2.5265   97.4201   16.3804 O   0  0  0  0  0  0  0  0  0  0  0  0
    3.9531   98.1962   18.2161 C   0  0  0  0  0  0  0  0  0  0  0  0
    3.5450   97.1941   19.2119 N   0  0  0  0  0  0  0  0  0  0  0  0
    2.4137   91.5993   16.0575 C   0  0  2  0  0  0  0  0  0  0  0  0
    1.9481   90.2949   16.5521 N   0  0  0  0  0  0  0  0  0  0  0  0
    2.4167   92.6375   17.1813 C   0  0  0  0  0  0  0  0  0  0  0  0
    3.0332   93.9314   16.6401 C   0  0  2  0  0  0  0  0  0  0  0  0
    2.9668   94.9714   17.6769 N   0  0  0  0  0  0  0  0  0  0  0  0
    2.2978   94.4566   15.4037 C   0  0  2  0  0  0  0  0  0  0  0  0
    2.0399   93.4109   14.3246 C   0  0  2  0  0  0  0  0  0  0  0  0
    1.0349   93.9793   13.4697 O   0  0  0  0  0  0  0  0  0  0  0  0
    1.5197   92.0949   14.9181 C   0  0  1  0  0  0  0  0  0  0  0  0
    1.4721   91.0704   13.9215 O   0  0  0  0  0  0  0  0  0  0  0  0
    0.7686   93.2581   12.2559 C   0  0  1  0  0  0  0  0  0  0  0  0
   -0.6390   93.6374   11.7927 C   0  0  2  0  0  0  0  0  0  0  0  0
   -1.6033   92.8348   12.4781 O   0  0  0  0  0  0  0  0  0  0  0  0
   -0.5378   93.1831   10.3395 C   0  0  1  0  0  0  0  0  0  0  0  0
    0.8217   93.7537    9.9676 C   0  0  2  0  0  0  0  0  0  0  0  0
    1.6248   93.6424   11.1606 O   0  0  0  0  0  0  0  0  0  0  0  0
    0.6498   95.2127    9.5293 C   0  0  0  0  0  0  0  0  0  0  0  0
    1.7286   95.6122    8.6790 O   0  0  0  0  0  0  0  0  0  0  0  0
   -1.8427   91.2348   10.3344 C   0  0  2  0  0  0  0  0  0  0  0  0
   -0.5030   91.7483   10.2790 O   0  0  0  0  0  0  0  0  0  0  0  0
   -1.8060   89.7445   10.6876 C   0  0  1  0  0  0  0  0  0  0  0  0
   -5.9344   90.9619    7.7522 N   0  0  0  0  0  0  0  0  0  0  0  0
   -3.2188   89.1518   10.6524 C   0  0  1  0  0  0  0  0  0  0  0  0
   -4.0090   89.6887   11.7180 O   0  0  0  0  0  0  0  0  0  0  0  0
   -3.8790   89.4648    9.3068 C   0  0  2  0  0  0  0  0  0  0  0  0
   -3.1583   88.7817    8.2756 O   0  0  0  0  0  0  0  0  0  0  0  0
   -3.8459   90.9765    9.0581 C   0  0  1  0  0  0  0  0  0  0  0  0
   -2.4844   91.4445    9.0643 O   0  0  0  0  0  0  0  0  0  0  0  0
   -4.5147   91.3438    7.7307 C   0  0  0  0  0  0  0  0  0  0  0  0
   -0.9832   89.0434    9.6903 N   0  0  0  0  0  0  0  0  0  0  0  0
  1  2  1  1  0  0  0
  1  3  1  0  0  0  0
  1 10  1  0  0  0  0
  3  4  1  6  0  0  0
  3  5  1  0  0  0  0
  5  6  1  6  0  0  0
  5  7  1  0  0  0  0
  7  8  1  1  0  0  0
  7  9  1  0  0  0  0
  9 10  1  0  0  0  0
  9 11  1  1  0  0  0
 11 12  1  0  0  0  0
 13 14  1  1  0  0  0
 13 15  1  0  0  0  0
 13 21  1  0  0  0  0
 16 15  1  0  0  0  0
 16 17  1  1  0  0  0
 18  2  1  6  0  0  0
 18 16  1  0  0  0  0
 19 18  1  0  0  0  0
 19 20  1  6  0  0  0
 21 19  1  0  0  0  0
 21 22  1  6  0  0  0
 23 20  1  1  0  0  0
 23 24  1  0  0  0  0
 23 28  1  0  0  0  0
 24 25  1  1  0  0  0
 24 26  1  0  0  0  0
 26 27  1  0  0  0  0
 26 32  1  1  0  0  0
 27 28  1  0  0  0  0
 27 29  1  1  0  0  0
 29 30  1  0  0  0  0
 31 32  1  6  0  0  0
 31 40  1  0  0  0  0
 33 31  1  0  0  0  0
 33 42  1  6  0  0  0
 35 33  1  0  0  0  0
 35 36  1  1  0  0  0
 37 35  1  0  0  0  0
 37 38  1  6  0  0  0
 37 39  1  0  0  0  0
 39 40  1  0  0  0  0
 39 41  1  6  0  0  0
 41 34  1  0  0  0  0
M  END
>  <CHROM.1>
-158.95500220,-168.37006358,-111.30139364,170.95900908,157.06590866,83.20059703
-156.20508791,-163.29101965,62.17718270,0.79247632,93.70027101,12.92592546
-0.12431458,-0.93624825,-0.91936758

>  <Name>
2fcy_lig

>  <RI>
224

>  <Rbt.Current_Directory>
/home/itssahil/PROJECTS/Mol_Feturizer/New_Systems/rnas/2fcy

>  <Rbt.Executable>
rbdock ($Id: //depot/dev/client3/rdock/2013.1/src/exe/rbdock.cxx#4 $)

>  <Rbt.Library>
libRbt.so (2013.1, Build901 2013/11/27)

>  <Rbt.Parameter_File>
/export/apps/rDock/src/rDock_2013.1_src/data/scripts/dock_solv.prm

>  <Rbt.Receptor>
prm/pocket_docking_6.prm

>  <SCORE>
-17.5549

>  <SCORE.INTER>
-19.6746

>  <SCORE.INTER.CONST>
1

>  <SCORE.INTER.POLAR>
-2.84021

>  <SCORE.INTER.ROT>
9

>  <SCORE.INTER.SOLV>
14.8675

>  <SCORE.INTER.VDW>
-18.2049

>  <SCORE.INTER.norm>
-0.468442

>  <SCORE.INTRA>
2.11965

>  <SCORE.INTRA.DIHEDRAL>
0.0828058

>  <SCORE.INTRA.DIHEDRAL.0>
17.3446

>  <SCORE.INTRA.POLAR>
0

>  <SCORE.INTRA.POLAR.0>
0

>  <SCORE.INTRA.REPUL>
0

>  <SCORE.INTRA.REPUL.0>
0

>  <SCORE.INTRA.SOLV>
0.207216

>  <SCORE.INTRA.SOLV.lig_0>
-112.452

>  <SCORE.INTRA.VDW>
1.97464

>  <SCORE.INTRA.VDW.0>
-5.95059

>  <SCORE.INTRA.norm>
0.0504678

>  <SCORE.RESTR>
0

>  <SCORE.RESTR.CAVITY>
0

>  <SCORE.RESTR.norm>
0

>  <SCORE.SYSTEM>
0

>  <SCORE.SYSTEM.CONST>
0

>  <SCORE.SYSTEM.DIHEDRAL>
0

>  <SCORE.SYSTEM.SOLV>
0

>  <SCORE.SYSTEM.norm>
0

>  <SCORE.heavy>
42

>  <SCORE.norm>
-0.417975

>  <RMSD>
5.820

$$$$
2fcy_lig
 OpenBabel11021811433D
libRbt.so/2013.1/901 2013/11/27
 42 45  0  0  0  0  0  0  0  0999 V2000
    1.7231   91.5847   17.9072 C   0  0  2  0  0  0  0  0  0  0  0  0
    1.2842   92.3582   19.0370 O   0  0  0  0  0  0  0  0  0  0  0  0
    0.6333   90.5351   17.6841 C   0  0  2  0  0  0  0  0  0  0  0  0
   -0.6582   91.2205   17.5390 N   0  0  0  0  0  0  0  0  0  0  0  0
    0.5762   89.5920   18.8884 C   0  0  1  0  0  0  0  0  0  0  0  0
   -0.4345   88.5975   18.7007 O   0  0  0  0  0  0  0  0  0  0  0  0
    1.9434   88.9360   19.0837 C   0  0  2  0  0  0  0  0  0  0  0  0
    1.9153   88.1323   20.2631 O   0  0  0  0  0  0  0  0  0  0  0  0
    2.9920   90.0319   19.2802 C   0  0  2  0  0  0  0  0  0  0  0  0
    2.9787   90.9173   18.1495 O   0  0  0  0  0  0  0  0  0  0  0  0
    4.3679   89.3870   19.4670 C   0  0  0  0  0  0  0  0  0  0  0  0
    5.4060   90.4097   19.6645 N   0  0  0  0  0  0  0  0  0  0  0  0
    2.2557   96.2831   20.1761 C   0  0  2  0  0  0  0  0  0  0  0  0
    2.8571   97.5532   20.6099 N   0  0  0  0  0  0  0  0  0  0  0  0
    2.4598   95.1958   21.2331 C   0  0  0  0  0  0  0  0  0  0  0  0
    1.7014   93.9417   20.7866 C   0  0  2  0  0  0  0  0  0  0  0  0
    1.9545   92.8550   21.7437 N   0  0  0  0  0  0  0  0  0  0  0  0
    2.1392   93.4562   19.4017 C   0  0  2  0  0  0  0  0  0  0  0  0
    2.1939   94.5432   18.3341 C   0  0  2  0  0  0  0  0  0  0  0  0
    2.9750   93.9913   17.2620 O   0  0  0  0  0  0  0  0  0  0  0  0
    2.8700   95.8192   18.8531 C   0  0  1  0  0  0  0  0  0  0  0  0
    2.7362   96.8860   17.9102 O   0  0  0  0  0  0  0  0  0  0  0  0
    2.4154   94.1326   15.9463 C   0  0  1  0  0  0  0  0  0  0  0  0
    3.2987   93.3401   14.9812 C   0  0  2  0  0  0  0  0  0  0  0  0
    4.4179   94.1380   14.5882 O   0  0  0  0  0  0  0  0  0  0  0  0
    2.3226   93.2209   13.8144 C   0  0  1  0  0  0  0  0  0  0  0  0
    1.0546   92.8285   14.5563 C   0  0  2  0  0  0  0  0  0  0  0  0
    1.1087   93.5370   15.8116 O   0  0  0  0  0  0  0  0  0  0  0  0
    1.0425   91.3089   14.7586 C   0  0  0  0  0  0  0  0  0  0  0  0
    1.2633   90.6349   13.5163 O   0  0  0  0  0  0  0  0  0  0  0  0
    1.1569   94.4036   12.1588 C   0  0  2  0  0  0  0  0  0  0  0  0
    2.1510   94.5032   13.1900 O   0  0  0  0  0  0  0  0  0  0  0  0
    1.5232   93.2643   11.2023 C   0  0  1  0  0  0  0  0  0  0  0  0
    1.2143   97.4375    9.1900 N   0  0  0  0  0  0  0  0  0  0  0  0
    0.5305   93.2052   10.0362 C   0  0  1  0  0  0  0  0  0  0  0  0
   -0.7593   92.7964   10.5026 O   0  0  0  0  0  0  0  0  0  0  0  0
    0.4307   94.5802    9.3701 C   0  0  2  0  0  0  0  0  0  0  0  0
    1.6945   94.8905    8.7733 O   0  0  0  0  0  0  0  0  0  0  0  0
    0.0731   95.6355   10.4221 C   0  0  1  0  0  0  0  0  0  0  0  0
    1.0747   95.6560   11.4561 O   0  0  0  0  0  0  0  0  0  0  0  0
   -0.0593   97.0284    9.8004 C   0  0  0  0  0  0  0  0  0  0  0  0
    2.8653   93.5190   10.6572 N   0  0  0  0  0  0  0  0  0  0  0  0
  1  2  1  1  0  0  0
  1  3  1  0  0  0  0
  1 10  1  0  0  0  0
  3  4  1  1  0  0  0
  3  5  1  0  0  0  0
  5  6  1  6  0  0  0
  5  7  1  0  0  0  0
  7  8  1  1  0  0  0
  7  9  1  0  0  0  0
  9 10  1  0  0  0  0
  9 11  1  6  0  0  0
 11 12  1  0  0  0  0
 13 14  1  1  0  0  0
 13 15  1  0  0  0  0
 13 21  1  0  0  0  0
 16 15  1  0  0  0  0
 16 17  1  1  0  0  0
 18  2  1  6  0  0  0
 18 16  1  0  0  0  0
 19 18  1  0  0  0  0
 19 20  1  6  0  0  0
 21 19  1  0  0  0  0
 21 22  1  6  0  0  0
 23 20  1  1  0  0  0
 23 24  1  0  0  0  0
 23 28  1  0  0  0  0
 24 25  1  6  0  0  0
 24 26  1  0  0  0  0
 26 27  1  0  0  0  0
 26 32  1  1  0  0  0
 27 28  1  0  0  0  0
 27 29  1  1  0  0  0
 29 30  1  0  0  0  0
 31 32  1  1  0  0  0
 31 40  1  0  0  0  0
 33 31  1  0  0  0  0
 33 42  1  6  0  0  0
 35 33  1  0  0  0  0
 35 36  1  1  0  0  0
 37 35  1  0  0  0  0
 37 38  1  1  0  0  0
 37 39  1  0  0  0  0
 39 40  1  0  0  0  0
 39 41  1  6  0  0  0
 41 34  1  0  0  0  0
M  END
>  <CHROM.1>
-177.54828498,-179.78720721,-166.93587940,132.02589820,-173.15616434,-175.71315080
-51.93498919,-53.19601875,-60.97830391,1.80272841,93.13748863,15.84781785
0.98906150,1.34039594,2.45853782

>  <Name>
2fcy_lig

>  <RI>
2.89127e+07

>  <Rbt.Current_Directory>
/home/itssahil/PROJECTS/Mol_Feturizer/New_Systems/rnas/2fcy

>  <Rbt.Executable>
rbdock ($Id: //depot/dev/client3/rdock/2013.1/src/exe/rbdock.cxx#4 $)

>  <Rbt.Library>
libRbt.so (2013.1, Build901 2013/11/27)

>  <Rbt.Parameter_File>
/export/apps/rDock/src/rDock_2013.1_src/data/scripts/dock_solv.prm

>  <Rbt.Receptor>
prm/pocket_docking_7.prm

>  <SCORE>
-20.677

>  <SCORE.INTER>
-19.2363

>  <SCORE.INTER.CONST>
1

>  <SCORE.INTER.POLAR>
-2.85251

>  <SCORE.INTER.ROT>
9

>  <SCORE.INTER.SOLV>
24.1145

>  <SCORE.INTER.VDW>
-20.954

>  <SCORE.INTER.norm>
-0.458008

>  <SCORE.INTRA>
-1.45062

>  <SCORE.INTRA.DIHEDRAL>
-8.61446

>  <SCORE.INTRA.DIHEDRAL.0>
17.3446

>  <SCORE.INTRA.POLAR>
0

>  <SCORE.INTRA.POLAR.0>
0

>  <SCORE.INTRA.REPUL>
0

>  <SCORE.INTRA.REPUL.0>
0

>  <SCORE.INTRA.SOLV>
-0.591571

>  <SCORE.INTRA.SOLV.lig_0>
-112.452

>  <SCORE.INTRA.VDW>
3.1524

>  <SCORE.INTRA.VDW.0>
-5.95059

>  <SCORE.INTRA.norm>
-0.0345385

>  <SCORE.RESTR>
0.00992276

>  <SCORE.RESTR.CAVITY>
0.00992276

>  <SCORE.RESTR.norm>
0.000236256

>  <SCORE.SYSTEM>
0

>  <SCORE.SYSTEM.CONST>
0

>  <SCORE.SYSTEM.DIHEDRAL>
0

>  <SCORE.SYSTEM.SOLV>
0

>  <SCORE.SYSTEM.norm>
0

>  <SCORE.heavy>
42

>  <SCORE.norm>
-0.49231

>  <RMSD>
5.844

$$$$
2fcy_lig
 OpenBabel11021811433D
libRbt.so/2013.1/901 2013/11/27
 42 45  0  0  0  0  0  0  0  0999 V2000
    2.5090   96.4481   11.0338 C   0  0  2  0  0  0  0  0  0  0  0  0
    3.2646   95.7242   12.0198 O   0  0  0  0  0  0  0  0  0  0  0  0
    3.4942   97.4394   10.4127 C   0  0  2  0  0  0  0  0  0  0  0  0
    4.6617   96.6966    9.9189 N   0  0  0  0  0  0  0  0  0  0  0  0
    3.9439   98.4473   11.4735 C   0  0  1  0  0  0  0  0  0  0  0  0
    4.8639   99.3888   10.9143 O   0  0  0  0  0  0  0  0  0  0  0  0
    2.7196   99.1666   12.0405 C   0  0  2  0  0  0  0  0  0  0  0  0
    3.1312  100.0351   13.0959 O   0  0  0  0  0  0  0  0  0  0  0  0
    1.7643   98.1258   12.6265 C   0  0  2  0  0  0  0  0  0  0  0  0
    1.4057   97.1771   11.6098 O   0  0  0  0  0  0  0  0  0  0  0  0
    0.5289   98.8339   13.1888 C   0  0  0  0  0  0  0  0  0  0  0  0
    0.8846   99.6796   14.3381 N   0  0  0  0  0  0  0  0  0  0  0  0
    2.3642   91.9846   13.7085 C   0  0  2  0  0  0  0  0  0  0  0  0
    1.8472   90.8175   14.4389 N   0  0  0  0  0  0  0  0  0  0  0  0
    2.8003   93.0840   14.6790 C   0  0  0  0  0  0  0  0  0  0  0  0
    3.4487   94.2117   13.8695 C   0  0  2  0  0  0  0  0  0  0  0  0
    3.7972   95.3186   14.7719 N   0  0  0  0  0  0  0  0  0  0  0  0
    2.5161   94.7659   12.7886 C   0  0  2  0  0  0  0  0  0  0  0  0
    1.8458   93.7059   11.9217 C   0  0  2  0  0  0  0  0  0  0  0  0
    0.7562   94.3758   11.2675 O   0  0  0  0  0  0  0  0  0  0  0  0
    1.2994   92.5438   12.7616 C   0  0  1  0  0  0  0  0  0  0  0  0
    0.8541   91.4745   11.9229 O   0  0  0  0  0  0  0  0  0  0  0  0
    0.0261   93.5908   10.3109 C   0  0  1  0  0  0  0  0  0  0  0  0
   -1.0917   94.4705    9.7484 C   0  0  2  0  0  0  0  0  0  0  0  0
   -2.2173   94.4395   10.6292 O   0  0  0  0  0  0  0  0  0  0  0  0
   -1.4080   93.6702    8.4883 C   0  0  1  0  0  0  0  0  0  0  0  0
   -0.0024   93.3960    7.9772 C   0  0  2  0  0  0  0  0  0  0  0  0
    0.8081   93.2192    9.1573 O   0  0  0  0  0  0  0  0  0  0  0  0
    0.4665   94.5889    7.1362 C   0  0  0  0  0  0  0  0  0  0  0  0
   -0.3551   94.7387    5.9748 O   0  0  0  0  0  0  0  0  0  0  0  0
   -2.5007   91.7710    7.6531 C   0  0  2  0  0  0  0  0  0  0  0  0
   -2.0523   92.4365    8.8437 O   0  0  0  0  0  0  0  0  0  0  0  0
   -3.6284   92.5819    7.0067 C   0  0  1  0  0  0  0  0  0  0  0  0
   -2.5372   87.5940    7.7631 N   0  0  0  0  0  0  0  0  0  0  0  0
   -4.1916   91.8390    5.7904 C   0  0  1  0  0  0  0  0  0  0  0  0
   -3.2194   91.7962    4.7410 O   0  0  0  0  0  0  0  0  0  0  0  0
   -4.5881   90.4151    6.1903 C   0  0  2  0  0  0  0  0  0  0  0  0
   -5.6725   90.4885    7.1220 O   0  0  0  0  0  0  0  0  0  0  0  0
   -3.3892   89.7101    6.8336 C   0  0  1  0  0  0  0  0  0  0  0  0
   -2.9500   90.4468    7.9900 O   0  0  0  0  0  0  0  0  0  0  0  0
   -3.7296   88.2718    7.2333 C   0  0  0  0  0  0  0  0  0  0  0  0
   -4.7099   92.7519    7.9888 N   0  0  0  0  0  0  0  0  0  0  0  0
  1  2  1  1  0  0  0
  1  3  1  0  0  0  0
  1 10  1  0  0  0  0
  3  4  1  1  0  0  0
  3  5  1  0  0  0  0
  5  6  1  6  0  0  0
  5  7  1  0  0  0  0
  7  8  1  1  0  0  0
  7  9  1  0  0  0  0
  9 10  1  0  0  0  0
  9 11  1  6  0  0  0
 11 12  1  0  0  0  0
 13 14  1  1  0  0  0
 13 15  1  0  0  0  0
 13 21  1  0  0  0  0
 16 15  1  0  0  0  0
 16 17  1  1  0  0  0
 18  2  1  6  0  0  0
 18 16  1  0  0  0  0
 19 18  1  0  0  0  0
 19 20  1  1  0  0  0
 21 19  1  0  0  0  0
 21 22  1  6  0  0  0
 23 20  1  1  0  0  0
 23 24  1  0  0  0  0
 23 28  1  0  0  0  0
 24 25  1  1  0  0  0
 24 26  1  0  0  0  0
 26 27  1  0  0  0  0
 26 32  1  1  0  0  0
 27 28  1  0  0  0  0
 27 29  1  1  0  0  0
 29 30  1  0  0  0  0
 31 32  1  1  0  0  0
 31 40  1  0  0  0  0
 33 31  1  0  0  0  0
 33 42  1  1  0  0  0
 35 33  1  0  0  0  0
 35 36  1  6  0  0  0
 37 35  1  0  0  0  0
 37 38  1  1  0  0  0
 37 39  1  0  0  0  0
 39 40  1  0  0  0  0
 39 41  1  1  0  0  0
 41 34  1  0  0  0  0
M  END
>  <CHROM.1>
177.11356055,-65.82319226,-174.21257749,175.65793238,179.21217128,172.61526360
-63.72584239,-67.49020045,176.18798394,0.16933753,94.09480160,10.20059005
0.30700681,-0.88738879,-0.46503502

>  <Name>
2fcy_lig

>  <RI>
224

>  <Rbt.Current_Directory>
/home/itssahil/PROJECTS/Mol_Feturizer/New_Systems/rnas/2fcy

>  <Rbt.Executable>
rbdock ($Id: //depot/dev/client3/rdock/2013.1/src/exe/rbdock.cxx#4 $)

>  <Rbt.Library>
libRbt.so (2013.1, Build901 2013/11/27)

>  <Rbt.Parameter_File>
/export/apps/rDock/src/rDock_2013.1_src/data/scripts/dock_solv.prm

>  <Rbt.Receptor>
prm/pocket_docking_6.prm

>  <SCORE>
-7.88506

>  <SCORE.INTER>
-1.58554

>  <SCORE.INTER.CONST>
1

>  <SCORE.INTER.POLAR>
-0.562441

>  <SCORE.INTER.ROT>
9

>  <SCORE.INTER.SOLV>
17.838

>  <SCORE.INTER.VDW>
-14.7282

>  <SCORE.INTER.norm>
-0.0377509

>  <SCORE.INTRA>
-6.29952

>  <SCORE.INTRA.DIHEDRAL>
-15.6424

>  <SCORE.INTRA.DIHEDRAL.0>
17.3446

>  <SCORE.INTRA.POLAR>
0

>  <SCORE.INTRA.POLAR.0>
0

>  <SCORE.INTRA.REPUL>
0

>  <SCORE.INTRA.REPUL.0>
0

>  <SCORE.INTRA.SOLV>
-4.26002

>  <SCORE.INTRA.SOLV.lig_0>
-112.452

>  <SCORE.INTRA.VDW>
3.65169

>  <SCORE.INTRA.VDW.0>
-5.95059

>  <SCORE.INTRA.norm>
-0.149989

>  <SCORE.RESTR>
0

>  <SCORE.RESTR.CAVITY>
0

>  <SCORE.RESTR.norm>
0

>  <SCORE.SYSTEM>
0

>  <SCORE.SYSTEM.CONST>
0

>  <SCORE.SYSTEM.DIHEDRAL>
0

>  <SCORE.SYSTEM.SOLV>
0

>  <SCORE.SYSTEM.norm>
0

>  <SCORE.heavy>
42

>  <SCORE.norm>
-0.187739

>  <RMSD>
5.894

$$$$
2fcy_lig
 OpenBabel11021811433D
libRbt.so/2013.1/901 2013/11/27
 42 45  0  0  0  0  0  0  0  0999 V2000
    1.6691   95.6396   12.0064 C   0  0  2  0  0  0  0  0  0  0  0  0
    2.5468   95.2949   13.0918 O   0  0  0  0  0  0  0  0  0  0  0  0
    2.3500   96.8044   11.2862 C   0  0  2  0  0  0  0  0  0  0  0  0
    3.7121   96.3974   10.9151 N   0  0  0  0  0  0  0  0  0  0  0  0
    2.4176   98.0151   12.2205 C   0  0  1  0  0  0  0  0  0  0  0  0
    3.0476   99.1202   11.5666 O   0  0  0  0  0  0  0  0  0  0  0  0
    1.0041   98.3911   12.6659 C   0  0  2  0  0  0  0  0  0  0  0  0
    1.0771   99.4578   13.6117 O   0  0  0  0  0  0  0  0  0  0  0  0
    0.3684   97.1846   13.3582 C   0  0  2  0  0  0  0  0  0  0  0  0
    0.3675   96.0624   12.4621 O   0  0  0  0  0  0  0  0  0  0  0  0
   -1.0520   97.5462   13.8002 C   0  0  0  0  0  0  0  0  0  0  0  0
   -1.9359   97.7223   12.6381 N   0  0  0  0  0  0  0  0  0  0  0  0
    2.5384   91.8415   15.4836 C   0  0  2  0  0  0  0  0  0  0  0  0
    2.2948   90.7390   16.4260 N   0  0  0  0  0  0  0  0  0  0  0  0
    2.6076   93.1809   16.2198 C   0  0  0  0  0  0  0  0  0  0  0  0
    2.9933   94.2664   15.2098 C   0  0  2  0  0  0  0  0  0  0  0  0
    2.9806   95.5764   15.8766 N   0  0  0  0  0  0  0  0  0  0  0  0
    2.0233   94.3349   14.0266 C   0  0  2  0  0  0  0  0  0  0  0  0
    1.7114   92.9896   13.3807 C   0  0  2  0  0  0  0  0  0  0  0  0
    0.5315   93.2061   12.5901 O   0  0  0  0  0  0  0  0  0  0  0  0
    1.4309   91.9047   14.4289 C   0  0  1  0  0  0  0  0  0  0  0  0
    1.3362   90.6163   13.8156 O   0  0  0  0  0  0  0  0  0  0  0  0
    0.2434   92.1953   11.6105 C   0  0  1  0  0  0  0  0  0  0  0  0
   -1.1045   92.5394   10.9746 C   0  0  2  0  0  0  0  0  0  0  0  0
   -2.1643   92.0425   11.7953 O   0  0  0  0  0  0  0  0  0  0  0  0
   -0.9932   91.6868    9.7140 C   0  0  1  0  0  0  0  0  0  0  0  0
    0.4265   92.0189    9.2824 C   0  0  2  0  0  0  0  0  0  0  0  0
    1.1714   92.1853   10.5065 O   0  0  0  0  0  0  0  0  0  0  0  0
    0.4085   93.3037    8.4462 C   0  0  0  0  0  0  0  0  0  0  0  0
   -0.3782   93.1233    7.2651 O   0  0  0  0  0  0  0  0  0  0  0  0
   -1.3925   89.5325    8.8784 C   0  0  2  0  0  0  0  0  0  0  0  0
   -1.0909   90.2953   10.0568 O   0  0  0  0  0  0  0  0  0  0  0  0
   -2.8381   89.8028    8.4491 C   0  0  1  0  0  0  0  0  0  0  0  0
   -1.0208   85.0696    7.0745 N   0  0  0  0  0  0  0  0  0  0  0  0
   -3.2141   88.9218    7.2528 C   0  0  1  0  0  0  0  0  0  0  0  0
   -2.4809   89.3231    6.0911 O   0  0  0  0  0  0  0  0  0  0  0  0
   -2.9158   87.4550    7.5749 C   0  0  2  0  0  0  0  0  0  0  0  0
   -3.7798   87.0366    8.6369 O   0  0  0  0  0  0  0  0  0  0  0  0
   -1.4510   87.3108    8.0015 C   0  0  1  0  0  0  0  0  0  0  0  0
   -1.1925   88.1349    9.1534 O   0  0  0  0  0  0  0  0  0  0  0  0
   -1.0964   85.8547    8.3153 C   0  0  0  0  0  0  0  0  0  0  0  0
   -3.7324   89.4719    9.5688 N   0  0  0  0  0  0  0  0  0  0  0  0
  1  2  1  1  0  0  0
  1  3  1  0  0  0  0
  1 10  1  0  0  0  0
  3  4  1  1  0  0  0
  3  5  1  0  0  0  0
  5  6  1  6  0  0  0
  5  7  1  0  0  0  0
  7  8  1  1  0  0  0
  7  9  1  0  0  0  0
  9 10  1  0  0  0  0
  9 11  1  6  0  0  0
 11 12  1  0  0  0  0
 13 14  1  1  0  0  0
 13 15  1  0  0  0  0
 13 21  1  0  0  0  0
 16 15  1  0  0  0  0
 16 17  1  1  0  0  0
 18  2  1  6  0  0  0
 18 16  1  0  0  0  0
 19 18  1  0  0  0  0
 19 20  1  6  0  0  0
 21 19  1  0  0  0  0
 21 22  1  6  0  0  0
 23 20  1  1  0  0  0
 23 24  1  0  0  0  0
 23 28  1  0  0  0  0
 24 25  1  1  0  0  0
 24 26  1  0  0  0  0
 26 27  1  0  0  0  0
 26 32  1  1  0  0  0
 27 28  1  0  0  0  0
 27 29  1  1  0  0  0
 29 30  1  0  0  0  0
 31 32  1  1  0  0  0
 31 40  1  0  0  0  0
 33 31  1  0  0  0  0
 33 42  1  1  0  0  0
 35 33  1  0  0  0  0
 35 36  1  6  0  0  0
 37 35  1  0  0  0  0
 37 38  1  1  0  0  0
 37 39  1  0  0  0  0
 39 40  1  0  0  0  0
 39 41  1  1  0  0  0
 41 34  1  0  0  0  0
M  END
>  <CHROM.1>
171.85109181,68.67942973,-171.21017839,163.99557033,174.80815943,162.64009151
-61.55626834,-71.29903880,72.44271555,0.16256104,92.70470837,11.30382874
0.72526750,-1.06693263,-0.21697212

>  <Name>
2fcy_lig

>  <RI>
2.89127e+07

>  <Rbt.Current_Directory>
/home/itssahil/PROJECTS/Mol_Feturizer/New_Systems/rnas/2fcy

>  <Rbt.Executable>
rbdock ($Id: //depot/dev/client3/rdock/2013.1/src/exe/rbdock.cxx#4 $)

>  <Rbt.Library>
libRbt.so (2013.1, Build901 2013/11/27)

>  <Rbt.Parameter_File>
/export/apps/rDock/src/rDock_2013.1_src/data/scripts/dock_solv.prm

>  <Rbt.Receptor>
prm/pocket_docking_7.prm

>  <SCORE>
-14.4834

>  <SCORE.INTER>
-8.86417

>  <SCORE.INTER.CONST>
1

>  <SCORE.INTER.POLAR>
-1.42845

>  <SCORE.INTER.ROT>
9

>  <SCORE.INTER.SOLV>
11.362

>  <SCORE.INTER.VDW>
-14.5353

>  <SCORE.INTER.norm>
-0.211052

>  <SCORE.INTRA>
-5.61921

>  <SCORE.INTRA.DIHEDRAL>
-12.0007

>  <SCORE.INTRA.DIHEDRAL.0>
17.3446

>  <SCORE.INTRA.POLAR>
0

>  <SCORE.INTRA.POLAR.0>
0

>  <SCORE.INTRA.REPUL>
0

>  <SCORE.INTRA.REPUL.0>
0

>  <SCORE.INTRA.SOLV>
-3.6938

>  <SCORE.INTRA.SOLV.lig_0>
-112.452

>  <SCORE.INTRA.VDW>
2.22803

>  <SCORE.INTRA.VDW.0>
-5.95059

>  <SCORE.INTRA.norm>
-0.133791

>  <SCORE.RESTR>
0

>  <SCORE.RESTR.CAVITY>
0

>  <SCORE.RESTR.norm>
0

>  <SCORE.SYSTEM>
0

>  <SCORE.SYSTEM.CONST>
0

>  <SCORE.SYSTEM.DIHEDRAL>
0

>  <SCORE.SYSTEM.SOLV>
0

>  <SCORE.SYSTEM.norm>
0

>  <SCORE.heavy>
42

>  <SCORE.norm>
-0.344842

>  <RMSD>
5.949

$$$$
2fcy_lig
 OpenBabel11021811433D
libRbt.so/2013.1/901 2013/11/27
 42 45  0  0  0  0  0  0  0  0999 V2000
    0.9685   95.1729    9.8023 C   0  0  2  0  0  0  0  0  0  0  0  0
   -0.1110   94.9784   10.7319 O   0  0  0  0  0  0  0  0  0  0  0  0
    0.4679   96.2244    8.8110 C   0  0  2  0  0  0  0  0  0  0  0  0
    0.0359   97.4115    9.5614 N   0  0  0  0  0  0  0  0  0  0  0  0
   -0.7175   95.6618    8.0225 C   0  0  1  0  0  0  0  0  0  0  0  0
   -1.2010   96.6271    7.0845 O   0  0  0  0  0  0  0  0  0  0  0  0
   -0.2862   94.3840    7.3020 C   0  0  2  0  0  0  0  0  0  0  0  0
   -1.4166   93.8091    6.6468 O   0  0  0  0  0  0  0  0  0  0  0  0
    0.2228   93.3816    8.3390 C   0  0  2  0  0  0  0  0  0  0  0  0
    1.3020   93.9676    9.0837 O   0  0  0  0  0  0  0  0  0  0  0  0
    0.6673   92.1008    7.6279 C   0  0  0  0  0  0  0  0  0  0  0  0
    1.1812   91.1154    8.5909 N   0  0  0  0  0  0  0  0  0  0  0  0
    2.3131   93.0448   13.5659 C   0  0  2  0  0  0  0  0  0  0  0  0
    2.9782   92.4731   14.7465 N   0  0  0  0  0  0  0  0  0  0  0  0
    2.2023   94.5659   13.6875 C   0  0  0  0  0  0  0  0  0  0  0  0
    1.6256   95.1131   12.3778 C   0  0  2  0  0  0  0  0  0  0  0  0
    1.4282   96.5644   12.5033 N   0  0  0  0  0  0  0  0  0  0  0  0
    0.2729   94.4860   12.0279 C   0  0  2  0  0  0  0  0  0  0  0  0
    0.2344   92.9646   12.1179 C   0  0  2  0  0  0  0  0  0  0  0  0
   -1.1590   92.6153   12.1439 O   0  0  0  0  0  0  0  0  0  0  0  0
    0.9126   92.4511   13.3950 C   0  0  1  0  0  0  0  0  0  0  0  0
    1.0411   91.0272   13.3662 O   0  0  0  0  0  0  0  0  0  0  0  0
   -1.5986   91.7278   11.1030 C   0  0  1  0  0  0  0  0  0  0  0  0
   -1.2644   90.3009   11.5410 C   0  0  2  0  0  0  0  0  0  0  0  0
    0.0958   90.0044   11.2159 O   0  0  0  0  0  0  0  0  0  0  0  0
   -2.1916   89.5425   10.5958 C   0  0  1  0  0  0  0  0  0  0  0  0
   -3.4653   90.3591   10.7470 C   0  0  2  0  0  0  0  0  0  0  0  0
   -3.0292   91.7232   10.9193 O   0  0  0  0  0  0  0  0  0  0  0  0
   -4.2448   89.8508   11.9653 C   0  0  0  0  0  0  0  0  0  0  0  0
   -5.4910   90.5423   12.0886 O   0  0  0  0  0  0  0  0  0  0  0  0
   -2.6432   89.0344    8.3517 C   0  0  2  0  0  0  0  0  0  0  0  0
   -1.7007   89.6402    9.2494 O   0  0  0  0  0  0  0  0  0  0  0  0
   -2.7455   87.5354    8.6512 C   0  0  1  0  0  0  0  0  0  0  0  0
   -3.6508   88.5378    3.6345 N   0  0  0  0  0  0  0  0  0  0  0  0
   -3.6695   86.8498    7.6389 C   0  0  1  0  0  0  0  0  0  0  0  0
   -5.0207   87.2819    7.8282 O   0  0  0  0  0  0  0  0  0  0  0  0
   -3.2132   87.1785    6.2147 C   0  0  2  0  0  0  0  0  0  0  0  0
   -1.9234   86.5945    6.0031 O   0  0  0  0  0  0  0  0  0  0  0  0
   -3.1371   88.6988    6.0382 C   0  0  1  0  0  0  0  0  0  0  0  0
   -2.2187   89.2580    6.9957 O   0  0  0  0  0  0  0  0  0  0  0  0
   -2.7040   89.0803    4.6200 C   0  0  0  0  0  0  0  0  0  0  0  0
   -1.4062   86.9388    8.5358 N   0  0  0  0  0  0  0  0  0  0  0  0
  1  2  1  1  0  0  0
  1  3  1  0  0  0  0
  1 10  1  0  0  0  0
  3  4  1  1  0  0  0
  3  5  1  0  0  0  0
  5  6  1  6  0  0  0
  5  7  1  0  0  0  0
  7  8  1  1  0  0  0
  7  9  1  0  0  0  0
  9 10  1  0  0  0  0
  9 11  1  6  0  0  0
 11 12  1  0  0  0  0
 13 14  1  1  0  0  0
 13 15  1  0  0  0  0
 13 21  1  0  0  0  0
 16 15  1  0  0  0  0
 16 17  1  1  0  0  0
 18  2  1  6  0  0  0
 18 16  1  0  0  0  0
 19 18  1  0  0  0  0
 19 20  1  1  0  0  0
 21 19  1  0  0  0  0
 21 22  1  6  0  0  0
 23 20  1  1  0  0  0
 23 24  1  0  0  0  0
 23 28  1  0  0  0  0
 24 25  1  6  0  0  0
 24 26  1  0  0  0  0
 26 27  1  0  0  0  0
 26 32  1  6  0  0  0
 27 28  1  0  0  0  0
 27 29  1  1  0  0  0
 29 30  1  0  0  0  0
 31 32  1  1  0  0  0
 31 40  1  0  0  0  0
 33 31  1  0  0  0  0
 33 42  1  6  0  0  0
 35 33  1  0  0  0  0
 35 36  1  6  0  0  0
 37 35  1  0  0  0  0
 37 38  1  1  0  0  0
 37 39  1  0  0  0  0
 39 40  1  0  0  0  0
 39 41  1  6  0  0  0
 41 34  1  0  0  0  0
M  END
>  <CHROM.1>
-155.50049945,179.25555702,35.66527007,122.39644191,82.57622224,-174.55163797
-176.39252738,-64.39516534,59.05945501,-1.03412662,91.66980890,9.64157980
-0.07946400,-1.09096787,-1.06446342

>  <Name>
2fcy_lig

>  <RI>
2.89127e+07

>  <Rbt.Current_Directory>
/home/itssahil/PROJECTS/Mol_Feturizer/New_Systems/rnas/2fcy

>  <Rbt.Executable>
rbdock ($Id: //depot/dev/client3/rdock/2013.1/src/exe/rbdock.cxx#4 $)

>  <Rbt.Library>
libRbt.so (2013.1, Build901 2013/11/27)

>  <Rbt.Parameter_File>
/export/apps/rDock/src/rDock_2013.1_src/data/scripts/dock_solv.prm

>  <Rbt.Receptor>
prm/pocket_docking_7.prm

>  <SCORE>
-13.443

>  <SCORE.INTER>
-16.7325

>  <SCORE.INTER.CONST>
1

>  <SCORE.INTER.POLAR>
-2.52166

>  <SCORE.INTER.ROT>
9

>  <SCORE.INTER.SOLV>
12.6544

>  <SCORE.INTER.VDW>
-16.5676

>  <SCORE.INTER.norm>
-0.398392

>  <SCORE.INTRA>
3.28944

>  <SCORE.INTRA.DIHEDRAL>
-2.052

>  <SCORE.INTRA.DIHEDRAL.0>
17.3446

>  <SCORE.INTRA.POLAR>
0

>  <SCORE.INTRA.POLAR.0>
0

>  <SCORE.INTRA.REPUL>
0

>  <SCORE.INTRA.REPUL.0>
0

>  <SCORE.INTRA.SOLV>
1.08371

>  <SCORE.INTRA.SOLV.lig_0>
-112.452

>  <SCORE.INTRA.VDW>
3.77359

>  <SCORE.INTRA.VDW.0>
-5.95059

>  <SCORE.INTRA.norm>
0.07832

>  <SCORE.RESTR>
0

>  <SCORE.RESTR.CAVITY>
0

>  <SCORE.RESTR.norm>
0

>  <SCORE.SYSTEM>
0

>  <SCORE.SYSTEM.CONST>
0

>  <SCORE.SYSTEM.DIHEDRAL>
0

>  <SCORE.SYSTEM.SOLV>
0

>  <SCORE.SYSTEM.norm>
0

>  <SCORE.heavy>
42

>  <SCORE.norm>
-0.320072

>  <RMSD>
6.023

$$$$
2fcy_lig
 OpenBabel11021811433D
libRbt.so/2013.1/901 2013/11/27
 42 45  0  0  0  0  0  0  0  0999 V2000
    1.5927   95.5919   11.9845 C   0  0  2  0  0  0  0  0  0  0  0  0
    2.4918   95.3031   13.0687 O   0  0  0  0  0  0  0  0  0  0  0  0
    2.2168   96.7741   11.2416 C   0  0  2  0  0  0  0  0  0  0  0  0
    3.5931   96.4215   10.8668 N   0  0  0  0  0  0  0  0  0  0  0  0
    2.2372   98.0010   12.1567 C   0  0  1  0  0  0  0  0  0  0  0  0
    2.8136   99.1224   11.4813 O   0  0  0  0  0  0  0  0  0  0  0  0
    0.8115   98.3215   12.6066 C   0  0  2  0  0  0  0  0  0  0  0  0
    0.8437   99.4050   13.5354 O   0  0  0  0  0  0  0  0  0  0  0  0
    0.2342   97.0991   13.3220 C   0  0  2  0  0  0  0  0  0  0  0  0
    0.2768   95.9641   12.4431 O   0  0  0  0  0  0  0  0  0  0  0  0
   -1.1979   97.4048   13.7686 C   0  0  0  0  0  0  0  0  0  0  0  0
   -2.1098   97.4525   12.6160 N   0  0  0  0  0  0  0  0  0  0  0  0
    2.6224   91.9277   15.5658 C   0  0  2  0  0  0  0  0  0  0  0  0
    2.4237   90.8462   16.5425 N   0  0  0  0  0  0  0  0  0  0  0  0
    2.6409   93.2909   16.2602 C   0  0  0  0  0  0  0  0  0  0  0  0
    2.9821   94.3587   15.2159 C   0  0  2  0  0  0  0  0  0  0  0  0
    2.9199   95.6873   15.8420 N   0  0  0  0  0  0  0  0  0  0  0  0
    2.0079   94.3529   14.0343 C   0  0  2  0  0  0  0  0  0  0  0  0
    1.7473   92.9771   13.4311 C   0  0  2  0  0  0  0  0  0  0  0  0
    0.5583   93.1231   12.6380 O   0  0  0  0  0  0  0  0  0  0  0  0
    1.5112   91.9151   14.5132 C   0  0  1  0  0  0  0  0  0  0  0  0
    1.4655   90.6056   13.9402 O   0  0  0  0  0  0  0  0  0  0  0  0
    0.3026   92.0672   11.6979 C   0  0  1  0  0  0  0  0  0  0  0  0
   -1.1315   92.2354   11.1932 C   0  0  2  0  0  0  0  0  0  0  0  0
   -2.0402   91.6303   12.1162 O   0  0  0  0  0  0  0  0  0  0  0  0
   -1.0386   91.3792    9.9336 C   0  0  1  0  0  0  0  0  0  0  0  0
    0.2828   91.8711    9.3642 C   0  0  2  0  0  0  0  0  0  0  0  0
    1.1154   92.1481   10.5091 O   0  0  0  0  0  0  0  0  0  0  0  0
    0.0296   93.1288    8.5249 C   0  0  0  0  0  0  0  0  0  0  0  0
    1.2675   93.7147    8.1119 O   0  0  0  0  0  0  0  0  0  0  0  0
   -1.1612   89.1786    9.1330 C   0  0  2  0  0  0  0  0  0  0  0  0
   -0.9339   89.9926   10.2938 O   0  0  0  0  0  0  0  0  0  0  0  0
   -2.5794   89.4211    8.6068 C   0  0  1  0  0  0  0  0  0  0  0  0
    0.6131   85.3664    9.0657 N   0  0  0  0  0  0  0  0  0  0  0  0
   -2.8793   88.4878    7.4289 C   0  0  1  0  0  0  0  0  0  0  0  0
   -2.0792   88.8442    6.2970 O   0  0  0  0  0  0  0  0  0  0  0  0
   -2.5952   87.0379    7.8306 C   0  0  2  0  0  0  0  0  0  0  0  0
   -3.5199   86.6594    8.8559 O   0  0  0  0  0  0  0  0  0  0  0  0
   -1.1582   86.9214    8.3499 C   0  0  1  0  0  0  0  0  0  0  0  0
   -0.9727   87.7952    9.4790 O   0  0  0  0  0  0  0  0  0  0  0  0
   -0.8174   85.4822    8.7462 C   0  0  0  0  0  0  0  0  0  0  0  0
   -3.5381   89.1322    9.6840 N   0  0  0  0  0  0  0  0  0  0  0  0
  1  2  1  1  0  0  0
  1  3  1  0  0  0  0
  1 10  1  0  0  0  0
  3  4  1  1  0  0  0
  3  5  1  0  0  0  0
  5  6  1  6  0  0  0
  5  7  1  0  0  0  0
  7  8  1  1  0  0  0
  7  9  1  0  0  0  0
  9 10  1  0  0  0  0
  9 11  1  6  0  0  0
 11 12  1  0  0  0  0
 13 14  1  1  0  0  0
 13 15  1  0  0  0  0
 13 21  1  0  0  0  0
 16 15  1  0  0  0  0
 16 17  1  1  0  0  0
 18  2  1  6  0  0  0
 18 16  1  0  0  0  0
 19 18  1  0  0  0  0
 19 20  1  6  0  0  0
 21 19  1  0  0  0  0
 21 22  1  6  0  0  0
 23 20  1  1  0  0  0
 23 24  1  0  0  0  0
 23 28  1  0  0  0  0
 24 25  1  1  0  0  0
 24 26  1  0  0  0  0
 26 27  1  0  0  0  0
 26 32  1  1  0  0  0
 27 28  1  0  0  0  0
 27 29  1  1  0  0  0
 29 30  1  0  0  0  0
 31 32  1  1  0  0  0
 31 40  1  0  0  0  0
 33 31  1  0  0  0  0
 33 42  1  1  0  0  0
 35 33  1  0  0  0  0
 35 36  1  6  0  0  0
 37 35  1  0  0  0  0
 37 38  1  1  0  0  0
 37 39  1  0  0  0  0
 39 40  1  0  0  0  0
 39 41  1  1  0  0  0
 41 34  1  0  0  0  0
M  END
>  <CHROM.1>
170.82978292,71.71333825,-170.49126602,164.43397047,167.40241775,166.59762403
172.76327866,-61.96158847,172.35058206,0.27306838,92.58291158,11.46243655
0.83824938,-1.06982699,-0.17435069

>  <Name>
2fcy_lig

>  <RI>
2.32494e+07

>  <Rbt.Current_Directory>
/home/itssahil/PROJECTS/Mol_Feturizer/New_Systems/rnas/2fcy

>  <Rbt.Executable>
rbdock ($Id: //depot/dev/client3/rdock/2013.1/src/exe/rbdock.cxx#4 $)

>  <Rbt.Library>
libRbt.so (2013.1, Build901 2013/11/27)

>  <Rbt.Parameter_File>
/export/apps/rDock/src/rDock_2013.1_src/data/scripts/dock_solv.prm

>  <Rbt.Receptor>
prm/pocket_docking_8.prm

>  <SCORE>
-23.8956

>  <SCORE.INTER>
-18.3608

>  <SCORE.INTER.CONST>
1

>  <SCORE.INTER.POLAR>
-3.27343

>  <SCORE.INTER.ROT>
9

>  <SCORE.INTER.SOLV>
16.6696

>  <SCORE.INTER.VDW>
-16.4856

>  <SCORE.INTER.norm>
-0.437161

>  <SCORE.INTRA>
-5.53479

>  <SCORE.INTRA.DIHEDRAL>
-12.306

>  <SCORE.INTRA.DIHEDRAL.0>
17.3446

>  <SCORE.INTRA.POLAR>
0

>  <SCORE.INTRA.POLAR.0>
0

>  <SCORE.INTRA.REPUL>
0

>  <SCORE.INTRA.REPUL.0>
0

>  <SCORE.INTRA.SOLV>
-3.94034

>  <SCORE.INTRA.SOLV.lig_0>
-112.452

>  <SCORE.INTRA.VDW>
2.58841

>  <SCORE.INTRA.VDW.0>
-5.95059

>  <SCORE.INTRA.norm>
-0.131781

>  <SCORE.RESTR>
0

>  <SCORE.RESTR.CAVITY>
0

>  <SCORE.RESTR.norm>
0

>  <SCORE.SYSTEM>
0

>  <SCORE.SYSTEM.CONST>
0

>  <SCORE.SYSTEM.DIHEDRAL>
0

>  <SCORE.SYSTEM.SOLV>
0

>  <SCORE.SYSTEM.norm>
0

>  <SCORE.heavy>
42

>  <SCORE.norm>
-0.568942

>  <RMSD>
6.074

$$$$
2fcy_lig
 OpenBabel11021811433D
libRbt.so/2013.1/901 2013/11/27
 42 45  0  0  0  0  0  0  0  0999 V2000
   -1.1614   92.0568   11.5012 C   0  0  2  0  0  0  0  0  0  0  0  0
   -1.3467   92.6202   10.1914 O   0  0  0  0  0  0  0  0  0  0  0  0
   -0.1196   90.9511   11.3254 C   0  0  2  0  0  0  0  0  0  0  0  0
    1.0748   91.5256   10.6912 N   0  0  0  0  0  0  0  0  0  0  0  0
   -0.6898   89.8477   10.4306 C   0  0  1  0  0  0  0  0  0  0  0  0
    0.2664   88.7987   10.2547 O   0  0  0  0  0  0  0  0  0  0  0  0
   -1.9746   89.3023   11.0548 C   0  0  2  0  0  0  0  0  0  0  0  0
   -2.5557   88.3426   10.1722 O   0  0  0  0  0  0  0  0  0  0  0  0
   -2.9669   90.4537   11.2250 C   0  0  2  0  0  0  0  0  0  0  0  0
   -2.3738   91.4832   12.0318 O   0  0  0  0  0  0  0  0  0  0  0  0
   -4.2547   89.9212   11.8590 C   0  0  0  0  0  0  0  0  0  0  0  0
   -5.2683   90.9817   11.9616 N   0  0  0  0  0  0  0  0  0  0  0  0
    0.0105   96.2245    8.5142 C   0  0  2  0  0  0  0  0  0  0  0  0
    0.7330   97.4171    8.0466 N   0  0  0  0  0  0  0  0  0  0  0  0
    0.0655   96.1187   10.0395 C   0  0  0  0  0  0  0  0  0  0  0  0
   -0.8110   94.9390   10.4724 C   0  0  2  0  0  0  0  0  0  0  0  0
   -0.7044   94.7635   11.9280 N   0  0  0  0  0  0  0  0  0  0  0  0
   -0.3889   93.6238    9.8110 C   0  0  2  0  0  0  0  0  0  0  0  0
   -0.1864   93.7065    8.3022 C   0  0  2  0  0  0  0  0  0  0  0  0
    0.5608   92.5314    7.9487 O   0  0  0  0  0  0  0  0  0  0  0  0
    0.6086   94.9561    7.9008 C   0  0  1  0  0  0  0  0  0  0  0  0
    0.6181   95.1191    6.4801 O   0  0  0  0  0  0  0  0  0  0  0  0
    0.2697   91.9725    6.6575 C   0  0  1  0  0  0  0  0  0  0  0  0
   -1.2214   91.6328    6.6270 C   0  0  2  0  0  0  0  0  0  0  0  0
   -1.4352   90.3527    7.2264 O   0  0  0  0  0  0  0  0  0  0  0  0
   -1.4063   91.5256    5.1161 C   0  0  1  0  0  0  0  0  0  0  0  0
   -0.6573   92.7675    4.6591 C   0  0  2  0  0  0  0  0  0  0  0  0
    0.4491   92.9075    5.5740 O   0  0  0  0  0  0  0  0  0  0  0  0
   -1.6027   93.9728    4.7180 C   0  0  0  0  0  0  0  0  0  0  0  0
   -0.9561   95.1437    4.2105 O   0  0  0  0  0  0  0  0  0  0  0  0
   -1.6698   89.2448    4.6397 C   0  0  2  0  0  0  0  0  0  0  0  0
   -0.7485   90.3459    4.6273 O   0  0  0  0  0  0  0  0  0  0  0  0
   -0.9352   87.9575    4.2519 C   0  0  1  0  0  0  0  0  0  0  0  0
   -4.4344   89.2127    1.4718 N   0  0  0  0  0  0  0  0  0  0  0  0
   -1.9201   86.7870    4.1595 C   0  0  1  0  0  0  0  0  0  0  0  0
   -2.4249   86.4595    5.4580 O   0  0  0  0  0  0  0  0  0  0  0  0
   -3.0787   87.1564    3.2292 C   0  0  2  0  0  0  0  0  0  0  0  0
   -2.5642   87.3211    1.9035 O   0  0  0  0  0  0  0  0  0  0  0  0
   -3.7253   88.4607    3.7078 C   0  0  1  0  0  0  0  0  0  0  0  0
   -2.7460   89.5159    3.7247 O   0  0  0  0  0  0  0  0  0  0  0  0
   -4.9060   88.8630    2.8198 C   0  0  0  0  0  0  0  0  0  0  0  0
   -0.3148   88.1478    2.9320 N   0  0  0  0  0  0  0  0  0  0  0  0
  1  2  1  6  0  0  0
  1  3  1  0  0  0  0
  1 10  1  0  0  0  0
  3  4  1  6  0  0  0
  3  5  1  0  0  0  0
  5  6  1  1  0  0  0
  5  7  1  0  0  0  0
  7  8  1  6  0  0  0
  7  9  1  0  0  0  0
  9 10  1  0  0  0  0
  9 11  1  1  0  0  0
 11 12  1  0  0  0  0
 13 14  1  6  0  0  0
 13 15  1  0  0  0  0
 13 21  1  0  0  0  0
 16 15  1  0  0  0  0
 16 17  1  1  0  0  0
 18  2  1  6  0  0  0
 18 16  1  0  0  0  0
 19 18  1  0  0  0  0
 19 20  1  1  0  0  0
 21 19  1  0  0  0  0
 21 22  1  6  0  0  0
 23 20  1  1  0  0  0
 23 24  1  0  0  0  0
 23 28  1  0  0  0  0
 24 25  1  1  0  0  0
 24 26  1  0  0  0  0
 26 27  1  0  0  0  0
 26 32  1  6  0  0  0
 27 28  1  0  0  0  0
 27 29  1  1  0  0  0
 29 30  1  0  0  0  0
 31 32  1  6  0  0  0
 31 40  1  0  0  0  0
 33 31  1  0  0  0  0
 33 42  1  6  0  0  0
 35 33  1  0  0  0  0
 35 36  1  1  0  0  0
 37 35  1  0  0  0  0
 37 38  1  6  0  0  0
 37 39  1  0  0  0  0
 39 40  1  0  0  0  0
 39 41  1  6  0  0  0
 41 34  1  0  0  0  0
M  END
>  <CHROM.1>
-83.82588734,-176.40065336,-79.93523787,146.64739368,-58.30170821,90.65677149
-176.18526404,-174.42235207,-66.56947532,-1.35305105,91.30162145,7.35144490
0.99464938,1.17857679,1.47618439

>  <Name>
2fcy_lig

>  <RI>
2.32494e+07

>  <Rbt.Current_Directory>
/home/itssahil/PROJECTS/Mol_Feturizer/New_Systems/rnas/2fcy

>  <Rbt.Executable>
rbdock ($Id: //depot/dev/client3/rdock/2013.1/src/exe/rbdock.cxx#4 $)

>  <Rbt.Library>
libRbt.so (2013.1, Build901 2013/11/27)

>  <Rbt.Parameter_File>
/export/apps/rDock/src/rDock_2013.1_src/data/scripts/dock_solv.prm

>  <Rbt.Receptor>
prm/pocket_docking_8.prm

>  <SCORE>
-13.0406

>  <SCORE.INTER>
-14.992

>  <SCORE.INTER.CONST>
1

>  <SCORE.INTER.POLAR>
-2.40128

>  <SCORE.INTER.ROT>
9

>  <SCORE.INTER.SOLV>
17.1872

>  <SCORE.INTER.VDW>
-17.3195

>  <SCORE.INTER.norm>
-0.356953

>  <SCORE.INTRA>
1.95145

>  <SCORE.INTRA.DIHEDRAL>
-4.50933

>  <SCORE.INTRA.DIHEDRAL.0>
17.3446

>  <SCORE.INTRA.POLAR>
0

>  <SCORE.INTRA.POLAR.0>
0

>  <SCORE.INTRA.REPUL>
0

>  <SCORE.INTRA.REPUL.0>
0

>  <SCORE.INTRA.SOLV>
2.04758

>  <SCORE.INTRA.SOLV.lig_0>
-112.452

>  <SCORE.INTRA.VDW>
3.18233

>  <SCORE.INTRA.VDW.0>
-5.95059

>  <SCORE.INTRA.norm>
0.0464632

>  <SCORE.RESTR>
0

>  <SCORE.RESTR.CAVITY>
0

>  <SCORE.RESTR.norm>
0

>  <SCORE.SYSTEM>
0

>  <SCORE.SYSTEM.CONST>
0

>  <SCORE.SYSTEM.DIHEDRAL>
0

>  <SCORE.SYSTEM.SOLV>
0

>  <SCORE.SYSTEM.norm>
0

>  <SCORE.heavy>
42

>  <SCORE.norm>
-0.31049

>  <RMSD>
6.095

$$$$
2fcy_lig
 OpenBabel11021811433D
libRbt.so/2013.1/901 2013/11/27
 42 45  0  0  0  0  0  0  0  0999 V2000
    0.0668   92.7130   10.6217 C   0  0  2  0  0  0  0  0  0  0  0  0
    0.7444   91.7126    9.8425 O   0  0  0  0  0  0  0  0  0  0  0  0
    1.1116   93.7975   10.8894 C   0  0  2  0  0  0  0  0  0  0  0  0
    1.6683   94.2427    9.6046 N   0  0  0  0  0  0  0  0  0  0  0  0
    2.2336   93.2244   11.7588 C   0  0  1  0  0  0  0  0  0  0  0  0
    3.2221   94.2228   12.0265 O   0  0  0  0  0  0  0  0  0  0  0  0
    1.6417   92.6928   13.0645 C   0  0  2  0  0  0  0  0  0  0  0  0
    2.6741   92.0726   13.8307 O   0  0  0  0  0  0  0  0  0  0  0  0
    0.5922   91.6308   12.7333 C   0  0  2  0  0  0  0  0  0  0  0  0
   -0.4140   92.1997   11.8810 O   0  0  0  0  0  0  0  0  0  0  0  0
   -0.0151   91.0979   14.0337 C   0  0  0  0  0  0  0  0  0  0  0  0
   -0.7373   92.1593   14.7509 N   0  0  0  0  0  0  0  0  0  0  0  0
   -0.9952   89.0412    7.1068 C   0  0  2  0  0  0  0  0  0  0  0  0
   -1.6946   87.9703    6.3808 N   0  0  0  0  0  0  0  0  0  0  0  0
    0.0565   88.4594    8.0535 C   0  0  0  0  0  0  0  0  0  0  0  0
    0.8374   89.6202    8.6779 C   0  0  2  0  0  0  0  0  0  0  0  0
    1.7957   89.0890    9.6579 N   0  0  0  0  0  0  0  0  0  0  0  0
   -0.0738   90.6128    9.4059 C   0  0  2  0  0  0  0  0  0  0  0  0
   -1.2920   91.0624    8.6070 C   0  0  2  0  0  0  0  0  0  0  0  0
   -2.1875   91.6471    9.5664 O   0  0  0  0  0  0  0  0  0  0  0  0
   -1.9868   89.8829    7.9137 C   0  0  1  0  0  0  0  0  0  0  0  0
   -3.0006   90.3447    7.0170 O   0  0  0  0  0  0  0  0  0  0  0  0
   -3.2709   92.4163    9.0197 C   0  0  1  0  0  0  0  0  0  0  0  0
   -4.1118   92.9269   10.1910 C   0  0  2  0  0  0  0  0  0  0  0  0
   -5.0374   91.9153   10.5954 O   0  0  0  0  0  0  0  0  0  0  0  0
   -4.8606   94.0451    9.4718 C   0  0  1  0  0  0  0  0  0  0  0  0
   -3.7172   94.6941    8.7079 C   0  0  2  0  0  0  0  0  0  0  0  0
   -2.8390   93.6114    8.3374 O   0  0  0  0  0  0  0  0  0  0  0  0
   -3.0183   95.7096    9.6193 C   0  0  0  0  0  0  0  0  0  0  0  0
   -1.9907   96.4022    8.9046 O   0  0  0  0  0  0  0  0  0  0  0  0
   -6.5495   94.5398    7.9222 C   0  0  2  0  0  0  0  0  0  0  0  0
   -5.8104   93.4826    8.5527 O   0  0  0  0  0  0  0  0  0  0  0  0
   -7.4319   95.2387    8.9615 C   0  0  1  0  0  0  0  0  0  0  0  0
   -7.8492   93.7801    4.0394 N   0  0  0  0  0  0  0  0  0  0  0  0
   -8.3057   96.3043    8.2912 C   0  0  1  0  0  0  0  0  0  0  0  0
   -7.4953   97.3845    7.8172 O   0  0  0  0  0  0  0  0  0  0  0  0
   -9.0779   95.6827    7.1242 C   0  0  2  0  0  0  0  0  0  0  0  0
   -9.9963   94.7174    7.6479 O   0  0  0  0  0  0  0  0  0  0  0  0
   -8.0962   95.0058    6.1618 C   0  0  1  0  0  0  0  0  0  0  0  0
   -7.3474   93.9922    6.8580 O   0  0  0  0  0  0  0  0  0  0  0  0
   -8.8196   94.3852    4.9635 C   0  0  0  0  0  0  0  0  0  0  0  0
   -8.3134   94.2378    9.5815 N   0  0  0  0  0  0  0  0  0  0  0  0
  1  2  1  6  0  0  0
  1  3  1  0  0  0  0
  1 10  1  0  0  0  0
  3  4  1  6  0  0  0
  3  5  1  0  0  0  0
  5  6  1  1  0  0  0
  5  7  1  0  0  0  0
  7  8  1  1  0  0  0
  7  9  1  0  0  0  0
  9 10  1  0  0  0  0
  9 11  1  1  0  0  0
 11 12  1  0  0  0  0
 13 14  1  1  0  0  0
 13 15  1  0  0  0  0
 13 21  1  0  0  0  0
 16 15  1  0  0  0  0
 16 17  1  1  0  0  0
 18  2  1  6  0  0  0
 18 16  1  0  0  0  0
 19 18  1  0  0  0  0
 19 20  1  1  0  0  0
 21 19  1  0  0  0  0
 21 22  1  6  0  0  0
 23 20  1  1  0  0  0
 23 24  1  0  0  0  0
 23 28  1  0  0  0  0
 24 25  1  6  0  0  0
 24 26  1  0  0  0  0
 26 27  1  0  0  0  0
 26 32  1  6  0  0  0
 27 28  1  0  0  0  0
 27 29  1  1  0  0  0
 29 30  1  0  0  0  0
 31 32  1  1  0  0  0
 31 40  1  0  0  0  0
 33 31  1  0  0  0  0
 33 42  1  6  0  0  0
 35 33  1  0  0  0  0
 35 36  1  6  0  0  0
 37 35  1  0  0  0  0
 37 38  1  1  0  0  0
 37 39  1  0  0  0  0
 39 40  1  0  0  0  0
 39 41  1  6  0  0  0
 41 34  1  0  0  0  0
M  END
>  <CHROM.1>
-176.78196749,63.89541409,-176.41014978,166.34084678,179.07497073,177.57810425
-176.26409649,-67.27529358,178.28543853,-2.85935867,92.87688927,9.29713489
0.01569352,-0.52202924,0.70468678

>  <Name>
2fcy_lig

>  <RI>
0

>  <Rbt.Current_Directory>
/home/itssahil/PROJECTS/Mol_Feturizer/New_Systems/rnas/2fcy

>  <Rbt.Executable>
rbdock ($Id: //depot/dev/client3/rdock/2013.1/src/exe/rbdock.cxx#4 $)

>  <Rbt.Library>
libRbt.so (2013.1, Build901 2013/11/27)

>  <Rbt.Parameter_File>
/export/apps/rDock/src/rDock_2013.1_src/data/scripts/dock_solv.prm

>  <Rbt.Receptor>
prm/pocket_docking_5.prm

>  <SCORE>
-12.5887

>  <SCORE.INTER>
-5.67646

>  <SCORE.INTER.CONST>
1

>  <SCORE.INTER.POLAR>
-2.534

>  <SCORE.INTER.ROT>
9

>  <SCORE.INTER.SOLV>
14.5297

>  <SCORE.INTER.VDW>
-9.78088

>  <SCORE.INTER.norm>
-0.135154

>  <SCORE.INTRA>
-6.91229

>  <SCORE.INTRA.DIHEDRAL>
-15.2822

>  <SCORE.INTRA.DIHEDRAL.0>
17.3446

>  <SCORE.INTRA.POLAR>
0

>  <SCORE.INTRA.POLAR.0>
0

>  <SCORE.INTRA.REPUL>
0

>  <SCORE.INTRA.REPUL.0>
0

>  <SCORE.INTRA.SOLV>
-4.46006

>  <SCORE.INTRA.SOLV.lig_0>
-112.452

>  <SCORE.INTRA.VDW>
2.95884

>  <SCORE.INTRA.VDW.0>
-5.95059

>  <SCORE.INTRA.norm>
-0.164578

>  <SCORE.RESTR>
0

>  <SCORE.RESTR.CAVITY>
0

>  <SCORE.RESTR.norm>
0

>  <SCORE.SYSTEM>
0

>  <SCORE.SYSTEM.CONST>
0

>  <SCORE.SYSTEM.DIHEDRAL>
0

>  <SCORE.SYSTEM.SOLV>
0

>  <SCORE.SYSTEM.norm>
0

>  <SCORE.heavy>
42

>  <SCORE.norm>
-0.299732

>  <RMSD>
6.102

$$$$
2fcy_lig
 OpenBabel11021811433D
libRbt.so/2013.1/901 2013/11/27
 42 45  0  0  0  0  0  0  0  0999 V2000
    1.8125   93.6937   10.4549 C   0  0  2  0  0  0  0  0  0  0  0  0
    0.7825   93.3669   11.4034 O   0  0  0  0  0  0  0  0  0  0  0  0
    2.7600   94.6407   11.1928 C   0  0  2  0  0  0  0  0  0  0  0  0
    3.2032   93.9912   12.4339 N   0  0  0  0  0  0  0  0  0  0  0  0
    2.0241   95.9392   11.5328 C   0  0  1  0  0  0  0  0  0  0  0  0
    2.8925   96.8439   12.2206 O   0  0  0  0  0  0  0  0  0  0  0  0
    1.4981   96.5756   10.2459 C   0  0  2  0  0  0  0  0  0  0  0  0
    0.7304   97.7336   10.5735 O   0  0  0  0  0  0  0  0  0  0  0  0
    0.5765   95.5772    9.5436 C   0  0  2  0  0  0  0  0  0  0  0  0
    1.2945   94.3606    9.2856 O   0  0  0  0  0  0  0  0  0  0  0  0
    0.0511   96.2000    8.2475 C   0  0  0  0  0  0  0  0  0  0  0  0
   -0.9844   97.2057    8.5289 N   0  0  0  0  0  0  0  0  0  0  0  0
   -1.4773   89.8257   11.3934 C   0  0  2  0  0  0  0  0  0  0  0  0
   -2.4188   88.7148   11.1873 N   0  0  0  0  0  0  0  0  0  0  0  0
   -2.2234   91.1099   11.7606 C   0  0  0  0  0  0  0  0  0  0  0  0
   -1.1888   92.1904   12.0911 C   0  0  2  0  0  0  0  0  0  0  0  0
   -1.8810   93.4585   12.3623 N   0  0  0  0  0  0  0  0  0  0  0  0
   -0.2069   92.4307   10.9406 C   0  0  2  0  0  0  0  0  0  0  0  0
    0.4059   91.1648   10.3520 C   0  0  2  0  0  0  0  0  0  0  0  0
    0.9594   91.5575    9.0857 O   0  0  0  0  0  0  0  0  0  0  0  0
   -0.6469   90.0706   10.1311 C   0  0  1  0  0  0  0  0  0  0  0  0
   -0.0275   88.8340    9.7675 O   0  0  0  0  0  0  0  0  0  0  0  0
    0.0064   91.8135    8.0414 C   0  0  1  0  0  0  0  0  0  0  0  0
    0.7759   92.3602    6.8379 C   0  0  2  0  0  0  0  0  0  0  0  0
    0.9778   93.7667    6.9948 O   0  0  0  0  0  0  0  0  0  0  0  0
   -0.2729   92.1131    5.7574 C   0  0  1  0  0  0  0  0  0  0  0  0
   -0.6996   90.6964    6.1080 C   0  0  2  0  0  0  0  0  0  0  0  0
   -0.6371   90.6210    7.5471 O   0  0  0  0  0  0  0  0  0  0  0  0
    0.2612   89.7045    5.4422 C   0  0  0  0  0  0  0  0  0  0  0  0
    1.5933   89.8914    5.9292 O   0  0  0  0  0  0  0  0  0  0  0  0
   -2.1819   93.0237    4.7450 C   0  0  2  0  0  0  0  0  0  0  0  0
   -1.3753   93.0172    5.9328 O   0  0  0  0  0  0  0  0  0  0  0  0
   -3.2402   94.1264    4.8503 C   0  0  1  0  0  0  0  0  0  0  0  0
   -4.8256   89.7848    4.4169 N   0  0  0  0  0  0  0  0  0  0  0  0
   -4.1772   94.0857    3.6383 C   0  0  1  0  0  0  0  0  0  0  0  0
   -3.4716   94.4656    2.4525 O   0  0  0  0  0  0  0  0  0  0  0  0
   -4.7503   92.6755    3.4731 C   0  0  2  0  0  0  0  0  0  0  0  0
   -5.5820   92.3862    4.6019 O   0  0  0  0  0  0  0  0  0  0  0  0
   -3.6039   91.6619    3.3915 C   0  0  1  0  0  0  0  0  0  0  0  0
   -2.7995   91.7347    4.5833 O   0  0  0  0  0  0  0  0  0  0  0  0
   -4.1260   90.2348    3.2045 C   0  0  0  0  0  0  0  0  0  0  0  0
   -4.0399   93.8984    6.0635 N   0  0  0  0  0  0  0  0  0  0  0  0
  1  2  1  1  0  0  0
  1  3  1  0  0  0  0
  1 10  1  0  0  0  0
  3  4  1  1  0  0  0
  3  5  1  0  0  0  0
  5  6  1  6  0  0  0
  5  7  1  0  0  0  0
  7  8  1  1  0  0  0
  7  9  1  0  0  0  0
  9 10  1  0  0  0  0
  9 11  1  6  0  0  0
 11 12  1  0  0  0  0
 13 14  1  6  0  0  0
 13 15  1  0  0  0  0
 13 21  1  0  0  0  0
 16 15  1  0  0  0  0
 16 17  1  6  0  0  0
 18  2  1  1  0  0  0
 18 16  1  0  0  0  0
 19 18  1  0  0  0  0
 19 20  1  6  0  0  0
 21 19  1  0  0  0  0
 21 22  1  1  0  0  0
 23 20  1  1  0  0  0
 23 24  1  0  0  0  0
 23 28  1  0  0  0  0
 24 25  1  1  0  0  0
 24 26  1  0  0  0  0
 26 27  1  0  0  0  0
 26 32  1  1  0  0  0
 27 28  1  0  0  0  0
 27 29  1  6  0  0  0
 29 30  1  0  0  0  0
 31 32  1  1  0  0  0
 31 40  1  0  0  0  0
 33 31  1  0  0  0  0
 33 42  1  1  0  0  0
 35 33  1  0  0  0  0
 35 36  1  6  0  0  0
 37 35  1  0  0  0  0
 37 38  1  1  0  0  0
 37 39  1  0  0  0  0
 39 40  1  0  0  0  0
 39 41  1  1  0  0  0
 41 34  1  0  0  0  0
M  END
>  <CHROM.1>
-177.56081467,-75.00716124,178.79997907,-73.24025918,173.88912443,165.35392624
61.71026896,-172.09400549,-68.12116258,-0.80011938,92.80348252,8.04784965
-0.03684684,-1.00603096,-0.37295034

>  <Name>
2fcy_lig

>  <RI>
0

>  <Rbt.Current_Directory>
/home/itssahil/PROJECTS/Mol_Feturizer/New_Systems/rnas/2fcy

>  <Rbt.Executable>
rbdock ($Id: //depot/dev/client3/rdock/2013.1/src/exe/rbdock.cxx#4 $)

>  <Rbt.Library>
libRbt.so (2013.1, Build901 2013/11/27)

>  <Rbt.Parameter_File>
/export/apps/rDock/src/rDock_2013.1_src/data/scripts/dock_solv.prm

>  <Rbt.Receptor>
prm/pocket_docking_5.prm

>  <SCORE>
-12.7271

>  <SCORE.INTER>
-11.0034

>  <SCORE.INTER.CONST>
1

>  <SCORE.INTER.POLAR>
-1.83213

>  <SCORE.INTER.ROT>
9

>  <SCORE.INTER.SOLV>
16.4005

>  <SCORE.INTER.VDW>
-16.2954

>  <SCORE.INTER.norm>
-0.261987

>  <SCORE.INTRA>
-1.72371

>  <SCORE.INTRA.DIHEDRAL>
-13.4002

>  <SCORE.INTRA.DIHEDRAL.0>
17.3446

>  <SCORE.INTRA.POLAR>
0

>  <SCORE.INTRA.POLAR.0>
0

>  <SCORE.INTRA.REPUL>
0

>  <SCORE.INTRA.REPUL.0>
0

>  <SCORE.INTRA.SOLV>
-1.31363

>  <SCORE.INTRA.SOLV.lig_0>
-112.452

>  <SCORE.INTRA.VDW>
5.63323

>  <SCORE.INTRA.VDW.0>
-5.95059

>  <SCORE.INTRA.norm>
-0.0410407

>  <SCORE.RESTR>
0

>  <SCORE.RESTR.CAVITY>
0

>  <SCORE.RESTR.norm>
0

>  <SCORE.SYSTEM>
0

>  <SCORE.SYSTEM.CONST>
0

>  <SCORE.SYSTEM.DIHEDRAL>
0

>  <SCORE.SYSTEM.SOLV>
0

>  <SCORE.SYSTEM.norm>
0

>  <SCORE.heavy>
42

>  <SCORE.norm>
-0.303027

>  <RMSD>
6.102

$$$$
2fcy_lig
 OpenBabel11021811433D
libRbt.so/2013.1/901 2013/11/27
 42 45  0  0  0  0  0  0  0  0999 V2000
    2.4225   95.9182   11.0361 C   0  0  2  0  0  0  0  0  0  0  0  0
    3.2195   95.5486   12.1743 O   0  0  0  0  0  0  0  0  0  0  0  0
    3.2177   97.0107   10.3197 C   0  0  2  0  0  0  0  0  0  0  0  0
    4.5647   96.5002   10.0304 N   0  0  0  0  0  0  0  0  0  0  0  0
    3.3235   98.2426   11.2222 C   0  0  1  0  0  0  0  0  0  0  0  0
    4.0605   99.2811   10.5709 O   0  0  0  0  0  0  0  0  0  0  0  0
    1.9194   98.7280   11.5839 C   0  0  2  0  0  0  0  0  0  0  0  0
    2.0201   99.8163   12.5022 O   0  0  0  0  0  0  0  0  0  0  0  0
    1.1678   97.5899   12.2760 C   0  0  2  0  0  0  0  0  0  0  0  0
    1.1328   96.4429   11.4125 O   0  0  0  0  0  0  0  0  0  0  0  0
   -0.2440   98.0613   12.6343 C   0  0  0  0  0  0  0  0  0  0  0  0
   -1.0096   96.9855   13.2816 N   0  0  0  0  0  0  0  0  0  0  0  0
    2.6513   92.2475   14.7094 C   0  0  2  0  0  0  0  0  0  0  0  0
    2.2360   91.2429   15.7000 N   0  0  0  0  0  0  0  0  0  0  0  0
    2.9667   93.5821   15.3878 C   0  0  0  0  0  0  0  0  0  0  0  0
    3.5177   94.5423   14.3287 C   0  0  2  0  0  0  0  0  0  0  0  0
    3.7462   95.8596   14.9398 N   0  0  0  0  0  0  0  0  0  0  0  0
    2.5534   94.7329   13.1544 C   0  0  2  0  0  0  0  0  0  0  0  0
    1.9996   93.4386   12.5691 C   0  0  2  0  0  0  0  0  0  0  0  0
    0.8616   93.8271   11.7830 O   0  0  0  0  0  0  0  0  0  0  0  0
    1.5529   92.4620   13.6651 C   0  0  1  0  0  0  0  0  0  0  0  0
    1.2235   91.1869   13.1077 O   0  0  0  0  0  0  0  0  0  0  0  0
    0.1677   92.7579   11.1199 C   0  0  1  0  0  0  0  0  0  0  0  0
   -1.0232   93.3692   10.3799 C   0  0  2  0  0  0  0  0  0  0  0  0
   -2.1228   93.5207   11.2808 O   0  0  0  0  0  0  0  0  0  0  0  0
   -1.3105   92.2246    9.4125 C   0  0  1  0  0  0  0  0  0  0  0  0
    0.0989   91.9041    8.9402 C   0  0  2  0  0  0  0  0  0  0  0  0
    0.9473   92.1222   10.0863 O   0  0  0  0  0  0  0  0  0  0  0  0
    0.4611   92.8343    7.7767 C   0  0  0  0  0  0  0  0  0  0  0  0
    1.5967   92.3318    7.0666 O   0  0  0  0  0  0  0  0  0  0  0  0
   -2.6309   90.2951    9.2335 C   0  0  2  0  0  0  0  0  0  0  0  0
   -1.8559   91.1059   10.1298 O   0  0  0  0  0  0  0  0  0  0  0  0
   -3.3093   89.1681   10.0188 C   0  0  1  0  0  0  0  0  0  0  0  0
   -1.0826   89.7043    5.3800 N   0  0  0  0  0  0  0  0  0  0  0  0
   -4.0598   88.2301    9.0672 C   0  0  1  0  0  0  0  0  0  0  0  0
   -5.1819   88.9041    8.4885 O   0  0  0  0  0  0  0  0  0  0  0  0
   -3.1158   87.7488    7.9620 C   0  0  2  0  0  0  0  0  0  0  0  0
   -2.0923   86.9428    8.5557 O   0  0  0  0  0  0  0  0  0  0  0  0
   -2.4905   88.9580    7.2584 C   0  0  1  0  0  0  0  0  0  0  0  0
   -1.7705   89.7615    8.2117 O   0  0  0  0  0  0  0  0  0  0  0  0
   -1.5515   88.5284    6.1279 C   0  0  0  0  0  0  0  0  0  0  0  0
   -2.2746   88.3905   10.7172 N   0  0  0  0  0  0  0  0  0  0  0  0
  1  2  1  1  0  0  0
  1  3  1  0  0  0  0
  1 10  1  0  0  0  0
  3  4  1  1  0  0  0
  3  5  1  0  0  0  0
  5  6  1  6  0  0  0
  5  7  1  0  0  0  0
  7  8  1  1  0  0  0
  7  9  1  0  0  0  0
  9 10  1  0  0  0  0
  9 11  1  6  0  0  0
 11 12  1  0  0  0  0
 13 14  1  1  0  0  0
 13 15  1  0  0  0  0
 13 21  1  0  0  0  0
 16 15  1  0  0  0  0
 16 17  1  1  0  0  0
 18  2  1  6  0  0  0
 18 16  1  0  0  0  0
 19 18  1  0  0  0  0
 19 20  1  6  0  0  0
 21 19  1  0  0  0  0
 21 22  1  6  0  0  0
 23 20  1  6  0  0  0
 23 24  1  0  0  0  0
 23 28  1  0  0  0  0
 24 25  1  1  0  0  0
 24 26  1  0  0  0  0
 26 27  1  0  0  0  0
 26 32  1  1  0  0  0
 27 28  1  0  0  0  0
 27 29  1  6  0  0  0
 29 30  1  0  0  0  0
 31 32  1  1  0  0  0
 31 40  1  0  0  0  0
 33 31  1  0  0  0  0
 33 42  1  6  0  0  0
 35 33  1  0  0  0  0
 35 36  1  6  0  0  0
 37 35  1  0  0  0  0
 37 38  1  1  0  0  0
 37 39  1  0  0  0  0
 39 40  1  0  0  0  0
 39 41  1  6  0  0  0
 41 34  1  0  0  0  0
M  END
>  <CHROM.1>
167.64944034,178.98018229,-175.51630570,179.81129746,178.31239240,155.63608221
-163.68081711,-175.27894489,173.86459168,0.38401774,93.14406669,10.82515766
0.14058229,-1.04441059,-0.92193242

>  <Name>
2fcy_lig

>  <RI>
0

>  <Rbt.Current_Directory>
/home/itssahil/PROJECTS/Mol_Feturizer/New_Systems/rnas/2fcy

>  <Rbt.Executable>
rbdock ($Id: //depot/dev/client3/rdock/2013.1/src/exe/rbdock.cxx#4 $)

>  <Rbt.Library>
libRbt.so (2013.1, Build901 2013/11/27)

>  <Rbt.Parameter_File>
/export/apps/rDock/src/rDock_2013.1_src/data/scripts/dock_solv.prm

>  <Rbt.Receptor>
prm/pocket_docking_5.prm

>  <SCORE>
-12.6711

>  <SCORE.INTER>
-6.73735

>  <SCORE.INTER.CONST>
1

>  <SCORE.INTER.POLAR>
-1.28174

>  <SCORE.INTER.ROT>
9

>  <SCORE.INTER.SOLV>
18.3211

>  <SCORE.INTER.VDW>
-15.9261

>  <SCORE.INTER.norm>
-0.160413

>  <SCORE.INTRA>
-5.93378

>  <SCORE.INTRA.DIHEDRAL>
-12.4061

>  <SCORE.INTRA.DIHEDRAL.0>
17.3446

>  <SCORE.INTRA.POLAR>
0

>  <SCORE.INTRA.POLAR.0>
0

>  <SCORE.INTRA.REPUL>
0

>  <SCORE.INTRA.REPUL.0>
0

>  <SCORE.INTRA.SOLV>
-4.81614

>  <SCORE.INTRA.SOLV.lig_0>
-112.452

>  <SCORE.INTRA.VDW>
2.67733

>  <SCORE.INTRA.VDW.0>
-5.95059

>  <SCORE.INTRA.norm>
-0.14128

>  <SCORE.RESTR>
0

>  <SCORE.RESTR.CAVITY>
0

>  <SCORE.RESTR.norm>
0

>  <SCORE.SYSTEM>
0

>  <SCORE.SYSTEM.CONST>
0

>  <SCORE.SYSTEM.DIHEDRAL>
0

>  <SCORE.SYSTEM.SOLV>
0

>  <SCORE.SYSTEM.norm>
0

>  <SCORE.heavy>
42

>  <SCORE.norm>
-0.301694

>  <RMSD>
6.134

$$$$
2fcy_lig
 OpenBabel11021811433D
libRbt.so/2013.1/901 2013/11/27
 42 45  0  0  0  0  0  0  0  0999 V2000
    3.7447   97.0262   12.8664 C   0  0  2  0  0  0  0  0  0  0  0  0
    3.7041   95.7421   12.2209 O   0  0  0  0  0  0  0  0  0  0  0  0
    2.8363   97.9304   12.0319 C   0  0  2  0  0  0  0  0  0  0  0  0
    1.5137   97.2996   11.9246 N   0  0  0  0  0  0  0  0  0  0  0  0
    3.4322   98.1041   10.6326 C   0  0  1  0  0  0  0  0  0  0  0  0
    2.6011   98.9507    9.8337 O   0  0  0  0  0  0  0  0  0  0  0  0
    4.8391   98.6911   10.7502 C   0  0  2  0  0  0  0  0  0  0  0  0
    5.4292   98.7619    9.4523 O   0  0  0  0  0  0  0  0  0  0  0  0
    5.6923   97.7573   11.6100 C   0  0  2  0  0  0  0  0  0  0  0  0
    5.0729   97.5880   12.8946 O   0  0  0  0  0  0  0  0  0  0  0  0
    7.1016   98.3402   11.7432 C   0  0  0  0  0  0  0  0  0  0  0  0
    7.9632   97.4564   12.5427 N   0  0  0  0  0  0  0  0  0  0  0  0
    2.3850   92.0424   13.7104 C   0  0  2  0  0  0  0  0  0  0  0  0
    1.6908   90.8910   14.3064 N   0  0  0  0  0  0  0  0  0  0  0  0
    2.5366   93.1732   14.7298 C   0  0  0  0  0  0  0  0  0  0  0  0
    3.3790   94.2843   14.0949 C   0  0  2  0  0  0  0  0  0  0  0  0
    3.4648   95.4198   15.0246 N   0  0  0  0  0  0  0  0  0  0  0  0
    2.7762   94.7982   12.7842 C   0  0  2  0  0  0  0  0  0  0  0  0
    2.3710   93.7072   11.7992 C   0  0  2  0  0  0  0  0  0  0  0  0
    1.5002   94.3470   10.8524 O   0  0  0  0  0  0  0  0  0  0  0  0
    1.6185   92.5636   12.4923 C   0  0  1  0  0  0  0  0  0  0  0  0
    1.4220   91.4665   11.5962 O   0  0  0  0  0  0  0  0  0  0  0  0
    1.0342   93.5183    9.7752 C   0  0  1  0  0  0  0  0  0  0  0  0
   -0.4715   93.7476    9.6342 C   0  0  2  0  0  0  0  0  0  0  0  0
   -1.1729   92.9234   10.5683 O   0  0  0  0  0  0  0  0  0  0  0  0
   -0.6614   93.1957    8.2243 C   0  0  1  0  0  0  0  0  0  0  0  0
    0.5165   93.8445    7.5146 C   0  0  2  0  0  0  0  0  0  0  0  0
    1.5774   93.8874    8.4911 O   0  0  0  0  0  0  0  0  0  0  0  0
    0.1107   95.2481    7.0506 C   0  0  0  0  0  0  0  0  0  0  0  0
   -0.9403   95.1731    6.0831 O   0  0  0  0  0  0  0  0  0  0  0  0
   -1.7557   91.1519    8.5764 C   0  0  2  0  0  0  0  0  0  0  0  0
   -0.5045   91.7679    8.2348 O   0  0  0  0  0  0  0  0  0  0  0  0
   -1.5463   89.6489    8.7869 C   0  0  1  0  0  0  0  0  0  0  0  0
   -6.3678   90.8996    7.1511 N   0  0  0  0  0  0  0  0  0  0  0  0
   -2.8864   88.9545    9.0525 C   0  0  1  0  0  0  0  0  0  0  0  0
   -3.4129   89.3600   10.3201 O   0  0  0  0  0  0  0  0  0  0  0  0
   -3.8802   89.3030    7.9412 C   0  0  2  0  0  0  0  0  0  0  0  0
   -3.4039   88.7447    6.7120 O   0  0  0  0  0  0  0  0  0  0  0  0
   -3.9972   90.8259    7.8161 C   0  0  1  0  0  0  0  0  0  0  0  0
   -2.7069   91.3943    7.5249 O   0  0  0  0  0  0  0  0  0  0  0  0
   -4.9979   91.2266    6.7289 C   0  0  0  0  0  0  0  0  0  0  0  0
   -0.9618   89.0782    7.5640 N   0  0  0  0  0  0  0  0  0  0  0  0
  1  2  1  6  0  0  0
  1  3  1  0  0  0  0
  1 10  1  0  0  0  0
  3  4  1  6  0  0  0
  3  5  1  0  0  0  0
  5  6  1  6  0  0  0
  5  7  1  0  0  0  0
  7  8  1  6  0  0  0
  7  9  1  0  0  0  0
  9 10  1  0  0  0  0
  9 11  1  1  0  0  0
 11 12  1  0  0  0  0
 13 14  1  1  0  0  0
 13 15  1  0  0  0  0
 13 21  1  0  0  0  0
 16 15  1  0  0  0  0
 16 17  1  1  0  0  0
 18  2  1  6  0  0  0
 18 16  1  0  0  0  0
 19 18  1  0  0  0  0
 19 20  1  6  0  0  0
 21 19  1  0  0  0  0
 21 22  1  6  0  0  0
 23 20  1  1  0  0  0
 23 24  1  0  0  0  0
 23 28  1  0  0  0  0
 24 25  1  1  0  0  0
 24 26  1  0  0  0  0
 26 27  1  0  0  0  0
 26 32  1  1  0  0  0
 27 28  1  0  0  0  0
 27 29  1  1  0  0  0
 29 30  1  0  0  0  0
 31 32  1  6  0  0  0
 31 40  1  0  0  0  0
 33 31  1  0  0  0  0
 33 42  1  6  0  0  0
 35 33  1  0  0  0  0
 35 36  1  1  0  0  0
 37 35  1  0  0  0  0
 37 38  1  6  0  0  0
 37 39  1  0  0  0  0
 39 40  1  0  0  0  0
 39 41  1  6  0  0  0
 41 34  1  0  0  0  0
M  END
>  <CHROM.1>
-96.88388293,-178.87101287,-74.87295379,177.17261435,133.67731003,85.53441474
-63.79981935,-171.87221286,69.81589694,0.95464024,93.81923089,10.28672217
-0.13951628,0.78687184,2.32099246

>  <Name>
2fcy_lig

>  <RI>
224

>  <Rbt.Current_Directory>
/home/itssahil/PROJECTS/Mol_Feturizer/New_Systems/rnas/2fcy

>  <Rbt.Executable>
rbdock ($Id: //depot/dev/client3/rdock/2013.1/src/exe/rbdock.cxx#4 $)

>  <Rbt.Library>
libRbt.so (2013.1, Build901 2013/11/27)

>  <Rbt.Parameter_File>
/export/apps/rDock/src/rDock_2013.1_src/data/scripts/dock_solv.prm

>  <Rbt.Receptor>
prm/pocket_docking_6.prm

>  <SCORE>
-9.07747

>  <SCORE.INTER>
-10.8909

>  <SCORE.INTER.CONST>
1

>  <SCORE.INTER.POLAR>
-1.63031

>  <SCORE.INTER.ROT>
9

>  <SCORE.INTER.SOLV>
14.5472

>  <SCORE.INTER.VDW>
-16.2753

>  <SCORE.INTER.norm>
-0.259307

>  <SCORE.INTRA>
1.81344

>  <SCORE.INTRA.DIHEDRAL>
-1.39783

>  <SCORE.INTRA.DIHEDRAL.0>
17.3446

>  <SCORE.INTRA.POLAR>
0

>  <SCORE.INTRA.POLAR.0>
0

>  <SCORE.INTRA.REPUL>
0

>  <SCORE.INTRA.REPUL.0>
0

>  <SCORE.INTRA.SOLV>
-1.67104

>  <SCORE.INTRA.SOLV.lig_0>
-112.452

>  <SCORE.INTRA.VDW>
3.34787

>  <SCORE.INTRA.VDW.0>
-5.95059

>  <SCORE.INTRA.norm>
0.0431771

>  <SCORE.RESTR>
0

>  <SCORE.RESTR.CAVITY>
0

>  <SCORE.RESTR.norm>
0

>  <SCORE.SYSTEM>
0

>  <SCORE.SYSTEM.CONST>
0

>  <SCORE.SYSTEM.DIHEDRAL>
0

>  <SCORE.SYSTEM.SOLV>
0

>  <SCORE.SYSTEM.norm>
0

>  <SCORE.heavy>
42

>  <SCORE.norm>
-0.21613

>  <RMSD>
6.146

$$$$
2fcy_lig
 OpenBabel11021811433D
libRbt.so/2013.1/901 2013/11/27
 42 45  0  0  0  0  0  0  0  0999 V2000
    2.0116   90.4878   15.5402 C   0  0  2  0  0  0  0  0  0  0  0  0
    0.6834   90.4834   16.0908 O   0  0  0  0  0  0  0  0  0  0  0  0
    2.9273   90.0441   16.6819 C   0  0  2  0  0  0  0  0  0  0  0  0
    2.4441   88.7570   17.2003 N   0  0  0  0  0  0  0  0  0  0  0  0
    2.8937   91.0881   17.8008 C   0  0  1  0  0  0  0  0  0  0  0  0
    3.7472   90.6965   18.8797 O   0  0  0  0  0  0  0  0  0  0  0  0
    3.3250   92.4443   17.2417 C   0  0  2  0  0  0  0  0  0  0  0  0
    3.2003   93.4349   18.2620 O   0  0  0  0  0  0  0  0  0  0  0  0
    2.3888   92.8240   16.0934 C   0  0  2  0  0  0  0  0  0  0  0  0
    2.4182   91.7966   15.0904 O   0  0  0  0  0  0  0  0  0  0  0  0
    2.8173   94.1767   15.5186 C   0  0  0  0  0  0  0  0  0  0  0  0
    4.1489   94.0880   14.9009 N   0  0  0  0  0  0  0  0  0  0  0  0
   -3.0617   91.2668   14.3569 C   0  0  2  0  0  0  0  0  0  0  0  0
   -4.2630   91.7961   13.6937 N   0  0  0  0  0  0  0  0  0  0  0  0
   -2.6590   92.1509   15.5389 C   0  0  0  0  0  0  0  0  0  0  0  0
   -1.4889   91.4800   16.2655 C   0  0  2  0  0  0  0  0  0  0  0  0
   -1.0275   92.3545   17.3533 N   0  0  0  0  0  0  0  0  0  0  0  0
   -0.2980   91.2188   15.3388 C   0  0  2  0  0  0  0  0  0  0  0  0
   -0.6551   90.5479   14.0172 C   0  0  2  0  0  0  0  0  0  0  0  0
    0.4835   90.7472   13.1639 O   0  0  0  0  0  0  0  0  0  0  0  0
   -1.8937   91.1830   13.3713 C   0  0  1  0  0  0  0  0  0  0  0  0
   -2.3272   90.4198   12.2423 O   0  0  0  0  0  0  0  0  0  0  0  0
    0.7212   92.1018   12.7480 C   0  0  1  0  0  0  0  0  0  0  0  0
    0.0688   92.2851   11.3768 C   0  0  2  0  0  0  0  0  0  0  0  0
    0.9550   91.8190   10.3565 O   0  0  0  0  0  0  0  0  0  0  0  0
    0.0127   93.8097   11.3460 C   0  0  1  0  0  0  0  0  0  0  0  0
   -0.5109   94.0934   12.7451 C   0  0  2  0  0  0  0  0  0  0  0  0
    0.0770   93.0813   13.5882 O   0  0  0  0  0  0  0  0  0  0  0  0
   -2.0416   94.0085   12.7340 C   0  0  0  0  0  0  0  0  0  0  0  0
   -2.4977   93.3120   11.5707 O   0  0  0  0  0  0  0  0  0  0  0  0
    1.2842   95.7772   11.2410 C   0  0  2  0  0  0  0  0  0  0  0  0
    1.3384   94.3430   11.1987 O   0  0  0  0  0  0  0  0  0  0  0  0
    0.7504   96.3093    9.9072 C   0  0  1  0  0  0  0  0  0  0  0  0
    5.0177   97.7265   11.0609 N   0  0  0  0  0  0  0  0  0  0  0  0
    0.7799   97.8414    9.8927 C   0  0  1  0  0  0  0  0  0  0  0  0
   -0.1737   98.3650   10.8226 O   0  0  0  0  0  0  0  0  0  0  0  0
    2.1833   98.3366   10.2528 C   0  0  2  0  0  0  0  0  0  0  0  0
    3.0882   97.9328    9.2196 O   0  0  0  0  0  0  0  0  0  0  0  0
    2.6127   97.7314   11.5936 C   0  0  1  0  0  0  0  0  0  0  0  0
    2.5993   96.2943   11.5094 O   0  0  0  0  0  0  0  0  0  0  0  0
    4.0051   98.2139   12.0091 C   0  0  0  0  0  0  0  0  0  0  0  0
    1.6147   95.8179    8.8234 N   0  0  0  0  0  0  0  0  0  0  0  0
  1  2  1  1  0  0  0
  1  3  1  0  0  0  0
  1 10  1  0  0  0  0
  3  4  1  1  0  0  0
  3  5  1  0  0  0  0
  5  6  1  1  0  0  0
  5  7  1  0  0  0  0
  7  8  1  1  0  0  0
  7  9  1  0  0  0  0
  9 10  1  0  0  0  0
  9 11  1  6  0  0  0
 11 12  1  0  0  0  0
 13 14  1  6  0  0  0
 13 15  1  0  0  0  0
 13 21  1  0  0  0  0
 16 15  1  0  0  0  0
 16 17  1  1  0  0  0
 18  2  1  1  0  0  0
 18 16  1  0  0  0  0
 19 18  1  0  0  0  0
 19 20  1  6  0  0  0
 21 19  1  0  0  0  0
 21 22  1  6  0  0  0
 23 20  1  1  0  0  0
 23 24  1  0  0  0  0
 23 28  1  0  0  0  0
 24 25  1  6  0  0  0
 24 26  1  0  0  0  0
 26 27  1  0  0  0  0
 26 32  1  1  0  0  0
 27 28  1  0  0  0  0
 27 29  1  6  0  0  0
 29 30  1  0  0  0  0
 31 32  1  6  0  0  0
 31 40  1  0  0  0  0
 33 31  1  0  0  0  0
 33 42  1  6  0  0  0
 35 33  1  0  0  0  0
 35 36  1  1  0  0  0
 37 35  1  0  0  0  0
 37 38  1  6  0  0  0
 37 39  1  0  0  0  0
 39 40  1  0  0  0  0
 39 41  1  6  0  0  0
 41 34  1  0  0  0  0
M  END
>  <CHROM.1>
163.01338391,65.03533463,-162.23059806,-68.43519899,-95.34629331,-177.00681667
17.47601516,-76.02080473,-65.04290546,0.90898687,93.39874828,13.52470851
-1.70153119,-0.48960210,-0.83180192

>  <Name>
2fcy_lig

>  <RI>
224

>  <Rbt.Current_Directory>
/home/itssahil/PROJECTS/Mol_Feturizer/New_Systems/rnas/2fcy

>  <Rbt.Executable>
rbdock ($Id: //depot/dev/client3/rdock/2013.1/src/exe/rbdock.cxx#4 $)

>  <Rbt.Library>
libRbt.so (2013.1, Build901 2013/11/27)

>  <Rbt.Parameter_File>
/export/apps/rDock/src/rDock_2013.1_src/data/scripts/dock_solv.prm

>  <Rbt.Receptor>
prm/pocket_docking_6.prm

>  <SCORE>
-16.9266

>  <SCORE.INTER>
-22.9159

>  <SCORE.INTER.CONST>
1

>  <SCORE.INTER.POLAR>
-2.93444

>  <SCORE.INTER.ROT>
9

>  <SCORE.INTER.SOLV>
23.8936

>  <SCORE.INTER.VDW>
-23.0604

>  <SCORE.INTER.norm>
-0.545618

>  <SCORE.INTRA>
5.98932

>  <SCORE.INTRA.DIHEDRAL>
-3.49944

>  <SCORE.INTRA.DIHEDRAL.0>
17.3446

>  <SCORE.INTRA.POLAR>
0

>  <SCORE.INTRA.POLAR.0>
0

>  <SCORE.INTRA.REPUL>
0

>  <SCORE.INTRA.REPUL.0>
0

>  <SCORE.INTRA.SOLV>
2.93287

>  <SCORE.INTRA.SOLV.lig_0>
-112.452

>  <SCORE.INTRA.VDW>
6.2726

>  <SCORE.INTRA.VDW.0>
-5.95059

>  <SCORE.INTRA.norm>
0.142603

>  <SCORE.RESTR>
0

>  <SCORE.RESTR.CAVITY>
0

>  <SCORE.RESTR.norm>
0

>  <SCORE.SYSTEM>
0

>  <SCORE.SYSTEM.CONST>
0

>  <SCORE.SYSTEM.DIHEDRAL>
0

>  <SCORE.SYSTEM.SOLV>
0

>  <SCORE.SYSTEM.norm>
0

>  <SCORE.heavy>
42

>  <SCORE.norm>
-0.403015

>  <RMSD>
6.162

$$$$
2fcy_lig
 OpenBabel11021811433D
libRbt.so/2013.1/901 2013/11/27
 42 45  0  0  0  0  0  0  0  0999 V2000
    2.4257   96.7729   12.8224 C   0  0  2  0  0  0  0  0  0  0  0  0
    2.7235   96.0736   14.0428 O   0  0  0  0  0  0  0  0  0  0  0  0
    3.0869   98.1444   12.9671 C   0  0  2  0  0  0  0  0  0  0  0  0
    4.5108   97.9510   13.2732 N   0  0  0  0  0  0  0  0  0  0  0  0
    2.4212   98.9160   14.1094 C   0  0  1  0  0  0  0  0  0  0  0  0
    3.0208  100.2056   14.2614 O   0  0  0  0  0  0  0  0  0  0  0  0
    0.9249   99.0510   13.8253 C   0  0  2  0  0  0  0  0  0  0  0  0
    0.2907   99.6851   14.9359 O   0  0  0  0  0  0  0  0  0  0  0  0
    0.3248   97.6528   13.6700 C   0  0  2  0  0  0  0  0  0  0  0  0
    1.0087   96.9509   12.6201 O   0  0  0  0  0  0  0  0  0  0  0  0
   -1.1724   97.7756   13.3751 C   0  0  0  0  0  0  0  0  0  0  0  0
   -1.4006   98.3393   12.0362 N   0  0  0  0  0  0  0  0  0  0  0  0
    2.4103   91.9278   14.6440 C   0  0  2  0  0  0  0  0  0  0  0  0
    2.0230   90.5284   14.8776 N   0  0  0  0  0  0  0  0  0  0  0  0
    1.9408   92.8212   15.7940 C   0  0  0  0  0  0  0  0  0  0  0  0
    2.4858   94.2337   15.5599 C   0  0  2  0  0  0  0  0  0  0  0  0
    1.9751   95.1307   16.6066 N   0  0  0  0  0  0  0  0  0  0  0  0
    2.0608   94.8071   14.2049 C   0  0  2  0  0  0  0  0  0  0  0  0
    2.2770   93.8705   13.0215 C   0  0  2  0  0  0  0  0  0  0  0  0
    1.4821   94.4097   11.9531 O   0  0  0  0  0  0  0  0  0  0  0  0
    1.8119   92.4416   13.3322 C   0  0  1  0  0  0  0  0  0  0  0  0
    2.2010   91.5417   12.2911 O   0  0  0  0  0  0  0  0  0  0  0  0
    1.3950   93.5987   10.7704 C   0  0  1  0  0  0  0  0  0  0  0  0
   -0.0682   93.1873   10.5993 C   0  0  2  0  0  0  0  0  0  0  0  0
   -0.3420   92.0381   11.4044 O   0  0  0  0  0  0  0  0  0  0  0  0
   -0.0271   92.7816    9.1288 C   0  0  1  0  0  0  0  0  0  0  0  0
    0.7558   93.9469    8.5444 C   0  0  2  0  0  0  0  0  0  0  0  0
    1.7127   94.3145    9.5592 O   0  0  0  0  0  0  0  0  0  0  0  0
   -0.2121   95.0935    8.2304 C   0  0  0  0  0  0  0  0  0  0  0  0
    0.5094   96.2857    7.9071 O   0  0  0  0  0  0  0  0  0  0  0  0
    0.1970   90.8149    7.8718 C   0  0  2  0  0  0  0  0  0  0  0  0
    0.7191   91.5632    8.9804 O   0  0  0  0  0  0  0  0  0  0  0  0
    0.4234   89.3187    8.1114 C   0  0  1  0  0  0  0  0  0  0  0  0
    0.4710   92.4994    3.9993 N   0  0  0  0  0  0  0  0  0  0  0  0
   -0.0343   88.5072    6.8947 C   0  0  1  0  0  0  0  0  0  0  0  0
   -1.4578   88.5730    6.7611 O   0  0  0  0  0  0  0  0  0  0  0  0
    0.6324   89.0509    5.6281 C   0  0  2  0  0  0  0  0  0  0  0  0
    2.0429   88.8248    5.7224 O   0  0  0  0  0  0  0  0  0  0  0  0
    0.3479   90.5514    5.5019 C   0  0  1  0  0  0  0  0  0  0  0  0
    0.8458   91.2439    6.6618 O   0  0  0  0  0  0  0  0  0  0  0  0
    0.9777   91.1397    4.2364 C   0  0  0  0  0  0  0  0  0  0  0  0
    1.8617   89.0853    8.3109 N   0  0  0  0  0  0  0  0  0  0  0  0
  1  2  1  1  0  0  0
  1  3  1  0  0  0  0
  1 10  1  0  0  0  0
  3  4  1  1  0  0  0
  3  5  1  0  0  0  0
  5  6  1  6  0  0  0
  5  7  1  0  0  0  0
  7  8  1  1  0  0  0
  7  9  1  0  0  0  0
  9 10  1  0  0  0  0
  9 11  1  6  0  0  0
 11 12  1  0  0  0  0
 13 14  1  1  0  0  0
 13 15  1  0  0  0  0
 13 21  1  0  0  0  0
 16 15  1  0  0  0  0
 16 17  1  1  0  0  0
 18  2  1  6  0  0  0
 18 16  1  0  0  0  0
 19 18  1  0  0  0  0
 19 20  1  6  0  0  0
 21 19  1  0  0  0  0
 21 22  1  6  0  0  0
 23 20  1  1  0  0  0
 23 24  1  0  0  0  0
 23 28  1  0  0  0  0
 24 25  1  1  0  0  0
 24 26  1  0  0  0  0
 26 27  1  0  0  0  0
 26 32  1  1  0  0  0
 27 28  1  0  0  0  0
 27 29  1  1  0  0  0
 29 30  1  0  0  0  0
 31 32  1  1  0  0  0
 31 40  1  0  0  0  0
 33 31  1  0  0  0  0
 33 42  1  6  0  0  0
 35 33  1  0  0  0  0
 35 36  1  6  0  0  0
 37 35  1  0  0  0  0
 37 38  1  1  0  0  0
 37 39  1  0  0  0  0
 39 40  1  0  0  0  0
 39 41  1  6  0  0  0
 41 34  1  0  0  0  0
M  END
>  <CHROM.1>
172.69896271,69.05023457,-179.18289502,-172.62891259,116.30256954,148.93966673
169.61183961,-151.05161178,168.67539337,1.17610527,93.86034668,10.90708415
1.04558444,-1.33498888,0.30347712

>  <Name>
2fcy_lig

>  <RI>
2.32494e+07

>  <Rbt.Current_Directory>
/home/itssahil/PROJECTS/Mol_Feturizer/New_Systems/rnas/2fcy

>  <Rbt.Executable>
rbdock ($Id: //depot/dev/client3/rdock/2013.1/src/exe/rbdock.cxx#4 $)

>  <Rbt.Library>
libRbt.so (2013.1, Build901 2013/11/27)

>  <Rbt.Parameter_File>
/export/apps/rDock/src/rDock_2013.1_src/data/scripts/dock_solv.prm

>  <Rbt.Receptor>
prm/pocket_docking_8.prm

>  <SCORE>
-19.8472

>  <SCORE.INTER>
-20.8635

>  <SCORE.INTER.CONST>
1

>  <SCORE.INTER.POLAR>
-3.21885

>  <SCORE.INTER.ROT>
9

>  <SCORE.INTER.SOLV>
25.9212

>  <SCORE.INTER.VDW>
-21.4199

>  <SCORE.INTER.norm>
-0.49675

>  <SCORE.INTRA>
1.01625

>  <SCORE.INTRA.DIHEDRAL>
-1.20805

>  <SCORE.INTRA.DIHEDRAL.0>
17.3446

>  <SCORE.INTRA.POLAR>
0

>  <SCORE.INTRA.POLAR.0>
0

>  <SCORE.INTRA.REPUL>
0.0922932

>  <SCORE.INTRA.REPUL.0>
0

>  <SCORE.INTRA.SOLV>
-4.40289

>  <SCORE.INTRA.SOLV.lig_0>
-112.452

>  <SCORE.INTRA.VDW>
3.36025

>  <SCORE.INTRA.VDW.0>
-5.95059

>  <SCORE.INTRA.norm>
0.0241964

>  <SCORE.RESTR>
0

>  <SCORE.RESTR.CAVITY>
0

>  <SCORE.RESTR.norm>
0

>  <SCORE.SYSTEM>
0

>  <SCORE.SYSTEM.CONST>
0

>  <SCORE.SYSTEM.DIHEDRAL>
0

>  <SCORE.SYSTEM.SOLV>
0

>  <SCORE.SYSTEM.norm>
0

>  <SCORE.heavy>
42

>  <SCORE.norm>
-0.472553

>  <RMSD>
6.193

$$$$
2fcy_lig
 OpenBabel11021811433D
libRbt.so/2013.1/901 2013/11/27
 42 45  0  0  0  0  0  0  0  0999 V2000
    1.8194   90.7521   15.7529 C   0  0  2  0  0  0  0  0  0  0  0  0
    0.4153   90.6928   16.0565 O   0  0  0  0  0  0  0  0  0  0  0  0
    2.5253   90.1567   16.9720 C   0  0  2  0  0  0  0  0  0  0  0  0
    1.9730   88.8198   17.2299 N   0  0  0  0  0  0  0  0  0  0  0  0
    2.2838   91.0507   18.1910 C   0  0  1  0  0  0  0  0  0  0  0  0
    2.9388   90.5158   19.3444 O   0  0  0  0  0  0  0  0  0  0  0  0
    2.7913   92.4619   17.8930 C   0  0  2  0  0  0  0  0  0  0  0  0
    2.4781   93.3164   18.9927 O   0  0  0  0  0  0  0  0  0  0  0  0
    2.0672   92.9948   16.6557 C   0  0  2  0  0  0  0  0  0  0  0  0
    2.2839   92.1027   15.5513 O   0  0  0  0  0  0  0  0  0  0  0  0
    2.5748   94.4045   16.3414 C   0  0  0  0  0  0  0  0  0  0  0  0
    2.1914   95.3502   17.4003 N   0  0  0  0  0  0  0  0  0  0  0  0
   -2.8839   91.0444   13.4801 C   0  0  2  0  0  0  0  0  0  0  0  0
   -3.9543   91.4365   12.5508 N   0  0  0  0  0  0  0  0  0  0  0  0
   -2.8952   91.9302   14.7275 C   0  0  0  0  0  0  0  0  0  0  0  0
   -1.8508   91.3914   15.7103 C   0  0  2  0  0  0  0  0  0  0  0  0
   -1.7821   92.2787   16.8804 N   0  0  0  0  0  0  0  0  0  0  0  0
   -0.4504   91.3210   15.0945 C   0  0  2  0  0  0  0  0  0  0  0  0
   -0.3908   90.6574   13.7231 C   0  0  2  0  0  0  0  0  0  0  0  0
    0.8796   91.0337   13.1678 O   0  0  0  0  0  0  0  0  0  0  0  0
   -1.5155   91.1488   12.8021 C   0  0  1  0  0  0  0  0  0  0  0  0
   -1.5627   90.3769   11.5992 O   0  0  0  0  0  0  0  0  0  0  0  0
    0.9006   92.2748   12.4442 C   0  0  1  0  0  0  0  0  0  0  0  0
    0.7569   93.4062   13.4634 C   0  0  2  0  0  0  0  0  0  0  0  0
   -0.6256   93.6086   13.7655 O   0  0  0  0  0  0  0  0  0  0  0  0
    1.2657   94.5607   12.6051 C   0  0  1  0  0  0  0  0  0  0  0  0
    2.5021   93.9226   11.9917 C   0  0  2  0  0  0  0  0  0  0  0  0
    2.1591   92.5361   11.7898 O   0  0  0  0  0  0  0  0  0  0  0  0
    3.6811   94.0840   12.9581 C   0  0  0  0  0  0  0  0  0  0  0  0
    3.9128   95.4670   13.2413 O   0  0  0  0  0  0  0  0  0  0  0  0
   -0.2702   96.1542   11.8303 C   0  0  2  0  0  0  0  0  0  0  0  0
    0.3073   94.8640   11.5790 O   0  0  0  0  0  0  0  0  0  0  0  0
   -1.3767   96.4286   10.8068 C   0  0  1  0  0  0  0  0  0  0  0  0
    0.9892  100.7193   12.7314 N   0  0  0  0  0  0  0  0  0  0  0  0
   -1.9381   97.8424   10.9926 C   0  0  1  0  0  0  0  0  0  0  0  0
   -2.6508   97.9347   12.2302 O   0  0  0  0  0  0  0  0  0  0  0  0
   -0.7950   98.8609   10.9736 C   0  0  2  0  0  0  0  0  0  0  0  0
   -0.2041   98.8587    9.6697 O   0  0  0  0  0  0  0  0  0  0  0  0
    0.2514   98.4776   12.0255 C   0  0  1  0  0  0  0  0  0  0  0  0
    0.7578   97.1574   11.7547 O   0  0  0  0  0  0  0  0  0  0  0  0
    1.4083   99.4800   12.0604 C   0  0  0  0  0  0  0  0  0  0  0  0
   -0.8044   96.3299    9.4556 N   0  0  0  0  0  0  0  0  0  0  0  0
  1  2  1  1  0  0  0
  1  3  1  0  0  0  0
  1 10  1  0  0  0  0
  3  4  1  1  0  0  0
  3  5  1  0  0  0  0
  5  6  1  1  0  0  0
  5  7  1  0  0  0  0
  7  8  1  1  0  0  0
  7  9  1  0  0  0  0
  9 10  1  0  0  0  0
  9 11  1  6  0  0  0
 11 12  1  0  0  0  0
 13 14  1  6  0  0  0
 13 15  1  0  0  0  0
 13 21  1  0  0  0  0
 16 15  1  0  0  0  0
 16 17  1  1  0  0  0
 18  2  1  1  0  0  0
 18 16  1  0  0  0  0
 19 18  1  0  0  0  0
 19 20  1  6  0  0  0
 21 19  1  0  0  0  0
 21 22  1  6  0  0  0
 23 20  1  1  0  0  0
 23 24  1  0  0  0  0
 23 28  1  0  0  0  0
 24 25  1  6  0  0  0
 24 26  1  0  0  0  0
 26 27  1  0  0  0  0
 26 32  1  6  0  0  0
 27 28  1  0  0  0  0
 27 29  1  1  0  0  0
 29 30  1  0  0  0  0
 31 32  1  6  0  0  0
 31 40  1  0  0  0  0
 33 31  1  0  0  0  0
 33 42  1  6  0  0  0
 35 33  1  0  0  0  0
 35 36  1  1  0  0  0
 37 35  1  0  0  0  0
 37 38  1  6  0  0  0
 37 39  1  0  0  0  0
 39 40  1  0  0  0  0
 39 41  1  6  0  0  0
 41 34  1  0  0  0  0
M  END
>  <CHROM.1>
174.34476251,-66.38208087,-169.41638003,-87.44749289,71.12779102,112.14890711
-58.02054417,-175.21488612,75.40239675,0.50210759,93.77632436,13.91074294
-1.32957770,-0.72604841,-0.52135099

>  <Name>
2fcy_lig

>  <RI>
2.89127e+07

>  <Rbt.Current_Directory>
/home/itssahil/PROJECTS/Mol_Feturizer/New_Systems/rnas/2fcy

>  <Rbt.Executable>
rbdock ($Id: //depot/dev/client3/rdock/2013.1/src/exe/rbdock.cxx#4 $)

>  <Rbt.Library>
libRbt.so (2013.1, Build901 2013/11/27)

>  <Rbt.Parameter_File>
/export/apps/rDock/src/rDock_2013.1_src/data/scripts/dock_solv.prm

>  <Rbt.Receptor>
prm/pocket_docking_7.prm

>  <SCORE>
-10.7996

>  <SCORE.INTER>
-11.6677

>  <SCORE.INTER.CONST>
1

>  <SCORE.INTER.POLAR>
-0.475852

>  <SCORE.INTER.ROT>
9

>  <SCORE.INTER.SOLV>
21.1136

>  <SCORE.INTER.VDW>
-22.8302

>  <SCORE.INTER.norm>
-0.277803

>  <SCORE.INTRA>
0.868085

>  <SCORE.INTRA.DIHEDRAL>
-5.00258

>  <SCORE.INTRA.DIHEDRAL.0>
17.3446

>  <SCORE.INTRA.POLAR>
0

>  <SCORE.INTRA.POLAR.0>
0

>  <SCORE.INTRA.REPUL>
0

>  <SCORE.INTRA.REPUL.0>
0

>  <SCORE.INTRA.SOLV>
-1.96631

>  <SCORE.INTRA.SOLV.lig_0>
-112.452

>  <SCORE.INTRA.VDW>
4.35253

>  <SCORE.INTRA.VDW.0>
-5.95059

>  <SCORE.INTRA.norm>
0.0206687

>  <SCORE.RESTR>
0

>  <SCORE.RESTR.CAVITY>
0

>  <SCORE.RESTR.norm>
0

>  <SCORE.SYSTEM>
0

>  <SCORE.SYSTEM.CONST>
0

>  <SCORE.SYSTEM.DIHEDRAL>
0

>  <SCORE.SYSTEM.SOLV>
0

>  <SCORE.SYSTEM.norm>
0

>  <SCORE.heavy>
42

>  <SCORE.norm>
-0.257134

>  <RMSD>
6.213

$$$$
2fcy_lig
 OpenBabel11021811433D
libRbt.so/2013.1/901 2013/11/27
 42 45  0  0  0  0  0  0  0  0999 V2000
    1.3452   95.5283   12.1045 C   0  0  2  0  0  0  0  0  0  0  0  0
    2.2390   95.2624   13.1988 O   0  0  0  0  0  0  0  0  0  0  0  0
    1.9911   96.6710   11.3195 C   0  0  2  0  0  0  0  0  0  0  0  0
    3.3604   96.2795   10.9585 N   0  0  0  0  0  0  0  0  0  0  0  0
    2.0344   97.9297   12.1895 C   0  0  1  0  0  0  0  0  0  0  0  0
    2.6314   99.0149   11.4742 O   0  0  0  0  0  0  0  0  0  0  0  0
    0.6150   98.2927   12.6268 C   0  0  2  0  0  0  0  0  0  0  0  0
    0.6675   99.4084   13.5157 O   0  0  0  0  0  0  0  0  0  0  0  0
    0.0152   97.1081   13.3857 C   0  0  2  0  0  0  0  0  0  0  0  0
    0.0365   95.9413   12.5487 O   0  0  0  0  0  0  0  0  0  0  0  0
   -1.4109   97.4563   13.8203 C   0  0  0  0  0  0  0  0  0  0  0  0
   -2.3057   97.5563   12.6577 N   0  0  0  0  0  0  0  0  0  0  0  0
    2.4665   91.9482   15.7700 C   0  0  2  0  0  0  0  0  0  0  0  0
    2.2902   90.8725   16.7573 N   0  0  0  0  0  0  0  0  0  0  0  0
    2.3525   93.3211   16.4355 C   0  0  0  0  0  0  0  0  0  0  0  0
    2.6754   94.3921   15.3886 C   0  0  2  0  0  0  0  0  0  0  0  0
    2.4870   95.7236   15.9824 N   0  0  0  0  0  0  0  0  0  0  0  0
    1.7701   94.2973   14.1571 C   0  0  2  0  0  0  0  0  0  0  0  0
    1.6389   92.8964   13.5700 C   0  0  2  0  0  0  0  0  0  0  0  0
    0.4878   92.9446   12.7117 O   0  0  0  0  0  0  0  0  0  0  0  0
    1.4182   91.8392   14.6601 C   0  0  1  0  0  0  0  0  0  0  0  0
    1.4948   90.5201   14.1132 O   0  0  0  0  0  0  0  0  0  0  0  0
    0.4394   91.9486   11.6773 C   0  0  1  0  0  0  0  0  0  0  0  0
   -1.0091   91.8534   11.1952 C   0  0  2  0  0  0  0  0  0  0  0  0
   -1.7478   90.9874   12.0601 O   0  0  0  0  0  0  0  0  0  0  0  0
   -0.7663   91.1549    9.8604 C   0  0  1  0  0  0  0  0  0  0  0  0
    0.4077   91.9663    9.3356 C   0  0  2  0  0  0  0  0  0  0  0  0
    1.1891   92.3084   10.4988 O   0  0  0  0  0  0  0  0  0  0  0  0
   -0.1249   93.2125    8.6190 C   0  0  0  0  0  0  0  0  0  0  0  0
   -0.9933   92.8415    7.5445 O   0  0  0  0  0  0  0  0  0  0  0  0
   -0.3885   89.0743    8.8471 C   0  0  2  0  0  0  0  0  0  0  0  0
   -0.3627   89.7953   10.0884 O   0  0  0  0  0  0  0  0  0  0  0  0
    0.0711   87.6320    9.0825 C   0  0  1  0  0  0  0  0  0  0  0  0
    0.6547   91.2083    5.3926 N   0  0  0  0  0  0  0  0  0  0  0  0
    0.1487   86.8720    7.7540 C   0  0  1  0  0  0  0  0  0  0  0  0
   -1.1629   86.6799    7.2147 O   0  0  0  0  0  0  0  0  0  0  0  0
    1.0107   87.6539    6.7590 C   0  0  2  0  0  0  0  0  0  0  0  0
    2.3546   87.6909    7.2507 O   0  0  0  0  0  0  0  0  0  0  0  0
    0.4643   89.0784    6.6152 C   0  0  1  0  0  0  0  0  0  0  0  0
    0.4649   89.7352    7.8964 O   0  0  0  0  0  0  0  0  0  0  0  0
    1.2819   89.8967    5.6122 C   0  0  0  0  0  0  0  0  0  0  0  0
    1.4136   87.6567    9.6826 N   0  0  0  0  0  0  0  0  0  0  0  0
  1  2  1  1  0  0  0
  1  3  1  0  0  0  0
  1 10  1  0  0  0  0
  3  4  1  1  0  0  0
  3  5  1  0  0  0  0
  5  6  1  6  0  0  0
  5  7  1  0  0  0  0
  7  8  1  1  0  0  0
  7  9  1  0  0  0  0
  9 10  1  0  0  0  0
  9 11  1  6  0  0  0
 11 12  1  0  0  0  0
 13 14  1  1  0  0  0
 13 15  1  0  0  0  0
 13 21  1  0  0  0  0
 16 15  1  0  0  0  0
 16 17  1  1  0  0  0
 18  2  1  6  0  0  0
 18 16  1  0  0  0  0
 19 18  1  0  0  0  0
 19 20  1  6  0  0  0
 21 19  1  0  0  0  0
 21 22  1  6  0  0  0
 23 20  1  1  0  0  0
 23 24  1  0  0  0  0
 23 28  1  0  0  0  0
 24 25  1  1  0  0  0
 24 26  1  0  0  0  0
 26 27  1  0  0  0  0
 26 32  1  1  0  0  0
 27 28  1  0  0  0  0
 27 29  1  1  0  0  0
 29 30  1  0  0  0  0
 31 32  1  1  0  0  0
 31 40  1  0  0  0  0
 33 31  1  0  0  0  0
 33 42  1  6  0  0  0
 35 33  1  0  0  0  0
 35 36  1  6  0  0  0
 37 35  1  0  0  0  0
 37 38  1  1  0  0  0
 37 39  1  0  0  0  0
 39 40  1  0  0  0  0
 39 41  1  6  0  0  0
 41 34  1  0  0  0  0
M  END
>  <CHROM.1>
174.32444939,68.40208280,-166.86118733,157.30130355,161.37496308,168.86649414
-58.47607055,178.76947817,174.21292091,0.78876024,92.72346934,11.22128745
1.08958078,-1.36596205,0.17650561

>  <Name>
2fcy_lig

>  <RI>
224

>  <Rbt.Current_Directory>
/home/itssahil/PROJECTS/Mol_Feturizer/New_Systems/rnas/2fcy

>  <Rbt.Executable>
rbdock ($Id: //depot/dev/client3/rdock/2013.1/src/exe/rbdock.cxx#4 $)

>  <Rbt.Library>
libRbt.so (2013.1, Build901 2013/11/27)

>  <Rbt.Parameter_File>
/export/apps/rDock/src/rDock_2013.1_src/data/scripts/dock_solv.prm

>  <Rbt.Receptor>
prm/pocket_docking_6.prm

>  <SCORE>
-20.287

>  <SCORE.INTER>
-15.7423

>  <SCORE.INTER.CONST>
1

>  <SCORE.INTER.POLAR>
-2.5301

>  <SCORE.INTER.ROT>
9

>  <SCORE.INTER.SOLV>
16.9446

>  <SCORE.INTER.VDW>
-17.3094

>  <SCORE.INTER.norm>
-0.374817

>  <SCORE.INTRA>
-4.54462

>  <SCORE.INTRA.DIHEDRAL>
-11.0097

>  <SCORE.INTRA.DIHEDRAL.0>
17.3446

>  <SCORE.INTRA.POLAR>
0

>  <SCORE.INTRA.POLAR.0>
0

>  <SCORE.INTRA.REPUL>
0

>  <SCORE.INTRA.REPUL.0>
0

>  <SCORE.INTRA.SOLV>
-2.1586

>  <SCORE.INTRA.SOLV.lig_0>
-112.452

>  <SCORE.INTRA.VDW>
2.03952

>  <SCORE.INTRA.VDW.0>
-5.95059

>  <SCORE.INTRA.norm>
-0.108205

>  <SCORE.RESTR>
0

>  <SCORE.RESTR.CAVITY>
0

>  <SCORE.RESTR.norm>
0

>  <SCORE.SYSTEM>
0

>  <SCORE.SYSTEM.CONST>
0

>  <SCORE.SYSTEM.DIHEDRAL>
0

>  <SCORE.SYSTEM.SOLV>
0

>  <SCORE.SYSTEM.norm>
0

>  <SCORE.heavy>
42

>  <SCORE.norm>
-0.483023

>  <RMSD>
6.240

$$$$
2fcy_lig
 OpenBabel11021811433D
libRbt.so/2013.1/901 2013/11/27
 42 45  0  0  0  0  0  0  0  0999 V2000
   -2.5442   96.1398   10.8219 C   0  0  2  0  0  0  0  0  0  0  0  0
   -2.5593   95.3244   12.0060 O   0  0  0  0  0  0  0  0  0  0  0  0
   -3.9519   96.0308   10.2342 C   0  0  2  0  0  0  0  0  0  0  0  0
   -4.9249   96.4071   11.2689 N   0  0  0  0  0  0  0  0  0  0  0  0
   -4.2120   94.5886    9.7918 C   0  0  1  0  0  0  0  0  0  0  0  0
   -5.5230   94.4624    9.2340 O   0  0  0  0  0  0  0  0  0  0  0  0
   -3.1529   94.1731    8.7703 C   0  0  2  0  0  0  0  0  0  0  0  0
   -3.3393   92.7988    8.4321 O   0  0  0  0  0  0  0  0  0  0  0  0
   -1.7699   94.3229    9.4058 C   0  0  2  0  0  0  0  0  0  0  0  0
   -1.5880   95.6778    9.8458 O   0  0  0  0  0  0  0  0  0  0  0  0
   -0.6998   93.9189    8.3882 C   0  0  0  0  0  0  0  0  0  0  0  0
   -0.7667   94.7676    7.1892 N   0  0  0  0  0  0  0  0  0  0  0  0
    1.5740   95.7579   12.6180 C   0  0  2  0  0  0  0  0  0  0  0  0
    2.9604   95.8442   13.1012 N   0  0  0  0  0  0  0  0  0  0  0  0
    0.6653   96.7079   13.4007 C   0  0  0  0  0  0  0  0  0  0  0  0
   -0.7293   96.6714   12.7674 C   0  0  2  0  0  0  0  0  0  0  0  0
   -1.6428   97.5103   13.5565 N   0  0  0  0  0  0  0  0  0  0  0  0
   -1.3144   95.2567   12.7237 C   0  0  2  0  0  0  0  0  0  0  0  0
   -0.3703   94.1944   12.1717 C   0  0  2  0  0  0  0  0  0  0  0  0
   -0.9332   92.9341   12.5704 O   0  0  0  0  0  0  0  0  0  0  0  0
    1.0429   94.3288   12.7540 C   0  0  1  0  0  0  0  0  0  0  0  0
    1.9557   93.4566   12.0822 O   0  0  0  0  0  0  0  0  0  0  0  0
   -0.7080   91.8379   11.6693 C   0  0  1  0  0  0  0  0  0  0  0  0
   -0.9082   90.5429   12.4584 C   0  0  2  0  0  0  0  0  0  0  0  0
    0.2957   90.2138   13.1556 O   0  0  0  0  0  0  0  0  0  0  0  0
   -1.0984   89.5825   11.2880 C   0  0  1  0  0  0  0  0  0  0  0  0
   -2.0622   90.3851   10.4282 C   0  0  2  0  0  0  0  0  0  0  0  0
   -1.6761   91.7639   10.6027 O   0  0  0  0  0  0  0  0  0  0  0  0
   -3.4952   90.1284   10.9087 C   0  0  0  0  0  0  0  0  0  0  0  0
   -4.4311   90.8585   10.1104 O   0  0  0  0  0  0  0  0  0  0  0  0
    0.1040   88.1866    9.8375 C   0  0  2  0  0  0  0  0  0  0  0  0
    0.1479   89.4047   10.5962 O   0  0  0  0  0  0  0  0  0  0  0  0
    1.4021   88.0337    9.0382 C   0  0  1  0  0  0  0  0  0  0  0  0
   -3.6138   87.1778    8.2717 N   0  0  0  0  0  0  0  0  0  0  0  0
    1.3353   86.7920    8.1427 C   0  0  1  0  0  0  0  0  0  0  0  0
    1.3380   85.6038    8.9406 O   0  0  0  0  0  0  0  0  0  0  0  0
    0.0683   86.8391    7.2844 C   0  0  2  0  0  0  0  0  0  0  0  0
    0.1684   87.9477    6.3841 O   0  0  0  0  0  0  0  0  0  0  0  0
   -1.1580   87.0052    8.1882 C   0  0  1  0  0  0  0  0  0  0  0  0
   -1.0367   88.2135    8.9617 O   0  0  0  0  0  0  0  0  0  0  0  0
   -2.4559   87.0370    7.3766 C   0  0  0  0  0  0  0  0  0  0  0  0
    1.5699   89.2165    8.1804 N   0  0  0  0  0  0  0  0  0  0  0  0
  1  2  1  1  0  0  0
  1  3  1  0  0  0  0
  1 10  1  0  0  0  0
  3  4  1  1  0  0  0
  3  5  1  0  0  0  0
  5  6  1  6  0  0  0
  5  7  1  0  0  0  0
  7  8  1  1  0  0  0
  7  9  1  0  0  0  0
  9 10  1  0  0  0  0
  9 11  1  6  0  0  0
 11 12  1  0  0  0  0
 13 14  1  1  0  0  0
 13 15  1  0  0  0  0
 13 21  1  0  0  0  0
 16 15  1  0  0  0  0
 16 17  1  1  0  0  0
 18  2  1  6  0  0  0
 18 16  1  0  0  0  0
 19 18  1  0  0  0  0
 19 20  1  1  0  0  0
 21 19  1  0  0  0  0
 21 22  1  6  0  0  0
 23 20  1  1  0  0  0
 23 24  1  0  0  0  0
 23 28  1  0  0  0  0
 24 25  1  6  0  0  0
 24 26  1  0  0  0  0
 26 27  1  0  0  0  0
 26 32  1  6  0  0  0
 27 28  1  0  0  0  0
 27 29  1  1  0  0  0
 29 30  1  0  0  0  0
 31 32  1  6  0  0  0
 31 40  1  0  0  0  0
 33 31  1  0  0  0  0
 33 42  1  6  0  0  0
 35 33  1  0  0  0  0
 35 36  1  1  0  0  0
 37 35  1  0  0  0  0
 37 38  1  6  0  0  0
 37 39  1  0  0  0  0
 39 40  1  0  0  0  0
 39 41  1  6  0  0  0
 41 34  1  0  0  0  0
M  END
>  <CHROM.1>
178.99992347,59.94120629,42.66634385,148.41151701,159.80008779,159.37289222
-179.36789626,176.90408796,179.19352249,-1.15698042,92.06614167,10.34435415
1.70767343,-0.47706495,0.43409133

>  <Name>
2fcy_lig

>  <RI>
2.89127e+07

>  <Rbt.Current_Directory>
/home/itssahil/PROJECTS/Mol_Feturizer/New_Systems/rnas/2fcy

>  <Rbt.Executable>
rbdock ($Id: //depot/dev/client3/rdock/2013.1/src/exe/rbdock.cxx#4 $)

>  <Rbt.Library>
libRbt.so (2013.1, Build901 2013/11/27)

>  <Rbt.Parameter_File>
/export/apps/rDock/src/rDock_2013.1_src/data/scripts/dock_solv.prm

>  <Rbt.Receptor>
prm/pocket_docking_7.prm

>  <SCORE>
-11.1835

>  <SCORE.INTER>
-8.15902

>  <SCORE.INTER.CONST>
1

>  <SCORE.INTER.POLAR>
-1.97802

>  <SCORE.INTER.ROT>
9

>  <SCORE.INTER.SOLV>
13.8544

>  <SCORE.INTER.VDW>
-13.0641

>  <SCORE.INTER.norm>
-0.194262

>  <SCORE.INTRA>
-3.02451

>  <SCORE.INTRA.DIHEDRAL>
-7.89535

>  <SCORE.INTRA.DIHEDRAL.0>
17.3446

>  <SCORE.INTRA.POLAR>
0

>  <SCORE.INTRA.POLAR.0>
0

>  <SCORE.INTRA.REPUL>
0

>  <SCORE.INTRA.REPUL.0>
0

>  <SCORE.INTRA.SOLV>
-1.07898

>  <SCORE.INTRA.SOLV.lig_0>
-112.452

>  <SCORE.INTRA.VDW>
1.46266

>  <SCORE.INTRA.VDW.0>
-5.95059

>  <SCORE.INTRA.norm>
-0.0720121

>  <SCORE.RESTR>
0

>  <SCORE.RESTR.CAVITY>
0

>  <SCORE.RESTR.norm>
0

>  <SCORE.SYSTEM>
0

>  <SCORE.SYSTEM.CONST>
0

>  <SCORE.SYSTEM.DIHEDRAL>
0

>  <SCORE.SYSTEM.SOLV>
0

>  <SCORE.SYSTEM.norm>
0

>  <SCORE.heavy>
42

>  <SCORE.norm>
-0.266274

>  <RMSD>
6.246

$$$$
2fcy_lig
 OpenBabel11021811433D
libRbt.so/2013.1/901 2013/11/27
 42 45  0  0  0  0  0  0  0  0999 V2000
    1.2775   95.6760   10.4441 C   0  0  2  0  0  0  0  0  0  0  0  0
    0.0886   95.4179   11.2103 O   0  0  0  0  0  0  0  0  0  0  0  0
    1.2345   97.1691   10.1159 C   0  0  2  0  0  0  0  0  0  0  0  0
    1.0938   97.9231   11.3691 N   0  0  0  0  0  0  0  0  0  0  0  0
    0.0356   97.4601    9.2098 C   0  0  1  0  0  0  0  0  0  0  0  0
   -0.0233   98.8518    8.8853 O   0  0  0  0  0  0  0  0  0  0  0  0
    0.1449   96.6177    7.9385 C   0  0  2  0  0  0  0  0  0  0  0  0
   -1.0213   96.8178    7.1399 O   0  0  0  0  0  0  0  0  0  0  0  0
    0.2052   95.1405    8.3300 C   0  0  2  0  0  0  0  0  0  0  0  0
    1.3157   94.9232    9.2143 O   0  0  0  0  0  0  0  0  0  0  0  0
    0.3249   94.2870    7.0647 C   0  0  0  0  0  0  0  0  0  0  0  0
   -0.8686   94.4311    6.2178 N   0  0  0  0  0  0  0  0  0  0  0  0
    1.7935   92.0896   13.1240 C   0  0  2  0  0  0  0  0  0  0  0  0
    2.1914   90.9699   13.9905 N   0  0  0  0  0  0  0  0  0  0  0  0
    1.8324   93.4121   13.8923 C   0  0  0  0  0  0  0  0  0  0  0  0
    1.5394   94.5495   12.9086 C   0  0  2  0  0  0  0  0  0  0  0  0
    1.4851   95.8229   13.6410 N   0  0  0  0  0  0  0  0  0  0  0  0
    0.2007   94.3678   12.1872 C   0  0  2  0  0  0  0  0  0  0  0  0
   -0.0190   92.9811   11.5929 C   0  0  2  0  0  0  0  0  0  0  0  0
   -1.4279   92.8954   11.3254 O   0  0  0  0  0  0  0  0  0  0  0  0
    0.3826   91.8704   12.5724 C   0  0  1  0  0  0  0  0  0  0  0  0
    0.3567   90.5922   11.9315 O   0  0  0  0  0  0  0  0  0  0  0  0
   -1.7864   92.4128   10.0204 C   0  0  1  0  0  0  0  0  0  0  0  0
   -3.2153   91.8736   10.1039 C   0  0  2  0  0  0  0  0  0  0  0  0
   -3.1945   90.5301   10.5922 O   0  0  0  0  0  0  0  0  0  0  0  0
   -3.5517   91.8700    8.6155 C   0  0  1  0  0  0  0  0  0  0  0  0
   -3.0244   93.2378    8.2117 C   0  0  2  0  0  0  0  0  0  0  0  0
   -1.8505   93.4519    9.0222 O   0  0  0  0  0  0  0  0  0  0  0  0
   -4.1047   94.2913    8.4824 C   0  0  0  0  0  0  0  0  0  0  0  0
   -5.2548   94.0527    7.6658 O   0  0  0  0  0  0  0  0  0  0  0  0
   -3.1731   90.8021    6.5625 C   0  0  2  0  0  0  0  0  0  0  0  0
   -2.8057   90.8384    7.9500 O   0  0  0  0  0  0  0  0  0  0  0  0
   -4.5171   90.0832    6.4070 C   0  0  1  0  0  0  0  0  0  0  0  0
   -0.9418   88.1372    4.1756 N   0  0  0  0  0  0  0  0  0  0  0  0
   -4.8799   89.9429    4.9247 C   0  0  1  0  0  0  0  0  0  0  0  0
   -5.1642   91.2267    4.3596 O   0  0  0  0  0  0  0  0  0  0  0  0
   -3.7223   89.2864    4.1674 C   0  0  2  0  0  0  0  0  0  0  0  0
   -3.5668   87.9460    4.6456 O   0  0  0  0  0  0  0  0  0  0  0  0
   -2.4351   90.0825    4.4071 C   0  0  1  0  0  0  0  0  0  0  0  0
   -2.1434   90.1301    5.8162 O   0  0  0  0  0  0  0  0  0  0  0  0
   -1.2490   89.4763    3.6520 C   0  0  0  0  0  0  0  0  0  0  0  0
   -4.4015   88.7364    6.9864 N   0  0  0  0  0  0  0  0  0  0  0  0
  1  2  1  6  0  0  0
  1  3  1  0  0  0  0
  1 10  1  0  0  0  0
  3  4  1  1  0  0  0
  3  5  1  0  0  0  0
  5  6  1  6  0  0  0
  5  7  1  0  0  0  0
  7  8  1  6  0  0  0
  7  9  1  0  0  0  0
  9 10  1  0  0  0  0
  9 11  1  6  0  0  0
 11 12  1  0  0  0  0
 13 14  1  1  0  0  0
 13 15  1  0  0  0  0
 13 21  1  0  0  0  0
 16 15  1  0  0  0  0
 16 17  1  1  0  0  0
 18  2  1  6  0  0  0
 18 16  1  0  0  0  0
 19 18  1  0  0  0  0
 19 20  1  1  0  0  0
 21 19  1  0  0  0  0
 21 22  1  6  0  0  0
 23 20  1  1  0  0  0
 23 24  1  0  0  0  0
 23 28  1  0  0  0  0
 24 25  1  6  0  0  0
 24 26  1  0  0  0  0
 26 27  1  0  0  0  0
 26 32  1  6  0  0  0
 27 28  1  0  0  0  0
 27 29  1  1  0  0  0
 29 30  1  0  0  0  0
 31 32  1  1  0  0  0
 31 40  1  0  0  0  0
 33 31  1  0  0  0  0
 33 42  1  6  0  0  0
 35 33  1  0  0  0  0
 35 36  1  6  0  0  0
 37 35  1  0  0  0  0
 37 38  1  1  0  0  0
 37 39  1  0  0  0  0
 39 40  1  0  0  0  0
 39 41  1  6  0  0  0
 41 34  1  0  0  0  0
M  END
>  <CHROM.1>
-148.98856551,-63.58100352,43.76440051,131.85270223,157.93949513,177.40107175
-63.70231722,-78.12076618,-64.92808542,-1.28658746,92.91647992,8.81135214
0.22922656,-1.06013089,-0.44535680

>  <Name>
2fcy_lig

>  <RI>
0

>  <Rbt.Current_Directory>
/home/itssahil/PROJECTS/Mol_Feturizer/New_Systems/rnas/2fcy

>  <Rbt.Executable>
rbdock ($Id: //depot/dev/client3/rdock/2013.1/src/exe/rbdock.cxx#4 $)

>  <Rbt.Library>
libRbt.so (2013.1, Build901 2013/11/27)

>  <Rbt.Parameter_File>
/export/apps/rDock/src/rDock_2013.1_src/data/scripts/dock_solv.prm

>  <Rbt.Receptor>
prm/pocket_docking_5.prm

>  <SCORE>
-0.844289

>  <SCORE.INTER>
-4.22192

>  <SCORE.INTER.CONST>
1

>  <SCORE.INTER.POLAR>
-1.36719

>  <SCORE.INTER.ROT>
9

>  <SCORE.INTER.SOLV>
11.1748

>  <SCORE.INTER.VDW>
-11.5822

>  <SCORE.INTER.norm>
-0.100522

>  <SCORE.INTRA>
3.34869

>  <SCORE.INTRA.DIHEDRAL>
-1.38416

>  <SCORE.INTRA.DIHEDRAL.0>
17.3446

>  <SCORE.INTRA.POLAR>
0

>  <SCORE.INTRA.POLAR.0>
0

>  <SCORE.INTRA.REPUL>
0

>  <SCORE.INTRA.REPUL.0>
0

>  <SCORE.INTRA.SOLV>
3.20557

>  <SCORE.INTRA.SOLV.lig_0>
-112.452

>  <SCORE.INTRA.VDW>
2.43798

>  <SCORE.INTRA.VDW.0>
-5.95059

>  <SCORE.INTRA.norm>
0.0797307

>  <SCORE.RESTR>
0.0289471

>  <SCORE.RESTR.CAVITY>
0.0289471

>  <SCORE.RESTR.norm>
0.000689216

>  <SCORE.SYSTEM>
0

>  <SCORE.SYSTEM.CONST>
0

>  <SCORE.SYSTEM.DIHEDRAL>
0

>  <SCORE.SYSTEM.SOLV>
0

>  <SCORE.SYSTEM.norm>
0

>  <SCORE.heavy>
42

>  <SCORE.norm>
-0.0201021

>  <RMSD>
6.277

$$$$
2fcy_lig
 OpenBabel11021811433D
libRbt.so/2013.1/901 2013/11/27
 42 45  0  0  0  0  0  0  0  0999 V2000
    2.0651   96.7034   13.0608 C   0  0  2  0  0  0  0  0  0  0  0  0
    2.4171   95.3180   12.9067 O   0  0  0  0  0  0  0  0  0  0  0  0
    0.6512   96.8302   12.4916 C   0  0  2  0  0  0  0  0  0  0  0  0
   -0.2187   95.8602   13.1706 N   0  0  0  0  0  0  0  0  0  0  0  0
    0.6744   96.5294   10.9908 C   0  0  1  0  0  0  0  0  0  0  0  0
   -0.6381   96.6460   10.4344 O   0  0  0  0  0  0  0  0  0  0  0  0
    1.6382   97.4916   10.2959 C   0  0  2  0  0  0  0  0  0  0  0  0
    1.7316   97.1472    8.9137 O   0  0  0  0  0  0  0  0  0  0  0  0
    3.0259   97.3350   10.9197 C   0  0  2  0  0  0  0  0  0  0  0  0
    2.9477   97.5814   12.3323 O   0  0  0  0  0  0  0  0  0  0  0  0
    3.9981   98.3014   10.2382 C   0  0  0  0  0  0  0  0  0  0  0  0
    5.3734   98.0859   10.7125 N   0  0  0  0  0  0  0  0  0  0  0  0
    2.6789   92.2009   15.7105 C   0  0  2  0  0  0  0  0  0  0  0  0
    2.5235   91.2109   16.7870 N   0  0  0  0  0  0  0  0  0  0  0  0
    2.6549   93.6237   16.2726 C   0  0  0  0  0  0  0  0  0  0  0  0
    2.9528   94.5985   15.1289 C   0  0  2  0  0  0  0  0  0  0  0  0
    2.8487   95.9776   15.6271 N   0  0  0  0  0  0  0  0  0  0  0  0
    1.9721   94.4479   13.9623 C   0  0  2  0  0  0  0  0  0  0  0  0
    1.7552   93.0131   13.4944 C   0  0  2  0  0  0  0  0  0  0  0  0
    0.5570   93.0432   12.7022 O   0  0  0  0  0  0  0  0  0  0  0  0
    1.5624   92.0512   14.6743 C   0  0  1  0  0  0  0  0  0  0  0  0
    1.5582   90.6925   14.2282 O   0  0  0  0  0  0  0  0  0  0  0  0
    0.4322   92.0010   11.7211 C   0  0  1  0  0  0  0  0  0  0  0  0
   -1.0133   92.0083   11.2210 C   0  0  2  0  0  0  0  0  0  0  0  0
   -1.8363   91.2589   12.1181 O   0  0  0  0  0  0  0  0  0  0  0  0
   -0.8182   91.2202    9.9291 C   0  0  1  0  0  0  0  0  0  0  0  0
    0.4295   91.8951    9.3816 C   0  0  2  0  0  0  0  0  0  0  0  0
    1.2247   92.2291   10.5378 O   0  0  0  0  0  0  0  0  0  0  0  0
    0.0185   93.1430    8.5917 C   0  0  0  0  0  0  0  0  0  0  0  0
    1.1740   93.8427    8.1208 O   0  0  0  0  0  0  0  0  0  0  0  0
   -0.7020   89.0491    9.0507 C   0  0  2  0  0  0  0  0  0  0  0  0
   -0.5400   89.8445   10.2350 O   0  0  0  0  0  0  0  0  0  0  0  0
   -0.2270   87.6187    9.3251 C   0  0  1  0  0  0  0  0  0  0  0  0
    0.1452   89.1655    4.3068 N   0  0  0  0  0  0  0  0  0  0  0  0
   -0.2957   86.7779    8.0458 C   0  0  1  0  0  0  0  0  0  0  0  0
   -1.6584   86.5682    7.6621 O   0  0  0  0  0  0  0  0  0  0  0  0
    0.4587   87.4872    6.9179 C   0  0  2  0  0  0  0  0  0  0  0  0
    1.8478   87.5388    7.2606 O   0  0  0  0  0  0  0  0  0  0  0  0
   -0.0929   88.9064    6.7448 C   0  0  1  0  0  0  0  0  0  0  0  0
    0.0481   89.6405    7.9753 O   0  0  0  0  0  0  0  0  0  0  0  0
    0.6169   89.6523    5.6115 C   0  0  0  0  0  0  0  0  0  0  0  0
    1.1721   87.6646    9.7762 N   0  0  0  0  0  0  0  0  0  0  0  0
  1  2  1  6  0  0  0
  1  3  1  0  0  0  0
  1 10  1  0  0  0  0
  3  4  1  1  0  0  0
  3  5  1  0  0  0  0
  5  6  1  6  0  0  0
  5  7  1  0  0  0  0
  7  8  1  6  0  0  0
  7  9  1  0  0  0  0
  9 10  1  0  0  0  0
  9 11  1  6  0  0  0
 11 12  1  0  0  0  0
 13 14  1  1  0  0  0
 13 15  1  0  0  0  0
 13 21  1  0  0  0  0
 16 15  1  0  0  0  0
 16 17  1  1  0  0  0
 18  2  1  6  0  0  0
 18 16  1  0  0  0  0
 19 18  1  0  0  0  0
 19 20  1  6  0  0  0
 21 19  1  0  0  0  0
 21 22  1  6  0  0  0
 23 20  1  1  0  0  0
 23 24  1  0  0  0  0
 23 28  1  0  0  0  0
 24 25  1  1  0  0  0
 24 26  1  0  0  0  0
 26 27  1  0  0  0  0
 26 32  1  1  0  0  0
 27 28  1  0  0  0  0
 27 29  1  1  0  0  0
 29 30  1  0  0  0  0
 31 32  1  1  0  0  0
 31 40  1  0  0  0  0
 33 31  1  0  0  0  0
 33 42  1  6  0  0  0
 35 33  1  0  0  0  0
 35 36  1  6  0  0  0
 37 35  1  0  0  0  0
 37 38  1  1  0  0  0
 37 39  1  0  0  0  0
 39 40  1  0  0  0  0
 39 41  1  6  0  0  0
 41 34  1  0  0  0  0
M  END
>  <CHROM.1>
-84.93670588,-174.17196913,-80.05667699,155.23871436,167.17811459,165.08427925
176.95636111,172.48396511,75.49095770,1.06247144,92.66458645,10.91106282
-0.09586366,-1.31347564,-1.07108212

>  <Name>
2fcy_lig

>  <RI>
2.89127e+07

>  <Rbt.Current_Directory>
/home/itssahil/PROJECTS/Mol_Feturizer/New_Systems/rnas/2fcy

>  <Rbt.Executable>
rbdock ($Id: //depot/dev/client3/rdock/2013.1/src/exe/rbdock.cxx#4 $)

>  <Rbt.Library>
libRbt.so (2013.1, Build901 2013/11/27)

>  <Rbt.Parameter_File>
/export/apps/rDock/src/rDock_2013.1_src/data/scripts/dock_solv.prm

>  <Rbt.Receptor>
prm/pocket_docking_7.prm

>  <SCORE>
-23.6209

>  <SCORE.INTER>
-22.5498

>  <SCORE.INTER.CONST>
1

>  <SCORE.INTER.POLAR>
-4.39918

>  <SCORE.INTER.ROT>
9

>  <SCORE.INTER.SOLV>
16.8266

>  <SCORE.INTER.VDW>
-15.5782

>  <SCORE.INTER.norm>
-0.536901

>  <SCORE.INTRA>
-1.07105

>  <SCORE.INTRA.DIHEDRAL>
-6.72887

>  <SCORE.INTRA.DIHEDRAL.0>
17.3446

>  <SCORE.INTRA.POLAR>
0

>  <SCORE.INTRA.POLAR.0>
0

>  <SCORE.INTRA.REPUL>
0.00231957

>  <SCORE.INTRA.REPUL.0>
0

>  <SCORE.INTRA.SOLV>
-0.955395

>  <SCORE.INTRA.SOLV.lig_0>
-112.452

>  <SCORE.INTRA.VDW>
2.75948

>  <SCORE.INTRA.VDW.0>
-5.95059

>  <SCORE.INTRA.norm>
-0.0255013

>  <SCORE.RESTR>
0

>  <SCORE.RESTR.CAVITY>
0

>  <SCORE.RESTR.norm>
0

>  <SCORE.SYSTEM>
0

>  <SCORE.SYSTEM.CONST>
0

>  <SCORE.SYSTEM.DIHEDRAL>
0

>  <SCORE.SYSTEM.SOLV>
0

>  <SCORE.SYSTEM.norm>
0

>  <SCORE.heavy>
42

>  <SCORE.norm>
-0.562402

>  <RMSD>
6.304

$$$$
2fcy_lig
 OpenBabel11021811433D
libRbt.so/2013.1/901 2013/11/27
 42 45  0  0  0  0  0  0  0  0999 V2000
    3.1758   96.2859   15.5023 C   0  0  2  0  0  0  0  0  0  0  0  0
    3.4201   94.9165   15.1388 O   0  0  0  0  0  0  0  0  0  0  0  0
    2.3296   96.8639   14.3669 C   0  0  2  0  0  0  0  0  0  0  0  0
    1.1415   96.0184   14.1873 N   0  0  0  0  0  0  0  0  0  0  0  0
    3.1472   96.8741   13.0728 C   0  0  1  0  0  0  0  0  0  0  0  0
    2.3770   97.4152   11.9958 O   0  0  0  0  0  0  0  0  0  0  0  0
    4.4211   97.6927   13.2846 C   0  0  2  0  0  0  0  0  0  0  0  0
    5.2274   97.6206   12.1088 O   0  0  0  0  0  0  0  0  0  0  0  0
    5.2126   97.0817   14.4419 C   0  0  2  0  0  0  0  0  0  0  0  0
    4.3928   97.0510   15.6207 O   0  0  0  0  0  0  0  0  0  0  0  0
    6.4865   97.8995   14.6701 C   0  0  0  0  0  0  0  0  0  0  0  0
    7.3585   97.2500   15.6602 N   0  0  0  0  0  0  0  0  0  0  0  0
    2.3059   91.2803   16.9230 C   0  0  2  0  0  0  0  0  0  0  0  0
    1.6671   90.1360   17.5903 N   0  0  0  0  0  0  0  0  0  0  0  0
    2.2829   92.5171   17.8234 C   0  0  0  0  0  0  0  0  0  0  0  0
    3.0752   93.6311   17.1318 C   0  0  2  0  0  0  0  0  0  0  0  0
    2.9934   94.8574   17.9382 N   0  0  0  0  0  0  0  0  0  0  0  0
    2.5341   93.9529   15.7357 C   0  0  2  0  0  0  0  0  0  0  0  0
    2.2992   92.7358   14.8480 C   0  0  2  0  0  0  0  0  0  0  0  0
    1.4532   93.1945   13.7813 O   0  0  0  0  0  0  0  0  0  0  0  0
    1.5944   91.6036   15.6069 C   0  0  1  0  0  0  0  0  0  0  0  0
    1.5605   90.4086   14.8222 O   0  0  0  0  0  0  0  0  0  0  0  0
    1.3922   92.3444   12.6246 C   0  0  1  0  0  0  0  0  0  0  0  0
   -0.0833   92.1499   12.2717 C   0  0  2  0  0  0  0  0  0  0  0  0
   -0.6342   91.0995   13.0698 O   0  0  0  0  0  0  0  0  0  0  0  0
    0.0815   91.6653   10.8342 C   0  0  1  0  0  0  0  0  0  0  0  0
    1.1053   92.6665   10.3228 C   0  0  2  0  0  0  0  0  0  0  0  0
    1.9703   92.9389   11.4445 O   0  0  0  0  0  0  0  0  0  0  0  0
    0.3770   93.9278    9.8442 C   0  0  0  0  0  0  0  0  0  0  0  0
    1.2863   94.8128    9.1835 O   0  0  0  0  0  0  0  0  0  0  0  0
    0.6022   89.8138    9.4928 C   0  0  2  0  0  0  0  0  0  0  0  0
    0.6406   90.3421   10.8273 O   0  0  0  0  0  0  0  0  0  0  0  0
   -0.8548   89.6340    9.0546 C   0  0  1  0  0  0  0  0  0  0  0  0
    2.2854   86.1658    6.7799 N   0  0  0  0  0  0  0  0  0  0  0  0
   -0.9199   88.9761    7.6721 C   0  0  1  0  0  0  0  0  0  0  0  0
   -0.4189   89.8700    6.6729 O   0  0  0  0  0  0  0  0  0  0  0  0
   -0.0978   87.6844    7.6732 C   0  0  2  0  0  0  0  0  0  0  0  0
   -0.7174   86.7506    8.5641 O   0  0  0  0  0  0  0  0  0  0  0  0
    1.3309   87.9857    8.1382 C   0  0  1  0  0  0  0  0  0  0  0  0
    1.3060   88.5599    9.4582 O   0  0  0  0  0  0  0  0  0  0  0  0
    2.2012   86.7259    8.1368 C   0  0  0  0  0  0  0  0  0  0  0  0
   -1.5326   88.7551   10.0196 N   0  0  0  0  0  0  0  0  0  0  0  0
  1  2  1  6  0  0  0
  1  3  1  0  0  0  0
  1 10  1  0  0  0  0
  3  4  1  6  0  0  0
  3  5  1  0  0  0  0
  5  6  1  6  0  0  0
  5  7  1  0  0  0  0
  7  8  1  6  0  0  0
  7  9  1  0  0  0  0
  9 10  1  0  0  0  0
  9 11  1  1  0  0  0
 11 12  1  0  0  0  0
 13 14  1  1  0  0  0
 13 15  1  0  0  0  0
 13 21  1  0  0  0  0
 16 15  1  0  0  0  0
 16 17  1  1  0  0  0
 18  2  1  6  0  0  0
 18 16  1  0  0  0  0
 19 18  1  0  0  0  0
 19 20  1  6  0  0  0
 21 19  1  0  0  0  0
 21 22  1  6  0  0  0
 23 20  1  1  0  0  0
 23 24  1  0  0  0  0
 23 28  1  0  0  0  0
 24 25  1  1  0  0  0
 24 26  1  0  0  0  0
 26 27  1  0  0  0  0
 26 32  1  1  0  0  0
 27 28  1  0  0  0  0
 27 29  1  1  0  0  0
 29 30  1  0  0  0  0
 31 32  1  1  0  0  0
 31 40  1  0  0  0  0
 33 31  1  0  0  0  0
 33 42  1  1  0  0  0
 35 33  1  0  0  0  0
 35 36  1  6  0  0  0
 37 35  1  0  0  0  0
 37 38  1  1  0  0  0
 37 39  1  0  0  0  0
 39 40  1  0  0  0  0
 39 41  1  1  0  0  0
 41 34  1  0  0  0  0
M  END
>  <CHROM.1>
-97.01185826,-172.89119127,-83.37693975,163.27466153,131.37817098,171.21540921
-171.80286561,-65.25344610,60.53311119,1.89579051,92.62392577,12.44907545
-0.46083161,-1.17453247,-1.34630187

>  <Name>
2fcy_lig

>  <RI>
2.89127e+07

>  <Rbt.Current_Directory>
/home/itssahil/PROJECTS/Mol_Feturizer/New_Systems/rnas/2fcy

>  <Rbt.Executable>
rbdock ($Id: //depot/dev/client3/rdock/2013.1/src/exe/rbdock.cxx#4 $)

>  <Rbt.Library>
libRbt.so (2013.1, Build901 2013/11/27)

>  <Rbt.Parameter_File>
/export/apps/rDock/src/rDock_2013.1_src/data/scripts/dock_solv.prm

>  <Rbt.Receptor>
prm/pocket_docking_7.prm

>  <SCORE>
-19.2288

>  <SCORE.INTER>
-20.7669

>  <SCORE.INTER.CONST>
1

>  <SCORE.INTER.POLAR>
-3.23738

>  <SCORE.INTER.ROT>
9

>  <SCORE.INTER.SOLV>
16.909

>  <SCORE.INTER.VDW>
-18.2896

>  <SCORE.INTER.norm>
-0.494449

>  <SCORE.INTRA>
1.53808

>  <SCORE.INTRA.DIHEDRAL>
-0.921521

>  <SCORE.INTRA.DIHEDRAL.0>
17.3446

>  <SCORE.INTRA.POLAR>
0

>  <SCORE.INTRA.POLAR.0>
0

>  <SCORE.INTRA.REPUL>
0.0403721

>  <SCORE.INTRA.REPUL.0>
0

>  <SCORE.INTRA.SOLV>
-1.03277

>  <SCORE.INTRA.SOLV.lig_0>
-112.452

>  <SCORE.INTRA.VDW>
2.31337

>  <SCORE.INTRA.VDW.0>
-5.95059

>  <SCORE.INTRA.norm>
0.0366211

>  <SCORE.RESTR>
0

>  <SCORE.RESTR.CAVITY>
0

>  <SCORE.RESTR.norm>
0

>  <SCORE.SYSTEM>
0

>  <SCORE.SYSTEM.CONST>
0

>  <SCORE.SYSTEM.DIHEDRAL>
0

>  <SCORE.SYSTEM.SOLV>
0

>  <SCORE.SYSTEM.norm>
0

>  <SCORE.heavy>
42

>  <SCORE.norm>
-0.457828

>  <RMSD>
6.322

$$$$
2fcy_lig
 OpenBabel11021811433D
libRbt.so/2013.1/901 2013/11/27
 42 45  0  0  0  0  0  0  0  0999 V2000
   -0.7383   96.2428   10.0604 C   0  0  2  0  0  0  0  0  0  0  0  0
    0.3899   95.3827   10.2944 O   0  0  0  0  0  0  0  0  0  0  0  0
   -0.1571   97.6519    9.9350 C   0  0  2  0  0  0  0  0  0  0  0  0
    0.8791   97.6431    8.8935 N   0  0  0  0  0  0  0  0  0  0  0  0
    0.4661   98.0695   11.2693 C   0  0  1  0  0  0  0  0  0  0  0  0
    1.0134   99.3878   11.1779 O   0  0  0  0  0  0  0  0  0  0  0  0
   -0.5963   98.0055   12.3671 C   0  0  2  0  0  0  0  0  0  0  0  0
    0.0092   98.3014   13.6254 O   0  0  0  0  0  0  0  0  0  0  0  0
   -1.1539   96.5828   12.4306 C   0  0  2  0  0  0  0  0  0  0  0  0
   -1.6860   96.2180   11.1476 O   0  0  0  0  0  0  0  0  0  0  0  0
   -2.2266   96.5088   13.5204 C   0  0  0  0  0  0  0  0  0  0  0  0
   -2.8429   95.1743   13.5624 N   0  0  0  0  0  0  0  0  0  0  0  0
    0.4678   91.1836   10.2062 C   0  0  2  0  0  0  0  0  0  0  0  0
    0.3564   89.7330   10.4217 N   0  0  0  0  0  0  0  0  0  0  0  0
    1.1823   91.8545   11.3811 C   0  0  0  0  0  0  0  0  0  0  0  0
    1.3853   93.3342   11.0399 C   0  0  2  0  0  0  0  0  0  0  0  0
    1.9920   94.0189   12.1906 N   0  0  0  0  0  0  0  0  0  0  0  0
    0.0683   94.0449   10.7144 C   0  0  2  0  0  0  0  0  0  0  0  0
   -0.8221   93.3101    9.7185 C   0  0  2  0  0  0  0  0  0  0  0  0
   -2.1214   93.9093    9.8484 O   0  0  0  0  0  0  0  0  0  0  0  0
   -0.9175   91.8118   10.0357 C   0  0  1  0  0  0  0  0  0  0  0  0
   -1.5901   91.1109    8.9861 O   0  0  0  0  0  0  0  0  0  0  0  0
   -3.0909   93.5149    8.8641 C   0  0  1  0  0  0  0  0  0  0  0  0
   -4.4172   94.1843    9.2281 C   0  0  2  0  0  0  0  0  0  0  0  0
   -5.0984   93.3996   10.2098 O   0  0  0  0  0  0  0  0  0  0  0  0
   -5.1258   94.0466    7.8837 C   0  0  1  0  0  0  0  0  0  0  0  0
   -4.0145   94.4824    6.9418 C   0  0  2  0  0  0  0  0  0  0  0  0
   -2.7932   94.0003    7.5390 O   0  0  0  0  0  0  0  0  0  0  0  0
   -4.0279   96.0109    6.8243 C   0  0  0  0  0  0  0  0  0  0  0  0
   -5.2222   96.4543    6.1735 O   0  0  0  0  0  0  0  0  0  0  0  0
   -6.2427   92.5659    6.4490 C   0  0  2  0  0  0  0  0  0  0  0  0
   -5.4596   92.6695    7.6479 O   0  0  0  0  0  0  0  0  0  0  0  0
   -7.0479   91.2627    6.4739 C   0  0  1  0  0  0  0  0  0  0  0  0
   -4.4985   94.0423    2.9462 N   0  0  0  0  0  0  0  0  0  0  0  0
   -7.8132   91.0820    5.1586 C   0  0  1  0  0  0  0  0  0  0  0  0
   -8.8466   92.0658    5.0464 O   0  0  0  0  0  0  0  0  0  0  0  0
   -6.8483   91.2043    3.9761 C   0  0  2  0  0  0  0  0  0  0  0  0
   -5.9240   90.1122    4.0271 O   0  0  0  0  0  0  0  0  0  0  0  0
   -6.0943   92.5355    4.0646 C   0  0  1  0  0  0  0  0  0  0  0  0
   -5.3697   92.6068    5.3066 O   0  0  0  0  0  0  0  0  0  0  0  0
   -5.1290   92.7152    2.8897 C   0  0  0  0  0  0  0  0  0  0  0  0
   -6.1161   90.1353    6.6278 N   0  0  0  0  0  0  0  0  0  0  0  0
  1  2  1  1  0  0  0
  1  3  1  0  0  0  0
  1 10  1  0  0  0  0
  3  4  1  6  0  0  0
  3  5  1  0  0  0  0
  5  6  1  6  0  0  0
  5  7  1  0  0  0  0
  7  8  1  1  0  0  0
  7  9  1  0  0  0  0
  9 10  1  0  0  0  0
  9 11  1  1  0  0  0
 11 12  1  0  0  0  0
 13 14  1  1  0  0  0
 13 15  1  0  0  0  0
 13 21  1  0  0  0  0
 16 15  1  0  0  0  0
 16 17  1  1  0  0  0
 18  2  1  6  0  0  0
 18 16  1  0  0  0  0
 19 18  1  0  0  0  0
 19 20  1  1  0  0  0
 21 19  1  0  0  0  0
 21 22  1  6  0  0  0
 23 20  1  1  0  0  0
 23 24  1  0  0  0  0
 23 28  1  0  0  0  0
 24 25  1  1  0  0  0
 24 26  1  0  0  0  0
 26 27  1  0  0  0  0
 26 32  1  6  0  0  0
 27 28  1  0  0  0  0
 27 29  1  1  0  0  0
 29 30  1  0  0  0  0
 31 32  1  1  0  0  0
 31 40  1  0  0  0  0
 33 31  1  0  0  0  0
 33 42  1  6  0  0  0
 35 33  1  0  0  0  0
 35 36  1  6  0  0  0
 37 35  1  0  0  0  0
 37 38  1  1  0  0  0
 37 39  1  0  0  0  0
 39 40  1  0  0  0  0
 39 41  1  6  0  0  0
 41 34  1  0  0  0  0
M  END
>  <CHROM.1>
167.89554373,176.78090951,-174.64683873,171.09416613,176.37222248,174.23570424
-66.40557254,-157.92915654,175.66039000,-2.78007407,94.02702895,8.73064520
0.51095448,-0.75432900,0.13141523

>  <Name>
2fcy_lig

>  <RI>
0

>  <Rbt.Current_Directory>
/home/itssahil/PROJECTS/Mol_Feturizer/New_Systems/rnas/2fcy

>  <Rbt.Executable>
rbdock ($Id: //depot/dev/client3/rdock/2013.1/src/exe/rbdock.cxx#4 $)

>  <Rbt.Library>
libRbt.so (2013.1, Build901 2013/11/27)

>  <Rbt.Parameter_File>
/export/apps/rDock/src/rDock_2013.1_src/data/scripts/dock_solv.prm

>  <Rbt.Receptor>
prm/pocket_docking_5.prm

>  <SCORE>
-9.88

>  <SCORE.INTER>
-3.51551

>  <SCORE.INTER.CONST>
1

>  <SCORE.INTER.POLAR>
-1.59877

>  <SCORE.INTER.ROT>
9

>  <SCORE.INTER.SOLV>
16.3528

>  <SCORE.INTER.VDW>
-12.0654

>  <SCORE.INTER.norm>
-0.0837026

>  <SCORE.INTRA>
-6.50864

>  <SCORE.INTRA.DIHEDRAL>
-12.8473

>  <SCORE.INTRA.DIHEDRAL.0>
17.3446

>  <SCORE.INTRA.POLAR>
0

>  <SCORE.INTRA.POLAR.0>
0

>  <SCORE.INTRA.REPUL>
0

>  <SCORE.INTRA.REPUL.0>
0

>  <SCORE.INTRA.SOLV>
-4.61752

>  <SCORE.INTRA.SOLV.lig_0>
-112.452

>  <SCORE.INTRA.VDW>
2.22375

>  <SCORE.INTRA.VDW.0>
-5.95059

>  <SCORE.INTRA.norm>
-0.154968

>  <SCORE.RESTR>
0.144146

>  <SCORE.RESTR.CAVITY>
0.144146

>  <SCORE.RESTR.norm>
0.00343206

>  <SCORE.SYSTEM>
0

>  <SCORE.SYSTEM.CONST>
0

>  <SCORE.SYSTEM.DIHEDRAL>
0

>  <SCORE.SYSTEM.SOLV>
0

>  <SCORE.SYSTEM.norm>
0

>  <SCORE.heavy>
42

>  <SCORE.norm>
-0.235238

>  <RMSD>
6.332

$$$$
2fcy_lig
 OpenBabel11021811433D
libRbt.so/2013.1/901 2013/11/27
 42 45  0  0  0  0  0  0  0  0999 V2000
    0.9853   91.3322   15.5592 C   0  0  2  0  0  0  0  0  0  0  0  0
   -0.3696   90.8533   15.6060 O   0  0  0  0  0  0  0  0  0  0  0  0
    1.8607   90.1019   15.8026 C   0  0  2  0  0  0  0  0  0  0  0  0
    1.5036   89.0680   14.8216 N   0  0  0  0  0  0  0  0  0  0  0  0
    1.6136   89.5690   17.2162 C   0  0  1  0  0  0  0  0  0  0  0  0
    2.4256   88.4190   17.4690 O   0  0  0  0  0  0  0  0  0  0  0  0
    1.9137   90.6708   18.2329 C   0  0  2  0  0  0  0  0  0  0  0  0
    1.5905   90.2032   19.5423 O   0  0  0  0  0  0  0  0  0  0  0  0
    1.0266   91.8785   17.9269 C   0  0  2  0  0  0  0  0  0  0  0  0
    1.2587   92.3153   16.5786 O   0  0  0  0  0  0  0  0  0  0  0  0
    1.3256   92.9928   18.9332 C   0  0  0  0  0  0  0  0  0  0  0  0
    0.8430   92.6336   20.2750 N   0  0  0  0  0  0  0  0  0  0  0  0
   -3.7775   91.0867   13.1609 C   0  0  2  0  0  0  0  0  0  0  0  0
   -4.8769   91.4293   12.2460 N   0  0  0  0  0  0  0  0  0  0  0  0
   -3.6915   92.0943   14.3090 C   0  0  0  0  0  0  0  0  0  0  0  0
   -2.6211   91.6125   15.2935 C   0  0  2  0  0  0  0  0  0  0  0  0
   -2.4591   92.6102   16.3609 N   0  0  0  0  0  0  0  0  0  0  0  0
   -1.2571   91.4181   14.6247 C   0  0  2  0  0  0  0  0  0  0  0  0
   -1.2925   90.6167   13.3282 C   0  0  2  0  0  0  0  0  0  0  0  0
   -0.0376   90.8782   12.6793 O   0  0  0  0  0  0  0  0  0  0  0  0
   -2.4418   91.0612   12.4138 C   0  0  1  0  0  0  0  0  0  0  0  0
   -2.5794   90.1739   11.3008 O   0  0  0  0  0  0  0  0  0  0  0  0
    0.1085   92.1894   12.1102 C   0  0  1  0  0  0  0  0  0  0  0  0
    1.5478   92.3174   11.6088 C   0  0  2  0  0  0  0  0  0  0  0  0
    2.4023   92.6946   12.6911 O   0  0  0  0  0  0  0  0  0  0  0  0
    1.3633   93.5040   10.6673 C   0  0  1  0  0  0  0  0  0  0  0  0
    0.0901   93.0878    9.9476 C   0  0  2  0  0  0  0  0  0  0  0  0
   -0.7028   92.3989   10.9362 O   0  0  0  0  0  0  0  0  0  0  0  0
    0.4551   92.1749    8.7713 C   0  0  0  0  0  0  0  0  0  0  0  0
   -0.7046   91.8754    7.9891 O   0  0  0  0  0  0  0  0  0  0  0  0
    1.8110   95.8012   10.8112 C   0  0  2  0  0  0  0  0  0  0  0  0
    1.1300   94.6989   11.4297 O   0  0  0  0  0  0  0  0  0  0  0  0
    3.2982   95.7547   11.1763 C   0  0  1  0  0  0  0  0  0  0  0  0
    1.0057   99.5651   12.5083 N   0  0  0  0  0  0  0  0  0  0  0  0
    4.0261   96.9789   10.6106 C   0  0  1  0  0  0  0  0  0  0  0  0
    4.0705   96.9134    9.1816 O   0  0  0  0  0  0  0  0  0  0  0  0
    3.3085   98.2580   11.0504 C   0  0  2  0  0  0  0  0  0  0  0  0
    3.4204   98.3774   12.4726 O   0  0  0  0  0  0  0  0  0  0  0  0
    1.8329   98.1845   10.6436 C   0  0  1  0  0  0  0  0  0  0  0  0
    1.2142   97.0343   11.2495 O   0  0  0  0  0  0  0  0  0  0  0  0
    1.0744   99.4528   11.0439 C   0  0  0  0  0  0  0  0  0  0  0  0
    3.4250   95.7750   12.6415 N   0  0  0  0  0  0  0  0  0  0  0  0
  1  2  1  1  0  0  0
  1  3  1  0  0  0  0
  1 10  1  0  0  0  0
  3  4  1  6  0  0  0
  3  5  1  0  0  0  0
  5  6  1  1  0  0  0
  5  7  1  0  0  0  0
  7  8  1  1  0  0  0
  7  9  1  0  0  0  0
  9 10  1  0  0  0  0
  9 11  1  1  0  0  0
 11 12  1  0  0  0  0
 13 14  1  6  0  0  0
 13 15  1  0  0  0  0
 13 21  1  0  0  0  0
 16 15  1  0  0  0  0
 16 17  1  1  0  0  0
 18  2  1  1  0  0  0
 18 16  1  0  0  0  0
 19 18  1  0  0  0  0
 19 20  1  6  0  0  0
 21 19  1  0  0  0  0
 21 22  1  6  0  0  0
 23 20  1  6  0  0  0
 23 24  1  0  0  0  0
 23 28  1  0  0  0  0
 24 25  1  1  0  0  0
 24 26  1  0  0  0  0
 26 27  1  0  0  0  0
 26 32  1  1  0  0  0
 27 28  1  0  0  0  0
 27 29  1  6  0  0  0
 29 30  1  0  0  0  0
 31 32  1  1  0  0  0
 31 40  1  0  0  0  0
 33 31  1  0  0  0  0
 33 42  1  1  0  0  0
 35 33  1  0  0  0  0
 35 36  1  6  0  0  0
 37 35  1  0  0  0  0
 37 38  1  1  0  0  0
 37 39  1  0  0  0  0
 39 40  1  0  0  0  0
 39 41  1  1  0  0  0
 41 34  1  0  0  0  0
M  END
>  <CHROM.1>
-139.61184795,-69.88259395,-142.34223936,-72.46170396,173.99215265,141.32265630
-174.04163621,-79.11665712,-66.29613206,0.61247421,93.09091166,13.39691114
-1.91063394,-0.83430246,-1.03933742

>  <Name>
2fcy_lig

>  <RI>
0

>  <Rbt.Current_Directory>
/home/itssahil/PROJECTS/Mol_Feturizer/New_Systems/rnas/2fcy

>  <Rbt.Executable>
rbdock ($Id: //depot/dev/client3/rdock/2013.1/src/exe/rbdock.cxx#4 $)

>  <Rbt.Library>
libRbt.so (2013.1, Build901 2013/11/27)

>  <Rbt.Parameter_File>
/export/apps/rDock/src/rDock_2013.1_src/data/scripts/dock_solv.prm

>  <Rbt.Receptor>
prm/pocket_docking_5.prm

>  <SCORE>
-9.39609

>  <SCORE.INTER>
-13.2683

>  <SCORE.INTER.CONST>
1

>  <SCORE.INTER.POLAR>
-1.17816

>  <SCORE.INTER.ROT>
9

>  <SCORE.INTER.SOLV>
22.6253

>  <SCORE.INTER.VDW>
-22.0601

>  <SCORE.INTER.norm>
-0.315913

>  <SCORE.INTRA>
3.8697

>  <SCORE.INTRA.DIHEDRAL>
1.38901

>  <SCORE.INTRA.DIHEDRAL.0>
17.3446

>  <SCORE.INTRA.POLAR>
0

>  <SCORE.INTRA.POLAR.0>
0

>  <SCORE.INTRA.REPUL>
0

>  <SCORE.INTRA.REPUL.0>
0

>  <SCORE.INTRA.SOLV>
0.604747

>  <SCORE.INTRA.SOLV.lig_0>
-112.452

>  <SCORE.INTRA.VDW>
2.87282

>  <SCORE.INTRA.VDW.0>
-5.95059

>  <SCORE.INTRA.norm>
0.0921357

>  <SCORE.RESTR>
0.00253968

>  <SCORE.RESTR.CAVITY>
0.00253968

>  <SCORE.RESTR.norm>
6.04686e-05

>  <SCORE.SYSTEM>
0

>  <SCORE.SYSTEM.CONST>
0

>  <SCORE.SYSTEM.DIHEDRAL>
0

>  <SCORE.SYSTEM.SOLV>
0

>  <SCORE.SYSTEM.norm>
0

>  <SCORE.heavy>
42

>  <SCORE.norm>
-0.223716

>  <RMSD>
6.349

$$$$
2fcy_lig
 OpenBabel11021811433D
libRbt.so/2013.1/901 2013/11/27
 42 45  0  0  0  0  0  0  0  0999 V2000
   -2.2186   95.4698   12.8394 C   0  0  2  0  0  0  0  0  0  0  0  0
   -2.0634   94.2483   12.0971 O   0  0  0  0  0  0  0  0  0  0  0  0
   -3.7247   95.7327   12.8808 C   0  0  2  0  0  0  0  0  0  0  0  0
   -4.3948   94.5479   13.4337 N   0  0  0  0  0  0  0  0  0  0  0  0
   -4.2384   95.9923   11.4624 C   0  0  1  0  0  0  0  0  0  0  0  0
   -5.6461   96.2454   11.4760 O   0  0  0  0  0  0  0  0  0  0  0  0
   -3.4864   97.1796   10.8603 C   0  0  2  0  0  0  0  0  0  0  0  0
   -3.8980   97.3588    9.5052 O   0  0  0  0  0  0  0  0  0  0  0  0
   -1.9891   96.8680   10.8650 C   0  0  2  0  0  0  0  0  0  0  0  0
   -1.5615   96.5872   12.2069 O   0  0  0  0  0  0  0  0  0  0  0  0
   -1.2242   98.0548   10.2731 C   0  0  0  0  0  0  0  0  0  0  0  0
   -1.4148   99.2634   11.0890 N   0  0  0  0  0  0  0  0  0  0  0  0
    1.9537   93.8349   13.2541 C   0  0  2  0  0  0  0  0  0  0  0  0
    3.3544   93.4581   13.4968 N   0  0  0  0  0  0  0  0  0  0  0  0
    1.0082   92.7010   13.6554 C   0  0  0  0  0  0  0  0  0  0  0  0
   -0.4327   93.1995   13.5057 C   0  0  2  0  0  0  0  0  0  0  0  0
   -1.3606   92.0985   13.8021 N   0  0  0  0  0  0  0  0  0  0  0  0
   -0.7348   93.6966   12.0890 C   0  0  2  0  0  0  0  0  0  0  0  0
    0.3013   94.6578   11.5173 C   0  0  2  0  0  0  0  0  0  0  0  0
    0.0579   94.6894   10.1017 O   0  0  0  0  0  0  0  0  0  0  0  0
    1.7339   94.1735   11.7776 C   0  0  1  0  0  0  0  0  0  0  0  0
    2.6850   95.1769   11.4121 O   0  0  0  0  0  0  0  0  0  0  0  0
    0.3963   93.4915    9.3842 C   0  0  1  0  0  0  0  0  0  0  0  0
   -0.8962   92.9268    8.7925 C   0  0  2  0  0  0  0  0  0  0  0  0
   -1.5735   92.1426    9.7773 O   0  0  0  0  0  0  0  0  0  0  0  0
   -0.2886   92.0068    7.7376 C   0  0  1  0  0  0  0  0  0  0  0  0
    0.7613   92.9302    7.1400 C   0  0  2  0  0  0  0  0  0  0  0  0
    1.2437   93.7274    8.2411 O   0  0  0  0  0  0  0  0  0  0  0  0
    0.1096   93.7930    6.0532 C   0  0  0  0  0  0  0  0  0  0  0  0
   -0.7972   94.7339    6.6352 O   0  0  0  0  0  0  0  0  0  0  0  0
   -0.6241   89.8529    8.6017 C   0  0  2  0  0  0  0  0  0  0  0  0
    0.3460   90.8869    8.3752 O   0  0  0  0  0  0  0  0  0  0  0  0
   -0.4330   89.2696   10.0054 C   0  0  1  0  0  0  0  0  0  0  0  0
    0.0555   86.2665    6.4994 N   0  0  0  0  0  0  0  0  0  0  0  0
   -1.3914   88.0953   10.2313 C   0  0  1  0  0  0  0  0  0  0  0  0
   -2.7434   88.5616   10.2865 O   0  0  0  0  0  0  0  0  0  0  0  0
   -1.2389   87.0762    9.0988 C   0  0  2  0  0  0  0  0  0  0  0  0
    0.0740   86.5096    9.1693 O   0  0  0  0  0  0  0  0  0  0  0  0
   -1.4382   87.7746    7.7495 C   0  0  1  0  0  0  0  0  0  0  0  0
   -0.4741   88.8332    7.5984 O   0  0  0  0  0  0  0  0  0  0  0  0
   -1.3156   86.7909    6.5826 C   0  0  0  0  0  0  0  0  0  0  0  0
    0.9461   88.7733   10.1263 N   0  0  0  0  0  0  0  0  0  0  0  0
  1  2  1  6  0  0  0
  1  3  1  0  0  0  0
  1 10  1  0  0  0  0
  3  4  1  6  0  0  0
  3  5  1  0  0  0  0
  5  6  1  1  0  0  0
  5  7  1  0  0  0  0
  7  8  1  6  0  0  0
  7  9  1  0  0  0  0
  9 10  1  0  0  0  0
  9 11  1  1  0  0  0
 11 12  1  0  0  0  0
 13 14  1  6  0  0  0
 13 15  1  0  0  0  0
 13 21  1  0  0  0  0
 16 15  1  0  0  0  0
 16 17  1  6  0  0  0
 18  2  1  1  0  0  0
 18 16  1  0  0  0  0
 19 18  1  0  0  0  0
 19 20  1  6  0  0  0
 21 19  1  0  0  0  0
 21 22  1  1  0  0  0
 23 20  1  6  0  0  0
 23 24  1  0  0  0  0
 23 28  1  0  0  0  0
 24 25  1  1  0  0  0
 24 26  1  0  0  0  0
 26 27  1  0  0  0  0
 26 32  1  1  0  0  0
 27 28  1  0  0  0  0
 27 29  1  6  0  0  0
 29 30  1  0  0  0  0
 31 32  1  6  0  0  0
 31 40  1  0  0  0  0
 33 31  1  0  0  0  0
 33 42  1  6  0  0  0
 35 33  1  0  0  0  0
 35 36  1  6  0  0  0
 37 35  1  0  0  0  0
 37 38  1  6  0  0  0
 37 39  1  0  0  0  0
 39 40  1  0  0  0  0
 39 41  1  6  0  0  0
 41 34  1  0  0  0  0
M  END
>  <CHROM.1>
-171.52040944,62.23255567,68.93399329,-70.15594221,116.64882318,86.32706548
69.29067001,-136.75027291,-65.50449194,-0.87851779,92.85820352,10.24806382
-1.87466608,0.95792638,-2.50880206

>  <Name>
2fcy_lig

>  <RI>
2.89127e+07

>  <Rbt.Current_Directory>
/home/itssahil/PROJECTS/Mol_Feturizer/New_Systems/rnas/2fcy

>  <Rbt.Executable>
rbdock ($Id: //depot/dev/client3/rdock/2013.1/src/exe/rbdock.cxx#4 $)

>  <Rbt.Library>
libRbt.so (2013.1, Build901 2013/11/27)

>  <Rbt.Parameter_File>
/export/apps/rDock/src/rDock_2013.1_src/data/scripts/dock_solv.prm

>  <Rbt.Receptor>
prm/pocket_docking_7.prm

>  <SCORE>
-7.73364

>  <SCORE.INTER>
-10.9187

>  <SCORE.INTER.CONST>
1

>  <SCORE.INTER.POLAR>
-2.27825

>  <SCORE.INTER.ROT>
9

>  <SCORE.INTER.SOLV>
16.2806

>  <SCORE.INTER.VDW>
-14.7118

>  <SCORE.INTER.norm>
-0.259969

>  <SCORE.INTRA>
3.18505

>  <SCORE.INTRA.DIHEDRAL>
0.464972

>  <SCORE.INTRA.DIHEDRAL.0>
17.3446

>  <SCORE.INTRA.POLAR>
0

>  <SCORE.INTRA.POLAR.0>
0

>  <SCORE.INTRA.REPUL>
0

>  <SCORE.INTRA.REPUL.0>
0

>  <SCORE.INTRA.SOLV>
-0.227165

>  <SCORE.INTRA.SOLV.lig_0>
-112.452

>  <SCORE.INTRA.VDW>
3.06615

>  <SCORE.INTRA.VDW.0>
-5.95059

>  <SCORE.INTRA.norm>
0.0758346

>  <SCORE.RESTR>
0

>  <SCORE.RESTR.CAVITY>
0

>  <SCORE.RESTR.norm>
0

>  <SCORE.SYSTEM>
0

>  <SCORE.SYSTEM.CONST>
0

>  <SCORE.SYSTEM.DIHEDRAL>
0

>  <SCORE.SYSTEM.SOLV>
0

>  <SCORE.SYSTEM.norm>
0

>  <SCORE.heavy>
42

>  <SCORE.norm>
-0.184134

>  <RMSD>
6.359

$$$$
2fcy_lig
 OpenBabel11021811433D
libRbt.so/2013.1/901 2013/11/27
 42 45  0  0  0  0  0  0  0  0999 V2000
    1.4605   91.9715   17.1348 C   0  0  2  0  0  0  0  0  0  0  0  0
    1.1212   92.6756   18.3415 O   0  0  0  0  0  0  0  0  0  0  0  0
    0.4206   90.8573   17.0072 C   0  0  2  0  0  0  0  0  0  0  0  0
   -0.9201   91.4566   17.0537 N   0  0  0  0  0  0  0  0  0  0  0  0
    0.5787   89.8736   18.1694 C   0  0  1  0  0  0  0  0  0  0  0  0
   -0.3818   88.8186   18.0693 O   0  0  0  0  0  0  0  0  0  0  0  0
    1.9990   89.3073   18.1644 C   0  0  2  0  0  0  0  0  0  0  0  0
    2.1737   88.4655   19.3039 O   0  0  0  0  0  0  0  0  0  0  0  0
    2.9916   90.4658   18.2726 C   0  0  2  0  0  0  0  0  0  0  0  0
    2.7769   91.3846   17.1899 O   0  0  0  0  0  0  0  0  0  0  0  0
    4.4186   89.9114   18.2584 C   0  0  0  0  0  0  0  0  0  0  0  0
    4.6993   89.1495   19.4846 N   0  0  0  0  0  0  0  0  0  0  0  0
    2.3871   96.4921   19.5575 C   0  0  2  0  0  0  0  0  0  0  0  0
    3.0806   97.7021   20.0244 N   0  0  0  0  0  0  0  0  0  0  0  0
    2.4667   95.3809   20.6061 C   0  0  0  0  0  0  0  0  0  0  0  0
    1.6185   94.2003   20.1222 C   0  0  2  0  0  0  0  0  0  0  0  0
    1.7500   93.0865   21.0725 N   0  0  0  0  0  0  0  0  0  0  0  0
    2.0547   93.6933   18.7446 C   0  0  2  0  0  0  0  0  0  0  0  0
    2.2332   94.7824   17.6927 C   0  0  2  0  0  0  0  0  0  0  0  0
    2.9964   94.1769   16.6368 O   0  0  0  0  0  0  0  0  0  0  0  0
    2.9991   95.9910   18.2471 C   0  0  1  0  0  0  0  0  0  0  0  0
    2.9844   97.0748   17.3142 O   0  0  0  0  0  0  0  0  0  0  0  0
    2.9641   94.8604   15.3735 C   0  0  1  0  0  0  0  0  0  0  0  0
    3.9239   94.1332   14.4303 C   0  0  2  0  0  0  0  0  0  0  0  0
    5.2573   94.6011   14.6465 O   0  0  0  0  0  0  0  0  0  0  0  0
    3.4025   94.6746   13.1023 C   0  0  1  0  0  0  0  0  0  0  0  0
    1.9044   94.5215   13.3127 C   0  0  2  0  0  0  0  0  0  0  0  0
    1.6838   94.7860   14.7135 O   0  0  0  0  0  0  0  0  0  0  0  0
    1.4874   93.0972   12.9282 C   0  0  0  0  0  0  0  0  0  0  0  0
    1.7624   92.8490   11.5465 O   0  0  0  0  0  0  0  0  0  0  0  0
    3.4341   96.5132   11.6473 C   0  0  2  0  0  0  0  0  0  0  0  0
    3.7426   96.0645   12.9758 O   0  0  0  0  0  0  0  0  0  0  0  0
    3.9412   97.9467   11.4599 C   0  0  1  0  0  0  0  0  0  0  0  0
   -0.6297   97.2948   10.9768 N   0  0  0  0  0  0  0  0  0  0  0  0
    3.5331   98.4825   10.0834 C   0  0  1  0  0  0  0  0  0  0  0  0
    4.2350   97.7833    9.0506 O   0  0  0  0  0  0  0  0  0  0  0  0
    2.0233   98.3174    9.8895 C   0  0  2  0  0  0  0  0  0  0  0  0
    1.3481   99.1543   10.8346 O   0  0  0  0  0  0  0  0  0  0  0  0
    1.6342   96.8522   10.1130 C   0  0  1  0  0  0  0  0  0  0  0  0
    2.0125   96.4416   11.4401 O   0  0  0  0  0  0  0  0  0  0  0  0
    0.1330   96.6306    9.9096 C   0  0  0  0  0  0  0  0  0  0  0  0
    3.3318   98.8012   12.4903 N   0  0  0  0  0  0  0  0  0  0  0  0
  1  2  1  1  0  0  0
  1  3  1  0  0  0  0
  1 10  1  0  0  0  0
  3  4  1  1  0  0  0
  3  5  1  0  0  0  0
  5  6  1  6  0  0  0
  5  7  1  0  0  0  0
  7  8  1  1  0  0  0
  7  9  1  0  0  0  0
  9 10  1  0  0  0  0
  9 11  1  6  0  0  0
 11 12  1  0  0  0  0
 13 14  1  1  0  0  0
 13 15  1  0  0  0  0
 13 21  1  0  0  0  0
 16 15  1  0  0  0  0
 16 17  1  1  0  0  0
 18  2  1  6  0  0  0
 18 16  1  0  0  0  0
 19 18  1  0  0  0  0
 19 20  1  6  0  0  0
 21 19  1  0  0  0  0
 21 22  1  6  0  0  0
 23 20  1  1  0  0  0
 23 24  1  0  0  0  0
 23 28  1  0  0  0  0
 24 25  1  1  0  0  0
 24 26  1  0  0  0  0
 26 27  1  0  0  0  0
 26 32  1  1  0  0  0
 27 28  1  0  0  0  0
 27 29  1  1  0  0  0
 29 30  1  0  0  0  0
 31 32  1  1  0  0  0
 31 40  1  0  0  0  0
 33 31  1  0  0  0  0
 33 42  1  1  0  0  0
 35 33  1  0  0  0  0
 35 36  1  6  0  0  0
 37 35  1  0  0  0  0
 37 38  1  1  0  0  0
 37 39  1  0  0  0  0
 39 40  1  0  0  0  0
 39 41  1  1  0  0  0
 41 34  1  0  0  0  0
M  END
>  <CHROM.1>
173.79290328,-68.18252192,-173.07941088,162.43374938,175.19400500,171.20440387
-61.64263804,-173.59944626,-68.33546617,2.31325346,94.29367103,15.38682488
1.75542721,1.33745563,2.04517522

>  <Name>
2fcy_lig

>  <RI>
2.89127e+07

>  <Rbt.Current_Directory>
/home/itssahil/PROJECTS/Mol_Feturizer/New_Systems/rnas/2fcy

>  <Rbt.Executable>
rbdock ($Id: //depot/dev/client3/rdock/2013.1/src/exe/rbdock.cxx#4 $)

>  <Rbt.Library>
libRbt.so (2013.1, Build901 2013/11/27)

>  <Rbt.Parameter_File>
/export/apps/rDock/src/rDock_2013.1_src/data/scripts/dock_solv.prm

>  <Rbt.Receptor>
prm/pocket_docking_7.prm

>  <SCORE>
-20.2194

>  <SCORE.INTER>
-14.8257

>  <SCORE.INTER.CONST>
1

>  <SCORE.INTER.POLAR>
-0.595257

>  <SCORE.INTER.ROT>
9

>  <SCORE.INTER.SOLV>
17.6006

>  <SCORE.INTER.VDW>
-23.3665

>  <SCORE.INTER.norm>
-0.352993

>  <SCORE.INTRA>
-5.39375

>  <SCORE.INTRA.DIHEDRAL>
-13.6988

>  <SCORE.INTRA.DIHEDRAL.0>
17.3446

>  <SCORE.INTRA.POLAR>
0

>  <SCORE.INTRA.POLAR.0>
0

>  <SCORE.INTRA.REPUL>
0

>  <SCORE.INTRA.REPUL.0>
0

>  <SCORE.INTRA.SOLV>
-2.55844

>  <SCORE.INTRA.SOLV.lig_0>
-112.452

>  <SCORE.INTRA.VDW>
2.7349

>  <SCORE.INTRA.VDW.0>
-5.95059

>  <SCORE.INTRA.norm>
-0.128423

>  <SCORE.RESTR>
0

>  <SCORE.RESTR.CAVITY>
0

>  <SCORE.RESTR.norm>
0

>  <SCORE.SYSTEM>
0

>  <SCORE.SYSTEM.CONST>
0

>  <SCORE.SYSTEM.DIHEDRAL>
0

>  <SCORE.SYSTEM.SOLV>
0

>  <SCORE.SYSTEM.norm>
0

>  <SCORE.heavy>
42

>  <SCORE.norm>
-0.481415

>  <RMSD>
6.364

$$$$
2fcy_lig
 OpenBabel11021811433D
libRbt.so/2013.1/901 2013/11/27
 42 45  0  0  0  0  0  0  0  0999 V2000
    3.1175   97.4592   11.1255 C   0  0  2  0  0  0  0  0  0  0  0  0
    3.8976   96.8329   12.1582 O   0  0  0  0  0  0  0  0  0  0  0  0
    4.0683   98.4368   10.4330 C   0  0  2  0  0  0  0  0  0  0  0  0
    5.2601   97.7006    9.9897 N   0  0  0  0  0  0  0  0  0  0  0  0
    4.4841   99.5318   11.4185 C   0  0  1  0  0  0  0  0  0  0  0  0
    5.3715  100.4620   10.7915 O   0  0  0  0  0  0  0  0  0  0  0  0
    3.2363  100.2478   11.9366 C   0  0  2  0  0  0  0  0  0  0  0  0
    3.6188  101.2022   12.9268 O   0  0  0  0  0  0  0  0  0  0  0  0
    2.3171   99.2195   12.5975 C   0  0  2  0  0  0  0  0  0  0  0  0
    1.9904   98.1896   11.6515 O   0  0  0  0  0  0  0  0  0  0  0  0
    1.0587   99.9236   13.1118 C   0  0  0  0  0  0  0  0  0  0  0  0
    0.1610   98.9724   13.7840 N   0  0  0  0  0  0  0  0  0  0  0  0
    3.1899   93.1968   14.1391 C   0  0  2  0  0  0  0  0  0  0  0  0
    2.7257   92.0624   14.9520 N   0  0  0  0  0  0  0  0  0  0  0  0
    3.5107   94.4038   15.0229 C   0  0  0  0  0  0  0  0  0  0  0  0
    4.1117   95.5016   14.1392 C   0  0  2  0  0  0  0  0  0  0  0  0
    4.3473   96.7039   14.9516 N   0  0  0  0  0  0  0  0  0  0  0  0
    3.1868   95.8927   12.9830 C   0  0  2  0  0  0  0  0  0  0  0  0
    2.6258   94.7169   12.1910 C   0  0  2  0  0  0  0  0  0  0  0  0
    1.5194   95.2483   11.4441 O   0  0  0  0  0  0  0  0  0  0  0  0
    2.1276   93.5948   13.1115 C   0  0  1  0  0  0  0  0  0  0  0  0
    1.7904   92.4284   12.3559 O   0  0  0  0  0  0  0  0  0  0  0  0
    0.7740   94.2942   10.6706 C   0  0  1  0  0  0  0  0  0  0  0  0
   -0.5032   94.9857   10.1907 C   0  0  2  0  0  0  0  0  0  0  0  0
   -1.4968   94.9263   11.2169 O   0  0  0  0  0  0  0  0  0  0  0  0
   -0.8777   94.0292    9.0624 C   0  0  1  0  0  0  0  0  0  0  0  0
    0.4749   93.8553    8.3897 C   0  0  2  0  0  0  0  0  0  0  0  0
    1.4431   93.8903    9.4584 O   0  0  0  0  0  0  0  0  0  0  0  0
    0.6875   94.9974    7.3893 C   0  0  0  0  0  0  0  0  0  0  0  0
    1.1202   96.1823    8.0641 O   0  0  0  0  0  0  0  0  0  0  0  0
   -1.8815   91.9689    8.5666 C   0  0  2  0  0  0  0  0  0  0  0  0
   -1.3193   92.7774    9.6114 O   0  0  0  0  0  0  0  0  0  0  0  0
   -3.2085   92.5791    8.1042 C   0  0  1  0  0  0  0  0  0  0  0  0
   -1.3199   87.8255    8.8663 N   0  0  0  0  0  0  0  0  0  0  0  0
   -3.8765   91.6776    7.0603 C   0  0  1  0  0  0  0  0  0  0  0  0
   -3.1152   91.6731    5.8484 O   0  0  0  0  0  0  0  0  0  0  0  0
   -3.9943   90.2518    7.6057 C   0  0  2  0  0  0  0  0  0  0  0  0
   -4.8905   90.2633    8.7220 O   0  0  0  0  0  0  0  0  0  0  0  0
   -2.6131   89.7548    8.0457 C   0  0  1  0  0  0  0  0  0  0  0  0
   -2.0759   90.6299    9.0549 O   0  0  0  0  0  0  0  0  0  0  0  0
   -2.6743   88.3217    8.5810 C   0  0  0  0  0  0  0  0  0  0  0  0
   -4.1059   92.6906    9.2641 N   0  0  0  0  0  0  0  0  0  0  0  0
  1  2  1  1  0  0  0
  1  3  1  0  0  0  0
  1 10  1  0  0  0  0
  3  4  1  1  0  0  0
  3  5  1  0  0  0  0
  5  6  1  6  0  0  0
  5  7  1  0  0  0  0
  7  8  1  1  0  0  0
  7  9  1  0  0  0  0
  9 10  1  0  0  0  0
  9 11  1  6  0  0  0
 11 12  1  0  0  0  0
 13 14  1  1  0  0  0
 13 15  1  0  0  0  0
 13 21  1  0  0  0  0
 16 15  1  0  0  0  0
 16 17  1  1  0  0  0
 18  2  1  6  0  0  0
 18 16  1  0  0  0  0
 19 18  1  0  0  0  0
 19 20  1  1  0  0  0
 21 19  1  0  0  0  0
 21 22  1  6  0  0  0
 23 20  1  6  0  0  0
 23 24  1  0  0  0  0
 23 28  1  0  0  0  0
 24 25  1  1  0  0  0
 24 26  1  0  0  0  0
 26 27  1  0  0  0  0
 26 32  1  1  0  0  0
 27 28  1  0  0  0  0
 27 29  1  6  0  0  0
 29 30  1  0  0  0  0
 31 32  1  1  0  0  0
 31 40  1  0  0  0  0
 33 31  1  0  0  0  0
 33 42  1  1  0  0  0
 35 33  1  0  0  0  0
 35 36  1  6  0  0  0
 37 35  1  0  0  0  0
 37 38  1  1  0  0  0
 37 39  1  0  0  0  0
 39 40  1  0  0  0  0
 39 41  1  1  0  0  0
 41 34  1  0  0  0  0
M  END
>  <CHROM.1>
177.95124156,-178.65720639,-171.49098472,-176.47963754,168.69503557,170.27166435
80.29832736,-69.75171350,174.26577419,0.80448625,94.75833398,10.72053280
0.46570611,-0.84374383,-0.46664214

>  <Name>
2fcy_lig

>  <RI>
2.89127e+07

>  <Rbt.Current_Directory>
/home/itssahil/PROJECTS/Mol_Feturizer/New_Systems/rnas/2fcy

>  <Rbt.Executable>
rbdock ($Id: //depot/dev/client3/rdock/2013.1/src/exe/rbdock.cxx#4 $)

>  <Rbt.Library>
libRbt.so (2013.1, Build901 2013/11/27)

>  <Rbt.Parameter_File>
/export/apps/rDock/src/rDock_2013.1_src/data/scripts/dock_solv.prm

>  <Rbt.Receptor>
prm/pocket_docking_7.prm

>  <SCORE>
-11.0569

>  <SCORE.INTER>
-5.45994

>  <SCORE.INTER.CONST>
1

>  <SCORE.INTER.POLAR>
-1.18873

>  <SCORE.INTER.ROT>
9

>  <SCORE.INTER.SOLV>
15.6751

>  <SCORE.INTER.VDW>
-14.5026

>  <SCORE.INTER.norm>
-0.129998

>  <SCORE.INTRA>
-5.59699

>  <SCORE.INTRA.DIHEDRAL>
-13.344

>  <SCORE.INTRA.DIHEDRAL.0>
17.3446

>  <SCORE.INTRA.POLAR>
0

>  <SCORE.INTRA.POLAR.0>
0

>  <SCORE.INTRA.REPUL>
0.0103546

>  <SCORE.INTRA.REPUL.0>
0

>  <SCORE.INTRA.SOLV>
-4.7083

>  <SCORE.INTRA.SOLV.lig_0>
-112.452

>  <SCORE.INTRA.VDW>
3.3774

>  <SCORE.INTRA.VDW.0>
-5.95059

>  <SCORE.INTRA.norm>
-0.133262

>  <SCORE.RESTR>
0

>  <SCORE.RESTR.CAVITY>
0

>  <SCORE.RESTR.norm>
0

>  <SCORE.SYSTEM>
0

>  <SCORE.SYSTEM.CONST>
0

>  <SCORE.SYSTEM.DIHEDRAL>
0

>  <SCORE.SYSTEM.SOLV>
0

>  <SCORE.SYSTEM.norm>
0

>  <SCORE.heavy>
42

>  <SCORE.norm>
-0.26326

>  <RMSD>
6.385

$$$$
2fcy_lig
 OpenBabel11021811433D
libRbt.so/2013.1/901 2013/11/27
 42 45  0  0  0  0  0  0  0  0999 V2000
   -2.7699   94.3338   12.5149 C   0  0  2  0  0  0  0  0  0  0  0  0
   -2.3243   93.8329   13.7868 O   0  0  0  0  0  0  0  0  0  0  0  0
   -3.4113   95.6898   12.8133 C   0  0  2  0  0  0  0  0  0  0  0  0
   -2.4388   96.5226   13.5340 N   0  0  0  0  0  0  0  0  0  0  0  0
   -4.6534   95.4882   13.6850 C   0  0  1  0  0  0  0  0  0  0  0  0
   -5.2738   96.7441   13.9742 O   0  0  0  0  0  0  0  0  0  0  0  0
   -5.6325   94.5601   12.9654 C   0  0  2  0  0  0  0  0  0  0  0  0
   -6.7451   94.2965   13.8199 O   0  0  0  0  0  0  0  0  0  0  0  0
   -4.9304   93.2326   12.6757 C   0  0  2  0  0  0  0  0  0  0  0  0
   -3.7490   93.4745   11.8957 O   0  0  0  0  0  0  0  0  0  0  0  0
   -5.8986   92.2979   11.9458 C   0  0  0  0  0  0  0  0  0  0  0  0
   -5.2501   91.0188   11.6199 N   0  0  0  0  0  0  0  0  0  0  0  0
    0.8018   91.2427   14.8662 C   0  0  2  0  0  0  0  0  0  0  0  0
    1.7683   90.1530   15.0697 N   0  0  0  0  0  0  0  0  0  0  0  0
   -0.6150   90.7861   15.2195 C   0  0  0  0  0  0  0  0  0  0  0  0
   -1.5506   91.9948   15.1157 C   0  0  2  0  0  0  0  0  0  0  0  0
   -2.9328   91.5617   15.3659 N   0  0  0  0  0  0  0  0  0  0  0  0
   -1.5091   92.6488   13.7316 C   0  0  2  0  0  0  0  0  0  0  0  0
   -0.1070   92.9203   13.1977 C   0  0  2  0  0  0  0  0  0  0  0  0
   -0.2693   93.1524   11.7892 O   0  0  0  0  0  0  0  0  0  0  0  0
    0.8273   91.7223   13.4128 C   0  0  1  0  0  0  0  0  0  0  0  0
    2.1774   92.0646   13.0882 O   0  0  0  0  0  0  0  0  0  0  0  0
   -0.2241   91.9831   10.9556 C   0  0  1  0  0  0  0  0  0  0  0  0
   -1.4937   91.9748   10.1025 C   0  0  2  0  0  0  0  0  0  0  0  0
   -2.5697   91.3993   10.8472 O   0  0  0  0  0  0  0  0  0  0  0  0
   -1.0425   90.9980    9.0205 C   0  0  1  0  0  0  0  0  0  0  0  0
    0.3504   91.5343    8.7300 C   0  0  2  0  0  0  0  0  0  0  0  0
    0.8542   92.0026    9.9979 O   0  0  0  0  0  0  0  0  0  0  0  0
    0.2467   92.6679    7.7032 C   0  0  0  0  0  0  0  0  0  0  0  0
    1.3546   93.5639    7.8303 O   0  0  0  0  0  0  0  0  0  0  0  0
   -0.6942   88.7360    8.5101 C   0  0  2  0  0  0  0  0  0  0  0  0
   -0.9558   89.6722    9.5667 O   0  0  0  0  0  0  0  0  0  0  0  0
   -1.3221   87.3824    8.8577 C   0  0  1  0  0  0  0  0  0  0  0  0
    2.9070   86.9658    5.8058 N   0  0  0  0  0  0  0  0  0  0  0  0
   -0.9689   86.3397    7.7916 C   0  0  1  0  0  0  0  0  0  0  0  0
   -1.6151   86.6563    6.5544 O   0  0  0  0  0  0  0  0  0  0  0  0
    0.5483   86.2977    7.5899 C   0  0  2  0  0  0  0  0  0  0  0  0
    1.1556   85.8233    8.7964 O   0  0  0  0  0  0  0  0  0  0  0  0
    1.0614   87.7037    7.2608 C   0  0  1  0  0  0  0  0  0  0  0  0
    0.7271   88.6098    8.3285 O   0  0  0  0  0  0  0  0  0  0  0  0
    2.5749   87.7110    7.0290 C   0  0  0  0  0  0  0  0  0  0  0  0
   -0.7813   86.9290   10.1480 N   0  0  0  0  0  0  0  0  0  0  0  0
  1  2  1  1  0  0  0
  1  3  1  0  0  0  0
  1 10  1  0  0  0  0
  3  4  1  1  0  0  0
  3  5  1  0  0  0  0
  5  6  1  6  0  0  0
  5  7  1  0  0  0  0
  7  8  1  1  0  0  0
  7  9  1  0  0  0  0
  9 10  1  0  0  0  0
  9 11  1  6  0  0  0
 11 12  1  0  0  0  0
 13 14  1  6  0  0  0
 13 15  1  0  0  0  0
 13 21  1  0  0  0  0
 16 15  1  0  0  0  0
 16 17  1  6  0  0  0
 18  2  1  1  0  0  0
 18 16  1  0  0  0  0
 19 18  1  0  0  0  0
 19 20  1  6  0  0  0
 21 19  1  0  0  0  0
 21 22  1  1  0  0  0
 23 20  1  1  0  0  0
 23 24  1  0  0  0  0
 23 28  1  0  0  0  0
 24 25  1  1  0  0  0
 24 26  1  0  0  0  0
 26 27  1  0  0  0  0
 26 32  1  1  0  0  0
 27 28  1  0  0  0  0
 27 29  1  6  0  0  0
 29 30  1  0  0  0  0
 31 32  1  1  0  0  0
 31 40  1  0  0  0  0
 33 31  1  0  0  0  0
 33 42  1  1  0  0  0
 35 33  1  0  0  0  0
 35 36  1  6  0  0  0
 37 35  1  0  0  0  0
 37 38  1  1  0  0  0
 37 39  1  0  0  0  0
 39 40  1  0  0  0  0
 39 41  1  1  0  0  0
 41 34  1  0  0  0  0
M  END
>  <CHROM.1>
-171.22859622,178.65245159,-160.23254604,-88.07218685,126.31714359,172.87334261
154.48786975,-149.48318871,67.17746356,-1.29238433,91.31328181,11.11252630
2.07012618,-0.32398512,0.89412048

>  <Name>
2fcy_lig

>  <RI>
2.32494e+07

>  <Rbt.Current_Directory>
/home/itssahil/PROJECTS/Mol_Feturizer/New_Systems/rnas/2fcy

>  <Rbt.Executable>
rbdock ($Id: //depot/dev/client3/rdock/2013.1/src/exe/rbdock.cxx#4 $)

>  <Rbt.Library>
libRbt.so (2013.1, Build901 2013/11/27)

>  <Rbt.Parameter_File>
/export/apps/rDock/src/rDock_2013.1_src/data/scripts/dock_solv.prm

>  <Rbt.Receptor>
prm/pocket_docking_8.prm

>  <SCORE>
-16.657

>  <SCORE.INTER>
-18.6518

>  <SCORE.INTER.CONST>
1

>  <SCORE.INTER.POLAR>
-3.23961

>  <SCORE.INTER.ROT>
9

>  <SCORE.INTER.SOLV>
24.5664

>  <SCORE.INTER.VDW>
-19.4246

>  <SCORE.INTER.norm>
-0.44409

>  <SCORE.INTRA>
1.99475

>  <SCORE.INTRA.DIHEDRAL>
1.5747

>  <SCORE.INTRA.DIHEDRAL.0>
17.3446

>  <SCORE.INTRA.POLAR>
0

>  <SCORE.INTRA.POLAR.0>
0

>  <SCORE.INTRA.REPUL>
0

>  <SCORE.INTRA.REPUL.0>
0

>  <SCORE.INTRA.SOLV>
-2.72628

>  <SCORE.INTRA.SOLV.lig_0>
-112.452

>  <SCORE.INTRA.VDW>
2.57054

>  <SCORE.INTRA.VDW.0>
-5.95059

>  <SCORE.INTRA.norm>
0.047494

>  <SCORE.RESTR>
0

>  <SCORE.RESTR.CAVITY>
0

>  <SCORE.RESTR.norm>
0

>  <SCORE.SYSTEM>
0

>  <SCORE.SYSTEM.CONST>
0

>  <SCORE.SYSTEM.DIHEDRAL>
0

>  <SCORE.SYSTEM.SOLV>
0

>  <SCORE.SYSTEM.norm>
0

>  <SCORE.heavy>
42

>  <SCORE.norm>
-0.396596

>  <RMSD>
6.403

$$$$
2fcy_lig
 OpenBabel11021811433D
libRbt.so/2013.1/901 2013/11/27
 42 45  0  0  0  0  0  0  0  0999 V2000
    3.1734   96.5887   12.8851 C   0  0  2  0  0  0  0  0  0  0  0  0
    3.1933   95.1650   12.6857 O   0  0  0  0  0  0  0  0  0  0  0  0
    2.9819   97.1923   11.4929 C   0  0  2  0  0  0  0  0  0  0  0  0
    1.7795   96.6052   10.8861 N   0  0  0  0  0  0  0  0  0  0  0  0
    4.1997   96.8703   10.6231 C   0  0  1  0  0  0  0  0  0  0  0  0
    4.0454   97.4290    9.3155 O   0  0  0  0  0  0  0  0  0  0  0  0
    5.4604   97.4169   11.2938 C   0  0  2  0  0  0  0  0  0  0  0  0
    6.6037   97.0319   10.5308 O   0  0  0  0  0  0  0  0  0  0  0  0
    5.5866   96.7956   12.6857 C   0  0  2  0  0  0  0  0  0  0  0  0
    4.4049   97.0843   13.4492 O   0  0  0  0  0  0  0  0  0  0  0  0
    6.8409   97.3434   13.3715 C   0  0  0  0  0  0  0  0  0  0  0  0
    6.6532   98.7468   13.7687 N   0  0  0  0  0  0  0  0  0  0  0  0
    2.8291   92.1028   15.5382 C   0  0  2  0  0  0  0  0  0  0  0  0
    2.4658   91.1677   16.6137 N   0  0  0  0  0  0  0  0  0  0  0  0
    2.9710   93.5264   16.0802 C   0  0  0  0  0  0  0  0  0  0  0  0
    3.4772   94.4250   14.9473 C   0  0  2  0  0  0  0  0  0  0  0  0
    3.5380   95.8153   15.4207 N   0  0  0  0  0  0  0  0  0  0  0  0
    2.5623   94.3890   13.7197 C   0  0  2  0  0  0  0  0  0  0  0  0
    2.1746   92.9894   13.2557 C   0  0  2  0  0  0  0  0  0  0  0  0
    1.0464   93.1708   12.3849 O   0  0  0  0  0  0  0  0  0  0  0  0
    1.7717   92.0896   14.4315 C   0  0  1  0  0  0  0  0  0  0  0  0
    1.6035   90.7358   14.0026 O   0  0  0  0  0  0  0  0  0  0  0  0
    0.8283   92.1274   11.4216 C   0  0  1  0  0  0  0  0  0  0  0  0
   -0.6828   91.9753   11.2396 C   0  0  2  0  0  0  0  0  0  0  0  0
   -1.2085   91.1325   12.2678 O   0  0  0  0  0  0  0  0  0  0  0  0
   -0.6843   91.2222    9.9125 C   0  0  1  0  0  0  0  0  0  0  0  0
    0.3367   92.0365    9.1337 C   0  0  2  0  0  0  0  0  0  0  0  0
    1.3198   92.4505   10.1046 O   0  0  0  0  0  0  0  0  0  0  0  0
   -0.3667   93.2352    8.4868 C   0  0  0  0  0  0  0  0  0  0  0  0
   -0.8959   94.1081    9.4890 O   0  0  0  0  0  0  0  0  0  0  0  0
   -0.3167   89.1468    8.8849 C   0  0  2  0  0  0  0  0  0  0  0  0
   -0.1996   89.8846   10.1110 O   0  0  0  0  0  0  0  0  0  0  0  0
    0.0428   87.6785    9.1340 C   0  0  1  0  0  0  0  0  0  0  0  0
    0.7828   91.1455    5.3734 N   0  0  0  0  0  0  0  0  0  0  0  0
    0.0233   86.8927    7.8185 C   0  0  1  0  0  0  0  0  0  0  0  0
   -1.3150   86.7891    7.3221 O   0  0  0  0  0  0  0  0  0  0  0  0
    0.9090   87.5919    6.7836 C   0  0  2  0  0  0  0  0  0  0  0  0
    2.2667   87.5377    7.2344 O   0  0  0  0  0  0  0  0  0  0  0  0
    0.4644   89.0503    6.6290 C   0  0  1  0  0  0  0  0  0  0  0  0
    0.5530   89.7267    7.8968 O   0  0  0  0  0  0  0  0  0  0  0  0
    1.3084   89.7890    5.5868 C   0  0  0  0  0  0  0  0  0  0  0  0
    1.4015   87.6140    9.6934 N   0  0  0  0  0  0  0  0  0  0  0  0
  1  2  1  6  0  0  0
  1  3  1  0  0  0  0
  1 10  1  0  0  0  0
  3  4  1  6  0  0  0
  3  5  1  0  0  0  0
  5  6  1  6  0  0  0
  5  7  1  0  0  0  0
  7  8  1  6  0  0  0
  7  9  1  0  0  0  0
  9 10  1  0  0  0  0
  9 11  1  1  0  0  0
 11 12  1  0  0  0  0
 13 14  1  1  0  0  0
 13 15  1  0  0  0  0
 13 21  1  0  0  0  0
 16 15  1  0  0  0  0
 16 17  1  1  0  0  0
 18  2  1  6  0  0  0
 18 16  1  0  0  0  0
 19 18  1  0  0  0  0
 19 20  1  6  0  0  0
 21 19  1  0  0  0  0
 21 22  1  6  0  0  0
 23 20  1  1  0  0  0
 23 24  1  0  0  0  0
 23 28  1  0  0  0  0
 24 25  1  1  0  0  0
 24 26  1  0  0  0  0
 26 27  1  0  0  0  0
 26 32  1  1  0  0  0
 27 28  1  0  0  0  0
 27 29  1  1  0  0  0
 29 30  1  0  0  0  0
 31 32  1  1  0  0  0
 31 40  1  0  0  0  0
 33 31  1  0  0  0  0
 33 42  1  6  0  0  0
 35 33  1  0  0  0  0
 35 36  1  6  0  0  0
 37 35  1  0  0  0  0
 37 38  1  1  0  0  0
 37 39  1  0  0  0  0
 39 40  1  0  0  0  0
 39 41  1  6  0  0  0
 41 34  1  0  0  0  0
M  END
>  <CHROM.1>
-143.28109698,72.12898939,-72.76347811,156.00765922,145.08887807,174.86695229
63.46637778,-173.37010011,174.92401471,1.98785203,92.75187925,11.01935083
-0.48665325,-1.07173878,-1.52052055

>  <Name>
2fcy_lig

>  <RI>
2.32494e+07

>  <Rbt.Current_Directory>
/home/itssahil/PROJECTS/Mol_Feturizer/New_Systems/rnas/2fcy

>  <Rbt.Executable>
rbdock ($Id: //depot/dev/client3/rdock/2013.1/src/exe/rbdock.cxx#4 $)

>  <Rbt.Library>
libRbt.so (2013.1, Build901 2013/11/27)

>  <Rbt.Parameter_File>
/export/apps/rDock/src/rDock_2013.1_src/data/scripts/dock_solv.prm

>  <Rbt.Receptor>
prm/pocket_docking_8.prm

>  <SCORE>
-14.9592

>  <SCORE.INTER>
-17.449

>  <SCORE.INTER.CONST>
1

>  <SCORE.INTER.POLAR>
-2.61557

>  <SCORE.INTER.ROT>
9

>  <SCORE.INTER.SOLV>
16.6104

>  <SCORE.INTER.VDW>
-18.0509

>  <SCORE.INTER.norm>
-0.415453

>  <SCORE.INTRA>
2.48987

>  <SCORE.INTRA.DIHEDRAL>
-3.22168

>  <SCORE.INTRA.DIHEDRAL.0>
17.3446

>  <SCORE.INTRA.POLAR>
0

>  <SCORE.INTRA.POLAR.0>
0

>  <SCORE.INTRA.REPUL>
0.00481405

>  <SCORE.INTRA.REPUL.0>
0

>  <SCORE.INTRA.SOLV>
0.386958

>  <SCORE.INTRA.SOLV.lig_0>
-112.452

>  <SCORE.INTRA.VDW>
3.88317

>  <SCORE.INTRA.VDW.0>
-5.95059

>  <SCORE.INTRA.norm>
0.0592827

>  <SCORE.RESTR>
0

>  <SCORE.RESTR.CAVITY>
0

>  <SCORE.RESTR.norm>
0

>  <SCORE.SYSTEM>
0

>  <SCORE.SYSTEM.CONST>
0

>  <SCORE.SYSTEM.DIHEDRAL>
0

>  <SCORE.SYSTEM.SOLV>
0

>  <SCORE.SYSTEM.norm>
0

>  <SCORE.heavy>
42

>  <SCORE.norm>
-0.35617

>  <RMSD>
6.485

$$$$
2fcy_lig
 OpenBabel11021811433D
libRbt.so/2013.1/901 2013/11/27
 42 45  0  0  0  0  0  0  0  0999 V2000
    5.0432   97.8420   12.3627 C   0  0  2  0  0  0  0  0  0  0  0  0
    4.8454   96.4721   11.9736 O   0  0  0  0  0  0  0  0  0  0  0  0
    5.7609   98.5008   11.1838 C   0  0  2  0  0  0  0  0  0  0  0  0
    4.9683   98.2799    9.9665 N   0  0  0  0  0  0  0  0  0  0  0  0
    7.1454   97.8712   11.0105 C   0  0  1  0  0  0  0  0  0  0  0  0
    7.8387   98.4750    9.9147 O   0  0  0  0  0  0  0  0  0  0  0  0
    7.9427   98.0358   12.3048 C   0  0  2  0  0  0  0  0  0  0  0  0
    9.1955   97.3643   12.1741 O   0  0  0  0  0  0  0  0  0  0  0  0
    7.1677   97.3782   13.4476 C   0  0  2  0  0  0  0  0  0  0  0  0
    5.8617   97.9676   13.5437 O   0  0  0  0  0  0  0  0  0  0  0  0
    7.9521   97.5454   14.7517 C   0  0  0  0  0  0  0  0  0  0  0  0
    7.2480   96.9084   15.8747 N   0  0  0  0  0  0  0  0  0  0  0  0
    2.8524   93.1738   13.6456 C   0  0  2  0  0  0  0  0  0  0  0  0
    1.9833   92.2145   14.3438 N   0  0  0  0  0  0  0  0  0  0  0  0
    3.4576   94.1760   14.6305 C   0  0  0  0  0  0  0  0  0  0  0  0
    4.4507   95.0598   13.8691 C   0  0  2  0  0  0  0  0  0  0  0  0
    4.9804   96.0879   14.7765 N   0  0  0  0  0  0  0  0  0  0  0  0
    3.8036   95.7751   12.6795 C   0  0  2  0  0  0  0  0  0  0  0  0
    2.9731   94.8754   11.7710 C   0  0  2  0  0  0  0  0  0  0  0  0
    2.1624   95.7642   10.9855 O   0  0  0  0  0  0  0  0  0  0  0  0
    2.0662   93.9341   12.5747 C   0  0  1  0  0  0  0  0  0  0  0  0
    1.4468   92.9701   11.7190 O   0  0  0  0  0  0  0  0  0  0  0  0
    1.3646   95.1422    9.9652 C   0  0  1  0  0  0  0  0  0  0  0  0
   -0.1029   95.4272   10.2886 C   0  0  2  0  0  0  0  0  0  0  0  0
   -0.5798   94.4725   11.2398 O   0  0  0  0  0  0  0  0  0  0  0  0
   -0.7069   95.1283    8.9195 C   0  0  1  0  0  0  0  0  0  0  0  0
    0.2762   95.8609    8.0201 C   0  0  2  0  0  0  0  0  0  0  0  0
    1.5628   95.7121    8.6551 O   0  0  0  0  0  0  0  0  0  0  0  0
   -0.1416   97.3321    7.9147 C   0  0  0  0  0  0  0  0  0  0  0  0
   -1.4326   97.4457    7.3091 O   0  0  0  0  0  0  0  0  0  0  0  0
   -1.8366   93.0899    9.1787 C   0  0  2  0  0  0  0  0  0  0  0  0
   -0.6529   93.7163    8.6611 O   0  0  0  0  0  0  0  0  0  0  0  0
   -1.6821   91.5672    9.1108 C   0  0  1  0  0  0  0  0  0  0  0  0
   -5.2343   93.3234    6.6929 N   0  0  0  0  0  0  0  0  0  0  0  0
   -2.9738   90.8781    9.5636 C   0  0  1  0  0  0  0  0  0  0  0  0
   -3.1861   91.0915   10.9628 O   0  0  0  0  0  0  0  0  0  0  0  0
   -4.1610   91.4274    8.7678 C   0  0  2  0  0  0  0  0  0  0  0  0
   -3.9989   91.0585    7.3941 O   0  0  0  0  0  0  0  0  0  0  0  0
   -4.2057   92.9535    8.9004 C   0  0  1  0  0  0  0  0  0  0  0  0
   -2.9759   93.5237    8.4153 O   0  0  0  0  0  0  0  0  0  0  0  0
   -5.3910   93.5507    8.1371 C   0  0  0  0  0  0  0  0  0  0  0  0
   -1.4141   91.1819    7.7170 N   0  0  0  0  0  0  0  0  0  0  0  0
  1  2  1  6  0  0  0
  1  3  1  0  0  0  0
  1 10  1  0  0  0  0
  3  4  1  6  0  0  0
  3  5  1  0  0  0  0
  5  6  1  6  0  0  0
  5  7  1  0  0  0  0
  7  8  1  6  0  0  0
  7  9  1  0  0  0  0
  9 10  1  0  0  0  0
  9 11  1  1  0  0  0
 11 12  1  0  0  0  0
 13 14  1  1  0  0  0
 13 15  1  0  0  0  0
 13 21  1  0  0  0  0
 16 15  1  0  0  0  0
 16 17  1  1  0  0  0
 18  2  1  6  0  0  0
 18 16  1  0  0  0  0
 19 18  1  0  0  0  0
 19 20  1  6  0  0  0
 21 19  1  0  0  0  0
 21 22  1  6  0  0  0
 23 20  1  1  0  0  0
 23 24  1  0  0  0  0
 23 28  1  0  0  0  0
 24 25  1  1  0  0  0
 24 26  1  0  0  0  0
 26 27  1  0  0  0  0
 26 32  1  6  0  0  0
 27 28  1  0  0  0  0
 27 29  1  1  0  0  0
 29 30  1  0  0  0  0
 31 32  1  6  0  0  0
 31 40  1  0  0  0  0
 33 31  1  0  0  0  0
 33 42  1  6  0  0  0
 35 33  1  0  0  0  0
 35 36  1  1  0  0  0
 37 35  1  0  0  0  0
 37 38  1  6  0  0  0
 37 39  1  0  0  0  0
 39 40  1  0  0  0  0
 39 41  1  6  0  0  0
 41 34  1  0  0  0  0
M  END
>  <CHROM.1>
-158.93193014,-179.19356209,-93.16443227,175.01968381,118.51864167,88.40769570
-62.42924890,-170.87059107,-64.92963363,1.74192558,95.01838159,10.81160724
-0.04558750,-0.57138602,-0.88017247

>  <Name>
2fcy_lig

>  <RI>
2.89127e+07

>  <Rbt.Current_Directory>
/home/itssahil/PROJECTS/Mol_Feturizer/New_Systems/rnas/2fcy

>  <Rbt.Executable>
rbdock ($Id: //depot/dev/client3/rdock/2013.1/src/exe/rbdock.cxx#4 $)

>  <Rbt.Library>
libRbt.so (2013.1, Build901 2013/11/27)

>  <Rbt.Parameter_File>
/export/apps/rDock/src/rDock_2013.1_src/data/scripts/dock_solv.prm

>  <Rbt.Receptor>
prm/pocket_docking_7.prm

>  <SCORE>
-7.16704

>  <SCORE.INTER>
-12.1066

>  <SCORE.INTER.CONST>
1

>  <SCORE.INTER.POLAR>
-2.11359

>  <SCORE.INTER.ROT>
9

>  <SCORE.INTER.SOLV>
16.7902

>  <SCORE.INTER.VDW>
-16.2225

>  <SCORE.INTER.norm>
-0.288251

>  <SCORE.INTRA>
4.93952

>  <SCORE.INTRA.DIHEDRAL>
-0.0639668

>  <SCORE.INTRA.DIHEDRAL.0>
17.3446

>  <SCORE.INTRA.POLAR>
0

>  <SCORE.INTRA.POLAR.0>
0

>  <SCORE.INTRA.REPUL>
0

>  <SCORE.INTRA.REPUL.0>
0

>  <SCORE.INTRA.SOLV>
2.7744

>  <SCORE.INTRA.SOLV.lig_0>
-112.452

>  <SCORE.INTRA.VDW>
3.5843

>  <SCORE.INTRA.VDW.0>
-5.95059

>  <SCORE.INTRA.norm>
0.117608

>  <SCORE.RESTR>
0

>  <SCORE.RESTR.CAVITY>
0

>  <SCORE.RESTR.norm>
0

>  <SCORE.SYSTEM>
0

>  <SCORE.SYSTEM.CONST>
0

>  <SCORE.SYSTEM.DIHEDRAL>
0

>  <SCORE.SYSTEM.SOLV>
0

>  <SCORE.SYSTEM.norm>
0

>  <SCORE.heavy>
42

>  <SCORE.norm>
-0.170644

>  <RMSD>
6.517

$$$$
2fcy_lig
 OpenBabel11021811433D
libRbt.so/2013.1/901 2013/11/27
 42 45  0  0  0  0  0  0  0  0999 V2000
    0.1850   94.7960   10.5513 C   0  0  2  0  0  0  0  0  0  0  0  0
    1.2697   94.9398   11.4841 O   0  0  0  0  0  0  0  0  0  0  0  0
    0.5492   95.6868    9.3627 C   0  0  2  0  0  0  0  0  0  0  0  0
    1.8802   95.3006    8.8748 N   0  0  0  0  0  0  0  0  0  0  0  0
    0.5761   97.1508    9.8090 C   0  0  1  0  0  0  0  0  0  0  0  0
    0.9108   98.0049    8.7117 O   0  0  0  0  0  0  0  0  0  0  0  0
   -0.7881   97.5298   10.3862 C   0  0  2  0  0  0  0  0  0  0  0  0
   -0.7315   98.8643   10.8897 O   0  0  0  0  0  0  0  0  0  0  0  0
   -1.1062   96.5944   11.5537 C   0  0  2  0  0  0  0  0  0  0  0  0
   -1.0758   95.2323   11.0994 O   0  0  0  0  0  0  0  0  0  0  0  0
   -2.4754   96.9581   12.1338 C   0  0  0  0  0  0  0  0  0  0  0  0
   -2.3898   98.1670   12.9667 N   0  0  0  0  0  0  0  0  0  0  0  0
    2.3486   92.6368   14.8275 C   0  0  2  0  0  0  0  0  0  0  0  0
    2.4741   91.9100   16.0999 N   0  0  0  0  0  0  0  0  0  0  0  0
    2.1120   94.1281   15.0742 C   0  0  0  0  0  0  0  0  0  0  0  0
    2.1228   94.8477   13.7217 C   0  0  2  0  0  0  0  0  0  0  0  0
    1.8103   96.2695   13.9258 N   0  0  0  0  0  0  0  0  0  0  0  0
    1.0877   94.2769   12.7478 C   0  0  2  0  0  0  0  0  0  0  0  0
    1.0990   92.7572   12.6256 C   0  0  2  0  0  0  0  0  0  0  0  0
   -0.1492   92.4114   12.0040 O   0  0  0  0  0  0  0  0  0  0  0  0
    1.1919   92.0752   13.9971 C   0  0  1  0  0  0  0  0  0  0  0  0
    1.3992   90.6676   13.8529 O   0  0  0  0  0  0  0  0  0  0  0  0
   -0.1004   91.3172   11.0742 C   0  0  1  0  0  0  0  0  0  0  0  0
   -1.4805   91.2011   10.4249 C   0  0  2  0  0  0  0  0  0  0  0  0
   -2.3472   90.4408   11.2702 O   0  0  0  0  0  0  0  0  0  0  0  0
   -1.0965   90.3671    9.2061 C   0  0  1  0  0  0  0  0  0  0  0  0
    0.1583   91.0991    8.7568 C   0  0  2  0  0  0  0  0  0  0  0  0
    0.8001   91.5422    9.9703 O   0  0  0  0  0  0  0  0  0  0  0  0
   -0.2424   92.2765    7.8604 C   0  0  0  0  0  0  0  0  0  0  0  0
   -0.8615   91.8057    6.6597 O   0  0  0  0  0  0  0  0  0  0  0  0
   -1.2782   88.0958    8.6521 C   0  0  2  0  0  0  0  0  0  0  0  0
   -0.7669   89.0301    9.6150 O   0  0  0  0  0  0  0  0  0  0  0  0
   -0.9450   86.6680    9.0964 C   0  0  1  0  0  0  0  0  0  0  0  0
   -1.3600   87.2164    3.8994 N   0  0  0  0  0  0  0  0  0  0  0  0
   -1.3919   85.6592    8.0330 C   0  0  1  0  0  0  0  0  0  0  0  0
   -2.8205   85.6190    7.9562 O   0  0  0  0  0  0  0  0  0  0  0  0
   -0.8088   86.0481    6.6717 C   0  0  2  0  0  0  0  0  0  0  0  0
    0.6160   85.9235    6.7337 O   0  0  0  0  0  0  0  0  0  0  0  0
   -1.1961   87.4935    6.3415 C   0  0  1  0  0  0  0  0  0  0  0  0
   -0.7034   88.3789    7.3643 O   0  0  0  0  0  0  0  0  0  0  0  0
   -0.6528   87.9245    4.9765 C   0  0  0  0  0  0  0  0  0  0  0  0
    0.5119   86.5534    9.2622 N   0  0  0  0  0  0  0  0  0  0  0  0
  1  2  1  1  0  0  0
  1  3  1  0  0  0  0
  1 10  1  0  0  0  0
  3  4  1  1  0  0  0
  3  5  1  0  0  0  0
  5  6  1  6  0  0  0
  5  7  1  0  0  0  0
  7  8  1  1  0  0  0
  7  9  1  0  0  0  0
  9 10  1  0  0  0  0
  9 11  1  6  0  0  0
 11 12  1  0  0  0  0
 13 14  1  1  0  0  0
 13 15  1  0  0  0  0
 13 21  1  0  0  0  0
 16 15  1  0  0  0  0
 16 17  1  1  0  0  0
 18  2  1  6  0  0  0
 18 16  1  0  0  0  0
 19 18  1  0  0  0  0
 19 20  1  1  0  0  0
 21 19  1  0  0  0  0
 21 22  1  6  0  0  0
 23 20  1  1  0  0  0
 23 24  1  0  0  0  0
 23 28  1  0  0  0  0
 24 25  1  1  0  0  0
 24 26  1  0  0  0  0
 26 27  1  0  0  0  0
 26 32  1  1  0  0  0
 27 28  1  0  0  0  0
 27 29  1  6  0  0  0
 29 30  1  0  0  0  0
 31 32  1  1  0  0  0
 31 40  1  0  0  0  0
 33 31  1  0  0  0  0
 33 42  1  6  0  0  0
 35 33  1  0  0  0  0
 35 36  1  6  0  0  0
 37 35  1  0  0  0  0
 37 38  1  1  0  0  0
 37 39  1  0  0  0  0
 39 40  1  0  0  0  0
 39 41  1  6  0  0  0
 41 34  1  0  0  0  0
M  END
>  <CHROM.1>
174.64276764,-76.84048433,-164.57852387,143.18456195,-174.40130356,140.93795812
-64.40169409,-179.20515478,69.70901639,-0.09973065,92.03630036,10.22653551
1.15529425,-1.25210843,0.10513959

>  <Name>
2fcy_lig

>  <RI>
2.89127e+07

>  <Rbt.Current_Directory>
/home/itssahil/PROJECTS/Mol_Feturizer/New_Systems/rnas/2fcy

>  <Rbt.Executable>
rbdock ($Id: //depot/dev/client3/rdock/2013.1/src/exe/rbdock.cxx#4 $)

>  <Rbt.Library>
libRbt.so (2013.1, Build901 2013/11/27)

>  <Rbt.Parameter_File>
/export/apps/rDock/src/rDock_2013.1_src/data/scripts/dock_solv.prm

>  <Rbt.Receptor>
prm/pocket_docking_7.prm

>  <SCORE>
-20.351

>  <SCORE.INTER>
-17.0466

>  <SCORE.INTER.CONST>
1

>  <SCORE.INTER.POLAR>
-3.9575

>  <SCORE.INTER.ROT>
9

>  <SCORE.INTER.SOLV>
16.309

>  <SCORE.INTER.VDW>
-13.2091

>  <SCORE.INTER.norm>
-0.405871

>  <SCORE.INTRA>
-3.3044

>  <SCORE.INTRA.DIHEDRAL>
-4.37376

>  <SCORE.INTRA.DIHEDRAL.0>
17.3446

>  <SCORE.INTRA.POLAR>
0

>  <SCORE.INTRA.POLAR.0>
0

>  <SCORE.INTRA.REPUL>
0

>  <SCORE.INTRA.REPUL.0>
0

>  <SCORE.INTRA.SOLV>
-3.53709

>  <SCORE.INTRA.SOLV.lig_0>
-112.452

>  <SCORE.INTRA.VDW>
0.65103

>  <SCORE.INTRA.VDW.0>
-5.95059

>  <SCORE.INTRA.norm>
-0.0786761

>  <SCORE.RESTR>
0

>  <SCORE.RESTR.CAVITY>
0

>  <SCORE.RESTR.norm>
0

>  <SCORE.SYSTEM>
0

>  <SCORE.SYSTEM.CONST>
0

>  <SCORE.SYSTEM.DIHEDRAL>
0

>  <SCORE.SYSTEM.SOLV>
0

>  <SCORE.SYSTEM.norm>
0

>  <SCORE.heavy>
42

>  <SCORE.norm>
-0.484547

>  <RMSD>
6.522

$$$$
2fcy_lig
 OpenBabel11021811433D
libRbt.so/2013.1/901 2013/11/27
 42 45  0  0  0  0  0  0  0  0999 V2000
    1.8365   92.3065   16.3161 C   0  0  2  0  0  0  0  0  0  0  0  0
    1.4027   92.7338   17.6186 O   0  0  0  0  0  0  0  0  0  0  0  0
    0.7632   91.3322   15.8286 C   0  0  2  0  0  0  0  0  0  0  0  0
   -0.5434   92.0014   15.8902 N   0  0  0  0  0  0  0  0  0  0  0  0
    0.7449   90.0964   16.7317 C   0  0  1  0  0  0  0  0  0  0  0  0
   -0.2498   89.1673   16.2924 O   0  0  0  0  0  0  0  0  0  0  0  0
    2.1276   89.4437   16.7256 C   0  0  2  0  0  0  0  0  0  0  0  0
    2.1352   88.3495   17.6423 O   0  0  0  0  0  0  0  0  0  0  0  0
    3.1584   90.4689   17.2005 C   0  0  2  0  0  0  0  0  0  0  0  0
    3.1086   91.6275   16.3534 O   0  0  0  0  0  0  0  0  0  0  0  0
    4.5493   89.8294   17.1891 C   0  0  0  0  0  0  0  0  0  0  0  0
    4.7959   89.0838   18.4324 N   0  0  0  0  0  0  0  0  0  0  0  0
    2.4283   96.4443   19.3000 C   0  0  2  0  0  0  0  0  0  0  0  0
    3.0241   97.6103   19.9697 N   0  0  0  0  0  0  0  0  0  0  0  0
    2.2950   95.2691   20.2706 C   0  0  0  0  0  0  0  0  0  0  0  0
    1.5511   94.1363   19.5561 C   0  0  2  0  0  0  0  0  0  0  0  0
    1.4879   92.9637   20.4403 N   0  0  0  0  0  0  0  0  0  0  0  0
    2.2453   93.7075   18.2601 C   0  0  2  0  0  0  0  0  0  0  0  0
    2.6322   94.8561   17.3352 C   0  0  2  0  0  0  0  0  0  0  0  0
    3.5836   94.3033   16.4115 O   0  0  0  0  0  0  0  0  0  0  0  0
    3.2818   96.0141   18.1044 C   0  0  1  0  0  0  0  0  0  0  0  0
    3.4560   97.1535   17.2580 O   0  0  0  0  0  0  0  0  0  0  0  0
    3.5497   94.8467   15.0819 C   0  0  1  0  0  0  0  0  0  0  0  0
    4.2791   93.8651   14.1631 C   0  0  2  0  0  0  0  0  0  0  0  0
    5.6869   94.1060   14.2230 O   0  0  0  0  0  0  0  0  0  0  0  0
    3.7352   94.3507   12.8227 C   0  0  1  0  0  0  0  0  0  0  0  0
    2.2593   94.4916   13.1601 C   0  0  2  0  0  0  0  0  0  0  0  0
    2.2192   94.9353   14.5321 O   0  0  0  0  0  0  0  0  0  0  0  0
    1.5720   93.1333   12.9792 C   0  0  0  0  0  0  0  0  0  0  0  0
    1.9789   92.5241   11.7505 O   0  0  0  0  0  0  0  0  0  0  0  0
    3.3469   96.3923   11.7366 C   0  0  2  0  0  0  0  0  0  0  0  0
    4.2933   95.6362   12.5074 O   0  0  0  0  0  0  0  0  0  0  0  0
    4.0945   97.3567   10.8102 C   0  0  1  0  0  0  0  0  0  0  0  0
   -0.1089   97.4675   13.7581 N   0  0  0  0  0  0  0  0  0  0  0  0
    3.1032   98.2456   10.0516 C   0  0  1  0  0  0  0  0  0  0  0  0
    2.3492   97.4646    9.1189 O   0  0  0  0  0  0  0  0  0  0  0  0
    2.1566   98.9293   11.0420 C   0  0  2  0  0  0  0  0  0  0  0  0
    2.9194   99.8260   11.8567 O   0  0  0  0  0  0  0  0  0  0  0  0
    1.4788   97.8707   11.9184 C   0  0  1  0  0  0  0  0  0  0  0  0
    2.4748   97.1102   12.6272 O   0  0  0  0  0  0  0  0  0  0  0  0
    0.5038   98.5043   12.9146 C   0  0  0  0  0  0  0  0  0  0  0  0
    4.9609   98.2196   11.6274 N   0  0  0  0  0  0  0  0  0  0  0  0
  1  2  1  1  0  0  0
  1  3  1  0  0  0  0
  1 10  1  0  0  0  0
  3  4  1  1  0  0  0
  3  5  1  0  0  0  0
  5  6  1  6  0  0  0
  5  7  1  0  0  0  0
  7  8  1  1  0  0  0
  7  9  1  0  0  0  0
  9 10  1  0  0  0  0
  9 11  1  6  0  0  0
 11 12  1  0  0  0  0
 13 14  1  1  0  0  0
 13 15  1  0  0  0  0
 13 21  1  0  0  0  0
 16 15  1  0  0  0  0
 16 17  1  1  0  0  0
 18  2  1  6  0  0  0
 18 16  1  0  0  0  0
 19 18  1  0  0  0  0
 19 20  1  6  0  0  0
 21 19  1  0  0  0  0
 21 22  1  6  0  0  0
 23 20  1  1  0  0  0
 23 24  1  0  0  0  0
 23 28  1  0  0  0  0
 24 25  1  6  0  0  0
 24 26  1  0  0  0  0
 26 27  1  0  0  0  0
 26 32  1  1  0  0  0
 27 28  1  0  0  0  0
 27 29  1  1  0  0  0
 29 30  1  0  0  0  0
 31 32  1  1  0  0  0
 31 40  1  0  0  0  0
 33 31  1  0  0  0  0
 33 42  1  1  0  0  0
 35 33  1  0  0  0  0
 35 36  1  6  0  0  0
 37 35  1  0  0  0  0
 37 38  1  1  0  0  0
 37 39  1  0  0  0  0
 39 40  1  0  0  0  0
 39 41  1  1  0  0  0
 41 34  1  0  0  0  0
M  END
>  <CHROM.1>
-177.75268029,-84.63946349,174.40817790,146.52534280,-162.22226733,-149.10378491
-45.43312860,-150.60653975,-178.84328374,2.54662523,94.37511149,15.15909039
2.72823789,1.49722015,1.22049751

>  <Name>
2fcy_lig

>  <RI>
9.29634e+06

>  <Rbt.Current_Directory>
/home/itssahil/PROJECTS/Mol_Feturizer/New_Systems/rnas/2fcy

>  <Rbt.Executable>
rbdock ($Id: //depot/dev/client3/rdock/2013.1/src/exe/rbdock.cxx#4 $)

>  <Rbt.Library>
libRbt.so (2013.1, Build901 2013/11/27)

>  <Rbt.Parameter_File>
/export/apps/rDock/src/rDock_2013.1_src/data/scripts/dock_solv.prm

>  <Rbt.Receptor>
prm/blind_docking_100.prm

>  <SCORE>
-2.18704

>  <SCORE.INTER>
-10.1929

>  <SCORE.INTER.CONST>
1

>  <SCORE.INTER.POLAR>
-0.697946

>  <SCORE.INTER.ROT>
9

>  <SCORE.INTER.SOLV>
22.4924

>  <SCORE.INTER.VDW>
-21.5662

>  <SCORE.INTER.norm>
-0.242688

>  <SCORE.INTRA>
2.95941

>  <SCORE.INTRA.DIHEDRAL>
-1.34348

>  <SCORE.INTRA.DIHEDRAL.0>
17.3446

>  <SCORE.INTRA.POLAR>
0

>  <SCORE.INTRA.POLAR.0>
0

>  <SCORE.INTRA.REPUL>
0

>  <SCORE.INTRA.REPUL.0>
0

>  <SCORE.INTRA.SOLV>
-3.0755

>  <SCORE.INTRA.SOLV.lig_0>
-112.452

>  <SCORE.INTRA.VDW>
5.1689

>  <SCORE.INTRA.VDW.0>
-5.95059

>  <SCORE.INTRA.norm>
0.0704621

>  <SCORE.RESTR>
5.04646

>  <SCORE.RESTR.CAVITY>
5.04646

>  <SCORE.RESTR.norm>
0.120154

>  <SCORE.SYSTEM>
0

>  <SCORE.SYSTEM.CONST>
0

>  <SCORE.SYSTEM.DIHEDRAL>
0

>  <SCORE.SYSTEM.SOLV>
0

>  <SCORE.SYSTEM.norm>
0

>  <SCORE.heavy>
42

>  <SCORE.norm>
-0.0520724

>  <RMSD>
6.535

$$$$
2fcy_lig
 OpenBabel11021811433D
libRbt.so/2013.1/901 2013/11/27
 42 45  0  0  0  0  0  0  0  0999 V2000
    1.7731   96.4095   10.8142 C   0  0  2  0  0  0  0  0  0  0  0  0
    2.4260   96.3560   12.0941 O   0  0  0  0  0  0  0  0  0  0  0  0
    2.4666   97.5384   10.0501 C   0  0  2  0  0  0  0  0  0  0  0  0
    3.9120   97.2756   10.0307 N   0  0  0  0  0  0  0  0  0  0  0  0
    2.2013   98.8717   10.7538 C   0  0  1  0  0  0  0  0  0  0  0  0
    2.8373   99.9448   10.0541 O   0  0  0  0  0  0  0  0  0  0  0  0
    0.6931   99.1079   10.8402 C   0  0  2  0  0  0  0  0  0  0  0  0
    0.4458  100.3026   11.5812 O   0  0  0  0  0  0  0  0  0  0  0  0
    0.0540   97.9403   11.5936 C   0  0  2  0  0  0  0  0  0  0  0  0
    0.3664   96.7087   10.9243 O   0  0  0  0  0  0  0  0  0  0  0  0
   -1.4586   98.1609   11.6777 C   0  0  0  0  0  0  0  0  0  0  0  0
   -2.0865   97.1694   12.5639 N   0  0  0  0  0  0  0  0  0  0  0  0
    2.6204   93.0560   14.6861 C   0  0  2  0  0  0  0  0  0  0  0  0
    2.4188   91.9651   15.6516 N   0  0  0  0  0  0  0  0  0  0  0  0
    2.3290   94.4129   15.3301 C   0  0  0  0  0  0  0  0  0  0  0  0
    2.6829   95.5106   14.3217 C   0  0  2  0  0  0  0  0  0  0  0  0
    2.3289   96.8209   14.8863 N   0  0  0  0  0  0  0  0  0  0  0  0
    1.9291   95.3532   12.9979 C   0  0  2  0  0  0  0  0  0  0  0  0
    1.9710   93.9493   12.4048 C   0  0  2  0  0  0  0  0  0  0  0  0
    0.9215   93.9138   11.4243 O   0  0  0  0  0  0  0  0  0  0  0  0
    1.7125   92.8729   13.4675 C   0  0  1  0  0  0  0  0  0  0  0  0
    1.9497   91.5662   12.9371 O   0  0  0  0  0  0  0  0  0  0  0  0
    1.1231   93.0073   10.3280 C   0  0  1  0  0  0  0  0  0  0  0  0
   -0.2553   92.5532    9.8448 C   0  0  2  0  0  0  0  0  0  0  0  0
   -0.7151   91.4682   10.6542 O   0  0  0  0  0  0  0  0  0  0  0  0
    0.1402   92.0298    8.4671 C   0  0  1  0  0  0  0  0  0  0  0  0
    1.0407   93.1593    7.9925 C   0  0  2  0  0  0  0  0  0  0  0  0
    1.7239   93.6282    9.1731 O   0  0  0  0  0  0  0  0  0  0  0  0
    0.1771   94.2562    7.3592 C   0  0  0  0  0  0  0  0  0  0  0  0
   -0.4300   93.7840    6.1530 O   0  0  0  0  0  0  0  0  0  0  0  0
    0.0054   89.7091    8.7755 C   0  0  2  0  0  0  0  0  0  0  0  0
    0.9004   90.8189    8.6059 O   0  0  0  0  0  0  0  0  0  0  0  0
    0.8139   88.4328    9.0289 C   0  0  1  0  0  0  0  0  0  0  0  0
   -3.7159   87.4491    6.6482 N   0  0  0  0  0  0  0  0  0  0  0  0
   -0.1167   87.2180    9.1118 C   0  0  1  0  0  0  0  0  0  0  0  0
   -0.9271   87.2930   10.2890 O   0  0  0  0  0  0  0  0  0  0  0  0
   -1.0091   87.1627    7.8689 C   0  0  2  0  0  0  0  0  0  0  0  0
   -0.1824   86.9263    6.7242 O   0  0  0  0  0  0  0  0  0  0  0  0
   -1.7549   88.4923    7.7129 C   0  0  1  0  0  0  0  0  0  0  0  0
   -0.8109   89.5734    7.5990 O   0  0  0  0  0  0  0  0  0  0  0  0
   -2.6792   88.4799    6.4923 C   0  0  0  0  0  0  0  0  0  0  0  0
    1.7417   88.2313    7.9057 N   0  0  0  0  0  0  0  0  0  0  0  0
  1  2  1  1  0  0  0
  1  3  1  0  0  0  0
  1 10  1  0  0  0  0
  3  4  1  1  0  0  0
  3  5  1  0  0  0  0
  5  6  1  6  0  0  0
  5  7  1  0  0  0  0
  7  8  1  1  0  0  0
  7  9  1  0  0  0  0
  9 10  1  0  0  0  0
  9 11  1  6  0  0  0
 11 12  1  0  0  0  0
 13 14  1  1  0  0  0
 13 15  1  0  0  0  0
 13 21  1  0  0  0  0
 16 15  1  0  0  0  0
 16 17  1  1  0  0  0
 18  2  1  6  0  0  0
 18 16  1  0  0  0  0
 19 18  1  0  0  0  0
 19 20  1  6  0  0  0
 21 19  1  0  0  0  0
 21 22  1  6  0  0  0
 23 20  1  1  0  0  0
 23 24  1  0  0  0  0
 23 28  1  0  0  0  0
 24 25  1  1  0  0  0
 24 26  1  0  0  0  0
 26 27  1  0  0  0  0
 26 32  1  1  0  0  0
 27 28  1  0  0  0  0
 27 29  1  1  0  0  0
 29 30  1  0  0  0  0
 31 32  1  6  0  0  0
 31 40  1  0  0  0  0
 33 31  1  0  0  0  0
 33 42  1  6  0  0  0
 35 33  1  0  0  0  0
 35 36  1  1  0  0  0
 37 35  1  0  0  0  0
 37 38  1  6  0  0  0
 37 39  1  0  0  0  0
 39 40  1  0  0  0  0
 39 41  1  6  0  0  0
 41 34  1  0  0  0  0
M  END
>  <CHROM.1>
179.85703609,-171.52327951,-176.55646392,151.85306867,150.85862276,82.48317650
-66.83184557,-175.77590328,62.43956508,0.69376879,93.30513341,10.39484048
0.91579836,-1.18443711,-0.19663312

>  <Name>
2fcy_lig

>  <RI>
224

>  <Rbt.Current_Directory>
/home/itssahil/PROJECTS/Mol_Feturizer/New_Systems/rnas/2fcy

>  <Rbt.Executable>
rbdock ($Id: //depot/dev/client3/rdock/2013.1/src/exe/rbdock.cxx#4 $)

>  <Rbt.Library>
libRbt.so (2013.1, Build901 2013/11/27)

>  <Rbt.Parameter_File>
/export/apps/rDock/src/rDock_2013.1_src/data/scripts/dock_solv.prm

>  <Rbt.Receptor>
prm/pocket_docking_6.prm

>  <SCORE>
-16.2012

>  <SCORE.INTER>
-12.3997

>  <SCORE.INTER.CONST>
1

>  <SCORE.INTER.POLAR>
-1.55615

>  <SCORE.INTER.ROT>
9

>  <SCORE.INTER.SOLV>
17.6541

>  <SCORE.INTER.VDW>
-18.564

>  <SCORE.INTER.norm>
-0.295231

>  <SCORE.INTRA>
-3.80171

>  <SCORE.INTRA.DIHEDRAL>
-7.46313

>  <SCORE.INTRA.DIHEDRAL.0>
17.3446

>  <SCORE.INTRA.POLAR>
0

>  <SCORE.INTRA.POLAR.0>
0

>  <SCORE.INTRA.REPUL>
0

>  <SCORE.INTRA.REPUL.0>
0

>  <SCORE.INTRA.SOLV>
-5.1952

>  <SCORE.INTRA.SOLV.lig_0>
-112.452

>  <SCORE.INTRA.VDW>
2.52746

>  <SCORE.INTRA.VDW.0>
-5.95059

>  <SCORE.INTRA.norm>
-0.0905169

>  <SCORE.RESTR>
0.00020631

>  <SCORE.RESTR.CAVITY>
0.00020631

>  <SCORE.RESTR.norm>
4.91215e-06

>  <SCORE.SYSTEM>
0

>  <SCORE.SYSTEM.CONST>
0

>  <SCORE.SYSTEM.DIHEDRAL>
0

>  <SCORE.SYSTEM.SOLV>
0

>  <SCORE.SYSTEM.norm>
0

>  <SCORE.heavy>
42

>  <SCORE.norm>
-0.385743

>  <RMSD>
6.545

$$$$
2fcy_lig
 OpenBabel11021811433D
libRbt.so/2013.1/901 2013/11/27
 42 45  0  0  0  0  0  0  0  0999 V2000
    1.4012   92.6375   16.6323 C   0  0  2  0  0  0  0  0  0  0  0  0
    1.0571   93.2845   17.8694 O   0  0  0  0  0  0  0  0  0  0  0  0
    0.2498   91.6733   16.3430 C   0  0  2  0  0  0  0  0  0  0  0  0
   -1.0106   92.4283   16.3517 N   0  0  0  0  0  0  0  0  0  0  0  0
    0.2028   90.5922   17.4256 C   0  0  1  0  0  0  0  0  0  0  0  0
   -0.8651   89.6746   17.1738 O   0  0  0  0  0  0  0  0  0  0  0  0
    1.5427   89.8567   17.4661 C   0  0  2  0  0  0  0  0  0  0  0  0
    1.5304   88.9156   18.5394 O   0  0  0  0  0  0  0  0  0  0  0  0
    2.6539   90.8721   17.7369 C   0  0  2  0  0  0  0  0  0  0  0  0
    2.6313   91.8900   16.7240 O   0  0  0  0  0  0  0  0  0  0  0  0
    4.0025   90.1483   17.7698 C   0  0  0  0  0  0  0  0  0  0  0  0
    4.2696   89.4747   16.4901 N   0  0  0  0  0  0  0  0  0  0  0  0
    2.6226   96.9783   19.1150 C   0  0  2  0  0  0  0  0  0  0  0  0
    3.3906   98.1170   19.6407 N   0  0  0  0  0  0  0  0  0  0  0  0
    2.3714   95.9398   20.2101 C   0  0  0  0  0  0  0  0  0  0  0  0
    1.4594   94.8490   19.6395 C   0  0  2  0  0  0  0  0  0  0  0  0
    1.2749   93.7945   20.6469 N   0  0  0  0  0  0  0  0  0  0  0  0
    2.0433   94.1975   18.3825 C   0  0  2  0  0  0  0  0  0  0  0  0
    2.5438   95.1805   17.3301 C   0  0  2  0  0  0  0  0  0  0  0  0
    3.3798   94.4110   16.4508 O   0  0  0  0  0  0  0  0  0  0  0  0
    3.3677   96.3144   17.9544 C   0  0  1  0  0  0  0  0  0  0  0  0
    3.6591   97.3252   16.9857 O   0  0  0  0  0  0  0  0  0  0  0  0
    3.4655   94.8865   15.0977 C   0  0  1  0  0  0  0  0  0  0  0  0
    4.3090   93.8840   14.3085 C   0  0  2  0  0  0  0  0  0  0  0  0
    5.6970   94.1715   14.4948 O   0  0  0  0  0  0  0  0  0  0  0  0
    3.8901   94.2852   12.8971 C   0  0  1  0  0  0  0  0  0  0  0  0
    2.3846   94.3963   13.0788 C   0  0  2  0  0  0  0  0  0  0  0  0
    2.1952   94.9059   14.4149 O   0  0  0  0  0  0  0  0  0  0  0  0
    1.7549   93.0097   12.9022 C   0  0  0  0  0  0  0  0  0  0  0  0
    2.0546   92.4832   11.6064 O   0  0  0  0  0  0  0  0  0  0  0  0
    3.4993   96.3112   11.7832 C   0  0  2  0  0  0  0  0  0  0  0  0
    4.4432   95.5703   12.5717 O   0  0  0  0  0  0  0  0  0  0  0  0
    4.2505   97.2328   10.8169 C   0  0  1  0  0  0  0  0  0  0  0  0
    0.0345   97.4957   13.7589 N   0  0  0  0  0  0  0  0  0  0  0  0
    3.2635   98.1074   10.0363 C   0  0  1  0  0  0  0  0  0  0  0  0
    2.4912   97.3040    9.1382 O   0  0  0  0  0  0  0  0  0  0  0  0
    2.3349   98.8375   11.0104 C   0  0  2  0  0  0  0  0  0  0  0  0
    3.1164   99.7522   11.7863 O   0  0  0  0  0  0  0  0  0  0  0  0
    1.6518   97.8190   11.9293 C   0  0  1  0  0  0  0  0  0  0  0  0
    2.6446   97.0710   12.6556 O   0  0  0  0  0  0  0  0  0  0  0  0
    0.6941   98.4997   12.9111 C   0  0  0  0  0  0  0  0  0  0  0  0
    5.1352   98.1124   11.5957 N   0  0  0  0  0  0  0  0  0  0  0  0
  1  2  1  1  0  0  0
  1  3  1  0  0  0  0
  1 10  1  0  0  0  0
  3  4  1  1  0  0  0
  3  5  1  0  0  0  0
  5  6  1  6  0  0  0
  5  7  1  0  0  0  0
  7  8  1  1  0  0  0
  7  9  1  0  0  0  0
  9 10  1  0  0  0  0
  9 11  1  6  0  0  0
 11 12  1  0  0  0  0
 13 14  1  1  0  0  0
 13 15  1  0  0  0  0
 13 21  1  0  0  0  0
 16 15  1  0  0  0  0
 16 17  1  1  0  0  0
 18  2  1  6  0  0  0
 18 16  1  0  0  0  0
 19 18  1  0  0  0  0
 19 20  1  6  0  0  0
 21 19  1  0  0  0  0
 21 22  1  6  0  0  0
 23 20  1  1  0  0  0
 23 24  1  0  0  0  0
 23 28  1  0  0  0  0
 24 25  1  6  0  0  0
 24 26  1  0  0  0  0
 26 27  1  0  0  0  0
 26 32  1  1  0  0  0
 27 28  1  0  0  0  0
 27 29  1  1  0  0  0
 29 30  1  0  0  0  0
 31 32  1  1  0  0  0
 31 40  1  0  0  0  0
 33 31  1  0  0  0  0
 33 42  1  1  0  0  0
 35 33  1  0  0  0  0
 35 36  1  6  0  0  0
 37 35  1  0  0  0  0
 37 38  1  1  0  0  0
 37 39  1  0  0  0  0
 39 40  1  0  0  0  0
 39 41  1  1  0  0  0
 41 34  1  0  0  0  0
M  END
>  <CHROM.1>
176.81735221,59.73352960,176.24534012,152.04751734,-175.90976904,-143.29587215
-58.87275393,-148.59499380,178.83639049,2.46073441,94.57531284,15.25269251
2.81585488,1.40587797,1.06904297

>  <Name>
2fcy_lig

>  <RI>
9.29634e+06

>  <Rbt.Current_Directory>
/home/itssahil/PROJECTS/Mol_Feturizer/New_Systems/rnas/2fcy

>  <Rbt.Executable>
rbdock ($Id: //depot/dev/client3/rdock/2013.1/src/exe/rbdock.cxx#4 $)

>  <Rbt.Library>
libRbt.so (2013.1, Build901 2013/11/27)

>  <Rbt.Parameter_File>
/export/apps/rDock/src/rDock_2013.1_src/data/scripts/dock_solv.prm

>  <Rbt.Receptor>
prm/blind_docking_100.prm

>  <SCORE>
-2.33993

>  <SCORE.INTER>
-9.21324

>  <SCORE.INTER.CONST>
1

>  <SCORE.INTER.POLAR>
-0.48896

>  <SCORE.INTER.ROT>
9

>  <SCORE.INTER.SOLV>
27.6305

>  <SCORE.INTER.VDW>
-23.3224

>  <SCORE.INTER.norm>
-0.219363

>  <SCORE.INTRA>
1.94103

>  <SCORE.INTRA.DIHEDRAL>
-5.02823

>  <SCORE.INTRA.DIHEDRAL.0>
17.3446

>  <SCORE.INTRA.POLAR>
0

>  <SCORE.INTRA.POLAR.0>
0

>  <SCORE.INTRA.REPUL>
0

>  <SCORE.INTRA.REPUL.0>
0

>  <SCORE.INTRA.SOLV>
-3.06535

>  <SCORE.INTRA.SOLV.lig_0>
-112.452

>  <SCORE.INTRA.VDW>
5.98782

>  <SCORE.INTRA.VDW.0>
-5.95059

>  <SCORE.INTRA.norm>
0.0462149

>  <SCORE.RESTR>
4.93228

>  <SCORE.RESTR.CAVITY>
4.93228

>  <SCORE.RESTR.norm>
0.117435

>  <SCORE.SYSTEM>
0

>  <SCORE.SYSTEM.CONST>
0

>  <SCORE.SYSTEM.DIHEDRAL>
0

>  <SCORE.SYSTEM.SOLV>
0

>  <SCORE.SYSTEM.norm>
0

>  <SCORE.heavy>
42

>  <SCORE.norm>
-0.0557126

>  <RMSD>
6.550

$$$$
2fcy_lig
 OpenBabel11021811433D
libRbt.so/2013.1/901 2013/11/27
 42 45  0  0  0  0  0  0  0  0999 V2000
    0.7092   96.1626   11.5788 C   0  0  2  0  0  0  0  0  0  0  0  0
    1.9091   95.5898   12.1259 O   0  0  0  0  0  0  0  0  0  0  0  0
    1.0744   96.5917   10.1570 C   0  0  2  0  0  0  0  0  0  0  0  0
    1.6247   95.4323    9.4416 N   0  0  0  0  0  0  0  0  0  0  0  0
    2.1266   97.7022   10.2114 C   0  0  1  0  0  0  0  0  0  0  0  0
    2.4815   98.1237    8.8915 O   0  0  0  0  0  0  0  0  0  0  0  0
    1.5802   98.8788   11.0207 C   0  0  2  0  0  0  0  0  0  0  0  0
    2.5971   99.8720   11.1519 O   0  0  0  0  0  0  0  0  0  0  0  0
    1.2140   98.3855   12.4213 C   0  0  2  0  0  0  0  0  0  0  0  0
    0.2608   97.3161   12.3196 O   0  0  0  0  0  0  0  0  0  0  0  0
    0.6559   99.5537   13.2385 C   0  0  0  0  0  0  0  0  0  0  0  0
    0.4183   99.1540   14.6336 N   0  0  0  0  0  0  0  0  0  0  0  0
    2.9659   92.8800   15.1569 C   0  0  2  0  0  0  0  0  0  0  0  0
    3.0890   92.0074   16.3344 N   0  0  0  0  0  0  0  0  0  0  0  0
    2.7914   94.3404   15.5782 C   0  0  0  0  0  0  0  0  0  0  0  0
    2.8026   95.2101   14.3170 C   0  0  2  0  0  0  0  0  0  0  0  0
    2.5487   96.6092   14.6899 N   0  0  0  0  0  0  0  0  0  0  0  0
    1.7273   94.7926   13.3096 C   0  0  2  0  0  0  0  0  0  0  0  0
    1.6781   93.2977   13.0142 C   0  0  2  0  0  0  0  0  0  0  0  0
    0.4054   93.0704   12.3875 O   0  0  0  0  0  0  0  0  0  0  0  0
    1.7723   92.4594   14.2959 C   0  0  1  0  0  0  0  0  0  0  0  0
    1.9228   91.0713   13.9867 O   0  0  0  0  0  0  0  0  0  0  0  0
    0.3744   92.0275   11.3998 C   0  0  1  0  0  0  0  0  0  0  0  0
   -1.0752   91.8730   10.9367 C   0  0  2  0  0  0  0  0  0  0  0  0
   -1.7834   91.0285   11.8471 O   0  0  0  0  0  0  0  0  0  0  0  0
   -0.8257   91.1211    9.6326 C   0  0  1  0  0  0  0  0  0  0  0  0
    0.3221   91.9378    9.0602 C   0  0  2  0  0  0  0  0  0  0  0  0
    1.1042   92.3526   10.1990 O   0  0  0  0  0  0  0  0  0  0  0  0
   -0.2492   93.1359    8.2931 C   0  0  0  0  0  0  0  0  0  0  0  0
   -0.9419   92.6979    7.1207 O   0  0  0  0  0  0  0  0  0  0  0  0
   -0.3558   89.0205    8.7024 C   0  0  2  0  0  0  0  0  0  0  0  0
   -0.3845   89.7841    9.9180 O   0  0  0  0  0  0  0  0  0  0  0  0
    0.1211   87.5960    9.0034 C   0  0  1  0  0  0  0  0  0  0  0  0
    0.7817   91.0667    5.2360 N   0  0  0  0  0  0  0  0  0  0  0  0
    0.2568   86.7923    7.7056 C   0  0  1  0  0  0  0  0  0  0  0  0
   -1.0324   86.5570    7.1304 O   0  0  0  0  0  0  0  0  0  0  0  0
    1.1377   87.5556    6.7128 C   0  0  2  0  0  0  0  0  0  0  0  0
    2.4636   87.6348    7.2470 O   0  0  0  0  0  0  0  0  0  0  0  0
    0.5714   88.9637    6.5012 C   0  0  1  0  0  0  0  0  0  0  0  0
    0.5173   89.6642    7.7578 O   0  0  0  0  0  0  0  0  0  0  0  0
    1.4077   89.7623    5.4977 C   0  0  0  0  0  0  0  0  0  0  0  0
    1.4420   87.6667    9.6462 N   0  0  0  0  0  0  0  0  0  0  0  0
  1  2  1  1  0  0  0
  1  3  1  0  0  0  0
  1 10  1  0  0  0  0
  3  4  1  6  0  0  0
  3  5  1  0  0  0  0
  5  6  1  6  0  0  0
  5  7  1  0  0  0  0
  7  8  1  1  0  0  0
  7  9  1  0  0  0  0
  9 10  1  0  0  0  0
  9 11  1  1  0  0  0
 11 12  1  0  0  0  0
 13 14  1  1  0  0  0
 13 15  1  0  0  0  0
 13 21  1  0  0  0  0
 16 15  1  0  0  0  0
 16 17  1  1  0  0  0
 18  2  1  6  0  0  0
 18 16  1  0  0  0  0
 19 18  1  0  0  0  0
 19 20  1  1  0  0  0
 21 19  1  0  0  0  0
 21 22  1  6  0  0  0
 23 20  1  1  0  0  0
 23 24  1  0  0  0  0
 23 28  1  0  0  0  0
 24 25  1  1  0  0  0
 24 26  1  0  0  0  0
 26 27  1  0  0  0  0
 26 32  1  1  0  0  0
 27 28  1  0  0  0  0
 27 29  1  1  0  0  0
 29 30  1  0  0  0  0
 31 32  1  1  0  0  0
 31 40  1  0  0  0  0
 33 31  1  0  0  0  0
 33 42  1  6  0  0  0
 35 33  1  0  0  0  0
 35 36  1  6  0  0  0
 37 35  1  0  0  0  0
 37 38  1  1  0  0  0
 37 39  1  0  0  0  0
 39 40  1  0  0  0  0
 39 41  1  6  0  0  0
 41 34  1  0  0  0  0
M  END
>  <CHROM.1>
-163.82356611,-174.25988607,-134.00263846,147.16605951,175.73191412,170.93589785
-67.66761949,179.72352509,175.55607932,0.99460924,93.00959122,10.68310215
0.71096387,-1.39515792,-0.31538775

>  <Name>
2fcy_lig

>  <RI>
2.32494e+07

>  <Rbt.Current_Directory>
/home/itssahil/PROJECTS/Mol_Feturizer/New_Systems/rnas/2fcy

>  <Rbt.Executable>
rbdock ($Id: //depot/dev/client3/rdock/2013.1/src/exe/rbdock.cxx#4 $)

>  <Rbt.Library>
libRbt.so (2013.1, Build901 2013/11/27)

>  <Rbt.Parameter_File>
/export/apps/rDock/src/rDock_2013.1_src/data/scripts/dock_solv.prm

>  <Rbt.Receptor>
prm/pocket_docking_8.prm

>  <SCORE>
-18.4502

>  <SCORE.INTER>
-18.2072

>  <SCORE.INTER.CONST>
1

>  <SCORE.INTER.POLAR>
-3.6042

>  <SCORE.INTER.ROT>
9

>  <SCORE.INTER.SOLV>
21.6443

>  <SCORE.INTER.VDW>
-16.9389

>  <SCORE.INTER.norm>
-0.433506

>  <SCORE.INTRA>
-0.242923

>  <SCORE.INTRA.DIHEDRAL>
-4.51151

>  <SCORE.INTRA.DIHEDRAL.0>
17.3446

>  <SCORE.INTRA.POLAR>
0

>  <SCORE.INTRA.POLAR.0>
0

>  <SCORE.INTRA.REPUL>
0.031162

>  <SCORE.INTRA.REPUL.0>
0

>  <SCORE.INTRA.SOLV>
2.02917

>  <SCORE.INTRA.SOLV.lig_0>
-112.452

>  <SCORE.INTRA.VDW>
0.842435

>  <SCORE.INTRA.VDW.0>
-5.95059

>  <SCORE.INTRA.norm>
-0.00578388

>  <SCORE.RESTR>
0

>  <SCORE.RESTR.CAVITY>
0

>  <SCORE.RESTR.norm>
0

>  <SCORE.SYSTEM>
0

>  <SCORE.SYSTEM.CONST>
0

>  <SCORE.SYSTEM.DIHEDRAL>
0

>  <SCORE.SYSTEM.SOLV>
0

>  <SCORE.SYSTEM.norm>
0

>  <SCORE.heavy>
42

>  <SCORE.norm>
-0.43929

>  <RMSD>
6.554

$$$$
2fcy_lig
 OpenBabel11021811433D
libRbt.so/2013.1/901 2013/11/27
 42 45  0  0  0  0  0  0  0  0999 V2000
    3.0943   91.2972   16.8778 C   0  0  2  0  0  0  0  0  0  0  0  0
    1.8831   90.5240   16.8282 O   0  0  0  0  0  0  0  0  0  0  0  0
    4.1143   90.4109   17.5941 C   0  0  2  0  0  0  0  0  0  0  0  0
    4.1949   89.1230   16.8916 N   0  0  0  0  0  0  0  0  0  0  0  0
    3.6638   90.1755   19.0380 C   0  0  1  0  0  0  0  0  0  0  0  0
    4.6055   89.3514   19.7305 O   0  0  0  0  0  0  0  0  0  0  0  0
    3.5076   91.5217   19.7460 C   0  0  2  0  0  0  0  0  0  0  0  0
    2.9951   91.3050   21.0606 O   0  0  0  0  0  0  0  0  0  0  0  0
    2.4948   92.3694   18.9747 C   0  0  2  0  0  0  0  0  0  0  0  0
    2.9350   92.5257   17.6167 O   0  0  0  0  0  0  0  0  0  0  0  0
    2.3374   93.7246   19.6691 C   0  0  0  0  0  0  0  0  0  0  0  0
    1.6857   93.5724   20.9786 N   0  0  0  0  0  0  0  0  0  0  0  0
   -1.6657   91.2727   14.7088 C   0  0  2  0  0  0  0  0  0  0  0  0
   -2.9370   91.7524   14.1460 N   0  0  0  0  0  0  0  0  0  0  0  0
   -1.8143   90.9604   16.1992 C   0  0  0  0  0  0  0  0  0  0  0  0
   -0.5028   90.3430   16.6951 C   0  0  2  0  0  0  0  0  0  0  0  0
   -0.5912   90.1150   18.1446 N   0  0  0  0  0  0  0  0  0  0  0  0
    0.7041   91.2499   16.4374 C   0  0  2  0  0  0  0  0  0  0  0  0
    0.7931   91.8035   15.0197 C   0  0  2  0  0  0  0  0  0  0  0  0
    1.7221   92.8971   15.0907 O   0  0  0  0  0  0  0  0  0  0  0  0
   -0.5640   92.3187   14.5221 C   0  0  1  0  0  0  0  0  0  0  0  0
   -0.5047   92.6490   13.1320 O   0  0  0  0  0  0  0  0  0  0  0  0
    2.1165   93.4627   13.8302 C   0  0  1  0  0  0  0  0  0  0  0  0
    2.0086   94.9836   13.9525 C   0  0  2  0  0  0  0  0  0  0  0  0
    0.6598   95.3909   13.7103 O   0  0  0  0  0  0  0  0  0  0  0  0
    2.8811   95.3767   12.7640 C   0  0  1  0  0  0  0  0  0  0  0  0
    4.0623   94.4414   12.9694 C   0  0  2  0  0  0  0  0  0  0  0  0
    3.5008   93.2243   13.5025 O   0  0  0  0  0  0  0  0  0  0  0  0
    5.0507   95.0895   13.9458 C   0  0  0  0  0  0  0  0  0  0  0  0
    5.5596   96.3131   13.4072 O   0  0  0  0  0  0  0  0  0  0  0  0
    1.1908   96.0374   11.2791 C   0  0  2  0  0  0  0  0  0  0  0  0
    2.2064   95.0558   11.5371 O   0  0  0  0  0  0  0  0  0  0  0  0
    0.5667   95.7797    9.9039 C   0  0  1  0  0  0  0  0  0  0  0  0
    2.0441   99.8481   12.6641 N   0  0  0  0  0  0  0  0  0  0  0  0
   -0.4490   96.8758    9.5640 C   0  0  1  0  0  0  0  0  0  0  0  0
   -1.5869   96.7830   10.4270 O   0  0  0  0  0  0  0  0  0  0  0  0
    0.2047   98.2524    9.7117 C   0  0  2  0  0  0  0  0  0  0  0  0
    1.2357   98.3756    8.7261 O   0  0  0  0  0  0  0  0  0  0  0  0
    0.8016   98.3891   11.1165 C   0  0  1  0  0  0  0  0  0  0  0  0
    1.7740   97.3509   11.3390 O   0  0  0  0  0  0  0  0  0  0  0  0
    1.4507   99.7605   11.3217 C   0  0  0  0  0  0  0  0  0  0  0  0
    1.6322   95.8033    8.8904 N   0  0  0  0  0  0  0  0  0  0  0  0
  1  2  1  1  0  0  0
  1  3  1  0  0  0  0
  1 10  1  0  0  0  0
  3  4  1  6  0  0  0
  3  5  1  0  0  0  0
  5  6  1  1  0  0  0
  5  7  1  0  0  0  0
  7  8  1  1  0  0  0
  7  9  1  0  0  0  0
  9 10  1  0  0  0  0
  9 11  1  1  0  0  0
 11 12  1  0  0  0  0
 13 14  1  1  0  0  0
 13 15  1  0  0  0  0
 13 21  1  0  0  0  0
 16 15  1  0  0  0  0
 16 17  1  1  0  0  0
 18  2  1  6  0  0  0
 18 16  1  0  0  0  0
 19 18  1  0  0  0  0
 19 20  1  1  0  0  0
 21 19  1  0  0  0  0
 21 22  1  6  0  0  0
 23 20  1  1  0  0  0
 23 24  1  0  0  0  0
 23 28  1  0  0  0  0
 24 25  1  6  0  0  0
 24 26  1  0  0  0  0
 26 27  1  0  0  0  0
 26 32  1  6  0  0  0
 27 28  1  0  0  0  0
 27 29  1  1  0  0  0
 29 30  1  0  0  0  0
 31 32  1  6  0  0  0
 31 40  1  0  0  0  0
 33 31  1  0  0  0  0
 33 42  1  6  0  0  0
 35 33  1  0  0  0  0
 35 36  1  1  0  0  0
 37 35  1  0  0  0  0
 37 38  1  6  0  0  0
 37 39  1  0  0  0  0
 39 40  1  0  0  0  0
 39 41  1  6  0  0  0
 41 34  1  0  0  0  0
M  END
>  <CHROM.1>
168.05729661,-67.94330525,-169.58897811,171.49043866,132.85312271,76.88193822
-62.00020976,174.29069502,-178.52068237,1.66679960,93.77667432,14.60311657
-1.42883694,-0.46118105,-0.83359400

>  <Name>
2fcy_lig

>  <RI>
0

>  <Rbt.Current_Directory>
/home/itssahil/PROJECTS/Mol_Feturizer/New_Systems/rnas/2fcy

>  <Rbt.Executable>
rbdock ($Id: //depot/dev/client3/rdock/2013.1/src/exe/rbdock.cxx#4 $)

>  <Rbt.Library>
libRbt.so (2013.1, Build901 2013/11/27)

>  <Rbt.Parameter_File>
/export/apps/rDock/src/rDock_2013.1_src/data/scripts/dock_solv.prm

>  <Rbt.Receptor>
prm/pocket_docking_5.prm

>  <SCORE>
-21.6475

>  <SCORE.INTER>
-20.2517

>  <SCORE.INTER.CONST>
1

>  <SCORE.INTER.POLAR>
-2.38452

>  <SCORE.INTER.ROT>
9

>  <SCORE.INTER.SOLV>
17.8929

>  <SCORE.INTER.VDW>
-21.117

>  <SCORE.INTER.norm>
-0.482183

>  <SCORE.INTRA>
-1.41816

>  <SCORE.INTRA.DIHEDRAL>
-7.28088

>  <SCORE.INTRA.DIHEDRAL.0>
17.3446

>  <SCORE.INTRA.POLAR>
0

>  <SCORE.INTRA.POLAR.0>
0

>  <SCORE.INTRA.REPUL>
0

>  <SCORE.INTRA.REPUL.0>
0

>  <SCORE.INTRA.SOLV>
-3.78644

>  <SCORE.INTRA.SOLV.lig_0>
-112.452

>  <SCORE.INTRA.VDW>
4.11549

>  <SCORE.INTRA.VDW.0>
-5.95059

>  <SCORE.INTRA.norm>
-0.0337658

>  <SCORE.RESTR>
0.0223334

>  <SCORE.RESTR.CAVITY>
0.0223334

>  <SCORE.RESTR.norm>
0.000531747

>  <SCORE.SYSTEM>
0

>  <SCORE.SYSTEM.CONST>
0

>  <SCORE.SYSTEM.DIHEDRAL>
0

>  <SCORE.SYSTEM.SOLV>
0

>  <SCORE.SYSTEM.norm>
0

>  <SCORE.heavy>
42

>  <SCORE.norm>
-0.515417

>  <RMSD>
6.555

$$$$
2fcy_lig
 OpenBabel11021811433D
libRbt.so/2013.1/901 2013/11/27
 42 45  0  0  0  0  0  0  0  0999 V2000
    1.3813   92.6310   16.6465 C   0  0  2  0  0  0  0  0  0  0  0  0
    1.0414   93.2541   17.8969 O   0  0  0  0  0  0  0  0  0  0  0  0
    0.2684   91.6159   16.3815 C   0  0  2  0  0  0  0  0  0  0  0  0
   -1.0249   92.3114   16.4294 N   0  0  0  0  0  0  0  0  0  0  0  0
    0.3009   90.5276   17.4575 C   0  0  1  0  0  0  0  0  0  0  0  0
   -0.7297   89.5628   17.2281 O   0  0  0  0  0  0  0  0  0  0  0  0
    1.6741   89.8551   17.4568 C   0  0  2  0  0  0  0  0  0  0  0  0
    1.7346   88.9083   18.5234 O   0  0  0  0  0  0  0  0  0  0  0  0
    2.7441   90.9195   17.7047 C   0  0  2  0  0  0  0  0  0  0  0  0
    2.6468   91.9409   16.6999 O   0  0  0  0  0  0  0  0  0  0  0  0
    4.1252   90.2590   17.6963 C   0  0  0  0  0  0  0  0  0  0  0  0
    4.3235   89.4384   18.9004 N   0  0  0  0  0  0  0  0  0  0  0  0
    2.6046   96.9315   19.1929 C   0  0  2  0  0  0  0  0  0  0  0  0
    3.3721   98.0634   19.7338 N   0  0  0  0  0  0  0  0  0  0  0  0
    2.3558   95.8773   20.2735 C   0  0  0  0  0  0  0  0  0  0  0  0
    1.4442   94.7938   19.6885 C   0  0  2  0  0  0  0  0  0  0  0  0
    1.2620   93.7250   20.6811 N   0  0  0  0  0  0  0  0  0  0  0  0
    2.0272   94.1608   18.4218 C   0  0  2  0  0  0  0  0  0  0  0  0
    2.5255   95.1591   17.3828 C   0  0  2  0  0  0  0  0  0  0  0  0
    3.3613   94.4030   16.4917 O   0  0  0  0  0  0  0  0  0  0  0  0
    3.3491   96.2849   18.0222 C   0  0  1  0  0  0  0  0  0  0  0  0
    3.6384   97.3096   17.0675 O   0  0  0  0  0  0  0  0  0  0  0  0
    3.4556   94.9054   15.1490 C   0  0  1  0  0  0  0  0  0  0  0  0
    4.3767   93.9664   14.3683 C   0  0  2  0  0  0  0  0  0  0  0  0
    5.7401   94.3302   14.5974 O   0  0  0  0  0  0  0  0  0  0  0  0
    3.9733   94.3665   12.9521 C   0  0  1  0  0  0  0  0  0  0  0  0
    2.4595   94.3878   13.0936 C   0  0  2  0  0  0  0  0  0  0  0  0
    2.2051   94.8631   14.4315 O   0  0  0  0  0  0  0  0  0  0  0  0
    1.9162   92.9705   12.8784 C   0  0  0  0  0  0  0  0  0  0  0  0
    0.4880   92.9622   12.9594 O   0  0  0  0  0  0  0  0  0  0  0  0
    3.5124   96.3725   11.8285 C   0  0  2  0  0  0  0  0  0  0  0  0
    4.4594   95.6867   12.6618 O   0  0  0  0  0  0  0  0  0  0  0  0
    4.2568   97.2997   10.8625 C   0  0  1  0  0  0  0  0  0  0  0  0
   -0.1448   97.4578   13.5812 N   0  0  0  0  0  0  0  0  0  0  0  0
    3.2613   98.1176   10.0327 C   0  0  1  0  0  0  0  0  0  0  0  0
    2.5471   97.2647    9.1323 O   0  0  0  0  0  0  0  0  0  0  0  0
    2.2771   98.8338   10.9616 C   0  0  2  0  0  0  0  0  0  0  0  0
    3.0000   99.7954   11.7376 O   0  0  0  0  0  0  0  0  0  0  0  0
    1.6057   97.8112   11.8846 C   0  0  1  0  0  0  0  0  0  0  0  0
    2.6039   97.1187   12.6572 O   0  0  0  0  0  0  0  0  0  0  0  0
    0.5941   98.4770   12.8215 C   0  0  0  0  0  0  0  0  0  0  0  0
    5.0840   98.2304   11.6452 N   0  0  0  0  0  0  0  0  0  0  0  0
  1  2  1  1  0  0  0
  1  3  1  0  0  0  0
  1 10  1  0  0  0  0
  3  4  1  1  0  0  0
  3  5  1  0  0  0  0
  5  6  1  6  0  0  0
  5  7  1  0  0  0  0
  7  8  1  1  0  0  0
  7  9  1  0  0  0  0
  9 10  1  0  0  0  0
  9 11  1  6  0  0  0
 11 12  1  0  0  0  0
 13 14  1  1  0  0  0
 13 15  1  0  0  0  0
 13 21  1  0  0  0  0
 16 15  1  0  0  0  0
 16 17  1  1  0  0  0
 18  2  1  6  0  0  0
 18 16  1  0  0  0  0
 19 18  1  0  0  0  0
 19 20  1  6  0  0  0
 21 19  1  0  0  0  0
 21 22  1  6  0  0  0
 23 20  1  1  0  0  0
 23 24  1  0  0  0  0
 23 28  1  0  0  0  0
 24 25  1  6  0  0  0
 24 26  1  0  0  0  0
 26 27  1  0  0  0  0
 26 32  1  1  0  0  0
 27 28  1  0  0  0  0
 27 29  1  1  0  0  0
 29 30  1  0  0  0  0
 31 32  1  1  0  0  0
 31 40  1  0  0  0  0
 33 31  1  0  0  0  0
 33 42  1  1  0  0  0
 35 33  1  0  0  0  0
 35 36  1  6  0  0  0
 37 35  1  0  0  0  0
 37 38  1  1  0  0  0
 37 39  1  0  0  0  0
 39 40  1  0  0  0  0
 39 41  1  1  0  0  0
 41 34  1  0  0  0  0
M  END
>  <CHROM.1>
173.94990952,-71.52398171,175.90423974,152.64896015,-179.77383416,-144.84938707
-178.02163920,-146.00362115,173.37833985,2.43249356,94.58820981,15.36428414
2.31804006,1.37440989,1.57165754

>  <Name>
2fcy_lig

>  <RI>
9.29634e+06

>  <Rbt.Current_Directory>
/home/itssahil/PROJECTS/Mol_Feturizer/New_Systems/rnas/2fcy

>  <Rbt.Executable>
rbdock ($Id: //depot/dev/client3/rdock/2013.1/src/exe/rbdock.cxx#4 $)

>  <Rbt.Library>
libRbt.so (2013.1, Build901 2013/11/27)

>  <Rbt.Parameter_File>
/export/apps/rDock/src/rDock_2013.1_src/data/scripts/dock_solv.prm

>  <Rbt.Receptor>
prm/blind_docking_100.prm

>  <SCORE>
-5.26341

>  <SCORE.INTER>
-11.8891

>  <SCORE.INTER.CONST>
1

>  <SCORE.INTER.POLAR>
-0.533766

>  <SCORE.INTER.ROT>
9

>  <SCORE.INTER.SOLV>
22.2719

>  <SCORE.INTER.VDW>
-23.1708

>  <SCORE.INTER.norm>
-0.283073

>  <SCORE.INTRA>
1.65472

>  <SCORE.INTRA.DIHEDRAL>
-4.22413

>  <SCORE.INTRA.DIHEDRAL.0>
17.3446

>  <SCORE.INTRA.POLAR>
0

>  <SCORE.INTRA.POLAR.0>
0

>  <SCORE.INTRA.REPUL>
0

>  <SCORE.INTRA.REPUL.0>
0

>  <SCORE.INTRA.SOLV>
-3.42919

>  <SCORE.INTRA.SOLV.lig_0>
-112.452

>  <SCORE.INTRA.VDW>
5.48138

>  <SCORE.INTRA.VDW.0>
-5.95059

>  <SCORE.INTRA.norm>
0.0393982

>  <SCORE.RESTR>
4.97091

>  <SCORE.RESTR.CAVITY>
4.97091

>  <SCORE.RESTR.norm>
0.118355

>  <SCORE.SYSTEM>
0

>  <SCORE.SYSTEM.CONST>
0

>  <SCORE.SYSTEM.DIHEDRAL>
0

>  <SCORE.SYSTEM.SOLV>
0

>  <SCORE.SYSTEM.norm>
0

>  <SCORE.heavy>
42

>  <SCORE.norm>
-0.125319

>  <RMSD>
6.559

$$$$
2fcy_lig
 OpenBabel11021811433D
libRbt.so/2013.1/901 2013/11/27
 42 45  0  0  0  0  0  0  0  0999 V2000
    0.1641   95.0201   10.8111 C   0  0  2  0  0  0  0  0  0  0  0  0
    1.2981   94.9785   11.6939 O   0  0  0  0  0  0  0  0  0  0  0  0
    0.6323   95.8028    9.5833 C   0  0  2  0  0  0  0  0  0  0  0  0
    1.8449   95.1653    9.0524 N   0  0  0  0  0  0  0  0  0  0  0  0
    0.9503   97.2450    9.9859 C   0  0  1  0  0  0  0  0  0  0  0  0
    1.3869   97.9990    8.8517 O   0  0  0  0  0  0  0  0  0  0  0  0
   -0.2922   97.8834   10.6076 C   0  0  2  0  0  0  0  0  0  0  0  0
    0.0337   99.1941   11.0698 O   0  0  0  0  0  0  0  0  0  0  0  0
   -0.7243   97.0479   11.8136 C   0  0  2  0  0  0  0  0  0  0  0  0
   -0.9676   95.6950   11.3978 O   0  0  0  0  0  0  0  0  0  0  0  0
   -1.9744   97.6723   12.4389 C   0  0  0  0  0  0  0  0  0  0  0  0
   -3.1146   97.6078   11.5123 N   0  0  0  0  0  0  0  0  0  0  0  0
    2.3253   92.5165   14.9389 C   0  0  2  0  0  0  0  0  0  0  0  0
    2.4315   91.7296   16.1768 N   0  0  0  0  0  0  0  0  0  0  0  0
    2.0873   93.9948   15.2530 C   0  0  0  0  0  0  0  0  0  0  0  0
    2.1187   94.7780   13.9366 C   0  0  2  0  0  0  0  0  0  0  0  0
    1.8053   96.1892   14.2038 N   0  0  0  0  0  0  0  0  0  0  0  0
    1.0970   94.2565   12.9219 C   0  0  2  0  0  0  0  0  0  0  0  0
    1.1079   92.7444   12.7276 C   0  0  2  0  0  0  0  0  0  0  0  0
   -0.1318   92.4312   12.0723 O   0  0  0  0  0  0  0  0  0  0  0  0
    1.1800   91.9976   14.0661 C   0  0  1  0  0  0  0  0  0  0  0  0
    1.3873   90.5980   13.8579 O   0  0  0  0  0  0  0  0  0  0  0  0
   -0.0854   91.3390   11.1400 C   0  0  1  0  0  0  0  0  0  0  0  0
   -1.4813   91.1911   10.5323 C   0  0  2  0  0  0  0  0  0  0  0  0
   -2.3042   90.4102   11.4022 O   0  0  0  0  0  0  0  0  0  0  0  0
   -1.1148   90.3670    9.3014 C   0  0  1  0  0  0  0  0  0  0  0  0
    0.1085   91.1285    8.8156 C   0  0  2  0  0  0  0  0  0  0  0  0
    0.7760   91.5857   10.0098 O   0  0  0  0  0  0  0  0  0  0  0  0
   -0.3464   92.2967    7.9332 C   0  0  0  0  0  0  0  0  0  0  0  0
   -0.9235   91.8127    6.7170 O   0  0  0  0  0  0  0  0  0  0  0  0
   -1.2797   88.0908    8.7629 C   0  0  2  0  0  0  0  0  0  0  0  0
   -0.7419   89.0378    9.6984 O   0  0  0  0  0  0  0  0  0  0  0  0
   -0.9164   86.6699    9.2059 C   0  0  1  0  0  0  0  0  0  0  0  0
   -1.4329   87.0763    4.0290 N   0  0  0  0  0  0  0  0  0  0  0  0
   -1.3929   85.6481    8.1680 C   0  0  1  0  0  0  0  0  0  0  0  0
   -2.8229   85.5939    8.1450 O   0  0  0  0  0  0  0  0  0  0  0  0
   -0.8648   86.0310    6.7828 C   0  0  2  0  0  0  0  0  0  0  0  0
    0.5625   85.9202    6.7926 O   0  0  0  0  0  0  0  0  0  0  0  0
   -1.2780   87.4699    6.4557 C   0  0  1  0  0  0  0  0  0  0  0  0
   -0.7560   88.3683    7.4523 O   0  0  0  0  0  0  0  0  0  0  0  0
   -0.7901   87.8944    5.0679 C   0  0  0  0  0  0  0  0  0  0  0  0
    0.5467   86.5703    9.3180 N   0  0  0  0  0  0  0  0  0  0  0  0
  1  2  1  1  0  0  0
  1  3  1  0  0  0  0
  1 10  1  0  0  0  0
  3  4  1  1  0  0  0
  3  5  1  0  0  0  0
  5  6  1  6  0  0  0
  5  7  1  0  0  0  0
  7  8  1  1  0  0  0
  7  9  1  0  0  0  0
  9 10  1  0  0  0  0
  9 11  1  6  0  0  0
 11 12  1  0  0  0  0
 13 14  1  1  0  0  0
 13 15  1  0  0  0  0
 13 21  1  0  0  0  0
 16 15  1  0  0  0  0
 16 17  1  1  0  0  0
 18  2  1  6  0  0  0
 18 16  1  0  0  0  0
 19 18  1  0  0  0  0
 19 20  1  1  0  0  0
 21 19  1  0  0  0  0
 21 22  1  6  0  0  0
 23 20  1  1  0  0  0
 23 24  1  0  0  0  0
 23 28  1  0  0  0  0
 24 25  1  1  0  0  0
 24 26  1  0  0  0  0
 26 27  1  0  0  0  0
 26 32  1  1  0  0  0
 27 28  1  0  0  0  0
 27 29  1  6  0  0  0
 29 30  1  0  0  0  0
 31 32  1  1  0  0  0
 31 40  1  0  0  0  0
 33 31  1  0  0  0  0
 33 42  1  6  0  0  0
 35 33  1  0  0  0  0
 35 36  1  6  0  0  0
 37 35  1  0  0  0  0
 37 38  1  1  0  0  0
 37 39  1  0  0  0  0
 39 40  1  0  0  0  0
 39 41  1  6  0  0  0
 41 34  1  0  0  0  0
M  END
>  <CHROM.1>
-178.72712148,65.04447956,-157.16654201,146.11312365,-178.63348937,139.94113841
-67.60328344,-178.42604751,64.07177220,-0.05566564,92.06517753,10.32552995
1.09439518,-1.25270891,0.02857050

>  <Name>
2fcy_lig

>  <RI>
2.32494e+07

>  <Rbt.Current_Directory>
/home/itssahil/PROJECTS/Mol_Feturizer/New_Systems/rnas/2fcy

>  <Rbt.Executable>
rbdock ($Id: //depot/dev/client3/rdock/2013.1/src/exe/rbdock.cxx#4 $)

>  <Rbt.Library>
libRbt.so (2013.1, Build901 2013/11/27)

>  <Rbt.Parameter_File>
/export/apps/rDock/src/rDock_2013.1_src/data/scripts/dock_solv.prm

>  <Rbt.Receptor>
prm/pocket_docking_8.prm

>  <SCORE>
-21.8975

>  <SCORE.INTER>
-18.7746

>  <SCORE.INTER.CONST>
1

>  <SCORE.INTER.POLAR>
-4.09822

>  <SCORE.INTER.ROT>
9

>  <SCORE.INTER.SOLV>
15.4313

>  <SCORE.INTER.VDW>
-13.5994

>  <SCORE.INTER.norm>
-0.447014

>  <SCORE.INTRA>
-3.12293

>  <SCORE.INTRA.DIHEDRAL>
-4.90078

>  <SCORE.INTRA.DIHEDRAL.0>
17.3446

>  <SCORE.INTRA.POLAR>
0

>  <SCORE.INTRA.POLAR.0>
0

>  <SCORE.INTRA.REPUL>
0

>  <SCORE.INTRA.REPUL.0>
0

>  <SCORE.INTRA.SOLV>
-2.44005

>  <SCORE.INTRA.SOLV.lig_0>
-112.452

>  <SCORE.INTRA.VDW>
0.547488

>  <SCORE.INTRA.VDW.0>
-5.95059

>  <SCORE.INTRA.norm>
-0.0743555

>  <SCORE.RESTR>
0

>  <SCORE.RESTR.CAVITY>
0

>  <SCORE.RESTR.norm>
0

>  <SCORE.SYSTEM>
0

>  <SCORE.SYSTEM.CONST>
0

>  <SCORE.SYSTEM.DIHEDRAL>
0

>  <SCORE.SYSTEM.SOLV>
0

>  <SCORE.SYSTEM.norm>
0

>  <SCORE.heavy>
42

>  <SCORE.norm>
-0.52137

>  <RMSD>
6.561

$$$$
2fcy_lig
 OpenBabel11021811433D
libRbt.so/2013.1/901 2013/11/27
 42 45  0  0  0  0  0  0  0  0999 V2000
    0.1285   94.5132   10.2867 C   0  0  2  0  0  0  0  0  0  0  0  0
    1.1420   94.8463   11.2506 O   0  0  0  0  0  0  0  0  0  0  0  0
    0.2154   95.5985    9.2127 C   0  0  2  0  0  0  0  0  0  0  0  0
    1.5950   95.6550    8.7104 N   0  0  0  0  0  0  0  0  0  0  0  0
   -0.1605   96.9521    9.8207 C   0  0  1  0  0  0  0  0  0  0  0  0
   -0.0906   97.9839    8.8326 O   0  0  0  0  0  0  0  0  0  0  0  0
   -1.5689   96.8694   10.4101 C   0  0  2  0  0  0  0  0  0  0  0  0
   -1.8794   98.1013   11.0610 O   0  0  0  0  0  0  0  0  0  0  0  0
   -1.5993   95.7567   11.4591 C   0  0  2  0  0  0  0  0  0  0  0  0
   -1.1969   94.5171   10.8557 O   0  0  0  0  0  0  0  0  0  0  0  0
   -3.0083   95.6576   12.0497 C   0  0  0  0  0  0  0  0  0  0  0  0
   -3.1191   94.5048   12.9560 N   0  0  0  0  0  0  0  0  0  0  0  0
    2.3863   92.7517   14.6726 C   0  0  2  0  0  0  0  0  0  0  0  0
    2.5627   92.0780   15.9680 N   0  0  0  0  0  0  0  0  0  0  0  0
    2.0150   94.2226   14.8708 C   0  0  0  0  0  0  0  0  0  0  0  0
    1.9760   94.8989   13.4966 C   0  0  2  0  0  0  0  0  0  0  0  0
    1.5358   96.2926   13.6539 N   0  0  0  0  0  0  0  0  0  0  0  0
    1.0065   94.2085   12.5329 C   0  0  2  0  0  0  0  0  0  0  0  0
    1.1546   92.6929   12.4583 C   0  0  2  0  0  0  0  0  0  0  0  0
   -0.0512   92.2181   11.8379 O   0  0  0  0  0  0  0  0  0  0  0  0
    1.2933   92.0639   13.8510 C   0  0  1  0  0  0  0  0  0  0  0  0
    1.6269   90.6768   13.7524 O   0  0  0  0  0  0  0  0  0  0  0  0
    0.0946   91.0640   10.9945 C   0  0  1  0  0  0  0  0  0  0  0  0
   -1.2767   90.7575   10.3902 C   0  0  2  0  0  0  0  0  0  0  0  0
   -2.0465   89.9830   11.3128 O   0  0  0  0  0  0  0  0  0  0  0  0
   -0.8292   89.8725    9.2305 C   0  0  1  0  0  0  0  0  0  0  0  0
    0.3360   90.6899    8.6953 C   0  0  2  0  0  0  0  0  0  0  0  0
    0.9489   91.2906    9.8547 O   0  0  0  0  0  0  0  0  0  0  0  0
   -0.1985   91.7457    7.7206 C   0  0  0  0  0  0  0  0  0  0  0  0
   -1.0793   92.6502    8.3932 O   0  0  0  0  0  0  0  0  0  0  0  0
   -0.1750   87.6995    8.6403 C   0  0  2  0  0  0  0  0  0  0  0  0
   -0.3570   88.6125    9.7333 O   0  0  0  0  0  0  0  0  0  0  0  0
   -1.5352   87.3653    8.0197 C   0  0  1  0  0  0  0  0  0  0  0  0
    0.9000   83.8498    9.8300 N   0  0  0  0  0  0  0  0  0  0  0  0
   -1.3756   86.3137    6.9165 C   0  0  1  0  0  0  0  0  0  0  0  0
   -0.6701   86.8674    5.8013 O   0  0  0  0  0  0  0  0  0  0  0  0
   -0.6165   85.1010    7.4619 C   0  0  2  0  0  0  0  0  0  0  0  0
   -1.4207   84.4738    8.4666 O   0  0  0  0  0  0  0  0  0  0  0  0
    0.7159   85.5584    8.0652 C   0  0  1  0  0  0  0  0  0  0  0  0
    0.4759   86.5095    9.1191 O   0  0  0  0  0  0  0  0  0  0  0  0
    1.5241   84.3764    8.6073 C   0  0  0  0  0  0  0  0  0  0  0  0
   -2.4080   86.8119    9.0662 N   0  0  0  0  0  0  0  0  0  0  0  0
  1  2  1  1  0  0  0
  1  3  1  0  0  0  0
  1 10  1  0  0  0  0
  3  4  1  1  0  0  0
  3  5  1  0  0  0  0
  5  6  1  6  0  0  0
  5  7  1  0  0  0  0
  7  8  1  1  0  0  0
  7  9  1  0  0  0  0
  9 10  1  0  0  0  0
  9 11  1  6  0  0  0
 11 12  1  0  0  0  0
 13 14  1  1  0  0  0
 13 15  1  0  0  0  0
 13 21  1  0  0  0  0
 16 15  1  0  0  0  0
 16 17  1  1  0  0  0
 18  2  1  6  0  0  0
 18 16  1  0  0  0  0
 19 18  1  0  0  0  0
 19 20  1  1  0  0  0
 21 19  1  0  0  0  0
 21 22  1  6  0  0  0
 23 20  1  1  0  0  0
 23 24  1  0  0  0  0
 23 28  1  0  0  0  0
 24 25  1  1  0  0  0
 24 26  1  0  0  0  0
 26 27  1  0  0  0  0
 26 32  1  1  0  0  0
 27 28  1  0  0  0  0
 27 29  1  6  0  0  0
 29 30  1  0  0  0  0
 31 32  1  1  0  0  0
 31 40  1  0  0  0  0
 33 31  1  0  0  0  0
 33 42  1  1  0  0  0
 35 33  1  0  0  0  0
 35 36  1  6  0  0  0
 37 35  1  0  0  0  0
 37 38  1  1  0  0  0
 37 39  1  0  0  0  0
 39 40  1  0  0  0  0
 39 41  1  1  0  0  0
 41 34  1  0  0  0  0
M  END
>  <CHROM.1>
162.77563347,173.83199795,-168.23201082,146.12980946,-177.66092133,169.30766969
62.23435500,-66.54668836,-71.54254068,-0.08691150,91.53259816,10.46796314
1.49110011,-1.10051225,0.27066358

>  <Name>
2fcy_lig

>  <RI>
2.32494e+07

>  <Rbt.Current_Directory>
/home/itssahil/PROJECTS/Mol_Feturizer/New_Systems/rnas/2fcy

>  <Rbt.Executable>
rbdock ($Id: //depot/dev/client3/rdock/2013.1/src/exe/rbdock.cxx#4 $)

>  <Rbt.Library>
libRbt.so (2013.1, Build901 2013/11/27)

>  <Rbt.Parameter_File>
/export/apps/rDock/src/rDock_2013.1_src/data/scripts/dock_solv.prm

>  <Rbt.Receptor>
prm/pocket_docking_8.prm

>  <SCORE>
-28.0486

>  <SCORE.INTER>
-24.6384

>  <SCORE.INTER.CONST>
1

>  <SCORE.INTER.POLAR>
-5.77775

>  <SCORE.INTER.ROT>
9

>  <SCORE.INTER.SOLV>
19.4694

>  <SCORE.INTER.VDW>
-13.2562

>  <SCORE.INTER.norm>
-0.586628

>  <SCORE.INTRA>
-3.43251

>  <SCORE.INTRA.DIHEDRAL>
-9.00327

>  <SCORE.INTRA.DIHEDRAL.0>
17.3446

>  <SCORE.INTRA.POLAR>
0

>  <SCORE.INTRA.POLAR.0>
0

>  <SCORE.INTRA.REPUL>
0

>  <SCORE.INTRA.REPUL.0>
0

>  <SCORE.INTRA.SOLV>
-0.974835

>  <SCORE.INTRA.SOLV.lig_0>
-112.452

>  <SCORE.INTRA.VDW>
1.55654

>  <SCORE.INTRA.VDW.0>
-5.95059

>  <SCORE.INTRA.norm>
-0.0817265

>  <SCORE.RESTR>
0.0223532

>  <SCORE.RESTR.CAVITY>
0.0223532

>  <SCORE.RESTR.norm>
0.000532218

>  <SCORE.SYSTEM>
0

>  <SCORE.SYSTEM.CONST>
0

>  <SCORE.SYSTEM.DIHEDRAL>
0

>  <SCORE.SYSTEM.SOLV>
0

>  <SCORE.SYSTEM.norm>
0

>  <SCORE.heavy>
42

>  <SCORE.norm>
-0.667823

>  <RMSD>
6.624

$$$$
2fcy_lig
 OpenBabel11021811433D
libRbt.so/2013.1/901 2013/11/27
 42 45  0  0  0  0  0  0  0  0999 V2000
    0.2509   94.8142   10.7895 C   0  0  2  0  0  0  0  0  0  0  0  0
    1.2693   95.0471   11.7774 O   0  0  0  0  0  0  0  0  0  0  0  0
    0.6593   95.6534    9.5779 C   0  0  2  0  0  0  0  0  0  0  0  0
    2.0305   95.2909    9.1942 N   0  0  0  0  0  0  0  0  0  0  0  0
    0.6093   97.1391    9.9434 C   0  0  1  0  0  0  0  0  0  0  0  0
    0.9837   97.9454    8.8230 O   0  0  0  0  0  0  0  0  0  0  0  0
   -0.8005   97.4979   10.4144 C   0  0  2  0  0  0  0  0  0  0  0  0
   -0.8201   98.8584   10.8459 O   0  0  0  0  0  0  0  0  0  0  0  0
   -1.1600   96.6147   11.6102 C   0  0  2  0  0  0  0  0  0  0  0  0
   -1.0557   95.2325   11.2346 O   0  0  0  0  0  0  0  0  0  0  0  0
   -2.5745   96.9582   12.0847 C   0  0  0  0  0  0  0  0  0  0  0  0
   -2.5884   98.2327   12.8183 N   0  0  0  0  0  0  0  0  0  0  0  0
    2.3984   92.6957   15.0701 C   0  0  2  0  0  0  0  0  0  0  0  0
    2.5367   91.9376   16.3228 N   0  0  0  0  0  0  0  0  0  0  0  0
    2.0914   94.1670   15.3560 C   0  0  0  0  0  0  0  0  0  0  0  0
    2.0909   94.9263   14.0253 C   0  0  2  0  0  0  0  0  0  0  0  0
    1.7119   96.3262   14.2654 N   0  0  0  0  0  0  0  0  0  0  0  0
    1.0977   94.3395   13.0181 C   0  0  2  0  0  0  0  0  0  0  0  0
    1.1790   92.8261   12.8520 C   0  0  2  0  0  0  0  0  0  0  0  0
   -0.0427   92.4439   12.1997 O   0  0  0  0  0  0  0  0  0  0  0  0
    1.2811   92.1084   14.2044 C   0  0  1  0  0  0  0  0  0  0  0  0
    1.5535   90.7163   14.0229 O   0  0  0  0  0  0  0  0  0  0  0  0
    0.0842   91.4458   11.1740 C   0  0  1  0  0  0  0  0  0  0  0  0
   -1.3164   91.1653   10.6270 C   0  0  2  0  0  0  0  0  0  0  0  0
   -1.9788   90.2157   11.4655 O   0  0  0  0  0  0  0  0  0  0  0  0
   -0.9248   90.4982    9.3116 C   0  0  1  0  0  0  0  0  0  0  0  0
    0.1600   91.4503    8.8333 C   0  0  2  0  0  0  0  0  0  0  0  0
    0.8364   91.8936   10.0278 O   0  0  0  0  0  0  0  0  0  0  0  0
   -0.4924   92.6158    8.0809 C   0  0  0  0  0  0  0  0  0  0  0  0
   -1.0293   92.1699    6.8322 O   0  0  0  0  0  0  0  0  0  0  0  0
   -0.2398   88.4783    8.3372 C   0  0  2  0  0  0  0  0  0  0  0  0
   -0.3630   89.2019    9.5712 O   0  0  0  0  0  0  0  0  0  0  0  0
   -1.6026   87.8989    7.9446 C   0  0  1  0  0  0  0  0  0  0  0  0
    3.3617   86.3699    7.5225 N   0  0  0  0  0  0  0  0  0  0  0  0
   -1.4741   87.0373    6.6839 C   0  0  1  0  0  0  0  0  0  0  0  0
   -1.1642   87.8567    5.5522 O   0  0  0  0  0  0  0  0  0  0  0  0
   -0.3765   85.9883    6.8824 C   0  0  2  0  0  0  0  0  0  0  0  0
   -0.7894   85.0862    7.9145 O   0  0  0  0  0  0  0  0  0  0  0  0
    0.9301   86.6819    7.2824 C   0  0  1  0  0  0  0  0  0  0  0  0
    0.7351   87.4326    8.4953 O   0  0  0  0  0  0  0  0  0  0  0  0
    2.0672   85.6745    7.4729 C   0  0  0  0  0  0  0  0  0  0  0  0
   -2.0870   87.0475    9.0417 N   0  0  0  0  0  0  0  0  0  0  0  0
  1  2  1  1  0  0  0
  1  3  1  0  0  0  0
  1 10  1  0  0  0  0
  3  4  1  1  0  0  0
  3  5  1  0  0  0  0
  5  6  1  6  0  0  0
  5  7  1  0  0  0  0
  7  8  1  1  0  0  0
  7  9  1  0  0  0  0
  9 10  1  0  0  0  0
  9 11  1  6  0  0  0
 11 12  1  0  0  0  0
 13 14  1  1  0  0  0
 13 15  1  0  0  0  0
 13 21  1  0  0  0  0
 16 15  1  0  0  0  0
 16 17  1  1  0  0  0
 18  2  1  6  0  0  0
 18 16  1  0  0  0  0
 19 18  1  0  0  0  0
 19 20  1  1  0  0  0
 21 19  1  0  0  0  0
 21 22  1  6  0  0  0
 23 20  1  1  0  0  0
 23 24  1  0  0  0  0
 23 28  1  0  0  0  0
 24 25  1  1  0  0  0
 24 26  1  0  0  0  0
 26 27  1  0  0  0  0
 26 32  1  1  0  0  0
 27 28  1  0  0  0  0
 27 29  1  1  0  0  0
 29 30  1  0  0  0  0
 31 32  1  1  0  0  0
 31 40  1  0  0  0  0
 33 31  1  0  0  0  0
 33 42  1  1  0  0  0
 35 33  1  0  0  0  0
 35 36  1  6  0  0  0
 37 35  1  0  0  0  0
 37 38  1  1  0  0  0
 37 39  1  0  0  0  0
 39 40  1  0  0  0  0
 39 41  1  1  0  0  0
 41 34  1  0  0  0  0
M  END
>  <CHROM.1>
-179.46551560,-75.12578242,-168.47465697,139.05963808,179.06936827,168.83248509
-69.96418821,-79.34437104,165.93061098,0.15461105,92.08521598,10.44045460
1.48210903,-1.16094106,0.38063074

>  <Name>
2fcy_lig

>  <RI>
2.89127e+07

>  <Rbt.Current_Directory>
/home/itssahil/PROJECTS/Mol_Feturizer/New_Systems/rnas/2fcy

>  <Rbt.Executable>
rbdock ($Id: //depot/dev/client3/rdock/2013.1/src/exe/rbdock.cxx#4 $)

>  <Rbt.Library>
libRbt.so (2013.1, Build901 2013/11/27)

>  <Rbt.Parameter_File>
/export/apps/rDock/src/rDock_2013.1_src/data/scripts/dock_solv.prm

>  <Rbt.Receptor>
prm/pocket_docking_7.prm

>  <SCORE>
-17.2572

>  <SCORE.INTER>
-13.1704

>  <SCORE.INTER.CONST>
1

>  <SCORE.INTER.POLAR>
-3.28255

>  <SCORE.INTER.ROT>
9

>  <SCORE.INTER.SOLV>
19.0243

>  <SCORE.INTER.VDW>
-13.7799

>  <SCORE.INTER.norm>
-0.313581

>  <SCORE.INTRA>
-4.09291

>  <SCORE.INTRA.DIHEDRAL>
-6.45722

>  <SCORE.INTRA.DIHEDRAL.0>
17.3446

>  <SCORE.INTRA.POLAR>
0

>  <SCORE.INTRA.POLAR.0>
0

>  <SCORE.INTRA.REPUL>
0

>  <SCORE.INTRA.REPUL.0>
0

>  <SCORE.INTRA.SOLV>
-3.49081

>  <SCORE.INTRA.SOLV.lig_0>
-112.452

>  <SCORE.INTRA.VDW>
0.881101

>  <SCORE.INTRA.VDW.0>
-5.95059

>  <SCORE.INTRA.norm>
-0.0974503

>  <SCORE.RESTR>
0.00613788

>  <SCORE.RESTR.CAVITY>
0.00613788

>  <SCORE.RESTR.norm>
0.00014614

>  <SCORE.SYSTEM>
0

>  <SCORE.SYSTEM.CONST>
0

>  <SCORE.SYSTEM.DIHEDRAL>
0

>  <SCORE.SYSTEM.SOLV>
0

>  <SCORE.SYSTEM.norm>
0

>  <SCORE.heavy>
42

>  <SCORE.norm>
-0.410885

>  <RMSD>
6.628

$$$$
2fcy_lig
 OpenBabel11021811433D
libRbt.so/2013.1/901 2013/11/27
 42 45  0  0  0  0  0  0  0  0999 V2000
    1.5957   96.1116   10.9503 C   0  0  2  0  0  0  0  0  0  0  0  0
    2.2891   96.1810   12.2079 O   0  0  0  0  0  0  0  0  0  0  0  0
    2.2551   97.1681   10.0627 C   0  0  2  0  0  0  0  0  0  0  0  0
    3.7014   96.9125   10.0211 N   0  0  0  0  0  0  0  0  0  0  0  0
    2.0010   98.5597   10.6477 C   0  0  1  0  0  0  0  0  0  0  0  0
    2.6055   99.5664    9.8311 O   0  0  0  0  0  0  0  0  0  0  0  0
    0.4944   98.7947   10.7604 C   0  0  2  0  0  0  0  0  0  0  0  0
    0.2607  100.0519   11.3948 O   0  0  0  0  0  0  0  0  0  0  0  0
   -0.1107   97.6990   11.6392 C   0  0  2  0  0  0  0  0  0  0  0  0
    0.1907   96.4120   11.0776 O   0  0  0  0  0  0  0  0  0  0  0  0
   -1.6217   97.9182   11.7514 C   0  0  0  0  0  0  0  0  0  0  0  0
   -2.2406   96.8919   12.6035 N   0  0  0  0  0  0  0  0  0  0  0  0
    2.7214   93.0521   14.9773 C   0  0  2  0  0  0  0  0  0  0  0  0
    2.6046   92.0171   16.0156 N   0  0  0  0  0  0  0  0  0  0  0  0
    2.4231   94.4374   15.5544 C   0  0  0  0  0  0  0  0  0  0  0  0
    2.6894   95.4807   14.4645 C   0  0  2  0  0  0  0  0  0  0  0  0
    2.3258   96.8128   14.9687 N   0  0  0  0  0  0  0  0  0  0  0  0
    1.8717   95.2221   13.1957 C   0  0  2  0  0  0  0  0  0  0  0  0
    1.9251   93.7862   12.6858 C   0  0  2  0  0  0  0  0  0  0  0  0
    0.8267   93.6622   11.7680 O   0  0  0  0  0  0  0  0  0  0  0  0
    1.7563   92.7702   13.8232 C   0  0  1  0  0  0  0  0  0  0  0  0
    2.0049   91.4405   13.3593 O   0  0  0  0  0  0  0  0  0  0  0  0
    1.0718   92.8494   10.6089 C   0  0  1  0  0  0  0  0  0  0  0  0
   -0.2831   92.3655   10.0894 C   0  0  2  0  0  0  0  0  0  0  0  0
   -0.6892   91.2031   10.8156 O   0  0  0  0  0  0  0  0  0  0  0  0
    0.1368   91.9643    8.6783 C   0  0  1  0  0  0  0  0  0  0  0  0
    0.9811   93.1680    8.2905 C   0  0  2  0  0  0  0  0  0  0  0  0
    1.6412   93.5818    9.5045 O   0  0  0  0  0  0  0  0  0  0  0  0
    0.0648   94.2652    7.7366 C   0  0  0  0  0  0  0  0  0  0  0  0
   -0.8461   94.7150    8.7437 O   0  0  0  0  0  0  0  0  0  0  0  0
    0.2208   89.6698    8.2026 C   0  0  2  0  0  0  0  0  0  0  0  0
    0.9552   90.7849    8.7304 O   0  0  0  0  0  0  0  0  0  0  0  0
   -0.4257   88.8913    9.3529 C   0  0  1  0  0  0  0  0  0  0  0  0
    0.6560   86.0122    5.0871 N   0  0  0  0  0  0  0  0  0  0  0  0
   -1.1303   87.6386    8.8212 C   0  0  1  0  0  0  0  0  0  0  0  0
   -2.2691   88.0053    8.0357 O   0  0  0  0  0  0  0  0  0  0  0  0
   -0.1563   86.8166    7.9726 C   0  0  2  0  0  0  0  0  0  0  0  0
    0.8885   86.3293    8.8214 O   0  0  0  0  0  0  0  0  0  0  0  0
    0.4331   87.6997    6.8676 C   0  0  1  0  0  0  0  0  0  0  0  0
    1.1121   88.8272    7.4511 O   0  0  0  0  0  0  0  0  0  0  0  0
    1.4004   86.9161    5.9763 C   0  0  0  0  0  0  0  0  0  0  0  0
    0.6281   88.4698   10.2882 N   0  0  0  0  0  0  0  0  0  0  0  0
  1  2  1  1  0  0  0
  1  3  1  0  0  0  0
  1 10  1  0  0  0  0
  3  4  1  1  0  0  0
  3  5  1  0  0  0  0
  5  6  1  6  0  0  0
  5  7  1  0  0  0  0
  7  8  1  1  0  0  0
  7  9  1  0  0  0  0
  9 10  1  0  0  0  0
  9 11  1  6  0  0  0
 11 12  1  0  0  0  0
 13 14  1  1  0  0  0
 13 15  1  0  0  0  0
 13 21  1  0  0  0  0
 16 15  1  0  0  0  0
 16 17  1  1  0  0  0
 18  2  1  6  0  0  0
 18 16  1  0  0  0  0
 19 18  1  0  0  0  0
 19 20  1  6  0  0  0
 21 19  1  0  0  0  0
 21 22  1  6  0  0  0
 23 20  1  1  0  0  0
 23 24  1  0  0  0  0
 23 28  1  0  0  0  0
 24 25  1  1  0  0  0
 24 26  1  0  0  0  0
 26 27  1  0  0  0  0
 26 32  1  1  0  0  0
 27 28  1  0  0  0  0
 27 29  1  1  0  0  0
 29 30  1  0  0  0  0
 31 32  1  1  0  0  0
 31 40  1  0  0  0  0
 33 31  1  0  0  0  0
 33 42  1  1  0  0  0
 35 33  1  0  0  0  0
 35 36  1  6  0  0  0
 37 35  1  0  0  0  0
 37 38  1  1  0  0  0
 37 39  1  0  0  0  0
 39 40  1  0  0  0  0
 39 41  1  1  0  0  0
 41 34  1  0  0  0  0
M  END
>  <CHROM.1>
-177.36356723,-179.33215880,-178.36657888,142.89374243,156.96242934,109.11526160
63.19503679,-95.98116820,73.99089136,0.86947843,93.12191200,10.54642402,1.16636356
-1.28504854,0.04172286

>  <Name>
2fcy_lig

>  <RI>
2.89127e+07

>  <Rbt.Current_Directory>
/home/itssahil/PROJECTS/Mol_Feturizer/New_Systems/rnas/2fcy

>  <Rbt.Executable>
rbdock ($Id: //depot/dev/client3/rdock/2013.1/src/exe/rbdock.cxx#4 $)

>  <Rbt.Library>
libRbt.so (2013.1, Build901 2013/11/27)

>  <Rbt.Parameter_File>
/export/apps/rDock/src/rDock_2013.1_src/data/scripts/dock_solv.prm

>  <Rbt.Receptor>
prm/pocket_docking_7.prm

>  <SCORE>
-20.7311

>  <SCORE.INTER>
-21.6533

>  <SCORE.INTER.CONST>
1

>  <SCORE.INTER.POLAR>
-3.50154

>  <SCORE.INTER.ROT>
9

>  <SCORE.INTER.SOLV>
17.3815

>  <SCORE.INTER.VDW>
-18.1575

>  <SCORE.INTER.norm>
-0.515554

>  <SCORE.INTRA>
0.869952

>  <SCORE.INTRA.DIHEDRAL>
1.9352

>  <SCORE.INTRA.DIHEDRAL.0>
17.3446

>  <SCORE.INTRA.POLAR>
0

>  <SCORE.INTRA.POLAR.0>
0

>  <SCORE.INTRA.REPUL>
0

>  <SCORE.INTRA.REPUL.0>
0

>  <SCORE.INTRA.SOLV>
-2.96415

>  <SCORE.INTRA.SOLV.lig_0>
-112.452

>  <SCORE.INTRA.VDW>
1.38442

>  <SCORE.INTRA.VDW.0>
-5.95059

>  <SCORE.INTRA.norm>
0.0207131

>  <SCORE.RESTR>
0.0522042

>  <SCORE.RESTR.CAVITY>
0.0522042

>  <SCORE.RESTR.norm>
0.00124296

>  <SCORE.SYSTEM>
0

>  <SCORE.SYSTEM.CONST>
0

>  <SCORE.SYSTEM.DIHEDRAL>
0

>  <SCORE.SYSTEM.SOLV>
0

>  <SCORE.SYSTEM.norm>
0

>  <SCORE.heavy>
42

>  <SCORE.norm>
-0.493598

>  <RMSD>
6.684

$$$$
2fcy_lig
 OpenBabel11021811433D
libRbt.so/2013.1/901 2013/11/27
 42 45  0  0  0  0  0  0  0  0999 V2000
    1.4276   97.3674   12.8246 C   0  0  2  0  0  0  0  0  0  0  0  0
    2.1467   96.1322   12.6674 O   0  0  0  0  0  0  0  0  0  0  0  0
    0.1217   97.1796   12.0511 C   0  0  2  0  0  0  0  0  0  0  0  0
   -0.5498   95.9703   12.5467 N   0  0  0  0  0  0  0  0  0  0  0  0
    0.4282   97.0165   10.5603 C   0  0  1  0  0  0  0  0  0  0  0  0
   -0.7800   96.8435    9.8146 O   0  0  0  0  0  0  0  0  0  0  0  0
    1.1935   98.2433   10.0631 C   0  0  2  0  0  0  0  0  0  0  0  0
    1.5623   98.0462    8.6982 O   0  0  0  0  0  0  0  0  0  0  0  0
    2.4748   98.3911   10.8851 C   0  0  2  0  0  0  0  0  0  0  0  0
    2.1419   98.4951   12.2782 O   0  0  0  0  0  0  0  0  0  0  0  0
    3.2452   99.6229   10.4026 C   0  0  0  0  0  0  0  0  0  0  0  0
    4.4952   99.7914   11.1588 N   0  0  0  0  0  0  0  0  0  0  0  0
    2.6070   92.7680   15.1406 C   0  0  2  0  0  0  0  0  0  0  0  0
    2.4947   91.6317   16.0675 N   0  0  0  0  0  0  0  0  0  0  0  0
    2.2166   94.0753   15.8330 C   0  0  0  0  0  0  0  0  0  0  0  0
    2.4799   95.2315   14.8630 C   0  0  2  0  0  0  0  0  0  0  0  0
    2.0302   96.4903   15.4747 N   0  0  0  0  0  0  0  0  0  0  0  0
    1.7329   95.0633   13.5367 C   0  0  2  0  0  0  0  0  0  0  0  0
    1.8784   93.6884   12.8942 C   0  0  2  0  0  0  0  0  0  0  0  0
    0.8292   93.6071   11.9162 O   0  0  0  0  0  0  0  0  0  0  0  0
    1.7089   92.5589   13.9190 C   0  0  1  0  0  0  0  0  0  0  0  0
    2.0420   91.2935   13.3419 O   0  0  0  0  0  0  0  0  0  0  0  0
    1.1414   92.8629   10.7275 C   0  0  1  0  0  0  0  0  0  0  0  0
   -0.1612   92.2493   10.2114 C   0  0  2  0  0  0  0  0  0  0  0  0
   -0.4246   91.0270   10.9044 O   0  0  0  0  0  0  0  0  0  0  0  0
    0.2752   91.9412    8.7820 C   0  0  1  0  0  0  0  0  0  0  0  0
    0.9755   93.2422    8.4224 C   0  0  2  0  0  0  0  0  0  0  0  0
    1.6075   93.6878    9.6400 O   0  0  0  0  0  0  0  0  0  0  0  0
   -0.0651   94.2486    7.9180 C   0  0  0  0  0  0  0  0  0  0  0  0
   -0.5843   93.8410    6.6489 O   0  0  0  0  0  0  0  0  0  0  0  0
    0.6898   89.7622    8.0215 C   0  0  2  0  0  0  0  0  0  0  0  0
    1.2187   90.8581    8.7835 O   0  0  0  0  0  0  0  0  0  0  0  0
   -0.3380   89.0006    8.8646 C   0  0  1  0  0  0  0  0  0  0  0  0
    2.0567   85.8760    5.4656 N   0  0  0  0  0  0  0  0  0  0  0  0
   -0.8410   87.7665    8.1081 C   0  0  1  0  0  0  0  0  0  0  0  0
   -1.6224   88.1624    6.9763 O   0  0  0  0  0  0  0  0  0  0  0  0
    0.3488   86.9197    7.6479 C   0  0  2  0  0  0  0  0  0  0  0  0
    1.0171   86.4057    8.8049 O   0  0  0  0  0  0  0  0  0  0  0  0
    1.3097   87.7874    6.8281 C   0  0  1  0  0  0  0  0  0  0  0  0
    1.7676   88.8970    7.6230 O   0  0  0  0  0  0  0  0  0  0  0  0
    2.5092   86.9792    6.3258 C   0  0  0  0  0  0  0  0  0  0  0  0
    0.3100   88.5520   10.1064 N   0  0  0  0  0  0  0  0  0  0  0  0
  1  2  1  6  0  0  0
  1  3  1  0  0  0  0
  1 10  1  0  0  0  0
  3  4  1  1  0  0  0
  3  5  1  0  0  0  0
  5  6  1  6  0  0  0
  5  7  1  0  0  0  0
  7  8  1  6  0  0  0
  7  9  1  0  0  0  0
  9 10  1  0  0  0  0
  9 11  1  6  0  0  0
 11 12  1  0  0  0  0
 13 14  1  1  0  0  0
 13 15  1  0  0  0  0
 13 21  1  0  0  0  0
 16 15  1  0  0  0  0
 16 17  1  1  0  0  0
 18  2  1  6  0  0  0
 18 16  1  0  0  0  0
 19 18  1  0  0  0  0
 19 20  1  6  0  0  0
 21 19  1  0  0  0  0
 21 22  1  6  0  0  0
 23 20  1  1  0  0  0
 23 24  1  0  0  0  0
 23 28  1  0  0  0  0
 24 25  1  1  0  0  0
 24 26  1  0  0  0  0
 26 27  1  0  0  0  0
 26 32  1  1  0  0  0
 27 28  1  0  0  0  0
 27 29  1  1  0  0  0
 29 30  1  0  0  0  0
 31 32  1  1  0  0  0
 31 40  1  0  0  0  0
 33 31  1  0  0  0  0
 33 42  1  1  0  0  0
 35 33  1  0  0  0  0
 35 36  1  6  0  0  0
 37 35  1  0  0  0  0
 37 38  1  1  0  0  0
 37 39  1  0  0  0  0
 39 40  1  0  0  0  0
 39 41  1  1  0  0  0
 41 34  1  0  0  0  0
M  END
>  <CHROM.1>
-80.39432915,-179.30709639,-85.06127217,146.06847707,149.92972061,119.21657390
-69.08458336,-78.53878642,60.27556966,1.15984293,93.07507745,10.52841687
-0.88130405,1.37803251,2.93471378

>  <Name>
2fcy_lig

>  <RI>
2.32494e+07

>  <Rbt.Current_Directory>
/home/itssahil/PROJECTS/Mol_Feturizer/New_Systems/rnas/2fcy

>  <Rbt.Executable>
rbdock ($Id: //depot/dev/client3/rdock/2013.1/src/exe/rbdock.cxx#4 $)

>  <Rbt.Library>
libRbt.so (2013.1, Build901 2013/11/27)

>  <Rbt.Parameter_File>
/export/apps/rDock/src/rDock_2013.1_src/data/scripts/dock_solv.prm

>  <Rbt.Receptor>
prm/pocket_docking_8.prm

>  <SCORE>
-22.6224

>  <SCORE.INTER>
-26.8272

>  <SCORE.INTER.CONST>
1

>  <SCORE.INTER.POLAR>
-4.42622

>  <SCORE.INTER.ROT>
9

>  <SCORE.INTER.SOLV>
16.0921

>  <SCORE.INTER.VDW>
-18.0947

>  <SCORE.INTER.norm>
-0.638742

>  <SCORE.INTRA>
4.20473

>  <SCORE.INTRA.DIHEDRAL>
3.97036

>  <SCORE.INTRA.DIHEDRAL.0>
17.3446

>  <SCORE.INTRA.POLAR>
0

>  <SCORE.INTRA.POLAR.0>
0

>  <SCORE.INTRA.REPUL>
0

>  <SCORE.INTRA.REPUL.0>
0

>  <SCORE.INTRA.SOLV>
1.30333

>  <SCORE.INTRA.SOLV.lig_0>
-112.452

>  <SCORE.INTRA.VDW>
1.56788

>  <SCORE.INTRA.VDW.0>
-5.95059

>  <SCORE.INTRA.norm>
0.100113

>  <SCORE.RESTR>
0

>  <SCORE.RESTR.CAVITY>
0

>  <SCORE.RESTR.norm>
0

>  <SCORE.SYSTEM>
0

>  <SCORE.SYSTEM.CONST>
0

>  <SCORE.SYSTEM.DIHEDRAL>
0

>  <SCORE.SYSTEM.SOLV>
0

>  <SCORE.SYSTEM.norm>
0

>  <SCORE.heavy>
42

>  <SCORE.norm>
-0.53863

>  <RMSD>
6.718

$$$$
2fcy_lig
 OpenBabel11021811433D
libRbt.so/2013.1/901 2013/11/27
 42 45  0  0  0  0  0  0  0  0999 V2000
    1.4734   96.3320   11.3900 C   0  0  2  0  0  0  0  0  0  0  0  0
    2.0951   96.7134   12.6290 O   0  0  0  0  0  0  0  0  0  0  0  0
    2.5854   96.3895   10.3417 C   0  0  2  0  0  0  0  0  0  0  0  0
    3.7024   95.5484   10.7931 N   0  0  0  0  0  0  0  0  0  0  0  0
    3.0674   97.8339   10.1848 C   0  0  1  0  0  0  0  0  0  0  0  0
    4.1062   97.9137    9.2049 O   0  0  0  0  0  0  0  0  0  0  0  0
    1.8874   98.7216    9.7879 C   0  0  2  0  0  0  0  0  0  0  0  0
    2.3182  100.0815    9.7367 O   0  0  0  0  0  0  0  0  0  0  0  0
    0.8023   98.6068   10.8596 C   0  0  2  0  0  0  0  0  0  0  0  0
    0.4140   97.2317   11.0042 O   0  0  0  0  0  0  0  0  0  0  0  0
   -0.3895   99.4843   10.4679 C   0  0  0  0  0  0  0  0  0  0  0  0
   -1.6091   99.0603   11.1719 N   0  0  0  0  0  0  0  0  0  0  0  0
    2.7856   93.8743   15.6471 C   0  0  2  0  0  0  0  0  0  0  0  0
    2.7720   92.9588   16.7980 N   0  0  0  0  0  0  0  0  0  0  0  0
    2.6032   95.3234   16.1027 C   0  0  0  0  0  0  0  0  0  0  0  0
    2.7586   96.2354   14.8816 C   0  0  2  0  0  0  0  0  0  0  0  0
    2.5007   97.6270   15.2792 N   0  0  0  0  0  0  0  0  0  0  0  0
    1.7792   95.8810   13.7590 C   0  0  2  0  0  0  0  0  0  0  0  0
    1.7259   94.3989   13.4053 C   0  0  2  0  0  0  0  0  0  0  0  0
    0.5166   94.2266   12.6489 O   0  0  0  0  0  0  0  0  0  0  0  0
    1.6739   93.5147   14.6583 C   0  0  1  0  0  0  0  0  0  0  0  0
    1.8230   92.1347   14.3144 O   0  0  0  0  0  0  0  0  0  0  0  0
    0.5398   93.1783   11.6667 C   0  0  1  0  0  0  0  0  0  0  0  0
   -0.8704   93.0574   11.0868 C   0  0  2  0  0  0  0  0  0  0  0  0
   -1.6723   92.2370   11.9397 O   0  0  0  0  0  0  0  0  0  0  0  0
   -0.5341   92.2909    9.8109 C   0  0  1  0  0  0  0  0  0  0  0  0
    0.6773   93.0746    9.3311 C   0  0  2  0  0  0  0  0  0  0  0  0
    1.3738   93.4770   10.5284 O   0  0  0  0  0  0  0  0  0  0  0  0
    0.2018   94.2817    8.5143 C   0  0  0  0  0  0  0  0  0  0  0  0
   -0.6946   95.0877    9.2845 O   0  0  0  0  0  0  0  0  0  0  0  0
   -0.3447   90.1020    8.9914 C   0  0  2  0  0  0  0  0  0  0  0  0
   -0.1524   90.9451   10.1375 O   0  0  0  0  0  0  0  0  0  0  0  0
    0.0306   88.6599    9.3472 C   0  0  1  0  0  0  0  0  0  0  0  0
    0.4277   90.1296    4.2713 N   0  0  0  0  0  0  0  0  0  0  0  0
   -0.0699   87.7607    8.1104 C   0  0  1  0  0  0  0  0  0  0  0  0
   -1.4363   87.6199    7.7088 O   0  0  0  0  0  0  0  0  0  0  0  0
    0.7496   88.3610    6.9648 C   0  0  2  0  0  0  0  0  0  0  0  0
    2.1326   88.3405    7.3340 O   0  0  0  0  0  0  0  0  0  0  0  0
    0.2953   89.8021    6.7091 C   0  0  1  0  0  0  0  0  0  0  0  0
    0.4618   90.5878    7.9039 O   0  0  0  0  0  0  0  0  0  0  0  0
    1.0727   90.4414    5.5553 C   0  0  0  0  0  0  0  0  0  0  0  0
    1.4213   88.6387    9.8252 N   0  0  0  0  0  0  0  0  0  0  0  0
  1  2  1  1  0  0  0
  1  3  1  0  0  0  0
  1 10  1  0  0  0  0
  3  4  1  1  0  0  0
  3  5  1  0  0  0  0
  5  6  1  6  0  0  0
  5  7  1  0  0  0  0
  7  8  1  1  0  0  0
  7  9  1  0  0  0  0
  9 10  1  0  0  0  0
  9 11  1  6  0  0  0
 11 12  1  0  0  0  0
 13 14  1  1  0  0  0
 13 15  1  0  0  0  0
 13 21  1  0  0  0  0
 16 15  1  0  0  0  0
 16 17  1  1  0  0  0
 18  2  1  6  0  0  0
 18 16  1  0  0  0  0
 19 18  1  0  0  0  0
 19 20  1  6  0  0  0
 21 19  1  0  0  0  0
 21 22  1  6  0  0  0
 23 20  1  1  0  0  0
 23 24  1  0  0  0  0
 23 28  1  0  0  0  0
 24 25  1  1  0  0  0
 24 26  1  0  0  0  0
 26 27  1  0  0  0  0
 26 32  1  1  0  0  0
 27 28  1  0  0  0  0
 27 29  1  1  0  0  0
 29 30  1  0  0  0  0
 31 32  1  1  0  0  0
 31 40  1  0  0  0  0
 33 31  1  0  0  0  0
 33 42  1  6  0  0  0
 35 33  1  0  0  0  0
 35 36  1  6  0  0  0
 37 35  1  0  0  0  0
 37 38  1  1  0  0  0
 37 39  1  0  0  0  0
 39 40  1  0  0  0  0
 39 41  1  6  0  0  0
 41 34  1  0  0  0  0
M  END
>  <CHROM.1>
-134.06208958,159.82145173,167.32402744,149.90189167,173.91009759,157.57804803
56.09835370,-178.67823457,86.63125463,1.06150749,93.76385142,10.69425911
0.47975532,-1.37717217,-0.53484516

>  <Name>
2fcy_lig

>  <RI>
224

>  <Rbt.Current_Directory>
/home/itssahil/PROJECTS/Mol_Feturizer/New_Systems/rnas/2fcy

>  <Rbt.Executable>
rbdock ($Id: //depot/dev/client3/rdock/2013.1/src/exe/rbdock.cxx#4 $)

>  <Rbt.Library>
libRbt.so (2013.1, Build901 2013/11/27)

>  <Rbt.Parameter_File>
/export/apps/rDock/src/rDock_2013.1_src/data/scripts/dock_solv.prm

>  <Rbt.Receptor>
prm/pocket_docking_6.prm

>  <SCORE>
-9.18503

>  <SCORE.INTER>
-10.2418

>  <SCORE.INTER.CONST>
1

>  <SCORE.INTER.POLAR>
-1.26715

>  <SCORE.INTER.ROT>
9

>  <SCORE.INTER.SOLV>
23.2872

>  <SCORE.INTER.VDW>
-19.9664

>  <SCORE.INTER.norm>
-0.243851

>  <SCORE.INTRA>
1.05673

>  <SCORE.INTRA.DIHEDRAL>
-0.342956

>  <SCORE.INTRA.DIHEDRAL.0>
17.3446

>  <SCORE.INTRA.POLAR>
0

>  <SCORE.INTRA.POLAR.0>
0

>  <SCORE.INTRA.REPUL>
0

>  <SCORE.INTRA.REPUL.0>
0

>  <SCORE.INTRA.SOLV>
-2.48559

>  <SCORE.INTRA.SOLV.lig_0>
-112.452

>  <SCORE.INTRA.VDW>
2.47101

>  <SCORE.INTRA.VDW.0>
-5.95059

>  <SCORE.INTRA.norm>
0.0251603

>  <SCORE.RESTR>
0

>  <SCORE.RESTR.CAVITY>
0

>  <SCORE.RESTR.norm>
0

>  <SCORE.SYSTEM>
0

>  <SCORE.SYSTEM.CONST>
0

>  <SCORE.SYSTEM.DIHEDRAL>
0

>  <SCORE.SYSTEM.SOLV>
0

>  <SCORE.SYSTEM.norm>
0

>  <SCORE.heavy>
42

>  <SCORE.norm>
-0.218691

>  <RMSD>
6.754

$$$$
2fcy_lig
 OpenBabel11021811433D
libRbt.so/2013.1/901 2013/11/27
 42 45  0  0  0  0  0  0  0  0999 V2000
    1.1793   91.6163   19.8030 C   0  0  2  0  0  0  0  0  0  0  0  0
    2.5074   91.5985   20.3536 O   0  0  0  0  0  0  0  0  0  0  0  0
    0.4600   92.7648   20.5118 C   0  0  2  0  0  0  0  0  0  0  0  0
    1.2496   93.9921   20.3412 N   0  0  0  0  0  0  0  0  0  0  0  0
    0.3314   92.4458   22.0035 C   0  0  1  0  0  0  0  0  0  0  0  0
   -0.3430   93.5053   22.6878 O   0  0  0  0  0  0  0  0  0  0  0  0
   -0.4257   91.1288   22.1767 C   0  0  2  0  0  0  0  0  0  0  0  0
   -0.4600   90.7846   23.5616 O   0  0  0  0  0  0  0  0  0  0  0  0
    0.3274   90.0259   21.4313 C   0  0  2  0  0  0  0  0  0  0  0  0
    0.4638   90.3881   20.0483 O   0  0  0  0  0  0  0  0  0  0  0  0
   -0.4272   88.7033   21.5893 C   0  0  0  0  0  0  0  0  0  0  0  0
    0.3035   87.6005   20.9470 N   0  0  0  0  0  0  0  0  0  0  0  0
    5.8925   89.7435   18.6963 C   0  0  2  0  0  0  0  0  0  0  0  0
    6.9576   88.8545   18.2082 N   0  0  0  0  0  0  0  0  0  0  0  0
    5.6917   89.5748   20.2036 C   0  0  0  0  0  0  0  0  0  0  0  0
    4.6694   90.6150   20.6727 C   0  0  2  0  0  0  0  0  0  0  0  0
    4.3947   90.4150   22.1029 N   0  0  0  0  0  0  0  0  0  0  0  0
    3.3391   90.5069   19.9217 C   0  0  2  0  0  0  0  0  0  0  0  0
    3.4692   90.4266   18.4048 C   0  0  2  0  0  0  0  0  0  0  0  0
    2.1994   89.9471   17.9340 O   0  0  0  0  0  0  0  0  0  0  0  0
    4.5732   89.4503   17.9777 C   0  0  1  0  0  0  0  0  0  0  0  0
    4.8125   89.5360   16.5704 O   0  0  0  0  0  0  0  0  0  0  0  0
    1.7456   90.5031   16.6893 C   0  0  1  0  0  0  0  0  0  0  0  0
    0.8965   89.4399   15.9908 C   0  0  2  0  0  0  0  0  0  0  0  0
    1.7461   88.5394   15.2758 O   0  0  0  0  0  0  0  0  0  0  0  0
    0.1607   90.3399   15.0024 C   0  0  1  0  0  0  0  0  0  0  0  0
   -0.2343   91.4878   15.9180 C   0  0  2  0  0  0  0  0  0  0  0  0
    0.8551   91.6258   16.8533 O   0  0  0  0  0  0  0  0  0  0  0  0
   -1.5502   91.1372   16.6221 C   0  0  0  0  0  0  0  0  0  0  0  0
   -2.6483   91.2303   15.7101 O   0  0  0  0  0  0  0  0  0  0  0  0
    0.4083   91.7586   13.1519 C   0  0  2  0  0  0  0  0  0  0  0  0
    1.0728   90.8049   13.9948 O   0  0  0  0  0  0  0  0  0  0  0  0
   -0.4670   91.0204   12.1339 C   0  0  1  0  0  0  0  0  0  0  0  0
    2.5431   95.2283   12.1508 N   0  0  0  0  0  0  0  0  0  0  0  0
   -1.1065   92.0144   11.1585 C   0  0  1  0  0  0  0  0  0  0  0  0
   -2.0669   92.8290   11.8383 O   0  0  0  0  0  0  0  0  0  0  0  0
   -0.0232   92.8986   10.5347 C   0  0  2  0  0  0  0  0  0  0  0  0
    0.8289   92.0765    9.7300 O   0  0  0  0  0  0  0  0  0  0  0  0
    0.7915   93.5721   11.6442 C   0  0  1  0  0  0  0  0  0  0  0  0
    1.3917   92.5715   12.4877 O   0  0  0  0  0  0  0  0  0  0  0  0
    1.8774   94.4860   11.0701 C   0  0  0  0  0  0  0  0  0  0  0  0
    0.3804   90.0957   11.3659 N   0  0  0  0  0  0  0  0  0  0  0  0
  1  2  1  1  0  0  0
  1  3  1  0  0  0  0
  1 10  1  0  0  0  0
  3  4  1  1  0  0  0
  3  5  1  0  0  0  0
  5  6  1  1  0  0  0
  5  7  1  0  0  0  0
  7  8  1  1  0  0  0
  7  9  1  0  0  0  0
  9 10  1  0  0  0  0
  9 11  1  6  0  0  0
 11 12  1  0  0  0  0
 13 14  1  6  0  0  0
 13 15  1  0  0  0  0
 13 21  1  0  0  0  0
 16 15  1  0  0  0  0
 16 17  1  1  0  0  0
 18  2  1  6  0  0  0
 18 16  1  0  0  0  0
 19 18  1  0  0  0  0
 19 20  1  6  0  0  0
 21 19  1  0  0  0  0
 21 22  1  6  0  0  0
 23 20  1  1  0  0  0
 23 24  1  0  0  0  0
 23 28  1  0  0  0  0
 24 25  1  6  0  0  0
 24 26  1  0  0  0  0
 26 27  1  0  0  0  0
 26 32  1  6  0  0  0
 27 28  1  0  0  0  0
 27 29  1  1  0  0  0
 29 30  1  0  0  0  0
 31 32  1  1  0  0  0
 31 40  1  0  0  0  0
 33 31  1  0  0  0  0
 33 42  1  6  0  0  0
 35 33  1  0  0  0  0
 35 36  1  1  0  0  0
 37 35  1  0  0  0  0
 37 38  1  1  0  0  0
 37 39  1  0  0  0  0
 39 40  1  0  0  0  0
 39 41  1  6  0  0  0
 41 34  1  0  0  0  0
M  END
>  <CHROM.1>
174.37171366,-176.93359891,-176.71579599,143.55496797,149.66942390,-174.05430426
-73.57798474,-79.35819755,173.82787652,1.35048599,91.12784641,17.02002761
1.39520264,-0.32367397,1.68968468

>  <Name>
2fcy_lig

>  <RI>
224

>  <Rbt.Current_Directory>
/home/itssahil/PROJECTS/Mol_Feturizer/New_Systems/rnas/2fcy

>  <Rbt.Executable>
rbdock ($Id: //depot/dev/client3/rdock/2013.1/src/exe/rbdock.cxx#4 $)

>  <Rbt.Library>
libRbt.so (2013.1, Build901 2013/11/27)

>  <Rbt.Parameter_File>
/export/apps/rDock/src/rDock_2013.1_src/data/scripts/dock_solv.prm

>  <Rbt.Receptor>
prm/pocket_docking_6.prm

>  <SCORE>
-21.0449

>  <SCORE.INTER>
-17.6723

>  <SCORE.INTER.CONST>
1

>  <SCORE.INTER.POLAR>
-1.79687

>  <SCORE.INTER.ROT>
9

>  <SCORE.INTER.SOLV>
16.8446

>  <SCORE.INTER.VDW>
-21.0068

>  <SCORE.INTER.norm>
-0.420769

>  <SCORE.INTRA>
-3.37546

>  <SCORE.INTRA.DIHEDRAL>
-5.42852

>  <SCORE.INTRA.DIHEDRAL.0>
17.3446

>  <SCORE.INTRA.POLAR>
0

>  <SCORE.INTRA.POLAR.0>
0

>  <SCORE.INTRA.REPUL>
0

>  <SCORE.INTRA.REPUL.0>
0

>  <SCORE.INTRA.SOLV>
-5.38856

>  <SCORE.INTRA.SOLV.lig_0>
-112.452

>  <SCORE.INTRA.VDW>
2.03308

>  <SCORE.INTRA.VDW.0>
-5.95059

>  <SCORE.INTRA.norm>
-0.080368

>  <SCORE.RESTR>
0.00286872

>  <SCORE.RESTR.CAVITY>
0.00286872

>  <SCORE.RESTR.norm>
6.8303e-05

>  <SCORE.SYSTEM>
0

>  <SCORE.SYSTEM.CONST>
0

>  <SCORE.SYSTEM.DIHEDRAL>
0

>  <SCORE.SYSTEM.SOLV>
0

>  <SCORE.SYSTEM.norm>
0

>  <SCORE.heavy>
42

>  <SCORE.norm>
-0.501068

>  <RMSD>
6.755

$$$$
2fcy_lig
 OpenBabel11021811433D
libRbt.so/2013.1/901 2013/11/27
 42 45  0  0  0  0  0  0  0  0999 V2000
   -0.3740   96.2262    9.7821 C   0  0  2  0  0  0  0  0  0  0  0  0
   -0.3939   94.7961    9.6348 O   0  0  0  0  0  0  0  0  0  0  0  0
    1.0948   96.5929    9.9993 C   0  0  2  0  0  0  0  0  0  0  0  0
    1.8864   96.0438    8.8900 N   0  0  0  0  0  0  0  0  0  0  0  0
    1.5831   95.9913   11.3194 C   0  0  1  0  0  0  0  0  0  0  0  0
    2.9553   96.3248   11.5468 O   0  0  0  0  0  0  0  0  0  0  0  0
    0.7100   96.5055   12.4645 C   0  0  2  0  0  0  0  0  0  0  0  0
    1.1052   95.8692   13.6796 O   0  0  0  0  0  0  0  0  0  0  0  0
   -0.7451   96.1287   12.1819 C   0  0  2  0  0  0  0  0  0  0  0  0
   -1.1452   96.6750   10.9154 O   0  0  0  0  0  0  0  0  0  0  0  0
   -1.6310   96.6475   13.3176 C   0  0  0  0  0  0  0  0  0  0  0  0
   -1.6548   98.1177   13.3369 N   0  0  0  0  0  0  0  0  0  0  0  0
   -4.5342   94.7652    8.9247 C   0  0  2  0  0  0  0  0  0  0  0  0
   -5.9431   94.4811    8.6133 N   0  0  0  0  0  0  0  0  0  0  0  0
   -3.6353   94.4279    7.7334 C   0  0  0  0  0  0  0  0  0  0  0  0
   -2.2064   94.8673    8.0686 C   0  0  2  0  0  0  0  0  0  0  0  0
   -1.3081   94.4739    6.9735 N   0  0  0  0  0  0  0  0  0  0  0  0
   -1.6837   94.2232    9.3559 C   0  0  2  0  0  0  0  0  0  0  0  0
   -2.6374   94.3074   10.5424 C   0  0  2  0  0  0  0  0  0  0  0  0
   -2.1581   93.3411   11.4914 O   0  0  0  0  0  0  0  0  0  0  0  0
   -4.0774   93.9588   10.1429 C   0  0  1  0  0  0  0  0  0  0  0  0
   -4.9838   94.2329   11.2145 O   0  0  0  0  0  0  0  0  0  0  0  0
   -1.8479   92.0438   10.9574 C   0  0  1  0  0  0  0  0  0  0  0  0
   -1.4361   91.1491   12.1277 C   0  0  2  0  0  0  0  0  0  0  0  0
   -0.0531   91.3541   12.4261 O   0  0  0  0  0  0  0  0  0  0  0  0
   -1.6172   89.7898   11.4584 C   0  0  1  0  0  0  0  0  0  0  0  0
   -2.9654   89.9929   10.7852 C   0  0  2  0  0  0  0  0  0  0  0  0
   -2.9861   91.3758   10.3755 O   0  0  0  0  0  0  0  0  0  0  0  0
   -4.0797   89.6785   11.7900 C   0  0  0  0  0  0  0  0  0  0  0  0
   -5.3643   89.8268   11.1784 O   0  0  0  0  0  0  0  0  0  0  0  0
   -0.6983   88.2674    9.9299 C   0  0  2  0  0  0  0  0  0  0  0  0
   -0.5960   89.5950   10.4671 O   0  0  0  0  0  0  0  0  0  0  0  0
    0.5000   87.9906    9.0164 C   0  0  1  0  0  0  0  0  0  0  0  0
   -3.6699   87.7502    6.9910 N   0  0  0  0  0  0  0  0  0  0  0  0
    0.3595   86.6169    8.3518 C   0  0  1  0  0  0  0  0  0  0  0  0
    0.4859   85.5780    9.3280 O   0  0  0  0  0  0  0  0  0  0  0  0
   -1.0007   86.5140    7.6562 C   0  0  2  0  0  0  0  0  0  0  0  0
   -1.0351   87.4581    6.5805 O   0  0  0  0  0  0  0  0  0  0  0  0
   -2.1157   86.8217    8.6613 C   0  0  1  0  0  0  0  0  0  0  0  0
   -1.9345   88.1424    9.2054 O   0  0  0  0  0  0  0  0  0  0  0  0
   -3.5005   86.7114    8.0176 C   0  0  0  0  0  0  0  0  0  0  0  0
    0.5359   89.0152    7.9619 N   0  0  0  0  0  0  0  0  0  0  0  0
  1  2  1  1  0  0  0
  1  3  1  0  0  0  0
  1 10  1  0  0  0  0
  3  4  1  6  0  0  0
  3  5  1  0  0  0  0
  5  6  1  1  0  0  0
  5  7  1  0  0  0  0
  7  8  1  1  0  0  0
  7  9  1  0  0  0  0
  9 10  1  0  0  0  0
  9 11  1  1  0  0  0
 11 12  1  0  0  0  0
 13 14  1  6  0  0  0
 13 15  1  0  0  0  0
 13 21  1  0  0  0  0
 16 15  1  0  0  0  0
 16 17  1  6  0  0  0
 18  2  1  1  0  0  0
 18 16  1  0  0  0  0
 19 18  1  0  0  0  0
 19 20  1  1  0  0  0
 21 19  1  0  0  0  0
 21 22  1  1  0  0  0
 23 20  1  1  0  0  0
 23 24  1  0  0  0  0
 23 28  1  0  0  0  0
 24 25  1  6  0  0  0
 24 26  1  0  0  0  0
 26 27  1  0  0  0  0
 26 32  1  6  0  0  0
 27 28  1  0  0  0  0
 27 29  1  1  0  0  0
 29 30  1  0  0  0  0
 31 32  1  6  0  0  0
 31 40  1  0  0  0  0
 33 31  1  0  0  0  0
 33 42  1  6  0  0  0
 35 33  1  0  0  0  0
 35 36  1  1  0  0  0
 37 35  1  0  0  0  0
 37 38  1  6  0  0  0
 37 39  1  0  0  0  0
 39 40  1  0  0  0  0
 39 41  1  6  0  0  0
 41 34  1  0  0  0  0
M  END
>  <CHROM.1>
-177.26856737,66.50357966,57.99633712,-47.13458647,-176.83334931,174.72566700
-178.53045440,-172.33087074,-65.62885376,-1.49204977,92.23826214,10.10394059
-1.45891723,0.14528431,-2.87682469

>  <Name>
2fcy_lig

>  <RI>
2.32494e+07

>  <Rbt.Current_Directory>
/home/itssahil/PROJECTS/Mol_Feturizer/New_Systems/rnas/2fcy

>  <Rbt.Executable>
rbdock ($Id: //depot/dev/client3/rdock/2013.1/src/exe/rbdock.cxx#4 $)

>  <Rbt.Library>
libRbt.so (2013.1, Build901 2013/11/27)

>  <Rbt.Parameter_File>
/export/apps/rDock/src/rDock_2013.1_src/data/scripts/dock_solv.prm

>  <Rbt.Receptor>
prm/pocket_docking_8.prm

>  <SCORE>
-12.6157

>  <SCORE.INTER>
-9.17896

>  <SCORE.INTER.CONST>
1

>  <SCORE.INTER.POLAR>
-2.18006

>  <SCORE.INTER.ROT>
9

>  <SCORE.INTER.SOLV>
13.6562

>  <SCORE.INTER.VDW>
-13.0045

>  <SCORE.INTER.norm>
-0.218547

>  <SCORE.INTRA>
-3.43676

>  <SCORE.INTRA.DIHEDRAL>
-15.1001

>  <SCORE.INTRA.DIHEDRAL.0>
17.3446

>  <SCORE.INTRA.POLAR>
0

>  <SCORE.INTRA.POLAR.0>
0

>  <SCORE.INTRA.REPUL>
0

>  <SCORE.INTRA.REPUL.0>
0

>  <SCORE.INTRA.SOLV>
-1.69673

>  <SCORE.INTRA.SOLV.lig_0>
-112.452

>  <SCORE.INTRA.VDW>
4.96168

>  <SCORE.INTRA.VDW.0>
-5.95059

>  <SCORE.INTRA.norm>
-0.0818275

>  <SCORE.RESTR>
0

>  <SCORE.RESTR.CAVITY>
0

>  <SCORE.RESTR.norm>
0

>  <SCORE.SYSTEM>
0

>  <SCORE.SYSTEM.CONST>
0

>  <SCORE.SYSTEM.DIHEDRAL>
0

>  <SCORE.SYSTEM.SOLV>
0

>  <SCORE.SYSTEM.norm>
0

>  <SCORE.heavy>
42

>  <SCORE.norm>
-0.300374

>  <RMSD>
6.847

$$$$
2fcy_lig
 OpenBabel11021811433D
libRbt.so/2013.1/901 2013/11/27
 42 45  0  0  0  0  0  0  0  0999 V2000
    0.6849   95.2324    9.8175 C   0  0  2  0  0  0  0  0  0  0  0  0
   -0.6263   94.9626   10.3421 O   0  0  0  0  0  0  0  0  0  0  0  0
    0.5143   96.4415    8.8966 C   0  0  2  0  0  0  0  0  0  0  0  0
   -0.1162   97.5285    9.6581 N   0  0  0  0  0  0  0  0  0  0  0  0
   -0.3811   96.0627    7.7143 C   0  0  1  0  0  0  0  0  0  0  0  0
   -0.5521   97.1780    6.8354 O   0  0  0  0  0  0  0  0  0  0  0  0
    0.2390   94.8818    6.9668 C   0  0  2  0  0  0  0  0  0  0  0  0
   -0.6444   94.4686    5.9245 O   0  0  0  0  0  0  0  0  0  0  0  0
    0.4041   93.7141    7.9408 C   0  0  2  0  0  0  0  0  0  0  0  0
    1.2117   94.1280    9.0538 O   0  0  0  0  0  0  0  0  0  0  0  0
    1.0339   92.5282    7.2055 C   0  0  0  0  0  0  0  0  0  0  0  0
    1.2225   91.3864    8.1129 N   0  0  0  0  0  0  0  0  0  0  0  0
    0.7668   91.7819   12.7061 C   0  0  2  0  0  0  0  0  0  0  0  0
    1.0123   90.7042   13.6763 N   0  0  0  0  0  0  0  0  0  0  0  0
    0.5458   93.1167   13.4203 C   0  0  0  0  0  0  0  0  0  0  0  0
    0.4288   94.2166   12.3603 C   0  0  2  0  0  0  0  0  0  0  0  0
    0.1288   95.4959   13.0193 N   0  0  0  0  0  0  0  0  0  0  0  0
   -0.6881   93.9382   11.3501 C   0  0  2  0  0  0  0  0  0  0  0  0
   -0.6800   92.5306   10.7643 C   0  0  2  0  0  0  0  0  0  0  0  0
   -1.9781   92.3509   10.1755 O   0  0  0  0  0  0  0  0  0  0  0  0
   -0.4582   91.4641   11.8450 C   0  0  1  0  0  0  0  0  0  0  0  0
   -0.2575   90.1764   11.2561 O   0  0  0  0  0  0  0  0  0  0  0  0
   -2.1322   91.1851    9.3500 C   0  0  1  0  0  0  0  0  0  0  0  0
   -3.6242   91.0212    9.0560 C   0  0  2  0  0  0  0  0  0  0  0  0
   -4.2552   90.3344   10.1394 O   0  0  0  0  0  0  0  0  0  0  0  0
   -3.5247   90.0904    7.8510 C   0  0  1  0  0  0  0  0  0  0  0  0
   -2.4229   90.7799    7.0618 C   0  0  2  0  0  0  0  0  0  0  0  0
   -1.5205   91.3174    8.0505 O   0  0  0  0  0  0  0  0  0  0  0  0
   -3.0422   91.8823    6.1950 C   0  0  0  0  0  0  0  0  0  0  0  0
   -3.6246   92.8990    7.0156 O   0  0  0  0  0  0  0  0  0  0  0  0
   -3.2826   87.8481    7.2090 C   0  0  2  0  0  0  0  0  0  0  0  0
   -3.0867   88.7897    8.2751 O   0  0  0  0  0  0  0  0  0  0  0  0
   -3.1036   86.4238    7.7441 C   0  0  1  0  0  0  0  0  0  0  0  0
   -0.1749   87.6800    4.3686 N   0  0  0  0  0  0  0  0  0  0  0  0
   -3.2077   85.4068    6.6023 C   0  0  1  0  0  0  0  0  0  0  0  0
   -4.5451   85.3659    6.0946 O   0  0  0  0  0  0  0  0  0  0  0  0
   -2.2370   85.7856    5.4804 C   0  0  2  0  0  0  0  0  0  0  0  0
   -0.8990   85.6617    5.9742 O   0  0  0  0  0  0  0  0  0  0  0  0
   -2.5022   87.2284    5.0375 C   0  0  1  0  0  0  0  0  0  0  0  0
   -2.3424   88.1215    6.1554 O   0  0  0  0  0  0  0  0  0  0  0  0
   -1.5681   87.6491    3.8997 C   0  0  0  0  0  0  0  0  0  0  0  0
   -1.7666   86.3106    8.3463 N   0  0  0  0  0  0  0  0  0  0  0  0
  1  2  1  6  0  0  0
  1  3  1  0  0  0  0
  1 10  1  0  0  0  0
  3  4  1  1  0  0  0
  3  5  1  0  0  0  0
  5  6  1  6  0  0  0
  5  7  1  0  0  0  0
  7  8  1  6  0  0  0
  7  9  1  0  0  0  0
  9 10  1  0  0  0  0
  9 11  1  6  0  0  0
 11 12  1  0  0  0  0
 13 14  1  1  0  0  0
 13 15  1  0  0  0  0
 13 21  1  0  0  0  0
 16 15  1  0  0  0  0
 16 17  1  1  0  0  0
 18  2  1  6  0  0  0
 18 16  1  0  0  0  0
 19 18  1  0  0  0  0
 19 20  1  1  0  0  0
 21 19  1  0  0  0  0
 21 22  1  6  0  0  0
 23 20  1  1  0  0  0
 23 24  1  0  0  0  0
 23 28  1  0  0  0  0
 24 25  1  1  0  0  0
 24 26  1  0  0  0  0
 26 27  1  0  0  0  0
 26 32  1  1  0  0  0
 27 28  1  0  0  0  0
 27 29  1  1  0  0  0
 29 30  1  0  0  0  0
 31 32  1  1  0  0  0
 31 40  1  0  0  0  0
 33 31  1  0  0  0  0
 33 42  1  6  0  0  0
 35 33  1  0  0  0  0
 35 36  1  6  0  0  0
 37 35  1  0  0  0  0
 37 38  1  1  0  0  0
 37 39  1  0  0  0  0
 39 40  1  0  0  0  0
 39 41  1  6  0  0  0
 41 34  1  0  0  0  0
M  END
>  <CHROM.1>
-173.91483715,179.42221915,46.99184962,169.32595444,168.80150214,167.07594877
64.19180740,-167.99549703,-65.33098135,-1.23645114,91.32851119,8.52122661
0.10144228,-1.27354619,-1.00630214

>  <Name>
2fcy_lig

>  <RI>
2.32494e+07

>  <Rbt.Current_Directory>
/home/itssahil/PROJECTS/Mol_Feturizer/New_Systems/rnas/2fcy

>  <Rbt.Executable>
rbdock ($Id: //depot/dev/client3/rdock/2013.1/src/exe/rbdock.cxx#4 $)

>  <Rbt.Library>
libRbt.so (2013.1, Build901 2013/11/27)

>  <Rbt.Parameter_File>
/export/apps/rDock/src/rDock_2013.1_src/data/scripts/dock_solv.prm

>  <Rbt.Receptor>
prm/pocket_docking_8.prm

>  <SCORE>
-16.1552

>  <SCORE.INTER>
-12.4961

>  <SCORE.INTER.CONST>
1

>  <SCORE.INTER.POLAR>
-2.61342

>  <SCORE.INTER.ROT>
9

>  <SCORE.INTER.SOLV>
15.2724

>  <SCORE.INTER.VDW>
-14.3101

>  <SCORE.INTER.norm>
-0.297526

>  <SCORE.INTRA>
-3.65908

>  <SCORE.INTRA.DIHEDRAL>
-13.0291

>  <SCORE.INTRA.DIHEDRAL.0>
17.3446

>  <SCORE.INTRA.POLAR>
0

>  <SCORE.INTRA.POLAR.0>
0

>  <SCORE.INTRA.REPUL>
0

>  <SCORE.INTRA.REPUL.0>
0

>  <SCORE.INTRA.SOLV>
2.3733

>  <SCORE.INTRA.SOLV.lig_0>
-112.452

>  <SCORE.INTRA.VDW>
1.66884

>  <SCORE.INTRA.VDW.0>
-5.95059

>  <SCORE.INTRA.norm>
-0.0871208

>  <SCORE.RESTR>
0

>  <SCORE.RESTR.CAVITY>
0

>  <SCORE.RESTR.norm>
0

>  <SCORE.SYSTEM>
0

>  <SCORE.SYSTEM.CONST>
0

>  <SCORE.SYSTEM.DIHEDRAL>
0

>  <SCORE.SYSTEM.SOLV>
0

>  <SCORE.SYSTEM.norm>
0

>  <SCORE.heavy>
42

>  <SCORE.norm>
-0.384647

>  <RMSD>
6.910

$$$$
2fcy_lig
 OpenBabel11021811433D
libRbt.so/2013.1/901 2013/11/27
 42 45  0  0  0  0  0  0  0  0999 V2000
    1.0380   92.0796   20.0507 C   0  0  2  0  0  0  0  0  0  0  0  0
    2.3673   91.9915   20.5914 O   0  0  0  0  0  0  0  0  0  0  0  0
    0.4236   93.3297   20.6822 C   0  0  2  0  0  0  0  0  0  0  0  0
    1.3079   94.4733   20.4199 N   0  0  0  0  0  0  0  0  0  0  0  0
    0.2890   93.1268   22.1935 C   0  0  1  0  0  0  0  0  0  0  0  0
   -0.2882   94.2830   22.8066 O   0  0  0  0  0  0  0  0  0  0  0  0
   -0.5702   91.8915   22.4645 C   0  0  2  0  0  0  0  0  0  0  0  0
   -0.6142   91.6484   23.8705 O   0  0  0  0  0  0  0  0  0  0  0  0
    0.0811   90.6815   21.7930 C   0  0  2  0  0  0  0  0  0  0  0  0
    0.2284   90.9343   20.3870 O   0  0  0  0  0  0  0  0  0  0  0  0
   -0.7762   89.4393   22.0493 C   0  0  0  0  0  0  0  0  0  0  0  0
   -0.6878   89.0199   23.4560 N   0  0  0  0  0  0  0  0  0  0  0  0
    5.6178   89.9824   18.8466 C   0  0  2  0  0  0  0  0  0  0  0  0
    6.6296   89.0456   18.3351 N   0  0  0  0  0  0  0  0  0  0  0  0
    5.4621   89.8404   20.3620 C   0  0  0  0  0  0  0  0  0  0  0  0
    4.4983   90.9263   20.8509 C   0  0  2  0  0  0  0  0  0  0  0  0
    4.2649   90.7550   22.2922 N   0  0  0  0  0  0  0  0  0  0  0  0
    3.1399   90.8623   20.1467 C   0  0  2  0  0  0  0  0  0  0  0  0
    3.2149   90.7583   18.6275 C   0  0  2  0  0  0  0  0  0  0  0  0
    1.9117   90.3241   18.2063 O   0  0  0  0  0  0  0  0  0  0  0  0
    4.2642   89.7333   18.1769 C   0  0  1  0  0  0  0  0  0  0  0  0
    4.4585   89.7921   16.7613 O   0  0  0  0  0  0  0  0  0  0  0  0
    1.5082   90.7464   16.8936 C   0  0  1  0  0  0  0  0  0  0  0  0
    0.6555   89.6288   16.2907 C   0  0  2  0  0  0  0  0  0  0  0  0
    1.5045   88.6373   15.7080 O   0  0  0  0  0  0  0  0  0  0  0  0
   -0.0295   90.4272   15.1853 C   0  0  1  0  0  0  0  0  0  0  0  0
   -0.4244   91.6780   15.9545 C   0  0  2  0  0  0  0  0  0  0  0  0
    0.6397   91.8980   16.9031 O   0  0  0  0  0  0  0  0  0  0  0  0
   -1.7684   91.4347   16.6507 C   0  0  0  0  0  0  0  0  0  0  0  0
   -2.8231   91.3424   15.6887 O   0  0  0  0  0  0  0  0  0  0  0  0
    0.3562   91.7411   13.2818 C   0  0  2  0  0  0  0  0  0  0  0  0
    0.9227   90.7583   14.1620 O   0  0  0  0  0  0  0  0  0  0  0  0
   -0.5637   91.0522   12.2688 C   0  0  1  0  0  0  0  0  0  0  0  0
    2.8329   94.9381   12.2318 N   0  0  0  0  0  0  0  0  0  0  0  0
   -1.0997   92.0692   11.2555 C   0  0  1  0  0  0  0  0  0  0  0  0
   -1.9965   92.9824   11.8958 O   0  0  0  0  0  0  0  0  0  0  0  0
    0.0654   92.8390   10.6275 C   0  0  2  0  0  0  0  0  0  0  0  0
    0.8556   91.9240    9.8607 O   0  0  0  0  0  0  0  0  0  0  0  0
    0.9180   93.4712   11.7328 C   0  0  1  0  0  0  0  0  0  0  0  0
    1.4163   92.4472   12.6136 O   0  0  0  0  0  0  0  0  0  0  0  0
    2.0876   94.2717   11.1537 C   0  0  0  0  0  0  0  0  0  0  0  0
    0.2124   90.0365   11.5413 N   0  0  0  0  0  0  0  0  0  0  0  0
  1  2  1  1  0  0  0
  1  3  1  0  0  0  0
  1 10  1  0  0  0  0
  3  4  1  1  0  0  0
  3  5  1  0  0  0  0
  5  6  1  1  0  0  0
  5  7  1  0  0  0  0
  7  8  1  1  0  0  0
  7  9  1  0  0  0  0
  9 10  1  0  0  0  0
  9 11  1  6  0  0  0
 11 12  1  0  0  0  0
 13 14  1  6  0  0  0
 13 15  1  0  0  0  0
 13 21  1  0  0  0  0
 16 15  1  0  0  0  0
 16 17  1  1  0  0  0
 18  2  1  6  0  0  0
 18 16  1  0  0  0  0
 19 18  1  0  0  0  0
 19 20  1  1  0  0  0
 21 19  1  0  0  0  0
 21 22  1  6  0  0  0
 23 20  1  1  0  0  0
 23 24  1  0  0  0  0
 23 28  1  0  0  0  0
 24 25  1  6  0  0  0
 24 26  1  0  0  0  0
 26 27  1  0  0  0  0
 26 32  1  6  0  0  0
 27 28  1  0  0  0  0
 27 29  1  1  0  0  0
 29 30  1  0  0  0  0
 31 32  1  1  0  0  0
 31 40  1  0  0  0  0
 33 31  1  0  0  0  0
 33 42  1  6  0  0  0
 35 33  1  0  0  0  0
 35 36  1  1  0  0  0
 37 35  1  0  0  0  0
 37 38  1  1  0  0  0
 37 39  1  0  0  0  0
 39 40  1  0  0  0  0
 39 41  1  6  0  0  0
 41 34  1  0  0  0  0
M  END
>  <CHROM.1>
179.10688383,-71.01160653,-178.69825777,151.13732295,145.87342612,-167.60569924
-69.04077798,-80.80439448,176.24952710,1.20214346,91.41222929,17.25280484
1.44707071,-0.32071023,1.63035027

>  <Name>
2fcy_lig

>  <RI>
2.32494e+07

>  <Rbt.Current_Directory>
/home/itssahil/PROJECTS/Mol_Feturizer/New_Systems/rnas/2fcy

>  <Rbt.Executable>
rbdock ($Id: //depot/dev/client3/rdock/2013.1/src/exe/rbdock.cxx#4 $)

>  <Rbt.Library>
libRbt.so (2013.1, Build901 2013/11/27)

>  <Rbt.Parameter_File>
/export/apps/rDock/src/rDock_2013.1_src/data/scripts/dock_solv.prm

>  <Rbt.Receptor>
prm/pocket_docking_8.prm

>  <SCORE>
-20.9131

>  <SCORE.INTER>
-18.7522

>  <SCORE.INTER.CONST>
1

>  <SCORE.INTER.POLAR>
-1.91971

>  <SCORE.INTER.ROT>
9

>  <SCORE.INTER.SOLV>
17.3522

>  <SCORE.INTER.VDW>
-21.4865

>  <SCORE.INTER.norm>
-0.446482

>  <SCORE.INTRA>
-2.16082

>  <SCORE.INTRA.DIHEDRAL>
-5.64216

>  <SCORE.INTRA.DIHEDRAL.0>
17.3446

>  <SCORE.INTRA.POLAR>
0

>  <SCORE.INTRA.POLAR.0>
0

>  <SCORE.INTRA.REPUL>
0

>  <SCORE.INTRA.REPUL.0>
0

>  <SCORE.INTRA.SOLV>
-4.59018

>  <SCORE.INTRA.SOLV.lig_0>
-112.452

>  <SCORE.INTRA.VDW>
2.95535

>  <SCORE.INTRA.VDW.0>
-5.95059

>  <SCORE.INTRA.norm>
-0.0514481

>  <SCORE.RESTR>
0

>  <SCORE.RESTR.CAVITY>
0

>  <SCORE.RESTR.norm>
0

>  <SCORE.SYSTEM>
0

>  <SCORE.SYSTEM.CONST>
0

>  <SCORE.SYSTEM.DIHEDRAL>
0

>  <SCORE.SYSTEM.SOLV>
0

>  <SCORE.SYSTEM.norm>
0

>  <SCORE.heavy>
42

>  <SCORE.norm>
-0.49793

>  <RMSD>
6.937

$$$$
2fcy_lig
 OpenBabel11021811433D
libRbt.so/2013.1/901 2013/11/27
 42 45  0  0  0  0  0  0  0  0999 V2000
    1.2995   96.6658   10.6416 C   0  0  2  0  0  0  0  0  0  0  0  0
    1.9333   96.7925   11.9259 O   0  0  0  0  0  0  0  0  0  0  0  0
    1.8994   97.7778    9.7799 C   0  0  2  0  0  0  0  0  0  0  0  0
    3.3629   97.6492    9.7967 N   0  0  0  0  0  0  0  0  0  0  0  0
    1.5018   99.1406   10.3525 C   0  0  1  0  0  0  0  0  0  0  0  0
    2.0486  100.1980    9.5597 O   0  0  0  0  0  0  0  0  0  0  0  0
   -0.0228   99.2433   10.4044 C   0  0  2  0  0  0  0  0  0  0  0  0
   -0.3904  100.4739   11.0274 O   0  0  0  0  0  0  0  0  0  0  0  0
   -0.5649   98.0970   11.2596 C   0  0  2  0  0  0  0  0  0  0  0  0
   -0.1303   96.8425   10.7120 O   0  0  0  0  0  0  0  0  0  0  0  0
   -2.0926   98.1836   11.3107 C   0  0  0  0  0  0  0  0  0  0  0  0
   -2.6564   97.0761   12.0969 N   0  0  0  0  0  0  0  0  0  0  0  0
    2.6533   93.6469   14.6154 C   0  0  2  0  0  0  0  0  0  0  0  0
    2.6313   92.5753   15.6224 N   0  0  0  0  0  0  0  0  0  0  0  0
    2.2008   94.9753   15.2249 C   0  0  0  0  0  0  0  0  0  0  0  0
    2.3713   96.0725   14.1693 C   0  0  2  0  0  0  0  0  0  0  0  0
    1.8607   97.3433   14.7033 N   0  0  0  0  0  0  0  0  0  0  0  0
    1.6051   95.7662   12.8791 C   0  0  2  0  0  0  0  0  0  0  0  0
    1.8184   94.3597   12.3309 C   0  0  2  0  0  0  0  0  0  0  0  0
    0.7535   94.1473   11.3901 O   0  0  0  0  0  0  0  0  0  0  0  0
    1.7413   93.2985   13.4366 C   0  0  1  0  0  0  0  0  0  0  0  0
    2.1367   92.0167   12.9408 O   0  0  0  0  0  0  0  0  0  0  0  0
    1.0450   93.2427   10.3126 C   0  0  1  0  0  0  0  0  0  0  0  0
   -0.2707   92.5850    9.8931 C   0  0  2  0  0  0  0  0  0  0  0  0
   -0.5466   91.4732   10.7484 O   0  0  0  0  0  0  0  0  0  0  0  0
    0.1495   92.0776    8.5167 C   0  0  1  0  0  0  0  0  0  0  0  0
    0.8660   93.3059    7.9783 C   0  0  2  0  0  0  0  0  0  0  0  0
    1.5145   93.9038    9.1197 O   0  0  0  0  0  0  0  0  0  0  0  0
   -0.1636   94.2502    7.3472 C   0  0  0  0  0  0  0  0  0  0  0  0
   -0.8197   93.6147    6.2463 O   0  0  0  0  0  0  0  0  0  0  0  0
    0.5875   89.8464    7.9435 C   0  0  2  0  0  0  0  0  0  0  0  0
    1.0768   90.9900    8.6607 O   0  0  0  0  0  0  0  0  0  0  0  0
   -0.3873   89.0644    8.8297 C   0  0  1  0  0  0  0  0  0  0  0  0
    3.3376   86.6696    7.4357 N   0  0  0  0  0  0  0  0  0  0  0  0
   -0.8439   87.7842    8.1218 C   0  0  1  0  0  0  0  0  0  0  0  0
   -1.6634   88.1062    6.9935 O   0  0  0  0  0  0  0  0  0  0  0  0
    0.3768   86.9804    7.6654 C   0  0  2  0  0  0  0  0  0  0  0  0
    1.0894   86.5360    8.8247 O   0  0  0  0  0  0  0  0  0  0  0  0
    1.2802   87.8660    6.8005 C   0  0  1  0  0  0  0  0  0  0  0  0
    1.6983   89.0210    7.5515 O   0  0  0  0  0  0  0  0  0  0  0  0
    2.5080   87.0998    6.3006 C   0  0  0  0  0  0  0  0  0  0  0  0
    0.3034   88.6871   10.0721 N   0  0  0  0  0  0  0  0  0  0  0  0
  1  2  1  1  0  0  0
  1  3  1  0  0  0  0
  1 10  1  0  0  0  0
  3  4  1  1  0  0  0
  3  5  1  0  0  0  0
  5  6  1  6  0  0  0
  5  7  1  0  0  0  0
  7  8  1  1  0  0  0
  7  9  1  0  0  0  0
  9 10  1  0  0  0  0
  9 11  1  6  0  0  0
 11 12  1  0  0  0  0
 13 14  1  1  0  0  0
 13 15  1  0  0  0  0
 13 21  1  0  0  0  0
 16 15  1  0  0  0  0
 16 17  1  1  0  0  0
 18  2  1  6  0  0  0
 18 16  1  0  0  0  0
 19 18  1  0  0  0  0
 19 20  1  6  0  0  0
 21 19  1  0  0  0  0
 21 22  1  6  0  0  0
 23 20  1  1  0  0  0
 23 24  1  0  0  0  0
 23 28  1  0  0  0  0
 24 25  1  1  0  0  0
 24 26  1  0  0  0  0
 26 27  1  0  0  0  0
 26 32  1  1  0  0  0
 27 28  1  0  0  0  0
 27 29  1  1  0  0  0
 29 30  1  0  0  0  0
 31 32  1  1  0  0  0
 31 40  1  0  0  0  0
 33 31  1  0  0  0  0
 33 42  1  1  0  0  0
 35 33  1  0  0  0  0
 35 36  1  6  0  0  0
 37 35  1  0  0  0  0
 37 38  1  1  0  0  0
 37 39  1  0  0  0  0
 39 40  1  0  0  0  0
 39 41  1  1  0  0  0
 41 34  1  0  0  0  0
M  END
>  <CHROM.1>
-174.84537681,178.54137317,179.94353277,151.46433053,150.79095589,124.99021561
-61.86287069,-84.98410503,-62.72042298,0.87340816,93.45830070,10.24726168
1.53362530,-1.22192911,0.35041365

>  <Name>
2fcy_lig

>  <RI>
2.32494e+07

>  <Rbt.Current_Directory>
/home/itssahil/PROJECTS/Mol_Feturizer/New_Systems/rnas/2fcy

>  <Rbt.Executable>
rbdock ($Id: //depot/dev/client3/rdock/2013.1/src/exe/rbdock.cxx#4 $)

>  <Rbt.Library>
libRbt.so (2013.1, Build901 2013/11/27)

>  <Rbt.Parameter_File>
/export/apps/rDock/src/rDock_2013.1_src/data/scripts/dock_solv.prm

>  <Rbt.Receptor>
prm/pocket_docking_8.prm

>  <SCORE>
-23.461

>  <SCORE.INTER>
-23.5617

>  <SCORE.INTER.CONST>
1

>  <SCORE.INTER.POLAR>
-3.55309

>  <SCORE.INTER.ROT>
9

>  <SCORE.INTER.SOLV>
20.8191

>  <SCORE.INTER.VDW>
-20.4039

>  <SCORE.INTER.norm>
-0.560992

>  <SCORE.INTRA>
0.100657

>  <SCORE.INTRA.DIHEDRAL>
-0.740788

>  <SCORE.INTRA.DIHEDRAL.0>
17.3446

>  <SCORE.INTRA.POLAR>
0

>  <SCORE.INTRA.POLAR.0>
0

>  <SCORE.INTRA.REPUL>
0

>  <SCORE.INTRA.REPUL.0>
0

>  <SCORE.INTRA.SOLV>
-2.46982

>  <SCORE.INTRA.SOLV.lig_0>
-112.452

>  <SCORE.INTRA.VDW>
1.70596

>  <SCORE.INTRA.VDW.0>
-5.95059

>  <SCORE.INTRA.norm>
0.00239658

>  <SCORE.RESTR>
0

>  <SCORE.RESTR.CAVITY>
0

>  <SCORE.RESTR.norm>
0

>  <SCORE.SYSTEM>
0

>  <SCORE.SYSTEM.CONST>
0

>  <SCORE.SYSTEM.DIHEDRAL>
0

>  <SCORE.SYSTEM.SOLV>
0

>  <SCORE.SYSTEM.norm>
0

>  <SCORE.heavy>
42

>  <SCORE.norm>
-0.558596

>  <RMSD>
6.980

$$$$
2fcy_lig
 OpenBabel11021811433D
libRbt.so/2013.1/901 2013/11/27
 42 45  0  0  0  0  0  0  0  0999 V2000
   -3.3211   95.2234   12.1931 C   0  0  2  0  0  0  0  0  0  0  0  0
   -3.6500   94.2326   11.2044 O   0  0  0  0  0  0  0  0  0  0  0  0
   -2.0882   94.6817   12.9181 C   0  0  2  0  0  0  0  0  0  0  0  0
   -1.0479   94.3876   11.9231 N   0  0  0  0  0  0  0  0  0  0  0  0
   -2.4562   93.3969   13.6644 C   0  0  1  0  0  0  0  0  0  0  0  0
   -1.3183   92.8731   14.3548 O   0  0  0  0  0  0  0  0  0  0  0  0
   -3.5911   93.6886   14.6466 C   0  0  2  0  0  0  0  0  0  0  0  0
   -3.9976   92.4709   15.2708 O   0  0  0  0  0  0  0  0  0  0  0  0
   -4.7845   94.2456   13.8689 C   0  0  2  0  0  0  0  0  0  0  0  0
   -4.3822   95.4217   13.1498 O   0  0  0  0  0  0  0  0  0  0  0  0
   -5.9247   94.5511   14.8439 C   0  0  0  0  0  0  0  0  0  0  0  0
   -7.0935   95.0919   14.1340 N   0  0  0  0  0  0  0  0  0  0  0  0
   -3.7945   94.3643    7.0082 C   0  0  2  0  0  0  0  0  0  0  0  0
   -3.6079   94.5636    5.5631 N   0  0  0  0  0  0  0  0  0  0  0  0
   -3.8778   95.7075    7.7360 C   0  0  0  0  0  0  0  0  0  0  0  0
   -4.2036   95.4380    9.2086 C   0  0  2  0  0  0  0  0  0  0  0  0
   -4.2025   96.7094    9.9465 N   0  0  0  0  0  0  0  0  0  0  0  0
   -3.1815   94.5111    9.8731 C   0  0  2  0  0  0  0  0  0  0  0  0
   -2.8599   93.2477    9.0827 C   0  0  2  0  0  0  0  0  0  0  0  0
   -1.6433   92.7369    9.6513 O   0  0  0  0  0  0  0  0  0  0  0  0
   -2.6407   93.5464    7.5937 C   0  0  1  0  0  0  0  0  0  0  0  0
   -2.5367   92.3348    6.8411 O   0  0  0  0  0  0  0  0  0  0  0  0
   -1.2924   91.3965    9.2711 C   0  0  1  0  0  0  0  0  0  0  0  0
   -0.2380   90.8970   10.2603 C   0  0  2  0  0  0  0  0  0  0  0  0
    1.0557   91.3485    9.8528 O   0  0  0  0  0  0  0  0  0  0  0  0
   -0.3614   89.3989    9.9976 C   0  0  1  0  0  0  0  0  0  0  0  0
   -1.8741   89.2451    9.9908 C   0  0  2  0  0  0  0  0  0  0  0  0
   -2.3814   90.4597    9.4007 O   0  0  0  0  0  0  0  0  0  0  0  0
   -2.3656   89.0617   11.4313 C   0  0  0  0  0  0  0  0  0  0  0  0
   -3.7908   89.1682   11.4933 O   0  0  0  0  0  0  0  0  0  0  0  0
    0.4710   87.6839    8.6321 C   0  0  2  0  0  0  0  0  0  0  0  0
    0.1713   89.0864    8.7006 O   0  0  0  0  0  0  0  0  0  0  0  0
    1.9063   87.4904    8.1327 C   0  0  1  0  0  0  0  0  0  0  0  0
   -2.5980   84.9045    7.5895 N   0  0  0  0  0  0  0  0  0  0  0  0
    2.2141   85.9997    7.9547 C   0  0  1  0  0  0  0  0  0  0  0  0
    2.2533   85.3457    9.2271 O   0  0  0  0  0  0  0  0  0  0  0  0
    1.1458   85.3517    7.0697 C   0  0  2  0  0  0  0  0  0  0  0  0
    1.2387   85.9147    5.7568 O   0  0  0  0  0  0  0  0  0  0  0  0
   -0.2424   85.6212    7.6601 C   0  0  1  0  0  0  0  0  0  0  0  0
   -0.4683   87.0400    7.7535 O   0  0  0  0  0  0  0  0  0  0  0  0
   -1.3470   84.9741    6.8202 C   0  0  0  0  0  0  0  0  0  0  0  0
    2.0446   88.1523    6.8266 N   0  0  0  0  0  0  0  0  0  0  0  0
  1  2  1  6  0  0  0
  1  3  1  0  0  0  0
  1 10  1  0  0  0  0
  3  4  1  6  0  0  0
  3  5  1  0  0  0  0
  5  6  1  1  0  0  0
  5  7  1  0  0  0  0
  7  8  1  6  0  0  0
  7  9  1  0  0  0  0
  9 10  1  0  0  0  0
  9 11  1  1  0  0  0
 11 12  1  0  0  0  0
 13 14  1  6  0  0  0
 13 15  1  0  0  0  0
 13 21  1  0  0  0  0
 16 15  1  0  0  0  0
 16 17  1  1  0  0  0
 18  2  1  1  0  0  0
 18 16  1  0  0  0  0
 19 18  1  0  0  0  0
 19 20  1  1  0  0  0
 21 19  1  0  0  0  0
 21 22  1  6  0  0  0
 23 20  1  1  0  0  0
 23 24  1  0  0  0  0
 23 28  1  0  0  0  0
 24 25  1  6  0  0  0
 24 26  1  0  0  0  0
 26 27  1  0  0  0  0
 26 32  1  6  0  0  0
 27 28  1  0  0  0  0
 27 29  1  1  0  0  0
 29 30  1  0  0  0  0
 31 32  1  6  0  0  0
 31 40  1  0  0  0  0
 33 31  1  0  0  0  0
 33 42  1  6  0  0  0
 35 33  1  0  0  0  0
 35 36  1  1  0  0  0
 37 35  1  0  0  0  0
 37 38  1  6  0  0  0
 37 39  1  0  0  0  0
 39 40  1  0  0  0  0
 39 41  1  6  0  0  0
 41 34  1  0  0  0  0
M  END
>  <CHROM.1>
-98.62665972,179.91536756,-83.65783694,166.91662033,-163.76917063,160.73654620
169.01331661,-128.88612397,163.55091599,-1.91105691,91.20844670,9.97519592
-2.95293976,1.10621196,-1.26875602

>  <Name>
2fcy_lig

>  <RI>
2.32494e+07

>  <Rbt.Current_Directory>
/home/itssahil/PROJECTS/Mol_Feturizer/New_Systems/rnas/2fcy

>  <Rbt.Executable>
rbdock ($Id: //depot/dev/client3/rdock/2013.1/src/exe/rbdock.cxx#4 $)

>  <Rbt.Library>
libRbt.so (2013.1, Build901 2013/11/27)

>  <Rbt.Parameter_File>
/export/apps/rDock/src/rDock_2013.1_src/data/scripts/dock_solv.prm

>  <Rbt.Receptor>
prm/pocket_docking_8.prm

>  <SCORE>
-14.8384

>  <SCORE.INTER>
-16.483

>  <SCORE.INTER.CONST>
1

>  <SCORE.INTER.POLAR>
-2.686

>  <SCORE.INTER.ROT>
9

>  <SCORE.INTER.SOLV>
15.0674

>  <SCORE.INTER.VDW>
-16.6578

>  <SCORE.INTER.norm>
-0.392452

>  <SCORE.INTRA>
1.64456

>  <SCORE.INTRA.DIHEDRAL>
2.48082

>  <SCORE.INTRA.DIHEDRAL.0>
17.3446

>  <SCORE.INTRA.POLAR>
0

>  <SCORE.INTRA.POLAR.0>
0

>  <SCORE.INTRA.REPUL>
0.00923301

>  <SCORE.INTRA.REPUL.0>
0

>  <SCORE.INTRA.SOLV>
-2.63327

>  <SCORE.INTRA.SOLV.lig_0>
-112.452

>  <SCORE.INTRA.VDW>
1.67462

>  <SCORE.INTRA.VDW.0>
-5.95059

>  <SCORE.INTRA.norm>
0.0391562

>  <SCORE.RESTR>
0

>  <SCORE.RESTR.CAVITY>
0

>  <SCORE.RESTR.norm>
0

>  <SCORE.SYSTEM>
0

>  <SCORE.SYSTEM.CONST>
0

>  <SCORE.SYSTEM.DIHEDRAL>
0

>  <SCORE.SYSTEM.SOLV>
0

>  <SCORE.SYSTEM.norm>
0

>  <SCORE.heavy>
42

>  <SCORE.norm>
-0.353296

>  <RMSD>
6.999

$$$$
2fcy_lig
 OpenBabel11021811433D
libRbt.so/2013.1/901 2013/11/27
 42 45  0  0  0  0  0  0  0  0999 V2000
    1.2487   96.6529   10.6673 C   0  0  2  0  0  0  0  0  0  0  0  0
    1.8705   96.8120   11.9539 O   0  0  0  0  0  0  0  0  0  0  0  0
    1.8611   97.7392    9.7818 C   0  0  2  0  0  0  0  0  0  0  0  0
    3.3239   97.6060    9.8164 N   0  0  0  0  0  0  0  0  0  0  0  0
    1.4631   99.1183   10.3137 C   0  0  1  0  0  0  0  0  0  0  0  0
    2.0214  100.1520    9.4980 O   0  0  0  0  0  0  0  0  0  0  0  0
   -0.0616   99.2276   10.3479 C   0  0  2  0  0  0  0  0  0  0  0  0
   -0.4306  100.4759   10.9339 O   0  0  0  0  0  0  0  0  0  0  0  0
   -0.6163   98.1067   11.2283 C   0  0  2  0  0  0  0  0  0  0  0  0
   -0.1811   96.8364   10.7190 O   0  0  0  0  0  0  0  0  0  0  0  0
   -2.1440   98.1999   11.2621 C   0  0  0  0  0  0  0  0  0  0  0  0
   -2.7163   97.1515   12.1199 N   0  0  0  0  0  0  0  0  0  0  0  0
    2.6799   93.7004   14.6574 C   0  0  2  0  0  0  0  0  0  0  0  0
    2.6888   92.6342   15.6705 N   0  0  0  0  0  0  0  0  0  0  0  0
    2.1972   95.0205   15.2616 C   0  0  0  0  0  0  0  0  0  0  0  0
    2.3359   96.1156   14.1992 C   0  0  2  0  0  0  0  0  0  0  0  0
    1.7963   97.3764   14.7284 N   0  0  0  0  0  0  0  0  0  0  0  0
    1.5720   95.7833   12.9141 C   0  0  2  0  0  0  0  0  0  0  0  0
    1.8177   94.3794   12.3727 C   0  0  2  0  0  0  0  0  0  0  0  0
    0.7544   94.1354   11.4379 O   0  0  0  0  0  0  0  0  0  0  0  0
    1.7717   93.3228   13.4846 C   0  0  1  0  0  0  0  0  0  0  0  0
    2.1966   92.0485   12.9941 O   0  0  0  0  0  0  0  0  0  0  0  0
    1.0513   93.2034   10.3855 C   0  0  1  0  0  0  0  0  0  0  0  0
   -0.2669   92.5587    9.9540 C   0  0  2  0  0  0  0  0  0  0  0  0
   -0.5781   91.4701   10.8268 O   0  0  0  0  0  0  0  0  0  0  0  0
    0.1712   92.0153    8.5971 C   0  0  1  0  0  0  0  0  0  0  0  0
    0.9187   93.2199    8.0474 C   0  0  2  0  0  0  0  0  0  0  0  0
    1.5550   93.8311    9.1885 O   0  0  0  0  0  0  0  0  0  0  0  0
   -0.0824   94.1674    7.3765 C   0  0  0  0  0  0  0  0  0  0  0  0
   -0.6769   93.5437    6.2346 O   0  0  0  0  0  0  0  0  0  0  0  0
    0.6102   89.7811    8.0366 C   0  0  2  0  0  0  0  0  0  0  0  0
    1.0770   90.9158    8.7821 O   0  0  0  0  0  0  0  0  0  0  0  0
   -0.3487   88.9580    8.9028 C   0  0  1  0  0  0  0  0  0  0  0  0
    3.4592   86.7388    7.4456 N   0  0  0  0  0  0  0  0  0  0  0  0
   -0.7801   87.6871    8.1631 C   0  0  1  0  0  0  0  0  0  0  0  0
   -1.6063   88.0209    7.0431 O   0  0  0  0  0  0  0  0  0  0  0  0
    0.4560   86.9194    7.6868 C   0  0  2  0  0  0  0  0  0  0  0  0
    1.1778   86.4603    8.8347 O   0  0  0  0  0  0  0  0  0  0  0  0
    1.3414   87.8439    6.8445 C   0  0  1  0  0  0  0  0  0  0  0  0
    1.7369   88.9879    7.6241 O   0  0  0  0  0  0  0  0  0  0  0  0
    2.5839   87.1150    6.3257 C   0  0  0  0  0  0  0  0  0  0  0  0
    0.3498   88.5635   10.1354 N   0  0  0  0  0  0  0  0  0  0  0  0
  1  2  1  1  0  0  0
  1  3  1  0  0  0  0
  1 10  1  0  0  0  0
  3  4  1  1  0  0  0
  3  5  1  0  0  0  0
  5  6  1  6  0  0  0
  5  7  1  0  0  0  0
  7  8  1  1  0  0  0
  7  9  1  0  0  0  0
  9 10  1  0  0  0  0
  9 11  1  6  0  0  0
 11 12  1  0  0  0  0
 13 14  1  1  0  0  0
 13 15  1  0  0  0  0
 13 21  1  0  0  0  0
 16 15  1  0  0  0  0
 16 17  1  1  0  0  0
 18  2  1  6  0  0  0
 18 16  1  0  0  0  0
 19 18  1  0  0  0  0
 19 20  1  6  0  0  0
 21 19  1  0  0  0  0
 21 22  1  6  0  0  0
 23 20  1  1  0  0  0
 23 24  1  0  0  0  0
 23 28  1  0  0  0  0
 24 25  1  1  0  0  0
 24 26  1  0  0  0  0
 26 27  1  0  0  0  0
 26 32  1  1  0  0  0
 27 28  1  0  0  0  0
 27 29  1  1  0  0  0
 29 30  1  0  0  0  0
 31 32  1  1  0  0  0
 31 40  1  0  0  0  0
 33 31  1  0  0  0  0
 33 42  1  1  0  0  0
 35 33  1  0  0  0  0
 35 36  1  6  0  0  0
 37 35  1  0  0  0  0
 37 38  1  1  0  0  0
 37 39  1  0  0  0  0
 39 40  1  0  0  0  0
 39 41  1  1  0  0  0
 41 34  1  0  0  0  0
M  END
>  <CHROM.1>
-172.43570791,-178.97888364,179.14830751,153.14423674,152.51797425,127.25462239
-64.86164463,-88.57927179,-65.85906470,0.88569857,93.43769463,10.27694678
1.56310750,-1.22365371,0.37246216

>  <Name>
2fcy_lig

>  <RI>
2.89127e+07

>  <Rbt.Current_Directory>
/home/itssahil/PROJECTS/Mol_Feturizer/New_Systems/rnas/2fcy

>  <Rbt.Executable>
rbdock ($Id: //depot/dev/client3/rdock/2013.1/src/exe/rbdock.cxx#4 $)

>  <Rbt.Library>
libRbt.so (2013.1, Build901 2013/11/27)

>  <Rbt.Parameter_File>
/export/apps/rDock/src/rDock_2013.1_src/data/scripts/dock_solv.prm

>  <Rbt.Receptor>
prm/pocket_docking_7.prm

>  <SCORE>
-23.4626

>  <SCORE.INTER>
-23.4731

>  <SCORE.INTER.CONST>
1

>  <SCORE.INTER.POLAR>
-3.52416

>  <SCORE.INTER.ROT>
9

>  <SCORE.INTER.SOLV>
22.1812

>  <SCORE.INTER.VDW>
-20.8952

>  <SCORE.INTER.norm>
-0.558883

>  <SCORE.INTRA>
0.0104702

>  <SCORE.INTRA.DIHEDRAL>
-0.506027

>  <SCORE.INTRA.DIHEDRAL.0>
17.3446

>  <SCORE.INTRA.POLAR>
0

>  <SCORE.INTRA.POLAR.0>
0

>  <SCORE.INTRA.REPUL>
0

>  <SCORE.INTRA.REPUL.0>
0

>  <SCORE.INTRA.SOLV>
-2.76276

>  <SCORE.INTRA.SOLV.lig_0>
-112.452

>  <SCORE.INTRA.VDW>
1.64487

>  <SCORE.INTRA.VDW.0>
-5.95059

>  <SCORE.INTRA.norm>
0.000249291

>  <SCORE.RESTR>
0

>  <SCORE.RESTR.CAVITY>
0

>  <SCORE.RESTR.norm>
0

>  <SCORE.SYSTEM>
0

>  <SCORE.SYSTEM.CONST>
0

>  <SCORE.SYSTEM.DIHEDRAL>
0

>  <SCORE.SYSTEM.SOLV>
0

>  <SCORE.SYSTEM.norm>
0

>  <SCORE.heavy>
42

>  <SCORE.norm>
-0.558633

>  <RMSD>
7.011

$$$$
2fcy_lig
 OpenBabel11021811433D
libRbt.so/2013.1/901 2013/11/27
 42 45  0  0  0  0  0  0  0  0999 V2000
   -1.3927   90.3685   10.3174 C   0  0  2  0  0  0  0  0  0  0  0  0
   -1.3553   89.9668   11.6974 O   0  0  0  0  0  0  0  0  0  0  0  0
   -2.6119   89.6638    9.7209 C   0  0  2  0  0  0  0  0  0  0  0  0
   -3.7927   90.0018   10.5273 N   0  0  0  0  0  0  0  0  0  0  0  0
   -2.3929   88.1491    9.7494 C   0  0  1  0  0  0  0  0  0  0  0  0
   -3.5200   87.4676    9.1918 O   0  0  0  0  0  0  0  0  0  0  0  0
   -1.1214   87.8061    8.9725 C   0  0  2  0  0  0  0  0  0  0  0  0
   -0.8668   86.4058    9.0819 O   0  0  0  0  0  0  0  0  0  0  0  0
    0.0560   88.5539    9.6000 C   0  0  2  0  0  0  0  0  0  0  0  0
   -0.2126   89.9646    9.5929 O   0  0  0  0  0  0  0  0  0  0  0  0
    1.3341   88.2259    8.8238 C   0  0  0  0  0  0  0  0  0  0  0  0
    1.6492   86.7921    8.9105 N   0  0  0  0  0  0  0  0  0  0  0  0
   -2.8744   91.7731   15.1724 C   0  0  2  0  0  0  0  0  0  0  0  0
   -3.2361   92.6208   16.3185 N   0  0  0  0  0  0  0  0  0  0  0  0
   -1.3665   91.5160   15.1407 C   0  0  0  0  0  0  0  0  0  0  0  0
   -1.0704   90.5251   14.0104 C   0  0  2  0  0  0  0  0  0  0  0  0
    0.3827   90.3300   13.9041 N   0  0  0  0  0  0  0  0  0  0  0  0
   -1.5760   91.0200   12.6521 C   0  0  2  0  0  0  0  0  0  0  0  0
   -3.0147   91.5247   12.6539 C   0  0  2  0  0  0  0  0  0  0  0  0
   -3.1590   92.2813   11.4411 O   0  0  0  0  0  0  0  0  0  0  0  0
   -3.2994   92.4323   13.8580 C   0  0  1  0  0  0  0  0  0  0  0  0
   -4.6943   92.7335   13.9501 O   0  0  0  0  0  0  0  0  0  0  0  0
   -2.4128   93.5075   11.3789 C   0  0  1  0  0  0  0  0  0  0  0  0
   -2.5006   94.0291    9.9437 C   0  0  2  0  0  0  0  0  0  0  0  0
   -1.5093   93.3878    9.1375 O   0  0  0  0  0  0  0  0  0  0  0  0
   -2.0937   95.4780   10.1957 C   0  0  1  0  0  0  0  0  0  0  0  0
   -2.9354   95.7899   11.4230 C   0  0  2  0  0  0  0  0  0  0  0  0
   -2.9774   94.5641   12.1821 O   0  0  0  0  0  0  0  0  0  0  0  0
   -4.3331   96.2309   10.9732 C   0  0  0  0  0  0  0  0  0  0  0  0
   -5.0633   95.1213   10.4423 O   0  0  0  0  0  0  0  0  0  0  0  0
   -0.3012   96.9140   10.6685 C   0  0  2  0  0  0  0  0  0  0  0  0
   -0.6974   95.5412   10.5270 O   0  0  0  0  0  0  0  0  0  0  0  0
   -0.4084   97.6205    9.3133 C   0  0  1  0  0  0  0  0  0  0  0  0
    3.2345   99.6701   12.4773 N   0  0  0  0  0  0  0  0  0  0  0  0
    0.1063   99.0601    9.4188 C   0  0  1  0  0  0  0  0  0  0  0  0
   -0.7738   99.8437   10.2310 O   0  0  0  0  0  0  0  0  0  0  0  0
    1.5133   99.0648   10.0227 C   0  0  2  0  0  0  0  0  0  0  0  0
    2.4031   98.4126    9.1104 O   0  0  0  0  0  0  0  0  0  0  0  0
    1.4988   98.3230   11.3635 C   0  0  1  0  0  0  0  0  0  0  0  0
    1.0456   96.9702   11.1704 O   0  0  0  0  0  0  0  0  0  0  0  0
    2.8822   98.3180   12.0195 C   0  0  0  0  0  0  0  0  0  0  0  0
    0.4242   96.8998    8.3384 N   0  0  0  0  0  0  0  0  0  0  0  0
  1  2  1  1  0  0  0
  1  3  1  0  0  0  0
  1 10  1  0  0  0  0
  3  4  1  1  0  0  0
  3  5  1  0  0  0  0
  5  6  1  6  0  0  0
  5  7  1  0  0  0  0
  7  8  1  1  0  0  0
  7  9  1  0  0  0  0
  9 10  1  0  0  0  0
  9 11  1  6  0  0  0
 11 12  1  0  0  0  0
 13 14  1  1  0  0  0
 13 15  1  0  0  0  0
 13 21  1  0  0  0  0
 16 15  1  0  0  0  0
 16 17  1  6  0  0  0
 18  2  1  6  0  0  0
 18 16  1  0  0  0  0
 19 18  1  0  0  0  0
 19 20  1  6  0  0  0
 21 19  1  0  0  0  0
 21 22  1  1  0  0  0
 23 20  1  6  0  0  0
 23 24  1  0  0  0  0
 23 28  1  0  0  0  0
 24 25  1  6  0  0  0
 24 26  1  0  0  0  0
 26 27  1  0  0  0  0
 26 32  1  1  0  0  0
 27 28  1  0  0  0  0
 27 29  1  6  0  0  0
 29 30  1  0  0  0  0
 31 32  1  6  0  0  0
 31 40  1  0  0  0  0
 33 31  1  0  0  0  0
 33 42  1  6  0  0  0
 35 33  1  0  0  0  0
 35 36  1  1  0  0  0
 37 35  1  0  0  0  0
 37 38  1  6  0  0  0
 37 39  1  0  0  0  0
 39 40  1  0  0  0  0
 39 41  1  6  0  0  0
 41 34  1  0  0  0  0
M  END
>  <CHROM.1>
-114.39539966,-62.60429926,-162.35167890,-68.08873149,170.21000204,175.90524722
70.80757874,-65.88113211,69.69725115,-1.22745335,93.21331096,11.06541746
-1.86779994,0.76418668,0.20380367

>  <Name>
2fcy_lig

>  <RI>
224

>  <Rbt.Current_Directory>
/home/itssahil/PROJECTS/Mol_Feturizer/New_Systems/rnas/2fcy

>  <Rbt.Executable>
rbdock ($Id: //depot/dev/client3/rdock/2013.1/src/exe/rbdock.cxx#4 $)

>  <Rbt.Library>
libRbt.so (2013.1, Build901 2013/11/27)

>  <Rbt.Parameter_File>
/export/apps/rDock/src/rDock_2013.1_src/data/scripts/dock_solv.prm

>  <Rbt.Receptor>
prm/pocket_docking_6.prm

>  <SCORE>
-17.0221

>  <SCORE.INTER>
-18.7036

>  <SCORE.INTER.CONST>
1

>  <SCORE.INTER.POLAR>
-3.09894

>  <SCORE.INTER.ROT>
9

>  <SCORE.INTER.SOLV>
24.8983

>  <SCORE.INTER.VDW>
-20.0387

>  <SCORE.INTER.norm>
-0.445325

>  <SCORE.INTRA>
1.68152

>  <SCORE.INTRA.DIHEDRAL>
-6.52363

>  <SCORE.INTRA.DIHEDRAL.0>
17.3446

>  <SCORE.INTRA.POLAR>
0

>  <SCORE.INTRA.POLAR.0>
0

>  <SCORE.INTRA.REPUL>
0

>  <SCORE.INTRA.REPUL.0>
0

>  <SCORE.INTRA.SOLV>
-0.0763661

>  <SCORE.INTRA.SOLV.lig_0>
-112.452

>  <SCORE.INTRA.VDW>
4.98152

>  <SCORE.INTRA.VDW.0>
-5.95059

>  <SCORE.INTRA.norm>
0.0400362

>  <SCORE.RESTR>
0

>  <SCORE.RESTR.CAVITY>
0

>  <SCORE.RESTR.norm>
0

>  <SCORE.SYSTEM>
0

>  <SCORE.SYSTEM.CONST>
0

>  <SCORE.SYSTEM.DIHEDRAL>
0

>  <SCORE.SYSTEM.SOLV>
0

>  <SCORE.SYSTEM.norm>
0

>  <SCORE.heavy>
42

>  <SCORE.norm>
-0.405288

>  <RMSD>
7.019

$$$$
2fcy_lig
 OpenBabel11021811433D
libRbt.so/2013.1/901 2013/11/27
 42 45  0  0  0  0  0  0  0  0999 V2000
    0.3871   88.4559    9.0578 C   0  0  2  0  0  0  0  0  0  0  0  0
   -0.8485   89.1101    9.3930 O   0  0  0  0  0  0  0  0  0  0  0  0
    0.6199   88.7592    7.5770 C   0  0  2  0  0  0  0  0  0  0  0  0
    0.5831   90.2152    7.3828 N   0  0  0  0  0  0  0  0  0  0  0  0
   -0.4836   88.1064    6.7407 C   0  0  1  0  0  0  0  0  0  0  0  0
   -0.2847   88.3731    5.3497 O   0  0  0  0  0  0  0  0  0  0  0  0
   -0.4930   86.5998    7.0014 C   0  0  2  0  0  0  0  0  0  0  0  0
   -1.5833   86.0072    6.2960 O   0  0  0  0  0  0  0  0  0  0  0  0
   -0.7076   86.3600    8.4966 C   0  0  2  0  0  0  0  0  0  0  0  0
    0.3227   87.0268    9.2425 O   0  0  0  0  0  0  0  0  0  0  0  0
   -0.7088   84.8539    8.7715 C   0  0  0  0  0  0  0  0  0  0  0  0
   -1.9283   84.2237    8.2441 N   0  0  0  0  0  0  0  0  0  0  0  0
   -1.3156   92.8766   11.1936 C   0  0  2  0  0  0  0  0  0  0  0  0
   -1.3315   94.2896   11.6013 N   0  0  0  0  0  0  0  0  0  0  0  0
    0.1200   92.3766   11.0208 C   0  0  0  0  0  0  0  0  0  0  0  0
    0.0745   90.8735   10.7278 C   0  0  2  0  0  0  0  0  0  0  0  0
    1.4379   90.3874   10.4714 N   0  0  0  0  0  0  0  0  0  0  0  0
   -0.7782   90.5430    9.4993 C   0  0  2  0  0  0  0  0  0  0  0  0
   -2.1511   91.2057    9.4806 C   0  0  2  0  0  0  0  0  0  0  0  0
   -2.6118   91.0992    8.1239 O   0  0  0  0  0  0  0  0  0  0  0  0
   -2.0758   92.6857    9.8788 C   0  0  1  0  0  0  0  0  0  0  0  0
   -3.3854   93.2353   10.0463 O   0  0  0  0  0  0  0  0  0  0  0  0
   -4.0327   91.2033    7.9382 C   0  0  1  0  0  0  0  0  0  0  0  0
   -4.3437   90.7726    6.5039 C   0  0  2  0  0  0  0  0  0  0  0  0
   -4.1495   91.8772    5.6173 O   0  0  0  0  0  0  0  0  0  0  0  0
   -5.8371   90.5003    6.6596 C   0  0  1  0  0  0  0  0  0  0  0  0
   -5.8381   89.7117    7.9597 C   0  0  2  0  0  0  0  0  0  0  0  0
   -4.7872   90.2900    8.7610 O   0  0  0  0  0  0  0  0  0  0  0  0
   -5.5720   88.2341    7.6497 C   0  0  0  0  0  0  0  0  0  0  0  0
   -5.7840   87.4304    8.8140 O   0  0  0  0  0  0  0  0  0  0  0  0
   -7.9407   91.4712    7.0210 C   0  0  2  0  0  0  0  0  0  0  0  0
   -6.5425   91.7393    6.8346 O   0  0  0  0  0  0  0  0  0  0  0  0
   -8.5716   91.0847    5.6795 C   0  0  1  0  0  0  0  0  0  0  0  0
  -10.2475   94.8771    7.7691 N   0  0  0  0  0  0  0  0  0  0  0  0
  -10.0840   90.8930    5.8355 C   0  0  1  0  0  0  0  0  0  0  0  0
  -10.3581   89.7379    6.6347 O   0  0  0  0  0  0  0  0  0  0  0  0
  -10.6995   92.1343    6.4873 C   0  0  2  0  0  0  0  0  0  0  0  0
  -10.5506   93.2409    5.5914 O   0  0  0  0  0  0  0  0  0  0  0  0
   -9.9828   92.4285    7.8095 C   0  0  1  0  0  0  0  0  0  0  0  0
   -8.5787   92.6377    7.5699 O   0  0  0  0  0  0  0  0  0  0  0  0
  -10.5772   93.6521    8.5122 C   0  0  0  0  0  0  0  0  0  0  0  0
   -8.3380   92.1724    4.7174 N   0  0  0  0  0  0  0  0  0  0  0  0
  1  2  1  6  0  0  0
  1  3  1  0  0  0  0
  1 10  1  0  0  0  0
  3  4  1  1  0  0  0
  3  5  1  0  0  0  0
  5  6  1  6  0  0  0
  5  7  1  0  0  0  0
  7  8  1  6  0  0  0
  7  9  1  0  0  0  0
  9 10  1  0  0  0  0
  9 11  1  6  0  0  0
 11 12  1  0  0  0  0
 13 14  1  6  0  0  0
 13 15  1  0  0  0  0
 13 21  1  0  0  0  0
 16 15  1  0  0  0  0
 16 17  1  6  0  0  0
 18  2  1  1  0  0  0
 18 16  1  0  0  0  0
 19 18  1  0  0  0  0
 19 20  1  6  0  0  0
 21 19  1  0  0  0  0
 21 22  1  1  0  0  0
 23 20  1  1  0  0  0
 23 24  1  0  0  0  0
 23 28  1  0  0  0  0
 24 25  1  6  0  0  0
 24 26  1  0  0  0  0
 26 27  1  0  0  0  0
 26 32  1  1  0  0  0
 27 28  1  0  0  0  0
 27 29  1  6  0  0  0
 29 30  1  0  0  0  0
 31 32  1  6  0  0  0
 31 40  1  0  0  0  0
 33 31  1  0  0  0  0
 33 42  1  6  0  0  0
 35 33  1  0  0  0  0
 35 36  1  1  0  0  0
 37 35  1  0  0  0  0
 37 38  1  6  0  0  0
 37 39  1  0  0  0  0
 39 40  1  0  0  0  0
 39 41  1  6  0  0  0
 41 34  1  0  0  0  0
M  END
>  <CHROM.1>
-73.48469860,-71.12872282,-68.02724927,158.44736041,-168.13508670,-178.26042802
-170.42695546,-74.77184064,-69.95892960,-4.07286437,90.31843091,7.98083647
0.25298967,0.34674789,-2.71215039

>  <Name>
2fcy_lig

>  <RI>
2.32494e+07

>  <Rbt.Current_Directory>
/home/itssahil/PROJECTS/Mol_Feturizer/New_Systems/rnas/2fcy

>  <Rbt.Executable>
rbdock ($Id: //depot/dev/client3/rdock/2013.1/src/exe/rbdock.cxx#4 $)

>  <Rbt.Library>
libRbt.so (2013.1, Build901 2013/11/27)

>  <Rbt.Parameter_File>
/export/apps/rDock/src/rDock_2013.1_src/data/scripts/dock_solv.prm

>  <Rbt.Receptor>
prm/pocket_docking_8.prm

>  <SCORE>
-7.10623

>  <SCORE.INTER>
-8.70357

>  <SCORE.INTER.CONST>
1

>  <SCORE.INTER.POLAR>
-1.972

>  <SCORE.INTER.ROT>
9

>  <SCORE.INTER.SOLV>
16.954

>  <SCORE.INTER.VDW>
-14.4804

>  <SCORE.INTER.norm>
-0.207228

>  <SCORE.INTRA>
1.59734

>  <SCORE.INTRA.DIHEDRAL>
-10.6706

>  <SCORE.INTRA.DIHEDRAL.0>
17.3446

>  <SCORE.INTRA.POLAR>
0

>  <SCORE.INTRA.POLAR.0>
0

>  <SCORE.INTRA.REPUL>
0

>  <SCORE.INTRA.REPUL.0>
0

>  <SCORE.INTRA.SOLV>
2.30802

>  <SCORE.INTRA.SOLV.lig_0>
-112.452

>  <SCORE.INTRA.VDW>
5.77865

>  <SCORE.INTRA.VDW.0>
-5.95059

>  <SCORE.INTRA.norm>
0.038032

>  <SCORE.RESTR>
0

>  <SCORE.RESTR.CAVITY>
0

>  <SCORE.RESTR.norm>
0

>  <SCORE.SYSTEM>
0

>  <SCORE.SYSTEM.CONST>
0

>  <SCORE.SYSTEM.DIHEDRAL>
0

>  <SCORE.SYSTEM.SOLV>
0

>  <SCORE.SYSTEM.norm>
0

>  <SCORE.heavy>
42

>  <SCORE.norm>
-0.169196

>  <RMSD>
7.091

$$$$
2fcy_lig
 OpenBabel11021811433D
libRbt.so/2013.1/901 2013/11/27
 42 45  0  0  0  0  0  0  0  0999 V2000
    2.8714   90.6567   17.6023 C   0  0  2  0  0  0  0  0  0  0  0  0
    2.4762   91.2573   18.8474 O   0  0  0  0  0  0  0  0  0  0  0  0
    2.1463   89.3111   17.5509 C   0  0  2  0  0  0  0  0  0  0  0  0
    0.7069   89.5444   17.7308 N   0  0  0  0  0  0  0  0  0  0  0  0
    2.6600   88.4091   18.6760 C   0  0  1  0  0  0  0  0  0  0  0  0
    1.9986   87.1413   18.6457 O   0  0  0  0  0  0  0  0  0  0  0  0
    4.1713   88.2285   18.5307 C   0  0  2  0  0  0  0  0  0  0  0  0
    4.6623   87.4677   19.6342 O   0  0  0  0  0  0  0  0  0  0  0  0
    4.8378   89.6046   18.5679 C   0  0  2  0  0  0  0  0  0  0  0  0
    4.2938   90.4297   17.5260 O   0  0  0  0  0  0  0  0  0  0  0  0
    6.3517   89.4370   18.4131 C   0  0  0  0  0  0  0  0  0  0  0  0
    6.9403   88.8335   19.6181 N   0  0  0  0  0  0  0  0  0  0  0  0
    2.5117   95.2141   20.2579 C   0  0  2  0  0  0  0  0  0  0  0  0
    2.7991   96.5922   20.6834 N   0  0  0  0  0  0  0  0  0  0  0  0
    3.4092   94.2188   20.9960 C   0  0  0  0  0  0  0  0  0  0  0  0
    2.9742   92.8010   20.6115 C   0  0  2  0  0  0  0  0  0  0  0  0
    3.8790   91.8282   21.2408 N   0  0  0  0  0  0  0  0  0  0  0  0
    3.0158   92.5670   19.0986 C   0  0  2  0  0  0  0  0  0  0  0  0
    2.3422   93.6536   18.2679 C   0  0  2  0  0  0  0  0  0  0  0  0
    2.8185   93.4634   16.9258 O   0  0  0  0  0  0  0  0  0  0  0  0
    2.7240   95.0594   18.7500 C   0  0  1  0  0  0  0  0  0  0  0  0
    1.9355   96.0549   18.0923 O   0  0  0  0  0  0  0  0  0  0  0  0
    2.0474   94.1006   15.8945 C   0  0  1  0  0  0  0  0  0  0  0  0
    3.0009   94.4393   14.7475 C   0  0  2  0  0  0  0  0  0  0  0  0
    3.6581   95.6796   15.0189 O   0  0  0  0  0  0  0  0  0  0  0  0
    1.9717   94.6395   13.6388 C   0  0  1  0  0  0  0  0  0  0  0  0
    1.0804   93.4294   13.8699 C   0  0  2  0  0  0  0  0  0  0  0  0
    1.0595   93.2347   15.2990 O   0  0  0  0  0  0  0  0  0  0  0  0
    1.6761   92.2213   13.1379 C   0  0  0  0  0  0  0  0  0  0  0  0
    1.0173   91.0163   13.5384 O   0  0  0  0  0  0  0  0  0  0  0  0
    1.9306   96.9577   13.2884 C   0  0  2  0  0  0  0  0  0  0  0  0
    1.2319   95.8482   13.8734 O   0  0  0  0  0  0  0  0  0  0  0  0
    1.7869   98.1872   14.1910 C   0  0  1  0  0  0  0  0  0  0  0  0
    1.7318   97.1906    9.1508 N   0  0  0  0  0  0  0  0  0  0  0  0
    2.4390   99.4100   13.5366 C   0  0  1  0  0  0  0  0  0  0  0  0
    3.8598   99.2463   13.4841 O   0  0  0  0  0  0  0  0  0  0  0  0
    1.8847   99.5983   12.1218 C   0  0  2  0  0  0  0  0  0  0  0  0
    0.4928   99.9193   12.2165 O   0  0  0  0  0  0  0  0  0  0  0  0
    2.0726   98.3055   11.3207 C   0  0  1  0  0  0  0  0  0  0  0  0
    1.3959   97.2184   11.9788 O   0  0  0  0  0  0  0  0  0  0  0  0
    1.5515   98.4497    9.8882 C   0  0  0  0  0  0  0  0  0  0  0  0
    0.3559   98.4693   14.3797 N   0  0  0  0  0  0  0  0  0  0  0  0
  1  2  1  1  0  0  0
  1  3  1  0  0  0  0
  1 10  1  0  0  0  0
  3  4  1  1  0  0  0
  3  5  1  0  0  0  0
  5  6  1  6  0  0  0
  5  7  1  0  0  0  0
  7  8  1  1  0  0  0
  7  9  1  0  0  0  0
  9 10  1  0  0  0  0
  9 11  1  6  0  0  0
 11 12  1  0  0  0  0
 13 14  1  1  0  0  0
 13 15  1  0  0  0  0
 13 21  1  0  0  0  0
 16 15  1  0  0  0  0
 16 17  1  1  0  0  0
 18  2  1  1  0  0  0
 18 16  1  0  0  0  0
 19 18  1  0  0  0  0
 19 20  1  6  0  0  0
 21 19  1  0  0  0  0
 21 22  1  6  0  0  0
 23 20  1  1  0  0  0
 23 24  1  0  0  0  0
 23 28  1  0  0  0  0
 24 25  1  1  0  0  0
 24 26  1  0  0  0  0
 26 27  1  0  0  0  0
 26 32  1  1  0  0  0
 27 28  1  0  0  0  0
 27 29  1  6  0  0  0
 29 30  1  0  0  0  0
 31 32  1  1  0  0  0
 31 40  1  0  0  0  0
 33 31  1  0  0  0  0
 33 42  1  6  0  0  0
 35 33  1  0  0  0  0
 35 36  1  6  0  0  0
 37 35  1  0  0  0  0
 37 38  1  1  0  0  0
 37 39  1  0  0  0  0
 39 40  1  0  0  0  0
 39 41  1  6  0  0  0
 41 34  1  0  0  0  0
M  END
>  <CHROM.1>
-178.36279830,-70.58658262,-157.79286476,162.53529402,150.40061755,87.17472764
168.80516360,-142.86716415,-179.37117325,2.58182794,93.78503151,16.18733739
0.61586214,1.34349158,-2.87424354

>  <Name>
2fcy_lig

>  <RI>
2.89127e+07

>  <Rbt.Current_Directory>
/home/itssahil/PROJECTS/Mol_Feturizer/New_Systems/rnas/2fcy

>  <Rbt.Executable>
rbdock ($Id: //depot/dev/client3/rdock/2013.1/src/exe/rbdock.cxx#4 $)

>  <Rbt.Library>
libRbt.so (2013.1, Build901 2013/11/27)

>  <Rbt.Parameter_File>
/export/apps/rDock/src/rDock_2013.1_src/data/scripts/dock_solv.prm

>  <Rbt.Receptor>
prm/pocket_docking_7.prm

>  <SCORE>
-18.1618

>  <SCORE.INTER>
-17.1519

>  <SCORE.INTER.CONST>
1

>  <SCORE.INTER.POLAR>
-2.11123

>  <SCORE.INTER.ROT>
9

>  <SCORE.INTER.SOLV>
20.0382

>  <SCORE.INTER.VDW>
-20.6766

>  <SCORE.INTER.norm>
-0.408379

>  <SCORE.INTRA>
-1.00986

>  <SCORE.INTRA.DIHEDRAL>
-1.23495

>  <SCORE.INTRA.DIHEDRAL.0>
17.3446

>  <SCORE.INTRA.POLAR>
0

>  <SCORE.INTRA.POLAR.0>
0

>  <SCORE.INTRA.REPUL>
0

>  <SCORE.INTRA.REPUL.0>
0

>  <SCORE.INTRA.SOLV>
-3.83496

>  <SCORE.INTRA.SOLV.lig_0>
-112.452

>  <SCORE.INTRA.VDW>
1.52509

>  <SCORE.INTRA.VDW.0>
-5.95059

>  <SCORE.INTRA.norm>
-0.0240444

>  <SCORE.RESTR>
0

>  <SCORE.RESTR.CAVITY>
0

>  <SCORE.RESTR.norm>
0

>  <SCORE.SYSTEM>
0

>  <SCORE.SYSTEM.CONST>
0

>  <SCORE.SYSTEM.DIHEDRAL>
0

>  <SCORE.SYSTEM.SOLV>
0

>  <SCORE.SYSTEM.norm>
0

>  <SCORE.heavy>
42

>  <SCORE.norm>
-0.432424

>  <RMSD>
7.161

$$$$
2fcy_lig
 OpenBabel11021811433D
libRbt.so/2013.1/901 2013/11/27
 42 45  0  0  0  0  0  0  0  0999 V2000
   -1.5280   91.4403    9.7856 C   0  0  2  0  0  0  0  0  0  0  0  0
   -2.6093   92.3693    9.9730 O   0  0  0  0  0  0  0  0  0  0  0  0
   -1.5736   90.5119   11.0001 C   0  0  2  0  0  0  0  0  0  0  0  0
   -2.9192   89.9302   11.0982 N   0  0  0  0  0  0  0  0  0  0  0  0
   -1.2721   91.3133   12.2690 C   0  0  1  0  0  0  0  0  0  0  0  0
   -1.3048   90.4642   13.4195 O   0  0  0  0  0  0  0  0  0  0  0  0
    0.0973   91.9799   12.1340 C   0  0  2  0  0  0  0  0  0  0  0  0
    0.3341   92.8035   13.2756 O   0  0  0  0  0  0  0  0  0  0  0  0
    0.0889   92.8761   10.8947 C   0  0  2  0  0  0  0  0  0  0  0  0
   -0.2423   92.0924    9.7378 O   0  0  0  0  0  0  0  0  0  0  0  0
    1.4592   93.5418   10.7434 C   0  0  0  0  0  0  0  0  0  0  0  0
    1.5228   94.3410    9.5105 N   0  0  0  0  0  0  0  0  0  0  0  0
   -4.2778   95.1200    7.2718 C   0  0  2  0  0  0  0  0  0  0  0  0
   -4.6107   96.2127    6.3455 N   0  0  0  0  0  0  0  0  0  0  0  0
   -3.8580   95.6722    8.6356 C   0  0  0  0  0  0  0  0  0  0  0  0
   -3.6538   94.4920    9.5909 C   0  0  2  0  0  0  0  0  0  0  0  0
   -3.1653   94.9930   10.8837 N   0  0  0  0  0  0  0  0  0  0  0  0
   -2.6293   93.4835    9.0632 C   0  0  2  0  0  0  0  0  0  0  0  0
   -2.8412   93.0601    7.6140 C   0  0  2  0  0  0  0  0  0  0  0  0
   -1.6048   92.4530    7.2052 O   0  0  0  0  0  0  0  0  0  0  0  0
   -3.1440   94.2605    6.7073 C   0  0  1  0  0  0  0  0  0  0  0  0
   -3.5320   93.8269    5.4009 O   0  0  0  0  0  0  0  0  0  0  0  0
   -1.6968   91.0897    6.7611 C   0  0  1  0  0  0  0  0  0  0  0  0
   -2.5293   91.0773    5.4779 C   0  0  2  0  0  0  0  0  0  0  0  0
   -3.9203   91.0611    5.8073 O   0  0  0  0  0  0  0  0  0  0  0  0
   -2.1158   89.7090    4.9438 C   0  0  1  0  0  0  0  0  0  0  0  0
   -0.6115   89.7747    5.1556 C   0  0  2  0  0  0  0  0  0  0  0  0
   -0.4272   90.5258    6.3732 O   0  0  0  0  0  0  0  0  0  0  0  0
    0.0340   90.4712    3.9521 C   0  0  0  0  0  0  0  0  0  0  0  0
   -0.2541   91.8723    3.9684 O   0  0  0  0  0  0  0  0  0  0  0  0
   -2.8411   87.4794    4.9826 C   0  0  2  0  0  0  0  0  0  0  0  0
   -2.6838   88.6745    5.7627 O   0  0  0  0  0  0  0  0  0  0  0  0
   -3.4524   86.3764    5.8526 C   0  0  1  0  0  0  0  0  0  0  0  0
    0.1139   86.6731    2.1161 N   0  0  0  0  0  0  0  0  0  0  0  0
   -3.5352   85.0619    5.0691 C   0  0  1  0  0  0  0  0  0  0  0  0
   -4.4959   85.1726    4.0141 O   0  0  0  0  0  0  0  0  0  0  0  0
   -2.1614   84.7175    4.4874 C   0  0  2  0  0  0  0  0  0  0  0  0
   -1.2611   84.4550    5.5691 O   0  0  0  0  0  0  0  0  0  0  0  0
   -1.6486   85.8944    3.6506 C   0  0  1  0  0  0  0  0  0  0  0  0
   -1.5597   87.0756    4.4689 O   0  0  0  0  0  0  0  0  0  0  0  0
   -0.2832   85.5904    3.0282 C   0  0  0  0  0  0  0  0  0  0  0  0
   -2.5877   86.1655    7.0235 N   0  0  0  0  0  0  0  0  0  0  0  0
  1  2  1  1  0  0  0
  1  3  1  0  0  0  0
  1 10  1  0  0  0  0
  3  4  1  1  0  0  0
  3  5  1  0  0  0  0
  5  6  1  1  0  0  0
  5  7  1  0  0  0  0
  7  8  1  1  0  0  0
  7  9  1  0  0  0  0
  9 10  1  0  0  0  0
  9 11  1  6  0  0  0
 11 12  1  0  0  0  0
 13 14  1  6  0  0  0
 13 15  1  0  0  0  0
 13 21  1  0  0  0  0
 16 15  1  0  0  0  0
 16 17  1  1  0  0  0
 18  2  1  1  0  0  0
 18 16  1  0  0  0  0
 19 18  1  0  0  0  0
 19 20  1  6  0  0  0
 21 19  1  0  0  0  0
 21 22  1  6  0  0  0
 23 20  1  6  0  0  0
 23 24  1  0  0  0  0
 23 28  1  0  0  0  0
 24 25  1  1  0  0  0
 24 26  1  0  0  0  0
 26 27  1  0  0  0  0
 26 32  1  1  0  0  0
 27 28  1  0  0  0  0
 27 29  1  6  0  0  0
 29 30  1  0  0  0  0
 31 32  1  1  0  0  0
 31 40  1  0  0  0  0
 33 31  1  0  0  0  0
 33 42  1  1  0  0  0
 35 33  1  0  0  0  0
 35 36  1  6  0  0  0
 37 35  1  0  0  0  0
 37 38  1  1  0  0  0
 37 39  1  0  0  0  0
 39 40  1  0  0  0  0
 39 41  1  1  0  0  0
 41 34  1  0  0  0  0
M  END
>  <CHROM.1>
170.05452342,176.09763835,-168.54450549,121.22015790,65.42734489,153.51120847
72.22886826,-179.75870288,173.80593215,-1.87279683,90.60877741,7.39755344
-1.45870986,1.23376296,-2.55171658

>  <Name>
2fcy_lig

>  <RI>
2.32494e+07

>  <Rbt.Current_Directory>
/home/itssahil/PROJECTS/Mol_Feturizer/New_Systems/rnas/2fcy

>  <Rbt.Executable>
rbdock ($Id: //depot/dev/client3/rdock/2013.1/src/exe/rbdock.cxx#4 $)

>  <Rbt.Library>
libRbt.so (2013.1, Build901 2013/11/27)

>  <Rbt.Parameter_File>
/export/apps/rDock/src/rDock_2013.1_src/data/scripts/dock_solv.prm

>  <Rbt.Receptor>
prm/pocket_docking_8.prm

>  <SCORE>
-4.47794

>  <SCORE.INTER>
-2.38566

>  <SCORE.INTER.CONST>
1

>  <SCORE.INTER.POLAR>
-0.784549

>  <SCORE.INTER.ROT>
9

>  <SCORE.INTER.SOLV>
13.0965

>  <SCORE.INTER.VDW>
-12.9408

>  <SCORE.INTER.norm>
-0.0568014

>  <SCORE.INTRA>
-2.09228

>  <SCORE.INTRA.DIHEDRAL>
-4.91359

>  <SCORE.INTRA.DIHEDRAL.0>
17.3446

>  <SCORE.INTRA.POLAR>
0

>  <SCORE.INTRA.POLAR.0>
0

>  <SCORE.INTRA.REPUL>
0.0330589

>  <SCORE.INTRA.REPUL.0>
0

>  <SCORE.INTRA.SOLV>
-3.76808

>  <SCORE.INTRA.SOLV.lig_0>
-112.452

>  <SCORE.INTRA.VDW>
2.08326

>  <SCORE.INTRA.VDW.0>
-5.95059

>  <SCORE.INTRA.norm>
-0.0498163

>  <SCORE.RESTR>
0

>  <SCORE.RESTR.CAVITY>
0

>  <SCORE.RESTR.norm>
0

>  <SCORE.SYSTEM>
0

>  <SCORE.SYSTEM.CONST>
0

>  <SCORE.SYSTEM.DIHEDRAL>
0

>  <SCORE.SYSTEM.SOLV>
0

>  <SCORE.SYSTEM.norm>
0

>  <SCORE.heavy>
42

>  <SCORE.norm>
-0.106618

>  <RMSD>
7.211

$$$$
2fcy_lig
 OpenBabel11021811433D
libRbt.so/2013.1/901 2013/11/27
 42 45  0  0  0  0  0  0  0  0999 V2000
    0.1986   91.0838   17.7689 C   0  0  2  0  0  0  0  0  0  0  0  0
    0.5946   92.3741   17.2733 O   0  0  0  0  0  0  0  0  0  0  0  0
    0.7809   90.9934   19.1802 C   0  0  2  0  0  0  0  0  0  0  0  0
    0.3220   92.1547   19.9545 N   0  0  0  0  0  0  0  0  0  0  0  0
    2.3098   91.0039   19.1052 C   0  0  1  0  0  0  0  0  0  0  0  0
    2.8780   90.9158   20.4148 O   0  0  0  0  0  0  0  0  0  0  0  0
    2.7826   89.8379   18.2365 C   0  0  2  0  0  0  0  0  0  0  0  0
    4.2008   89.9063   18.0888 O   0  0  0  0  0  0  0  0  0  0  0  0
    2.1531   89.9704   16.8490 C   0  0  2  0  0  0  0  0  0  0  0  0
    0.7226   90.0019   16.9718 O   0  0  0  0  0  0  0  0  0  0  0  0
    2.6117   88.8020   15.9725 C   0  0  0  0  0  0  0  0  0  0  0  0
    2.6658   87.5529   16.7468 N   0  0  0  0  0  0  0  0  0  0  0  0
    0.1491   91.1967   13.2655 C   0  0  2  0  0  0  0  0  0  0  0  0
   -0.0243   91.0627   11.8113 N   0  0  0  0  0  0  0  0  0  0  0  0
   -1.0186   91.9683   13.8836 C   0  0  0  0  0  0  0  0  0  0  0  0
   -0.8495   91.9597   15.4062 C   0  0  2  0  0  0  0  0  0  0  0  0
   -1.9130   92.7699   16.0173 N   0  0  0  0  0  0  0  0  0  0  0  0
    0.4954   92.5439   15.8482 C   0  0  2  0  0  0  0  0  0  0  0  0
    1.7049   91.9930   15.1012 C   0  0  2  0  0  0  0  0  0  0  0  0
    2.7747   92.9143   15.3675 O   0  0  0  0  0  0  0  0  0  0  0  0
    1.4576   91.9222   13.5884 C   0  0  1  0  0  0  0  0  0  0  0  0
    2.5189   91.2247   12.9310 O   0  0  0  0  0  0  0  0  0  0  0  0
    2.9334   93.9775   14.4143 C   0  0  1  0  0  0  0  0  0  0  0  0
    1.7625   94.9438   14.6011 C   0  0  2  0  0  0  0  0  0  0  0  0
    0.6258   94.4676   13.8768 O   0  0  0  0  0  0  0  0  0  0  0  0
    2.3472   96.1606   13.8898 C   0  0  1  0  0  0  0  0  0  0  0  0
    3.7514   96.1712   14.4733 C   0  0  2  0  0  0  0  0  0  0  0  0
    4.1070   94.7837   14.6443 O   0  0  0  0  0  0  0  0  0  0  0  0
    3.7336   96.9246   15.8083 C   0  0  0  0  0  0  0  0  0  0  0  0
    5.0236   97.4737   16.0926 O   0  0  0  0  0  0  0  0  0  0  0  0
    3.0512   97.0220   11.8256 C   0  0  2  0  0  0  0  0  0  0  0  0
    2.4035   95.9175   12.4752 O   0  0  0  0  0  0  0  0  0  0  0  0
    2.4572   97.2136   10.4265 C   0  0  1  0  0  0  0  0  0  0  0  0
    7.4267   98.6328   10.4857 N   0  0  0  0  0  0  0  0  0  0  0  0
    3.2032   98.3222    9.6762 C   0  0  1  0  0  0  0  0  0  0  0  0
    2.9454   99.5925   10.2831 O   0  0  0  0  0  0  0  0  0  0  0  0
    4.7072   98.0356    9.6888 C   0  0  2  0  0  0  0  0  0  0  0  0
    4.9501   96.8422    8.9362 O   0  0  0  0  0  0  0  0  0  0  0  0
    5.1824   97.8513   11.1340 C   0  0  1  0  0  0  0  0  0  0  0  0
    4.4648   96.7667   11.7514 O   0  0  0  0  0  0  0  0  0  0  0  0
    6.6882   97.5822   11.2017 C   0  0  0  0  0  0  0  0  0  0  0  0
    2.6096   95.9594    9.6735 N   0  0  0  0  0  0  0  0  0  0  0  0
  1  2  1  6  0  0  0
  1  3  1  0  0  0  0
  1 10  1  0  0  0  0
  3  4  1  1  0  0  0
  3  5  1  0  0  0  0
  5  6  1  1  0  0  0
  5  7  1  0  0  0  0
  7  8  1  6  0  0  0
  7  9  1  0  0  0  0
  9 10  1  0  0  0  0
  9 11  1  6  0  0  0
 11 12  1  0  0  0  0
 13 14  1  6  0  0  0
 13 15  1  0  0  0  0
 13 21  1  0  0  0  0
 16 15  1  0  0  0  0
 16 17  1  1  0  0  0
 18  2  1  1  0  0  0
 18 16  1  0  0  0  0
 19 18  1  0  0  0  0
 19 20  1  6  0  0  0
 21 19  1  0  0  0  0
 21 22  1  6  0  0  0
 23 20  1  1  0  0  0
 23 24  1  0  0  0  0
 23 28  1  0  0  0  0
 24 25  1  6  0  0  0
 24 26  1  0  0  0  0
 26 27  1  0  0  0  0
 26 32  1  6  0  0  0
 27 28  1  0  0  0  0
 27 29  1  1  0  0  0
 29 30  1  0  0  0  0
 31 32  1  6  0  0  0
 31 40  1  0  0  0  0
 33 31  1  0  0  0  0
 33 42  1  6  0  0  0
 35 33  1  0  0  0  0
 35 36  1  1  0  0  0
 37 35  1  0  0  0  0
 37 38  1  6  0  0  0
 37 39  1  0  0  0  0
 39 40  1  0  0  0  0
 39 41  1  6  0  0  0
 41 34  1  0  0  0  0
M  END
>  <CHROM.1>
163.08657024,39.05637414,44.56437910,-91.91218294,71.45402177,-175.46774732
-154.22610902,-147.76249183,53.64537908,2.45750137,93.79367434,14.41292639
1.97309507,0.74209388,2.10880108

>  <Name>
2fcy_lig

>  <RI>
9.29634e+06

>  <Rbt.Current_Directory>
/home/itssahil/PROJECTS/Mol_Feturizer/New_Systems/rnas/2fcy

>  <Rbt.Executable>
rbdock ($Id: //depot/dev/client3/rdock/2013.1/src/exe/rbdock.cxx#4 $)

>  <Rbt.Library>
libRbt.so (2013.1, Build901 2013/11/27)

>  <Rbt.Parameter_File>
/export/apps/rDock/src/rDock_2013.1_src/data/scripts/dock_solv.prm

>  <Rbt.Receptor>
prm/blind_docking_100.prm

>  <SCORE>
28.2279

>  <SCORE.INTER>
15.0097

>  <SCORE.INTER.CONST>
1

>  <SCORE.INTER.POLAR>
-1.11339

>  <SCORE.INTER.ROT>
9

>  <SCORE.INTER.SOLV>
32.0981

>  <SCORE.INTER.VDW>
-6.58165

>  <SCORE.INTER.norm>
0.357373

>  <SCORE.INTRA>
7.78117

>  <SCORE.INTRA.DIHEDRAL>
-2.0368

>  <SCORE.INTRA.DIHEDRAL.0>
17.3446

>  <SCORE.INTRA.POLAR>
0

>  <SCORE.INTRA.POLAR.0>
0

>  <SCORE.INTRA.REPUL>
0

>  <SCORE.INTRA.REPUL.0>
0

>  <SCORE.INTRA.SOLV>
-1.20602

>  <SCORE.INTRA.SOLV.lig_0>
-112.452

>  <SCORE.INTRA.VDW>
9.40258

>  <SCORE.INTRA.VDW.0>
-5.95059

>  <SCORE.INTRA.norm>
0.185266

>  <SCORE.RESTR>
5.43705

>  <SCORE.RESTR.CAVITY>
5.43705

>  <SCORE.RESTR.norm>
0.129454

>  <SCORE.SYSTEM>
0

>  <SCORE.SYSTEM.CONST>
0

>  <SCORE.SYSTEM.DIHEDRAL>
0

>  <SCORE.SYSTEM.SOLV>
0

>  <SCORE.SYSTEM.norm>
0

>  <SCORE.heavy>
42

>  <SCORE.norm>
0.672092

>  <RMSD>
7.218

$$$$
2fcy_lig
 OpenBabel11021811433D
libRbt.so/2013.1/901 2013/11/27
 42 45  0  0  0  0  0  0  0  0999 V2000
   -1.1403   92.2106    9.6028 C   0  0  2  0  0  0  0  0  0  0  0  0
   -1.0764   92.4331    8.1838 O   0  0  0  0  0  0  0  0  0  0  0  0
   -0.5969   90.7974    9.8184 C   0  0  2  0  0  0  0  0  0  0  0  0
    0.7360   90.7067    9.2068 N   0  0  0  0  0  0  0  0  0  0  0  0
   -1.5312   89.7825    9.1549 C   0  0  1  0  0  0  0  0  0  0  0  0
   -1.0453   88.4511    9.3470 O   0  0  0  0  0  0  0  0  0  0  0  0
   -2.9364   89.9295    9.7395 C   0  0  2  0  0  0  0  0  0  0  0  0
   -3.8262   89.0501    9.0520 O   0  0  0  0  0  0  0  0  0  0  0  0
   -3.4165   91.3639    9.5132 C   0  0  2  0  0  0  0  0  0  0  0  0
   -2.4879   92.2811   10.1123 O   0  0  0  0  0  0  0  0  0  0  0  0
   -4.8196   91.5261   10.1038 C   0  0  0  0  0  0  0  0  0  0  0  0
   -4.8017   91.3380   11.5622 N   0  0  0  0  0  0  0  0  0  0  0  0
   -1.0666   96.6053    8.6724 C   0  0  2  0  0  0  0  0  0  0  0  0
   -0.9947   98.0706    8.5686 N   0  0  0  0  0  0  0  0  0  0  0  0
    0.2577   95.9647    8.2520 C   0  0  0  0  0  0  0  0  0  0  0  0
    0.1657   94.4569    8.5070 C   0  0  2  0  0  0  0  0  0  0  0  0
    1.3951   93.8079    8.0291 N   0  0  0  0  0  0  0  0  0  0  0  0
   -1.0168   93.8120    7.7781 C   0  0  2  0  0  0  0  0  0  0  0  0
   -2.3456   94.5384    7.9542 C   0  0  2  0  0  0  0  0  0  0  0  0
   -3.2019   94.0317    6.9177 O   0  0  0  0  0  0  0  0  0  0  0  0
   -2.1920   96.0565    7.7920 C   0  0  1  0  0  0  0  0  0  0  0  0
   -3.3996   96.7320    8.1530 O   0  0  0  0  0  0  0  0  0  0  0  0
   -4.5387   94.5581    6.9008 C   0  0  1  0  0  0  0  0  0  0  0  0
   -5.1036   94.3387    5.4964 C   0  0  2  0  0  0  0  0  0  0  0  0
   -4.6782   95.3982    4.6361 O   0  0  0  0  0  0  0  0  0  0  0  0
   -6.5873   94.5031    5.8124 C   0  0  1  0  0  0  0  0  0  0  0  0
   -6.6945   93.6597    7.0731 C   0  0  2  0  0  0  0  0  0  0  0  0
   -5.4456   93.8489    7.7696 O   0  0  0  0  0  0  0  0  0  0  0  0
   -6.9118   92.1943    6.6785 C   0  0  0  0  0  0  0  0  0  0  0  0
   -6.9608   91.3629    7.8416 O   0  0  0  0  0  0  0  0  0  0  0  0
   -7.0094   96.6178    4.8913 C   0  0  2  0  0  0  0  0  0  0  0  0
   -6.8716   95.8785    6.1143 O   0  0  0  0  0  0  0  0  0  0  0  0
   -6.9588   98.1193    5.1917 C   0  0  1  0  0  0  0  0  0  0  0  0
   -9.8095   96.9787    0.9597 N   0  0  0  0  0  0  0  0  0  0  0  0
   -7.2058   98.9287    3.9141 C   0  0  1  0  0  0  0  0  0  0  0  0
   -6.1097   98.7717    3.0073 O   0  0  0  0  0  0  0  0  0  0  0  0
   -8.5030   98.4625    3.2475 C   0  0  2  0  0  0  0  0  0  0  0  0
   -9.5992   98.7794    4.1120 O   0  0  0  0  0  0  0  0  0  0  0  0
   -8.4424   96.9500    3.0086 C   0  0  1  0  0  0  0  0  0  0  0  0
   -8.2521   96.2634    4.2597 O   0  0  0  0  0  0  0  0  0  0  0  0
   -9.7116   96.4368    2.3230 C   0  0  0  0  0  0  0  0  0  0  0  0
   -8.0186   98.4428    6.1587 N   0  0  0  0  0  0  0  0  0  0  0  0
  1  2  1  6  0  0  0
  1  3  1  0  0  0  0
  1 10  1  0  0  0  0
  3  4  1  6  0  0  0
  3  5  1  0  0  0  0
  5  6  1  1  0  0  0
  5  7  1  0  0  0  0
  7  8  1  6  0  0  0
  7  9  1  0  0  0  0
  9 10  1  0  0  0  0
  9 11  1  1  0  0  0
 11 12  1  0  0  0  0
 13 14  1  6  0  0  0
 13 15  1  0  0  0  0
 13 21  1  0  0  0  0
 16 15  1  0  0  0  0
 16 17  1  6  0  0  0
 18  2  1  1  0  0  0
 18 16  1  0  0  0  0
 19 18  1  0  0  0  0
 19 20  1  6  0  0  0
 21 19  1  0  0  0  0
 21 22  1  1  0  0  0
 23 20  1  6  0  0  0
 23 24  1  0  0  0  0
 23 28  1  0  0  0  0
 24 25  1  6  0  0  0
 24 26  1  0  0  0  0
 26 27  1  0  0  0  0
 26 32  1  1  0  0  0
 27 28  1  0  0  0  0
 27 29  1  6  0  0  0
 29 30  1  0  0  0  0
 31 32  1  1  0  0  0
 31 40  1  0  0  0  0
 33 31  1  0  0  0  0
 33 42  1  1  0  0  0
 35 33  1  0  0  0  0
 35 36  1  6  0  0  0
 37 35  1  0  0  0  0
 37 38  1  1  0  0  0
 37 39  1  0  0  0  0
 39 40  1  0  0  0  0
 39 41  1  1  0  0  0
 41 34  1  0  0  0  0
M  END
>  <CHROM.1>
-156.16572263,63.84528791,54.57657040,178.72519936,159.03600558,80.88341100
177.56135927,-165.83614066,66.37888909,-4.38199324,94.37488932,7.02654064
-0.81431530,-0.38247737,-0.41662333

>  <Name>
2fcy_lig

>  <RI>
2.32494e+07

>  <Rbt.Current_Directory>
/home/itssahil/PROJECTS/Mol_Feturizer/New_Systems/rnas/2fcy

>  <Rbt.Executable>
rbdock ($Id: //depot/dev/client3/rdock/2013.1/src/exe/rbdock.cxx#4 $)

>  <Rbt.Library>
libRbt.so (2013.1, Build901 2013/11/27)

>  <Rbt.Parameter_File>
/export/apps/rDock/src/rDock_2013.1_src/data/scripts/dock_solv.prm

>  <Rbt.Receptor>
prm/pocket_docking_8.prm

>  <SCORE>
-5.05539

>  <SCORE.INTER>
-2.7394

>  <SCORE.INTER.CONST>
1

>  <SCORE.INTER.POLAR>
-1.84507

>  <SCORE.INTER.ROT>
9

>  <SCORE.INTER.SOLV>
12.9734

>  <SCORE.INTER.VDW>
-9.60051

>  <SCORE.INTER.norm>
-0.0652237

>  <SCORE.INTRA>
-2.31599

>  <SCORE.INTRA.DIHEDRAL>
-9.23821

>  <SCORE.INTRA.DIHEDRAL.0>
17.3446

>  <SCORE.INTRA.POLAR>
0

>  <SCORE.INTRA.POLAR.0>
0

>  <SCORE.INTRA.REPUL>
0

>  <SCORE.INTRA.REPUL.0>
0

>  <SCORE.INTRA.SOLV>
-1.39189

>  <SCORE.INTRA.SOLV.lig_0>
-112.452

>  <SCORE.INTRA.VDW>
2.99906

>  <SCORE.INTRA.VDW.0>
-5.95059

>  <SCORE.INTRA.norm>
-0.0551427

>  <SCORE.RESTR>
0

>  <SCORE.RESTR.CAVITY>
0

>  <SCORE.RESTR.norm>
0

>  <SCORE.SYSTEM>
0

>  <SCORE.SYSTEM.CONST>
0

>  <SCORE.SYSTEM.DIHEDRAL>
0

>  <SCORE.SYSTEM.SOLV>
0

>  <SCORE.SYSTEM.norm>
0

>  <SCORE.heavy>
42

>  <SCORE.norm>
-0.120366

>  <RMSD>
7.297

$$$$
2fcy_lig
 OpenBabel11021811433D
libRbt.so/2013.1/901 2013/11/27
 42 45  0  0  0  0  0  0  0  0999 V2000
   -2.3526   91.0519    9.8787 C   0  0  2  0  0  0  0  0  0  0  0  0
   -2.1211   91.9322   10.9917 O   0  0  0  0  0  0  0  0  0  0  0  0
   -1.2900   89.9582    9.9965 C   0  0  2  0  0  0  0  0  0  0  0  0
   -1.3825   89.3534   11.3323 N   0  0  0  0  0  0  0  0  0  0  0  0
    0.0998   90.5724    9.8112 C   0  0  1  0  0  0  0  0  0  0  0  0
    1.1116   89.5665    9.9132 O   0  0  0  0  0  0  0  0  0  0  0  0
    0.1699   91.2667    8.4508 C   0  0  2  0  0  0  0  0  0  0  0  0
    1.4322   91.9204    8.3208 O   0  0  0  0  0  0  0  0  0  0  0  0
   -0.9260   92.3315    8.3842 C   0  0  2  0  0  0  0  0  0  0  0  0
   -2.2052   91.7183    8.6080 O   0  0  0  0  0  0  0  0  0  0  0  0
   -0.8722   93.0273    7.0215 C   0  0  0  0  0  0  0  0  0  0  0  0
    0.3969   93.7501    6.8496 N   0  0  0  0  0  0  0  0  0  0  0  0
   -3.9250   91.8868   14.7851 C   0  0  2  0  0  0  0  0  0  0  0  0
   -4.4735   91.6001   16.1193 N   0  0  0  0  0  0  0  0  0  0  0  0
   -4.5092   90.9336   13.7407 C   0  0  0  0  0  0  0  0  0  0  0  0
   -4.0052   91.3648   12.3597 C   0  0  2  0  0  0  0  0  0  0  0  0
   -4.4832   90.4106   11.3488 N   0  0  0  0  0  0  0  0  0  0  0  0
   -2.4762   91.4020   12.2810 C   0  0  2  0  0  0  0  0  0  0  0  0
   -1.7975   92.1383   13.4307 C   0  0  2  0  0  0  0  0  0  0  0  0
   -0.4199   91.7329   13.3880 O   0  0  0  0  0  0  0  0  0  0  0  0
   -2.4001   91.7547   14.7887 C   0  0  1  0  0  0  0  0  0  0  0  0
   -1.8901   92.5947   15.8277 O   0  0  0  0  0  0  0  0  0  0  0  0
    0.4328   92.5117   12.5332 C   0  0  1  0  0  0  0  0  0  0  0  0
    0.4209   93.9494   13.0551 C   0  0  2  0  0  0  0  0  0  0  0  0
   -0.7207   94.6385   12.5398 O   0  0  0  0  0  0  0  0  0  0  0  0
    1.6807   94.4606   12.3622 C   0  0  1  0  0  0  0  0  0  0  0  0
    2.6329   93.3076   12.6384 C   0  0  2  0  0  0  0  0  0  0  0  0
    1.8190   92.1175   12.5927 O   0  0  0  0  0  0  0  0  0  0  0  0
    3.2752   93.5073   14.0160 C   0  0  0  0  0  0  0  0  0  0  0  0
    3.9558   94.7641   14.0756 O   0  0  0  0  0  0  0  0  0  0  0  0
    0.6859   95.7679   10.6889 C   0  0  2  0  0  0  0  0  0  0  0  0
    1.4462   94.5782   10.9499 O   0  0  0  0  0  0  0  0  0  0  0  0
    0.2738   95.7993    9.2137 C   0  0  1  0  0  0  0  0  0  0  0  0
    2.8883   99.3796   10.5915 N   0  0  0  0  0  0  0  0  0  0  0  0
   -0.4516   97.1096    8.8891 C   0  0  1  0  0  0  0  0  0  0  0  0
   -1.7197   97.1521    9.5512 O   0  0  0  0  0  0  0  0  0  0  0  0
    0.4052   98.2996    9.3298 C   0  0  2  0  0  0  0  0  0  0  0  0
    1.5965   98.3222    8.5364 O   0  0  0  0  0  0  0  0  0  0  0  0
    0.7638   98.1526   10.8124 C   0  0  1  0  0  0  0  0  0  0  0  0
    1.4782   96.9207   11.0241 O   0  0  0  0  0  0  0  0  0  0  0  0
    1.6053   99.3319   11.3079 C   0  0  0  0  0  0  0  0  0  0  0  0
    1.4854   95.7212    8.3836 N   0  0  0  0  0  0  0  0  0  0  0  0
  1  2  1  1  0  0  0
  1  3  1  0  0  0  0
  1 10  1  0  0  0  0
  3  4  1  1  0  0  0
  3  5  1  0  0  0  0
  5  6  1  6  0  0  0
  5  7  1  0  0  0  0
  7  8  1  1  0  0  0
  7  9  1  0  0  0  0
  9 10  1  0  0  0  0
  9 11  1  6  0  0  0
 11 12  1  0  0  0  0
 13 14  1  1  0  0  0
 13 15  1  0  0  0  0
 13 21  1  0  0  0  0
 16 15  1  0  0  0  0
 16 17  1  6  0  0  0
 18  2  1  6  0  0  0
 18 16  1  0  0  0  0
 19 18  1  0  0  0  0
 19 20  1  1  0  0  0
 21 19  1  0  0  0  0
 21 22  1  1  0  0  0
 23 20  1  1  0  0  0
 23 24  1  0  0  0  0
 23 28  1  0  0  0  0
 24 25  1  6  0  0  0
 24 26  1  0  0  0  0
 26 27  1  0  0  0  0
 26 32  1  6  0  0  0
 27 28  1  0  0  0  0
 27 29  1  1  0  0  0
 29 30  1  0  0  0  0
 31 32  1  6  0  0  0
 31 40  1  0  0  0  0
 33 31  1  0  0  0  0
 33 42  1  6  0  0  0
 35 33  1  0  0  0  0
 35 36  1  1  0  0  0
 37 35  1  0  0  0  0
 37 38  1  6  0  0  0
 37 39  1  0  0  0  0
 39 40  1  0  0  0  0
 39 41  1  6  0  0  0
 41 34  1  0  0  0  0
M  END
>  <CHROM.1>
-71.57983062,-63.80543631,-72.08802267,87.42688657,61.19749971,77.63218390
-57.49697531,-172.45887636,-62.85849438,-0.30530743,93.53889084,11.20849225
2.92085313,1.02231184,1.40479111

>  <Name>
2fcy_lig

>  <RI>
0

>  <Rbt.Current_Directory>
/home/itssahil/PROJECTS/Mol_Feturizer/New_Systems/rnas/2fcy

>  <Rbt.Executable>
rbdock ($Id: //depot/dev/client3/rdock/2013.1/src/exe/rbdock.cxx#4 $)

>  <Rbt.Library>
libRbt.so (2013.1, Build901 2013/11/27)

>  <Rbt.Parameter_File>
/export/apps/rDock/src/rDock_2013.1_src/data/scripts/dock_solv.prm

>  <Rbt.Receptor>
prm/pocket_docking_5.prm

>  <SCORE>
-13.6119

>  <SCORE.INTER>
-17.7152

>  <SCORE.INTER.CONST>
1

>  <SCORE.INTER.POLAR>
-3.4728

>  <SCORE.INTER.ROT>
9

>  <SCORE.INTER.SOLV>
26.7245

>  <SCORE.INTER.VDW>
-18.7423

>  <SCORE.INTER.norm>
-0.421792

>  <SCORE.INTRA>
4.10334

>  <SCORE.INTRA.DIHEDRAL>
-10.5811

>  <SCORE.INTRA.DIHEDRAL.0>
17.3446

>  <SCORE.INTRA.POLAR>
0

>  <SCORE.INTRA.POLAR.0>
0

>  <SCORE.INTRA.REPUL>
0

>  <SCORE.INTRA.REPUL.0>
0

>  <SCORE.INTRA.SOLV>
8.37175

>  <SCORE.INTRA.SOLV.lig_0>
-112.452

>  <SCORE.INTRA.VDW>
5.20803

>  <SCORE.INTRA.VDW.0>
-5.95059

>  <SCORE.INTRA.norm>
0.0976987

>  <SCORE.RESTR>
0

>  <SCORE.RESTR.CAVITY>
0

>  <SCORE.RESTR.norm>
0

>  <SCORE.SYSTEM>
0

>  <SCORE.SYSTEM.CONST>
0

>  <SCORE.SYSTEM.DIHEDRAL>
0

>  <SCORE.SYSTEM.SOLV>
0

>  <SCORE.SYSTEM.norm>
0

>  <SCORE.heavy>
42

>  <SCORE.norm>
-0.324093

>  <RMSD>
7.350

$$$$
2fcy_lig
 OpenBabel11021811433D
libRbt.so/2013.1/901 2013/11/27
 42 45  0  0  0  0  0  0  0  0999 V2000
    0.7296   92.7173   16.7470 C   0  0  2  0  0  0  0  0  0  0  0  0
    0.7504   92.8918   18.1740 O   0  0  0  0  0  0  0  0  0  0  0  0
   -0.5361   91.9104   16.4537 C   0  0  2  0  0  0  0  0  0  0  0  0
   -1.6875   92.6111   17.0386 N   0  0  0  0  0  0  0  0  0  0  0  0
   -0.4141   90.5198   17.0818 C   0  0  1  0  0  0  0  0  0  0  0  0
   -1.5860   89.7439   16.8169 O   0  0  0  0  0  0  0  0  0  0  0  0
    0.8278   89.8207   16.5278 C   0  0  2  0  0  0  0  0  0  0  0  0
    0.9932   88.5647   17.1857 O   0  0  0  0  0  0  0  0  0  0  0  0
    2.0547   90.6818   16.8317 C   0  0  2  0  0  0  0  0  0  0  0  0
    1.8766   91.9886   16.2634 O   0  0  0  0  0  0  0  0  0  0  0  0
    3.3041   89.9962   16.2726 C   0  0  0  0  0  0  0  0  0  0  0  0
    3.6323   88.7888   17.0453 N   0  0  0  0  0  0  0  0  0  0  0  0
    2.4311   96.4223   19.7094 C   0  0  2  0  0  0  0  0  0  0  0  0
    3.2513   97.4996   20.2834 N   0  0  0  0  0  0  0  0  0  0  0  0
    2.3439   95.2346   20.6698 C   0  0  0  0  0  0  0  0  0  0  0  0
    1.3743   94.2066   20.0779 C   0  0  2  0  0  0  0  0  0  0  0  0
    1.3414   93.0172   20.9412 N   0  0  0  0  0  0  0  0  0  0  0  0
    1.7875   93.7540   18.6744 C   0  0  2  0  0  0  0  0  0  0  0  0
    2.1281   94.8885   17.7144 C   0  0  2  0  0  0  0  0  0  0  0  0
    2.8442   94.2743   16.6308 O   0  0  0  0  0  0  0  0  0  0  0  0
    3.0174   95.9490   18.3770 C   0  0  1  0  0  0  0  0  0  0  0  0
    3.1621   97.0930   17.5311 O   0  0  0  0  0  0  0  0  0  0  0  0
    3.2907   95.1643   15.5951 C   0  0  1  0  0  0  0  0  0  0  0  0
    3.3615   94.3614   14.2951 C   0  0  2  0  0  0  0  0  0  0  0  0
    4.6071   93.6630   14.2285 O   0  0  0  0  0  0  0  0  0  0  0  0
    3.3736   95.5213   13.3037 C   0  0  1  0  0  0  0  0  0  0  0  0
    2.2654   96.3876   13.8813 C   0  0  2  0  0  0  0  0  0  0  0  0
    2.3590   96.2283   15.3119 O   0  0  0  0  0  0  0  0  0  0  0  0
    0.9160   95.9018   13.3400 C   0  0  0  0  0  0  0  0  0  0  0  0
   -0.1127   96.8535   13.6274 O   0  0  0  0  0  0  0  0  0  0  0  0
    5.0284   96.6263   12.0631 C   0  0  2  0  0  0  0  0  0  0  0  0
    4.6300   96.2135   13.3793 O   0  0  0  0  0  0  0  0  0  0  0  0
    6.3088   97.4626   12.1539 C   0  0  1  0  0  0  0  0  0  0  0  0
    1.9944   97.5140    9.2690 N   0  0  0  0  0  0  0  0  0  0  0  0
    6.6960   97.9993   10.7717 C   0  0  1  0  0  0  0  0  0  0  0  0
    7.1045   96.9251    9.9188 O   0  0  0  0  0  0  0  0  0  0  0  0
    5.5059   98.7340   10.1487 C   0  0  2  0  0  0  0  0  0  0  0  0
    5.2230   99.8947   10.9375 O   0  0  0  0  0  0  0  0  0  0  0  0
    4.2864   97.8064   10.1226 C   0  0  1  0  0  0  0  0  0  0  0  0
    3.9639   97.3831   11.4604 O   0  0  0  0  0  0  0  0  0  0  0  0
    3.0723   98.4898    9.4878 C   0  0  0  0  0  0  0  0  0  0  0  0
    6.0625   98.6071   13.0442 N   0  0  0  0  0  0  0  0  0  0  0  0
  1  2  1  1  0  0  0
  1  3  1  0  0  0  0
  1 10  1  0  0  0  0
  3  4  1  1  0  0  0
  3  5  1  0  0  0  0
  5  6  1  6  0  0  0
  5  7  1  0  0  0  0
  7  8  1  1  0  0  0
  7  9  1  0  0  0  0
  9 10  1  0  0  0  0
  9 11  1  6  0  0  0
 11 12  1  0  0  0  0
 13 14  1  1  0  0  0
 13 15  1  0  0  0  0
 13 21  1  0  0  0  0
 16 15  1  0  0  0  0
 16 17  1  1  0  0  0
 18  2  1  6  0  0  0
 18 16  1  0  0  0  0
 19 18  1  0  0  0  0
 19 20  1  6  0  0  0
 21 19  1  0  0  0  0
 21 22  1  6  0  0  0
 23 20  1  1  0  0  0
 23 24  1  0  0  0  0
 23 28  1  0  0  0  0
 24 25  1  1  0  0  0
 24 26  1  0  0  0  0
 26 27  1  0  0  0  0
 26 32  1  1  0  0  0
 27 28  1  0  0  0  0
 27 29  1  6  0  0  0
 29 30  1  0  0  0  0
 31 32  1  1  0  0  0
 31 40  1  0  0  0  0
 33 31  1  0  0  0  0
 33 42  1  1  0  0  0
 35 33  1  0  0  0  0
 35 36  1  6  0  0  0
 37 35  1  0  0  0  0
 37 38  1  1  0  0  0
 37 39  1  0  0  0  0
 39 40  1  0  0  0  0
 39 41  1  1  0  0  0
 41 34  1  0  0  0  0
M  END
>  <CHROM.1>
-173.56121646,-70.31606414,160.55378933,-179.21383696,-151.87030793,142.46527897
-167.70976809,175.43154716,170.44647748,2.70251212,94.76785729,15.19980868
2.73876493,1.14327307,1.16104279

>  <Name>
2fcy_lig

>  <RI>
9.29634e+06

>  <Rbt.Current_Directory>
/home/itssahil/PROJECTS/Mol_Feturizer/New_Systems/rnas/2fcy

>  <Rbt.Executable>
rbdock ($Id: //depot/dev/client3/rdock/2013.1/src/exe/rbdock.cxx#4 $)

>  <Rbt.Library>
libRbt.so (2013.1, Build901 2013/11/27)

>  <Rbt.Parameter_File>
/export/apps/rDock/src/rDock_2013.1_src/data/scripts/dock_solv.prm

>  <Rbt.Receptor>
prm/blind_docking_100.prm

>  <SCORE>
-2.54278

>  <SCORE.INTER>
-10.0434

>  <SCORE.INTER.CONST>
1

>  <SCORE.INTER.POLAR>
-0.867886

>  <SCORE.INTER.ROT>
9

>  <SCORE.INTER.SOLV>
31.0379

>  <SCORE.INTER.VDW>
-23.7486

>  <SCORE.INTER.norm>
-0.239129

>  <SCORE.INTRA>
0.307317

>  <SCORE.INTRA.DIHEDRAL>
-5.85526

>  <SCORE.INTRA.DIHEDRAL.0>
17.3446

>  <SCORE.INTRA.POLAR>
0

>  <SCORE.INTRA.POLAR.0>
0

>  <SCORE.INTRA.REPUL>
0

>  <SCORE.INTRA.REPUL.0>
0

>  <SCORE.INTRA.SOLV>
-4.82434

>  <SCORE.INTRA.SOLV.lig_0>
-112.452

>  <SCORE.INTRA.VDW>
5.64712

>  <SCORE.INTRA.VDW.0>
-5.95059

>  <SCORE.INTRA.norm>
0.00731708

>  <SCORE.RESTR>
7.19331

>  <SCORE.RESTR.CAVITY>
7.19331

>  <SCORE.RESTR.norm>
0.171269

>  <SCORE.SYSTEM>
0

>  <SCORE.SYSTEM.CONST>
0

>  <SCORE.SYSTEM.DIHEDRAL>
0

>  <SCORE.SYSTEM.SOLV>
0

>  <SCORE.SYSTEM.norm>
0

>  <SCORE.heavy>
42

>  <SCORE.norm>
-0.0605425

>  <RMSD>
7.366

$$$$
2fcy_lig
 OpenBabel11021811433D
libRbt.so/2013.1/901 2013/11/27
 42 45  0  0  0  0  0  0  0  0999 V2000
    1.3113   92.4546   16.5453 C   0  0  2  0  0  0  0  0  0  0  0  0
    0.9646   93.1051   17.7798 O   0  0  0  0  0  0  0  0  0  0  0  0
    0.2119   91.4181   16.3083 C   0  0  2  0  0  0  0  0  0  0  0  0
   -1.0906   92.0972   16.3404 N   0  0  0  0  0  0  0  0  0  0  0  0
    0.2606   90.3584   17.4119 C   0  0  1  0  0  0  0  0  0  0  0  0
   -0.7572   89.3742   17.2091 O   0  0  0  0  0  0  0  0  0  0  0  0
    1.6427   89.7047   17.4263 C   0  0  2  0  0  0  0  0  0  0  0  0
    1.7174   88.7866   18.5168 O   0  0  0  0  0  0  0  0  0  0  0  0
    2.6985   90.7895   17.6449 C   0  0  2  0  0  0  0  0  0  0  0  0
    2.5861   91.7833   16.6144 O   0  0  0  0  0  0  0  0  0  0  0  0
    4.0884   90.1477   17.6512 C   0  0  0  0  0  0  0  0  0  0  0  0
    4.2964   89.3311   16.4460 N   0  0  0  0  0  0  0  0  0  0  0  0
    2.6201   96.6449   19.3211 C   0  0  2  0  0  0  0  0  0  0  0  0
    3.4225   97.7206   19.9228 N   0  0  0  0  0  0  0  0  0  0  0  0
    2.4150   95.4991   20.3140 C   0  0  0  0  0  0  0  0  0  0  0  0
    1.4669   94.4762   19.6800 C   0  0  2  0  0  0  0  0  0  0  0  0
    1.3239   93.3234   20.5808 N   0  0  0  0  0  0  0  0  0  0  0  0
    1.9824   93.9570   18.3346 C   0  0  2  0  0  0  0  0  0  0  0  0
    2.4382   95.0424   17.3659 C   0  0  2  0  0  0  0  0  0  0  0  0
    3.2233   94.3659   16.3709 O   0  0  0  0  0  0  0  0  0  0  0  0
    3.3014   96.1029   18.0622 C   0  0  1  0  0  0  0  0  0  0  0  0
    3.5527   97.2079   17.1899 O   0  0  0  0  0  0  0  0  0  0  0  0
    3.6360   95.1669   15.2518 C   0  0  1  0  0  0  0  0  0  0  0  0
    4.4329   94.2654   14.3075 C   0  0  2  0  0  0  0  0  0  0  0  0
    5.7904   94.1872   14.7488 O   0  0  0  0  0  0  0  0  0  0  0  0
    4.3553   95.1207   13.0461 C   0  0  1  0  0  0  0  0  0  0  0  0
    2.8819   95.4960   13.0592 C   0  0  2  0  0  0  0  0  0  0  0  0
    2.5354   95.6449   14.4515 O   0  0  0  0  0  0  0  0  0  0  0  0
    2.0745   94.3799   12.3863 C   0  0  0  0  0  0  0  0  0  0  0  0
    2.7963   93.8365   11.2772 O   0  0  0  0  0  0  0  0  0  0  0  0
    5.3898   96.8989   11.9208 C   0  0  2  0  0  0  0  0  0  0  0  0
    5.1646   96.2969   13.2046 O   0  0  0  0  0  0  0  0  0  0  0  0
    6.4378   98.0087   12.0519 C   0  0  1  0  0  0  0  0  0  0  0  0
    2.0993   97.2538    9.3065 N   0  0  0  0  0  0  0  0  0  0  0  0
    6.6196   98.7331   10.7137 C   0  0  1  0  0  0  0  0  0  0  0  0
    7.2301   97.8617    9.7565 O   0  0  0  0  0  0  0  0  0  0  0  0
    5.2605   99.2078   10.1922 C   0  0  2  0  0  0  0  0  0  0  0  0
    4.7483  100.1982   11.0900 O   0  0  0  0  0  0  0  0  0  0  0  0
    4.2965   98.0190   10.1157 C   0  0  1  0  0  0  0  0  0  0  0  0
    4.1484   97.4234   11.4180 O   0  0  0  0  0  0  0  0  0  0  0  0
    2.9256   98.4392    9.5784 C   0  0  0  0  0  0  0  0  0  0  0  0
    5.9698   98.9840   13.0483 N   0  0  0  0  0  0  0  0  0  0  0  0
  1  2  1  1  0  0  0
  1  3  1  0  0  0  0
  1 10  1  0  0  0  0
  3  4  1  1  0  0  0
  3  5  1  0  0  0  0
  5  6  1  6  0  0  0
  5  7  1  0  0  0  0
  7  8  1  1  0  0  0
  7  9  1  0  0  0  0
  9 10  1  0  0  0  0
  9 11  1  6  0  0  0
 11 12  1  0  0  0  0
 13 14  1  1  0  0  0
 13 15  1  0  0  0  0
 13 21  1  0  0  0  0
 16 15  1  0  0  0  0
 16 17  1  1  0  0  0
 18  2  1  6  0  0  0
 18 16  1  0  0  0  0
 19 18  1  0  0  0  0
 19 20  1  6  0  0  0
 21 19  1  0  0  0  0
 21 22  1  6  0  0  0
 23 20  1  1  0  0  0
 23 24  1  0  0  0  0
 23 28  1  0  0  0  0
 24 25  1  1  0  0  0
 24 26  1  0  0  0  0
 26 27  1  0  0  0  0
 26 32  1  1  0  0  0
 27 28  1  0  0  0  0
 27 29  1  1  0  0  0
 29 30  1  0  0  0  0
 31 32  1  1  0  0  0
 31 40  1  0  0  0  0
 33 31  1  0  0  0  0
 33 42  1  1  0  0  0
 35 33  1  0  0  0  0
 35 36  1  6  0  0  0
 37 35  1  0  0  0  0
 37 38  1  1  0  0  0
 37 39  1  0  0  0  0
 39 40  1  0  0  0  0
 39 41  1  1  0  0  0
 41 34  1  0  0  0  0
M  END
>  <CHROM.1>
169.21251136,52.92413726,-176.22377349,172.92506459,-179.13354638,164.13215137
-37.27802743,-170.55565313,170.65382943,3.16083290,94.73258528,15.06896749
2.70122407,1.18715979,1.20359923

>  <Name>
2fcy_lig

>  <RI>
9.29634e+06

>  <Rbt.Current_Directory>
/home/itssahil/PROJECTS/Mol_Feturizer/New_Systems/rnas/2fcy

>  <Rbt.Executable>
rbdock ($Id: //depot/dev/client3/rdock/2013.1/src/exe/rbdock.cxx#4 $)

>  <Rbt.Library>
libRbt.so (2013.1, Build901 2013/11/27)

>  <Rbt.Parameter_File>
/export/apps/rDock/src/rDock_2013.1_src/data/scripts/dock_solv.prm

>  <Rbt.Receptor>
prm/blind_docking_100.prm

>  <SCORE>
-9.21778

>  <SCORE.INTER>
-11.6897

>  <SCORE.INTER.CONST>
1

>  <SCORE.INTER.POLAR>
-0.768247

>  <SCORE.INTER.ROT>
9

>  <SCORE.INTER.SOLV>
29.7036

>  <SCORE.INTER.VDW>
-24.7335

>  <SCORE.INTER.norm>
-0.278327

>  <SCORE.INTRA>
-4.65669

>  <SCORE.INTRA.DIHEDRAL>
-12.2067

>  <SCORE.INTRA.DIHEDRAL.0>
17.3446

>  <SCORE.INTRA.POLAR>
0

>  <SCORE.INTRA.POLAR.0>
0

>  <SCORE.INTRA.REPUL>
0

>  <SCORE.INTRA.REPUL.0>
0

>  <SCORE.INTRA.SOLV>
-3.4571

>  <SCORE.INTRA.SOLV.lig_0>
-112.452

>  <SCORE.INTRA.VDW>
3.17521

>  <SCORE.INTRA.VDW.0>
-5.95059

>  <SCORE.INTRA.norm>
-0.110874

>  <SCORE.RESTR>
7.12864

>  <SCORE.RESTR.CAVITY>
7.12864

>  <SCORE.RESTR.norm>
0.16973

>  <SCORE.SYSTEM>
0

>  <SCORE.SYSTEM.CONST>
0

>  <SCORE.SYSTEM.DIHEDRAL>
0

>  <SCORE.SYSTEM.SOLV>
0

>  <SCORE.SYSTEM.norm>
0

>  <SCORE.heavy>
42

>  <SCORE.norm>
-0.219471

>  <RMSD>
7.374

$$$$
2fcy_lig
 OpenBabel11021811433D
libRbt.so/2013.1/901 2013/11/27
 42 45  0  0  0  0  0  0  0  0999 V2000
    1.4935   92.3490   16.4751 C   0  0  2  0  0  0  0  0  0  0  0  0
    1.0747   93.0122   17.6801 O   0  0  0  0  0  0  0  0  0  0  0  0
    0.4385   91.2729   16.2146 C   0  0  2  0  0  0  0  0  0  0  0  0
   -0.8851   91.9098   16.1783 N   0  0  0  0  0  0  0  0  0  0  0  0
    0.4740   90.2373   17.3414 C   0  0  1  0  0  0  0  0  0  0  0  0
   -0.5027   89.2168   17.1174 O   0  0  0  0  0  0  0  0  0  0  0  0
    1.8742   89.6292   17.4269 C   0  0  2  0  0  0  0  0  0  0  0  0
    1.9319   88.7358   18.5388 O   0  0  0  0  0  0  0  0  0  0  0  0
    2.8851   90.7518   17.6662 C   0  0  2  0  0  0  0  0  0  0  0  0
    2.7848   91.7209   16.6111 O   0  0  0  0  0  0  0  0  0  0  0  0
    4.2931   90.1557   17.7437 C   0  0  0  0  0  0  0  0  0  0  0  0
    4.4808   89.4105   18.9975 N   0  0  0  0  0  0  0  0  0  0  0  0
    2.5651   96.6030   19.2712 C   0  0  2  0  0  0  0  0  0  0  0  0
    3.3128   97.7037   19.8974 N   0  0  0  0  0  0  0  0  0  0  0  0
    2.3654   95.4508   20.2578 C   0  0  0  0  0  0  0  0  0  0  0  0
    1.4715   94.3981   19.5944 C   0  0  2  0  0  0  0  0  0  0  0  0
    1.3369   93.2410   20.4910 N   0  0  0  0  0  0  0  0  0  0  0  0
    2.0463   93.8962   18.2667 C   0  0  2  0  0  0  0  0  0  0  0  0
    2.4977   94.9961   17.3122 C   0  0  2  0  0  0  0  0  0  0  0  0
    3.3356   94.3455   16.3434 O   0  0  0  0  0  0  0  0  0  0  0  0
    3.3035   96.0836   18.0351 C   0  0  1  0  0  0  0  0  0  0  0  0
    3.5469   97.1964   17.1705 O   0  0  0  0  0  0  0  0  0  0  0  0
    3.7275   95.1489   15.2185 C   0  0  1  0  0  0  0  0  0  0  0  0
    4.5461   94.2612   14.2797 C   0  0  2  0  0  0  0  0  0  0  0  0
    5.9054   94.2199   14.7206 O   0  0  0  0  0  0  0  0  0  0  0  0
    4.4464   95.1055   13.0127 C   0  0  1  0  0  0  0  0  0  0  0  0
    2.9641   95.4440   13.0243 C   0  0  2  0  0  0  0  0  0  0  0  0
    2.6148   95.5938   14.4158 O   0  0  0  0  0  0  0  0  0  0  0  0
    2.1845   94.3035   12.3597 C   0  0  0  0  0  0  0  0  0  0  0  0
    2.1096   93.1716   13.2312 O   0  0  0  0  0  0  0  0  0  0  0  0
    5.4141   96.9148   11.8774 C   0  0  2  0  0  0  0  0  0  0  0  0
    5.2262   96.3027   13.1625 O   0  0  0  0  0  0  0  0  0  0  0  0
    6.4133   98.0695   12.0010 C   0  0  1  0  0  0  0  0  0  0  0  0
    2.0601   98.9593   10.6239 N   0  0  0  0  0  0  0  0  0  0  0  0
    6.5520   98.8022   10.6622 C   0  0  1  0  0  0  0  0  0  0  0  0
    7.1923   97.9591    9.6991 O   0  0  0  0  0  0  0  0  0  0  0  0
    5.1691   99.2169   10.1523 C   0  0  2  0  0  0  0  0  0  0  0  0
    4.6212  100.1833   11.0554 O   0  0  0  0  0  0  0  0  0  0  0  0
    4.2577   97.9870   10.0825 C   0  0  1  0  0  0  0  0  0  0  0  0
    4.1467   97.3845   11.3854 O   0  0  0  0  0  0  0  0  0  0  0  0
    2.8653   98.3468    9.5570 C   0  0  0  0  0  0  0  0  0  0  0  0
    5.9111   99.0227   13.0022 N   0  0  0  0  0  0  0  0  0  0  0  0
  1  2  1  1  0  0  0
  1  3  1  0  0  0  0
  1 10  1  0  0  0  0
  3  4  1  1  0  0  0
  3  5  1  0  0  0  0
  5  6  1  6  0  0  0
  5  7  1  0  0  0  0
  7  8  1  1  0  0  0
  7  9  1  0  0  0  0
  9 10  1  0  0  0  0
  9 11  1  6  0  0  0
 11 12  1  0  0  0  0
 13 14  1  1  0  0  0
 13 15  1  0  0  0  0
 13 21  1  0  0  0  0
 16 15  1  0  0  0  0
 16 17  1  1  0  0  0
 18  2  1  6  0  0  0
 18 16  1  0  0  0  0
 19 18  1  0  0  0  0
 19 20  1  6  0  0  0
 21 19  1  0  0  0  0
 21 22  1  6  0  0  0
 23 20  1  1  0  0  0
 23 24  1  0  0  0  0
 23 28  1  0  0  0  0
 24 25  1  1  0  0  0
 24 26  1  0  0  0  0
 26 27  1  0  0  0  0
 26 32  1  1  0  0  0
 27 28  1  0  0  0  0
 27 29  1  1  0  0  0
 29 30  1  0  0  0  0
 31 32  1  1  0  0  0
 31 40  1  0  0  0  0
 33 31  1  0  0  0  0
 33 42  1  1  0  0  0
 35 33  1  0  0  0  0
 35 36  1  6  0  0  0
 37 35  1  0  0  0  0
 37 38  1  1  0  0  0
 37 39  1  0  0  0  0
 39 40  1  0  0  0  0
 39 41  1  1  0  0  0
 41 34  1  0  0  0  0
M  END
>  <CHROM.1>
168.55773580,-72.00861864,-174.79686025,171.26578566,-177.14956575,165.21331780
74.58558415,-171.64410206,-78.80311601,3.20628475,94.72088690,15.17401267
2.76362183,1.22956332,1.16375649

>  <Name>
2fcy_lig

>  <RI>
9.29634e+06

>  <Rbt.Current_Directory>
/home/itssahil/PROJECTS/Mol_Feturizer/New_Systems/rnas/2fcy

>  <Rbt.Executable>
rbdock ($Id: //depot/dev/client3/rdock/2013.1/src/exe/rbdock.cxx#4 $)

>  <Rbt.Library>
libRbt.so (2013.1, Build901 2013/11/27)

>  <Rbt.Parameter_File>
/export/apps/rDock/src/rDock_2013.1_src/data/scripts/dock_solv.prm

>  <Rbt.Receptor>
prm/blind_docking_100.prm

>  <SCORE>
-8.72389

>  <SCORE.INTER>
-11.0768

>  <SCORE.INTER.CONST>
1

>  <SCORE.INTER.POLAR>
-0.462505

>  <SCORE.INTER.ROT>
9

>  <SCORE.INTER.SOLV>
21.5915

>  <SCORE.INTER.VDW>
-22.64

>  <SCORE.INTER.norm>
-0.263734

>  <SCORE.INTRA>
-4.43841

>  <SCORE.INTRA.DIHEDRAL>
-11.8556

>  <SCORE.INTRA.DIHEDRAL.0>
17.3446

>  <SCORE.INTRA.POLAR>
0

>  <SCORE.INTRA.POLAR.0>
0

>  <SCORE.INTRA.REPUL>
0

>  <SCORE.INTRA.REPUL.0>
0

>  <SCORE.INTRA.SOLV>
-2.05277

>  <SCORE.INTRA.SOLV.lig_0>
-112.452

>  <SCORE.INTRA.VDW>
2.51575

>  <SCORE.INTRA.VDW.0>
-5.95059

>  <SCORE.INTRA.norm>
-0.105676

>  <SCORE.RESTR>
6.79136

>  <SCORE.RESTR.CAVITY>
6.79136

>  <SCORE.RESTR.norm>
0.161699

>  <SCORE.SYSTEM>
0

>  <SCORE.SYSTEM.CONST>
0

>  <SCORE.SYSTEM.DIHEDRAL>
0

>  <SCORE.SYSTEM.SOLV>
0

>  <SCORE.SYSTEM.norm>
0

>  <SCORE.heavy>
42

>  <SCORE.norm>
-0.207712

>  <RMSD>
7.386

$$$$
2fcy_lig
 OpenBabel11021811433D
libRbt.so/2013.1/901 2013/11/27
 42 45  0  0  0  0  0  0  0  0999 V2000
    2.2348   90.3026   18.1081 C   0  0  2  0  0  0  0  0  0  0  0  0
    3.3040   91.0732   17.5333 O   0  0  0  0  0  0  0  0  0  0  0  0
    2.4106   88.8871   17.5563 C   0  0  2  0  0  0  0  0  0  0  0  0
    3.7742   88.4301   17.8570 N   0  0  0  0  0  0  0  0  0  0  0  0
    2.2007   88.8987   16.0401 C   0  0  1  0  0  0  0  0  0  0  0  0
    2.3560   87.5830   15.5009 O   0  0  0  0  0  0  0  0  0  0  0  0
    0.8080   89.4456   15.7253 C   0  0  2  0  0  0  0  0  0  0  0  0
    0.6509   89.5461   14.3101 O   0  0  0  0  0  0  0  0  0  0  0  0
    0.6847   90.8500   16.3183 C   0  0  2  0  0  0  0  0  0  0  0  0
    0.9335   90.7978   17.7317 O   0  0  0  0  0  0  0  0  0  0  0  0
   -0.7104   91.4044   16.0179 C   0  0  0  0  0  0  0  0  0  0  0  0
   -1.0300   92.5334   16.9044 N   0  0  0  0  0  0  0  0  0  0  0  0
    2.0046   94.6848   19.2403 C   0  0  2  0  0  0  0  0  0  0  0  0
    1.8245   96.0180   19.8346 N   0  0  0  0  0  0  0  0  0  0  0  0
    2.9658   93.8406   20.0796 C   0  0  0  0  0  0  0  0  0  0  0  0
    3.0088   92.4282   19.4877 C   0  0  2  0  0  0  0  0  0  0  0  0
    3.9928   91.6227   20.2251 N   0  0  0  0  0  0  0  0  0  0  0  0
    3.4151   92.4255   18.0111 C   0  0  2  0  0  0  0  0  0  0  0  0
    2.6596   93.4241   17.1413 C   0  0  2  0  0  0  0  0  0  0  0  0
    3.4297   93.5438   15.9344 O   0  0  0  0  0  0  0  0  0  0  0  0
    2.5498   94.7986   17.8146 C   0  0  1  0  0  0  0  0  0  0  0  0
    1.6751   95.6579   17.0785 O   0  0  0  0  0  0  0  0  0  0  0  0
    2.9732   94.5345   14.9994 C   0  0  1  0  0  0  0  0  0  0  0  0
    4.1039   94.7815   13.9993 C   0  0  2  0  0  0  0  0  0  0  0  0
    5.0295   95.7253   14.5435 O   0  0  0  0  0  0  0  0  0  0  0  0
    3.2939   95.4439   12.8887 C   0  0  1  0  0  0  0  0  0  0  0  0
    2.0958   94.5095   12.8281 C   0  0  2  0  0  0  0  0  0  0  0  0
    1.8652   94.0913   14.1892 O   0  0  0  0  0  0  0  0  0  0  0  0
    2.4306   93.3240   11.9157 C   0  0  0  0  0  0  0  0  0  0  0  0
    1.3640   92.3706   11.9190 O   0  0  0  0  0  0  0  0  0  0  0  0
    3.4916   97.7416   12.4643 C   0  0  2  0  0  0  0  0  0  0  0  0
    2.8764   96.7538   13.3052 O   0  0  0  0  0  0  0  0  0  0  0  0
    2.4948   98.1953   11.3930 C   0  0  1  0  0  0  0  0  0  0  0  0
    7.6395   97.4209   11.6177 N   0  0  0  0  0  0  0  0  0  0  0  0
    3.1627   99.1747   10.4218 C   0  0  1  0  0  0  0  0  0  0  0  0
    3.4628  100.4060   11.0867 O   0  0  0  0  0  0  0  0  0  0  0  0
    4.4486   98.5573    9.8654 C   0  0  2  0  0  0  0  0  0  0  0  0
    4.1008   97.4179    9.0715 O   0  0  0  0  0  0  0  0  0  0  0  0
    5.3573   98.1330   11.0240 C   0  0  1  0  0  0  0  0  0  0  0  0
    4.6724   97.1833   11.8617 O   0  0  0  0  0  0  0  0  0  0  0  0
    6.6692   97.5270   10.5181 C   0  0  0  0  0  0  0  0  0  0  0  0
    2.0507   97.0173   10.6327 N   0  0  0  0  0  0  0  0  0  0  0  0
  1  2  1  6  0  0  0
  1  3  1  0  0  0  0
  1 10  1  0  0  0  0
  3  4  1  6  0  0  0
  3  5  1  0  0  0  0
  5  6  1  1  0  0  0
  5  7  1  0  0  0  0
  7  8  1  6  0  0  0
  7  9  1  0  0  0  0
  9 10  1  0  0  0  0
  9 11  1  1  0  0  0
 11 12  1  0  0  0  0
 13 14  1  1  0  0  0
 13 15  1  0  0  0  0
 13 21  1  0  0  0  0
 16 15  1  0  0  0  0
 16 17  1  1  0  0  0
 18  2  1  6  0  0  0
 18 16  1  0  0  0  0
 19 18  1  0  0  0  0
 19 20  1  6  0  0  0
 21 19  1  0  0  0  0
 21 22  1  6  0  0  0
 23 20  1  1  0  0  0
 23 24  1  0  0  0  0
 23 28  1  0  0  0  0
 24 25  1  1  0  0  0
 24 26  1  0  0  0  0
 26 27  1  0  0  0  0
 26 32  1  1  0  0  0
 27 28  1  0  0  0  0
 27 29  1  6  0  0  0
 29 30  1  0  0  0  0
 31 32  1  1  0  0  0
 31 40  1  0  0  0  0
 33 31  1  0  0  0  0
 33 42  1  6  0  0  0
 35 33  1  0  0  0  0
 35 36  1  1  0  0  0
 37 35  1  0  0  0  0
 37 38  1  1  0  0  0
 37 39  1  0  0  0  0
 39 40  1  0  0  0  0
 39 41  1  6  0  0  0
 41 34  1  0  0  0  0
M  END
>  <CHROM.1>
-174.49687585,161.94946886,34.39505950,-174.52609520,164.56836217,115.69149191
175.44141640,99.39460263,166.81339514,2.82387193,94.01036630,14.84510822
-2.39928050,-1.26724992,-1.54864052

>  <Name>
2fcy_lig

>  <RI>
9.29634e+06

>  <Rbt.Current_Directory>
/home/itssahil/PROJECTS/Mol_Feturizer/New_Systems/rnas/2fcy

>  <Rbt.Executable>
rbdock ($Id: //depot/dev/client3/rdock/2013.1/src/exe/rbdock.cxx#4 $)

>  <Rbt.Library>
libRbt.so (2013.1, Build901 2013/11/27)

>  <Rbt.Parameter_File>
/export/apps/rDock/src/rDock_2013.1_src/data/scripts/dock_solv.prm

>  <Rbt.Receptor>
prm/blind_docking_100.prm

>  <SCORE>
1.39439

>  <SCORE.INTER>
-11.1682

>  <SCORE.INTER.CONST>
1

>  <SCORE.INTER.POLAR>
-1.06151

>  <SCORE.INTER.ROT>
9

>  <SCORE.INTER.SOLV>
27.3119

>  <SCORE.INTER.VDW>
-22.6111

>  <SCORE.INTER.norm>
-0.265909

>  <SCORE.INTRA>
6.72668

>  <SCORE.INTRA.DIHEDRAL>
0.837035

>  <SCORE.INTRA.DIHEDRAL.0>
17.3446

>  <SCORE.INTRA.POLAR>
0

>  <SCORE.INTRA.POLAR.0>
0

>  <SCORE.INTRA.REPUL>
0.0932903

>  <SCORE.INTRA.REPUL.0>
0

>  <SCORE.INTRA.SOLV>
-1.38288

>  <SCORE.INTRA.SOLV.lig_0>
-112.452

>  <SCORE.INTRA.VDW>
6.53315

>  <SCORE.INTRA.VDW.0>
-5.95059

>  <SCORE.INTRA.norm>
0.160159

>  <SCORE.RESTR>
5.83591

>  <SCORE.RESTR.CAVITY>
5.83591

>  <SCORE.RESTR.norm>
0.13895

>  <SCORE.SYSTEM>
0

>  <SCORE.SYSTEM.CONST>
0

>  <SCORE.SYSTEM.DIHEDRAL>
0

>  <SCORE.SYSTEM.SOLV>
0

>  <SCORE.SYSTEM.norm>
0

>  <SCORE.heavy>
42

>  <SCORE.norm>
0.0331997

>  <RMSD>
7.388

$$$$
2fcy_lig
 OpenBabel11021811433D
libRbt.so/2013.1/901 2013/11/27
 42 45  0  0  0  0  0  0  0  0999 V2000
    2.6598   92.0284   16.6751 C   0  0  2  0  0  0  0  0  0  0  0  0
    1.9970   92.4416   17.8823 O   0  0  0  0  0  0  0  0  0  0  0  0
    1.6223   91.2166   15.8982 C   0  0  2  0  0  0  0  0  0  0  0  0
    0.4146   92.0357   15.7276 N   0  0  0  0  0  0  0  0  0  0  0  0
    1.2712   89.9498   16.6826 C   0  0  1  0  0  0  0  0  0  0  0  0
    0.3042   89.1708   15.9727 O   0  0  0  0  0  0  0  0  0  0  0  0
    2.5422   89.1350   16.9247 C   0  0  2  0  0  0  0  0  0  0  0  0
    2.2284   88.0048   17.7382 O   0  0  0  0  0  0  0  0  0  0  0  0
    3.5467   90.0031   17.6840 C   0  0  2  0  0  0  0  0  0  0  0  0
    3.8111   91.1989   16.9339 O   0  0  0  0  0  0  0  0  0  0  0  0
    4.8282   89.2007   17.9237 C   0  0  0  0  0  0  0  0  0  0  0  0
    5.4686   88.8391   16.6502 N   0  0  0  0  0  0  0  0  0  0  0  0
    2.1403   96.0287   20.0637 C   0  0  2  0  0  0  0  0  0  0  0  0
    2.4670   97.2275   20.8506 N   0  0  0  0  0  0  0  0  0  0  0  0
    2.5508   94.7587   20.8117 C   0  0  0  0  0  0  0  0  0  0  0  0
    2.0673   93.5481   20.0068 C   0  0  2  0  0  0  0  0  0  0  0  0
    2.5267   92.3149   20.6618 N   0  0  0  0  0  0  0  0  0  0  0  0
    2.6076   93.5454   18.5739 C   0  0  2  0  0  0  0  0  0  0  0  0
    2.4506   94.8680   17.8320 C   0  0  2  0  0  0  0  0  0  0  0  0
    3.3376   94.7852   16.7048 O   0  0  0  0  0  0  0  0  0  0  0  0
    2.8485   96.0640   18.7072 C   0  0  1  0  0  0  0  0  0  0  0  0
    2.5098   97.2977   18.0683 O   0  0  0  0  0  0  0  0  0  0  0  0
    3.0065   95.6262   15.5880 C   0  0  1  0  0  0  0  0  0  0  0  0
    4.1490   95.5215   14.5763 C   0  0  2  0  0  0  0  0  0  0  0  0
    5.1977   96.4223   14.9404 O   0  0  0  0  0  0  0  0  0  0  0  0
    3.4220   96.0560   13.3458 C   0  0  1  0  0  0  0  0  0  0  0  0
    2.1098   95.2948   13.4500 C   0  0  2  0  0  0  0  0  0  0  0  0
    1.8406   95.1843   14.8628 O   0  0  0  0  0  0  0  0  0  0  0  0
    2.2741   93.9204   12.7911 C   0  0  0  0  0  0  0  0  0  0  0  0
    2.6883   94.0626   11.4292 O   0  0  0  0  0  0  0  0  0  0  0  0
    3.5904   98.1452   12.2944 C   0  0  2  0  0  0  0  0  0  0  0  0
    3.1868   97.4655   13.4930 O   0  0  0  0  0  0  0  0  0  0  0  0
    2.5212   97.9567   11.2136 C   0  0  1  0  0  0  0  0  0  0  0  0
    7.6389   97.9524   11.4843 N   0  0  0  0  0  0  0  0  0  0  0  0
    2.9779   98.5880    9.8940 C   0  0  1  0  0  0  0  0  0  0  0  0
    3.0264  100.0131   10.0162 O   0  0  0  0  0  0  0  0  0  0  0  0
    4.3605   98.0514    9.5135 C   0  0  2  0  0  0  0  0  0  0  0  0
    4.2467   96.6505    9.2412 O   0  0  0  0  0  0  0  0  0  0  0  0
    5.3377   98.2841   10.6708 C   0  0  1  0  0  0  0  0  0  0  0  0
    4.8581   97.6247   11.8573 O   0  0  0  0  0  0  0  0  0  0  0  0
    6.7435   97.7821   10.3305 C   0  0  0  0  0  0  0  0  0  0  0  0
    2.3208   96.5162   10.9944 N   0  0  0  0  0  0  0  0  0  0  0  0
  1  2  1  1  0  0  0
  1  3  1  0  0  0  0
  1 10  1  0  0  0  0
  3  4  1  1  0  0  0
  3  5  1  0  0  0  0
  5  6  1  6  0  0  0
  5  7  1  0  0  0  0
  7  8  1  1  0  0  0
  7  9  1  0  0  0  0
  9 10  1  0  0  0  0
  9 11  1  6  0  0  0
 11 12  1  0  0  0  0
 13 14  1  1  0  0  0
 13 15  1  0  0  0  0
 13 21  1  0  0  0  0
 16 15  1  0  0  0  0
 16 17  1  1  0  0  0
 18  2  1  6  0  0  0
 18 16  1  0  0  0  0
 19 18  1  0  0  0  0
 19 20  1  6  0  0  0
 21 19  1  0  0  0  0
 21 22  1  6  0  0  0
 23 20  1  1  0  0  0
 23 24  1  0  0  0  0
 23 28  1  0  0  0  0
 24 25  1  1  0  0  0
 24 26  1  0  0  0  0
 26 27  1  0  0  0  0
 26 32  1  1  0  0  0
 27 28  1  0  0  0  0
 27 29  1  1  0  0  0
 29 30  1  0  0  0  0
 31 32  1  1  0  0  0
 31 40  1  0  0  0  0
 33 31  1  0  0  0  0
 33 42  1  6  0  0  0
 35 33  1  0  0  0  0
 35 36  1  1  0  0  0
 37 35  1  0  0  0  0
 37 38  1  1  0  0  0
 37 39  1  0  0  0  0
 39 40  1  0  0  0  0
 39 41  1  6  0  0  0
 41 34  1  0  0  0  0
M  END
>  <CHROM.1>
-161.37687360,62.90049310,-162.05130386,156.08264450,173.24762960,131.87884175
-57.18052299,77.64354299,-176.94160157,3.13786526,94.54058923,15.13655572
-2.94995145,1.39829451,0.53577456

>  <Name>
2fcy_lig

>  <RI>
9.29634e+06

>  <Rbt.Current_Directory>
/home/itssahil/PROJECTS/Mol_Feturizer/New_Systems/rnas/2fcy

>  <Rbt.Executable>
rbdock ($Id: //depot/dev/client3/rdock/2013.1/src/exe/rbdock.cxx#4 $)

>  <Rbt.Library>
libRbt.so (2013.1, Build901 2013/11/27)

>  <Rbt.Parameter_File>
/export/apps/rDock/src/rDock_2013.1_src/data/scripts/dock_solv.prm

>  <Rbt.Receptor>
prm/blind_docking_100.prm

>  <SCORE>
-0.369823

>  <SCORE.INTER>
-10.1528

>  <SCORE.INTER.CONST>
1

>  <SCORE.INTER.POLAR>
-0.191935

>  <SCORE.INTER.ROT>
9

>  <SCORE.INTER.SOLV>
25.3562

>  <SCORE.INTER.VDW>
-24.1808

>  <SCORE.INTER.norm>
-0.241734

>  <SCORE.INTRA>
2.87787

>  <SCORE.INTRA.DIHEDRAL>
-3.59222

>  <SCORE.INTRA.DIHEDRAL.0>
17.3446

>  <SCORE.INTRA.POLAR>
0

>  <SCORE.INTRA.POLAR.0>
0

>  <SCORE.INTRA.REPUL>
0.111601

>  <SCORE.INTRA.REPUL.0>
0

>  <SCORE.INTRA.SOLV>
1.23159

>  <SCORE.INTRA.SOLV.lig_0>
-112.452

>  <SCORE.INTRA.VDW>
3.50019

>  <SCORE.INTRA.VDW.0>
-5.95059

>  <SCORE.INTRA.norm>
0.0685208

>  <SCORE.RESTR>
6.90514

>  <SCORE.RESTR.CAVITY>
6.90514

>  <SCORE.RESTR.norm>
0.164408

>  <SCORE.SYSTEM>
0

>  <SCORE.SYSTEM.CONST>
0

>  <SCORE.SYSTEM.DIHEDRAL>
0

>  <SCORE.SYSTEM.SOLV>
0

>  <SCORE.SYSTEM.norm>
0

>  <SCORE.heavy>
42

>  <SCORE.norm>
-0.00880532

>  <RMSD>
7.417

$$$$
2fcy_lig
 OpenBabel11021811433D
libRbt.so/2013.1/901 2013/11/27
 42 45  0  0  0  0  0  0  0  0999 V2000
    2.5736   89.9969   15.7263 C   0  0  2  0  0  0  0  0  0  0  0  0
    1.2111   89.7576   16.1179 O   0  0  0  0  0  0  0  0  0  0  0  0
    3.4283   89.4485   16.8699 C   0  0  2  0  0  0  0  0  0  0  0  0
    3.0574   88.0463   17.1049 N   0  0  0  0  0  0  0  0  0  0  0  0
    3.1687   90.2630   18.1397 C   0  0  1  0  0  0  0  0  0  0  0  0
    3.9613   89.7708   19.2237 O   0  0  0  0  0  0  0  0  0  0  0  0
    3.4838   91.7349   17.8709 C   0  0  2  0  0  0  0  0  0  0  0  0
    3.1493   92.5058   19.0248 O   0  0  0  0  0  0  0  0  0  0  0  0
    2.6171   92.2197   16.7077 C   0  0  2  0  0  0  0  0  0  0  0  0
    2.8600   91.4000   15.5538 O   0  0  0  0  0  0  0  0  0  0  0  0
    2.9312   93.6907   16.4225 C   0  0  0  0  0  0  0  0  0  0  0  0
    4.1457   93.8203   15.6034 N   0  0  0  0  0  0  0  0  0  0  0  0
   -2.5516   91.5225   15.5064 C   0  0  2  0  0  0  0  0  0  0  0  0
   -3.7208   92.3794   15.2579 N   0  0  0  0  0  0  0  0  0  0  0  0
   -1.7401   92.0412   16.6951 C   0  0  0  0  0  0  0  0  0  0  0  0
   -0.6182   91.0393   16.9863 C   0  0  2  0  0  0  0  0  0  0  0  0
    0.2284   91.5599   18.0695 N   0  0  0  0  0  0  0  0  0  0  0  0
    0.2781   90.7955   15.7687 C   0  0  2  0  0  0  0  0  0  0  0  0
   -0.4725   90.5051   14.4738 C   0  0  2  0  0  0  0  0  0  0  0  0
    0.4867   90.6960   13.4214 O   0  0  0  0  0  0  0  0  0  0  0  0
   -1.6513   91.4660   14.2698 C   0  0  1  0  0  0  0  0  0  0  0  0
   -2.4558   91.0568   13.1606 O   0  0  0  0  0  0  0  0  0  0  0  0
    1.2584   91.9058   13.4932 C   0  0  1  0  0  0  0  0  0  0  0  0
    1.3125   92.5032   12.0862 C   0  0  2  0  0  0  0  0  0  0  0  0
    2.3615   91.8815   11.3399 O   0  0  0  0  0  0  0  0  0  0  0  0
    1.7217   93.9271   12.4518 C   0  0  1  0  0  0  0  0  0  0  0  0
    0.7768   94.1946   13.6128 C   0  0  2  0  0  0  0  0  0  0  0  0
    0.6423   92.9323   14.2977 O   0  0  0  0  0  0  0  0  0  0  0  0
   -0.5651   94.6911   13.0625 C   0  0  0  0  0  0  0  0  0  0  0  0
   -0.4870   96.0790   12.7247 O   0  0  0  0  0  0  0  0  0  0  0  0
    3.4320   95.2671   13.3337 C   0  0  2  0  0  0  0  0  0  0  0  0
    3.0826   93.9400   12.9114 O   0  0  0  0  0  0  0  0  0  0  0  0
    3.1074   96.2628   12.2155 C   0  0  1  0  0  0  0  0  0  0  0  0
    7.1272   97.8676   15.0924 N   0  0  0  0  0  0  0  0  0  0  0  0
    3.5662   97.6722   12.6049 C   0  0  1  0  0  0  0  0  0  0  0  0
    2.7718   98.1719   13.6854 O   0  0  0  0  0  0  0  0  0  0  0  0
    5.0413   97.6427   13.0144 C   0  0  2  0  0  0  0  0  0  0  0  0
    5.8256   97.2946   11.8684 O   0  0  0  0  0  0  0  0  0  0  0  0
    5.2451   96.6068   14.1251 C   0  0  1  0  0  0  0  0  0  0  0  0
    4.8312   95.3069   13.6649 O   0  0  0  0  0  0  0  0  0  0  0  0
    6.7045   96.5539   14.5851 C   0  0  0  0  0  0  0  0  0  0  0  0
    3.8296   95.8586   10.9997 N   0  0  0  0  0  0  0  0  0  0  0  0
  1  2  1  1  0  0  0
  1  3  1  0  0  0  0
  1 10  1  0  0  0  0
  3  4  1  1  0  0  0
  3  5  1  0  0  0  0
  5  6  1  1  0  0  0
  5  7  1  0  0  0  0
  7  8  1  1  0  0  0
  7  9  1  0  0  0  0
  9 10  1  0  0  0  0
  9 11  1  6  0  0  0
 11 12  1  0  0  0  0
 13 14  1  6  0  0  0
 13 15  1  0  0  0  0
 13 21  1  0  0  0  0
 16 15  1  0  0  0  0
 16 17  1  1  0  0  0
 18  2  1  1  0  0  0
 18 16  1  0  0  0  0
 19 18  1  0  0  0  0
 19 20  1  6  0  0  0
 21 19  1  0  0  0  0
 21 22  1  6  0  0  0
 23 20  1  6  0  0  0
 23 24  1  0  0  0  0
 23 28  1  0  0  0  0
 24 25  1  6  0  0  0
 24 26  1  0  0  0  0
 26 27  1  0  0  0  0
 26 32  1  1  0  0  0
 27 28  1  0  0  0  0
 27 29  1  6  0  0  0
 29 30  1  0  0  0  0
 31 32  1  6  0  0  0
 31 40  1  0  0  0  0
 33 31  1  0  0  0  0
 33 42  1  6  0  0  0
 35 33  1  0  0  0  0
 35 36  1  1  0  0  0
 37 35  1  0  0  0  0
 37 38  1  6  0  0  0
 37 39  1  0  0  0  0
 39 40  1  0  0  0  0
 39 41  1  6  0  0  0
 41 34  1  0  0  0  0
M  END
>  <CHROM.1>
142.23666336,81.22216613,-135.60138836,-47.75073875,-136.05048652,-176.33920083
-79.69351310,-52.60108433,59.45382358,2.05726873,93.15714758,14.72742695
-2.16684352,-0.40914503,-0.74171809

>  <Name>
2fcy_lig

>  <RI>
9.29634e+06

>  <Rbt.Current_Directory>
/home/itssahil/PROJECTS/Mol_Feturizer/New_Systems/rnas/2fcy

>  <Rbt.Executable>
rbdock ($Id: //depot/dev/client3/rdock/2013.1/src/exe/rbdock.cxx#4 $)

>  <Rbt.Library>
libRbt.so (2013.1, Build901 2013/11/27)

>  <Rbt.Parameter_File>
/export/apps/rDock/src/rDock_2013.1_src/data/scripts/dock_solv.prm

>  <Rbt.Receptor>
prm/blind_docking_100.prm

>  <SCORE>
3.84337

>  <SCORE.INTER>
-12.2288

>  <SCORE.INTER.CONST>
1

>  <SCORE.INTER.POLAR>
-0.746792

>  <SCORE.INTER.ROT>
9

>  <SCORE.INTER.SOLV>
24.4086

>  <SCORE.INTER.VDW>
-23.3994

>  <SCORE.INTER.norm>
-0.291161

>  <SCORE.INTRA>
11.9622

>  <SCORE.INTRA.DIHEDRAL>
3.77229

>  <SCORE.INTRA.DIHEDRAL.0>
17.3446

>  <SCORE.INTRA.POLAR>
0

>  <SCORE.INTRA.POLAR.0>
0

>  <SCORE.INTRA.REPUL>
0.0518348

>  <SCORE.INTRA.REPUL.0>
0

>  <SCORE.INTRA.SOLV>
7.83344

>  <SCORE.INTRA.SOLV.lig_0>
-112.452

>  <SCORE.INTRA.VDW>
5.90016

>  <SCORE.INTRA.VDW.0>
-5.95059

>  <SCORE.INTRA.norm>
0.284814

>  <SCORE.RESTR>
4.10992

>  <SCORE.RESTR.CAVITY>
4.10992

>  <SCORE.RESTR.norm>
0.0978553

>  <SCORE.SYSTEM>
0

>  <SCORE.SYSTEM.CONST>
0

>  <SCORE.SYSTEM.DIHEDRAL>
0

>  <SCORE.SYSTEM.SOLV>
0

>  <SCORE.SYSTEM.norm>
0

>  <SCORE.heavy>
42

>  <SCORE.norm>
0.0915087

>  <RMSD>
7.470

$$$$
2fcy_lig
 OpenBabel11021811433D
libRbt.so/2013.1/901 2013/11/27
 42 45  0  0  0  0  0  0  0  0999 V2000
    0.2842   89.9019   16.1498 C   0  0  2  0  0  0  0  0  0  0  0  0
    0.2668   91.3372   16.0681 O   0  0  0  0  0  0  0  0  0  0  0  0
   -0.2219   89.5677   17.5538 C   0  0  2  0  0  0  0  0  0  0  0  0
   -1.5272   90.2130   17.7501 N   0  0  0  0  0  0  0  0  0  0  0  0
    0.7685   90.0961   18.5946 C   0  0  1  0  0  0  0  0  0  0  0  0
    0.3180   89.7913   19.9174 O   0  0  0  0  0  0  0  0  0  0  0  0
    2.1452   89.4806   18.3423 C   0  0  2  0  0  0  0  0  0  0  0  0
    3.0877   90.0476   19.2522 O   0  0  0  0  0  0  0  0  0  0  0  0
    2.5878   89.8296   16.9205 C   0  0  2  0  0  0  0  0  0  0  0  0
    1.6087   89.3556   15.9830 O   0  0  0  0  0  0  0  0  0  0  0  0
    3.9618   89.2098   16.6527 C   0  0  0  0  0  0  0  0  0  0  0  0
    4.9583   89.7031   17.6152 N   0  0  0  0  0  0  0  0  0  0  0  0
    0.7767   91.2678   11.8989 C   0  0  2  0  0  0  0  0  0  0  0  0
    0.9143   91.5233   10.4572 N   0  0  0  0  0  0  0  0  0  0  0  0
   -0.5764   91.7640   12.4124 C   0  0  0  0  0  0  0  0  0  0  0  0
   -0.7144   91.3526   13.8817 C   0  0  2  0  0  0  0  0  0  0  0  0
   -1.9695   91.8947   14.4217 N   0  0  0  0  0  0  0  0  0  0  0  0
    0.4334   91.8814   14.7468 C   0  0  2  0  0  0  0  0  0  0  0  0
    1.8258   91.6348   14.1768 C   0  0  2  0  0  0  0  0  0  0  0  0
    2.6998   92.5168   14.8995 O   0  0  0  0  0  0  0  0  0  0  0  0
    1.8955   91.9621   12.6793 C   0  0  1  0  0  0  0  0  0  0  0  0
    3.1440   91.5407   12.1235 O   0  0  0  0  0  0  0  0  0  0  0  0
    2.9993   93.7647   14.2534 C   0  0  1  0  0  0  0  0  0  0  0  0
    1.7599   94.6536   14.3687 C   0  0  2  0  0  0  0  0  0  0  0  0
    0.8405   94.3349   13.3214 O   0  0  0  0  0  0  0  0  0  0  0  0
    2.4119   96.0030   14.0817 C   0  0  1  0  0  0  0  0  0  0  0  0
    3.6506   95.9011   14.9577 C   0  0  2  0  0  0  0  0  0  0  0  0
    4.0431   94.5140   14.9087 O   0  0  0  0  0  0  0  0  0  0  0  0
    3.2951   96.3438   16.3817 C   0  0  0  0  0  0  0  0  0  0  0  0
    2.9089   97.7211   16.3980 O   0  0  0  0  0  0  0  0  0  0  0  0
    3.6238   97.2277   12.4911 C   0  0  2  0  0  0  0  0  0  0  0  0
    2.7916   96.0761   12.6983 O   0  0  0  0  0  0  0  0  0  0  0  0
    3.5136   97.6838   11.0327 C   0  0  1  0  0  0  0  0  0  0  0  0
    7.2453   97.3414   14.5934 N   0  0  0  0  0  0  0  0  0  0  0  0
    4.4712   98.8495   10.7633 C   0  0  1  0  0  0  0  0  0  0  0  0
    4.0432  100.0173   11.4714 O   0  0  0  0  0  0  0  0  0  0  0  0
    5.8885   98.4675   11.1991 C   0  0  2  0  0  0  0  0  0  0  0  0
    6.3501   97.4003   10.3640 O   0  0  0  0  0  0  0  0  0  0  0  0
    5.8716   98.0188   12.6642 C   0  0  1  0  0  0  0  0  0  0  0  0
    4.9837   96.8966   12.8229 O   0  0  0  0  0  0  0  0  0  0  0  0
    7.2729   97.6450   13.1550 C   0  0  0  0  0  0  0  0  0  0  0  0
    3.8891   96.5626   10.1581 N   0  0  0  0  0  0  0  0  0  0  0  0
  1  2  1  1  0  0  0
  1  3  1  0  0  0  0
  1 10  1  0  0  0  0
  3  4  1  1  0  0  0
  3  5  1  0  0  0  0
  5  6  1  1  0  0  0
  5  7  1  0  0  0  0
  7  8  1  1  0  0  0
  7  9  1  0  0  0  0
  9 10  1  0  0  0  0
  9 11  1  6  0  0  0
 11 12  1  0  0  0  0
 13 14  1  6  0  0  0
 13 15  1  0  0  0  0
 13 21  1  0  0  0  0
 16 15  1  0  0  0  0
 16 17  1  1  0  0  0
 18  2  1  1  0  0  0
 18 16  1  0  0  0  0
 19 18  1  0  0  0  0
 19 20  1  1  0  0  0
 21 19  1  0  0  0  0
 21 22  1  6  0  0  0
 23 20  1  1  0  0  0
 23 24  1  0  0  0  0
 23 28  1  0  0  0  0
 24 25  1  6  0  0  0
 24 26  1  0  0  0  0
 26 27  1  0  0  0  0
 26 32  1  6  0  0  0
 27 28  1  0  0  0  0
 27 29  1  1  0  0  0
 29 30  1  0  0  0  0
 31 32  1  6  0  0  0
 31 40  1  0  0  0  0
 33 31  1  0  0  0  0
 33 42  1  6  0  0  0
 35 33  1  0  0  0  0
 35 36  1  1  0  0  0
 37 35  1  0  0  0  0
 37 38  1  6  0  0  0
 37 39  1  0  0  0  0
 39 40  1  0  0  0  0
 39 41  1  6  0  0  0
 41 34  1  0  0  0  0
M  END
>  <CHROM.1>
-167.41360053,-59.01367636,59.86063288,-96.73034100,74.52762064,-169.12914991
-63.65985942,-154.42464238,174.68432185,2.60415111,93.61955038,14.40976827
2.13508274,0.74310231,2.17334061

>  <Name>
2fcy_lig

>  <RI>
9.29634e+06

>  <Rbt.Current_Directory>
/home/itssahil/PROJECTS/Mol_Feturizer/New_Systems/rnas/2fcy

>  <Rbt.Executable>
rbdock ($Id: //depot/dev/client3/rdock/2013.1/src/exe/rbdock.cxx#4 $)

>  <Rbt.Library>
libRbt.so (2013.1, Build901 2013/11/27)

>  <Rbt.Parameter_File>
/export/apps/rDock/src/rDock_2013.1_src/data/scripts/dock_solv.prm

>  <Rbt.Receptor>
prm/blind_docking_100.prm

>  <SCORE>
15.9482

>  <SCORE.INTER>
6.7195

>  <SCORE.INTER.CONST>
1

>  <SCORE.INTER.POLAR>
-1.22615

>  <SCORE.INTER.ROT>
9

>  <SCORE.INTER.SOLV>
27.8284

>  <SCORE.INTER.VDW>
-10.3093

>  <SCORE.INTER.norm>
0.159988

>  <SCORE.INTRA>
3.55109

>  <SCORE.INTRA.DIHEDRAL>
-6.67076

>  <SCORE.INTRA.DIHEDRAL.0>
17.3446

>  <SCORE.INTRA.POLAR>
0

>  <SCORE.INTRA.POLAR.0>
0

>  <SCORE.INTRA.REPUL>
0

>  <SCORE.INTRA.REPUL.0>
0

>  <SCORE.INTRA.SOLV>
-0.961408

>  <SCORE.INTRA.SOLV.lig_0>
-112.452

>  <SCORE.INTRA.VDW>
7.36717

>  <SCORE.INTRA.VDW.0>
-5.95059

>  <SCORE.INTRA.norm>
0.0845498

>  <SCORE.RESTR>
5.67762

>  <SCORE.RESTR.CAVITY>
5.67762

>  <SCORE.RESTR.norm>
0.135181

>  <SCORE.SYSTEM>
0

>  <SCORE.SYSTEM.CONST>
0

>  <SCORE.SYSTEM.DIHEDRAL>
0

>  <SCORE.SYSTEM.SOLV>
0

>  <SCORE.SYSTEM.norm>
0

>  <SCORE.heavy>
42

>  <SCORE.norm>
0.379719

>  <RMSD>
7.497

$$$$
2fcy_lig
 OpenBabel11021811433D
libRbt.so/2013.1/901 2013/11/27
 42 45  0  0  0  0  0  0  0  0999 V2000
    3.2121   91.1376   16.3838 C   0  0  2  0  0  0  0  0  0  0  0  0
    2.1755   91.4502   17.3298 O   0  0  0  0  0  0  0  0  0  0  0  0
    2.7050   89.9186   15.6119 C   0  0  2  0  0  0  0  0  0  0  0  0
    1.3853   90.2335   15.0480 N   0  0  0  0  0  0  0  0  0  0  0  0
    2.5803   88.7256   16.5630 C   0  0  1  0  0  0  0  0  0  0  0  0
    2.1110   87.5706   15.8620 O   0  0  0  0  0  0  0  0  0  0  0  0
    3.9388   88.4464   17.2067 C   0  0  2  0  0  0  0  0  0  0  0  0
    3.7988   87.3971   18.1643 O   0  0  0  0  0  0  0  0  0  0  0  0
    4.4026   89.7038   17.9436 C   0  0  2  0  0  0  0  0  0  0  0  0
    4.4612   90.8051   17.0238 O   0  0  0  0  0  0  0  0  0  0  0  0
    5.7676   89.4393   18.5843 C   0  0  0  0  0  0  0  0  0  0  0  0
    6.7488   89.0131   17.5752 N   0  0  0  0  0  0  0  0  0  0  0  0
    1.4151   94.9110   19.5862 C   0  0  2  0  0  0  0  0  0  0  0  0
    1.4050   96.0735   20.4870 N   0  0  0  0  0  0  0  0  0  0  0  0
    1.6198   93.6150   20.3732 C   0  0  0  0  0  0  0  0  0  0  0  0
    1.4885   92.4366   19.4030 C   0  0  2  0  0  0  0  0  0  0  0  0
    1.7680   91.1841   20.1200 N   0  0  0  0  0  0  0  0  0  0  0  0
    2.4691   92.5327   18.2306 C   0  0  2  0  0  0  0  0  0  0  0  0
    2.4990   93.8893   17.5355 C   0  0  2  0  0  0  0  0  0  0  0  0
    3.7101   93.8997   16.7627 O   0  0  0  0  0  0  0  0  0  0  0  0
    2.5271   95.0463   18.5430 C   0  0  1  0  0  0  0  0  0  0  0  0
    2.3562   96.3023   17.8811 O   0  0  0  0  0  0  0  0  0  0  0  0
    3.7246   94.7944   15.6386 C   0  0  1  0  0  0  0  0  0  0  0  0
    4.4420   94.0821   14.4907 C   0  0  2  0  0  0  0  0  0  0  0  0
    5.8553   94.2428   14.6336 O   0  0  0  0  0  0  0  0  0  0  0  0
    3.9453   94.9438   13.3335 C   0  0  1  0  0  0  0  0  0  0  0  0
    2.4675   95.0407   13.6781 C   0  0  2  0  0  0  0  0  0  0  0  0
    2.4107   95.0838   15.1188 O   0  0  0  0  0  0  0  0  0  0  0  0
    1.7401   93.8144   13.1146 C   0  0  0  0  0  0  0  0  0  0  0  0
    2.1402   92.6298   13.8095 O   0  0  0  0  0  0  0  0  0  0  0  0
    4.9562   96.6496   12.0818 C   0  0  2  0  0  0  0  0  0  0  0  0
    4.5525   96.2439   13.3986 O   0  0  0  0  0  0  0  0  0  0  0  0
    6.2412   97.4788   12.1725 C   0  0  1  0  0  0  0  0  0  0  0  0
    1.9921   97.5212    9.1420 N   0  0  0  0  0  0  0  0  0  0  0  0
    6.6346   98.0081   10.7892 C   0  0  1  0  0  0  0  0  0  0  0  0
    7.0388   96.9285    9.9411 O   0  0  0  0  0  0  0  0  0  0  0  0
    5.4502   98.7475   10.1608 C   0  0  2  0  0  0  0  0  0  0  0  0
    5.1723   99.9127   10.9447 O   0  0  0  0  0  0  0  0  0  0  0  0
    4.2254   97.8268   10.1354 C   0  0  1  0  0  0  0  0  0  0  0  0
    3.8975   97.4103   11.4739 O   0  0  0  0  0  0  0  0  0  0  0  0
    3.0166   98.5149    9.4954 C   0  0  0  0  0  0  0  0  0  0  0  0
    5.9996   98.6280   13.0580 N   0  0  0  0  0  0  0  0  0  0  0  0
  1  2  1  1  0  0  0
  1  3  1  0  0  0  0
  1 10  1  0  0  0  0
  3  4  1  1  0  0  0
  3  5  1  0  0  0  0
  5  6  1  6  0  0  0
  5  7  1  0  0  0  0
  7  8  1  1  0  0  0
  7  9  1  0  0  0  0
  9 10  1  0  0  0  0
  9 11  1  6  0  0  0
 11 12  1  0  0  0  0
 13 14  1  1  0  0  0
 13 15  1  0  0  0  0
 13 21  1  0  0  0  0
 16 15  1  0  0  0  0
 16 17  1  1  0  0  0
 18  2  1  6  0  0  0
 18 16  1  0  0  0  0
 19 18  1  0  0  0  0
 19 20  1  6  0  0  0
 21 19  1  0  0  0  0
 21 22  1  6  0  0  0
 23 20  1  1  0  0  0
 23 24  1  0  0  0  0
 23 28  1  0  0  0  0
 24 25  1  1  0  0  0
 24 26  1  0  0  0  0
 26 27  1  0  0  0  0
 26 32  1  1  0  0  0
 27 28  1  0  0  0  0
 27 29  1  1  0  0  0
 29 30  1  0  0  0  0
 31 32  1  1  0  0  0
 31 40  1  0  0  0  0
 33 31  1  0  0  0  0
 33 42  1  1  0  0  0
 35 33  1  0  0  0  0
 35 36  1  6  0  0  0
 37 35  1  0  0  0  0
 37 38  1  1  0  0  0
 37 39  1  0  0  0  0
 39 40  1  0  0  0  0
 39 41  1  1  0  0  0
 41 34  1  0  0  0  0
M  END
>  <CHROM.1>
176.59486910,56.64668547,-162.69971176,156.28144797,-140.70239132,137.18035688
68.15299070,-145.89381361,164.22868080,3.59033132,93.86003560,15.19140179
-2.00573422,1.16390262,-0.34920031

>  <Name>
2fcy_lig

>  <RI>
9.29634e+06

>  <Rbt.Current_Directory>
/home/itssahil/PROJECTS/Mol_Feturizer/New_Systems/rnas/2fcy

>  <Rbt.Executable>
rbdock ($Id: //depot/dev/client3/rdock/2013.1/src/exe/rbdock.cxx#4 $)

>  <Rbt.Library>
libRbt.so (2013.1, Build901 2013/11/27)

>  <Rbt.Parameter_File>
/export/apps/rDock/src/rDock_2013.1_src/data/scripts/dock_solv.prm

>  <Rbt.Receptor>
prm/blind_docking_100.prm

>  <SCORE>
9.28563

>  <SCORE.INTER>
-0.776091

>  <SCORE.INTER.CONST>
1

>  <SCORE.INTER.POLAR>
-0.641278

>  <SCORE.INTER.ROT>
9

>  <SCORE.INTER.SOLV>
29.8146

>  <SCORE.INTER.VDW>
-17.918

>  <SCORE.INTER.norm>
-0.0184784

>  <SCORE.INTRA>
1.66502

>  <SCORE.INTRA.DIHEDRAL>
3.04949

>  <SCORE.INTRA.DIHEDRAL.0>
17.3446

>  <SCORE.INTRA.POLAR>
0

>  <SCORE.INTRA.POLAR.0>
0

>  <SCORE.INTRA.REPUL>
0

>  <SCORE.INTRA.REPUL.0>
0

>  <SCORE.INTRA.SOLV>
-1.90678

>  <SCORE.INTRA.SOLV.lig_0>
-112.452

>  <SCORE.INTRA.VDW>
1.09366

>  <SCORE.INTRA.VDW.0>
-5.95059

>  <SCORE.INTRA.norm>
0.0396433

>  <SCORE.RESTR>
8.3967

>  <SCORE.RESTR.CAVITY>
8.3967

>  <SCORE.RESTR.norm>
0.199922

>  <SCORE.SYSTEM>
0

>  <SCORE.SYSTEM.CONST>
0

>  <SCORE.SYSTEM.DIHEDRAL>
0

>  <SCORE.SYSTEM.SOLV>
0

>  <SCORE.SYSTEM.norm>
0

>  <SCORE.heavy>
42

>  <SCORE.norm>
0.221086

>  <RMSD>
7.541

$$$$
2fcy_lig
 OpenBabel11021811433D
libRbt.so/2013.1/901 2013/11/27
 42 45  0  0  0  0  0  0  0  0999 V2000
    0.1144   90.7542   18.1443 C   0  0  2  0  0  0  0  0  0  0  0  0
    0.5339   92.0722   17.7517 O   0  0  0  0  0  0  0  0  0  0  0  0
    0.7518   90.5149   19.5138 C   0  0  2  0  0  0  0  0  0  0  0  0
    0.3665   91.6127   20.4111 N   0  0  0  0  0  0  0  0  0  0  0  0
    2.2756   90.4852   19.3714 C   0  0  1  0  0  0  0  0  0  0  0  0
    2.8948   90.2581   20.6405 O   0  0  0  0  0  0  0  0  0  0  0  0
    2.6707   89.3911   18.3790 C   0  0  2  0  0  0  0  0  0  0  0  0
    4.0829   89.4293   18.1746 O   0  0  0  0  0  0  0  0  0  0  0  0
    1.9886   89.6716   17.0392 C   0  0  2  0  0  0  0  0  0  0  0  0
    0.5665   89.7356   17.2286 O   0  0  0  0  0  0  0  0  0  0  0  0
    2.3691   88.5763   16.0395 C   0  0  0  0  0  0  0  0  0  0  0  0
    1.6339   88.7383   14.7762 N   0  0  0  0  0  0  0  0  0  0  0  0
    0.0695   91.2454   13.6594 C   0  0  2  0  0  0  0  0  0  0  0  0
   -0.1192   91.2369   12.2009 N   0  0  0  0  0  0  0  0  0  0  0  0
   -1.1116   91.9235   14.3566 C   0  0  0  0  0  0  0  0  0  0  0  0
   -0.9222   91.7836   15.8704 C   0  0  2  0  0  0  0  0  0  0  0  0
   -2.0005   92.5038   16.5630 N   0  0  0  0  0  0  0  0  0  0  0  0
    0.4110   92.3658   16.3488 C   0  0  2  0  0  0  0  0  0  0  0  0
    1.6259   91.9203   15.5426 C   0  0  2  0  0  0  0  0  0  0  0  0
    2.6721   92.8456   15.8792 O   0  0  0  0  0  0  0  0  0  0  0  0
    1.3608   91.9779   14.0323 C   0  0  1  0  0  0  0  0  0  0  0  0
    2.4329   91.3739   13.3036 O   0  0  0  0  0  0  0  0  0  0  0  0
    2.9187   93.8844   14.9178 C   0  0  1  0  0  0  0  0  0  0  0  0
    3.3522   95.1329   15.6879 C   0  0  2  0  0  0  0  0  0  0  0  0
    2.1976   95.8380   16.1499 O   0  0  0  0  0  0  0  0  0  0  0  0
    3.9955   95.9048   14.5395 C   0  0  1  0  0  0  0  0  0  0  0  0
    4.8137   94.7997   13.8903 C   0  0  2  0  0  0  0  0  0  0  0  0
    4.0256   93.6006   14.0377 O   0  0  0  0  0  0  0  0  0  0  0  0
    6.1634   94.6876   14.6086 C   0  0  0  0  0  0  0  0  0  0  0  0
    6.8917   95.9144   14.5039 O   0  0  0  0  0  0  0  0  0  0  0  0
    3.5370   97.3543   12.7542 C   0  0  2  0  0  0  0  0  0  0  0  0
    2.9807   96.3640   13.6325 O   0  0  0  0  0  0  0  0  0  0  0  0
    2.5446   97.6544   11.6263 C   0  0  1  0  0  0  0  0  0  0  0  0
    7.5810   98.4095   10.3373 N   0  0  0  0  0  0  0  0  0  0  0  0
    3.1589   98.6336   10.6202 C   0  0  1  0  0  0  0  0  0  0  0  0
    3.3238   99.9228   11.2196 O   0  0  0  0  0  0  0  0  0  0  0  0
    4.5143   98.1048   10.1433 C   0  0  2  0  0  0  0  0  0  0  0  0
    4.2987   96.8954    9.4081 O   0  0  0  0  0  0  0  0  0  0  0  0
    5.4132   97.8308   11.3537 C   0  0  1  0  0  0  0  0  0  0  0  0
    4.7842   96.8720   12.2243 O   0  0  0  0  0  0  0  0  0  0  0  0
    6.7915   97.3184   10.9273 C   0  0  0  0  0  0  0  0  0  0  0  0
    2.2353   96.3998   10.9239 N   0  0  0  0  0  0  0  0  0  0  0  0
  1  2  1  6  0  0  0
  1  3  1  0  0  0  0
  1 10  1  0  0  0  0
  3  4  1  1  0  0  0
  3  5  1  0  0  0  0
  5  6  1  1  0  0  0
  5  7  1  0  0  0  0
  7  8  1  6  0  0  0
  7  9  1  0  0  0  0
  9 10  1  0  0  0  0
  9 11  1  6  0  0  0
 11 12  1  0  0  0  0
 13 14  1  6  0  0  0
 13 15  1  0  0  0  0
 13 21  1  0  0  0  0
 16 15  1  0  0  0  0
 16 17  1  1  0  0  0
 18  2  1  1  0  0  0
 18 16  1  0  0  0  0
 19 18  1  0  0  0  0
 19 20  1  6  0  0  0
 21 19  1  0  0  0  0
 21 22  1  6  0  0  0
 23 20  1  1  0  0  0
 23 24  1  0  0  0  0
 23 28  1  0  0  0  0
 24 25  1  6  0  0  0
 24 26  1  0  0  0  0
 26 27  1  0  0  0  0
 26 32  1  6  0  0  0
 27 28  1  0  0  0  0
 27 29  1  1  0  0  0
 29 30  1  0  0  0  0
 31 32  1  1  0  0  0
 31 40  1  0  0  0  0
 33 31  1  0  0  0  0
 33 42  1  6  0  0  0
 35 33  1  0  0  0  0
 35 36  1  1  0  0  0
 37 35  1  0  0  0  0
 37 38  1  1  0  0  0
 37 39  1  0  0  0  0
 39 40  1  0  0  0  0
 39 41  1  6  0  0  0
 41 34  1  0  0  0  0
M  END
>  <CHROM.1>
161.65656921,174.65196626,41.38983577,-100.82218644,146.84012493,165.72973958
-60.71542302,169.50350931,72.49641242,2.65774844,93.63009788,14.73461915
1.96002369,0.43012354,2.25288406

>  <Name>
2fcy_lig

>  <RI>
9.29634e+06

>  <Rbt.Current_Directory>
/home/itssahil/PROJECTS/Mol_Feturizer/New_Systems/rnas/2fcy

>  <Rbt.Executable>
rbdock ($Id: //depot/dev/client3/rdock/2013.1/src/exe/rbdock.cxx#4 $)

>  <Rbt.Library>
libRbt.so (2013.1, Build901 2013/11/27)

>  <Rbt.Parameter_File>
/export/apps/rDock/src/rDock_2013.1_src/data/scripts/dock_solv.prm

>  <Rbt.Receptor>
prm/blind_docking_100.prm

>  <SCORE>
0.728256

>  <SCORE.INTER>
-13.2207

>  <SCORE.INTER.CONST>
1

>  <SCORE.INTER.POLAR>
-1.37045

>  <SCORE.INTER.ROT>
9

>  <SCORE.INTER.SOLV>
30.8016

>  <SCORE.INTER.VDW>
-24.1128

>  <SCORE.INTER.norm>
-0.314778

>  <SCORE.INTRA>
7.95893

>  <SCORE.INTRA.DIHEDRAL>
-1.9772

>  <SCORE.INTRA.DIHEDRAL.0>
17.3446

>  <SCORE.INTRA.POLAR>
0

>  <SCORE.INTRA.POLAR.0>
0

>  <SCORE.INTRA.REPUL>
0

>  <SCORE.INTRA.REPUL.0>
0

>  <SCORE.INTRA.SOLV>
1.02226

>  <SCORE.INTRA.SOLV.lig_0>
-112.452

>  <SCORE.INTRA.VDW>
8.4364

>  <SCORE.INTRA.VDW.0>
-5.95059

>  <SCORE.INTRA.norm>
0.189498

>  <SCORE.RESTR>
5.99001

>  <SCORE.RESTR.CAVITY>
5.99001

>  <SCORE.RESTR.norm>
0.142619

>  <SCORE.SYSTEM>
0

>  <SCORE.SYSTEM.CONST>
0

>  <SCORE.SYSTEM.DIHEDRAL>
0

>  <SCORE.SYSTEM.SOLV>
0

>  <SCORE.SYSTEM.norm>
0

>  <SCORE.heavy>
42

>  <SCORE.norm>
0.0173394

>  <RMSD>
7.562

$$$$
2fcy_lig
 OpenBabel11021811433D
libRbt.so/2013.1/901 2013/11/27
 42 45  0  0  0  0  0  0  0  0999 V2000
    2.5566   89.9594   16.2000 C   0  0  2  0  0  0  0  0  0  0  0  0
    1.2138   89.6929   16.6396 O   0  0  0  0  0  0  0  0  0  0  0  0
    3.4541   89.0907   17.0825 C   0  0  2  0  0  0  0  0  0  0  0  0
    3.0038   87.6956   16.9836 N   0  0  0  0  0  0  0  0  0  0  0  0
    3.3489   89.5574   18.5366 C   0  0  1  0  0  0  0  0  0  0  0  0
    4.1841   88.7613   19.3818 O   0  0  0  0  0  0  0  0  0  0  0  0
    3.7459   91.0312   18.6258 C   0  0  2  0  0  0  0  0  0  0  0  0
    3.5546   91.4897   19.9640 O   0  0  0  0  0  0  0  0  0  0  0  0
    2.8306   91.8444   17.7093 C   0  0  2  0  0  0  0  0  0  0  0  0
    2.9275   91.3433   16.3669 O   0  0  0  0  0  0  0  0  0  0  0  0
    3.2254   93.3217   17.7826 C   0  0  0  0  0  0  0  0  0  0  0  0
    2.2940   94.1545   17.0071 N   0  0  0  0  0  0  0  0  0  0  0  0
   -2.6109   91.1680   15.7221 C   0  0  2  0  0  0  0  0  0  0  0  0
   -3.8212   91.9367   15.3944 N   0  0  0  0  0  0  0  0  0  0  0  0
   -1.9737   91.6818   17.0146 C   0  0  0  0  0  0  0  0  0  0  0  0
   -0.8016   90.7624   17.3724 C   0  0  2  0  0  0  0  0  0  0  0  0
   -0.1192   91.2874   18.5639 N   0  0  0  0  0  0  0  0  0  0  0  0
    0.2316   90.6675   16.2460 C   0  0  2  0  0  0  0  0  0  0  0  0
   -0.3550   90.3921   14.8659 C   0  0  2  0  0  0  0  0  0  0  0  0
    0.6847   90.7250   13.9320 O   0  0  0  0  0  0  0  0  0  0  0  0
   -1.5887   91.2608   14.5866 C   0  0  1  0  0  0  0  0  0  0  0  0
   -2.2368   90.8517   13.3793 O   0  0  0  0  0  0  0  0  0  0  0  0
    1.1022   92.0997   13.9280 C   0  0  1  0  0  0  0  0  0  0  0  0
    2.4636   92.1668   13.2338 C   0  0  2  0  0  0  0  0  0  0  0  0
    3.4973   91.8582   14.1717 O   0  0  0  0  0  0  0  0  0  0  0  0
    2.4915   93.6592   12.9168 C   0  0  1  0  0  0  0  0  0  0  0  0
    1.0846   93.8507   12.3729 C   0  0  2  0  0  0  0  0  0  0  0  0
    0.2515   92.9554   13.1378 O   0  0  0  0  0  0  0  0  0  0  0  0
    1.0733   93.5048   10.8794 C   0  0  0  0  0  0  0  0  0  0  0  0
    2.0394   94.2899   10.1746 O   0  0  0  0  0  0  0  0  0  0  0  0
    3.7212   95.3612   13.9607 C   0  0  2  0  0  0  0  0  0  0  0  0
    2.6576   94.4116   14.1292 O   0  0  0  0  0  0  0  0  0  0  0  0
    3.7199   96.3457   15.1345 C   0  0  1  0  0  0  0  0  0  0  0  0
    4.5052   96.5598   10.0436 N   0  0  0  0  0  0  0  0  0  0  0  0
    4.7826   97.4297   14.9242 C   0  0  1  0  0  0  0  0  0  0  0  0
    6.0939   96.8635   15.0150 O   0  0  0  0  0  0  0  0  0  0  0  0
    4.5922   98.0834   13.5528 C   0  0  2  0  0  0  0  0  0  0  0  0
    3.3402   98.7776   13.5485 O   0  0  0  0  0  0  0  0  0  0  0  0
    4.5986   97.0044   12.4646 C   0  0  1  0  0  0  0  0  0  0  0  0
    3.5468   96.0529   12.7117 O   0  0  0  0  0  0  0  0  0  0  0  0
    4.4319   97.6112   11.0688 C   0  0  0  0  0  0  0  0  0  0  0  0
    2.4019   96.9947   15.2043 N   0  0  0  0  0  0  0  0  0  0  0  0
  1  2  1  1  0  0  0
  1  3  1  0  0  0  0
  1 10  1  0  0  0  0
  3  4  1  1  0  0  0
  3  5  1  0  0  0  0
  5  6  1  1  0  0  0
  5  7  1  0  0  0  0
  7  8  1  1  0  0  0
  7  9  1  0  0  0  0
  9 10  1  0  0  0  0
  9 11  1  6  0  0  0
 11 12  1  0  0  0  0
 13 14  1  6  0  0  0
 13 15  1  0  0  0  0
 13 21  1  0  0  0  0
 16 15  1  0  0  0  0
 16 17  1  1  0  0  0
 18  2  1  1  0  0  0
 18 16  1  0  0  0  0
 19 18  1  0  0  0  0
 19 20  1  6  0  0  0
 21 19  1  0  0  0  0
 21 22  1  6  0  0  0
 23 20  1  6  0  0  0
 23 24  1  0  0  0  0
 23 28  1  0  0  0  0
 24 25  1  1  0  0  0
 24 26  1  0  0  0  0
 26 27  1  0  0  0  0
 26 32  1  1  0  0  0
 27 28  1  0  0  0  0
 27 29  1  6  0  0  0
 29 30  1  0  0  0  0
 31 32  1  1  0  0  0
 31 40  1  0  0  0  0
 33 31  1  0  0  0  0
 33 42  1  6  0  0  0
 35 33  1  0  0  0  0
 35 36  1  6  0  0  0
 37 35  1  0  0  0  0
 37 38  1  1  0  0  0
 37 39  1  0  0  0  0
 39 40  1  0  0  0  0
 39 41  1  6  0  0  0
 41 34  1  0  0  0  0
M  END
>  <CHROM.1>
162.20546877,-175.00145596,-146.00552074,-62.67326321,162.30325367,130.13986190
-56.04112309,168.81742209,177.34861393,2.06737453,92.97179514,15.02972862
-1.97775620,-0.55975854,-0.82376547

>  <Name>
2fcy_lig

>  <RI>
9.29634e+06

>  <Rbt.Current_Directory>
/home/itssahil/PROJECTS/Mol_Feturizer/New_Systems/rnas/2fcy

>  <Rbt.Executable>
rbdock ($Id: //depot/dev/client3/rdock/2013.1/src/exe/rbdock.cxx#4 $)

>  <Rbt.Library>
libRbt.so (2013.1, Build901 2013/11/27)

>  <Rbt.Parameter_File>
/export/apps/rDock/src/rDock_2013.1_src/data/scripts/dock_solv.prm

>  <Rbt.Receptor>
prm/blind_docking_100.prm

>  <SCORE>
0.31506

>  <SCORE.INTER>
-8.62787

>  <SCORE.INTER.CONST>
1

>  <SCORE.INTER.POLAR>
-1.29677

>  <SCORE.INTER.ROT>
9

>  <SCORE.INTER.SOLV>
28.035

>  <SCORE.INTER.VDW>
-20.3744

>  <SCORE.INTER.norm>
-0.205426

>  <SCORE.INTRA>
3.36207

>  <SCORE.INTRA.DIHEDRAL>
-2.8256

>  <SCORE.INTRA.DIHEDRAL.0>
17.3446

>  <SCORE.INTRA.POLAR>
0

>  <SCORE.INTRA.POLAR.0>
0

>  <SCORE.INTRA.REPUL>
0.0730137

>  <SCORE.INTRA.REPUL.0>
0

>  <SCORE.INTRA.SOLV>
4.37748

>  <SCORE.INTRA.SOLV.lig_0>
-112.452

>  <SCORE.INTRA.VDW>
2.22107

>  <SCORE.INTRA.VDW.0>
-5.95059

>  <SCORE.INTRA.norm>
0.0800494

>  <SCORE.RESTR>
5.58086

>  <SCORE.RESTR.CAVITY>
5.58086

>  <SCORE.RESTR.norm>
0.132878

>  <SCORE.SYSTEM>
0

>  <SCORE.SYSTEM.CONST>
0

>  <SCORE.SYSTEM.DIHEDRAL>
0

>  <SCORE.SYSTEM.SOLV>
0

>  <SCORE.SYSTEM.norm>
0

>  <SCORE.heavy>
42

>  <SCORE.norm>
0.00750144

>  <RMSD>
7.572

$$$$
2fcy_lig
 OpenBabel11021811433D
libRbt.so/2013.1/901 2013/11/27
 42 45  0  0  0  0  0  0  0  0999 V2000
   -3.2348   96.5368    9.3799 C   0  0  2  0  0  0  0  0  0  0  0  0
   -2.8538   95.1582    9.5266 O   0  0  0  0  0  0  0  0  0  0  0  0
   -2.9015   96.8996    7.9321 C   0  0  2  0  0  0  0  0  0  0  0  0
   -3.5713   95.9429    7.0405 N   0  0  0  0  0  0  0  0  0  0  0  0
   -1.3877   96.8194    7.7194 C   0  0  1  0  0  0  0  0  0  0  0  0
   -1.0507   97.1593    6.3716 O   0  0  0  0  0  0  0  0  0  0  0  0
   -0.6876   97.7605    8.7002 C   0  0  2  0  0  0  0  0  0  0  0  0
    0.7259   97.6125    8.5665 O   0  0  0  0  0  0  0  0  0  0  0  0
   -1.0745   97.3632   10.1256 C   0  0  2  0  0  0  0  0  0  0  0  0
   -2.5030   97.4088   10.2656 O   0  0  0  0  0  0  0  0  0  0  0  0
   -0.3868   98.3055   11.1170 C   0  0  0  0  0  0  0  0  0  0  0  0
   -0.6667   97.9053   12.5041 N   0  0  0  0  0  0  0  0  0  0  0  0
   -5.1290   94.7323   13.0321 C   0  0  2  0  0  0  0  0  0  0  0  0
   -5.8749   94.3065   14.2260 N   0  0  0  0  0  0  0  0  0  0  0  0
   -5.6755   94.0489   11.7771 C   0  0  0  0  0  0  0  0  0  0  0  0
   -4.9513   94.6296   10.5583 C   0  0  2  0  0  0  0  0  0  0  0  0
   -5.3977   93.9256    9.3475 N   0  0  0  0  0  0  0  0  0  0  0  0
   -3.4305   94.4760   10.6543 C   0  0  2  0  0  0  0  0  0  0  0  0
   -2.8289   94.9176   11.9838 C   0  0  2  0  0  0  0  0  0  0  0  0
   -1.5115   94.3455   12.0194 O   0  0  0  0  0  0  0  0  0  0  0  0
   -3.6420   94.4003   13.1779 C   0  0  1  0  0  0  0  0  0  0  0  0
   -3.1806   94.9838   14.3992 O   0  0  0  0  0  0  0  0  0  0  0  0
   -1.4373   92.9348   11.7573 C   0  0  1  0  0  0  0  0  0  0  0  0
    0.0256   92.5954   11.4671 C   0  0  2  0  0  0  0  0  0  0  0  0
    0.3181   92.8634   10.0936 O   0  0  0  0  0  0  0  0  0  0  0  0
   -0.0351   91.0871   11.6906 C   0  0  1  0  0  0  0  0  0  0  0  0
   -0.8334   91.0332   12.9836 C   0  0  2  0  0  0  0  0  0  0  0  0
   -1.7773   92.1206   12.8983 O   0  0  0  0  0  0  0  0  0  0  0  0
    0.1229   91.1992   14.1702 C   0  0  0  0  0  0  0  0  0  0  0  0
    0.6016   92.5451   14.2452 O   0  0  0  0  0  0  0  0  0  0  0  0
    0.0679   90.3262    9.4749 C   0  0  2  0  0  0  0  0  0  0  0  0
   -0.7761   90.4667   10.6279 O   0  0  0  0  0  0  0  0  0  0  0  0
   -0.6780   90.8188    8.2307 C   0  0  1  0  0  0  0  0  0  0  0  0
    2.6071   87.0307    6.9794 N   0  0  0  0  0  0  0  0  0  0  0  0
    0.1661   90.5838    6.9734 C   0  0  1  0  0  0  0  0  0  0  0  0
    1.3179   91.4333    6.9830 O   0  0  0  0  0  0  0  0  0  0  0  0
    0.6020   89.1175    6.9080 C   0  0  2  0  0  0  0  0  0  0  0  0
   -0.5628   88.3029    6.7372 O   0  0  0  0  0  0  0  0  0  0  0  0
    1.3230   88.7380    8.2058 C   0  0  1  0  0  0  0  0  0  0  0  0
    0.4494   88.9468    9.3310 O   0  0  0  0  0  0  0  0  0  0  0  0
    1.7984   87.2828    8.1812 C   0  0  0  0  0  0  0  0  0  0  0  0
   -1.9295   90.0575    8.0989 N   0  0  0  0  0  0  0  0  0  0  0  0
  1  2  1  1  0  0  0
  1  3  1  0  0  0  0
  1 10  1  0  0  0  0
  3  4  1  6  0  0  0
  3  5  1  0  0  0  0
  5  6  1  6  0  0  0
  5  7  1  0  0  0  0
  7  8  1  1  0  0  0
  7  9  1  0  0  0  0
  9 10  1  0  0  0  0
  9 11  1  1  0  0  0
 11 12  1  0  0  0  0
 13 14  1  1  0  0  0
 13 15  1  0  0  0  0
 13 21  1  0  0  0  0
 16 15  1  0  0  0  0
 16 17  1  6  0  0  0
 18  2  1  6  0  0  0
 18 16  1  0  0  0  0
 19 18  1  0  0  0  0
 19 20  1  1  0  0  0
 21 19  1  0  0  0  0
 21 22  1  1  0  0  0
 23 20  1  1  0  0  0
 23 24  1  0  0  0  0
 23 28  1  0  0  0  0
 24 25  1  6  0  0  0
 24 26  1  0  0  0  0
 26 27  1  0  0  0  0
 26 32  1  6  0  0  0
 27 28  1  0  0  0  0
 27 29  1  1  0  0  0
 29 30  1  0  0  0  0
 31 32  1  1  0  0  0
 31 40  1  0  0  0  0
 33 31  1  0  0  0  0
 33 42  1  6  0  0  0
 35 33  1  0  0  0  0
 35 36  1  1  0  0  0
 37 35  1  0  0  0  0
 37 38  1  1  0  0  0
 37 39  1  0  0  0  0
 39 40  1  0  0  0  0
 39 41  1  6  0  0  0
 41 34  1  0  0  0  0
M  END
>  <CHROM.1>
-161.89861177,-176.48423174,54.94836997,-51.57742690,165.00029290,79.78926205
71.60242810,-132.62444181,53.51614316,-1.39398661,93.30860336,10.15749805
-2.69081476,-1.08235359,2.42218974

>  <Name>
2fcy_lig

>  <RI>
224

>  <Rbt.Current_Directory>
/home/itssahil/PROJECTS/Mol_Feturizer/New_Systems/rnas/2fcy

>  <Rbt.Executable>
rbdock ($Id: //depot/dev/client3/rdock/2013.1/src/exe/rbdock.cxx#4 $)

>  <Rbt.Library>
libRbt.so (2013.1, Build901 2013/11/27)

>  <Rbt.Parameter_File>
/export/apps/rDock/src/rDock_2013.1_src/data/scripts/dock_solv.prm

>  <Rbt.Receptor>
prm/pocket_docking_6.prm

>  <SCORE>
-8.24039

>  <SCORE.INTER>
-9.34344

>  <SCORE.INTER.CONST>
1

>  <SCORE.INTER.POLAR>
-0.938083

>  <SCORE.INTER.ROT>
9

>  <SCORE.INTER.SOLV>
11.7176

>  <SCORE.INTER.VDW>
-16.6079

>  <SCORE.INTER.norm>
-0.222463

>  <SCORE.INTRA>
1.0959

>  <SCORE.INTRA.DIHEDRAL>
-5.00878

>  <SCORE.INTRA.DIHEDRAL.0>
17.3446

>  <SCORE.INTRA.POLAR>
0

>  <SCORE.INTRA.POLAR.0>
0

>  <SCORE.INTRA.REPUL>
0

>  <SCORE.INTRA.REPUL.0>
0

>  <SCORE.INTRA.SOLV>
-1.38

>  <SCORE.INTRA.SOLV.lig_0>
-112.452

>  <SCORE.INTRA.VDW>
4.29029

>  <SCORE.INTRA.VDW.0>
-5.95059

>  <SCORE.INTRA.norm>
0.0260929

>  <SCORE.RESTR>
0.00714884

>  <SCORE.RESTR.CAVITY>
0.00714884

>  <SCORE.RESTR.norm>
0.000170211

>  <SCORE.SYSTEM>
0

>  <SCORE.SYSTEM.CONST>
0

>  <SCORE.SYSTEM.DIHEDRAL>
0

>  <SCORE.SYSTEM.SOLV>
0

>  <SCORE.SYSTEM.norm>
0

>  <SCORE.heavy>
42

>  <SCORE.norm>
-0.1962

>  <RMSD>
7.572

$$$$
2fcy_lig
 OpenBabel11021811433D
libRbt.so/2013.1/901 2013/11/27
 42 45  0  0  0  0  0  0  0  0999 V2000
    4.8269   95.8568   13.2796 C   0  0  2  0  0  0  0  0  0  0  0  0
    4.4433   96.6867   14.3892 O   0  0  0  0  0  0  0  0  0  0  0  0
    6.0903   96.5010   12.7069 C   0  0  2  0  0  0  0  0  0  0  0  0
    7.0785   96.6401   13.7852 N   0  0  0  0  0  0  0  0  0  0  0  0
    5.7509   97.8843   12.1462 C   0  0  1  0  0  0  0  0  0  0  0  0
    6.9178   98.5057   11.6003 O   0  0  0  0  0  0  0  0  0  0  0  0
    4.6675   97.7457   11.0762 C   0  0  2  0  0  0  0  0  0  0  0  0
    4.2841   99.0442   10.6241 O   0  0  0  0  0  0  0  0  0  0  0  0
    3.4411   97.0784   11.7005 C   0  0  2  0  0  0  0  0  0  0  0  0
    3.8155   95.8065   12.2525 O   0  0  0  0  0  0  0  0  0  0  0  0
    2.3523   96.9250   10.6353 C   0  0  0  0  0  0  0  0  0  0  0  0
    2.8956   96.3176    9.4112 N   0  0  0  0  0  0  0  0  0  0  0  0
    2.9883   95.0739   17.9848 C   0  0  2  0  0  0  0  0  0  0  0  0
    2.2264   94.5234   19.1159 N   0  0  0  0  0  0  0  0  0  0  0  0
    2.4586   96.4547   17.5930 C   0  0  0  0  0  0  0  0  0  0  0  0
    3.3709   97.0296   16.5048 C   0  0  2  0  0  0  0  0  0  0  0  0
    2.8311   98.3191   16.0501 N   0  0  0  0  0  0  0  0  0  0  0  0
    3.4757   96.1105   15.2843 C   0  0  2  0  0  0  0  0  0  0  0  0
    3.7678   94.6501   15.6106 C   0  0  2  0  0  0  0  0  0  0  0  0
    3.4426   93.9165   14.4189 O   0  0  0  0  0  0  0  0  0  0  0  0
    2.9054   94.1418   16.7736 C   0  0  1  0  0  0  0  0  0  0  0  0
    3.3295   92.8416   17.1917 O   0  0  0  0  0  0  0  0  0  0  0  0
    2.0528   93.5968   14.2435 C   0  0  1  0  0  0  0  0  0  0  0  0
    1.5957   94.2299   12.9283 C   0  0  2  0  0  0  0  0  0  0  0  0
    1.2502   95.5995   13.1484 O   0  0  0  0  0  0  0  0  0  0  0  0
    0.3262   93.4134   12.7041 C   0  0  1  0  0  0  0  0  0  0  0  0
    0.8406   92.0160   13.0121 C   0  0  2  0  0  0  0  0  0  0  0  0
    1.8061   92.1863   14.0702 O   0  0  0  0  0  0  0  0  0  0  0  0
    1.4770   91.4265   11.7481 C   0  0  0  0  0  0  0  0  0  0  0  0
    0.4702   91.0862   10.7906 O   0  0  0  0  0  0  0  0  0  0  0  0
   -1.4597   92.6445   14.0147 C   0  0  2  0  0  0  0  0  0  0  0  0
   -0.6729   93.7931   13.6638 O   0  0  0  0  0  0  0  0  0  0  0  0
   -2.9479   92.9804   13.8742 C   0  0  1  0  0  0  0  0  0  0  0  0
    0.0310   90.3814   17.1524 N   0  0  0  0  0  0  0  0  0  0  0  0
   -3.8084   91.8015   14.3411 C   0  0  1  0  0  0  0  0  0  0  0  0
   -3.6684   90.6976   13.4411 O   0  0  0  0  0  0  0  0  0  0  0  0
   -3.3879   91.3790   15.7515 C   0  0  2  0  0  0  0  0  0  0  0  0
   -3.6893   92.4468   16.6561 O   0  0  0  0  0  0  0  0  0  0  0  0
   -1.8847   91.0819   15.7714 C   0  0  1  0  0  0  0  0  0  0  0  0
   -1.1487   92.2498   15.3625 O   0  0  0  0  0  0  0  0  0  0  0  0
   -1.4174   90.6338   17.1589 C   0  0  0  0  0  0  0  0  0  0  0  0
   -3.2514   94.1422   14.7235 N   0  0  0  0  0  0  0  0  0  0  0  0
  1  2  1  1  0  0  0
  1  3  1  0  0  0  0
  1 10  1  0  0  0  0
  3  4  1  1  0  0  0
  3  5  1  0  0  0  0
  5  6  1  6  0  0  0
  5  7  1  0  0  0  0
  7  8  1  1  0  0  0
  7  9  1  0  0  0  0
  9 10  1  0  0  0  0
  9 11  1  6  0  0  0
 11 12  1  0  0  0  0
 13 14  1  1  0  0  0
 13 15  1  0  0  0  0
 13 21  1  0  0  0  0
 16 15  1  0  0  0  0
 16 17  1  6  0  0  0
 18  2  1  6  0  0  0
 18 16  1  0  0  0  0
 19 18  1  0  0  0  0
 19 20  1  6  0  0  0
 21 19  1  0  0  0  0
 21 22  1  1  0  0  0
 23 20  1  6  0  0  0
 23 24  1  0  0  0  0
 23 28  1  0  0  0  0
 24 25  1  1  0  0  0
 24 26  1  0  0  0  0
 26 27  1  0  0  0  0
 26 32  1  1  0  0  0
 27 28  1  0  0  0  0
 27 29  1  6  0  0  0
 29 30  1  0  0  0  0
 31 32  1  1  0  0  0
 31 40  1  0  0  0  0
 33 31  1  0  0  0  0
 33 42  1  1  0  0  0
 35 33  1  0  0  0  0
 35 36  1  6  0  0  0
 37 35  1  0  0  0  0
 37 38  1  1  0  0  0
 37 39  1  0  0  0  0
 39 40  1  0  0  0  0
 39 41  1  1  0  0  0
 41 34  1  0  0  0  0
M  END
>  <CHROM.1>
-165.50977191,49.37561404,170.85312693,-82.41218550,120.70699890,-145.96497835
-72.24428498,-129.14143835,-178.92117971,1.65841854,94.41387835,14.13658048
-0.35650661,0.63326028,1.70717915

>  <Name>
2fcy_lig

>  <RI>
9.29634e+06

>  <Rbt.Current_Directory>
/home/itssahil/PROJECTS/Mol_Feturizer/New_Systems/rnas/2fcy

>  <Rbt.Executable>
rbdock ($Id: //depot/dev/client3/rdock/2013.1/src/exe/rbdock.cxx#4 $)

>  <Rbt.Library>
libRbt.so (2013.1, Build901 2013/11/27)

>  <Rbt.Parameter_File>
/export/apps/rDock/src/rDock_2013.1_src/data/scripts/dock_solv.prm

>  <Rbt.Receptor>
prm/blind_docking_100.prm

>  <SCORE>
11.3844

>  <SCORE.INTER>
-4.55319

>  <SCORE.INTER.CONST>
1

>  <SCORE.INTER.POLAR>
-0.299439

>  <SCORE.INTER.ROT>
9

>  <SCORE.INTER.SOLV>
28.0284

>  <SCORE.INTER.VDW>
-20.9801

>  <SCORE.INTER.norm>
-0.108409

>  <SCORE.INTRA>
8.53329

>  <SCORE.INTRA.DIHEDRAL>
5.58313

>  <SCORE.INTRA.DIHEDRAL.0>
17.3446

>  <SCORE.INTRA.POLAR>
0

>  <SCORE.INTRA.POLAR.0>
0

>  <SCORE.INTRA.REPUL>
0

>  <SCORE.INTRA.REPUL.0>
0

>  <SCORE.INTRA.SOLV>
-2.4924

>  <SCORE.INTRA.SOLV.lig_0>
-112.452

>  <SCORE.INTRA.VDW>
6.98793

>  <SCORE.INTRA.VDW.0>
-5.95059

>  <SCORE.INTRA.norm>
0.203174

>  <SCORE.RESTR>
7.4043

>  <SCORE.RESTR.CAVITY>
7.4043

>  <SCORE.RESTR.norm>
0.176293

>  <SCORE.SYSTEM>
0

>  <SCORE.SYSTEM.CONST>
0

>  <SCORE.SYSTEM.DIHEDRAL>
0

>  <SCORE.SYSTEM.SOLV>
0

>  <SCORE.SYSTEM.norm>
0

>  <SCORE.heavy>
42

>  <SCORE.norm>
0.271057

>  <RMSD>
7.616

$$$$
2fcy_lig
 OpenBabel11021811433D
libRbt.so/2013.1/901 2013/11/27
 42 45  0  0  0  0  0  0  0  0999 V2000
    1.7006   91.9322   16.1784 C   0  0  2  0  0  0  0  0  0  0  0  0
    1.9529   93.3084   15.8473 O   0  0  0  0  0  0  0  0  0  0  0  0
    1.7872   91.1722   14.8541 C   0  0  2  0  0  0  0  0  0  0  0  0
    3.0847   91.4617   14.2286 N   0  0  0  0  0  0  0  0  0  0  0  0
    0.6607   91.6319   13.9251 C   0  0  1  0  0  0  0  0  0  0  0  0
    0.7185   90.9309   12.6797 O   0  0  0  0  0  0  0  0  0  0  0  0
   -0.6869   91.3991   14.6088 C   0  0  2  0  0  0  0  0  0  0  0  0
   -1.7293   91.9167   13.7823 O   0  0  0  0  0  0  0  0  0  0  0  0
   -0.7061   92.1641   15.9331 C   0  0  2  0  0  0  0  0  0  0  0  0
    0.3922   91.7335   16.7521 O   0  0  0  0  0  0  0  0  0  0  0  0
   -2.0479   91.9304   16.6321 C   0  0  0  0  0  0  0  0  0  0  0  0
   -2.1756   90.5331   17.0724 N   0  0  0  0  0  0  0  0  0  0  0  0
    2.4212   96.3036   18.7553 C   0  0  2  0  0  0  0  0  0  0  0  0
    2.8283   97.2190   19.8319 N   0  0  0  0  0  0  0  0  0  0  0  0
    2.3457   94.8632   19.2657 C   0  0  0  0  0  0  0  0  0  0  0  0
    1.7916   93.9822   18.1414 C   0  0  2  0  0  0  0  0  0  0  0  0
    1.7920   92.5790   18.5794 N   0  0  0  0  0  0  0  0  0  0  0  0
    2.6282   94.0726   16.8619 C   0  0  2  0  0  0  0  0  0  0  0  0
    2.9543   95.4929   16.4137 C   0  0  2  0  0  0  0  0  0  0  0  0
    4.0308   95.3620   15.4713 O   0  0  0  0  0  0  0  0  0  0  0  0
    3.4080   96.3715   17.5871 C   0  0  1  0  0  0  0  0  0  0  0  0
    3.5183   97.7397   17.1860 O   0  0  0  0  0  0  0  0  0  0  0  0
    3.7326   95.7642   14.1246 C   0  0  1  0  0  0  0  0  0  0  0  0
    2.9484   94.6279   13.4662 C   0  0  2  0  0  0  0  0  0  0  0  0
    3.8566   93.6426   12.9681 O   0  0  0  0  0  0  0  0  0  0  0  0
    2.3474   95.4043   12.2981 C   0  0  1  0  0  0  0  0  0  0  0  0
    1.8727   96.6575   13.0166 C   0  0  2  0  0  0  0  0  0  0  0  0
    2.8509   96.9031   14.0480 O   0  0  0  0  0  0  0  0  0  0  0  0
    0.4787   96.4022   13.6012 C   0  0  0  0  0  0  0  0  0  0  0  0
   -0.0644   97.6066   14.1496 O   0  0  0  0  0  0  0  0  0  0  0  0
    4.0086   96.9655   11.7491 C   0  0  2  0  0  0  0  0  0  0  0  0
    3.3771   95.7382   11.3538 O   0  0  0  0  0  0  0  0  0  0  0  0
    3.3043   98.1455   11.0716 C   0  0  1  0  0  0  0  0  0  0  0  0
    7.8600   98.1546   10.0541 N   0  0  0  0  0  0  0  0  0  0  0  0
    4.0252   99.4577   11.3988 C   0  0  1  0  0  0  0  0  0  0  0  0
    3.8697   99.7771   12.7852 O   0  0  0  0  0  0  0  0  0  0  0  0
    5.5125   99.3312   11.0580 C   0  0  2  0  0  0  0  0  0  0  0  0
    5.6438   99.1725    9.6413 O   0  0  0  0  0  0  0  0  0  0  0  0
    6.1029   98.1151   11.7799 C   0  0  1  0  0  0  0  0  0  0  0  0
    5.3997   96.9222   11.3859 O   0  0  0  0  0  0  0  0  0  0  0  0
    7.5974   97.9570   11.4872 C   0  0  0  0  0  0  0  0  0  0  0  0
    3.3431   97.9449    9.6152 N   0  0  0  0  0  0  0  0  0  0  0  0
  1  2  1  6  0  0  0
  1  3  1  0  0  0  0
  1 10  1  0  0  0  0
  3  4  1  6  0  0  0
  3  5  1  0  0  0  0
  5  6  1  6  0  0  0
  5  7  1  0  0  0  0
  7  8  1  6  0  0  0
  7  9  1  0  0  0  0
  9 10  1  0  0  0  0
  9 11  1  1  0  0  0
 11 12  1  0  0  0  0
 13 14  1  1  0  0  0
 13 15  1  0  0  0  0
 13 21  1  0  0  0  0
 16 15  1  0  0  0  0
 16 17  1  1  0  0  0
 18  2  1  6  0  0  0
 18 16  1  0  0  0  0
 19 18  1  0  0  0  0
 19 20  1  6  0  0  0
 21 19  1  0  0  0  0
 21 22  1  6  0  0  0
 23 20  1  1  0  0  0
 23 24  1  0  0  0  0
 23 28  1  0  0  0  0
 24 25  1  6  0  0  0
 24 26  1  0  0  0  0
 26 27  1  0  0  0  0
 26 32  1  6  0  0  0
 27 28  1  0  0  0  0
 27 29  1  1  0  0  0
 29 30  1  0  0  0  0
 31 32  1  6  0  0  0
 31 40  1  0  0  0  0
 33 31  1  0  0  0  0
 33 42  1  6  0  0  0
 35 33  1  0  0  0  0
 35 36  1  1  0  0  0
 37 35  1  0  0  0  0
 37 38  1  6  0  0  0
 37 39  1  0  0  0  0
 39 40  1  0  0  0  0
 39 41  1  6  0  0  0
 41 34  1  0  0  0  0
M  END
>  <CHROM.1>
-147.43714978,67.80089860,-56.62940171,115.64036194,-78.92483659,-85.99382214
-173.27785229,-91.85491071,-44.26377658,2.58839658,95.21941458,14.29579177
2.67255856,0.94969370,1.41113836

>  <Name>
2fcy_lig

>  <RI>
9.29634e+06

>  <Rbt.Current_Directory>
/home/itssahil/PROJECTS/Mol_Feturizer/New_Systems/rnas/2fcy

>  <Rbt.Executable>
rbdock ($Id: //depot/dev/client3/rdock/2013.1/src/exe/rbdock.cxx#4 $)

>  <Rbt.Library>
libRbt.so (2013.1, Build901 2013/11/27)

>  <Rbt.Parameter_File>
/export/apps/rDock/src/rDock_2013.1_src/data/scripts/dock_solv.prm

>  <Rbt.Receptor>
prm/blind_docking_100.prm

>  <SCORE>
13.3503

>  <SCORE.INTER>
-10.2463

>  <SCORE.INTER.CONST>
1

>  <SCORE.INTER.POLAR>
-1.31832

>  <SCORE.INTER.ROT>
9

>  <SCORE.INTER.SOLV>
36.0788

>  <SCORE.INTER.VDW>
-24.0627

>  <SCORE.INTER.norm>
-0.243958

>  <SCORE.INTRA>
19.401

>  <SCORE.INTRA.DIHEDRAL>
3.8707

>  <SCORE.INTRA.DIHEDRAL.0>
17.3446

>  <SCORE.INTRA.POLAR>
0

>  <SCORE.INTRA.POLAR.0>
0

>  <SCORE.INTRA.REPUL>
0

>  <SCORE.INTRA.REPUL.0>
0

>  <SCORE.INTRA.SOLV>
4.17413

>  <SCORE.INTRA.SOLV.lig_0>
-112.452

>  <SCORE.INTRA.VDW>
15.3786

>  <SCORE.INTRA.VDW.0>
-5.95059

>  <SCORE.INTRA.norm>
0.461928

>  <SCORE.RESTR>
4.19558

>  <SCORE.RESTR.CAVITY>
4.19558

>  <SCORE.RESTR.norm>
0.0998948

>  <SCORE.SYSTEM>
0

>  <SCORE.SYSTEM.CONST>
0

>  <SCORE.SYSTEM.DIHEDRAL>
0

>  <SCORE.SYSTEM.SOLV>
0

>  <SCORE.SYSTEM.norm>
0

>  <SCORE.heavy>
42

>  <SCORE.norm>
0.317865

>  <RMSD>
7.621

$$$$
2fcy_lig
 OpenBabel11021811433D
libRbt.so/2013.1/901 2013/11/27
 42 45  0  0  0  0  0  0  0  0999 V2000
    4.0220   90.5240   16.7526 C   0  0  2  0  0  0  0  0  0  0  0  0
    2.7813   89.8544   16.4707 O   0  0  0  0  0  0  0  0  0  0  0  0
    4.7541   89.6230   17.7483 C   0  0  2  0  0  0  0  0  0  0  0  0
    4.8602   88.2748   17.1739 N   0  0  0  0  0  0  0  0  0  0  0  0
    3.9632   89.5576   19.0573 C   0  0  1  0  0  0  0  0  0  0  0  0
    4.6314   88.7227   20.0072 O   0  0  0  0  0  0  0  0  0  0  0  0
    3.7887   90.9704   19.6152 C   0  0  2  0  0  0  0  0  0  0  0  0
    2.9694   90.9171   20.7829 O   0  0  0  0  0  0  0  0  0  0  0  0
    3.0722   91.8275   18.5705 C   0  0  2  0  0  0  0  0  0  0  0  0
    3.8252   91.8231   17.3477 O   0  0  0  0  0  0  0  0  0  0  0  0
    2.9005   93.2482   19.1143 C   0  0  0  0  0  0  0  0  0  0  0  0
    2.2223   94.1088   18.1335 N   0  0  0  0  0  0  0  0  0  0  0  0
   -0.1801   91.1602   13.7927 C   0  0  2  0  0  0  0  0  0  0  0  0
   -1.2860   91.7977   13.0624 N   0  0  0  0  0  0  0  0  0  0  0  0
   -0.6698   90.5760   15.1193 C   0  0  0  0  0  0  0  0  0  0  0  0
    0.4906   89.8143   15.7678 C   0  0  2  0  0  0  0  0  0  0  0  0
    0.0691   89.3177   17.0856 N   0  0  0  0  0  0  0  0  0  0  0  0
    1.7257   90.6961   15.9739 C   0  0  2  0  0  0  0  0  0  0  0  0
    2.1410   91.5058   14.7506 C   0  0  2  0  0  0  0  0  0  0  0  0
    3.0299   92.5208   15.2441 O   0  0  0  0  0  0  0  0  0  0  0  0
    0.9365   92.1697   14.0701 C   0  0  1  0  0  0  0  0  0  0  0  0
    1.3161   92.7566   12.8225 O   0  0  0  0  0  0  0  0  0  0  0  0
    3.1882   93.6739   14.4017 C   0  0  1  0  0  0  0  0  0  0  0  0
    3.2175   94.9066   15.3069 C   0  0  2  0  0  0  0  0  0  0  0  0
    1.8807   95.3135   15.6086 O   0  0  0  0  0  0  0  0  0  0  0  0
    3.8447   95.8985   14.3317 C   0  0  1  0  0  0  0  0  0  0  0  0
    4.9726   95.0506   13.7652 C   0  0  2  0  0  0  0  0  0  0  0  0
    4.4511   93.7071   13.7057 O   0  0  0  0  0  0  0  0  0  0  0  0
    6.1889   95.1502   14.6930 C   0  0  0  0  0  0  0  0  0  0  0  0
    6.9454   93.9364   14.6617 O   0  0  0  0  0  0  0  0  0  0  0  0
    3.4387   97.2760   12.4780 C   0  0  2  0  0  0  0  0  0  0  0  0
    2.9045   96.2235   13.2954 O   0  0  0  0  0  0  0  0  0  0  0  0
    2.3921   97.7032   11.4439 C   0  0  1  0  0  0  0  0  0  0  0  0
    7.5362   97.1105   11.5569 N   0  0  0  0  0  0  0  0  0  0  0  0
    2.9765   98.7551   10.4950 C   0  0  1  0  0  0  0  0  0  0  0  0
    3.2149   99.9792   11.1971 O   0  0  0  0  0  0  0  0  0  0  0  0
    4.2853   98.2387    9.8911 C   0  0  2  0  0  0  0  0  0  0  0  0
    3.9909   97.1077    9.0642 O   0  0  0  0  0  0  0  0  0  0  0  0
    5.2441   97.8323   11.0153 C   0  0  1  0  0  0  0  0  0  0  0  0
    4.6379   96.8135   11.8322 O   0  0  0  0  0  0  0  0  0  0  0  0
    6.5793   97.3271   10.4618 C   0  0  0  0  0  0  0  0  0  0  0  0
    2.0047   96.5266   10.6511 N   0  0  0  0  0  0  0  0  0  0  0  0
  1  2  1  1  0  0  0
  1  3  1  0  0  0  0
  1 10  1  0  0  0  0
  3  4  1  6  0  0  0
  3  5  1  0  0  0  0
  5  6  1  1  0  0  0
  5  7  1  0  0  0  0
  7  8  1  1  0  0  0
  7  9  1  0  0  0  0
  9 10  1  0  0  0  0
  9 11  1  1  0  0  0
 11 12  1  0  0  0  0
 13 14  1  1  0  0  0
 13 15  1  0  0  0  0
 13 21  1  0  0  0  0
 16 15  1  0  0  0  0
 16 17  1  1  0  0  0
 18  2  1  6  0  0  0
 18 16  1  0  0  0  0
 19 18  1  0  0  0  0
 19 20  1  1  0  0  0
 21 19  1  0  0  0  0
 21 22  1  6  0  0  0
 23 20  1  1  0  0  0
 23 24  1  0  0  0  0
 23 28  1  0  0  0  0
 24 25  1  6  0  0  0
 24 26  1  0  0  0  0
 26 27  1  0  0  0  0
 26 32  1  6  0  0  0
 27 28  1  0  0  0  0
 27 29  1  1  0  0  0
 29 30  1  0  0  0  0
 31 32  1  6  0  0  0
 31 40  1  0  0  0  0
 33 31  1  0  0  0  0
 33 42  1  6  0  0  0
 35 33  1  0  0  0  0
 35 36  1  1  0  0  0
 37 35  1  0  0  0  0
 37 38  1  6  0  0  0
 37 39  1  0  0  0  0
 39 40  1  0  0  0  0
 39 41  1  6  0  0  0
 41 34  1  0  0  0  0
M  END
>  <CHROM.1>
157.84509890,179.60434292,-178.70222007,-158.99352571,139.53558505,172.99541920
149.03144200,-175.39203531,172.69982180,3.24110466,93.59045624,14.72491096
-1.72071110,-0.43266273,-0.81275269

>  <Name>
2fcy_lig

>  <RI>
9.29634e+06

>  <Rbt.Current_Directory>
/home/itssahil/PROJECTS/Mol_Feturizer/New_Systems/rnas/2fcy

>  <Rbt.Executable>
rbdock ($Id: //depot/dev/client3/rdock/2013.1/src/exe/rbdock.cxx#4 $)

>  <Rbt.Library>
libRbt.so (2013.1, Build901 2013/11/27)

>  <Rbt.Parameter_File>
/export/apps/rDock/src/rDock_2013.1_src/data/scripts/dock_solv.prm

>  <Rbt.Receptor>
prm/blind_docking_100.prm

>  <SCORE>
4.39606

>  <SCORE.INTER>
-5.21062

>  <SCORE.INTER.CONST>
1

>  <SCORE.INTER.POLAR>
-0.0439252

>  <SCORE.INTER.ROT>
9

>  <SCORE.INTER.SOLV>
25.1846

>  <SCORE.INTER.VDW>
-21.3222

>  <SCORE.INTER.norm>
-0.124062

>  <SCORE.INTRA>
4.2629

>  <SCORE.INTRA.DIHEDRAL>
-3.91209

>  <SCORE.INTRA.DIHEDRAL.0>
17.3446

>  <SCORE.INTRA.POLAR>
0

>  <SCORE.INTRA.POLAR.0>
0

>  <SCORE.INTRA.REPUL>
0

>  <SCORE.INTRA.REPUL.0>
0

>  <SCORE.INTRA.SOLV>
-0.447355

>  <SCORE.INTRA.SOLV.lig_0>
-112.452

>  <SCORE.INTRA.VDW>
6.44262

>  <SCORE.INTRA.VDW.0>
-5.95059

>  <SCORE.INTRA.norm>
0.101498

>  <SCORE.RESTR>
5.34379

>  <SCORE.RESTR.CAVITY>
5.34379

>  <SCORE.RESTR.norm>
0.127233

>  <SCORE.SYSTEM>
0

>  <SCORE.SYSTEM.CONST>
0

>  <SCORE.SYSTEM.DIHEDRAL>
0

>  <SCORE.SYSTEM.SOLV>
0

>  <SCORE.SYSTEM.norm>
0

>  <SCORE.heavy>
42

>  <SCORE.norm>
0.104668

>  <RMSD>
7.674

$$$$
2fcy_lig
 OpenBabel11021811433D
libRbt.so/2013.1/901 2013/11/27
 42 45  0  0  0  0  0  0  0  0999 V2000
   -1.1778   88.9217   10.5266 C   0  0  2  0  0  0  0  0  0  0  0  0
   -0.3277   90.0788   10.4526 O   0  0  0  0  0  0  0  0  0  0  0  0
   -0.5544   87.8969    9.5777 C   0  0  2  0  0  0  0  0  0  0  0  0
    0.8503   87.6956    9.9586 N   0  0  0  0  0  0  0  0  0  0  0  0
   -0.6218   88.4216    8.1412 C   0  0  1  0  0  0  0  0  0  0  0  0
   -0.0476   87.4771    7.2336 O   0  0  0  0  0  0  0  0  0  0  0  0
   -2.0788   88.7021    7.7719 C   0  0  2  0  0  0  0  0  0  0  0  0
   -2.1304   89.2815    6.4684 O   0  0  0  0  0  0  0  0  0  0  0  0
   -2.6527   89.7139    8.7649 C   0  0  2  0  0  0  0  0  0  0  0  0
   -2.5273   89.2001   10.1002 O   0  0  0  0  0  0  0  0  0  0  0  0
   -4.1153   89.9952    8.4110 C   0  0  0  0  0  0  0  0  0  0  0  0
   -4.9383   88.7877    8.5758 N   0  0  0  0  0  0  0  0  0  0  0  0
   -2.8693   92.3054   12.9485 C   0  0  2  0  0  0  0  0  0  0  0  0
   -3.5491   93.2752   13.8204 N   0  0  0  0  0  0  0  0  0  0  0  0
   -1.5208   91.8926   13.5419 C   0  0  0  0  0  0  0  0  0  0  0  0
   -0.9251   90.7889   12.6621 C   0  0  2  0  0  0  0  0  0  0  0  0
    0.4114   90.4371   13.1633 N   0  0  0  0  0  0  0  0  0  0  0  0
   -0.7770   91.2225   11.2008 C   0  0  2  0  0  0  0  0  0  0  0  0
   -2.0191   91.8714   10.6005 C   0  0  2  0  0  0  0  0  0  0  0  0
   -1.5683   92.5389    9.4108 O   0  0  0  0  0  0  0  0  0  0  0  0
   -2.6448   92.8973   11.5549 C   0  0  1  0  0  0  0  0  0  0  0  0
   -3.9093   93.3471   11.0612 O   0  0  0  0  0  0  0  0  0  0  0  0
   -0.6267   93.6051    9.6132 C   0  0  1  0  0  0  0  0  0  0  0  0
    0.2945   93.6454    8.3928 C   0  0  2  0  0  0  0  0  0  0  0  0
    1.3459   92.6899    8.5523 O   0  0  0  0  0  0  0  0  0  0  0  0
    0.8545   95.0539    8.5684 C   0  0  1  0  0  0  0  0  0  0  0  0
   -0.4216   95.8198    8.8799 C   0  0  2  0  0  0  0  0  0  0  0  0
   -1.2376   94.9112    9.6476 O   0  0  0  0  0  0  0  0  0  0  0  0
   -1.0982   96.2222    7.5644 C   0  0  0  0  0  0  0  0  0  0  0  0
   -2.2344   97.0536    7.8176 O   0  0  0  0  0  0  0  0  0  0  0  0
    2.0373   96.4537   10.0313 C   0  0  2  0  0  0  0  0  0  0  0  0
    1.7387   95.0890    9.7000 O   0  0  0  0  0  0  0  0  0  0  0  0
    3.4339   96.5356   10.6558 C   0  0  1  0  0  0  0  0  0  0  0  0
    0.5267  100.0059   12.9407 N   0  0  0  0  0  0  0  0  0  0  0  0
    3.7331   97.9682   11.1104 C   0  0  1  0  0  0  0  0  0  0  0  0
    3.8653   98.8314    9.9765 O   0  0  0  0  0  0  0  0  0  0  0  0
    2.6064   98.4703   12.0175 C   0  0  2  0  0  0  0  0  0  0  0  0
    2.6033   97.6877   13.2163 O   0  0  0  0  0  0  0  0  0  0  0  0
    1.2631   98.3285   11.2939 C   0  0  1  0  0  0  0  0  0  0  0  0
    1.0397   96.9508   10.9405 O   0  0  0  0  0  0  0  0  0  0  0  0
    0.1034   98.8381   12.1540 C   0  0  0  0  0  0  0  0  0  0  0  0
    3.4762   95.6561   11.8338 N   0  0  0  0  0  0  0  0  0  0  0  0
  1  2  1  6  0  0  0
  1  3  1  0  0  0  0
  1 10  1  0  0  0  0
  3  4  1  1  0  0  0
  3  5  1  0  0  0  0
  5  6  1  6  0  0  0
  5  7  1  0  0  0  0
  7  8  1  6  0  0  0
  7  9  1  0  0  0  0
  9 10  1  0  0  0  0
  9 11  1  6  0  0  0
 11 12  1  0  0  0  0
 13 14  1  1  0  0  0
 13 15  1  0  0  0  0
 13 21  1  0  0  0  0
 16 15  1  0  0  0  0
 16 17  1  1  0  0  0
 18  2  1  6  0  0  0
 18 16  1  0  0  0  0
 19 18  1  0  0  0  0
 19 20  1  6  0  0  0
 21 19  1  0  0  0  0
 21 22  1  6  0  0  0
 23 20  1  6  0  0  0
 23 24  1  0  0  0  0
 23 28  1  0  0  0  0
 24 25  1  1  0  0  0
 24 26  1  0  0  0  0
 26 27  1  0  0  0  0
 26 32  1  1  0  0  0
 27 28  1  0  0  0  0
 27 29  1  6  0  0  0
 29 30  1  0  0  0  0
 31 32  1  1  0  0  0
 31 40  1  0  0  0  0
 33 31  1  0  0  0  0
 33 42  1  1  0  0  0
 35 33  1  0  0  0  0
 35 36  1  6  0  0  0
 37 35  1  0  0  0  0
 37 38  1  1  0  0  0
 37 39  1  0  0  0  0
 39 40  1  0  0  0  0
 39 41  1  1  0  0  0
 41 34  1  0  0  0  0
M  END
>  <CHROM.1>
175.72195260,64.56829478,57.47204025,-63.30879524,148.31244332,-167.90891841
-174.50387317,-150.32632848,35.94119531,-0.39184655,93.26650721,10.23003759
2.12870156,-0.75076287,-2.52434330

>  <Name>
2fcy_lig

>  <RI>
224

>  <Rbt.Current_Directory>
/home/itssahil/PROJECTS/Mol_Feturizer/New_Systems/rnas/2fcy

>  <Rbt.Executable>
rbdock ($Id: //depot/dev/client3/rdock/2013.1/src/exe/rbdock.cxx#4 $)

>  <Rbt.Library>
libRbt.so (2013.1, Build901 2013/11/27)

>  <Rbt.Parameter_File>
/export/apps/rDock/src/rDock_2013.1_src/data/scripts/dock_solv.prm

>  <Rbt.Receptor>
prm/pocket_docking_6.prm

>  <SCORE>
-10.9616

>  <SCORE.INTER>
-11.3849

>  <SCORE.INTER.CONST>
1

>  <SCORE.INTER.POLAR>
-2.84812

>  <SCORE.INTER.ROT>
9

>  <SCORE.INTER.SOLV>
20.9686

>  <SCORE.INTER.VDW>
-14.6857

>  <SCORE.INTER.norm>
-0.271068

>  <SCORE.INTRA>
0.423256

>  <SCORE.INTRA.DIHEDRAL>
-6.49716

>  <SCORE.INTRA.DIHEDRAL.0>
17.3446

>  <SCORE.INTRA.POLAR>
0

>  <SCORE.INTRA.POLAR.0>
0

>  <SCORE.INTRA.REPUL>
0

>  <SCORE.INTRA.REPUL.0>
0

>  <SCORE.INTRA.SOLV>
-2.74471

>  <SCORE.INTRA.SOLV.lig_0>
-112.452

>  <SCORE.INTRA.VDW>
5.04419

>  <SCORE.INTRA.VDW.0>
-5.95059

>  <SCORE.INTRA.norm>
0.0100775

>  <SCORE.RESTR>
0

>  <SCORE.RESTR.CAVITY>
0

>  <SCORE.RESTR.norm>
0

>  <SCORE.SYSTEM>
0

>  <SCORE.SYSTEM.CONST>
0

>  <SCORE.SYSTEM.DIHEDRAL>
0

>  <SCORE.SYSTEM.SOLV>
0

>  <SCORE.SYSTEM.norm>
0

>  <SCORE.heavy>
42

>  <SCORE.norm>
-0.260991

>  <RMSD>
7.678

$$$$
2fcy_lig
 OpenBabel11021811433D
libRbt.so/2013.1/901 2013/11/27
 42 45  0  0  0  0  0  0  0  0999 V2000
   -2.3847   92.4806    9.2522 C   0  0  2  0  0  0  0  0  0  0  0  0
   -2.0957   92.3915   10.6578 O   0  0  0  0  0  0  0  0  0  0  0  0
   -1.6838   91.2796    8.6154 C   0  0  2  0  0  0  0  0  0  0  0  0
   -2.1341   90.0569    9.2942 N   0  0  0  0  0  0  0  0  0  0  0  0
   -0.1688   91.4242    8.7798 C   0  0  1  0  0  0  0  0  0  0  0  0
    0.5096   90.3131    8.1874 O   0  0  0  0  0  0  0  0  0  0  0  0
    0.2878   92.7348    8.1381 C   0  0  2  0  0  0  0  0  0  0  0  0
    1.6837   92.9141    8.3768 O   0  0  0  0  0  0  0  0  0  0  0  0
   -0.4602   93.8937    8.7989 C   0  0  2  0  0  0  0  0  0  0  0  0
   -1.8754   93.6931    8.6597 O   0  0  0  0  0  0  0  0  0  0  0  0
   -0.0182   95.2115    8.1571 C   0  0  0  0  0  0  0  0  0  0  0  0
    1.3926   95.4966    8.4587 N   0  0  0  0  0  0  0  0  0  0  0  0
   -4.5393   93.6020   13.8531 C   0  0  2  0  0  0  0  0  0  0  0  0
   -5.3231   94.2879   14.8915 N   0  0  0  0  0  0  0  0  0  0  0  0
   -3.0639   93.9988   13.9344 C   0  0  0  0  0  0  0  0  0  0  0  0
   -2.2821   93.1567   12.9211 C   0  0  2  0  0  0  0  0  0  0  0  0
   -0.8750   93.5821   12.9194 N   0  0  0  0  0  0  0  0  0  0  0  0
   -2.8188   93.3111   11.4951 C   0  0  2  0  0  0  0  0  0  0  0  0
   -4.3309   93.1659   11.3650 C   0  0  2  0  0  0  0  0  0  0  0  0
   -4.6617   93.7176   10.0803 O   0  0  0  0  0  0  0  0  0  0  0  0
   -5.0749   93.9418   12.4600 C   0  0  1  0  0  0  0  0  0  0  0  0
   -6.4717   93.6360   12.4412 O   0  0  0  0  0  0  0  0  0  0  0  0
   -6.0272   93.5535    9.6645 C   0  0  1  0  0  0  0  0  0  0  0  0
   -6.1817   94.2392    8.3060 C   0  0  2  0  0  0  0  0  0  0  0  0
   -6.4103   95.6375    8.4963 O   0  0  0  0  0  0  0  0  0  0  0  0
   -7.4745   93.5685    7.8508 C   0  0  1  0  0  0  0  0  0  0  0  0
   -7.1739   92.1216    8.2088 C   0  0  2  0  0  0  0  0  0  0  0  0
   -6.3910   92.1796    9.4189 O   0  0  0  0  0  0  0  0  0  0  0  0
   -6.3978   91.4714    7.0575 C   0  0  0  0  0  0  0  0  0  0  0  0
   -6.2145   90.0738    7.3014 O   0  0  0  0  0  0  0  0  0  0  0  0
   -9.0686   95.2745    8.0674 C   0  0  2  0  0  0  0  0  0  0  0  0
   -8.5764   94.0514    8.6358 O   0  0  0  0  0  0  0  0  0  0  0  0
  -10.0835   95.9112    9.0222 C   0  0  1  0  0  0  0  0  0  0  0  0
   -9.6095   95.1980    3.9628 N   0  0  0  0  0  0  0  0  0  0  0  0
  -10.6978   97.1652    8.3907 C   0  0  1  0  0  0  0  0  0  0  0  0
   -9.7124   98.1968    8.2761 O   0  0  0  0  0  0  0  0  0  0  0  0
  -11.2598   96.8269    7.0072 C   0  0  2  0  0  0  0  0  0  0  0  0
  -12.3505   95.9139    7.1690 O   0  0  0  0  0  0  0  0  0  0  0  0
  -10.1623   96.1879    6.1496 C   0  0  1  0  0  0  0  0  0  0  0  0
   -9.6706   94.9964    6.7910 O   0  0  0  0  0  0  0  0  0  0  0  0
  -10.6702   95.8493    4.7455 C   0  0  0  0  0  0  0  0  0  0  0  0
  -11.1617   94.9442    9.2779 N   0  0  0  0  0  0  0  0  0  0  0  0
  1  2  1  1  0  0  0
  1  3  1  0  0  0  0
  1 10  1  0  0  0  0
  3  4  1  1  0  0  0
  3  5  1  0  0  0  0
  5  6  1  6  0  0  0
  5  7  1  0  0  0  0
  7  8  1  1  0  0  0
  7  9  1  0  0  0  0
  9 10  1  0  0  0  0
  9 11  1  6  0  0  0
 11 12  1  0  0  0  0
 13 14  1  1  0  0  0
 13 15  1  0  0  0  0
 13 21  1  0  0  0  0
 16 15  1  0  0  0  0
 16 17  1  6  0  0  0
 18  2  1  6  0  0  0
 18 16  1  0  0  0  0
 19 18  1  0  0  0  0
 19 20  1  6  0  0  0
 21 19  1  0  0  0  0
 21 22  1  1  0  0  0
 23 20  1  6  0  0  0
 23 24  1  0  0  0  0
 23 28  1  0  0  0  0
 24 25  1  1  0  0  0
 24 26  1  0  0  0  0
 26 27  1  0  0  0  0
 26 32  1  1  0  0  0
 27 28  1  0  0  0  0
 27 29  1  6  0  0  0
 29 30  1  0  0  0  0
 31 32  1  1  0  0  0
 31 40  1  0  0  0  0
 33 31  1  0  0  0  0
 33 42  1  6  0  0  0
 35 33  1  0  0  0  0
 35 36  1  6  0  0  0
 37 35  1  0  0  0  0
 37 38  1  1  0  0  0
 37 39  1  0  0  0  0
 39 40  1  0  0  0  0
 39 41  1  6  0  0  0
 41 34  1  0  0  0  0
M  END
>  <CHROM.1>
-171.12648585,-66.48284928,-174.69828991,173.15073945,178.32292196,84.90305591
-174.20867836,-170.74669949,-178.12113570,-5.28808874,93.83990636,9.15661200
-0.23447543,0.32447033,-1.66419298

>  <Name>
2fcy_lig

>  <RI>
2.32494e+07

>  <Rbt.Current_Directory>
/home/itssahil/PROJECTS/Mol_Feturizer/New_Systems/rnas/2fcy

>  <Rbt.Executable>
rbdock ($Id: //depot/dev/client3/rdock/2013.1/src/exe/rbdock.cxx#4 $)

>  <Rbt.Library>
libRbt.so (2013.1, Build901 2013/11/27)

>  <Rbt.Parameter_File>
/export/apps/rDock/src/rDock_2013.1_src/data/scripts/dock_solv.prm

>  <Rbt.Receptor>
prm/pocket_docking_8.prm

>  <SCORE>
-10.3277

>  <SCORE.INTER>
-4.93683

>  <SCORE.INTER.CONST>
1

>  <SCORE.INTER.POLAR>
-2.45373

>  <SCORE.INTER.ROT>
9

>  <SCORE.INTER.SOLV>
12.4047

>  <SCORE.INTER.VDW>
-8.84702

>  <SCORE.INTER.norm>
-0.117544

>  <SCORE.INTRA>
-5.4055

>  <SCORE.INTRA.DIHEDRAL>
-12.8405

>  <SCORE.INTRA.DIHEDRAL.0>
17.3446

>  <SCORE.INTRA.POLAR>
0

>  <SCORE.INTRA.POLAR.0>
0

>  <SCORE.INTRA.REPUL>
0

>  <SCORE.INTRA.REPUL.0>
0

>  <SCORE.INTRA.SOLV>
-4.74284

>  <SCORE.INTRA.SOLV.lig_0>
-112.452

>  <SCORE.INTRA.VDW>
3.38618

>  <SCORE.INTRA.VDW.0>
-5.95059

>  <SCORE.INTRA.norm>
-0.128702

>  <SCORE.RESTR>
0.0146541

>  <SCORE.RESTR.CAVITY>
0.0146541

>  <SCORE.RESTR.norm>
0.000348907

>  <SCORE.SYSTEM>
0

>  <SCORE.SYSTEM.CONST>
0

>  <SCORE.SYSTEM.DIHEDRAL>
0

>  <SCORE.SYSTEM.SOLV>
0

>  <SCORE.SYSTEM.norm>
0

>  <SCORE.heavy>
42

>  <SCORE.norm>
-0.245897

>  <RMSD>
7.691

$$$$
2fcy_lig
 OpenBabel11021811433D
libRbt.so/2013.1/901 2013/11/27
 42 45  0  0  0  0  0  0  0  0999 V2000
    1.1299   92.3922   16.3733 C   0  0  2  0  0  0  0  0  0  0  0  0
    0.8871   93.1175   17.5908 O   0  0  0  0  0  0  0  0  0  0  0  0
    0.0185   91.3444   16.2948 C   0  0  2  0  0  0  0  0  0  0  0  0
   -1.2793   92.0257   16.3964 N   0  0  0  0  0  0  0  0  0  0  0  0
    0.1653   90.3543   17.4529 C   0  0  1  0  0  0  0  0  0  0  0  0
   -0.8621   89.3607   17.3982 O   0  0  0  0  0  0  0  0  0  0  0  0
    1.5462   89.7010   17.3892 C   0  0  2  0  0  0  0  0  0  0  0  0
    1.7174   88.8513   18.5234 O   0  0  0  0  0  0  0  0  0  0  0  0
    2.6125   90.7958   17.4502 C   0  0  2  0  0  0  0  0  0  0  0  0
    2.4086   91.7248   16.3742 O   0  0  0  0  0  0  0  0  0  0  0  0
    4.0004   90.1539   17.3771 C   0  0  0  0  0  0  0  0  0  0  0  0
    4.3793   89.5705   18.6728 N   0  0  0  0  0  0  0  0  0  0  0  0
    2.7491   96.6076   19.0044 C   0  0  2  0  0  0  0  0  0  0  0  0
    3.6280   97.6628   19.5307 N   0  0  0  0  0  0  0  0  0  0  0  0
    2.6517   95.4400   19.9884 C   0  0  0  0  0  0  0  0  0  0  0  0
    1.6249   94.4394   19.4485 C   0  0  2  0  0  0  0  0  0  0  0  0
    1.5782   93.2666   20.3335 N   0  0  0  0  0  0  0  0  0  0  0  0
    1.9721   93.9485   18.0400 C   0  0  2  0  0  0  0  0  0  0  0  0
    2.3206   95.0532   17.0488 C   0  0  2  0  0  0  0  0  0  0  0  0
    2.9754   94.3948   15.9525 O   0  0  0  0  0  0  0  0  0  0  0  0
    3.2709   96.0906   17.6615 C   0  0  1  0  0  0  0  0  0  0  0  0
    3.4281   97.2141   16.7909 O   0  0  0  0  0  0  0  0  0  0  0  0
    2.9964   95.1202   14.7125 C   0  0  1  0  0  0  0  0  0  0  0  0
    4.2353   94.6713   13.9358 C   0  0  2  0  0  0  0  0  0  0  0  0
    5.3761   95.4076   14.3830 O   0  0  0  0  0  0  0  0  0  0  0  0
    3.8288   95.1547   12.5467 C   0  0  1  0  0  0  0  0  0  0  0  0
    2.3896   94.6665   12.4965 C   0  0  2  0  0  0  0  0  0  0  0  0
    1.8904   94.8022   13.8430 O   0  0  0  0  0  0  0  0  0  0  0  0
    2.3714   93.2078   12.0253 C   0  0  0  0  0  0  0  0  0  0  0  0
    1.0465   92.6732   12.0970 O   0  0  0  0  0  0  0  0  0  0  0  0
    4.9296   97.0147   11.6374 C   0  0  2  0  0  0  0  0  0  0  0  0
    3.8640   96.5900   12.5009 O   0  0  0  0  0  0  0  0  0  0  0  0
    6.2668   96.8913   12.3747 C   0  0  1  0  0  0  0  0  0  0  0  0
    5.4617  101.2355   10.9148 N   0  0  0  0  0  0  0  0  0  0  0  0
    7.4075   97.4350   11.5078 C   0  0  1  0  0  0  0  0  0  0  0  0
    7.6162   96.5877   10.3735 O   0  0  0  0  0  0  0  0  0  0  0  0
    7.0732   98.8547   11.0418 C   0  0  2  0  0  0  0  0  0  0  0  0
    7.0293   99.7121   12.1874 O   0  0  0  0  0  0  0  0  0  0  0  0
    5.7149   98.8555   10.3323 C   0  0  1  0  0  0  0  0  0  0  0  0
    4.6947   98.3730   11.2263 O   0  0  0  0  0  0  0  0  0  0  0  0
    5.3439  100.2527    9.8276 C   0  0  0  0  0  0  0  0  0  0  0  0
    6.2004   97.6888   13.6087 N   0  0  0  0  0  0  0  0  0  0  0  0
  1  2  1  1  0  0  0
  1  3  1  0  0  0  0
  1 10  1  0  0  0  0
  3  4  1  1  0  0  0
  3  5  1  0  0  0  0
  5  6  1  6  0  0  0
  5  7  1  0  0  0  0
  7  8  1  1  0  0  0
  7  9  1  0  0  0  0
  9 10  1  0  0  0  0
  9 11  1  6  0  0  0
 11 12  1  0  0  0  0
 13 14  1  1  0  0  0
 13 15  1  0  0  0  0
 13 21  1  0  0  0  0
 16 15  1  0  0  0  0
 16 17  1  1  0  0  0
 18  2  1  6  0  0  0
 18 16  1  0  0  0  0
 19 18  1  0  0  0  0
 19 20  1  6  0  0  0
 21 19  1  0  0  0  0
 21 22  1  6  0  0  0
 23 20  1  1  0  0  0
 23 24  1  0  0  0  0
 23 28  1  0  0  0  0
 24 25  1  1  0  0  0
 24 26  1  0  0  0  0
 26 27  1  0  0  0  0
 26 32  1  1  0  0  0
 27 28  1  0  0  0  0
 27 29  1  1  0  0  0
 29 30  1  0  0  0  0
 31 32  1  1  0  0  0
 31 40  1  0  0  0  0
 33 31  1  0  0  0  0
 33 42  1  1  0  0  0
 35 33  1  0  0  0  0
 35 36  1  6  0  0  0
 37 35  1  0  0  0  0
 37 38  1  1  0  0  0
 37 39  1  0  0  0  0
 39 40  1  0  0  0  0
 39 41  1  1  0  0  0
 41 34  1  0  0  0  0
M  END
>  <CHROM.1>
166.17524104,-77.73382985,-170.45796210,159.67618700,152.24528640,111.88158842
174.08271064,-77.92385701,-51.70141925,3.29941264,94.72286845,15.08753424
2.79449253,1.09911006,1.20938318

>  <Name>
2fcy_lig

>  <RI>
9.29634e+06

>  <Rbt.Current_Directory>
/home/itssahil/PROJECTS/Mol_Feturizer/New_Systems/rnas/2fcy

>  <Rbt.Executable>
rbdock ($Id: //depot/dev/client3/rdock/2013.1/src/exe/rbdock.cxx#4 $)

>  <Rbt.Library>
libRbt.so (2013.1, Build901 2013/11/27)

>  <Rbt.Parameter_File>
/export/apps/rDock/src/rDock_2013.1_src/data/scripts/dock_solv.prm

>  <Rbt.Receptor>
prm/blind_docking_100.prm

>  <SCORE>
-1.41552

>  <SCORE.INTER>
-11.9223

>  <SCORE.INTER.CONST>
1

>  <SCORE.INTER.POLAR>
-0.49862

>  <SCORE.INTER.ROT>
9

>  <SCORE.INTER.SOLV>
19.623

>  <SCORE.INTER.VDW>
-22.4272

>  <SCORE.INTER.norm>
-0.283865

>  <SCORE.INTRA>
2.44742

>  <SCORE.INTRA.DIHEDRAL>
-1.28726

>  <SCORE.INTRA.DIHEDRAL.0>
17.3446

>  <SCORE.INTRA.POLAR>
0

>  <SCORE.INTRA.POLAR.0>
0

>  <SCORE.INTRA.REPUL>
0.0142097

>  <SCORE.INTRA.REPUL.0>
0

>  <SCORE.INTRA.SOLV>
-0.535567

>  <SCORE.INTRA.SOLV.lig_0>
-112.452

>  <SCORE.INTRA.VDW>
3.28778

>  <SCORE.INTRA.VDW.0>
-5.95059

>  <SCORE.INTRA.norm>
0.0582718

>  <SCORE.RESTR>
8.05938

>  <SCORE.RESTR.CAVITY>
8.05938

>  <SCORE.RESTR.norm>
0.19189

>  <SCORE.SYSTEM>
0

>  <SCORE.SYSTEM.CONST>
0

>  <SCORE.SYSTEM.DIHEDRAL>
0

>  <SCORE.SYSTEM.SOLV>
0

>  <SCORE.SYSTEM.norm>
0

>  <SCORE.heavy>
42

>  <SCORE.norm>
-0.0337029

>  <RMSD>
7.723

$$$$
2fcy_lig
 OpenBabel11021811433D
libRbt.so/2013.1/901 2013/11/27
 42 45  0  0  0  0  0  0  0  0999 V2000
    3.6418   90.7442   16.7150 C   0  0  2  0  0  0  0  0  0  0  0  0
    2.3944   90.0331   16.6402 O   0  0  0  0  0  0  0  0  0  0  0  0
    4.5942   89.8174   17.4721 C   0  0  2  0  0  0  0  0  0  0  0  0
    4.6285   88.5171   16.7890 N   0  0  0  0  0  0  0  0  0  0  0  0
    4.0913   89.6261   18.9052 C   0  0  1  0  0  0  0  0  0  0  0  0
    4.9694   88.7652   19.6355 O   0  0  0  0  0  0  0  0  0  0  0  0
    3.9843   90.9886   19.5909 C   0  0  2  0  0  0  0  0  0  0  0  0
    3.4243   90.8173   20.8927 O   0  0  0  0  0  0  0  0  0  0  0  0
    3.0387   91.8756   18.7796 C   0  0  2  0  0  0  0  0  0  0  0  0
    3.5248   91.9896   17.4330 O   0  0  0  0  0  0  0  0  0  0  0  0
    2.9315   93.2470   19.4515 C   0  0  0  0  0  0  0  0  0  0  0  0
    2.1380   94.1743   18.6311 N   0  0  0  0  0  0  0  0  0  0  0  0
   -1.0932   91.3995   14.7387 C   0  0  2  0  0  0  0  0  0  0  0  0
   -2.3475   92.0346   14.3068 N   0  0  0  0  0  0  0  0  0  0  0  0
   -1.2834   90.6704   16.0703 C   0  0  0  0  0  0  0  0  0  0  0  0
    0.0127   89.9226   16.3993 C   0  0  2  0  0  0  0  0  0  0  0  0
   -0.1160   89.2853   17.7177 N   0  0  0  0  0  0  0  0  0  0  0  0
    1.2283   90.8529   16.4465 C   0  0  2  0  0  0  0  0  0  0  0  0
    1.3573   91.7926   15.2529 C   0  0  2  0  0  0  0  0  0  0  0  0
    2.2865   92.8092   15.6616 O   0  0  0  0  0  0  0  0  0  0  0  0
    0.0156   92.4436   14.8915 C   0  0  1  0  0  0  0  0  0  0  0  0
    0.1138   93.1619   13.6588 O   0  0  0  0  0  0  0  0  0  0  0  0
    2.6040   93.7988   14.6695 C   0  0  1  0  0  0  0  0  0  0  0  0
    3.0320   95.0696   15.4052 C   0  0  2  0  0  0  0  0  0  0  0  0
    1.8750   95.8208   15.7805 O   0  0  0  0  0  0  0  0  0  0  0  0
    3.7477   95.7752   14.2570 C   0  0  1  0  0  0  0  0  0  0  0  0
    4.5676   94.6241   13.6959 C   0  0  2  0  0  0  0  0  0  0  0  0
    3.7436   93.4511   13.8566 O   0  0  0  0  0  0  0  0  0  0  0  0
    5.8788   94.5128   14.4824 C   0  0  0  0  0  0  0  0  0  0  0  0
    6.6108   95.7400   14.4151 O   0  0  0  0  0  0  0  0  0  0  0  0
    3.3656   97.2601   12.4828 C   0  0  2  0  0  0  0  0  0  0  0  0
    2.7885   96.2173   13.2834 O   0  0  0  0  0  0  0  0  0  0  0  0
    2.3497   97.7221   11.4333 C   0  0  1  0  0  0  0  0  0  0  0  0
    7.5162   97.1122   11.6171 N   0  0  0  0  0  0  0  0  0  0  0  0
    2.9793   98.7637   10.5021 C   0  0  1  0  0  0  0  0  0  0  0  0
    3.2381   99.9764   11.2167 O   0  0  0  0  0  0  0  0  0  0  0  0
    4.2842   98.2157    9.9180 C   0  0  2  0  0  0  0  0  0  0  0  0
    3.9741   97.0985    9.0783 O   0  0  0  0  0  0  0  0  0  0  0  0
    5.2114   97.7763   11.0562 C   0  0  1  0  0  0  0  0  0  0  0  0
    4.5632   96.7692   11.8552 O   0  0  0  0  0  0  0  0  0  0  0  0
    6.5420   97.2384   10.5230 C   0  0  0  0  0  0  0  0  0  0  0  0
    1.9448   96.5615   10.6257 N   0  0  0  0  0  0  0  0  0  0  0  0
  1  2  1  1  0  0  0
  1  3  1  0  0  0  0
  1 10  1  0  0  0  0
  3  4  1  6  0  0  0
  3  5  1  0  0  0  0
  5  6  1  1  0  0  0
  5  7  1  0  0  0  0
  7  8  1  1  0  0  0
  7  9  1  0  0  0  0
  9 10  1  0  0  0  0
  9 11  1  1  0  0  0
 11 12  1  0  0  0  0
 13 14  1  1  0  0  0
 13 15  1  0  0  0  0
 13 21  1  0  0  0  0
 16 15  1  0  0  0  0
 16 17  1  1  0  0  0
 18  2  1  6  0  0  0
 18 16  1  0  0  0  0
 19 18  1  0  0  0  0
 19 20  1  1  0  0  0
 21 19  1  0  0  0  0
 21 22  1  6  0  0  0
 23 20  1  1  0  0  0
 23 24  1  0  0  0  0
 23 28  1  0  0  0  0
 24 25  1  6  0  0  0
 24 26  1  0  0  0  0
 26 27  1  0  0  0  0
 26 32  1  6  0  0  0
 27 28  1  0  0  0  0
 27 29  1  1  0  0  0
 29 30  1  0  0  0  0
 31 32  1  6  0  0  0
 31 40  1  0  0  0  0
 33 31  1  0  0  0  0
 33 42  1  6  0  0  0
 35 33  1  0  0  0  0
 35 36  1  1  0  0  0
 37 35  1  0  0  0  0
 37 38  1  6  0  0  0
 37 39  1  0  0  0  0
 39 40  1  0  0  0  0
 39 41  1  6  0  0  0
 41 34  1  0  0  0  0
M  END
>  <CHROM.1>
157.15560966,174.32739167,-179.77167298,178.03736295,154.42529268,159.52646426
-57.84636710,179.36458955,167.22706252,2.98299496,93.69645536,14.91006816
-1.75701467,-0.27446769,-0.81054232

>  <Name>
2fcy_lig

>  <RI>
9.29634e+06

>  <Rbt.Current_Directory>
/home/itssahil/PROJECTS/Mol_Feturizer/New_Systems/rnas/2fcy

>  <Rbt.Executable>
rbdock ($Id: //depot/dev/client3/rdock/2013.1/src/exe/rbdock.cxx#4 $)

>  <Rbt.Library>
libRbt.so (2013.1, Build901 2013/11/27)

>  <Rbt.Parameter_File>
/export/apps/rDock/src/rDock_2013.1_src/data/scripts/dock_solv.prm

>  <Rbt.Receptor>
prm/blind_docking_100.prm

>  <SCORE>
-4.59982

>  <SCORE.INTER>
-9.13956

>  <SCORE.INTER.CONST>
1

>  <SCORE.INTER.POLAR>
-0.0409568

>  <SCORE.INTER.ROT>
9

>  <SCORE.INTER.SOLV>
24.3225

>  <SCORE.INTER.VDW>
-23.664

>  <SCORE.INTER.norm>
-0.217608

>  <SCORE.INTRA>
-0.649098

>  <SCORE.INTRA.DIHEDRAL>
-9.26419

>  <SCORE.INTRA.DIHEDRAL.0>
17.3446

>  <SCORE.INTRA.POLAR>
0

>  <SCORE.INTRA.POLAR.0>
0

>  <SCORE.INTRA.REPUL>
0.000563634

>  <SCORE.INTRA.REPUL.0>
0

>  <SCORE.INTRA.SOLV>
-0.760838

>  <SCORE.INTRA.SOLV.lig_0>
-112.452

>  <SCORE.INTRA.VDW>
4.3606

>  <SCORE.INTRA.VDW.0>
-5.95059

>  <SCORE.INTRA.norm>
-0.0154547

>  <SCORE.RESTR>
5.18883

>  <SCORE.RESTR.CAVITY>
5.18883

>  <SCORE.RESTR.norm>
0.123544

>  <SCORE.SYSTEM>
0

>  <SCORE.SYSTEM.CONST>
0

>  <SCORE.SYSTEM.DIHEDRAL>
0

>  <SCORE.SYSTEM.SOLV>
0

>  <SCORE.SYSTEM.norm>
0

>  <SCORE.heavy>
42

>  <SCORE.norm>
-0.10952

>  <RMSD>
7.725

$$$$
2fcy_lig
 OpenBabel11021811433D
libRbt.so/2013.1/901 2013/11/27
 42 45  0  0  0  0  0  0  0  0999 V2000
   -1.6292   93.9670    8.6962 C   0  0  2  0  0  0  0  0  0  0  0  0
   -1.0033   93.0091    7.8257 O   0  0  0  0  0  0  0  0  0  0  0  0
   -1.2067   95.3374    8.1648 C   0  0  2  0  0  0  0  0  0  0  0  0
   -1.5650   95.4220    6.7424 N   0  0  0  0  0  0  0  0  0  0  0  0
    0.3074   95.5019    8.3187 C   0  0  1  0  0  0  0  0  0  0  0  0
    0.7263   96.7798    7.8317 O   0  0  0  0  0  0  0  0  0  0  0  0
    0.6878   95.3386    9.7906 C   0  0  2  0  0  0  0  0  0  0  0  0
    2.1084   95.3960    9.9183 O   0  0  0  0  0  0  0  0  0  0  0  0
    0.2226   93.9628   10.2699 C   0  0  2  0  0  0  0  0  0  0  0  0
   -1.1931   93.8364   10.0649 O   0  0  0  0  0  0  0  0  0  0  0  0
    0.5895   93.7915   11.7464 C   0  0  0  0  0  0  0  0  0  0  0  0
    0.1463   92.4831   12.2504 N   0  0  0  0  0  0  0  0  0  0  0  0
   -1.8775   89.0038    6.9094 C   0  0  2  0  0  0  0  0  0  0  0  0
   -2.1623   87.5615    6.8682 N   0  0  0  0  0  0  0  0  0  0  0  0
   -0.5248   89.2723    7.5717 C   0  0  0  0  0  0  0  0  0  0  0  0
   -0.2256   90.7711    7.4657 C   0  0  2  0  0  0  0  0  0  0  0  0
    1.0289   91.0669    8.1726 N   0  0  0  0  0  0  0  0  0  0  0  0
   -1.3276   91.6325    8.0892 C   0  0  2  0  0  0  0  0  0  0  0  0
   -2.7431   91.2653    7.6579 C   0  0  2  0  0  0  0  0  0  0  0  0
   -3.6123   91.8924    8.6147 O   0  0  0  0  0  0  0  0  0  0  0  0
   -2.9708   89.7480    7.6800 C   0  0  1  0  0  0  0  0  0  0  0  0
   -4.2290   89.4131    7.0884 O   0  0  0  0  0  0  0  0  0  0  0  0
   -4.9711   92.0857    8.1896 C   0  0  1  0  0  0  0  0  0  0  0  0
   -5.7640   92.5946    9.3945 C   0  0  2  0  0  0  0  0  0  0  0  0
   -6.1762   91.4885   10.2008 O   0  0  0  0  0  0  0  0  0  0  0  0
   -6.9713   93.1655    8.6563 C   0  0  1  0  0  0  0  0  0  0  0  0
   -6.2756   93.9160    7.5315 C   0  0  2  0  0  0  0  0  0  0  0  0
   -5.1197   93.1209    7.1963 O   0  0  0  0  0  0  0  0  0  0  0  0
   -5.8834   95.3122    8.0284 C   0  0  0  0  0  0  0  0  0  0  0  0
   -7.0448   96.0523    8.4156 O   0  0  0  0  0  0  0  0  0  0  0  0
   -9.0582   92.5965    7.7509 C   0  0  2  0  0  0  0  0  0  0  0  0
   -7.7638   92.0952    8.1178 O   0  0  0  0  0  0  0  0  0  0  0  0
   -9.9554   91.4319    7.3199 C   0  0  1  0  0  0  0  0  0  0  0  0
   -9.1112   96.2898    5.8145 N   0  0  0  0  0  0  0  0  0  0  0  0
  -11.3093   91.9542    6.8271 C   0  0  1  0  0  0  0  0  0  0  0  0
  -12.0521   92.5123    7.9157 O   0  0  0  0  0  0  0  0  0  0  0  0
  -11.0929   93.0169    5.7463 C   0  0  2  0  0  0  0  0  0  0  0  0
  -10.4927   92.3923    4.6065 O   0  0  0  0  0  0  0  0  0  0  0  0
  -10.1747   94.1185    6.2862 C   0  0  1  0  0  0  0  0  0  0  0  0
   -8.9127   93.5525    6.6861 O   0  0  0  0  0  0  0  0  0  0  0  0
   -9.9437   95.2189    5.2469 C   0  0  0  0  0  0  0  0  0  0  0  0
   -9.3020   90.7179    6.2125 N   0  0  0  0  0  0  0  0  0  0  0  0
  1  2  1  6  0  0  0
  1  3  1  0  0  0  0
  1 10  1  0  0  0  0
  3  4  1  6  0  0  0
  3  5  1  0  0  0  0
  5  6  1  1  0  0  0
  5  7  1  0  0  0  0
  7  8  1  6  0  0  0
  7  9  1  0  0  0  0
  9 10  1  0  0  0  0
  9 11  1  1  0  0  0
 11 12  1  0  0  0  0
 13 14  1  1  0  0  0
 13 15  1  0  0  0  0
 13 21  1  0  0  0  0
 16 15  1  0  0  0  0
 16 17  1  1  0  0  0
 18  2  1  6  0  0  0
 18 16  1  0  0  0  0
 19 18  1  0  0  0  0
 19 20  1  1  0  0  0
 21 19  1  0  0  0  0
 21 22  1  6  0  0  0
 23 20  1  1  0  0  0
 23 24  1  0  0  0  0
 23 28  1  0  0  0  0
 24 25  1  1  0  0  0
 24 26  1  0  0  0  0
 26 27  1  0  0  0  0
 26 32  1  6  0  0  0
 27 28  1  0  0  0  0
 27 29  1  1  0  0  0
 29 30  1  0  0  0  0
 31 32  1  6  0  0  0
 31 40  1  0  0  0  0
 33 31  1  0  0  0  0
 33 42  1  6  0  0  0
 35 33  1  0  0  0  0
 35 36  1  1  0  0  0
 37 35  1  0  0  0  0
 37 38  1  6  0  0  0
 37 39  1  0  0  0  0
 39 40  1  0  0  0  0
 39 41  1  6  0  0  0
 41 34  1  0  0  0  0
M  END
>  <CHROM.1>
-176.44226107,179.43875785,-159.20415907,159.48949170,172.95420759,164.46090884
-60.84307785,-173.88391423,177.39373422,-4.49193362,92.87870970,7.95387744
0.05290622,-0.23100562,0.11774526

>  <Name>
2fcy_lig

>  <RI>
2.89127e+07

>  <Rbt.Current_Directory>
/home/itssahil/PROJECTS/Mol_Feturizer/New_Systems/rnas/2fcy

>  <Rbt.Executable>
rbdock ($Id: //depot/dev/client3/rdock/2013.1/src/exe/rbdock.cxx#4 $)

>  <Rbt.Library>
libRbt.so (2013.1, Build901 2013/11/27)

>  <Rbt.Parameter_File>
/export/apps/rDock/src/rDock_2013.1_src/data/scripts/dock_solv.prm

>  <Rbt.Receptor>
prm/pocket_docking_7.prm

>  <SCORE>
-9.93417

>  <SCORE.INTER>
-3.63658

>  <SCORE.INTER.CONST>
1

>  <SCORE.INTER.POLAR>
-2.12174

>  <SCORE.INTER.ROT>
9

>  <SCORE.INTER.SOLV>
9.42303

>  <SCORE.INTER.VDW>
-8.09292

>  <SCORE.INTER.norm>
-0.0865853

>  <SCORE.INTRA>
-6.29758

>  <SCORE.INTRA.DIHEDRAL>
-11.4264

>  <SCORE.INTRA.DIHEDRAL.0>
17.3446

>  <SCORE.INTRA.POLAR>
0

>  <SCORE.INTRA.POLAR.0>
0

>  <SCORE.INTRA.REPUL>
0

>  <SCORE.INTRA.REPUL.0>
0

>  <SCORE.INTRA.SOLV>
-3.44343

>  <SCORE.INTRA.SOLV.lig_0>
-112.452

>  <SCORE.INTRA.VDW>
1.13731

>  <SCORE.INTRA.VDW.0>
-5.95059

>  <SCORE.INTRA.norm>
-0.149942

>  <SCORE.RESTR>
0

>  <SCORE.RESTR.CAVITY>
0

>  <SCORE.RESTR.norm>
0

>  <SCORE.SYSTEM>
0

>  <SCORE.SYSTEM.CONST>
0

>  <SCORE.SYSTEM.DIHEDRAL>
0

>  <SCORE.SYSTEM.SOLV>
0

>  <SCORE.SYSTEM.norm>
0

>  <SCORE.heavy>
42

>  <SCORE.norm>
-0.236528

>  <RMSD>
7.754

$$$$
2fcy_lig
 OpenBabel11021811433D
libRbt.so/2013.1/901 2013/11/27
 42 45  0  0  0  0  0  0  0  0999 V2000
   -0.4171   90.9834   16.0882 C   0  0  2  0  0  0  0  0  0  0  0  0
    0.2287   92.2668   16.0343 O   0  0  0  0  0  0  0  0  0  0  0  0
   -0.3266   90.4219   14.6685 C   0  0  2  0  0  0  0  0  0  0  0  0
    1.0819   90.4225   14.2505 N   0  0  0  0  0  0  0  0  0  0  0  0
   -1.1401   91.3025   13.7166 C   0  0  1  0  0  0  0  0  0  0  0  0
   -1.0740   90.7942   12.3813 O   0  0  0  0  0  0  0  0  0  0  0  0
   -2.5908   91.3617   14.1961 C   0  0  2  0  0  0  0  0  0  0  0  0
   -3.3249   92.2596   13.3639 O   0  0  0  0  0  0  0  0  0  0  0  0
   -2.6157   91.9091   15.6240 C   0  0  2  0  0  0  0  0  0  0  0  0
   -1.8047   91.0794   16.4703 O   0  0  0  0  0  0  0  0  0  0  0  0
   -4.0634   91.9636   16.1189 C   0  0  0  0  0  0  0  0  0  0  0  0
   -4.8093   93.0379   15.4465 N   0  0  0  0  0  0  0  0  0  0  0  0
    1.8593   94.2064   19.3848 C   0  0  2  0  0  0  0  0  0  0  0  0
    2.6163   94.6718   20.5567 N   0  0  0  0  0  0  0  0  0  0  0  0
    1.3267   92.7898   19.6089 C   0  0  0  0  0  0  0  0  0  0  0  0
    0.4408   92.4140   18.4168 C   0  0  2  0  0  0  0  0  0  0  0  0
   -0.0121   91.0237   18.5679 N   0  0  0  0  0  0  0  0  0  0  0  0
    1.1821   92.5214   17.0811 C   0  0  2  0  0  0  0  0  0  0  0  0
    1.9466   93.8252   16.8805 C   0  0  2  0  0  0  0  0  0  0  0  0
    2.8570   93.5753   15.7975 O   0  0  0  0  0  0  0  0  0  0  0  0
    2.7403   94.2197   18.1331 C   0  0  1  0  0  0  0  0  0  0  0  0
    3.2873   95.5339   17.9965 O   0  0  0  0  0  0  0  0  0  0  0  0
    3.0561   94.6678   14.8859 C   0  0  1  0  0  0  0  0  0  0  0  0
    4.1095   94.2322   13.8660 C   0  0  2  0  0  0  0  0  0  0  0  0
    5.4167   94.4461   14.4038 O   0  0  0  0  0  0  0  0  0  0  0  0
    3.8283   95.2684   12.7818 C   0  0  1  0  0  0  0  0  0  0  0  0
    2.3097   95.2099   12.7333 C   0  0  2  0  0  0  0  0  0  0  0  0
    1.8905   94.9731   14.0930 O   0  0  0  0  0  0  0  0  0  0  0  0
    1.8817   94.0732   11.7979 C   0  0  0  0  0  0  0  0  0  0  0  0
    2.2505   94.3681   10.4475 O   0  0  0  0  0  0  0  0  0  0  0  0
    3.9184   97.5463   12.2323 C   0  0  2  0  0  0  0  0  0  0  0  0
    4.2573   96.5658   13.2248 O   0  0  0  0  0  0  0  0  0  0  0  0
    4.8516   97.3984   11.0263 C   0  0  1  0  0  0  0  0  0  0  0  0
    4.9871  101.4955   13.2042 N   0  0  0  0  0  0  0  0  0  0  0  0
    4.5745   98.5000    9.9977 C   0  0  1  0  0  0  0  0  0  0  0  0
    3.2878   98.3096    9.4008 O   0  0  0  0  0  0  0  0  0  0  0  0
    4.6347   99.8709   10.6771 C   0  0  2  0  0  0  0  0  0  0  0  0
    5.9758  100.1003   11.1226 O   0  0  0  0  0  0  0  0  0  0  0  0
    3.6732   99.8951   11.8701 C   0  0  1  0  0  0  0  0  0  0  0  0
    4.0277   98.8606   12.8064 O   0  0  0  0  0  0  0  0  0  0  0  0
    3.6813  101.2556   12.5725 C   0  0  0  0  0  0  0  0  0  0  0  0
    6.2420   97.5317   11.4866 N   0  0  0  0  0  0  0  0  0  0  0  0
  1  2  1  6  0  0  0
  1  3  1  0  0  0  0
  1 10  1  0  0  0  0
  3  4  1  6  0  0  0
  3  5  1  0  0  0  0
  5  6  1  6  0  0  0
  5  7  1  0  0  0  0
  7  8  1  6  0  0  0
  7  9  1  0  0  0  0
  9 10  1  0  0  0  0
  9 11  1  1  0  0  0
 11 12  1  0  0  0  0
 13 14  1  1  0  0  0
 13 15  1  0  0  0  0
 13 21  1  0  0  0  0
 16 15  1  0  0  0  0
 16 17  1  1  0  0  0
 18  2  1  6  0  0  0
 18 16  1  0  0  0  0
 19 18  1  0  0  0  0
 19 20  1  6  0  0  0
 21 19  1  0  0  0  0
 21 22  1  6  0  0  0
 23 20  1  1  0  0  0
 23 24  1  0  0  0  0
 23 28  1  0  0  0  0
 24 25  1  1  0  0  0
 24 26  1  0  0  0  0
 26 27  1  0  0  0  0
 26 32  1  1  0  0  0
 27 28  1  0  0  0  0
 27 29  1  6  0  0  0
 29 30  1  0  0  0  0
 31 32  1  1  0  0  0
 31 40  1  0  0  0  0
 33 31  1  0  0  0  0
 33 42  1  1  0  0  0
 35 33  1  0  0  0  0
 35 36  1  1  0  0  0
 37 35  1  0  0  0  0
 37 38  1  1  0  0  0
 37 39  1  0  0  0  0
 39 40  1  0  0  0  0
 39 41  1  1  0  0  0
 41 34  1  0  0  0  0
M  END
>  <CHROM.1>
-132.38350603,-71.80177895,-59.14551380,142.30652086,176.75251466,-176.65001693
-66.69201315,-73.02216834,-66.50006374,1.82489237,94.70690739,14.38109657
2.43632810,0.74699991,1.88073815

>  <Name>
2fcy_lig

>  <RI>
2.32494e+07

>  <Rbt.Current_Directory>
/home/itssahil/PROJECTS/Mol_Feturizer/New_Systems/rnas/2fcy

>  <Rbt.Executable>
rbdock ($Id: //depot/dev/client3/rdock/2013.1/src/exe/rbdock.cxx#4 $)

>  <Rbt.Library>
libRbt.so (2013.1, Build901 2013/11/27)

>  <Rbt.Parameter_File>
/export/apps/rDock/src/rDock_2013.1_src/data/scripts/dock_solv.prm

>  <Rbt.Receptor>
prm/pocket_docking_8.prm

>  <SCORE>
-19.1081

>  <SCORE.INTER>
-22.6301

>  <SCORE.INTER.CONST>
1

>  <SCORE.INTER.POLAR>
-1.09033

>  <SCORE.INTER.ROT>
9

>  <SCORE.INTER.SOLV>
25.3916

>  <SCORE.INTER.VDW>
-29.5161

>  <SCORE.INTER.norm>
-0.538811

>  <SCORE.INTRA>
3.52192

>  <SCORE.INTRA.DIHEDRAL>
-3.49256

>  <SCORE.INTRA.DIHEDRAL.0>
17.3446

>  <SCORE.INTRA.POLAR>
0

>  <SCORE.INTRA.POLAR.0>
0

>  <SCORE.INTRA.REPUL>
0.080857

>  <SCORE.INTRA.REPUL.0>
0

>  <SCORE.INTRA.SOLV>
-0.27234

>  <SCORE.INTRA.SOLV.lig_0>
-112.452

>  <SCORE.INTRA.VDW>
5.00009

>  <SCORE.INTRA.VDW.0>
-5.95059

>  <SCORE.INTRA.norm>
0.0838553

>  <SCORE.RESTR>
0

>  <SCORE.RESTR.CAVITY>
0

>  <SCORE.RESTR.norm>
0

>  <SCORE.SYSTEM>
0

>  <SCORE.SYSTEM.CONST>
0

>  <SCORE.SYSTEM.DIHEDRAL>
0

>  <SCORE.SYSTEM.SOLV>
0

>  <SCORE.SYSTEM.norm>
0

>  <SCORE.heavy>
42

>  <SCORE.norm>
-0.454956

>  <RMSD>
7.810

$$$$
2fcy_lig
 OpenBabel11021811433D
libRbt.so/2013.1/901 2013/11/27
 42 45  0  0  0  0  0  0  0  0999 V2000
   -0.1825   92.8555    7.2059 C   0  0  2  0  0  0  0  0  0  0  0  0
    0.0570   92.0640    8.3820 O   0  0  0  0  0  0  0  0  0  0  0  0
    0.1679   94.2905    7.6024 C   0  0  2  0  0  0  0  0  0  0  0  0
    1.5386   94.3119    8.1309 N   0  0  0  0  0  0  0  0  0  0  0  0
   -0.8018   94.7745    8.6834 C   0  0  1  0  0  0  0  0  0  0  0  0
   -0.4962   96.1178    9.0680 O   0  0  0  0  0  0  0  0  0  0  0  0
   -2.2346   94.6804    8.1580 C   0  0  2  0  0  0  0  0  0  0  0  0
   -3.1421   95.0400    9.1996 O   0  0  0  0  0  0  0  0  0  0  0  0
   -2.5189   93.2316    7.7590 C   0  0  2  0  0  0  0  0  0  0  0  0
   -1.5593   92.8066    6.7787 O   0  0  0  0  0  0  0  0  0  0  0  0
   -3.9486   93.1269    7.2216 C   0  0  0  0  0  0  0  0  0  0  0  0
   -4.1403   94.0090    6.0607 N   0  0  0  0  0  0  0  0  0  0  0  0
    0.9605   88.0057    8.9826 C   0  0  2  0  0  0  0  0  0  0  0  0
    1.0442   86.5384    9.0379 N   0  0  0  0  0  0  0  0  0  0  0  0
   -0.3796   88.4951    9.5352 C   0  0  0  0  0  0  0  0  0  0  0  0
   -0.3539   90.0265    9.5748 C   0  0  2  0  0  0  0  0  0  0  0  0
   -1.6640   90.5225   10.0204 N   0  0  0  0  0  0  0  0  0  0  0  0
   -0.0634   90.6417    8.2028 C   0  0  2  0  0  0  0  0  0  0  0  0
    1.1294   90.0344    7.4727 C   0  0  2  0  0  0  0  0  0  0  0  0
    0.9955   90.4498    6.1039 O   0  0  0  0  0  0  0  0  0  0  0  0
    1.1218   88.5016    7.5435 C   0  0  1  0  0  0  0  0  0  0  0  0
    2.3418   87.9619    7.0284 O   0  0  0  0  0  0  0  0  0  0  0  0
   -0.2671   90.1562    5.4841 C   0  0  1  0  0  0  0  0  0  0  0  0
   -0.1654   90.5639    4.0134 C   0  0  2  0  0  0  0  0  0  0  0  0
   -0.4294   91.9628    3.8828 O   0  0  0  0  0  0  0  0  0  0  0  0
   -1.3479   89.7687    3.4676 C   0  0  1  0  0  0  0  0  0  0  0  0
   -1.1160   88.4294    4.1492 C   0  0  2  0  0  0  0  0  0  0  0  0
   -0.5746   88.7475    5.4478 O   0  0  0  0  0  0  0  0  0  0  0  0
   -0.1357   87.6027    3.3090 C   0  0  0  0  0  0  0  0  0  0  0  0
    0.0312   86.2978    3.8710 O   0  0  0  0  0  0  0  0  0  0  0  0
   -2.9737   91.4023    3.0355 C   0  0  2  0  0  0  0  0  0  0  0  0
   -2.5789   90.3488    3.9276 O   0  0  0  0  0  0  0  0  0  0  0  0
   -4.1825   92.1413    3.6184 C   0  0  1  0  0  0  0  0  0  0  0  0
   -4.0705   92.2520   -1.6033 N   0  0  0  0  0  0  0  0  0  0  0  0
   -4.6842   93.2044    2.6353 C   0  0  1  0  0  0  0  0  0  0  0  0
   -3.7245   94.2589    2.5121 O   0  0  0  0  0  0  0  0  0  0  0  0
   -4.9351   92.5671    1.2659 C   0  0  2  0  0  0  0  0  0  0  0  0
   -6.0108   91.6305    1.3891 O   0  0  0  0  0  0  0  0  0  0  0  0
   -3.6658   91.8503    0.7931 C   0  0  1  0  0  0  0  0  0  0  0  0
   -3.2876   90.8419    1.7485 O   0  0  0  0  0  0  0  0  0  0  0  0
   -3.8595   91.2124   -0.5853 C   0  0  0  0  0  0  0  0  0  0  0  0
   -5.2642   91.1709    3.8452 N   0  0  0  0  0  0  0  0  0  0  0  0
  1  2  1  1  0  0  0
  1  3  1  0  0  0  0
  1 10  1  0  0  0  0
  3  4  1  1  0  0  0
  3  5  1  0  0  0  0
  5  6  1  6  0  0  0
  5  7  1  0  0  0  0
  7  8  1  1  0  0  0
  7  9  1  0  0  0  0
  9 10  1  0  0  0  0
  9 11  1  6  0  0  0
 11 12  1  0  0  0  0
 13 14  1  6  0  0  0
 13 15  1  0  0  0  0
 13 21  1  0  0  0  0
 16 15  1  0  0  0  0
 16 17  1  6  0  0  0
 18  2  1  1  0  0  0
 18 16  1  0  0  0  0
 19 18  1  0  0  0  0
 19 20  1  6  0  0  0
 21 19  1  0  0  0  0
 21 22  1  1  0  0  0
 23 20  1  1  0  0  0
 23 24  1  0  0  0  0
 23 28  1  0  0  0  0
 24 25  1  1  0  0  0
 24 26  1  0  0  0  0
 26 27  1  0  0  0  0
 26 32  1  1  0  0  0
 27 28  1  0  0  0  0
 27 29  1  6  0  0  0
 29 30  1  0  0  0  0
 31 32  1  1  0  0  0
 31 40  1  0  0  0  0
 33 31  1  0  0  0  0
 33 42  1  6  0  0  0
 35 33  1  0  0  0  0
 35 36  1  6  0  0  0
 37 35  1  0  0  0  0
 37 38  1  1  0  0  0
 37 39  1  0  0  0  0
 39 40  1  0  0  0  0
 39 41  1  6  0  0  0
 41 34  1  0  0  0  0
M  END
>  <CHROM.1>
-173.29995135,58.83360047,-157.03679052,-53.53449534,-175.23334035,86.12259210
-175.83870391,-172.70026314,65.36118549,-1.55604448,91.30823173,5.55375901
0.52372838,-0.92927989,0.79189242

>  <Name>
2fcy_lig

>  <RI>
2.89127e+07

>  <Rbt.Current_Directory>
/home/itssahil/PROJECTS/Mol_Feturizer/New_Systems/rnas/2fcy

>  <Rbt.Executable>
rbdock ($Id: //depot/dev/client3/rdock/2013.1/src/exe/rbdock.cxx#4 $)

>  <Rbt.Library>
libRbt.so (2013.1, Build901 2013/11/27)

>  <Rbt.Parameter_File>
/export/apps/rDock/src/rDock_2013.1_src/data/scripts/dock_solv.prm

>  <Rbt.Receptor>
prm/pocket_docking_7.prm

>  <SCORE>
-11.9587

>  <SCORE.INTER>
-9.03308

>  <SCORE.INTER.CONST>
1

>  <SCORE.INTER.POLAR>
-1.74992

>  <SCORE.INTER.ROT>
9

>  <SCORE.INTER.SOLV>
14.1626

>  <SCORE.INTER.VDW>
-14.5098

>  <SCORE.INTER.norm>
-0.215073

>  <SCORE.INTRA>
-2.92889

>  <SCORE.INTRA.DIHEDRAL>
-10.9381

>  <SCORE.INTRA.DIHEDRAL.0>
17.3446

>  <SCORE.INTRA.POLAR>
0

>  <SCORE.INTRA.POLAR.0>
0

>  <SCORE.INTRA.REPUL>
0

>  <SCORE.INTRA.REPUL.0>
0

>  <SCORE.INTRA.SOLV>
0.706592

>  <SCORE.INTRA.SOLV.lig_0>
-112.452

>  <SCORE.INTRA.VDW>
2.18684

>  <SCORE.INTRA.VDW.0>
-5.95059

>  <SCORE.INTRA.norm>
-0.0697354

>  <SCORE.RESTR>
0.00328998

>  <SCORE.RESTR.CAVITY>
0.00328998

>  <SCORE.RESTR.norm>
7.83328e-05

>  <SCORE.SYSTEM>
0

>  <SCORE.SYSTEM.CONST>
0

>  <SCORE.SYSTEM.DIHEDRAL>
0

>  <SCORE.SYSTEM.SOLV>
0

>  <SCORE.SYSTEM.norm>
0

>  <SCORE.heavy>
42

>  <SCORE.norm>
-0.284731

>  <RMSD>
7.850

$$$$
2fcy_lig
 OpenBabel11021811433D
libRbt.so/2013.1/901 2013/11/27
 42 45  0  0  0  0  0  0  0  0999 V2000
   -1.1750   90.2659   16.1944 C   0  0  2  0  0  0  0  0  0  0  0  0
   -0.2343   90.9580   17.0330 O   0  0  0  0  0  0  0  0  0  0  0  0
   -0.6052   90.3611   14.7784 C   0  0  2  0  0  0  0  0  0  0  0  0
    0.7666   89.8349   14.7861 N   0  0  0  0  0  0  0  0  0  0  0  0
   -0.5861   91.8250   14.3312 C   0  0  1  0  0  0  0  0  0  0  0  0
   -0.0604   91.9390   13.0060 O   0  0  0  0  0  0  0  0  0  0  0  0
   -2.0042   92.3932   14.3957 C   0  0  2  0  0  0  0  0  0  0  0  0
   -1.9692   93.7829   14.0717 O   0  0  0  0  0  0  0  0  0  0  0  0
   -2.5270   92.2515   15.8260 C   0  0  2  0  0  0  0  0  0  0  0  0
   -2.4844   90.8706   16.2181 O   0  0  0  0  0  0  0  0  0  0  0  0
   -3.9511   92.8084   15.9007 C   0  0  0  0  0  0  0  0  0  0  0  0
   -4.7347   92.4096   14.7219 N   0  0  0  0  0  0  0  0  0  0  0  0
    3.3414   89.9475   18.9925 C   0  0  2  0  0  0  0  0  0  0  0  0
    4.6178   89.3985   19.4747 N   0  0  0  0  0  0  0  0  0  0  0  0
    2.2742   88.8540   18.9139 C   0  0  0  0  0  0  0  0  0  0  0  0
    0.9414   89.5081   18.5359 C   0  0  2  0  0  0  0  0  0  0  0  0
   -0.0810   88.4651   18.3688 N   0  0  0  0  0  0  0  0  0  0  0  0
    1.0270   90.2929   17.2236 C   0  0  2  0  0  0  0  0  0  0  0  0
    2.2166   91.2415   17.1259 C   0  0  2  0  0  0  0  0  0  0  0  0
    2.3373   91.5657   15.7314 O   0  0  0  0  0  0  0  0  0  0  0  0
    3.5143   90.5810   17.6099 C   0  0  1  0  0  0  0  0  0  0  0  0
    4.5721   91.5396   17.6965 O   0  0  0  0  0  0  0  0  0  0  0  0
    3.1861   92.6830   15.4225 C   0  0  1  0  0  0  0  0  0  0  0  0
    2.4518   93.5521   14.4002 C   0  0  2  0  0  0  0  0  0  0  0  0
    2.6634   93.0311   13.0858 O   0  0  0  0  0  0  0  0  0  0  0  0
    3.2499   94.8412   14.5723 C   0  0  1  0  0  0  0  0  0  0  0  0
    3.3131   94.9244   16.0893 C   0  0  2  0  0  0  0  0  0  0  0  0
    3.4122   93.5595   16.5454 O   0  0  0  0  0  0  0  0  0  0  0  0
    2.0425   95.6084   16.6069 C   0  0  0  0  0  0  0  0  0  0  0  0
    2.0896   95.7449   18.0301 O   0  0  0  0  0  0  0  0  0  0  0  0
    4.8154   95.6827   13.0428 C   0  0  2  0  0  0  0  0  0  0  0  0
    4.5705   94.6722   14.0329 O   0  0  0  0  0  0  0  0  0  0  0  0
    5.2588   96.9777   13.7311 C   0  0  1  0  0  0  0  0  0  0  0  0
    2.7208   97.9617    9.3096 N   0  0  0  0  0  0  0  0  0  0  0  0
    5.4277   98.0998   12.7011 C   0  0  1  0  0  0  0  0  0  0  0  0
    6.5409   97.8241   11.8449 O   0  0  0  0  0  0  0  0  0  0  0  0
    4.1509   98.2344   11.8668 C   0  0  2  0  0  0  0  0  0  0  0  0
    3.0895   98.6672   12.7245 O   0  0  0  0  0  0  0  0  0  0  0  0
    3.8016   96.8800   11.2408 C   0  0  1  0  0  0  0  0  0  0  0  0
    3.6180   95.8950   12.2746 O   0  0  0  0  0  0  0  0  0  0  0  0
    2.5402   96.9671   10.3773 C   0  0  0  0  0  0  0  0  0  0  0  0
    4.2203   97.3810   14.6912 N   0  0  0  0  0  0  0  0  0  0  0  0
  1  2  1  1  0  0  0
  1  3  1  0  0  0  0
  1 10  1  0  0  0  0
  3  4  1  1  0  0  0
  3  5  1  0  0  0  0
  5  6  1  6  0  0  0
  5  7  1  0  0  0  0
  7  8  1  1  0  0  0
  7  9  1  0  0  0  0
  9 10  1  0  0  0  0
  9 11  1  6  0  0  0
 11 12  1  0  0  0  0
 13 14  1  6  0  0  0
 13 15  1  0  0  0  0
 13 21  1  0  0  0  0
 16 15  1  0  0  0  0
 16 17  1  6  0  0  0
 18  2  1  1  0  0  0
 18 16  1  0  0  0  0
 19 18  1  0  0  0  0
 19 20  1  6  0  0  0
 21 19  1  0  0  0  0
 21 22  1  1  0  0  0
 23 20  1  1  0  0  0
 23 24  1  0  0  0  0
 23 28  1  0  0  0  0
 24 25  1  6  0  0  0
 24 26  1  0  0  0  0
 26 27  1  0  0  0  0
 26 32  1  6  0  0  0
 27 28  1  0  0  0  0
 27 29  1  1  0  0  0
 29 30  1  0  0  0  0
 31 32  1  1  0  0  0
 31 40  1  0  0  0  0
 33 31  1  0  0  0  0
 33 42  1  1  0  0  0
 35 33  1  0  0  0  0
 35 36  1  6  0  0  0
 37 35  1  0  0  0  0
 37 38  1  1  0  0  0
 37 39  1  0  0  0  0
 39 40  1  0  0  0  0
 39 41  1  1  0  0  0
 41 34  1  0  0  0  0
M  END
>  <CHROM.1>
-70.59740185,41.47529460,-95.82019138,166.00881606,-134.83600230,123.77405921
-178.01244947,82.66303751,58.41457676,1.87135203,93.36708997,15.06884694
2.05226724,0.28291213,2.39139753

>  <Name>
2fcy_lig

>  <RI>
9.29634e+06

>  <Rbt.Current_Directory>
/home/itssahil/PROJECTS/Mol_Feturizer/New_Systems/rnas/2fcy

>  <Rbt.Executable>
rbdock ($Id: //depot/dev/client3/rdock/2013.1/src/exe/rbdock.cxx#4 $)

>  <Rbt.Library>
libRbt.so (2013.1, Build901 2013/11/27)

>  <Rbt.Parameter_File>
/export/apps/rDock/src/rDock_2013.1_src/data/scripts/dock_solv.prm

>  <Rbt.Receptor>
prm/blind_docking_100.prm

>  <SCORE>
7.31856

>  <SCORE.INTER>
-6.7738

>  <SCORE.INTER.CONST>
1

>  <SCORE.INTER.POLAR>
-1.27392

>  <SCORE.INTER.ROT>
9

>  <SCORE.INTER.SOLV>
27.2842

>  <SCORE.INTER.VDW>
-18.9642

>  <SCORE.INTER.norm>
-0.161281

>  <SCORE.INTRA>
11.1929

>  <SCORE.INTRA.DIHEDRAL>
5.11544

>  <SCORE.INTRA.DIHEDRAL.0>
17.3446

>  <SCORE.INTRA.POLAR>
0

>  <SCORE.INTRA.POLAR.0>
0

>  <SCORE.INTRA.REPUL>
0

>  <SCORE.INTRA.REPUL.0>
0

>  <SCORE.INTRA.SOLV>
5.09847

>  <SCORE.INTRA.SOLV.lig_0>
-112.452

>  <SCORE.INTRA.VDW>
6.08598

>  <SCORE.INTRA.VDW.0>
-5.95059

>  <SCORE.INTRA.norm>
0.266499

>  <SCORE.RESTR>
2.89942

>  <SCORE.RESTR.CAVITY>
2.89942

>  <SCORE.RESTR.norm>
0.0690338

>  <SCORE.SYSTEM>
0

>  <SCORE.SYSTEM.CONST>
0

>  <SCORE.SYSTEM.DIHEDRAL>
0

>  <SCORE.SYSTEM.SOLV>
0

>  <SCORE.SYSTEM.norm>
0

>  <SCORE.heavy>
42

>  <SCORE.norm>
0.174251

>  <RMSD>
7.854

$$$$
2fcy_lig
 OpenBabel11021811433D
libRbt.so/2013.1/901 2013/11/27
 42 45  0  0  0  0  0  0  0  0999 V2000
    1.9884   92.5808   15.7775 C   0  0  2  0  0  0  0  0  0  0  0  0
    1.3971   93.2669   16.8942 O   0  0  0  0  0  0  0  0  0  0  0  0
    0.9107   91.6202   15.2727 C   0  0  2  0  0  0  0  0  0  0  0  0
   -0.3099   92.3878   14.9903 N   0  0  0  0  0  0  0  0  0  0  0  0
    0.6148   90.5716   16.3479 C   0  0  1  0  0  0  0  0  0  0  0  0
   -0.3886   89.6578   15.8964 O   0  0  0  0  0  0  0  0  0  0  0  0
    1.9028   89.8242   16.6949 C   0  0  2  0  0  0  0  0  0  0  0  0
    1.6452   88.9148   17.7647 O   0  0  0  0  0  0  0  0  0  0  0  0
    2.9462   90.8358   17.1717 C   0  0  2  0  0  0  0  0  0  0  0  0
    3.1579   91.8239   16.1513 O   0  0  0  0  0  0  0  0  0  0  0  0
    4.2445   90.0997   17.5128 C   0  0  0  0  0  0  0  0  0  0  0  0
    4.1577   89.4659   18.8370 N   0  0  0  0  0  0  0  0  0  0  0  0
    2.5939   96.6821   19.0275 C   0  0  2  0  0  0  0  0  0  0  0  0
    3.2463   97.7273   19.8306 N   0  0  0  0  0  0  0  0  0  0  0  0
    2.4388   95.3925   19.8360 C   0  0  0  0  0  0  0  0  0  0  0  0
    1.6387   94.3911   18.9968 C   0  0  2  0  0  0  0  0  0  0  0  0
    1.5519   93.1133   19.7182 N   0  0  0  0  0  0  0  0  0  0  0  0
    2.2885   94.1171   17.6373 C   0  0  2  0  0  0  0  0  0  0  0  0
    2.6969   95.3659   16.8639 C   0  0  2  0  0  0  0  0  0  0  0  0
    3.6072   94.9105   15.8499 O   0  0  0  0  0  0  0  0  0  0  0  0
    3.4049   96.3879   17.7631 C   0  0  1  0  0  0  0  0  0  0  0  0
    3.6022   97.6242   17.0718 O   0  0  0  0  0  0  0  0  0  0  0  0
    3.5689   95.6323   14.6082 C   0  0  1  0  0  0  0  0  0  0  0  0
    2.1576   95.4915   14.0355 C   0  0  2  0  0  0  0  0  0  0  0  0
    2.0501   94.2589   13.3194 O   0  0  0  0  0  0  0  0  0  0  0  0
    2.1885   96.6541   13.0477 C   0  0  1  0  0  0  0  0  0  0  0  0
    2.8081   97.7367   13.9173 C   0  0  2  0  0  0  0  0  0  0  0  0
    3.7545   97.0541   14.7651 O   0  0  0  0  0  0  0  0  0  0  0  0
    1.7025   98.4199   14.7305 C   0  0  0  0  0  0  0  0  0  0  0  0
    0.6294   98.8272   13.8766 O   0  0  0  0  0  0  0  0  0  0  0  0
    4.1679   97.2588   11.9454 C   0  0  2  0  0  0  0  0  0  0  0  0
    3.0644   96.3402   11.9533 O   0  0  0  0  0  0  0  0  0  0  0  0
    4.4850   97.6664   10.5030 C   0  0  1  0  0  0  0  0  0  0  0  0
    8.7320   97.7595   13.5021 N   0  0  0  0  0  0  0  0  0  0  0  0
    5.7242   98.5671   10.4622 C   0  0  1  0  0  0  0  0  0  0  0  0
    5.4394   99.8309   11.0705 O   0  0  0  0  0  0  0  0  0  0  0  0
    6.8840   97.8870   11.1947 C   0  0  2  0  0  0  0  0  0  0  0  0
    7.2516   96.7079   10.4708 O   0  0  0  0  0  0  0  0  0  0  0  0
    6.4466   97.5163   12.6158 C   0  0  1  0  0  0  0  0  0  0  0  0
    5.3077   96.6371   12.5644 O   0  0  0  0  0  0  0  0  0  0  0  0
    7.5813   96.8501   13.3987 C   0  0  0  0  0  0  0  0  0  0  0  0
    4.7669   96.4530    9.7211 N   0  0  0  0  0  0  0  0  0  0  0  0
  1  2  1  1  0  0  0
  1  3  1  0  0  0  0
  1 10  1  0  0  0  0
  3  4  1  1  0  0  0
  3  5  1  0  0  0  0
  5  6  1  6  0  0  0
  5  7  1  0  0  0  0
  7  8  1  1  0  0  0
  7  9  1  0  0  0  0
  9 10  1  0  0  0  0
  9 11  1  6  0  0  0
 11 12  1  0  0  0  0
 13 14  1  1  0  0  0
 13 15  1  0  0  0  0
 13 21  1  0  0  0  0
 16 15  1  0  0  0  0
 16 17  1  1  0  0  0
 18  2  1  6  0  0  0
 18 16  1  0  0  0  0
 19 18  1  0  0  0  0
 19 20  1  6  0  0  0
 21 19  1  0  0  0  0
 21 22  1  6  0  0  0
 23 20  1  1  0  0  0
 23 24  1  0  0  0  0
 23 28  1  0  0  0  0
 24 25  1  6  0  0  0
 24 26  1  0  0  0  0
 26 27  1  0  0  0  0
 26 32  1  6  0  0  0
 27 28  1  0  0  0  0
 27 29  1  1  0  0  0
 29 30  1  0  0  0  0
 31 32  1  6  0  0  0
 31 40  1  0  0  0  0
 33 31  1  0  0  0  0
 33 42  1  6  0  0  0
 35 33  1  0  0  0  0
 35 36  1  1  0  0  0
 37 35  1  0  0  0  0
 37 38  1  6  0  0  0
 37 39  1  0  0  0  0
 39 40  1  0  0  0  0
 39 41  1  6  0  0  0
 41 34  1  0  0  0  0
M  END
>  <CHROM.1>
172.87128577,-79.36616110,-162.16382123,146.81776668,-60.56260647,-116.34696557
-50.81700122,-139.33242913,60.05269526,3.28456316,95.00721601,15.06232256
-2.92866627,1.16864218,0.61088858

>  <Name>
2fcy_lig

>  <RI>
9.29634e+06

>  <Rbt.Current_Directory>
/home/itssahil/PROJECTS/Mol_Feturizer/New_Systems/rnas/2fcy

>  <Rbt.Executable>
rbdock ($Id: //depot/dev/client3/rdock/2013.1/src/exe/rbdock.cxx#4 $)

>  <Rbt.Library>
libRbt.so (2013.1, Build901 2013/11/27)

>  <Rbt.Parameter_File>
/export/apps/rDock/src/rDock_2013.1_src/data/scripts/dock_solv.prm

>  <Rbt.Receptor>
prm/blind_docking_100.prm

>  <SCORE>
5.3478

>  <SCORE.INTER>
-9.02141

>  <SCORE.INTER.CONST>
1

>  <SCORE.INTER.POLAR>
-0.539293

>  <SCORE.INTER.ROT>
9

>  <SCORE.INTER.SOLV>
23.3556

>  <SCORE.INTER.VDW>
-21.6018

>  <SCORE.INTER.norm>
-0.214796

>  <SCORE.INTRA>
11.6044

>  <SCORE.INTRA.DIHEDRAL>
2.62111

>  <SCORE.INTRA.DIHEDRAL.0>
17.3446

>  <SCORE.INTRA.POLAR>
0

>  <SCORE.INTRA.POLAR.0>
0

>  <SCORE.INTRA.REPUL>
0

>  <SCORE.INTRA.REPUL.0>
0

>  <SCORE.INTRA.SOLV>
-1.27636

>  <SCORE.INTRA.SOLV.lig_0>
-112.452

>  <SCORE.INTRA.VDW>
10.932

>  <SCORE.INTRA.VDW.0>
-5.95059

>  <SCORE.INTRA.norm>
0.276295

>  <SCORE.RESTR>
2.76483

>  <SCORE.RESTR.CAVITY>
2.76483

>  <SCORE.RESTR.norm>
0.0658293

>  <SCORE.SYSTEM>
0

>  <SCORE.SYSTEM.CONST>
0

>  <SCORE.SYSTEM.DIHEDRAL>
0

>  <SCORE.SYSTEM.SOLV>
0

>  <SCORE.SYSTEM.norm>
0

>  <SCORE.heavy>
42

>  <SCORE.norm>
0.127329

>  <RMSD>
7.874

$$$$
2fcy_lig
 OpenBabel11021811433D
libRbt.so/2013.1/901 2013/11/27
 42 45  0  0  0  0  0  0  0  0999 V2000
    1.9327   92.2656   16.1782 C   0  0  2  0  0  0  0  0  0  0  0  0
    1.2976   93.0594   17.1948 O   0  0  0  0  0  0  0  0  0  0  0  0
    0.7921   91.7047   15.3276 C   0  0  2  0  0  0  0  0  0  0  0  0
   -0.0366   92.8222   14.8550 N   0  0  0  0  0  0  0  0  0  0  0  0
   -0.0631   90.7604   16.1761 C   0  0  1  0  0  0  0  0  0  0  0  0
   -1.1356   90.2192   15.3998 O   0  0  0  0  0  0  0  0  0  0  0  0
    0.8168   89.6390   16.7292 C   0  0  2  0  0  0  0  0  0  0  0  0
    0.0387   88.8153   17.5974 O   0  0  0  0  0  0  0  0  0  0  0  0
    1.9479   90.2599   17.5504 C   0  0  2  0  0  0  0  0  0  0  0  0
    2.6939   91.1708   16.7281 O   0  0  0  0  0  0  0  0  0  0  0  0
    2.8421   89.1462   18.1016 C   0  0  0  0  0  0  0  0  0  0  0  0
    3.6035   88.4999   17.0222 N   0  0  0  0  0  0  0  0  0  0  0  0
    2.4042   96.3989   19.4905 C   0  0  2  0  0  0  0  0  0  0  0  0
    3.0363   97.4292   20.3282 N   0  0  0  0  0  0  0  0  0  0  0  0
    2.3705   95.0528   20.2169 C   0  0  0  0  0  0  0  0  0  0  0  0
    1.5866   94.0591   19.3536 C   0  0  2  0  0  0  0  0  0  0  0  0
    1.6154   92.7346   19.9905 N   0  0  0  0  0  0  0  0  0  0  0  0
    2.1762   93.9145   17.9476 C   0  0  2  0  0  0  0  0  0  0  0  0
    2.4668   95.2336   17.2405 C   0  0  2  0  0  0  0  0  0  0  0  0
    3.3457   94.9026   16.1533 O   0  0  0  0  0  0  0  0  0  0  0  0
    3.1610   96.2382   18.1697 C   0  0  1  0  0  0  0  0  0  0  0  0
    3.2463   97.5263   17.5543 O   0  0  0  0  0  0  0  0  0  0  0  0
    3.2427   95.7409   14.9911 C   0  0  1  0  0  0  0  0  0  0  0  0
    4.4721   95.4763   14.1204 C   0  0  2  0  0  0  0  0  0  0  0  0
    5.5705   96.2631   14.5875 O   0  0  0  0  0  0  0  0  0  0  0  0
    3.9557   96.0517   12.8048 C   0  0  1  0  0  0  0  0  0  0  0  0
    2.5607   95.4477   12.7699 C   0  0  2  0  0  0  0  0  0  0  0  0
    2.1228   95.4119   14.1438 O   0  0  0  0  0  0  0  0  0  0  0  0
    2.6376   94.0439   12.1586 C   0  0  0  0  0  0  0  0  0  0  0  0
    3.4602   94.0500   10.9882 O   0  0  0  0  0  0  0  0  0  0  0  0
    4.9624   98.0748   12.1786 C   0  0  2  0  0  0  0  0  0  0  0  0
    3.8707   97.4825   12.8990 O   0  0  0  0  0  0  0  0  0  0  0  0
    4.6602   98.0474   10.6769 C   0  0  1  0  0  0  0  0  0  0  0  0
    8.7505   97.3026   13.7079 N   0  0  0  0  0  0  0  0  0  0  0  0
    5.8558   98.5819    9.8812 C   0  0  1  0  0  0  0  0  0  0  0  0
    6.0268   99.9821   10.1227 O   0  0  0  0  0  0  0  0  0  0  0  0
    7.1255   97.8262   10.2827 C   0  0  2  0  0  0  0  0  0  0  0  0
    6.9879   96.4586    9.8824 O   0  0  0  0  0  0  0  0  0  0  0  0
    7.3160   97.9129   11.8007 C   0  0  1  0  0  0  0  0  0  0  0  0
    6.1715   97.3527   12.4710 O   0  0  0  0  0  0  0  0  0  0  0  0
    8.5872   97.1881   12.2512 C   0  0  0  0  0  0  0  0  0  0  0  0
    4.4165   96.6552   10.2701 N   0  0  0  0  0  0  0  0  0  0  0  0
  1  2  1  1  0  0  0
  1  3  1  0  0  0  0
  1 10  1  0  0  0  0
  3  4  1  1  0  0  0
  3  5  1  0  0  0  0
  5  6  1  6  0  0  0
  5  7  1  0  0  0  0
  7  8  1  1  0  0  0
  7  9  1  0  0  0  0
  9 10  1  0  0  0  0
  9 11  1  6  0  0  0
 11 12  1  0  0  0  0
 13 14  1  1  0  0  0
 13 15  1  0  0  0  0
 13 21  1  0  0  0  0
 16 15  1  0  0  0  0
 16 17  1  1  0  0  0
 18  2  1  6  0  0  0
 18 16  1  0  0  0  0
 19 18  1  0  0  0  0
 19 20  1  6  0  0  0
 21 19  1  0  0  0  0
 21 22  1  6  0  0  0
 23 20  1  1  0  0  0
 23 24  1  0  0  0  0
 23 28  1  0  0  0  0
 24 25  1  1  0  0  0
 24 26  1  0  0  0  0
 26 27  1  0  0  0  0
 26 32  1  1  0  0  0
 27 28  1  0  0  0  0
 27 29  1  1  0  0  0
 29 30  1  0  0  0  0
 31 32  1  1  0  0  0
 31 40  1  0  0  0  0
 33 31  1  0  0  0  0
 33 42  1  6  0  0  0
 35 33  1  0  0  0  0
 35 36  1  1  0  0  0
 37 35  1  0  0  0  0
 37 38  1  1  0  0  0
 37 39  1  0  0  0  0
 39 40  1  0  0  0  0
 39 41  1  6  0  0  0
 41 34  1  0  0  0  0
M  END
>  <CHROM.1>
-167.50526645,69.56534315,-149.48916181,149.77607957,165.44180005,104.21983784
-45.04395974,78.19569187,179.31805102,3.40593738,94.69339606,14.93113137
2.81390604,1.04760372,1.15177017

>  <Name>
2fcy_lig

>  <RI>
9.29634e+06

>  <Rbt.Current_Directory>
/home/itssahil/PROJECTS/Mol_Feturizer/New_Systems/rnas/2fcy

>  <Rbt.Executable>
rbdock ($Id: //depot/dev/client3/rdock/2013.1/src/exe/rbdock.cxx#4 $)

>  <Rbt.Library>
libRbt.so (2013.1, Build901 2013/11/27)

>  <Rbt.Parameter_File>
/export/apps/rDock/src/rDock_2013.1_src/data/scripts/dock_solv.prm

>  <Rbt.Receptor>
prm/blind_docking_100.prm

>  <SCORE>
-5.07178

>  <SCORE.INTER>
-13.0068

>  <SCORE.INTER.CONST>
1

>  <SCORE.INTER.POLAR>
-0.860062

>  <SCORE.INTER.ROT>
9

>  <SCORE.INTER.SOLV>
27.7361

>  <SCORE.INTER.VDW>
-24.6497

>  <SCORE.INTER.norm>
-0.309686

>  <SCORE.INTRA>
4.29098

>  <SCORE.INTRA.DIHEDRAL>
0.234739

>  <SCORE.INTRA.DIHEDRAL.0>
17.3446

>  <SCORE.INTRA.POLAR>
0

>  <SCORE.INTRA.POLAR.0>
0

>  <SCORE.INTRA.REPUL>
0

>  <SCORE.INTRA.REPUL.0>
0

>  <SCORE.INTRA.SOLV>
2.14631

>  <SCORE.INTRA.SOLV.lig_0>
-112.452

>  <SCORE.INTRA.VDW>
3.10046

>  <SCORE.INTRA.VDW.0>
-5.95059

>  <SCORE.INTRA.norm>
0.102166

>  <SCORE.RESTR>
3.64405

>  <SCORE.RESTR.CAVITY>
3.64405

>  <SCORE.RESTR.norm>
0.0867631

>  <SCORE.SYSTEM>
0

>  <SCORE.SYSTEM.CONST>
0

>  <SCORE.SYSTEM.DIHEDRAL>
0

>  <SCORE.SYSTEM.SOLV>
0

>  <SCORE.SYSTEM.norm>
0

>  <SCORE.heavy>
42

>  <SCORE.norm>
-0.120757

>  <RMSD>
7.932

$$$$
2fcy_lig
 OpenBabel11021811433D
libRbt.so/2013.1/901 2013/11/27
 42 45  0  0  0  0  0  0  0  0999 V2000
   -3.9988   92.7184   11.7814 C   0  0  2  0  0  0  0  0  0  0  0  0
   -3.3350   91.7106   10.9998 O   0  0  0  0  0  0  0  0  0  0  0  0
   -5.0975   91.9811   12.5484 C   0  0  2  0  0  0  0  0  0  0  0  0
   -4.4872   90.8752   13.2989 N   0  0  0  0  0  0  0  0  0  0  0  0
   -6.1236   91.4202   11.5606 C   0  0  1  0  0  0  0  0  0  0  0  0
   -7.1650   90.7288   12.2558 O   0  0  0  0  0  0  0  0  0  0  0  0
   -6.7033   92.5641   10.7279 C   0  0  2  0  0  0  0  0  0  0  0  0
   -7.5871   92.0282    9.7433 O   0  0  0  0  0  0  0  0  0  0  0  0
   -5.5592   93.2749   10.0033 C   0  0  2  0  0  0  0  0  0  0  0  0
   -4.6002   93.7435   10.9641 O   0  0  0  0  0  0  0  0  0  0  0  0
   -6.1267   94.4294    9.1734 C   0  0  0  0  0  0  0  0  0  0  0  0
   -6.4968   95.5635   10.0334 N   0  0  0  0  0  0  0  0  0  0  0  0
    0.2086   91.6593    8.7444 C   0  0  2  0  0  0  0  0  0  0  0  0
    1.5478   91.8141    8.1566 N   0  0  0  0  0  0  0  0  0  0  0  0
   -0.4691   93.0199    8.9190 C   0  0  0  0  0  0  0  0  0  0  0  0
   -1.9021   92.7851    9.4075 C   0  0  2  0  0  0  0  0  0  0  0  0
   -2.5453   94.0813    9.6662 N   0  0  0  0  0  0  0  0  0  0  0  0
   -1.9515   91.9718   10.7042 C   0  0  2  0  0  0  0  0  0  0  0  0
   -1.0996   90.7074   10.6954 C   0  0  2  0  0  0  0  0  0  0  0  0
   -0.9703   90.3204   12.0729 O   0  0  0  0  0  0  0  0  0  0  0  0
    0.2933   90.9621   10.1043 C   0  0  1  0  0  0  0  0  0  0  0  0
    1.0020   89.7333    9.9231 O   0  0  0  0  0  0  0  0  0  0  0  0
    0.0358   91.0182   12.8246 C   0  0  1  0  0  0  0  0  0  0  0  0
   -0.6153   92.2686   13.4181 C   0  0  2  0  0  0  0  0  0  0  0  0
   -0.6144   93.3180   12.4473 O   0  0  0  0  0  0  0  0  0  0  0  0
    0.4132   92.5761   14.5025 C   0  0  1  0  0  0  0  0  0  0  0  0
    0.6203   91.1874   15.0861 C   0  0  2  0  0  0  0  0  0  0  0  0
    0.5113   90.2809   13.9694 O   0  0  0  0  0  0  0  0  0  0  0  0
   -0.4574   90.9225   16.1437 C   0  0  0  0  0  0  0  0  0  0  0  0
   -0.4447   91.9474   17.1416 O   0  0  0  0  0  0  0  0  0  0  0  0
    1.5007   94.4374   13.5796 C   0  0  2  0  0  0  0  0  0  0  0  0
    1.6307   93.0439   13.9004 O   0  0  0  0  0  0  0  0  0  0  0  0
    1.9662   94.6773   12.1398 C   0  0  1  0  0  0  0  0  0  0  0  0
    4.3184   96.9682   15.4212 N   0  0  0  0  0  0  0  0  0  0  0  0
    1.9322   96.1733   11.8093 C   0  0  1  0  0  0  0  0  0  0  0  0
    0.5803   96.6411   11.7646 O   0  0  0  0  0  0  0  0  0  0  0  0
    2.7185   96.9556   12.8648 C   0  0  2  0  0  0  0  0  0  0  0  0
    4.0975   96.5816   12.7759 O   0  0  0  0  0  0  0  0  0  0  0  0
    2.1736   96.6269   14.2588 C   0  0  1  0  0  0  0  0  0  0  0  0
    2.2812   95.2127   14.5062 O   0  0  0  0  0  0  0  0  0  0  0  0
    2.9155   97.4025   15.3508 C   0  0  0  0  0  0  0  0  0  0  0  0
    3.3523   94.2037   12.0071 N   0  0  0  0  0  0  0  0  0  0  0  0
  1  2  1  6  0  0  0
  1  3  1  0  0  0  0
  1 10  1  0  0  0  0
  3  4  1  6  0  0  0
  3  5  1  0  0  0  0
  5  6  1  1  0  0  0
  5  7  1  0  0  0  0
  7  8  1  6  0  0  0
  7  9  1  0  0  0  0
  9 10  1  0  0  0  0
  9 11  1  1  0  0  0
 11 12  1  0  0  0  0
 13 14  1  1  0  0  0
 13 15  1  0  0  0  0
 13 21  1  0  0  0  0
 16 15  1  0  0  0  0
 16 17  1  1  0  0  0
 18  2  1  6  0  0  0
 18 16  1  0  0  0  0
 19 18  1  0  0  0  0
 19 20  1  1  0  0  0
 21 19  1  0  0  0  0
 21 22  1  6  0  0  0
 23 20  1  1  0  0  0
 23 24  1  0  0  0  0
 23 28  1  0  0  0  0
 24 25  1  6  0  0  0
 24 26  1  0  0  0  0
 26 27  1  0  0  0  0
 26 32  1  6  0  0  0
 27 28  1  0  0  0  0
 27 29  1  1  0  0  0
 29 30  1  0  0  0  0
 31 32  1  1  0  0  0
 31 40  1  0  0  0  0
 33 31  1  0  0  0  0
 33 42  1  1  0  0  0
 35 33  1  0  0  0  0
 35 36  1  1  0  0  0
 37 35  1  0  0  0  0
 37 38  1  1  0  0  0
 37 39  1  0  0  0  0
 39 40  1  0  0  0  0
 39 41  1  1  0  0  0
 41 34  1  0  0  0  0
M  END
>  <CHROM.1>
-151.76289963,75.21051596,-88.26214334,-81.32757202,88.83298790,81.10705148
-55.58630438,-131.68691855,-65.62706169,-1.05471410,93.09611322,12.10360919
-3.11398496,-0.48036283,-0.69222248

>  <Name>
2fcy_lig

>  <RI>
1.56845e+07

>  <Rbt.Current_Directory>
/home/itssahil/PROJECTS/Mol_Feturizer/New_Systems/rnas/2fcy

>  <Rbt.Executable>
rbdock ($Id: //depot/dev/client3/rdock/2013.1/src/exe/rbdock.cxx#4 $)

>  <Rbt.Library>
libRbt.so (2013.1, Build901 2013/11/27)

>  <Rbt.Parameter_File>
/export/apps/rDock/src/rDock_2013.1_src/data/scripts/dock_solv.prm

>  <Rbt.Receptor>
prm/pocket_docking_4.prm

>  <SCORE>
-3.31561

>  <SCORE.INTER>
-12.0884

>  <SCORE.INTER.CONST>
1

>  <SCORE.INTER.POLAR>
-2.55458

>  <SCORE.INTER.ROT>
9

>  <SCORE.INTER.SOLV>
19.2649

>  <SCORE.INTER.VDW>
-15.5653

>  <SCORE.INTER.norm>
-0.287819

>  <SCORE.INTRA>
8.4001

>  <SCORE.INTRA.DIHEDRAL>
4.32539

>  <SCORE.INTRA.DIHEDRAL.0>
17.3446

>  <SCORE.INTRA.POLAR>
0

>  <SCORE.INTRA.POLAR.0>
0

>  <SCORE.INTRA.REPUL>
0

>  <SCORE.INTRA.REPUL.0>
0

>  <SCORE.INTRA.SOLV>
2.78005

>  <SCORE.INTRA.SOLV.lig_0>
-112.452

>  <SCORE.INTRA.VDW>
4.84737

>  <SCORE.INTRA.VDW.0>
-5.95059

>  <SCORE.INTRA.norm>
0.200002

>  <SCORE.RESTR>
0.372668

>  <SCORE.RESTR.CAVITY>
0.372668

>  <SCORE.RESTR.norm>
0.00887305

>  <SCORE.SYSTEM>
0

>  <SCORE.SYSTEM.CONST>
0

>  <SCORE.SYSTEM.DIHEDRAL>
0

>  <SCORE.SYSTEM.SOLV>
0

>  <SCORE.SYSTEM.norm>
0

>  <SCORE.heavy>
42

>  <SCORE.norm>
-0.0789432

>  <RMSD>
7.938

$$$$
2fcy_lig
 OpenBabel11021811433D
libRbt.so/2013.1/901 2013/11/27
 42 45  0  0  0  0  0  0  0  0999 V2000
    1.5039   92.5762   16.2014 C   0  0  2  0  0  0  0  0  0  0  0  0
    1.0897   93.2167   17.4202 O   0  0  0  0  0  0  0  0  0  0  0  0
    0.4139   91.5496   15.8899 C   0  0  2  0  0  0  0  0  0  0  0  0
   -0.8841   92.2371   15.8531 N   0  0  0  0  0  0  0  0  0  0  0  0
    0.3914   90.4786   16.9834 C   0  0  1  0  0  0  0  0  0  0  0  0
   -0.6188   89.5034   16.7114 O   0  0  0  0  0  0  0  0  0  0  0  0
    1.7663   89.8154   17.0716 C   0  0  2  0  0  0  0  0  0  0  0  0
    1.7715   88.8860   18.1550 O   0  0  0  0  0  0  0  0  0  0  0  0
    2.8142   90.8908   17.3627 C   0  0  2  0  0  0  0  0  0  0  0  0
    2.7683   91.8956   16.3377 O   0  0  0  0  0  0  0  0  0  0  0  0
    4.1974   90.2396   17.4433 C   0  0  0  0  0  0  0  0  0  0  0  0
    4.3351   89.4476   18.6747 N   0  0  0  0  0  0  0  0  0  0  0  0
    2.5181   96.6769   19.3263 C   0  0  2  0  0  0  0  0  0  0  0  0
    3.2600   97.7425   20.0169 N   0  0  0  0  0  0  0  0  0  0  0  0
    2.5057   95.3944   20.1605 C   0  0  0  0  0  0  0  0  0  0  0  0
    1.6115   94.3697   19.4552 C   0  0  2  0  0  0  0  0  0  0  0  0
    1.6538   93.0991   20.1933 N   0  0  0  0  0  0  0  0  0  0  0  0
    2.0630   94.0908   18.0186 C   0  0  2  0  0  0  0  0  0  0  0  0
    2.3319   95.3372   17.1828 C   0  0  2  0  0  0  0  0  0  0  0  0
    3.0945   94.8856   16.0520 O   0  0  0  0  0  0  0  0  0  0  0  0
    3.1433   96.3818   17.9606 C   0  0  1  0  0  0  0  0  0  0  0  0
    3.2154   97.6130   17.2367 O   0  0  0  0  0  0  0  0  0  0  0  0
    3.0618   95.7395   14.8970 C   0  0  1  0  0  0  0  0  0  0  0  0
    4.3199   95.4536   14.0755 C   0  0  2  0  0  0  0  0  0  0  0  0
    5.4168   96.2068   14.5980 O   0  0  0  0  0  0  0  0  0  0  0  0
    3.8742   96.0568   12.7466 C   0  0  1  0  0  0  0  0  0  0  0  0
    2.4672   95.4890   12.6456 C   0  0  2  0  0  0  0  0  0  0  0  0
    1.9708   95.4488   13.9994 O   0  0  0  0  0  0  0  0  0  0  0  0
    2.5349   94.0908   12.0207 C   0  0  0  0  0  0  0  0  0  0  0  0
    3.5168   94.0521   10.9810 O   0  0  0  0  0  0  0  0  0  0  0  0
    4.9581   98.0605   12.1909 C   0  0  2  0  0  0  0  0  0  0  0  0
    3.8210   97.4882   12.8550 O   0  0  0  0  0  0  0  0  0  0  0  0
    4.6997   98.1081   10.6815 C   0  0  1  0  0  0  0  0  0  0  0  0
    9.7702   97.6452   11.8356 N   0  0  0  0  0  0  0  0  0  0  0  0
    5.9404   98.6212    9.9427 C   0  0  1  0  0  0  0  0  0  0  0  0
    6.1642  100.0015   10.2478 O   0  0  0  0  0  0  0  0  0  0  0  0
    7.1638   97.7942   10.3472 C   0  0  2  0  0  0  0  0  0  0  0  0
    6.9793   96.4516    9.8859 O   0  0  0  0  0  0  0  0  0  0  0  0
    7.3127   97.8101   11.8723 C   0  0  1  0  0  0  0  0  0  0  0  0
    6.1258   97.2743   12.4862 O   0  0  0  0  0  0  0  0  0  0  0  0
    8.5376   97.0119   12.3270 C   0  0  0  0  0  0  0  0  0  0  0  0
    4.4084   96.7458   10.2097 N   0  0  0  0  0  0  0  0  0  0  0  0
  1  2  1  1  0  0  0
  1  3  1  0  0  0  0
  1 10  1  0  0  0  0
  3  4  1  1  0  0  0
  3  5  1  0  0  0  0
  5  6  1  6  0  0  0
  5  7  1  0  0  0  0
  7  8  1  1  0  0  0
  7  9  1  0  0  0  0
  9 10  1  0  0  0  0
  9 11  1  6  0  0  0
 11 12  1  0  0  0  0
 13 14  1  1  0  0  0
 13 15  1  0  0  0  0
 13 21  1  0  0  0  0
 16 15  1  0  0  0  0
 16 17  1  1  0  0  0
 18  2  1  6  0  0  0
 18 16  1  0  0  0  0
 19 18  1  0  0  0  0
 19 20  1  6  0  0  0
 21 19  1  0  0  0  0
 21 22  1  6  0  0  0
 23 20  1  1  0  0  0
 23 24  1  0  0  0  0
 23 28  1  0  0  0  0
 24 25  1  1  0  0  0
 24 26  1  0  0  0  0
 26 27  1  0  0  0  0
 26 32  1  1  0  0  0
 27 28  1  0  0  0  0
 27 29  1  1  0  0  0
 29 30  1  0  0  0  0
 31 32  1  1  0  0  0
 31 40  1  0  0  0  0
 33 31  1  0  0  0  0
 33 42  1  6  0  0  0
 35 33  1  0  0  0  0
 35 36  1  1  0  0  0
 37 35  1  0  0  0  0
 37 38  1  1  0  0  0
 37 39  1  0  0  0  0
 39 40  1  0  0  0  0
 39 41  1  6  0  0  0
 41 34  1  0  0  0  0
M  END
>  <CHROM.1>
171.19208122,-71.94416191,-164.96955641,158.25490011,156.39698280,104.10076707
-38.60455367,80.37806948,64.58293210,3.52966781,94.80140159,14.98642571,2.90683247
1.08158336,0.98570648

>  <Name>
2fcy_lig

>  <RI>
9.29634e+06

>  <Rbt.Current_Directory>
/home/itssahil/PROJECTS/Mol_Feturizer/New_Systems/rnas/2fcy

>  <Rbt.Executable>
rbdock ($Id: //depot/dev/client3/rdock/2013.1/src/exe/rbdock.cxx#4 $)

>  <Rbt.Library>
libRbt.so (2013.1, Build901 2013/11/27)

>  <Rbt.Parameter_File>
/export/apps/rDock/src/rDock_2013.1_src/data/scripts/dock_solv.prm

>  <Rbt.Receptor>
prm/blind_docking_100.prm

>  <SCORE>
-6.83855

>  <SCORE.INTER>
-13.4699

>  <SCORE.INTER.CONST>
1

>  <SCORE.INTER.POLAR>
-0.795953

>  <SCORE.INTER.ROT>
9

>  <SCORE.INTER.SOLV>
25.9486

>  <SCORE.INTER.VDW>
-24.5763

>  <SCORE.INTER.norm>
-0.320713

>  <SCORE.INTRA>
3.20618

>  <SCORE.INTRA.DIHEDRAL>
-1.52113

>  <SCORE.INTRA.DIHEDRAL.0>
17.3446

>  <SCORE.INTRA.POLAR>
0

>  <SCORE.INTRA.POLAR.0>
0

>  <SCORE.INTRA.REPUL>
0.00248026

>  <SCORE.INTRA.REPUL.0>
0

>  <SCORE.INTRA.SOLV>
-0.421446

>  <SCORE.INTRA.SOLV.lig_0>
-112.452

>  <SCORE.INTRA.VDW>
4.16506

>  <SCORE.INTRA.VDW.0>
-5.95059

>  <SCORE.INTRA.norm>
0.0763375

>  <SCORE.RESTR>
3.4252

>  <SCORE.RESTR.CAVITY>
3.4252

>  <SCORE.RESTR.norm>
0.0815525

>  <SCORE.SYSTEM>
0

>  <SCORE.SYSTEM.CONST>
0

>  <SCORE.SYSTEM.DIHEDRAL>
0

>  <SCORE.SYSTEM.SOLV>
0

>  <SCORE.SYSTEM.norm>
0

>  <SCORE.heavy>
42

>  <SCORE.norm>
-0.162823

>  <RMSD>
7.957

$$$$
2fcy_lig
 OpenBabel11021811433D
libRbt.so/2013.1/901 2013/11/27
 42 45  0  0  0  0  0  0  0  0999 V2000
   -3.5161   93.3687    9.8485 C   0  0  2  0  0  0  0  0  0  0  0  0
   -3.6881   92.3669    8.8316 O   0  0  0  0  0  0  0  0  0  0  0  0
   -4.9127   93.9399   10.0979 C   0  0  2  0  0  0  0  0  0  0  0  0
   -5.8228   92.8336   10.4243 N   0  0  0  0  0  0  0  0  0  0  0  0
   -5.4082   94.6509    8.8360 C   0  0  1  0  0  0  0  0  0  0  0  0
   -6.7128   95.1979    9.0466 O   0  0  0  0  0  0  0  0  0  0  0  0
   -4.4201   95.7536    8.4545 C   0  0  2  0  0  0  0  0  0  0  0  0
   -4.8329   96.3504    7.2253 O   0  0  0  0  0  0  0  0  0  0  0  0
   -3.0416   95.1270    8.2393 C   0  0  2  0  0  0  0  0  0  0  0  0
   -2.6380   94.4340    9.4307 O   0  0  0  0  0  0  0  0  0  0  0  0
   -2.0408   96.2238    7.8663 C   0  0  0  0  0  0  0  0  0  0  0  0
   -0.7084   95.6559    7.6116 N   0  0  0  0  0  0  0  0  0  0  0  0
   -0.0361   90.5239    9.7871 C   0  0  2  0  0  0  0  0  0  0  0  0
    1.1700   89.6930    9.9203 N   0  0  0  0  0  0  0  0  0  0  0  0
   -1.2991   89.6876   10.0026 C   0  0  0  0  0  0  0  0  0  0  0  0
   -2.5084   90.6280    9.9838 C   0  0  2  0  0  0  0  0  0  0  0  0
   -3.7411   89.8358   10.1017 N   0  0  0  0  0  0  0  0  0  0  0  0
   -2.5970   91.4403    8.6886 C   0  0  2  0  0  0  0  0  0  0  0  0
   -1.2963   92.1177    8.2720 C   0  0  2  0  0  0  0  0  0  0  0  0
   -1.4738   92.4771    6.8923 O   0  0  0  0  0  0  0  0  0  0  0  0
   -0.0939   91.1734    8.4023 C   0  0  1  0  0  0  0  0  0  0  0  0
    1.1328   91.8796    8.1983 O   0  0  0  0  0  0  0  0  0  0  0  0
   -1.5723   91.3798    5.9701 C   0  0  1  0  0  0  0  0  0  0  0  0
   -1.9668   91.9547    4.6087 C   0  0  2  0  0  0  0  0  0  0  0  0
   -3.3849   92.1264    4.5519 O   0  0  0  0  0  0  0  0  0  0  0  0
   -1.5604   90.7755    3.7297 C   0  0  1  0  0  0  0  0  0  0  0  0
   -0.1959   90.4522    4.3179 C   0  0  2  0  0  0  0  0  0  0  0  0
   -0.3140   90.7166    5.7310 O   0  0  0  0  0  0  0  0  0  0  0  0
    0.8594   91.3458    3.6561 C   0  0  0  0  0  0  0  0  0  0  0  0
    0.5793   92.7256    3.9089 O   0  0  0  0  0  0  0  0  0  0  0  0
   -3.4847   89.6964    2.9352 C   0  0  2  0  0  0  0  0  0  0  0  0
   -2.4610   89.6767    3.9418 O   0  0  0  0  0  0  0  0  0  0  0  0
   -4.6237   88.7570    3.3442 C   0  0  1  0  0  0  0  0  0  0  0  0
   -2.0097   89.8614   -0.8892 N   0  0  0  0  0  0  0  0  0  0  0  0
   -5.6804   88.6843    2.2367 C   0  0  1  0  0  0  0  0  0  0  0  0
   -6.3602   89.9379    2.1162 O   0  0  0  0  0  0  0  0  0  0  0  0
   -5.0134   88.3245    0.9063 C   0  0  2  0  0  0  0  0  0  0  0  0
   -4.4814   86.9992    1.0068 O   0  0  0  0  0  0  0  0  0  0  0  0
   -3.8879   89.3215    0.6103 C   0  0  1  0  0  0  0  0  0  0  0  0
   -2.9187   89.2968    1.6746 O   0  0  0  0  0  0  0  0  0  0  0  0
   -3.2013   89.0161   -0.7237 C   0  0  0  0  0  0  0  0  0  0  0  0
   -4.0726   87.4090    3.5496 N   0  0  0  0  0  0  0  0  0  0  0  0
  1  2  1  6  0  0  0
  1  3  1  0  0  0  0
  1 10  1  0  0  0  0
  3  4  1  6  0  0  0
  3  5  1  0  0  0  0
  5  6  1  1  0  0  0
  5  7  1  0  0  0  0
  7  8  1  6  0  0  0
  7  9  1  0  0  0  0
  9 10  1  0  0  0  0
  9 11  1  1  0  0  0
 11 12  1  0  0  0  0
 13 14  1  6  0  0  0
 13 15  1  0  0  0  0
 13 21  1  0  0  0  0
 16 15  1  0  0  0  0
 16 17  1  6  0  0  0
 18  2  1  1  0  0  0
 18 16  1  0  0  0  0
 19 18  1  0  0  0  0
 19 20  1  6  0  0  0
 21 19  1  0  0  0  0
 21 22  1  1  0  0  0
 23 20  1  1  0  0  0
 23 24  1  0  0  0  0
 23 28  1  0  0  0  0
 24 25  1  1  0  0  0
 24 26  1  0  0  0  0
 26 27  1  0  0  0  0
 26 32  1  1  0  0  0
 27 28  1  0  0  0  0
 27 29  1  6  0  0  0
 29 30  1  0  0  0  0
 31 32  1  1  0  0  0
 31 40  1  0  0  0  0
 33 31  1  0  0  0  0
 33 42  1  6  0  0  0
 35 33  1  0  0  0  0
 35 36  1  6  0  0  0
 37 35  1  0  0  0  0
 37 38  1  1  0  0  0
 37 39  1  0  0  0  0
 39 40  1  0  0  0  0
 39 41  1  6  0  0  0
 41 34  1  0  0  0  0
M  END
>  <CHROM.1>
-163.54691886,-178.32877412,64.96027024,-67.02332314,171.54605525,95.84968748
61.12949570,-166.26470149,-171.87629976,-2.72020854,91.53560784,6.00456407
1.50565622,-0.37532114,1.02013566

>  <Name>
2fcy_lig

>  <RI>
2.89127e+07

>  <Rbt.Current_Directory>
/home/itssahil/PROJECTS/Mol_Feturizer/New_Systems/rnas/2fcy

>  <Rbt.Executable>
rbdock ($Id: //depot/dev/client3/rdock/2013.1/src/exe/rbdock.cxx#4 $)

>  <Rbt.Library>
libRbt.so (2013.1, Build901 2013/11/27)

>  <Rbt.Parameter_File>
/export/apps/rDock/src/rDock_2013.1_src/data/scripts/dock_solv.prm

>  <Rbt.Receptor>
prm/pocket_docking_7.prm

>  <SCORE>
-9.30922

>  <SCORE.INTER>
-6.87789

>  <SCORE.INTER.CONST>
1

>  <SCORE.INTER.POLAR>
-1.91432

>  <SCORE.INTER.ROT>
9

>  <SCORE.INTER.SOLV>
15.5151

>  <SCORE.INTER.VDW>
-12.9759

>  <SCORE.INTER.norm>
-0.163759

>  <SCORE.INTRA>
-2.43133

>  <SCORE.INTRA.DIHEDRAL>
-9.36015

>  <SCORE.INTRA.DIHEDRAL.0>
17.3446

>  <SCORE.INTRA.POLAR>
0

>  <SCORE.INTRA.POLAR.0>
0

>  <SCORE.INTRA.REPUL>
0

>  <SCORE.INTRA.REPUL.0>
0

>  <SCORE.INTRA.SOLV>
-2.18461

>  <SCORE.INTRA.SOLV.lig_0>
-112.452

>  <SCORE.INTRA.VDW>
3.34105

>  <SCORE.INTRA.VDW.0>
-5.95059

>  <SCORE.INTRA.norm>
-0.0578888

>  <SCORE.RESTR>
0

>  <SCORE.RESTR.CAVITY>
0

>  <SCORE.RESTR.norm>
0

>  <SCORE.SYSTEM>
0

>  <SCORE.SYSTEM.CONST>
0

>  <SCORE.SYSTEM.DIHEDRAL>
0

>  <SCORE.SYSTEM.SOLV>
0

>  <SCORE.SYSTEM.norm>
0

>  <SCORE.heavy>
42

>  <SCORE.norm>
-0.221648

>  <RMSD>
7.974

$$$$
2fcy_lig
 OpenBabel11021811433D
libRbt.so/2013.1/901 2013/11/27
 42 45  0  0  0  0  0  0  0  0999 V2000
    0.3057   91.5661   17.6631 C   0  0  2  0  0  0  0  0  0  0  0  0
    0.8982   92.8105   17.2537 O   0  0  0  0  0  0  0  0  0  0  0  0
    1.0928   90.4793   16.9293 C   0  0  2  0  0  0  0  0  0  0  0  0
    2.5211   90.6478   17.2297 N   0  0  0  0  0  0  0  0  0  0  0  0
    0.8705   90.6160   15.4210 C   0  0  1  0  0  0  0  0  0  0  0  0
    1.5944   89.6061   14.7125 O   0  0  0  0  0  0  0  0  0  0  0  0
   -0.6247   90.5156   15.1178 C   0  0  2  0  0  0  0  0  0  0  0  0
   -0.8382   90.7398   13.7243 O   0  0  0  0  0  0  0  0  0  0  0  0
   -1.3592   91.6103   15.8933 C   0  0  2  0  0  0  0  0  0  0  0  0
   -1.0859   91.4704   17.2963 O   0  0  0  0  0  0  0  0  0  0  0  0
   -2.8597   91.5134   15.6053 C   0  0  0  0  0  0  0  0  0  0  0  0
   -3.5854   92.6406   16.2098 N   0  0  0  0  0  0  0  0  0  0  0  0
    2.3153   95.6934   19.9606 C   0  0  2  0  0  0  0  0  0  0  0  0
    3.0098   96.5093   20.9680 N   0  0  0  0  0  0  0  0  0  0  0  0
    1.8612   94.3606   20.5592 C   0  0  0  0  0  0  0  0  0  0  0  0
    1.0333   93.6168   19.5063 C   0  0  2  0  0  0  0  0  0  0  0  0
    0.6592   92.2945   20.0283 N   0  0  0  0  0  0  0  0  0  0  0  0
    1.8048   93.4027   18.2008 C   0  0  2  0  0  0  0  0  0  0  0  0
    2.4963   94.6485   17.6585 C   0  0  2  0  0  0  0  0  0  0  0  0
    3.4503   94.1714   16.6960 O   0  0  0  0  0  0  0  0  0  0  0  0
    3.2293   95.4209   18.7633 C   0  0  1  0  0  0  0  0  0  0  0  0
    3.7014   96.6802   18.2771 O   0  0  0  0  0  0  0  0  0  0  0  0
    3.5010   94.8964   15.4565 C   0  0  1  0  0  0  0  0  0  0  0  0
    3.7532   96.3673   15.7918 C   0  0  2  0  0  0  0  0  0  0  0  0
    2.5153   97.0065   16.1122 O   0  0  0  0  0  0  0  0  0  0  0  0
    4.2323   96.8408   14.4227 C   0  0  1  0  0  0  0  0  0  0  0  0
    5.1962   95.7201   14.0664 C   0  0  2  0  0  0  0  0  0  0  0  0
    4.6129   94.5215   14.6178 O   0  0  0  0  0  0  0  0  0  0  0  0
    6.5669   96.0233   14.6825 C   0  0  0  0  0  0  0  0  0  0  0  0
    7.0630   97.2793   14.2105 O   0  0  0  0  0  0  0  0  0  0  0  0
    3.4547   97.6993   12.3838 C   0  0  2  0  0  0  0  0  0  0  0  0
    3.1316   96.8557   13.4998 O   0  0  0  0  0  0  0  0  0  0  0  0
    2.3570   97.5860   11.3211 C   0  0  1  0  0  0  0  0  0  0  0  0
    7.5061   98.0143   11.3785 N   0  0  0  0  0  0  0  0  0  0  0  0
    2.7311   98.3994   10.0773 C   0  0  1  0  0  0  0  0  0  0  0  0
    2.7108   99.7991   10.3751 O   0  0  0  0  0  0  0  0  0  0  0  0
    4.1244   97.9916    9.5907 C   0  0  2  0  0  0  0  0  0  0  0  0
    4.0727   96.6307    9.1491 O   0  0  0  0  0  0  0  0  0  0  0  0
    5.1307   98.1341   10.7375 C   0  0  1  0  0  0  0  0  0  0  0  0
    4.7303   97.3079   11.8465 O   0  0  0  0  0  0  0  0  0  0  0  0
    6.5469   97.7569   10.2943 C   0  0  0  0  0  0  0  0  0  0  0  0
    2.2230   96.1745   10.9299 N   0  0  0  0  0  0  0  0  0  0  0  0
  1  2  1  6  0  0  0
  1  3  1  0  0  0  0
  1 10  1  0  0  0  0
  3  4  1  6  0  0  0
  3  5  1  0  0  0  0
  5  6  1  6  0  0  0
  5  7  1  0  0  0  0
  7  8  1  6  0  0  0
  7  9  1  0  0  0  0
  9 10  1  0  0  0  0
  9 11  1  1  0  0  0
 11 12  1  0  0  0  0
 13 14  1  1  0  0  0
 13 15  1  0  0  0  0
 13 21  1  0  0  0  0
 16 15  1  0  0  0  0
 16 17  1  1  0  0  0
 18  2  1  6  0  0  0
 18 16  1  0  0  0  0
 19 18  1  0  0  0  0
 19 20  1  6  0  0  0
 21 19  1  0  0  0  0
 21 22  1  6  0  0  0
 23 20  1  1  0  0  0
 23 24  1  0  0  0  0
 23 28  1  0  0  0  0
 24 25  1  6  0  0  0
 24 26  1  0  0  0  0
 26 27  1  0  0  0  0
 26 32  1  6  0  0  0
 27 28  1  0  0  0  0
 27 29  1  1  0  0  0
 29 30  1  0  0  0  0
 31 32  1  1  0  0  0
 31 40  1  0  0  0  0
 33 31  1  0  0  0  0
 33 42  1  6  0  0  0
 35 33  1  0  0  0  0
 35 36  1  1  0  0  0
 37 35  1  0  0  0  0
 37 38  1  1  0  0  0
 37 39  1  0  0  0  0
 39 40  1  0  0  0  0
 39 41  1  6  0  0  0
 41 34  1  0  0  0  0
M  END
>  <CHROM.1>
-101.25708854,-173.56824714,-57.85162431,135.47266904,55.40875676,160.75858821
-58.31751149,173.27979296,175.10354788,2.55554732,94.81816006,15.07789487
2.30806292,0.79819559,1.72822312

>  <Name>
2fcy_lig

>  <RI>
9.29634e+06

>  <Rbt.Current_Directory>
/home/itssahil/PROJECTS/Mol_Feturizer/New_Systems/rnas/2fcy

>  <Rbt.Executable>
rbdock ($Id: //depot/dev/client3/rdock/2013.1/src/exe/rbdock.cxx#4 $)

>  <Rbt.Library>
libRbt.so (2013.1, Build901 2013/11/27)

>  <Rbt.Parameter_File>
/export/apps/rDock/src/rDock_2013.1_src/data/scripts/dock_solv.prm

>  <Rbt.Receptor>
prm/blind_docking_100.prm

>  <SCORE>
-6.16228

>  <SCORE.INTER>
-19.4833

>  <SCORE.INTER.CONST>
1

>  <SCORE.INTER.POLAR>
-1.54628

>  <SCORE.INTER.ROT>
9

>  <SCORE.INTER.SOLV>
27.491

>  <SCORE.INTER.VDW>
-26.5982

>  <SCORE.INTER.norm>
-0.463887

>  <SCORE.INTRA>
7.61302

>  <SCORE.INTRA.DIHEDRAL>
-2.89437

>  <SCORE.INTRA.DIHEDRAL.0>
17.3446

>  <SCORE.INTRA.POLAR>
0

>  <SCORE.INTRA.POLAR.0>
0

>  <SCORE.INTRA.REPUL>
0.0284355

>  <SCORE.INTRA.REPUL.0>
0

>  <SCORE.INTRA.SOLV>
0.895005

>  <SCORE.INTRA.SOLV.lig_0>
-112.452

>  <SCORE.INTRA.VDW>
8.47052

>  <SCORE.INTRA.VDW.0>
-5.95059

>  <SCORE.INTRA.norm>
0.181262

>  <SCORE.RESTR>
5.70796

>  <SCORE.RESTR.CAVITY>
5.70796

>  <SCORE.RESTR.norm>
0.135904

>  <SCORE.SYSTEM>
0

>  <SCORE.SYSTEM.CONST>
0

>  <SCORE.SYSTEM.DIHEDRAL>
0

>  <SCORE.SYSTEM.SOLV>
0

>  <SCORE.SYSTEM.norm>
0

>  <SCORE.heavy>
42

>  <SCORE.norm>
-0.146721

>  <RMSD>
7.991

$$$$
2fcy_lig
 OpenBabel11021811433D
libRbt.so/2013.1/901 2013/11/27
 42 45  0  0  0  0  0  0  0  0999 V2000
   -1.0747   87.3069    5.7794 C   0  0  2  0  0  0  0  0  0  0  0  0
   -1.9607   88.2932    6.3357 O   0  0  0  0  0  0  0  0  0  0  0  0
   -1.6679   85.9550    6.1789 C   0  0  2  0  0  0  0  0  0  0  0  0
   -3.0648   85.9012    5.7267 N   0  0  0  0  0  0  0  0  0  0  0  0
   -1.6199   85.8045    7.7015 C   0  0  1  0  0  0  0  0  0  0  0  0
   -2.1662   84.5440    8.0996 O   0  0  0  0  0  0  0  0  0  0  0  0
   -0.1732   85.9360    8.1785 C   0  0  2  0  0  0  0  0  0  0  0  0
   -0.1424   85.8921    9.6050 O   0  0  0  0  0  0  0  0  0  0  0  0
    0.3710   87.2941    7.7328 C   0  0  2  0  0  0  0  0  0  0  0  0
    0.2645   87.4088    6.3053 O   0  0  0  0  0  0  0  0  0  0  0  0
    1.8234   87.4332    8.1965 C   0  0  0  0  0  0  0  0  0  0  0  0
    2.6812   86.4303    7.5477 N   0  0  0  0  0  0  0  0  0  0  0  0
    0.0761   91.4437    4.4457 C   0  0  2  0  0  0  0  0  0  0  0  0
    0.5578   92.6977    3.8469 N   0  0  0  0  0  0  0  0  0  0  0  0
   -1.2523   91.0166    3.8182 C   0  0  0  0  0  0  0  0  0  0  0  0
   -1.6334   89.6449    4.3841 C   0  0  2  0  0  0  0  0  0  0  0  0
   -2.9503   89.2531    3.8615 N   0  0  0  0  0  0  0  0  0  0  0  0
   -1.7192   89.6470    5.9132 C   0  0  2  0  0  0  0  0  0  0  0  0
   -0.5250   90.2821    6.6168 C   0  0  2  0  0  0  0  0  0  0  0  0
   -0.9609   90.5366    7.9619 O   0  0  0  0  0  0  0  0  0  0  0  0
   -0.1105   91.6038    5.9565 C   0  0  1  0  0  0  0  0  0  0  0  0
    1.1224   92.0809    6.5019 O   0  0  0  0  0  0  0  0  0  0  0  0
   -0.1620   91.4668    8.7106 C   0  0  1  0  0  0  0  0  0  0  0  0
   -1.1058   92.2665    9.6103 C   0  0  2  0  0  0  0  0  0  0  0  0
   -1.6711   93.3513    8.8705 O   0  0  0  0  0  0  0  0  0  0  0  0
   -0.0810   92.8061   10.6038 C   0  0  1  0  0  0  0  0  0  0  0  0
    0.7271   91.5471   10.8757 C   0  0  2  0  0  0  0  0  0  0  0  0
    0.7547   90.8303    9.6242 O   0  0  0  0  0  0  0  0  0  0  0  0
    0.0385   90.7387   11.9814 C   0  0  0  0  0  0  0  0  0  0  0  0
    0.0831   91.4470   13.2235 O   0  0  0  0  0  0  0  0  0  0  0  0
    0.0229   95.0303    9.8687 C   0  0  2  0  0  0  0  0  0  0  0  0
    0.7445   93.7928    9.9647 O   0  0  0  0  0  0  0  0  0  0  0  0
    0.0791   95.5458    8.4271 C   0  0  1  0  0  0  0  0  0  0  0  0
    0.3640   97.5461   13.1538 N   0  0  0  0  0  0  0  0  0  0  0  0
   -0.5979   96.9166    8.3227 C   0  0  1  0  0  0  0  0  0  0  0  0
   -2.0074   96.7917    8.5371 O   0  0  0  0  0  0  0  0  0  0  0  0
    0.0028   97.8718    9.3576 C   0  0  2  0  0  0  0  0  0  0  0  0
    1.3752   98.1031    9.0220 O   0  0  0  0  0  0  0  0  0  0  0  0
   -0.0988   97.2466   10.7530 C   0  0  1  0  0  0  0  0  0  0  0  0
    0.5969   95.9863   10.7772 O   0  0  0  0  0  0  0  0  0  0  0  0
    0.4713   98.1747   11.8290 C   0  0  0  0  0  0  0  0  0  0  0  0
    1.4885   95.6926    8.0332 N   0  0  0  0  0  0  0  0  0  0  0  0
  1  2  1  1  0  0  0
  1  3  1  0  0  0  0
  1 10  1  0  0  0  0
  3  4  1  1  0  0  0
  3  5  1  0  0  0  0
  5  6  1  6  0  0  0
  5  7  1  0  0  0  0
  7  8  1  1  0  0  0
  7  9  1  0  0  0  0
  9 10  1  0  0  0  0
  9 11  1  6  0  0  0
 11 12  1  0  0  0  0
 13 14  1  6  0  0  0
 13 15  1  0  0  0  0
 13 21  1  0  0  0  0
 16 15  1  0  0  0  0
 16 17  1  6  0  0  0
 18  2  1  1  0  0  0
 18 16  1  0  0  0  0
 19 18  1  0  0  0  0
 19 20  1  1  0  0  0
 21 19  1  0  0  0  0
 21 22  1  1  0  0  0
 23 20  1  1  0  0  0
 23 24  1  0  0  0  0
 23 28  1  0  0  0  0
 24 25  1  6  0  0  0
 24 26  1  0  0  0  0
 26 27  1  0  0  0  0
 26 32  1  6  0  0  0
 27 28  1  0  0  0  0
 27 29  1  1  0  0  0
 29 30  1  0  0  0  0
 31 32  1  6  0  0  0
 31 40  1  0  0  0  0
 33 31  1  0  0  0  0
 33 42  1  1  0  0  0
 35 33  1  0  0  0  0
 35 36  1  1  0  0  0
 37 35  1  0  0  0  0
 37 38  1  6  0  0  0
 37 39  1  0  0  0  0
 39 40  1  0  0  0  0
 39 41  1  1  0  0  0
 41 34  1  0  0  0  0
M  END
>  <CHROM.1>
-170.72705972,63.91384851,50.25214310,-162.85526066,144.52889928,77.68923693
-66.49189731,-129.02086452,-179.80622475,-0.30596934,91.42238864,8.18743873
2.13438142,1.36246464,2.93696619

>  <Name>
2fcy_lig

>  <RI>
2.32494e+07

>  <Rbt.Current_Directory>
/home/itssahil/PROJECTS/Mol_Feturizer/New_Systems/rnas/2fcy

>  <Rbt.Executable>
rbdock ($Id: //depot/dev/client3/rdock/2013.1/src/exe/rbdock.cxx#4 $)

>  <Rbt.Library>
libRbt.so (2013.1, Build901 2013/11/27)

>  <Rbt.Parameter_File>
/export/apps/rDock/src/rDock_2013.1_src/data/scripts/dock_solv.prm

>  <Rbt.Receptor>
prm/pocket_docking_8.prm

>  <SCORE>
-16.168

>  <SCORE.INTER>
-19.6392

>  <SCORE.INTER.CONST>
1

>  <SCORE.INTER.POLAR>
-4.42371

>  <SCORE.INTER.ROT>
9

>  <SCORE.INTER.SOLV>
20.9515

>  <SCORE.INTER.VDW>
-14.9309

>  <SCORE.INTER.norm>
-0.4676

>  <SCORE.INTRA>
3.47118

>  <SCORE.INTRA.DIHEDRAL>
-1.65311

>  <SCORE.INTRA.DIHEDRAL.0>
17.3446

>  <SCORE.INTRA.POLAR>
0

>  <SCORE.INTRA.POLAR.0>
0

>  <SCORE.INTRA.REPUL>
0

>  <SCORE.INTRA.REPUL.0>
0

>  <SCORE.INTRA.SOLV>
-2.09614

>  <SCORE.INTRA.SOLV.lig_0>
-112.452

>  <SCORE.INTRA.VDW>
5.3458

>  <SCORE.INTRA.VDW.0>
-5.95059

>  <SCORE.INTRA.norm>
0.082647

>  <SCORE.RESTR>
0

>  <SCORE.RESTR.CAVITY>
0

>  <SCORE.RESTR.norm>
0

>  <SCORE.SYSTEM>
0

>  <SCORE.SYSTEM.CONST>
0

>  <SCORE.SYSTEM.DIHEDRAL>
0

>  <SCORE.SYSTEM.SOLV>
0

>  <SCORE.SYSTEM.norm>
0

>  <SCORE.heavy>
42

>  <SCORE.norm>
-0.384953

>  <RMSD>
8.017

$$$$
2fcy_lig
 OpenBabel11021811433D
libRbt.so/2013.1/901 2013/11/27
 42 45  0  0  0  0  0  0  0  0999 V2000
   -1.2527   89.2214    9.2218 C   0  0  2  0  0  0  0  0  0  0  0  0
   -0.7111   89.5153    7.9228 O   0  0  0  0  0  0  0  0  0  0  0  0
   -0.4993   87.9818    9.7063 C   0  0  2  0  0  0  0  0  0  0  0  0
    0.9432   88.2558    9.6515 N   0  0  0  0  0  0  0  0  0  0  0  0
   -0.8267   86.7952    8.7963 C   0  0  1  0  0  0  0  0  0  0  0  0
   -0.1359   85.6213    9.2327 O   0  0  0  0  0  0  0  0  0  0  0  0
   -2.3373   86.5587    8.7957 C   0  0  2  0  0  0  0  0  0  0  0  0
   -2.6496   85.5154    7.8728 O   0  0  0  0  0  0  0  0  0  0  0  0
   -3.0355   87.8352    8.3241 C   0  0  2  0  0  0  0  0  0  0  0  0
   -2.6644   88.9287    9.1779 O   0  0  0  0  0  0  0  0  0  0  0  0
   -4.5503   87.6136    8.3289 C   0  0  0  0  0  0  0  0  0  0  0  0
   -5.2618   88.8324    7.9156 N   0  0  0  0  0  0  0  0  0  0  0  0
    0.1284   93.0026    5.7363 C   0  0  2  0  0  0  0  0  0  0  0  0
    0.1731   94.3135    5.0712 N   0  0  0  0  0  0  0  0  0  0  0  0
   -1.1293   92.2306    5.3325 C   0  0  0  0  0  0  0  0  0  0  0  0
   -1.0533   90.8299    5.9485 C   0  0  2  0  0  0  0  0  0  0  0  0
   -2.2924   90.0989    5.6466 N   0  0  0  0  0  0  0  0  0  0  0  0
   -0.8930   90.8690    7.4711 C   0  0  2  0  0  0  0  0  0  0  0  0
    0.1958   91.8112    7.9724 C   0  0  2  0  0  0  0  0  0  0  0  0
   -0.0715   91.9990    9.3715 O   0  0  0  0  0  0  0  0  0  0  0  0
    0.1494   93.1683    7.2578 C   0  0  1  0  0  0  0  0  0  0  0  0
    1.2903   93.9614    7.5963 O   0  0  0  0  0  0  0  0  0  0  0  0
    0.8841   92.7987   10.0867 C   0  0  1  0  0  0  0  0  0  0  0  0
    0.1077   93.8716   10.8520 C   0  0  2  0  0  0  0  0  0  0  0  0
   -0.1655   94.9764    9.9868 O   0  0  0  0  0  0  0  0  0  0  0  0
    1.1842   94.2665   11.8588 C   0  0  1  0  0  0  0  0  0  0  0  0
    1.6744   92.8930   12.2893 C   0  0  2  0  0  0  0  0  0  0  0  0
    1.5931   92.0683   11.1086 O   0  0  0  0  0  0  0  0  0  0  0  0
    0.7741   92.3696   13.4143 C   0  0  0  0  0  0  0  0  0  0  0  0
    1.1504   91.0390   13.7811 O   0  0  0  0  0  0  0  0  0  0  0  0
    1.8128   96.3241   10.9263 C   0  0  2  0  0  0  0  0  0  0  0  0
    2.2381   94.9785   11.1910 O   0  0  0  0  0  0  0  0  0  0  0  0
    2.8827   97.0467   10.1014 C   0  0  1  0  0  0  0  0  0  0  0  0
   -0.3549   98.2628   13.9483 N   0  0  0  0  0  0  0  0  0  0  0  0
    2.4963   98.5150    9.8935 C   0  0  1  0  0  0  0  0  0  0  0  0
    1.3509   98.6109    9.0408 O   0  0  0  0  0  0  0  0  0  0  0  0
    2.1944   99.1681   11.2451 C   0  0  2  0  0  0  0  0  0  0  0  0
    3.4010   99.2015   12.0148 O   0  0  0  0  0  0  0  0  0  0  0  0
    1.1242   98.3545   11.9807 C   0  0  1  0  0  0  0  0  0  0  0  0
    1.5820   97.0031   12.1731 O   0  0  0  0  0  0  0  0  0  0  0  0
    0.7714   98.9802   13.3328 C   0  0  0  0  0  0  0  0  0  0  0  0
    4.1558   97.0010   10.8364 N   0  0  0  0  0  0  0  0  0  0  0  0
  1  2  1  6  0  0  0
  1  3  1  0  0  0  0
  1 10  1  0  0  0  0
  3  4  1  6  0  0  0
  3  5  1  0  0  0  0
  5  6  1  1  0  0  0
  5  7  1  0  0  0  0
  7  8  1  6  0  0  0
  7  9  1  0  0  0  0
  9 10  1  0  0  0  0
  9 11  1  1  0  0  0
 11 12  1  0  0  0  0
 13 14  1  6  0  0  0
 13 15  1  0  0  0  0
 13 21  1  0  0  0  0
 16 15  1  0  0  0  0
 16 17  1  1  0  0  0
 18  2  1  6  0  0  0
 18 16  1  0  0  0  0
 19 18  1  0  0  0  0
 19 20  1  1  0  0  0
 21 19  1  0  0  0  0
 21 22  1  6  0  0  0
 23 20  1  1  0  0  0
 23 24  1  0  0  0  0
 23 28  1  0  0  0  0
 24 25  1  6  0  0  0
 24 26  1  0  0  0  0
 26 27  1  0  0  0  0
 26 32  1  6  0  0  0
 27 28  1  0  0  0  0
 27 29  1  1  0  0  0
 29 30  1  0  0  0  0
 31 32  1  1  0  0  0
 31 40  1  0  0  0  0
 33 31  1  0  0  0  0
 33 42  1  1  0  0  0
 35 33  1  0  0  0  0
 35 36  1  6  0  0  0
 37 35  1  0  0  0  0
 37 38  1  1  0  0  0
 37 39  1  0  0  0  0
 39 40  1  0  0  0  0
 39 41  1  1  0  0  0
 41 34  1  0  0  0  0
M  END
>  <CHROM.1>
-158.49841189,178.45697040,-147.23583593,176.41544761,129.15041434,76.90084377
176.01537278,-174.82840776,173.95915444,0.11531028,92.67762967,9.60705377
-2.82475951,-1.18632048,-0.90242753

>  <Name>
2fcy_lig

>  <RI>
2.89127e+07

>  <Rbt.Current_Directory>
/home/itssahil/PROJECTS/Mol_Feturizer/New_Systems/rnas/2fcy

>  <Rbt.Executable>
rbdock ($Id: //depot/dev/client3/rdock/2013.1/src/exe/rbdock.cxx#4 $)

>  <Rbt.Library>
libRbt.so (2013.1, Build901 2013/11/27)

>  <Rbt.Parameter_File>
/export/apps/rDock/src/rDock_2013.1_src/data/scripts/dock_solv.prm

>  <Rbt.Receptor>
prm/pocket_docking_7.prm

>  <SCORE>
-21.7526

>  <SCORE.INTER>
-21.8598

>  <SCORE.INTER.CONST>
1

>  <SCORE.INTER.POLAR>
-3.49392

>  <SCORE.INTER.ROT>
9

>  <SCORE.INTER.SOLV>
23.5812

>  <SCORE.INTER.VDW>
-20.3872

>  <SCORE.INTER.norm>
-0.520472

>  <SCORE.INTRA>
0.107234

>  <SCORE.INTRA.DIHEDRAL>
-2.48074

>  <SCORE.INTRA.DIHEDRAL.0>
17.3446

>  <SCORE.INTRA.POLAR>
0

>  <SCORE.INTRA.POLAR.0>
0

>  <SCORE.INTRA.REPUL>
0

>  <SCORE.INTRA.REPUL.0>
0

>  <SCORE.INTRA.SOLV>
-3.15015

>  <SCORE.INTRA.SOLV.lig_0>
-112.452

>  <SCORE.INTRA.VDW>
2.92268

>  <SCORE.INTRA.VDW.0>
-5.95059

>  <SCORE.INTRA.norm>
0.0025532

>  <SCORE.RESTR>
0

>  <SCORE.RESTR.CAVITY>
0

>  <SCORE.RESTR.norm>
0

>  <SCORE.SYSTEM>
0

>  <SCORE.SYSTEM.CONST>
0

>  <SCORE.SYSTEM.DIHEDRAL>
0

>  <SCORE.SYSTEM.SOLV>
0

>  <SCORE.SYSTEM.norm>
0

>  <SCORE.heavy>
42

>  <SCORE.norm>
-0.517918

>  <RMSD>
8.026

$$$$
2fcy_lig
 OpenBabel11021811433D
libRbt.so/2013.1/901 2013/11/27
 42 45  0  0  0  0  0  0  0  0999 V2000
    0.0793   91.3581    9.7250 C   0  0  2  0  0  0  0  0  0  0  0  0
   -0.8325   92.0442    8.8502 O   0  0  0  0  0  0  0  0  0  0  0  0
    0.1225   89.9158    9.2181 C   0  0  2  0  0  0  0  0  0  0  0  0
    0.4765   89.9279    7.7922 N   0  0  0  0  0  0  0  0  0  0  0  0
   -1.2536   89.2691    9.3952 C   0  0  1  0  0  0  0  0  0  0  0  0
   -1.2368   87.9162    8.9314 O   0  0  0  0  0  0  0  0  0  0  0  0
   -1.6538   89.3250   10.8699 C   0  0  2  0  0  0  0  0  0  0  0  0
   -2.9768   88.8096   11.0180 O   0  0  0  0  0  0  0  0  0  0  0  0
   -1.6590   90.7854   11.3239 C   0  0  2  0  0  0  0  0  0  0  0  0
   -0.3638   91.3630   11.0976 O   0  0  0  0  0  0  0  0  0  0  0  0
   -2.0489   90.8533   12.8028 C   0  0  0  0  0  0  0  0  0  0  0  0
   -2.5073   92.2029   13.1648 N   0  0  0  0  0  0  0  0  0  0  0  0
   -1.6242   96.0586    7.8995 C   0  0  2  0  0  0  0  0  0  0  0  0
   -1.8784   97.5062    7.8459 N   0  0  0  0  0  0  0  0  0  0  0  0
   -2.6331   95.3629    8.8153 C   0  0  0  0  0  0  0  0  0  0  0  0
   -2.4019   93.8510    8.7261 C   0  0  2  0  0  0  0  0  0  0  0  0
   -3.3024   93.1660    9.6647 N   0  0  0  0  0  0  0  0  0  0  0  0
   -0.9660   93.4572    9.0846 C   0  0  2  0  0  0  0  0  0  0  0  0
    0.1123   94.2773    8.3850 C   0  0  2  0  0  0  0  0  0  0  0  0
    1.3203   94.0358    9.1243 O   0  0  0  0  0  0  0  0  0  0  0  0
   -0.2078   95.7779    8.4073 C   0  0  1  0  0  0  0  0  0  0  0  0
    0.7057   96.5057    7.5820 O   0  0  0  0  0  0  0  0  0  0  0  0
    1.3066   94.4605   10.4968 C   0  0  1  0  0  0  0  0  0  0  0  0
    2.5644   93.9032   11.1652 C   0  0  2  0  0  0  0  0  0  0  0  0
    2.3304   92.5560   11.5824 O   0  0  0  0  0  0  0  0  0  0  0  0
    2.6042   94.8158   12.3875 C   0  0  1  0  0  0  0  0  0  0  0  0
    2.3360   96.1622   11.7335 C   0  0  2  0  0  0  0  0  0  0  0  0
    1.4163   95.8898   10.6561 O   0  0  0  0  0  0  0  0  0  0  0  0
    3.6591   96.7429   11.2215 C   0  0  0  0  0  0  0  0  0  0  0  0
    3.4628   98.0635   10.7077 O   0  0  0  0  0  0  0  0  0  0  0  0
    2.0238   93.6160   14.3168 C   0  0  2  0  0  0  0  0  0  0  0  0
    1.5310   94.4800   13.2813 O   0  0  0  0  0  0  0  0  0  0  0  0
    1.2336   92.3035   14.3083 C   0  0  1  0  0  0  0  0  0  0  0  0
    2.9816   93.5133   19.0659 N   0  0  0  0  0  0  0  0  0  0  0  0
    1.6741   91.4068   15.4703 C   0  0  1  0  0  0  0  0  0  0  0  0
    3.0133   90.9467   15.2621 O   0  0  0  0  0  0  0  0  0  0  0  0
    1.5903   92.1847   16.7864 C   0  0  2  0  0  0  0  0  0  0  0  0
    0.2167   92.4919   17.0477 O   0  0  0  0  0  0  0  0  0  0  0  0
    2.4052   93.4774   16.6713 C   0  0  1  0  0  0  0  0  0  0  0  0
    1.9014   94.2795   15.5871 O   0  0  0  0  0  0  0  0  0  0  0  0
    2.3700   94.2832   17.9727 C   0  0  0  0  0  0  0  0  0  0  0  0
   -0.1948   92.6119   14.4753 N   0  0  0  0  0  0  0  0  0  0  0  0
  1  2  1  6  0  0  0
  1  3  1  0  0  0  0
  1 10  1  0  0  0  0
  3  4  1  6  0  0  0
  3  5  1  0  0  0  0
  5  6  1  1  0  0  0
  5  7  1  0  0  0  0
  7  8  1  6  0  0  0
  7  9  1  0  0  0  0
  9 10  1  0  0  0  0
  9 11  1  1  0  0  0
 11 12  1  0  0  0  0
 13 14  1  1  0  0  0
 13 15  1  0  0  0  0
 13 21  1  0  0  0  0
 16 15  1  0  0  0  0
 16 17  1  1  0  0  0
 18  2  1  6  0  0  0
 18 16  1  0  0  0  0
 19 18  1  0  0  0  0
 19 20  1  1  0  0  0
 21 19  1  0  0  0  0
 21 22  1  6  0  0  0
 23 20  1  6  0  0  0
 23 24  1  0  0  0  0
 23 28  1  0  0  0  0
 24 25  1  1  0  0  0
 24 26  1  0  0  0  0
 26 27  1  0  0  0  0
 26 32  1  1  0  0  0
 27 28  1  0  0  0  0
 27 29  1  6  0  0  0
 29 30  1  0  0  0  0
 31 32  1  6  0  0  0
 31 40  1  0  0  0  0
 33 31  1  0  0  0  0
 33 42  1  1  0  0  0
 35 33  1  0  0  0  0
 35 36  1  6  0  0  0
 37 35  1  0  0  0  0
 37 38  1  6  0  0  0
 37 39  1  0  0  0  0
 39 40  1  0  0  0  0
 39 41  1  1  0  0  0
 41 34  1  0  0  0  0
M  END
>  <CHROM.1>
-176.03663981,-160.78894144,-147.98598421,-62.38402962,170.26273082,97.36711900
-174.78902149,-121.99810822,62.40543093,0.39059238,93.14258459,11.67056159
2.37184603,-1.00978157,-0.86278960

>  <Name>
2fcy_lig

>  <RI>
1.56845e+07

>  <Rbt.Current_Directory>
/home/itssahil/PROJECTS/Mol_Feturizer/New_Systems/rnas/2fcy

>  <Rbt.Executable>
rbdock ($Id: //depot/dev/client3/rdock/2013.1/src/exe/rbdock.cxx#4 $)

>  <Rbt.Library>
libRbt.so (2013.1, Build901 2013/11/27)

>  <Rbt.Parameter_File>
/export/apps/rDock/src/rDock_2013.1_src/data/scripts/dock_solv.prm

>  <Rbt.Receptor>
prm/pocket_docking_4.prm

>  <SCORE>
-10.912

>  <SCORE.INTER>
-12.9093

>  <SCORE.INTER.CONST>
1

>  <SCORE.INTER.POLAR>
-1.62574

>  <SCORE.INTER.ROT>
9

>  <SCORE.INTER.SOLV>
15.9856

>  <SCORE.INTER.VDW>
-18.1156

>  <SCORE.INTER.norm>
-0.307364

>  <SCORE.INTRA>
1.99727

>  <SCORE.INTRA.DIHEDRAL>
0.63855

>  <SCORE.INTRA.DIHEDRAL.0>
17.3446

>  <SCORE.INTRA.POLAR>
0

>  <SCORE.INTRA.POLAR.0>
0

>  <SCORE.INTRA.REPUL>
0

>  <SCORE.INTRA.REPUL.0>
0

>  <SCORE.INTRA.SOLV>
1.712

>  <SCORE.INTRA.SOLV.lig_0>
-112.452

>  <SCORE.INTRA.VDW>
0.821989

>  <SCORE.INTRA.VDW.0>
-5.95059

>  <SCORE.INTRA.norm>
0.047554

>  <SCORE.RESTR>
0

>  <SCORE.RESTR.CAVITY>
0

>  <SCORE.RESTR.norm>
0

>  <SCORE.SYSTEM>
0

>  <SCORE.SYSTEM.CONST>
0

>  <SCORE.SYSTEM.DIHEDRAL>
0

>  <SCORE.SYSTEM.SOLV>
0

>  <SCORE.SYSTEM.norm>
0

>  <SCORE.heavy>
42

>  <SCORE.norm>
-0.25981

>  <RMSD>
8.032

$$$$
2fcy_lig
 OpenBabel11021811433D
libRbt.so/2013.1/901 2013/11/27
 42 45  0  0  0  0  0  0  0  0999 V2000
    0.6007   90.5783   16.3101 C   0  0  2  0  0  0  0  0  0  0  0  0
    0.1132   91.9086   16.0649 O   0  0  0  0  0  0  0  0  0  0  0  0
   -0.0066   90.1627   17.6508 C   0  0  2  0  0  0  0  0  0  0  0  0
   -1.4659   90.3152   17.5745 N   0  0  0  0  0  0  0  0  0  0  0  0
    0.5415   91.0615   18.7620 C   0  0  1  0  0  0  0  0  0  0  0  0
   -0.0097   90.6886   20.0281 O   0  0  0  0  0  0  0  0  0  0  0  0
    2.0668   90.9592   18.7907 C   0  0  2  0  0  0  0  0  0  0  0  0
    2.5811   91.8702   19.7619 O   0  0  0  0  0  0  0  0  0  0  0  0
    2.6136   91.3654   17.4213 C   0  0  2  0  0  0  0  0  0  0  0  0
    2.0389   90.5268   16.4070 O   0  0  0  0  0  0  0  0  0  0  0  0
    4.1407   91.2572   17.4348 C   0  0  0  0  0  0  0  0  0  0  0  0
    4.5684   89.8897   17.7662 N   0  0  0  0  0  0  0  0  0  0  0  0
    0.9780   91.7075   11.9590 C   0  0  2  0  0  0  0  0  0  0  0  0
    1.0833   91.8390   10.4980 N   0  0  0  0  0  0  0  0  0  0  0  0
   -0.4541   91.3622   12.3721 C   0  0  0  0  0  0  0  0  0  0  0  0
   -0.4718   91.1087   13.8830 C   0  0  2  0  0  0  0  0  0  0  0  0
   -1.8540   90.8606   14.3174 N   0  0  0  0  0  0  0  0  0  0  0  0
    0.0622   92.3012   14.6819 C   0  0  2  0  0  0  0  0  0  0  0  0
    1.3865   92.8635   14.1774 C   0  0  2  0  0  0  0  0  0  0  0  0
    1.5080   94.1622   14.7796 O   0  0  0  0  0  0  0  0  0  0  0  0
    1.4007   93.0065   12.6497 C   0  0  1  0  0  0  0  0  0  0  0  0
    2.7090   93.3454   12.1820 O   0  0  0  0  0  0  0  0  0  0  0  0
    2.4291   95.0614   14.1414 C   0  0  1  0  0  0  0  0  0  0  0  0
    1.7098   96.3970   13.9454 C   0  0  2  0  0  0  0  0  0  0  0  0
    0.9291   96.3515   12.7487 O   0  0  0  0  0  0  0  0  0  0  0  0
    2.9280   97.2892   13.7258 C   0  0  1  0  0  0  0  0  0  0  0  0
    3.8326   96.7990   14.8455 C   0  0  2  0  0  0  0  0  0  0  0  0
    3.5739   95.3844   14.9572 O   0  0  0  0  0  0  0  0  0  0  0  0
    3.4820   97.5472   16.1368 C   0  0  0  0  0  0  0  0  0  0  0  0
    4.1152   96.9312   17.2620 O   0  0  0  0  0  0  0  0  0  0  0  0
    4.7394   97.7450   12.3082 C   0  0  2  0  0  0  0  0  0  0  0  0
    3.5213   96.9984   12.4503 O   0  0  0  0  0  0  0  0  0  0  0  0
    4.9926   98.0349   10.8253 C   0  0  1  0  0  0  0  0  0  0  0  0
    9.4630   97.5944   13.4019 N   0  0  0  0  0  0  0  0  0  0  0  0
    6.3395   98.7425   10.6413 C   0  0  1  0  0  0  0  0  0  0  0  0
    6.2871  100.0610   11.1955 O   0  0  0  0  0  0  0  0  0  0  0  0
    7.4469   97.9352   11.3240 C   0  0  2  0  0  0  0  0  0  0  0  0
    7.5836   96.6829   10.6438 O   0  0  0  0  0  0  0  0  0  0  0  0
    7.0786   97.6982   12.7925 C   0  0  1  0  0  0  0  0  0  0  0  0
    5.8262   96.9930   12.8760 O   0  0  0  0  0  0  0  0  0  0  0  0
    8.1673   96.9105   13.5263 C   0  0  0  0  0  0  0  0  0  0  0  0
    5.0351   96.7586   10.0956 N   0  0  0  0  0  0  0  0  0  0  0  0
  1  2  1  1  0  0  0
  1  3  1  0  0  0  0
  1 10  1  0  0  0  0
  3  4  1  6  0  0  0
  3  5  1  0  0  0  0
  5  6  1  1  0  0  0
  5  7  1  0  0  0  0
  7  8  1  1  0  0  0
  7  9  1  0  0  0  0
  9 10  1  0  0  0  0
  9 11  1  1  0  0  0
 11 12  1  0  0  0  0
 13 14  1  6  0  0  0
 13 15  1  0  0  0  0
 13 21  1  0  0  0  0
 16 15  1  0  0  0  0
 16 17  1  1  0  0  0
 18  2  1  1  0  0  0
 18 16  1  0  0  0  0
 19 18  1  0  0  0  0
 19 20  1  1  0  0  0
 21 19  1  0  0  0  0
 21 22  1  6  0  0  0
 23 20  1  1  0  0  0
 23 24  1  0  0  0  0
 23 28  1  0  0  0  0
 24 25  1  6  0  0  0
 24 26  1  0  0  0  0
 26 27  1  0  0  0  0
 26 32  1  6  0  0  0
 27 28  1  0  0  0  0
 27 29  1  1  0  0  0
 29 30  1  0  0  0  0
 31 32  1  6  0  0  0
 31 40  1  0  0  0  0
 33 31  1  0  0  0  0
 33 42  1  6  0  0  0
 35 33  1  0  0  0  0
 35 36  1  1  0  0  0
 37 35  1  0  0  0  0
 37 38  1  6  0  0  0
 37 39  1  0  0  0  0
 39 40  1  0  0  0  0
 39 41  1  6  0  0  0
 41 34  1  0  0  0  0
M  END
>  <CHROM.1>
-154.91238151,58.33173548,41.79313479,-160.52404071,131.11488257,-174.33383201
168.30319375,-151.11065568,55.62456788,2.96036976,94.23818390,14.43070191
2.33186495,0.65801076,1.99112134

>  <Name>
2fcy_lig

>  <RI>
9.29634e+06

>  <Rbt.Current_Directory>
/home/itssahil/PROJECTS/Mol_Feturizer/New_Systems/rnas/2fcy

>  <Rbt.Executable>
rbdock ($Id: //depot/dev/client3/rdock/2013.1/src/exe/rbdock.cxx#4 $)

>  <Rbt.Library>
libRbt.so (2013.1, Build901 2013/11/27)

>  <Rbt.Parameter_File>
/export/apps/rDock/src/rDock_2013.1_src/data/scripts/dock_solv.prm

>  <Rbt.Receptor>
prm/blind_docking_100.prm

>  <SCORE>
7.76398

>  <SCORE.INTER>
-3.09674

>  <SCORE.INTER.CONST>
1

>  <SCORE.INTER.POLAR>
-0.648545

>  <SCORE.INTER.ROT>
9

>  <SCORE.INTER.SOLV>
27.968

>  <SCORE.INTER.VDW>
-18.8253

>  <SCORE.INTER.norm>
-0.073732

>  <SCORE.INTRA>
5.30029

>  <SCORE.INTRA.DIHEDRAL>
-0.287629

>  <SCORE.INTRA.DIHEDRAL.0>
17.3446

>  <SCORE.INTRA.POLAR>
0

>  <SCORE.INTRA.POLAR.0>
0

>  <SCORE.INTRA.REPUL>
0

>  <SCORE.INTRA.REPUL.0>
0

>  <SCORE.INTRA.SOLV>
-1.25984

>  <SCORE.INTRA.SOLV.lig_0>
-112.452

>  <SCORE.INTRA.VDW>
6.07402

>  <SCORE.INTRA.VDW.0>
-5.95059

>  <SCORE.INTRA.norm>
0.126197

>  <SCORE.RESTR>
5.56044

>  <SCORE.RESTR.CAVITY>
5.56044

>  <SCORE.RESTR.norm>
0.132391

>  <SCORE.SYSTEM>
0

>  <SCORE.SYSTEM.CONST>
0

>  <SCORE.SYSTEM.DIHEDRAL>
0

>  <SCORE.SYSTEM.SOLV>
0

>  <SCORE.SYSTEM.norm>
0

>  <SCORE.heavy>
42

>  <SCORE.norm>
0.184857

>  <RMSD>
8.043

$$$$
2fcy_lig
 OpenBabel11021811433D
libRbt.so/2013.1/901 2013/11/27
 42 45  0  0  0  0  0  0  0  0999 V2000
    0.8721   92.0547   17.6097 C   0  0  2  0  0  0  0  0  0  0  0  0
    1.1906   93.3308   17.0290 O   0  0  0  0  0  0  0  0  0  0  0  0
    1.5851   91.0207   16.7370 C   0  0  2  0  0  0  0  0  0  0  0  0
    3.0119   91.3649   16.6693 N   0  0  0  0  0  0  0  0  0  0  0  0
    0.9892   91.0420   15.3272 C   0  0  1  0  0  0  0  0  0  0  0  0
    1.6381   90.0788   14.4924 O   0  0  0  0  0  0  0  0  0  0  0  0
   -0.5111   90.7578   15.4068 C   0  0  2  0  0  0  0  0  0  0  0  0
   -1.0815   90.8736   14.1034 O   0  0  0  0  0  0  0  0  0  0  0  0
   -1.1644   91.8079   16.3066 C   0  0  2  0  0  0  0  0  0  0  0  0
   -0.5444   91.7828   17.6018 O   0  0  0  0  0  0  0  0  0  0  0  0
   -2.6664   91.5275   16.4021 C   0  0  0  0  0  0  0  0  0  0  0  0
   -3.3421   91.8423   15.1345 N   0  0  0  0  0  0  0  0  0  0  0  0
    2.6958   96.6538   19.1119 C   0  0  2  0  0  0  0  0  0  0  0  0
    3.4441   97.6486   19.8951 N   0  0  0  0  0  0  0  0  0  0  0  0
    2.4499   95.3874   19.9345 C   0  0  0  0  0  0  0  0  0  0  0  0
    1.5573   94.4480   19.1172 C   0  0  2  0  0  0  0  0  0  0  0  0
    1.3789   93.1871   19.8514 N   0  0  0  0  0  0  0  0  0  0  0  0
    2.1601   94.1115   17.7502 C   0  0  2  0  0  0  0  0  0  0  0  0
    2.6558   95.3168   16.9590 C   0  0  2  0  0  0  0  0  0  0  0  0
    3.5093   94.7810   15.9350 O   0  0  0  0  0  0  0  0  0  0  0  0
    3.4593   96.2848   17.8377 C   0  0  1  0  0  0  0  0  0  0  0  0
    3.7449   97.4955   17.1321 O   0  0  0  0  0  0  0  0  0  0  0  0
    3.5552   95.5275   14.7082 C   0  0  1  0  0  0  0  0  0  0  0  0
    2.1482   95.5173   14.1085 C   0  0  2  0  0  0  0  0  0  0  0  0
    1.9511   94.3123   13.3650 O   0  0  0  0  0  0  0  0  0  0  0  0
    2.2952   96.6922   13.1460 C   0  0  1  0  0  0  0  0  0  0  0  0
    2.9869   97.7016   14.0486 C   0  0  2  0  0  0  0  0  0  0  0  0
    3.8566   96.9252   14.8981 O   0  0  0  0  0  0  0  0  0  0  0  0
    1.9275   98.4596   14.8568 C   0  0  0  0  0  0  0  0  0  0  0  0
    0.9573   99.0483   13.9859 O   0  0  0  0  0  0  0  0  0  0  0  0
    4.1628   97.3416   11.8854 C   0  0  2  0  0  0  0  0  0  0  0  0
    3.1622   96.3269   12.0604 O   0  0  0  0  0  0  0  0  0  0  0  0
    4.3868   97.5877   10.3899 C   0  0  1  0  0  0  0  0  0  0  0  0
    7.3474   97.4947   14.6562 N   0  0  0  0  0  0  0  0  0  0  0  0
    5.5230   98.5940   10.1781 C   0  0  1  0  0  0  0  0  0  0  0  0
    5.1285   99.8915   10.6353 O   0  0  0  0  0  0  0  0  0  0  0  0
    6.7716   98.1334   10.9353 C   0  0  2  0  0  0  0  0  0  0  0  0
    7.2357   96.9125   10.3491 O   0  0  0  0  0  0  0  0  0  0  0  0
    6.4234   97.9089   12.4106 C   0  0  1  0  0  0  0  0  0  0  0  0
    5.3815   96.9218   12.5237 O   0  0  0  0  0  0  0  0  0  0  0  0
    7.6473   97.4660   13.2171 C   0  0  0  0  0  0  0  0  0  0  0  0
    4.7673   96.3170    9.7545 N   0  0  0  0  0  0  0  0  0  0  0  0
  1  2  1  6  0  0  0
  1  3  1  0  0  0  0
  1 10  1  0  0  0  0
  3  4  1  6  0  0  0
  3  5  1  0  0  0  0
  5  6  1  6  0  0  0
  5  7  1  0  0  0  0
  7  8  1  6  0  0  0
  7  9  1  0  0  0  0
  9 10  1  0  0  0  0
  9 11  1  1  0  0  0
 11 12  1  0  0  0  0
 13 14  1  1  0  0  0
 13 15  1  0  0  0  0
 13 21  1  0  0  0  0
 16 15  1  0  0  0  0
 16 17  1  1  0  0  0
 18  2  1  6  0  0  0
 18 16  1  0  0  0  0
 19 18  1  0  0  0  0
 19 20  1  6  0  0  0
 21 19  1  0  0  0  0
 21 22  1  6  0  0  0
 23 20  1  1  0  0  0
 23 24  1  0  0  0  0
 23 28  1  0  0  0  0
 24 25  1  6  0  0  0
 24 26  1  0  0  0  0
 26 27  1  0  0  0  0
 26 32  1  6  0  0  0
 27 28  1  0  0  0  0
 27 29  1  1  0  0  0
 29 30  1  0  0  0  0
 31 32  1  6  0  0  0
 31 40  1  0  0  0  0
 33 31  1  0  0  0  0
 33 42  1  6  0  0  0
 35 33  1  0  0  0  0
 35 36  1  1  0  0  0
 37 35  1  0  0  0  0
 37 38  1  6  0  0  0
 37 39  1  0  0  0  0
 39 40  1  0  0  0  0
 39 41  1  1  0  0  0
 41 34  1  0  0  0  0
M  END
>  <CHROM.1>
-104.94386354,-71.34386037,-63.69463150,149.49634890,-62.58289080,-130.43329434
-54.68467764,-139.30024508,169.74626799,2.73067786,95.19190704,14.92910705
-2.67880109,-0.88224364,-1.72390062

>  <Name>
2fcy_lig

>  <RI>
9.29634e+06

>  <Rbt.Current_Directory>
/home/itssahil/PROJECTS/Mol_Feturizer/New_Systems/rnas/2fcy

>  <Rbt.Executable>
rbdock ($Id: //depot/dev/client3/rdock/2013.1/src/exe/rbdock.cxx#4 $)

>  <Rbt.Library>
libRbt.so (2013.1, Build901 2013/11/27)

>  <Rbt.Parameter_File>
/export/apps/rDock/src/rDock_2013.1_src/data/scripts/dock_solv.prm

>  <Rbt.Receptor>
prm/blind_docking_100.prm

>  <SCORE>
-0.646939

>  <SCORE.INTER>
-18.0575

>  <SCORE.INTER.CONST>
1

>  <SCORE.INTER.POLAR>
-1.59115

>  <SCORE.INTER.ROT>
9

>  <SCORE.INTER.SOLV>
28.1852

>  <SCORE.INTER.VDW>
-25.7296

>  <SCORE.INTER.norm>
-0.42994

>  <SCORE.INTRA>
14.6587

>  <SCORE.INTRA.DIHEDRAL>
5.69708

>  <SCORE.INTRA.DIHEDRAL.0>
17.3446

>  <SCORE.INTRA.POLAR>
0

>  <SCORE.INTRA.POLAR.0>
0

>  <SCORE.INTRA.REPUL>
0

>  <SCORE.INTRA.REPUL.0>
0

>  <SCORE.INTRA.SOLV>
0.561071

>  <SCORE.INTRA.SOLV.lig_0>
-112.452

>  <SCORE.INTRA.VDW>
11.5296

>  <SCORE.INTRA.VDW.0>
-5.95059

>  <SCORE.INTRA.norm>
0.349017

>  <SCORE.RESTR>
2.75186

>  <SCORE.RESTR.CAVITY>
2.75186

>  <SCORE.RESTR.norm>
0.0655204

>  <SCORE.SYSTEM>
0

>  <SCORE.SYSTEM.CONST>
0

>  <SCORE.SYSTEM.DIHEDRAL>
0

>  <SCORE.SYSTEM.SOLV>
0

>  <SCORE.SYSTEM.norm>
0

>  <SCORE.heavy>
42

>  <SCORE.norm>
-0.0154033

>  <RMSD>
8.093

$$$$
2fcy_lig
 OpenBabel11021811433D
libRbt.so/2013.1/901 2013/11/27
 42 45  0  0  0  0  0  0  0  0999 V2000
    0.1489   93.2112    6.1410 C   0  0  2  0  0  0  0  0  0  0  0  0
   -0.2377   92.1274    7.0030 O   0  0  0  0  0  0  0  0  0  0  0  0
    0.2870   94.4295    7.0552 C   0  0  2  0  0  0  0  0  0  0  0  0
    1.2197   94.1001    8.1416 N   0  0  0  0  0  0  0  0  0  0  0  0
   -1.0796   94.7828    7.6476 C   0  0  1  0  0  0  0  0  0  0  0  0
   -0.9765   95.9236    8.5042 O   0  0  0  0  0  0  0  0  0  0  0  0
   -2.0693   95.0521    6.5137 C   0  0  2  0  0  0  0  0  0  0  0  0
   -3.3647   95.2861    7.0657 O   0  0  0  0  0  0  0  0  0  0  0  0
   -2.1488   93.8105    5.6241 C   0  0  2  0  0  0  0  0  0  0  0  0
   -0.8395   93.4905    5.1283 O   0  0  0  0  0  0  0  0  0  0  0  0
   -3.1301   94.0720    4.4784 C   0  0  0  0  0  0  0  0  0  0  0  0
   -4.5168   94.0930    4.9677 N   0  0  0  0  0  0  0  0  0  0  0  0
    1.1485   88.1681    7.2236 C   0  0  2  0  0  0  0  0  0  0  0  0
    1.8910   86.9003    7.2895 N   0  0  0  0  0  0  0  0  0  0  0  0
    1.5229   88.9527    5.9646 C   0  0  0  0  0  0  0  0  0  0  0  0
    0.6254   90.1917    5.8845 C   0  0  2  0  0  0  0  0  0  0  0  0
    1.0261   91.0075    4.7291 N   0  0  0  0  0  0  0  0  0  0  0  0
    0.7287   91.0700    7.1349 C   0  0  2  0  0  0  0  0  0  0  0  0
    0.6043   90.3160    8.4542 C   0  0  2  0  0  0  0  0  0  0  0  0
    1.1068   91.2119    9.4587 O   0  0  0  0  0  0  0  0  0  0  0  0
    1.4384   89.0281    8.4562 C   0  0  1  0  0  0  0  0  0  0  0  0
    1.1562   88.2404    9.6160 O   0  0  0  0  0  0  0  0  0  0  0  0
    0.1155   91.9732   10.1672 C   0  0  1  0  0  0  0  0  0  0  0  0
   -0.7657   90.9848   10.9327 C   0  0  2  0  0  0  0  0  0  0  0  0
   -1.7812   90.4743   10.0655 O   0  0  0  0  0  0  0  0  0  0  0  0
   -1.3894   91.9534   11.9334 C   0  0  1  0  0  0  0  0  0  0  0  0
   -0.1572   92.7324   12.3658 C   0  0  2  0  0  0  0  0  0  0  0  0
    0.6700   92.8280   11.1880 O   0  0  0  0  0  0  0  0  0  0  0  0
    0.5452   91.9719   13.4965 C   0  0  0  0  0  0  0  0  0  0  0  0
    1.7184   92.6724   13.9199 O   0  0  0  0  0  0  0  0  0  0  0  0
   -2.9815   93.6504   12.2229 C   0  0  2  0  0  0  0  0  0  0  0  0
   -2.3111   92.8243   11.2587 O   0  0  0  0  0  0  0  0  0  0  0  0
   -4.0915   92.8442   12.9049 C   0  0  1  0  0  0  0  0  0  0  0  0
   -5.5007   96.6287   10.6155 N   0  0  0  0  0  0  0  0  0  0  0  0
   -4.8866   93.7354   13.8651 C   0  0  1  0  0  0  0  0  0  0  0  0
   -4.0717   94.1166   14.9782 O   0  0  0  0  0  0  0  0  0  0  0  0
   -5.3767   94.9845   13.1276 C   0  0  2  0  0  0  0  0  0  0  0  0
   -6.3145   94.5824   12.1234 O   0  0  0  0  0  0  0  0  0  0  0  0
   -4.1858   95.6980   12.4790 C   0  0  1  0  0  0  0  0  0  0  0  0
   -3.5214   94.8085   11.5623 O   0  0  0  0  0  0  0  0  0  0  0  0
   -4.6222   96.9686   11.7445 C   0  0  0  0  0  0  0  0  0  0  0  0
   -5.0093   92.3385   11.8730 N   0  0  0  0  0  0  0  0  0  0  0  0
  1  2  1  1  0  0  0
  1  3  1  0  0  0  0
  1 10  1  0  0  0  0
  3  4  1  1  0  0  0
  3  5  1  0  0  0  0
  5  6  1  1  0  0  0
  5  7  1  0  0  0  0
  7  8  1  1  0  0  0
  7  9  1  0  0  0  0
  9 10  1  0  0  0  0
  9 11  1  6  0  0  0
 11 12  1  0  0  0  0
 13 14  1  1  0  0  0
 13 15  1  0  0  0  0
 13 21  1  0  0  0  0
 16 15  1  0  0  0  0
 16 17  1  6  0  0  0
 18  2  1  6  0  0  0
 18 16  1  0  0  0  0
 19 18  1  0  0  0  0
 19 20  1  1  0  0  0
 21 19  1  0  0  0  0
 21 22  1  1  0  0  0
 23 20  1  1  0  0  0
 23 24  1  0  0  0  0
 23 28  1  0  0  0  0
 24 25  1  6  0  0  0
 24 26  1  0  0  0  0
 26 27  1  0  0  0  0
 26 32  1  6  0  0  0
 27 28  1  0  0  0  0
 27 29  1  1  0  0  0
 29 30  1  0  0  0  0
 31 32  1  6  0  0  0
 31 40  1  0  0  0  0
 33 31  1  0  0  0  0
 33 42  1  6  0  0  0
 35 33  1  0  0  0  0
 35 36  1  1  0  0  0
 37 35  1  0  0  0  0
 37 38  1  6  0  0  0
 37 39  1  0  0  0  0
 39 40  1  0  0  0  0
 39 41  1  6  0  0  0
 41 34  1  0  0  0  0
M  END
>  <CHROM.1>
-114.12942990,-71.87969986,-78.73901521,96.92305297,63.33601723,174.86376222
179.46703573,-78.66589278,-64.56877632,-1.41971624,92.73582647,9.44165576
0.58882848,0.80326938,-1.38043720

>  <Name>
2fcy_lig

>  <RI>
224

>  <Rbt.Current_Directory>
/home/itssahil/PROJECTS/Mol_Feturizer/New_Systems/rnas/2fcy

>  <Rbt.Executable>
rbdock ($Id: //depot/dev/client3/rdock/2013.1/src/exe/rbdock.cxx#4 $)

>  <Rbt.Library>
libRbt.so (2013.1, Build901 2013/11/27)

>  <Rbt.Parameter_File>
/export/apps/rDock/src/rDock_2013.1_src/data/scripts/dock_solv.prm

>  <Rbt.Receptor>
prm/pocket_docking_6.prm

>  <SCORE>
-16.5178

>  <SCORE.INTER>
-19.071

>  <SCORE.INTER.CONST>
1

>  <SCORE.INTER.POLAR>
-2.81276

>  <SCORE.INTER.ROT>
9

>  <SCORE.INTER.SOLV>
12.3772

>  <SCORE.INTER.VDW>
-17.0639

>  <SCORE.INTER.norm>
-0.454071

>  <SCORE.INTRA>
2.55314

>  <SCORE.INTRA.DIHEDRAL>
-0.937162

>  <SCORE.INTRA.DIHEDRAL.0>
17.3446

>  <SCORE.INTRA.POLAR>
0

>  <SCORE.INTRA.POLAR.0>
0

>  <SCORE.INTRA.REPUL>
0

>  <SCORE.INTRA.REPUL.0>
0

>  <SCORE.INTRA.SOLV>
1.70997

>  <SCORE.INTRA.SOLV.lig_0>
-112.452

>  <SCORE.INTRA.VDW>
2.16674

>  <SCORE.INTRA.VDW.0>
-5.95059

>  <SCORE.INTRA.norm>
0.060789

>  <SCORE.RESTR>
0

>  <SCORE.RESTR.CAVITY>
0

>  <SCORE.RESTR.norm>
0

>  <SCORE.SYSTEM>
0

>  <SCORE.SYSTEM.CONST>
0

>  <SCORE.SYSTEM.DIHEDRAL>
0

>  <SCORE.SYSTEM.SOLV>
0

>  <SCORE.SYSTEM.norm>
0

>  <SCORE.heavy>
42

>  <SCORE.norm>
-0.393282

>  <RMSD>
8.098

$$$$
2fcy_lig
 OpenBabel11021811433D
libRbt.so/2013.1/901 2013/11/27
 42 45  0  0  0  0  0  0  0  0999 V2000
    0.5303   90.4659   16.0917 C   0  0  2  0  0  0  0  0  0  0  0  0
   -0.0852   91.7418   15.8455 O   0  0  0  0  0  0  0  0  0  0  0  0
   -0.0527   89.9820   17.4202 C   0  0  2  0  0  0  0  0  0  0  0  0
   -1.5186   89.9870   17.3211 N   0  0  0  0  0  0  0  0  0  0  0  0
    0.3844   90.9241   18.5448 C   0  0  1  0  0  0  0  0  0  0  0  0
   -0.1459   90.4889   19.7998 O   0  0  0  0  0  0  0  0  0  0  0  0
    1.9116   90.9760   18.5976 C   0  0  2  0  0  0  0  0  0  0  0  0
    2.3161   91.9277   19.5817 O   0  0  0  0  0  0  0  0  0  0  0  0
    2.4359   91.4445   17.2394 C   0  0  2  0  0  0  0  0  0  0  0  0
    1.9646   90.5591   16.2115 O   0  0  0  0  0  0  0  0  0  0  0  0
    3.9656   91.4908   17.2770 C   0  0  0  0  0  0  0  0  0  0  0  0
    4.5244   90.1691   17.5985 N   0  0  0  0  0  0  0  0  0  0  0  0
    1.1887   91.7786   11.8427 C   0  0  2  0  0  0  0  0  0  0  0  0
    1.4452   91.9999   10.4116 N   0  0  0  0  0  0  0  0  0  0  0  0
   -0.2853   91.4487   12.0864 C   0  0  0  0  0  0  0  0  0  0  0  0
   -0.4623   91.0999   13.5676 C   0  0  2  0  0  0  0  0  0  0  0  0
   -1.8868   90.8643   13.8439 N   0  0  0  0  0  0  0  0  0  0  0  0
    0.0137   92.2232   14.4935 C   0  0  2  0  0  0  0  0  0  0  0  0
    1.3945   92.7784   14.1627 C   0  0  2  0  0  0  0  0  0  0  0  0
    1.4826   94.0320   14.8589 O   0  0  0  0  0  0  0  0  0  0  0  0
    1.5674   93.0181   12.6569 C   0  0  1  0  0  0  0  0  0  0  0  0
    2.9236   93.3487   12.3463 O   0  0  0  0  0  0  0  0  0  0  0  0
    2.7444   94.7122   14.7607 C   0  0  1  0  0  0  0  0  0  0  0  0
    2.5065   96.0194   14.0030 C   0  0  2  0  0  0  0  0  0  0  0  0
    2.5337   95.7711   12.5954 O   0  0  0  0  0  0  0  0  0  0  0  0
    3.7742   96.7626   14.4143 C   0  0  1  0  0  0  0  0  0  0  0  0
    3.7959   96.4641   15.9051 C   0  0  2  0  0  0  0  0  0  0  0  0
    3.2739   95.1259   16.0370 O   0  0  0  0  0  0  0  0  0  0  0  0
    2.9228   97.4917   16.6345 C   0  0  0  0  0  0  0  0  0  0  0  0
    2.9825   97.2878   18.0492 O   0  0  0  0  0  0  0  0  0  0  0  0
    5.6820   97.1894   13.1194 C   0  0  2  0  0  0  0  0  0  0  0  0
    4.9159   96.1682   13.7764 O   0  0  0  0  0  0  0  0  0  0  0  0
    4.9168   97.6940   11.8917 C   0  0  1  0  0  0  0  0  0  0  0  0
    9.8343   96.6919   13.1094 N   0  0  0  0  0  0  0  0  0  0  0  0
    5.7606   98.7123   11.1173 C   0  0  1  0  0  0  0  0  0  0  0  0
    5.9163   99.9119   11.8821 O   0  0  0  0  0  0  0  0  0  0  0  0
    7.1345   98.1145   10.8021 C   0  0  2  0  0  0  0  0  0  0  0  0
    6.9575   97.0126    9.9055 O   0  0  0  0  0  0  0  0  0  0  0  0
    7.7957   97.6358   12.0990 C   0  0  1  0  0  0  0  0  0  0  0  0
    6.9618   96.6531   12.7406 O   0  0  0  0  0  0  0  0  0  0  0  0
    9.1850   97.0471   11.8389 C   0  0  0  0  0  0  0  0  0  0  0  0
    4.6389   96.5524   11.0071 N   0  0  0  0  0  0  0  0  0  0  0  0
  1  2  1  1  0  0  0
  1  3  1  0  0  0  0
  1 10  1  0  0  0  0
  3  4  1  6  0  0  0
  3  5  1  0  0  0  0
  5  6  1  1  0  0  0
  5  7  1  0  0  0  0
  7  8  1  1  0  0  0
  7  9  1  0  0  0  0
  9 10  1  0  0  0  0
  9 11  1  1  0  0  0
 11 12  1  0  0  0  0
 13 14  1  6  0  0  0
 13 15  1  0  0  0  0
 13 21  1  0  0  0  0
 16 15  1  0  0  0  0
 16 17  1  6  0  0  0
 18  2  1  1  0  0  0
 18 16  1  0  0  0  0
 19 18  1  0  0  0  0
 19 20  1  1  0  0  0
 21 19  1  0  0  0  0
 21 22  1  1  0  0  0
 23 20  1  1  0  0  0
 23 24  1  0  0  0  0
 23 28  1  0  0  0  0
 24 25  1  6  0  0  0
 24 26  1  0  0  0  0
 26 27  1  0  0  0  0
 26 32  1  6  0  0  0
 27 28  1  0  0  0  0
 27 29  1  1  0  0  0
 29 30  1  0  0  0  0
 31 32  1  6  0  0  0
 31 40  1  0  0  0  0
 33 31  1  0  0  0  0
 33 42  1  6  0  0  0
 35 33  1  0  0  0  0
 35 36  1  1  0  0  0
 37 35  1  0  0  0  0
 37 38  1  6  0  0  0
 37 39  1  0  0  0  0
 39 40  1  0  0  0  0
 39 41  1  6  0  0  0
 41 34  1  0  0  0  0
M  END
>  <CHROM.1>
-163.33935374,58.74760942,50.89316750,176.38884941,115.15889582,128.59866768
-176.64009168,-71.03917901,175.69267180,3.06015442,94.11221040,14.48619995
2.51515705,0.74932279,1.76595102

>  <Name>
2fcy_lig

>  <RI>
9.29634e+06

>  <Rbt.Current_Directory>
/home/itssahil/PROJECTS/Mol_Feturizer/New_Systems/rnas/2fcy

>  <Rbt.Executable>
rbdock ($Id: //depot/dev/client3/rdock/2013.1/src/exe/rbdock.cxx#4 $)

>  <Rbt.Library>
libRbt.so (2013.1, Build901 2013/11/27)

>  <Rbt.Parameter_File>
/export/apps/rDock/src/rDock_2013.1_src/data/scripts/dock_solv.prm

>  <Rbt.Receptor>
prm/blind_docking_100.prm

>  <SCORE>
5.10209

>  <SCORE.INTER>
-3.64472

>  <SCORE.INTER.CONST>
1

>  <SCORE.INTER.POLAR>
-0.580176

>  <SCORE.INTER.ROT>
9

>  <SCORE.INTER.SOLV>
31.3454

>  <SCORE.INTER.VDW>
-20.5444

>  <SCORE.INTER.norm>
-0.0867791

>  <SCORE.INTRA>
2.83016

>  <SCORE.INTRA.DIHEDRAL>
-1.14109

>  <SCORE.INTRA.DIHEDRAL.0>
17.3446

>  <SCORE.INTRA.POLAR>
0

>  <SCORE.INTRA.POLAR.0>
0

>  <SCORE.INTRA.REPUL>
0.0555319

>  <SCORE.INTRA.REPUL.0>
0

>  <SCORE.INTRA.SOLV>
-0.348064

>  <SCORE.INTRA.SOLV.lig_0>
-112.452

>  <SCORE.INTRA.VDW>
3.29708

>  <SCORE.INTRA.VDW.0>
-5.95059

>  <SCORE.INTRA.norm>
0.0673848

>  <SCORE.RESTR>
5.91664

>  <SCORE.RESTR.CAVITY>
5.91664

>  <SCORE.RESTR.norm>
0.140872

>  <SCORE.SYSTEM>
0

>  <SCORE.SYSTEM.CONST>
0

>  <SCORE.SYSTEM.DIHEDRAL>
0

>  <SCORE.SYSTEM.SOLV>
0

>  <SCORE.SYSTEM.norm>
0

>  <SCORE.heavy>
42

>  <SCORE.norm>
0.121478

>  <RMSD>
8.123

$$$$
2fcy_lig
 OpenBabel11021811433D
libRbt.so/2013.1/901 2013/11/27
 42 45  0  0  0  0  0  0  0  0999 V2000
   -0.0212   91.4361   17.4372 C   0  0  2  0  0  0  0  0  0  0  0  0
   -0.1736   92.6244   16.6422 O   0  0  0  0  0  0  0  0  0  0  0  0
    0.6772   91.8908   18.7195 C   0  0  2  0  0  0  0  0  0  0  0  0
   -0.1054   92.9787   19.3220 N   0  0  0  0  0  0  0  0  0  0  0  0
    2.0818   92.3994   18.3851 C   0  0  1  0  0  0  0  0  0  0  0  0
    2.7573   92.8270   19.5710 O   0  0  0  0  0  0  0  0  0  0  0  0
    2.8706   91.2892   17.6900 C   0  0  2  0  0  0  0  0  0  0  0  0
    4.1448   91.7955   17.2929 O   0  0  0  0  0  0  0  0  0  0  0  0
    2.1151   90.8626   16.4305 C   0  0  2  0  0  0  0  0  0  0  0  0
    0.7904   90.4370   16.7864 O   0  0  0  0  0  0  0  0  0  0  0  0
    2.8909   89.7435   15.7307 C   0  0  0  0  0  0  0  0  0  0  0  0
    1.9951   88.9172   14.9077 N   0  0  0  0  0  0  0  0  0  0  0  0
    0.0781   90.7247   12.9039 C   0  0  2  0  0  0  0  0  0  0  0  0
   -0.0464   90.2327   11.5236 N   0  0  0  0  0  0  0  0  0  0  0  0
   -1.2478   90.5816   13.6538 C   0  0  0  0  0  0  0  0  0  0  0  0
   -1.0208   90.9837   15.1146 C   0  0  2  0  0  0  0  0  0  0  0  0
   -2.3013   90.9378   15.8353 N   0  0  0  0  0  0  0  0  0  0  0  0
   -0.4590   92.4019   15.2498 C   0  0  2  0  0  0  0  0  0  0  0  0
    0.7314   92.7037   14.3464 C   0  0  2  0  0  0  0  0  0  0  0  0
    0.8494   94.1355   14.3300 O   0  0  0  0  0  0  0  0  0  0  0  0
    0.5063   92.1942   12.9166 C   0  0  1  0  0  0  0  0  0  0  0  0
    1.7023   92.3085   12.1410 O   0  0  0  0  0  0  0  0  0  0  0  0
    2.1877   94.6495   14.2353 C   0  0  1  0  0  0  0  0  0  0  0  0
    2.0874   96.1520   13.9671 C   0  0  2  0  0  0  0  0  0  0  0  0
    1.9038   96.3794   12.5677 O   0  0  0  0  0  0  0  0  0  0  0  0
    3.5030   96.5566   14.3680 C   0  0  1  0  0  0  0  0  0  0  0  0
    3.6512   95.7840   15.6693 C   0  0  2  0  0  0  0  0  0  0  0  0
    2.9284   94.5518   15.4691 O   0  0  0  0  0  0  0  0  0  0  0  0
    3.0592   96.6134   16.8146 C   0  0  0  0  0  0  0  0  0  0  0  0
    3.4644   97.9810   16.7061 O   0  0  0  0  0  0  0  0  0  0  0  0
    5.2253   97.1651   12.8977 C   0  0  2  0  0  0  0  0  0  0  0  0
    4.4424   96.0698   13.3964 O   0  0  0  0  0  0  0  0  0  0  0  0
    4.6369   97.6527   11.5698 C   0  0  1  0  0  0  0  0  0  0  0  0
    9.1038   96.4148   11.0798 N   0  0  0  0  0  0  0  0  0  0  0  0
    5.5158   98.7546   10.9683 C   0  0  1  0  0  0  0  0  0  0  0  0
    5.4498   99.9366   11.7725 O   0  0  0  0  0  0  0  0  0  0  0  0
    6.9650   98.2692   10.8753 C   0  0  2  0  0  0  0  0  0  0  0  0
    7.0242   97.1874    9.9395 O   0  0  0  0  0  0  0  0  0  0  0  0
    7.4377   97.7975   12.2545 C   0  0  1  0  0  0  0  0  0  0  0  0
    6.5877   96.7362   12.7275 O   0  0  0  0  0  0  0  0  0  0  0  0
    8.8922   97.3204   12.2186 C   0  0  0  0  0  0  0  0  0  0  0  0
    4.5981   96.5237   10.6282 N   0  0  0  0  0  0  0  0  0  0  0  0
  1  2  1  6  0  0  0
  1  3  1  0  0  0  0
  1 10  1  0  0  0  0
  3  4  1  6  0  0  0
  3  5  1  0  0  0  0
  5  6  1  1  0  0  0
  5  7  1  0  0  0  0
  7  8  1  6  0  0  0
  7  9  1  0  0  0  0
  9 10  1  0  0  0  0
  9 11  1  1  0  0  0
 11 12  1  0  0  0  0
 13 14  1  6  0  0  0
 13 15  1  0  0  0  0
 13 21  1  0  0  0  0
 16 15  1  0  0  0  0
 16 17  1  1  0  0  0
 18  2  1  1  0  0  0
 18 16  1  0  0  0  0
 19 18  1  0  0  0  0
 19 20  1  6  0  0  0
 21 19  1  0  0  0  0
 21 22  1  6  0  0  0
 23 20  1  1  0  0  0
 23 24  1  0  0  0  0
 23 28  1  0  0  0  0
 24 25  1  6  0  0  0
 24 26  1  0  0  0  0
 26 27  1  0  0  0  0
 26 32  1  6  0  0  0
 27 28  1  0  0  0  0
 27 29  1  1  0  0  0
 29 30  1  0  0  0  0
 31 32  1  6  0  0  0
 31 40  1  0  0  0  0
 33 31  1  0  0  0  0
 33 42  1  6  0  0  0
 35 33  1  0  0  0  0
 35 36  1  1  0  0  0
 37 35  1  0  0  0  0
 37 38  1  6  0  0  0
 37 39  1  0  0  0  0
 39 40  1  0  0  0  0
 39 41  1  6  0  0  0
 41 34  1  0  0  0  0
M  END
>  <CHROM.1>
163.24885623,155.24007752,20.54032183,146.14599269,169.50054872,124.61943897
-43.87312205,-97.48894924,-47.36530524,2.82290057,94.14585955,14.45626998
-2.67745154,-0.83843013,-1.58080735

>  <Name>
2fcy_lig

>  <RI>
9.29634e+06

>  <Rbt.Current_Directory>
/home/itssahil/PROJECTS/Mol_Feturizer/New_Systems/rnas/2fcy

>  <Rbt.Executable>
rbdock ($Id: //depot/dev/client3/rdock/2013.1/src/exe/rbdock.cxx#4 $)

>  <Rbt.Library>
libRbt.so (2013.1, Build901 2013/11/27)

>  <Rbt.Parameter_File>
/export/apps/rDock/src/rDock_2013.1_src/data/scripts/dock_solv.prm

>  <Rbt.Receptor>
prm/blind_docking_100.prm

>  <SCORE>
18.7934

>  <SCORE.INTER>
1.19352

>  <SCORE.INTER.CONST>
1

>  <SCORE.INTER.POLAR>
-0.669116

>  <SCORE.INTER.ROT>
9

>  <SCORE.INTER.SOLV>
35.4405

>  <SCORE.INTER.VDW>
-18.3874

>  <SCORE.INTER.norm>
0.028417

>  <SCORE.INTRA>
12.6914

>  <SCORE.INTRA.DIHEDRAL>
9.20223

>  <SCORE.INTRA.DIHEDRAL.0>
17.3446

>  <SCORE.INTRA.POLAR>
0

>  <SCORE.INTRA.POLAR.0>
0

>  <SCORE.INTRA.REPUL>
0

>  <SCORE.INTRA.REPUL.0>
0

>  <SCORE.INTRA.SOLV>
2.19992

>  <SCORE.INTRA.SOLV.lig_0>
-112.452

>  <SCORE.INTRA.VDW>
6.99033

>  <SCORE.INTRA.VDW.0>
-5.95059

>  <SCORE.INTRA.norm>
0.302176

>  <SCORE.RESTR>
4.90846

>  <SCORE.RESTR.CAVITY>
4.90846

>  <SCORE.RESTR.norm>
0.116868

>  <SCORE.SYSTEM>
0

>  <SCORE.SYSTEM.CONST>
0

>  <SCORE.SYSTEM.DIHEDRAL>
0

>  <SCORE.SYSTEM.SOLV>
0

>  <SCORE.SYSTEM.norm>
0

>  <SCORE.heavy>
42

>  <SCORE.norm>
0.447461

>  <RMSD>
8.126

$$$$
2fcy_lig
 OpenBabel11021811433D
libRbt.so/2013.1/901 2013/11/27
 42 45  0  0  0  0  0  0  0  0999 V2000
    0.7811   92.7690    7.8873 C   0  0  2  0  0  0  0  0  0  0  0  0
   -0.3965   93.5814    7.7443 O   0  0  0  0  0  0  0  0  0  0  0  0
    0.7511   91.7969    6.7070 C   0  0  2  0  0  0  0  0  0  0  0  0
    0.6434   92.5702    5.4623 N   0  0  0  0  0  0  0  0  0  0  0  0
   -0.4608   90.8707    6.8369 C   0  0  1  0  0  0  0  0  0  0  0  0
   -0.5080   89.9482    5.7449 O   0  0  0  0  0  0  0  0  0  0  0  0
   -0.3860   90.1219    8.1679 C   0  0  2  0  0  0  0  0  0  0  0  0
   -1.5643   89.3326    8.3303 O   0  0  0  0  0  0  0  0  0  0  0  0
   -0.3373   91.1430    9.3055 C   0  0  2  0  0  0  0  0  0  0  0  0
    0.7867   92.0170    9.1182 O   0  0  0  0  0  0  0  0  0  0  0  0
   -0.2521   90.4044   10.6439 C   0  0  0  0  0  0  0  0  0  0  0  0
   -1.5239   89.7364   10.9582 N   0  0  0  0  0  0  0  0  0  0  0  0
   -0.4951   97.6333    8.8484 C   0  0  2  0  0  0  0  0  0  0  0  0
   -0.5956   98.9520    9.4917 N   0  0  0  0  0  0  0  0  0  0  0  0
   -1.8022   96.8529    9.0007 C   0  0  0  0  0  0  0  0  0  0  0  0
   -1.6822   95.5515    8.2012 C   0  0  2  0  0  0  0  0  0  0  0  0
   -2.8937   94.7439    8.4037 N   0  0  0  0  0  0  0  0  0  0  0  0
   -0.4801   94.7077    8.6354 C   0  0  2  0  0  0  0  0  0  0  0  0
    0.8321   95.4766    8.7418 C   0  0  2  0  0  0  0  0  0  0  0  0
    1.7080   94.6389    9.5133 O   0  0  0  0  0  0  0  0  0  0  0  0
    0.6493   96.8207    9.4591 C   0  0  1  0  0  0  0  0  0  0  0  0
    1.8396   97.6088    9.3750 O   0  0  0  0  0  0  0  0  0  0  0  0
    1.3457   94.4610   10.8922 C   0  0  1  0  0  0  0  0  0  0  0  0
    2.3940   93.5486   11.5311 C   0  0  2  0  0  0  0  0  0  0  0  0
    2.0647   92.1820   11.2709 O   0  0  0  0  0  0  0  0  0  0  0  0
    2.1205   93.8687   12.9978 C   0  0  1  0  0  0  0  0  0  0  0  0
    2.0241   95.3849   12.9345 C   0  0  2  0  0  0  0  0  0  0  0  0
    1.4084   95.6782   11.6634 O   0  0  0  0  0  0  0  0  0  0  0  0
    3.4326   95.9812   13.0375 C   0  0  0  0  0  0  0  0  0  0  0  0
    4.0524   95.5962   14.2680 O   0  0  0  0  0  0  0  0  0  0  0  0
    1.0718   92.2758   14.3621 C   0  0  2  0  0  0  0  0  0  0  0  0
    0.8564   93.3108   13.3905 O   0  0  0  0  0  0  0  0  0  0  0  0
   -0.1042   91.2942   14.3343 C   0  0  1  0  0  0  0  0  0  0  0  0
    2.8798   93.4940   17.8988 N   0  0  0  0  0  0  0  0  0  0  0  0
    0.0551   90.2379   15.4331 C   0  0  1  0  0  0  0  0  0  0  0  0
    1.1629   89.3803   15.1405 O   0  0  0  0  0  0  0  0  0  0  0  0
    0.2717   90.9242   16.7846 C   0  0  2  0  0  0  0  0  0  0  0  0
   -0.9170   91.6457   17.1252 O   0  0  0  0  0  0  0  0  0  0  0  0
    1.4605   91.8862   16.6870 C   0  0  1  0  0  0  0  0  0  0  0  0
    1.2130   92.8692   15.6647 O   0  0  0  0  0  0  0  0  0  0  0  0
    1.7317   92.5839   18.0227 C   0  0  0  0  0  0  0  0  0  0  0  0
   -1.3471   92.0399   14.5834 N   0  0  0  0  0  0  0  0  0  0  0  0
  1  2  1  1  0  0  0
  1  3  1  0  0  0  0
  1 10  1  0  0  0  0
  3  4  1  6  0  0  0
  3  5  1  0  0  0  0
  5  6  1  6  0  0  0
  5  7  1  0  0  0  0
  7  8  1  1  0  0  0
  7  9  1  0  0  0  0
  9 10  1  0  0  0  0
  9 11  1  1  0  0  0
 11 12  1  0  0  0  0
 13 14  1  1  0  0  0
 13 15  1  0  0  0  0
 13 21  1  0  0  0  0
 16 15  1  0  0  0  0
 16 17  1  1  0  0  0
 18  2  1  6  0  0  0
 18 16  1  0  0  0  0
 19 18  1  0  0  0  0
 19 20  1  1  0  0  0
 21 19  1  0  0  0  0
 21 22  1  6  0  0  0
 23 20  1  6  0  0  0
 23 24  1  0  0  0  0
 23 28  1  0  0  0  0
 24 25  1  1  0  0  0
 24 26  1  0  0  0  0
 26 27  1  0  0  0  0
 26 32  1  6  0  0  0
 27 28  1  0  0  0  0
 27 29  1  6  0  0  0
 29 30  1  0  0  0  0
 31 32  1  6  0  0  0
 31 40  1  0  0  0  0
 33 31  1  0  0  0  0
 33 42  1  1  0  0  0
 35 33  1  0  0  0  0
 35 36  1  6  0  0  0
 37 35  1  0  0  0  0
 37 38  1  6  0  0  0
 37 39  1  0  0  0  0
 39 40  1  0  0  0  0
 39 41  1  1  0  0  0
 41 34  1  0  0  0  0
M  END
>  <CHROM.1>
-171.08631728,-70.79576246,172.03481205,-67.73612625,-179.92985827,113.89902163
-59.70288946,-155.39879567,179.74170392,0.53553729,93.22316815,11.31489204
2.18236741,-1.25855873,-0.82084123

>  <Name>
2fcy_lig

>  <RI>
0

>  <Rbt.Current_Directory>
/home/itssahil/PROJECTS/Mol_Feturizer/New_Systems/rnas/2fcy

>  <Rbt.Executable>
rbdock ($Id: //depot/dev/client3/rdock/2013.1/src/exe/rbdock.cxx#4 $)

>  <Rbt.Library>
libRbt.so (2013.1, Build901 2013/11/27)

>  <Rbt.Parameter_File>
/export/apps/rDock/src/rDock_2013.1_src/data/scripts/dock_solv.prm

>  <Rbt.Receptor>
prm/pocket_docking_5.prm

>  <SCORE>
-20.8503

>  <SCORE.INTER>
-20.4538

>  <SCORE.INTER.CONST>
1

>  <SCORE.INTER.POLAR>
-2.62024

>  <SCORE.INTER.ROT>
9

>  <SCORE.INTER.SOLV>
16.9917

>  <SCORE.INTER.VDW>
-20.1657

>  <SCORE.INTER.norm>
-0.486996

>  <SCORE.INTRA>
-0.398729

>  <SCORE.INTRA.DIHEDRAL>
-6.36673

>  <SCORE.INTRA.DIHEDRAL.0>
17.3446

>  <SCORE.INTRA.POLAR>
0

>  <SCORE.INTRA.POLAR.0>
0

>  <SCORE.INTRA.REPUL>
0.0111623

>  <SCORE.INTRA.REPUL.0>
0

>  <SCORE.INTRA.SOLV>
-3.29445

>  <SCORE.INTRA.SOLV.lig_0>
-112.452

>  <SCORE.INTRA.VDW>
4.37605

>  <SCORE.INTRA.VDW.0>
-5.95059

>  <SCORE.INTRA.norm>
-0.00949356

>  <SCORE.RESTR>
0.00228441

>  <SCORE.RESTR.CAVITY>
0.00228441

>  <SCORE.RESTR.norm>
5.43907e-05

>  <SCORE.SYSTEM>
0

>  <SCORE.SYSTEM.CONST>
0

>  <SCORE.SYSTEM.DIHEDRAL>
0

>  <SCORE.SYSTEM.SOLV>
0

>  <SCORE.SYSTEM.norm>
0

>  <SCORE.heavy>
42

>  <SCORE.norm>
-0.496435

>  <RMSD>
8.186

$$$$
2fcy_lig
 OpenBabel11021811433D
libRbt.so/2013.1/901 2013/11/27
 42 45  0  0  0  0  0  0  0  0999 V2000
    0.8247   92.6756    8.0516 C   0  0  2  0  0  0  0  0  0  0  0  0
   -0.3289   93.4972    7.8041 O   0  0  0  0  0  0  0  0  0  0  0  0
    0.8141   91.6158    6.9489 C   0  0  2  0  0  0  0  0  0  0  0  0
    0.7669   92.2925    5.6456 N   0  0  0  0  0  0  0  0  0  0  0  0
   -0.4218   90.7262    7.1053 C   0  0  1  0  0  0  0  0  0  0  0  0
   -0.4515   89.7231    6.0862 O   0  0  0  0  0  0  0  0  0  0  0  0
   -0.4099   90.0813    8.4916 C   0  0  2  0  0  0  0  0  0  0  0  0
   -1.6103   89.3300    8.6712 O   0  0  0  0  0  0  0  0  0  0  0  0
   -0.3780   91.1862    9.5487 C   0  0  2  0  0  0  0  0  0  0  0  0
    0.7709   92.0211    9.3358 O   0  0  0  0  0  0  0  0  0  0  0  0
   -0.3557   90.5519   10.9419 C   0  0  0  0  0  0  0  0  0  0  0  0
   -1.6670   89.9784   11.2801 N   0  0  0  0  0  0  0  0  0  0  0  0
   -0.5992   97.5852    8.7324 C   0  0  2  0  0  0  0  0  0  0  0  0
   -0.7515   98.9251    9.3194 N   0  0  0  0  0  0  0  0  0  0  0  0
   -1.8665   96.7535    8.9398 C   0  0  0  0  0  0  0  0  0  0  0  0
   -1.6978   95.4249    8.1957 C   0  0  2  0  0  0  0  0  0  0  0  0
   -2.8676   94.5727    8.4528 N   0  0  0  0  0  0  0  0  0  0  0  0
   -0.4519   94.6568    8.6466 C   0  0  2  0  0  0  0  0  0  0  0  0
    0.8247   95.4886    8.6982 C   0  0  2  0  0  0  0  0  0  0  0  0
    1.7493   94.7267    9.4910 O   0  0  0  0  0  0  0  0  0  0  0  0
    0.5901   96.8534    9.3592 C   0  0  1  0  0  0  0  0  0  0  0  0
    1.7414   97.6905    9.2217 O   0  0  0  0  0  0  0  0  0  0  0  0
    1.3946   94.5592   10.8732 C   0  0  1  0  0  0  0  0  0  0  0  0
    2.5117   93.7572   11.5427 C   0  0  2  0  0  0  0  0  0  0  0  0
    2.2999   92.3607   11.3218 O   0  0  0  0  0  0  0  0  0  0  0  0
    2.2031   94.0957   12.9983 C   0  0  1  0  0  0  0  0  0  0  0  0
    1.9802   95.5959   12.8899 C   0  0  2  0  0  0  0  0  0  0  0  0
    1.3500   95.7993   11.6084 O   0  0  0  0  0  0  0  0  0  0  0  0
    3.3330   96.3113   12.9806 C   0  0  0  0  0  0  0  0  0  0  0  0
    3.9656   96.0328   14.2331 O   0  0  0  0  0  0  0  0  0  0  0  0
    1.3043   92.2942   14.2005 C   0  0  2  0  0  0  0  0  0  0  0  0
    0.9879   93.4451   13.4026 O   0  0  0  0  0  0  0  0  0  0  0  0
    0.0384   91.4601   14.4215 C   0  0  1  0  0  0  0  0  0  0  0  0
    2.0488   93.0505   18.2919 N   0  0  0  0  0  0  0  0  0  0  0  0
    0.3314   90.2809   15.3553 C   0  0  1  0  0  0  0  0  0  0  0  0
    1.1962   89.3403   14.7107 O   0  0  0  0  0  0  0  0  0  0  0  0
    0.9843   90.7894   16.6436 C   0  0  2  0  0  0  0  0  0  0  0  0
    0.0359   91.5995   17.3462 O   0  0  0  0  0  0  0  0  0  0  0  0
    2.2272   91.6161   16.2973 C   0  0  1  0  0  0  0  0  0  0  0  0
    1.8597   92.7247   15.4556 O   0  0  0  0  0  0  0  0  0  0  0  0
    2.9297   92.1313   17.5564 C   0  0  0  0  0  0  0  0  0  0  0  0
   -0.9823   92.3101   15.0529 N   0  0  0  0  0  0  0  0  0  0  0  0
  1  2  1  6  0  0  0
  1  3  1  0  0  0  0
  1 10  1  0  0  0  0
  3  4  1  6  0  0  0
  3  5  1  0  0  0  0
  5  6  1  6  0  0  0
  5  7  1  0  0  0  0
  7  8  1  1  0  0  0
  7  9  1  0  0  0  0
  9 10  1  0  0  0  0
  9 11  1  1  0  0  0
 11 12  1  0  0  0  0
 13 14  1  1  0  0  0
 13 15  1  0  0  0  0
 13 21  1  0  0  0  0
 16 15  1  0  0  0  0
 16 17  1  1  0  0  0
 18  2  1  6  0  0  0
 18 16  1  0  0  0  0
 19 18  1  0  0  0  0
 19 20  1  1  0  0  0
 21 19  1  0  0  0  0
 21 22  1  6  0  0  0
 23 20  1  6  0  0  0
 23 24  1  0  0  0  0
 23 28  1  0  0  0  0
 24 25  1  1  0  0  0
 24 26  1  0  0  0  0
 26 27  1  0  0  0  0
 26 32  1  6  0  0  0
 27 28  1  0  0  0  0
 27 29  1  6  0  0  0
 29 30  1  0  0  0  0
 31 32  1  6  0  0  0
 31 40  1  0  0  0  0
 33 31  1  0  0  0  0
 33 42  1  1  0  0  0
 35 33  1  0  0  0  0
 35 36  1  6  0  0  0
 37 35  1  0  0  0  0
 37 38  1  6  0  0  0
 37 39  1  0  0  0  0
 39 40  1  0  0  0  0
 39 41  1  1  0  0  0
 41 34  1  0  0  0  0
M  END
>  <CHROM.1>
-173.93995955,-72.88275588,177.73975045,-65.91885751,-178.68476126,102.68454456
-60.62185035,-169.89111577,-63.48890878,0.64232455,93.22465679,11.35207750
2.30716682,-1.24250767,-0.66092192

>  <Name>
2fcy_lig

>  <RI>
224

>  <Rbt.Current_Directory>
/home/itssahil/PROJECTS/Mol_Feturizer/New_Systems/rnas/2fcy

>  <Rbt.Executable>
rbdock ($Id: //depot/dev/client3/rdock/2013.1/src/exe/rbdock.cxx#4 $)

>  <Rbt.Library>
libRbt.so (2013.1, Build901 2013/11/27)

>  <Rbt.Parameter_File>
/export/apps/rDock/src/rDock_2013.1_src/data/scripts/dock_solv.prm

>  <Rbt.Receptor>
prm/pocket_docking_6.prm

>  <SCORE>
-20.8827

>  <SCORE.INTER>
-19.165

>  <SCORE.INTER.CONST>
1

>  <SCORE.INTER.POLAR>
-2.62743

>  <SCORE.INTER.ROT>
9

>  <SCORE.INTER.SOLV>
16.145

>  <SCORE.INTER.VDW>
-19.0002

>  <SCORE.INTER.norm>
-0.456309

>  <SCORE.INTRA>
-1.71769

>  <SCORE.INTRA.DIHEDRAL>
-9.91968

>  <SCORE.INTRA.DIHEDRAL.0>
17.3446

>  <SCORE.INTRA.POLAR>
0

>  <SCORE.INTRA.POLAR.0>
0

>  <SCORE.INTRA.REPUL>
0

>  <SCORE.INTRA.REPUL.0>
0

>  <SCORE.INTRA.SOLV>
-1.28043

>  <SCORE.INTRA.SOLV.lig_0>
-112.452

>  <SCORE.INTRA.VDW>
3.88237

>  <SCORE.INTRA.VDW.0>
-5.95059

>  <SCORE.INTRA.norm>
-0.0408973

>  <SCORE.RESTR>
0

>  <SCORE.RESTR.CAVITY>
0

>  <SCORE.RESTR.norm>
0

>  <SCORE.SYSTEM>
0

>  <SCORE.SYSTEM.CONST>
0

>  <SCORE.SYSTEM.DIHEDRAL>
0

>  <SCORE.SYSTEM.SOLV>
0

>  <SCORE.SYSTEM.norm>
0

>  <SCORE.heavy>
42

>  <SCORE.norm>
-0.497207

>  <RMSD>
8.187

$$$$
2fcy_lig
 OpenBabel11021811433D
libRbt.so/2013.1/901 2013/11/27
 42 45  0  0  0  0  0  0  0  0999 V2000
    3.2534   91.5133   16.6471 C   0  0  2  0  0  0  0  0  0  0  0  0
    2.6534   91.0691   15.4183 O   0  0  0  0  0  0  0  0  0  0  0  0
    3.7134   90.2404   17.3592 C   0  0  2  0  0  0  0  0  0  0  0  0
    4.5823   89.4800   16.4506 N   0  0  0  0  0  0  0  0  0  0  0  0
    2.4946   89.3907   17.7276 C   0  0  1  0  0  0  0  0  0  0  0  0
    2.9000   88.1949   18.3996 O   0  0  0  0  0  0  0  0  0  0  0  0
    1.5543   90.2098   18.6122 C   0  0  2  0  0  0  0  0  0  0  0  0
    0.3745   89.4502   18.8745 O   0  0  0  0  0  0  0  0  0  0  0  0
    1.1464   91.4761   17.8576 C   0  0  2  0  0  0  0  0  0  0  0  0
    2.3214   92.2172   17.4934 O   0  0  0  0  0  0  0  0  0  0  0  0
    0.2120   92.3099   18.7381 C   0  0  0  0  0  0  0  0  0  0  0  0
    0.9627   92.9953   19.8008 N   0  0  0  0  0  0  0  0  0  0  0  0
   -0.8063   91.8680   13.1736 C   0  0  2  0  0  0  0  0  0  0  0  0
   -2.1265   92.2301   12.6360 N   0  0  0  0  0  0  0  0  0  0  0  0
   -0.9388   90.8216   14.2818 C   0  0  0  0  0  0  0  0  0  0  0  0
    0.4682   90.3895   14.7071 C   0  0  2  0  0  0  0  0  0  0  0  0
    0.3677   89.4484   15.8318 N   0  0  0  0  0  0  0  0  0  0  0  0
    1.3298   91.5711   15.1620 C   0  0  2  0  0  0  0  0  0  0  0  0
    1.3233   92.7655   14.2145 C   0  0  2  0  0  0  0  0  0  0  0  0
    1.8415   93.8662   14.9786 O   0  0  0  0  0  0  0  0  0  0  0  0
   -0.0935   93.1025   13.7310 C   0  0  1  0  0  0  0  0  0  0  0  0
   -0.0574   94.0911   12.6982 O   0  0  0  0  0  0  0  0  0  0  0  0
    2.6551   94.8012   14.2519 C   0  0  1  0  0  0  0  0  0  0  0  0
    1.9430   96.1546   14.2829 C   0  0  2  0  0  0  0  0  0  0  0  0
    0.9617   96.2054   13.2446 O   0  0  0  0  0  0  0  0  0  0  0  0
    3.1231   97.0487   13.9134 C   0  0  1  0  0  0  0  0  0  0  0  0
    4.2004   96.4682   14.8159 C   0  0  2  0  0  0  0  0  0  0  0  0
    3.9335   95.0517   14.8712 O   0  0  0  0  0  0  0  0  0  0  0  0
    4.1014   97.1220   16.1990 C   0  0  0  0  0  0  0  0  0  0  0  0
    4.0995   98.5478   16.0816 O   0  0  0  0  0  0  0  0  0  0  0  0
    4.6348   97.6304   12.2179 C   0  0  2  0  0  0  0  0  0  0  0  0
    3.4740   96.8473   12.5351 O   0  0  0  0  0  0  0  0  0  0  0  0
    4.7054   97.8520   10.7036 C   0  0  1  0  0  0  0  0  0  0  0  0
    9.4565   97.7021   12.7475 N   0  0  0  0  0  0  0  0  0  0  0  0
    5.9909   98.5989   10.3320 C   0  0  1  0  0  0  0  0  0  0  0  0
    5.9450   99.9416   10.8253 O   0  0  0  0  0  0  0  0  0  0  0  0
    7.2024   97.8702   10.9197 C   0  0  2  0  0  0  0  0  0  0  0  0
    7.3148   96.5901   10.2885 O   0  0  0  0  0  0  0  0  0  0  0  0
    7.0137   97.6964   12.4305 C   0  0  1  0  0  0  0  0  0  0  0  0
    5.8104   96.9502   12.6915 O   0  0  0  0  0  0  0  0  0  0  0  0
    8.2116   96.9893   13.0702 C   0  0  0  0  0  0  0  0  0  0  0  0
    4.7197   96.5419   10.0354 N   0  0  0  0  0  0  0  0  0  0  0  0
  1  2  1  6  0  0  0
  1  3  1  0  0  0  0
  1 10  1  0  0  0  0
  3  4  1  6  0  0  0
  3  5  1  0  0  0  0
  5  6  1  1  0  0  0
  5  7  1  0  0  0  0
  7  8  1  6  0  0  0
  7  9  1  0  0  0  0
  9 10  1  0  0  0  0
  9 11  1  1  0  0  0
 11 12  1  0  0  0  0
 13 14  1  1  0  0  0
 13 15  1  0  0  0  0
 13 21  1  0  0  0  0
 16 15  1  0  0  0  0
 16 17  1  1  0  0  0
 18  2  1  6  0  0  0
 18 16  1  0  0  0  0
 19 18  1  0  0  0  0
 19 20  1  1  0  0  0
 21 19  1  0  0  0  0
 21 22  1  6  0  0  0
 23 20  1  1  0  0  0
 23 24  1  0  0  0  0
 23 28  1  0  0  0  0
 24 25  1  6  0  0  0
 24 26  1  0  0  0  0
 26 27  1  0  0  0  0
 26 32  1  6  0  0  0
 27 28  1  0  0  0  0
 27 29  1  1  0  0  0
 29 30  1  0  0  0  0
 31 32  1  6  0  0  0
 31 40  1  0  0  0  0
 33 31  1  0  0  0  0
 33 42  1  6  0  0  0
 35 33  1  0  0  0  0
 35 36  1  1  0  0  0
 37 35  1  0  0  0  0
 37 38  1  6  0  0  0
 37 39  1  0  0  0  0
 39 40  1  0  0  0  0
 39 41  1  6  0  0  0
 41 34  1  0  0  0  0
M  END
>  <CHROM.1>
127.98115081,75.21803390,-133.94268756,144.35805670,116.98728649,-176.51343697
-51.99271744,-158.71334070,54.76061964,3.03338579,94.10034255,14.55680525
-2.11253193,-0.38294521,-0.83101989

>  <Name>
2fcy_lig

>  <RI>
9.29634e+06

>  <Rbt.Current_Directory>
/home/itssahil/PROJECTS/Mol_Feturizer/New_Systems/rnas/2fcy

>  <Rbt.Executable>
rbdock ($Id: //depot/dev/client3/rdock/2013.1/src/exe/rbdock.cxx#4 $)

>  <Rbt.Library>
libRbt.so (2013.1, Build901 2013/11/27)

>  <Rbt.Parameter_File>
/export/apps/rDock/src/rDock_2013.1_src/data/scripts/dock_solv.prm

>  <Rbt.Receptor>
prm/blind_docking_100.prm

>  <SCORE>
13.1997

>  <SCORE.INTER>
-4.10543

>  <SCORE.INTER.CONST>
1

>  <SCORE.INTER.POLAR>
-0.0624007

>  <SCORE.INTER.ROT>
9

>  <SCORE.INTER.SOLV>
22.6046

>  <SCORE.INTER.VDW>
-19.6638

>  <SCORE.INTER.norm>
-0.0977484

>  <SCORE.INTRA>
11.1498

>  <SCORE.INTRA.DIHEDRAL>
10.9963

>  <SCORE.INTRA.DIHEDRAL.0>
17.3446

>  <SCORE.INTRA.POLAR>
0

>  <SCORE.INTRA.POLAR.0>
0

>  <SCORE.INTRA.REPUL>
0

>  <SCORE.INTRA.REPUL.0>
0

>  <SCORE.INTRA.SOLV>
1.60971

>  <SCORE.INTRA.SOLV.lig_0>
-112.452

>  <SCORE.INTRA.VDW>
4.84678

>  <SCORE.INTRA.VDW.0>
-5.95059

>  <SCORE.INTRA.norm>
0.265471

>  <SCORE.RESTR>
6.15534

>  <SCORE.RESTR.CAVITY>
6.15534

>  <SCORE.RESTR.norm>
0.146556

>  <SCORE.SYSTEM>
0

>  <SCORE.SYSTEM.CONST>
0

>  <SCORE.SYSTEM.DIHEDRAL>
0

>  <SCORE.SYSTEM.SOLV>
0

>  <SCORE.SYSTEM.norm>
0

>  <SCORE.heavy>
42

>  <SCORE.norm>
0.314278

>  <RMSD>
8.219

$$$$
2fcy_lig
 OpenBabel11021811433D
libRbt.so/2013.1/901 2013/11/27
 42 45  0  0  0  0  0  0  0  0999 V2000
    0.4662   91.3021    8.0924 C   0  0  2  0  0  0  0  0  0  0  0  0
   -0.5471   92.0220    7.3697 O   0  0  0  0  0  0  0  0  0  0  0  0
    0.8733   90.1449    7.1792 C   0  0  2  0  0  0  0  0  0  0  0  0
    1.2714   90.6916    5.8748 N   0  0  0  0  0  0  0  0  0  0  0  0
   -0.3143   89.1973    6.9927 C   0  0  1  0  0  0  0  0  0  0  0  0
    0.0441   88.1029    6.1443 O   0  0  0  0  0  0  0  0  0  0  0  0
   -0.7754   88.6876    8.3585 C   0  0  2  0  0  0  0  0  0  0  0  0
   -1.9417   87.8818    8.1906 O   0  0  0  0  0  0  0  0  0  0  0  0
   -1.1478   89.8868    9.2317 C   0  0  2  0  0  0  0  0  0  0  0  0
   -0.0202   90.7693    9.3414 O   0  0  0  0  0  0  0  0  0  0  0  0
   -1.6020   89.3891   10.6064 C   0  0  0  0  0  0  0  0  0  0  0  0
   -2.1626   90.4889   11.4055 N   0  0  0  0  0  0  0  0  0  0  0  0
   -1.5033   96.1121    7.3164 C   0  0  2  0  0  0  0  0  0  0  0  0
   -1.8973   97.5058    7.5722 N   0  0  0  0  0  0  0  0  0  0  0  0
   -2.6375   95.1512    7.6786 C   0  0  0  0  0  0  0  0  0  0  0  0
   -2.2191   93.7358    7.2679 C   0  0  2  0  0  0  0  0  0  0  0  0
   -3.2571   92.7824    7.6857 N   0  0  0  0  0  0  0  0  0  0  0  0
   -0.9004   93.3048    7.9166 C   0  0  2  0  0  0  0  0  0  0  0  0
    0.2266   94.3256    7.8063 C   0  0  2  0  0  0  0  0  0  0  0  0
    1.2061   93.9245    8.7778 O   0  0  0  0  0  0  0  0  0  0  0  0
   -0.2570   95.7463    8.1262 C   0  0  1  0  0  0  0  0  0  0  0  0
    0.7575   96.7089    7.8277 O   0  0  0  0  0  0  0  0  0  0  0  0
    0.8061   94.0450   10.1525 C   0  0  1  0  0  0  0  0  0  0  0  0
    1.9446   93.4966   11.0144 C   0  0  2  0  0  0  0  0  0  0  0  0
    1.8337   92.0745   11.1094 O   0  0  0  0  0  0  0  0  0  0  0  0
    1.5546   94.1287   12.3474 C   0  0  1  0  0  0  0  0  0  0  0  0
    1.2389   95.5463   11.8971 C   0  0  2  0  0  0  0  0  0  0  0  0
    0.6504   95.4115   10.5870 O   0  0  0  0  0  0  0  0  0  0  0  0
    2.5373   96.3606   11.8584 C   0  0  0  0  0  0  0  0  0  0  0  0
    2.2706   97.7137   11.4786 O   0  0  0  0  0  0  0  0  0  0  0  0
    0.7357   92.4879   13.8088 C   0  0  2  0  0  0  0  0  0  0  0  0
    0.3687   93.4982   12.8570 O   0  0  0  0  0  0  0  0  0  0  0  0
   -0.4841   91.6177   14.1284 C   0  0  1  0  0  0  0  0  0  0  0  0
    2.7528   91.9098   18.1805 N   0  0  0  0  0  0  0  0  0  0  0  0
   -0.1414   90.5966   15.2185 C   0  0  1  0  0  0  0  0  0  0  0  0
    0.7883   89.6301   14.7187 O   0  0  0  0  0  0  0  0  0  0  0  0
    0.4564   91.3142   16.4318 C   0  0  2  0  0  0  0  0  0  0  0  0
   -0.5503   92.1546   17.0060 O   0  0  0  0  0  0  0  0  0  0  0  0
    1.6560   92.1586   15.9889 C   0  0  1  0  0  0  0  0  0  0  0  0
    1.2413   93.1181   14.9989 O   0  0  0  0  0  0  0  0  0  0  0  0
    2.3035   92.8819   17.1730 C   0  0  0  0  0  0  0  0  0  0  0  0
   -1.5639   92.4835   14.6258 N   0  0  0  0  0  0  0  0  0  0  0  0
  1  2  1  6  0  0  0
  1  3  1  0  0  0  0
  1 10  1  0  0  0  0
  3  4  1  6  0  0  0
  3  5  1  0  0  0  0
  5  6  1  6  0  0  0
  5  7  1  0  0  0  0
  7  8  1  6  0  0  0
  7  9  1  0  0  0  0
  9 10  1  0  0  0  0
  9 11  1  1  0  0  0
 11 12  1  0  0  0  0
 13 14  1  1  0  0  0
 13 15  1  0  0  0  0
 13 21  1  0  0  0  0
 16 15  1  0  0  0  0
 16 17  1  1  0  0  0
 18  2  1  6  0  0  0
 18 16  1  0  0  0  0
 19 18  1  0  0  0  0
 19 20  1  1  0  0  0
 21 19  1  0  0  0  0
 21 22  1  6  0  0  0
 23 20  1  6  0  0  0
 23 24  1  0  0  0  0
 23 28  1  0  0  0  0
 24 25  1  1  0  0  0
 24 26  1  0  0  0  0
 26 27  1  0  0  0  0
 26 32  1  6  0  0  0
 27 28  1  0  0  0  0
 27 29  1  6  0  0  0
 29 30  1  0  0  0  0
 31 32  1  6  0  0  0
 31 40  1  0  0  0  0
 33 31  1  0  0  0  0
 33 42  1  1  0  0  0
 35 33  1  0  0  0  0
 35 36  1  6  0  0  0
 37 35  1  0  0  0  0
 37 38  1  6  0  0  0
 37 39  1  0  0  0  0
 39 40  1  0  0  0  0
 39 41  1  1  0  0  0
 41 34  1  0  0  0  0
M  END
>  <CHROM.1>
-168.36253894,-171.33037344,-164.82056934,-67.28417628,176.74350132,97.08657582
-178.17064201,-167.99133921,58.88510468,0.11228956,92.63040053,10.78044096
2.49737993,-1.31044344,-0.65941748

>  <Name>
2fcy_lig

>  <RI>
224

>  <Rbt.Current_Directory>
/home/itssahil/PROJECTS/Mol_Feturizer/New_Systems/rnas/2fcy

>  <Rbt.Executable>
rbdock ($Id: //depot/dev/client3/rdock/2013.1/src/exe/rbdock.cxx#4 $)

>  <Rbt.Library>
libRbt.so (2013.1, Build901 2013/11/27)

>  <Rbt.Parameter_File>
/export/apps/rDock/src/rDock_2013.1_src/data/scripts/dock_solv.prm

>  <Rbt.Receptor>
prm/pocket_docking_6.prm

>  <SCORE>
-22.1028

>  <SCORE.INTER>
-18.4222

>  <SCORE.INTER.CONST>
1

>  <SCORE.INTER.POLAR>
-2.82994

>  <SCORE.INTER.ROT>
9

>  <SCORE.INTER.SOLV>
15.054

>  <SCORE.INTER.VDW>
-17.4664

>  <SCORE.INTER.norm>
-0.438624

>  <SCORE.INTRA>
-3.68057

>  <SCORE.INTRA.DIHEDRAL>
-9.28859

>  <SCORE.INTRA.DIHEDRAL.0>
17.3446

>  <SCORE.INTRA.POLAR>
0

>  <SCORE.INTRA.POLAR.0>
0

>  <SCORE.INTRA.REPUL>
0

>  <SCORE.INTRA.REPUL.0>
0

>  <SCORE.INTRA.SOLV>
-2.42619

>  <SCORE.INTRA.SOLV.lig_0>
-112.452

>  <SCORE.INTRA.VDW>
2.17681

>  <SCORE.INTRA.VDW.0>
-5.95059

>  <SCORE.INTRA.norm>
-0.0876327

>  <SCORE.RESTR>
0

>  <SCORE.RESTR.CAVITY>
0

>  <SCORE.RESTR.norm>
0

>  <SCORE.SYSTEM>
0

>  <SCORE.SYSTEM.CONST>
0

>  <SCORE.SYSTEM.DIHEDRAL>
0

>  <SCORE.SYSTEM.SOLV>
0

>  <SCORE.SYSTEM.norm>
0

>  <SCORE.heavy>
42

>  <SCORE.norm>
-0.526257

>  <RMSD>
8.235

$$$$
2fcy_lig
 OpenBabel11021811433D
libRbt.so/2013.1/901 2013/11/27
 42 45  0  0  0  0  0  0  0  0999 V2000
    4.0388   96.5327   15.3477 C   0  0  2  0  0  0  0  0  0  0  0  0
    3.3713   97.5298   14.5556 O   0  0  0  0  0  0  0  0  0  0  0  0
    4.3463   97.2120   16.6830 C   0  0  2  0  0  0  0  0  0  0  0  0
    3.0963   97.7506   17.2364 N   0  0  0  0  0  0  0  0  0  0  0  0
    5.3382   98.3563   16.4592 C   0  0  1  0  0  0  0  0  0  0  0  0
    5.6448   99.0051   17.6964 O   0  0  0  0  0  0  0  0  0  0  0  0
    6.6101   97.8055   15.8135 C   0  0  2  0  0  0  0  0  0  0  0  0
    7.4935   98.8869   15.5175 O   0  0  0  0  0  0  0  0  0  0  0  0
    6.2378   97.1217   14.4970 C   0  0  2  0  0  0  0  0  0  0  0  0
    5.2734   96.0879   14.7490 O   0  0  0  0  0  0  0  0  0  0  0  0
    7.5030   96.5570   13.8457 C   0  0  0  0  0  0  0  0  0  0  0  0
    8.4444   97.6339   13.5037 N   0  0  0  0  0  0  0  0  0  0  0  0
    2.5303   97.7495   10.4457 C   0  0  2  0  0  0  0  0  0  0  0  0
    2.5170   97.8078    8.9762 N   0  0  0  0  0  0  0  0  0  0  0  0
    3.3915   98.8727   11.0266 C   0  0  0  0  0  0  0  0  0  0  0  0
    3.2594   98.8409   12.5526 C   0  0  2  0  0  0  0  0  0  0  0  0
    4.1469   99.8561   13.1380 N   0  0  0  0  0  0  0  0  0  0  0  0
    3.6482   97.4830   13.1446 C   0  0  2  0  0  0  0  0  0  0  0  0
    3.0094   96.2821   12.4560 C   0  0  2  0  0  0  0  0  0  0  0  0
    3.7767   95.1430   12.8777 O   0  0  0  0  0  0  0  0  0  0  0  0
    3.0715   96.4012   10.9274 C   0  0  1  0  0  0  0  0  0  0  0  0
    2.2990   95.3714   10.3046 O   0  0  0  0  0  0  0  0  0  0  0  0
    3.2106   94.3726   13.9502 C   0  0  1  0  0  0  0  0  0  0  0  0
    1.6910   94.5332   13.8822 C   0  0  2  0  0  0  0  0  0  0  0  0
    1.3046   95.7382   14.5472 O   0  0  0  0  0  0  0  0  0  0  0  0
    1.2901   93.3308   14.7318 C   0  0  1  0  0  0  0  0  0  0  0  0
    2.2070   92.2661   14.1506 C   0  0  2  0  0  0  0  0  0  0  0  0
    3.4300   92.9534   13.8151 O   0  0  0  0  0  0  0  0  0  0  0  0
    1.5404   91.6510   12.9147 C   0  0  0  0  0  0  0  0  0  0  0  0
    1.7355   92.4869   11.7703 O   0  0  0  0  0  0  0  0  0  0  0  0
    0.8119   92.7438   16.9511 C   0  0  2  0  0  0  0  0  0  0  0  0
    1.6259   93.5726   16.1074 O   0  0  0  0  0  0  0  0  0  0  0  0
    1.6162   91.5177   17.3947 C   0  0  1  0  0  0  0  0  0  0  0  0
   -3.1783   92.5202   15.8604 N   0  0  0  0  0  0  0  0  0  0  0  0
    0.7351   90.5678   18.2130 C   0  0  1  0  0  0  0  0  0  0  0  0
    0.3921   91.1657   19.4673 O   0  0  0  0  0  0  0  0  0  0  0  0
   -0.5380   90.2369   17.4293 C   0  0  2  0  0  0  0  0  0  0  0  0
   -0.1735   89.4978   16.2587 O   0  0  0  0  0  0  0  0  0  0  0  0
   -1.2477   91.5354   17.0312 C   0  0  1  0  0  0  0  0  0  0  0  0
   -0.3692   92.3488   16.2314 O   0  0  0  0  0  0  0  0  0  0  0  0
   -2.5413   91.2570   16.2610 C   0  0  0  0  0  0  0  0  0  0  0  0
    2.0839   90.8021   16.1979 N   0  0  0  0  0  0  0  0  0  0  0  0
  1  2  1  6  0  0  0
  1  3  1  0  0  0  0
  1 10  1  0  0  0  0
  3  4  1  6  0  0  0
  3  5  1  0  0  0  0
  5  6  1  1  0  0  0
  5  7  1  0  0  0  0
  7  8  1  6  0  0  0
  7  9  1  0  0  0  0
  9 10  1  0  0  0  0
  9 11  1  1  0  0  0
 11 12  1  0  0  0  0
 13 14  1  6  0  0  0
 13 15  1  0  0  0  0
 13 21  1  0  0  0  0
 16 15  1  0  0  0  0
 16 17  1  1  0  0  0
 18  2  1  1  0  0  0
 18 16  1  0  0  0  0
 19 18  1  0  0  0  0
 19 20  1  6  0  0  0
 21 19  1  0  0  0  0
 21 22  1  6  0  0  0
 23 20  1  6  0  0  0
 23 24  1  0  0  0  0
 23 28  1  0  0  0  0
 24 25  1  1  0  0  0
 24 26  1  0  0  0  0
 26 27  1  0  0  0  0
 26 32  1  1  0  0  0
 27 28  1  0  0  0  0
 27 29  1  6  0  0  0
 29 30  1  0  0  0  0
 31 32  1  6  0  0  0
 31 40  1  0  0  0  0
 33 31  1  0  0  0  0
 33 42  1  6  0  0  0
 35 33  1  0  0  0  0
 35 36  1  1  0  0  0
 37 35  1  0  0  0  0
 37 38  1  6  0  0  0
 37 39  1  0  0  0  0
 39 40  1  0  0  0  0
 39 41  1  6  0  0  0
 41 34  1  0  0  0  0
M  END
>  <CHROM.1>
145.52497203,-62.93781002,-161.40451823,98.87901922,28.07302958,157.26334654
81.16448529,99.97283669,-178.39555086,2.73135714,94.96821810,14.64629328
-0.59872351,0.78626717,1.92120415

>  <Name>
2fcy_lig

>  <RI>
9.29634e+06

>  <Rbt.Current_Directory>
/home/itssahil/PROJECTS/Mol_Feturizer/New_Systems/rnas/2fcy

>  <Rbt.Executable>
rbdock ($Id: //depot/dev/client3/rdock/2013.1/src/exe/rbdock.cxx#4 $)

>  <Rbt.Library>
libRbt.so (2013.1, Build901 2013/11/27)

>  <Rbt.Parameter_File>
/export/apps/rDock/src/rDock_2013.1_src/data/scripts/dock_solv.prm

>  <Rbt.Receptor>
prm/blind_docking_100.prm

>  <SCORE>
14.8513

>  <SCORE.INTER>
-8.46043

>  <SCORE.INTER.CONST>
1

>  <SCORE.INTER.POLAR>
-0.458298

>  <SCORE.INTER.ROT>
9

>  <SCORE.INTER.SOLV>
26.2152

>  <SCORE.INTER.VDW>
-22.451

>  <SCORE.INTER.norm>
-0.201439

>  <SCORE.INTRA>
16.4761

>  <SCORE.INTRA.DIHEDRAL>
7.22721

>  <SCORE.INTRA.DIHEDRAL.0>
17.3446

>  <SCORE.INTRA.POLAR>
0

>  <SCORE.INTRA.POLAR.0>
0

>  <SCORE.INTRA.REPUL>
0.06854

>  <SCORE.INTRA.REPUL.0>
0

>  <SCORE.INTRA.SOLV>
1.96287

>  <SCORE.INTRA.SOLV.lig_0>
-112.452

>  <SCORE.INTRA.VDW>
11.5384

>  <SCORE.INTRA.VDW.0>
-5.95059

>  <SCORE.INTRA.norm>
0.392288

>  <SCORE.RESTR>
6.83563

>  <SCORE.RESTR.CAVITY>
6.83563

>  <SCORE.RESTR.norm>
0.162753

>  <SCORE.SYSTEM>
0

>  <SCORE.SYSTEM.CONST>
0

>  <SCORE.SYSTEM.DIHEDRAL>
0

>  <SCORE.SYSTEM.SOLV>
0

>  <SCORE.SYSTEM.norm>
0

>  <SCORE.heavy>
42

>  <SCORE.norm>
0.353602

>  <RMSD>
8.238

$$$$
2fcy_lig
 OpenBabel11021811433D
libRbt.so/2013.1/901 2013/11/27
 42 45  0  0  0  0  0  0  0  0999 V2000
   -4.3216   93.9493    9.5330 C   0  0  2  0  0  0  0  0  0  0  0  0
   -2.9770   93.5151    9.2672 O   0  0  0  0  0  0  0  0  0  0  0  0
   -4.6030   93.5410   10.9798 C   0  0  2  0  0  0  0  0  0  0  0  0
   -3.5560   94.1072   11.8412 N   0  0  0  0  0  0  0  0  0  0  0  0
   -4.5853   92.0146   11.0939 C   0  0  1  0  0  0  0  0  0  0  0  0
   -4.8506   91.6079   12.4393 O   0  0  0  0  0  0  0  0  0  0  0  0
   -5.6242   91.4230   10.1407 C   0  0  2  0  0  0  0  0  0  0  0  0
   -5.5391   89.9986   10.1776 O   0  0  0  0  0  0  0  0  0  0  0  0
   -5.3042   91.8817    8.7172 C   0  0  2  0  0  0  0  0  0  0  0  0
   -5.2869   93.3169    8.6677 O   0  0  0  0  0  0  0  0  0  0  0  0
   -6.3444   91.3033    7.7543 C   0  0  0  0  0  0  0  0  0  0  0  0
   -7.6462   91.9654    7.9260 N   0  0  0  0  0  0  0  0  0  0  0  0
   -0.4387   94.1562    5.9820 C   0  0  2  0  0  0  0  0  0  0  0  0
    0.3563   94.6476    4.8464 N   0  0  0  0  0  0  0  0  0  0  0  0
   -1.9301   94.4067    5.7506 C   0  0  0  0  0  0  0  0  0  0  0  0
   -2.7112   93.7580    6.8979 C   0  0  2  0  0  0  0  0  0  0  0  0
   -4.1414   94.0606    6.7435 N   0  0  0  0  0  0  0  0  0  0  0  0
   -2.2698   94.2743    8.2706 C   0  0  2  0  0  0  0  0  0  0  0  0
   -0.7615   94.2820    8.4928 C   0  0  2  0  0  0  0  0  0  0  0  0
   -0.5437   95.1355    9.6278 O   0  0  0  0  0  0  0  0  0  0  0  0
   -0.0090   94.8448    7.2797 C   0  0  1  0  0  0  0  0  0  0  0  0
    1.4018   94.6622    7.4260 O   0  0  0  0  0  0  0  0  0  0  0  0
   -0.5087   94.4777   10.9046 C   0  0  1  0  0  0  0  0  0  0  0  0
    0.7960   93.6828   10.9791 C   0  0  2  0  0  0  0  0  0  0  0  0
    0.6258   92.4180   10.3350 O   0  0  0  0  0  0  0  0  0  0  0  0
    0.8614   93.4809   12.4901 C   0  0  1  0  0  0  0  0  0  0  0  0
    0.5194   94.8828   12.9695 C   0  0  2  0  0  0  0  0  0  0  0  0
   -0.4390   95.3911   12.0188 O   0  0  0  0  0  0  0  0  0  0  0  0
    1.7980   95.7282   12.9985 C   0  0  0  0  0  0  0  0  0  0  0  0
    1.5407   97.0083   13.5830 O   0  0  0  0  0  0  0  0  0  0  0  0
   -0.2685   92.5744   14.3341 C   0  0  2  0  0  0  0  0  0  0  0  0
   -0.1582   92.5569   12.9027 O   0  0  0  0  0  0  0  0  0  0  0  0
    0.9129   91.8167   14.9484 C   0  0  1  0  0  0  0  0  0  0  0  0
   -4.1310   92.2515   15.7981 N   0  0  0  0  0  0  0  0  0  0  0  0
    0.7620   91.7351   16.4712 C   0  0  1  0  0  0  0  0  0  0  0  0
    0.9082   93.0337   17.0547 O   0  0  0  0  0  0  0  0  0  0  0  0
   -0.6108   91.1572   16.8261 C   0  0  2  0  0  0  0  0  0  0  0  0
   -0.6667   89.8017   16.3690 O   0  0  0  0  0  0  0  0  0  0  0  0
   -1.7073   91.9860   16.1485 C   0  0  1  0  0  0  0  0  0  0  0  0
   -1.5179   91.9761   14.7214 O   0  0  0  0  0  0  0  0  0  0  0  0
   -3.1037   91.4593   16.4902 C   0  0  0  0  0  0  0  0  0  0  0  0
    0.9275   90.4485   14.4091 N   0  0  0  0  0  0  0  0  0  0  0  0
  1  2  1  6  0  0  0
  1  3  1  0  0  0  0
  1 10  1  0  0  0  0
  3  4  1  1  0  0  0
  3  5  1  0  0  0  0
  5  6  1  1  0  0  0
  5  7  1  0  0  0  0
  7  8  1  6  0  0  0
  7  9  1  0  0  0  0
  9 10  1  0  0  0  0
  9 11  1  6  0  0  0
 11 12  1  0  0  0  0
 13 14  1  6  0  0  0
 13 15  1  0  0  0  0
 13 21  1  0  0  0  0
 16 15  1  0  0  0  0
 16 17  1  6  0  0  0
 18  2  1  1  0  0  0
 18 16  1  0  0  0  0
 19 18  1  0  0  0  0
 19 20  1  1  0  0  0
 21 19  1  0  0  0  0
 21 22  1  1  0  0  0
 23 20  1  6  0  0  0
 23 24  1  0  0  0  0
 23 28  1  0  0  0  0
 24 25  1  6  0  0  0
 24 26  1  0  0  0  0
 26 27  1  0  0  0  0
 26 32  1  1  0  0  0
 27 28  1  0  0  0  0
 27 29  1  6  0  0  0
 29 30  1  0  0  0  0
 31 32  1  6  0  0  0
 31 40  1  0  0  0  0
 33 31  1  0  0  0  0
 33 42  1  6  0  0  0
 35 33  1  0  0  0  0
 35 36  1  1  0  0  0
 37 35  1  0  0  0  0
 37 38  1  6  0  0  0
 37 39  1  0  0  0  0
 39 40  1  0  0  0  0
 39 41  1  6  0  0  0
 41 34  1  0  0  0  0
M  END
>  <CHROM.1>
-152.50305301,71.68735007,-81.24359781,92.30700796,71.54504194,-168.56443146
-173.66457626,-75.30298424,-178.49832756,-1.77683509,93.11093915,11.28084932
1.94548440,-0.41821340,-1.25768781

>  <Name>
2fcy_lig

>  <RI>
0

>  <Rbt.Current_Directory>
/home/itssahil/PROJECTS/Mol_Feturizer/New_Systems/rnas/2fcy

>  <Rbt.Executable>
rbdock ($Id: //depot/dev/client3/rdock/2013.1/src/exe/rbdock.cxx#4 $)

>  <Rbt.Library>
libRbt.so (2013.1, Build901 2013/11/27)

>  <Rbt.Parameter_File>
/export/apps/rDock/src/rDock_2013.1_src/data/scripts/dock_solv.prm

>  <Rbt.Receptor>
prm/pocket_docking_5.prm

>  <SCORE>
-10.129

>  <SCORE.INTER>
-12.4099

>  <SCORE.INTER.CONST>
1

>  <SCORE.INTER.POLAR>
-1.91833

>  <SCORE.INTER.ROT>
9

>  <SCORE.INTER.SOLV>
23.6263

>  <SCORE.INTER.VDW>
-19.3543

>  <SCORE.INTER.norm>
-0.295474

>  <SCORE.INTRA>
2.28087

>  <SCORE.INTRA.DIHEDRAL>
-4.70491

>  <SCORE.INTRA.DIHEDRAL.0>
17.3446

>  <SCORE.INTRA.POLAR>
0

>  <SCORE.INTRA.POLAR.0>
0

>  <SCORE.INTRA.REPUL>
0.0103611

>  <SCORE.INTRA.REPUL.0>
0

>  <SCORE.INTRA.SOLV>
1.91604

>  <SCORE.INTRA.SOLV.lig_0>
-112.452

>  <SCORE.INTRA.VDW>
3.62351

>  <SCORE.INTRA.VDW.0>
-5.95059

>  <SCORE.INTRA.norm>
0.0543065

>  <SCORE.RESTR>
0

>  <SCORE.RESTR.CAVITY>
0

>  <SCORE.RESTR.norm>
0

>  <SCORE.SYSTEM>
0

>  <SCORE.SYSTEM.CONST>
0

>  <SCORE.SYSTEM.DIHEDRAL>
0

>  <SCORE.SYSTEM.SOLV>
0

>  <SCORE.SYSTEM.norm>
0

>  <SCORE.heavy>
42

>  <SCORE.norm>
-0.241168

>  <RMSD>
8.268

$$$$
2fcy_lig
 OpenBabel11021811433D
libRbt.so/2013.1/901 2013/11/27
 42 45  0  0  0  0  0  0  0  0999 V2000
   -1.1477   89.3740    9.3958 C   0  0  2  0  0  0  0  0  0  0  0  0
   -0.5902   89.6640    8.1027 O   0  0  0  0  0  0  0  0  0  0  0  0
   -0.4653   88.0841    9.8536 C   0  0  2  0  0  0  0  0  0  0  0  0
    0.9903   88.2776    9.8031 N   0  0  0  0  0  0  0  0  0  0  0  0
   -0.8587   86.9371    8.9193 C   0  0  1  0  0  0  0  0  0  0  0  0
   -0.2351   85.7173    9.3305 O   0  0  0  0  0  0  0  0  0  0  0  0
   -2.3802   86.7859    8.9152 C   0  0  2  0  0  0  0  0  0  0  0  0
   -2.7505   85.7813    7.9711 O   0  0  0  0  0  0  0  0  0  0  0  0
   -3.0055   88.1092    8.4711 C   0  0  2  0  0  0  0  0  0  0  0  0
   -2.5736   89.1621    9.3471 O   0  0  0  0  0  0  0  0  0  0  0  0
   -4.5304   87.9731    8.4726 C   0  0  0  0  0  0  0  0  0  0  0  0
   -4.9770   87.0460    7.4221 N   0  0  0  0  0  0  0  0  0  0  0  0
    0.0518   93.0844    5.7500 C   0  0  2  0  0  0  0  0  0  0  0  0
    0.0319   94.3711    5.0379 N   0  0  0  0  0  0  0  0  0  0  0  0
   -1.2116   92.2760    5.4478 C   0  0  0  0  0  0  0  0  0  0  0  0
   -1.0721   90.9001    6.1070 C   0  0  2  0  0  0  0  0  0  0  0  0
   -2.3118   90.1367    5.9039 N   0  0  0  0  0  0  0  0  0  0  0  0
   -0.8248   90.9970    7.6152 C   0  0  2  0  0  0  0  0  0  0  0  0
    0.2722   91.9760    8.0187 C   0  0  2  0  0  0  0  0  0  0  0  0
    0.0826   92.2094    9.4236 O   0  0  0  0  0  0  0  0  0  0  0  0
    0.1575   93.3053    7.2609 C   0  0  1  0  0  0  0  0  0  0  0  0
    1.3000   94.1303    7.5040 O   0  0  0  0  0  0  0  0  0  0  0  0
    1.0051   93.1270   10.0329 C   0  0  1  0  0  0  0  0  0  0  0  0
    0.1926   94.0934   10.8963 C   0  0  2  0  0  0  0  0  0  0  0  0
   -0.3187   95.1517   10.0825 O   0  0  0  0  0  0  0  0  0  0  0  0
    1.3198   94.6258   11.7762 C   0  0  1  0  0  0  0  0  0  0  0  0
    2.0284   93.3278   12.1299 C   0  0  2  0  0  0  0  0  0  0  0  0
    1.9159   92.4963   10.9565 O   0  0  0  0  0  0  0  0  0  0  0  0
    1.3398   92.6960   13.3452 C   0  0  0  0  0  0  0  0  0  0  0  0
    1.5904   93.4689   14.5227 O   0  0  0  0  0  0  0  0  0  0  0  0
    2.0507   96.8273   11.4331 C   0  0  2  0  0  0  0  0  0  0  0  0
    2.1888   95.4655   10.9996 O   0  0  0  0  0  0  0  0  0  0  0  0
    0.9257   97.5047   10.6440 C   0  0  1  0  0  0  0  0  0  0  0  0
    5.6299   98.6833   12.2400 N   0  0  0  0  0  0  0  0  0  0  0  0
    0.8281   98.9876   11.0182 C   0  0  1  0  0  0  0  0  0  0  0  0
    0.3705   99.1301   12.3668 O   0  0  0  0  0  0  0  0  0  0  0  0
    2.1979   99.6534   10.8609 C   0  0  2  0  0  0  0  0  0  0  0  0
    2.5559   99.6375    9.4749 O   0  0  0  0  0  0  0  0  0  0  0  0
    3.2393   98.8850   11.6815 C   0  0  1  0  0  0  0  0  0  0  0  0
    3.2986   97.5160   11.2397 O   0  0  0  0  0  0  0  0  0  0  0  0
    4.6258   99.5255   11.5735 C   0  0  0  0  0  0  0  0  0  0  0  0
    1.2312   97.4070    9.2087 N   0  0  0  0  0  0  0  0  0  0  0  0
  1  2  1  6  0  0  0
  1  3  1  0  0  0  0
  1 10  1  0  0  0  0
  3  4  1  6  0  0  0
  3  5  1  0  0  0  0
  5  6  1  1  0  0  0
  5  7  1  0  0  0  0
  7  8  1  6  0  0  0
  7  9  1  0  0  0  0
  9 10  1  0  0  0  0
  9 11  1  1  0  0  0
 11 12  1  0  0  0  0
 13 14  1  6  0  0  0
 13 15  1  0  0  0  0
 13 21  1  0  0  0  0
 16 15  1  0  0  0  0
 16 17  1  1  0  0  0
 18  2  1  6  0  0  0
 18 16  1  0  0  0  0
 19 18  1  0  0  0  0
 19 20  1  1  0  0  0
 21 19  1  0  0  0  0
 21 22  1  6  0  0  0
 23 20  1  1  0  0  0
 23 24  1  0  0  0  0
 23 28  1  0  0  0  0
 24 25  1  6  0  0  0
 24 26  1  0  0  0  0
 26 27  1  0  0  0  0
 26 32  1  6  0  0  0
 27 28  1  0  0  0  0
 27 29  1  1  0  0  0
 29 30  1  0  0  0  0
 31 32  1  6  0  0  0
 31 40  1  0  0  0  0
 33 31  1  0  0  0  0
 33 42  1  6  0  0  0
 35 33  1  0  0  0  0
 35 36  1  1  0  0  0
 37 35  1  0  0  0  0
 37 38  1  6  0  0  0
 37 39  1  0  0  0  0
 39 40  1  0  0  0  0
 39 41  1  6  0  0  0
 41 34  1  0  0  0  0
M  END
>  <CHROM.1>
-165.08111704,-67.87786891,-142.25407735,-179.29880083,133.72467472,111.21929786
-69.98355796,-88.79516840,-173.45795036,0.30158501,92.96738286,9.56235234
-2.59064354,-1.08380395,-0.66820565

>  <Name>
2fcy_lig

>  <RI>
2.32494e+07

>  <Rbt.Current_Directory>
/home/itssahil/PROJECTS/Mol_Feturizer/New_Systems/rnas/2fcy

>  <Rbt.Executable>
rbdock ($Id: //depot/dev/client3/rdock/2013.1/src/exe/rbdock.cxx#4 $)

>  <Rbt.Library>
libRbt.so (2013.1, Build901 2013/11/27)

>  <Rbt.Parameter_File>
/export/apps/rDock/src/rDock_2013.1_src/data/scripts/dock_solv.prm

>  <Rbt.Receptor>
prm/pocket_docking_8.prm

>  <SCORE>
-15.3811

>  <SCORE.INTER>
-20.222

>  <SCORE.INTER.CONST>
1

>  <SCORE.INTER.POLAR>
-3.49084

>  <SCORE.INTER.ROT>
9

>  <SCORE.INTER.SOLV>
22.2333

>  <SCORE.INTER.VDW>
-18.8563

>  <SCORE.INTER.norm>
-0.481476

>  <SCORE.INTRA>
4.72088

>  <SCORE.INTRA.DIHEDRAL>
5.56874

>  <SCORE.INTRA.DIHEDRAL.0>
17.3446

>  <SCORE.INTRA.POLAR>
0

>  <SCORE.INTRA.POLAR.0>
0

>  <SCORE.INTRA.REPUL>
0.0220331

>  <SCORE.INTRA.REPUL.0>
0

>  <SCORE.INTRA.SOLV>
-0.675725

>  <SCORE.INTRA.SOLV.lig_0>
-112.452

>  <SCORE.INTRA.VDW>
2.16421

>  <SCORE.INTRA.VDW.0>
-5.95059

>  <SCORE.INTRA.norm>
0.112402

>  <SCORE.RESTR>
0.120022

>  <SCORE.RESTR.CAVITY>
0.120022

>  <SCORE.RESTR.norm>
0.00285768

>  <SCORE.SYSTEM>
0

>  <SCORE.SYSTEM.CONST>
0

>  <SCORE.SYSTEM.DIHEDRAL>
0

>  <SCORE.SYSTEM.SOLV>
0

>  <SCORE.SYSTEM.norm>
0

>  <SCORE.heavy>
42

>  <SCORE.norm>
-0.366217

>  <RMSD>
8.282

$$$$
2fcy_lig
 OpenBabel11021811433D
libRbt.so/2013.1/901 2013/11/27
 42 45  0  0  0  0  0  0  0  0999 V2000
   -1.0587   89.5296    9.1380 C   0  0  2  0  0  0  0  0  0  0  0  0
   -0.4965   89.6756    7.8228 O   0  0  0  0  0  0  0  0  0  0  0  0
   -0.4162   88.2686    9.7179 C   0  0  2  0  0  0  0  0  0  0  0  0
    1.0446   88.4097    9.6487 N   0  0  0  0  0  0  0  0  0  0  0  0
   -0.8491   87.0501    8.8988 C   0  0  1  0  0  0  0  0  0  0  0  0
   -0.2633   85.8563    9.4255 O   0  0  0  0  0  0  0  0  0  0  0  0
   -2.3747   86.9481    8.9096 C   0  0  2  0  0  0  0  0  0  0  0  0
   -2.7799   85.8695    8.0669 O   0  0  0  0  0  0  0  0  0  0  0  0
   -2.9589   88.2418    8.3401 C   0  0  2  0  0  0  0  0  0  0  0  0
   -2.4908   89.3598    9.1103 O   0  0  0  0  0  0  0  0  0  0  0  0
   -4.4873   88.1554    8.3551 C   0  0  0  0  0  0  0  0  0  0  0  0
   -5.0898   89.4011    7.8573 N   0  0  0  0  0  0  0  0  0  0  0  0
    0.0560   92.8865    5.1711 C   0  0  2  0  0  0  0  0  0  0  0  0
   -0.0184   94.0754    4.3086 N   0  0  0  0  0  0  0  0  0  0  0  0
   -1.0367   91.8800    4.8052 C   0  0  0  0  0  0  0  0  0  0  0  0
   -0.8260   90.6146    5.6427 C   0  0  2  0  0  0  0  0  0  0  0  0
   -1.9159   89.6661    5.3718 N   0  0  0  0  0  0  0  0  0  0  0  0
   -0.8208   90.9033    7.1467 C   0  0  2  0  0  0  0  0  0  0  0  0
    0.0721   92.0647    7.5687 C   0  0  2  0  0  0  0  0  0  0  0  0
   -0.3528   92.4151    8.8957 O   0  0  0  0  0  0  0  0  0  0  0  0
   -0.0937   93.2775    6.6433 C   0  0  1  0  0  0  0  0  0  0  0  0
    0.8872   94.2770    6.9330 O   0  0  0  0  0  0  0  0  0  0  0  0
    0.5683   93.2153    9.6542 C   0  0  1  0  0  0  0  0  0  0  0  0
   -0.2546   94.1352   10.5577 C   0  0  2  0  0  0  0  0  0  0  0  0
   -0.6555   95.2956    9.8251 O   0  0  0  0  0  0  0  0  0  0  0  0
    0.8329   94.5146   11.5586 C   0  0  1  0  0  0  0  0  0  0  0  0
    1.4509   93.1506   11.8225 C   0  0  2  0  0  0  0  0  0  0  0  0
    1.3804   92.4468   10.5654 O   0  0  0  0  0  0  0  0  0  0  0  0
    0.6490   92.4410   12.9196 C   0  0  0  0  0  0  0  0  0  0  0  0
    1.2333   91.1722   13.2281 O   0  0  0  0  0  0  0  0  0  0  0  0
    1.6537   96.7085   11.4497 C   0  0  2  0  0  0  0  0  0  0  0  0
    1.7940   95.3775   10.9299 O   0  0  0  0  0  0  0  0  0  0  0  0
    0.6923   97.5062   10.5628 C   0  0  1  0  0  0  0  0  0  0  0  0
    4.2681  100.4793   12.9761 N   0  0  0  0  0  0  0  0  0  0  0  0
    0.6064   98.9599   11.0402 C   0  0  1  0  0  0  0  0  0  0  0  0
   -0.0425   99.0266   12.3140 O   0  0  0  0  0  0  0  0  0  0  0  0
    2.0129   99.5565   11.1413 C   0  0  2  0  0  0  0  0  0  0  0  0
    2.5749   99.6245    9.8264 O   0  0  0  0  0  0  0  0  0  0  0  0
    2.8828   98.6705   12.0394 C   0  0  1  0  0  0  0  0  0  0  0  0
    2.9463   97.3375   11.4993 O   0  0  0  0  0  0  0  0  0  0  0  0
    4.2972   99.2373   12.1896 C   0  0  0  0  0  0  0  0  0  0  0  0
    1.2062   97.4995    9.1848 N   0  0  0  0  0  0  0  0  0  0  0  0
  1  2  1  6  0  0  0
  1  3  1  0  0  0  0
  1 10  1  0  0  0  0
  3  4  1  6  0  0  0
  3  5  1  0  0  0  0
  5  6  1  1  0  0  0
  5  7  1  0  0  0  0
  7  8  1  6  0  0  0
  7  9  1  0  0  0  0
  9 10  1  0  0  0  0
  9 11  1  1  0  0  0
 11 12  1  0  0  0  0
 13 14  1  6  0  0  0
 13 15  1  0  0  0  0
 13 21  1  0  0  0  0
 16 15  1  0  0  0  0
 16 17  1  1  0  0  0
 18  2  1  1  0  0  0
 18 16  1  0  0  0  0
 19 18  1  0  0  0  0
 19 20  1  1  0  0  0
 21 19  1  0  0  0  0
 21 22  1  1  0  0  0
 23 20  1  1  0  0  0
 23 24  1  0  0  0  0
 23 28  1  0  0  0  0
 24 25  1  6  0  0  0
 24 26  1  0  0  0  0
 26 27  1  0  0  0  0
 26 32  1  6  0  0  0
 27 28  1  0  0  0  0
 27 29  1  1  0  0  0
 29 30  1  0  0  0  0
 31 32  1  6  0  0  0
 31 40  1  0  0  0  0
 33 31  1  0  0  0  0
 33 42  1  6  0  0  0
 35 33  1  0  0  0  0
 35 36  1  1  0  0  0
 37 35  1  0  0  0  0
 37 38  1  6  0  0  0
 37 39  1  0  0  0  0
 39 40  1  0  0  0  0
 39 41  1  6  0  0  0
 41 34  1  0  0  0  0
M  END
>  <CHROM.1>
-171.97658749,178.04093885,-150.35366288,162.89696867,146.99341867,108.76792192
-177.88546225,-92.25300340,68.91691169,0.10054500,92.97780914,9.38269671
-2.70742634,-1.16554736,-0.78106494

>  <Name>
2fcy_lig

>  <RI>
224

>  <Rbt.Current_Directory>
/home/itssahil/PROJECTS/Mol_Feturizer/New_Systems/rnas/2fcy

>  <Rbt.Executable>
rbdock ($Id: //depot/dev/client3/rdock/2013.1/src/exe/rbdock.cxx#4 $)

>  <Rbt.Library>
libRbt.so (2013.1, Build901 2013/11/27)

>  <Rbt.Parameter_File>
/export/apps/rDock/src/rDock_2013.1_src/data/scripts/dock_solv.prm

>  <Rbt.Receptor>
prm/pocket_docking_6.prm

>  <SCORE>
-16.3378

>  <SCORE.INTER>
-17.8463

>  <SCORE.INTER.CONST>
1

>  <SCORE.INTER.POLAR>
-3.28788

>  <SCORE.INTER.ROT>
9

>  <SCORE.INTER.SOLV>
20.0956

>  <SCORE.INTER.VDW>
-17.2364

>  <SCORE.INTER.norm>
-0.424912

>  <SCORE.INTRA>
1.4857

>  <SCORE.INTRA.DIHEDRAL>
2.6917

>  <SCORE.INTRA.DIHEDRAL.0>
17.3446

>  <SCORE.INTRA.POLAR>
0

>  <SCORE.INTRA.POLAR.0>
0

>  <SCORE.INTRA.REPUL>
0.00965074

>  <SCORE.INTRA.REPUL.0>
0

>  <SCORE.INTRA.SOLV>
-2.17659

>  <SCORE.INTRA.SOLV.lig_0>
-112.452

>  <SCORE.INTRA.VDW>
1.17989

>  <SCORE.INTRA.VDW.0>
-5.95059

>  <SCORE.INTRA.norm>
0.0353737

>  <SCORE.RESTR>
0.022771

>  <SCORE.RESTR.CAVITY>
0.022771

>  <SCORE.RESTR.norm>
0.000542168

>  <SCORE.SYSTEM>
0

>  <SCORE.SYSTEM.CONST>
0

>  <SCORE.SYSTEM.DIHEDRAL>
0

>  <SCORE.SYSTEM.SOLV>
0

>  <SCORE.SYSTEM.norm>
0

>  <SCORE.heavy>
42

>  <SCORE.norm>
-0.388996

>  <RMSD>
8.294

$$$$
2fcy_lig
 OpenBabel11021811433D
libRbt.so/2013.1/901 2013/11/27
 42 45  0  0  0  0  0  0  0  0999 V2000
   -4.1514   89.1445    7.9504 C   0  0  2  0  0  0  0  0  0  0  0  0
   -3.0933   89.8517    7.2817 O   0  0  0  0  0  0  0  0  0  0  0  0
   -5.4209   89.9496    7.6688 C   0  0  2  0  0  0  0  0  0  0  0  0
   -5.5647   90.1094    6.2153 N   0  0  0  0  0  0  0  0  0  0  0  0
   -5.3087   91.3286    8.3236 C   0  0  1  0  0  0  0  0  0  0  0  0
   -6.4879   92.0996    8.0773 O   0  0  0  0  0  0  0  0  0  0  0  0
   -5.0837   91.1593    9.8265 C   0  0  2  0  0  0  0  0  0  0  0  0
   -4.8830   92.4421   10.4195 O   0  0  0  0  0  0  0  0  0  0  0  0
   -3.8165   90.3312   10.0446 C   0  0  2  0  0  0  0  0  0  0  0  0
   -3.9482   89.0669    9.3763 O   0  0  0  0  0  0  0  0  0  0  0  0
   -3.5861   90.1464   11.5468 C   0  0  0  0  0  0  0  0  0  0  0  0
   -2.3358   89.4154   11.8015 N   0  0  0  0  0  0  0  0  0  0  0  0
   -0.1300   87.2524    8.7339 C   0  0  2  0  0  0  0  0  0  0  0  0
    1.0552   86.4287    9.0165 N   0  0  0  0  0  0  0  0  0  0  0  0
   -0.6919   86.9386    7.3459 C   0  0  0  0  0  0  0  0  0  0  0  0
   -1.9936   87.7257    7.1640 C   0  0  2  0  0  0  0  0  0  0  0  0
   -2.5065   87.5079    5.8036 N   0  0  0  0  0  0  0  0  0  0  0  0
   -1.7967   89.2326    7.3534 C   0  0  2  0  0  0  0  0  0  0  0  0
   -1.0246   89.6206    8.6096 C   0  0  2  0  0  0  0  0  0  0  0  0
   -0.6167   90.9830    8.4057 O   0  0  0  0  0  0  0  0  0  0  0  0
    0.2167   88.7413    8.8107 C   0  0  1  0  0  0  0  0  0  0  0  0
    0.8133   88.9868   10.0870 O   0  0  0  0  0  0  0  0  0  0  0  0
   -0.1810   91.6857    9.5807 C   0  0  1  0  0  0  0  0  0  0  0  0
    0.3138   93.0636    9.1379 C   0  0  2  0  0  0  0  0  0  0  0  0
    1.6698   92.9681    8.6953 O   0  0  0  0  0  0  0  0  0  0  0  0
    0.2667   93.7742   10.4874 C   0  0  1  0  0  0  0  0  0  0  0  0
   -1.0936   93.3179   10.9906 C   0  0  2  0  0  0  0  0  0  0  0  0
   -1.2479   91.9667   10.5097 O   0  0  0  0  0  0  0  0  0  0  0  0
   -2.1738   94.2501   10.4300 C   0  0  0  0  0  0  0  0  0  0  0  0
   -2.0395   95.5633   10.9812 O   0  0  0  0  0  0  0  0  0  0  0  0
    1.9796   94.3623   11.9769 C   0  0  2  0  0  0  0  0  0  0  0  0
    1.3038   93.2663   11.3418 O   0  0  0  0  0  0  0  0  0  0  0  0
    3.0406   93.8210   12.9405 C   0  0  1  0  0  0  0  0  0  0  0  0
   -0.3291   97.7418   12.8756 N   0  0  0  0  0  0  0  0  0  0  0  0
    3.7049   94.9710   13.7051 C   0  0  1  0  0  0  0  0  0  0  0  0
    4.4929   95.7686   12.8156 O   0  0  0  0  0  0  0  0  0  0  0  0
    2.6331   95.8389   14.3703 C   0  0  2  0  0  0  0  0  0  0  0  0
    1.9685   95.0573   15.3687 O   0  0  0  0  0  0  0  0  0  0  0  0
    1.6264   96.3098   13.3152 C   0  0  1  0  0  0  0  0  0  0  0  0
    1.0181   95.1721   12.6760 O   0  0  0  0  0  0  0  0  0  0  0  0
    0.5429   97.2009   13.9286 C   0  0  0  0  0  0  0  0  0  0  0  0
    2.3854   92.9337   13.9134 N   0  0  0  0  0  0  0  0  0  0  0  0
  1  2  1  6  0  0  0
  1  3  1  0  0  0  0
  1 10  1  0  0  0  0
  3  4  1  6  0  0  0
  3  5  1  0  0  0  0
  5  6  1  1  0  0  0
  5  7  1  0  0  0  0
  7  8  1  1  0  0  0
  7  9  1  0  0  0  0
  9 10  1  0  0  0  0
  9 11  1  1  0  0  0
 11 12  1  0  0  0  0
 13 14  1  6  0  0  0
 13 15  1  0  0  0  0
 13 21  1  0  0  0  0
 16 15  1  0  0  0  0
 16 17  1  6  0  0  0
 18  2  1  1  0  0  0
 18 16  1  0  0  0  0
 19 18  1  0  0  0  0
 19 20  1  6  0  0  0
 21 19  1  0  0  0  0
 21 22  1  1  0  0  0
 23 20  1  6  0  0  0
 23 24  1  0  0  0  0
 23 28  1  0  0  0  0
 24 25  1  1  0  0  0
 24 26  1  0  0  0  0
 26 27  1  0  0  0  0
 26 32  1  1  0  0  0
 27 28  1  0  0  0  0
 27 29  1  6  0  0  0
 29 30  1  0  0  0  0
 31 32  1  1  0  0  0
 31 40  1  0  0  0  0
 33 31  1  0  0  0  0
 33 42  1  1  0  0  0
 35 33  1  0  0  0  0
 35 36  1  6  0  0  0
 37 35  1  0  0  0  0
 37 38  1  1  0  0  0
 37 39  1  0  0  0  0
 39 40  1  0  0  0  0
 39 41  1  1  0  0  0
 41 34  1  0  0  0  0
M  END
>  <CHROM.1>
-176.98889383,-176.95672190,41.00154051,164.26929048,175.42935573,134.27661149
-66.92514532,177.26004088,174.49989212,-0.96224907,91.88167511,10.25159982
2.16127915,0.27382545,-2.62502172

>  <Name>
2fcy_lig

>  <RI>
2.89127e+07

>  <Rbt.Current_Directory>
/home/itssahil/PROJECTS/Mol_Feturizer/New_Systems/rnas/2fcy

>  <Rbt.Executable>
rbdock ($Id: //depot/dev/client3/rdock/2013.1/src/exe/rbdock.cxx#4 $)

>  <Rbt.Library>
libRbt.so (2013.1, Build901 2013/11/27)

>  <Rbt.Parameter_File>
/export/apps/rDock/src/rDock_2013.1_src/data/scripts/dock_solv.prm

>  <Rbt.Receptor>
prm/pocket_docking_7.prm

>  <SCORE>
-16.0729

>  <SCORE.INTER>
-13.496

>  <SCORE.INTER.CONST>
1

>  <SCORE.INTER.POLAR>
-3.01859

>  <SCORE.INTER.ROT>
9

>  <SCORE.INTER.SOLV>
16.1192

>  <SCORE.INTER.VDW>
-13.9084

>  <SCORE.INTER.norm>
-0.321333

>  <SCORE.INTRA>
-2.57696

>  <SCORE.INTRA.DIHEDRAL>
-7.81862

>  <SCORE.INTRA.DIHEDRAL.0>
17.3446

>  <SCORE.INTRA.POLAR>
0

>  <SCORE.INTRA.POLAR.0>
0

>  <SCORE.INTRA.REPUL>
0

>  <SCORE.INTRA.REPUL.0>
0

>  <SCORE.INTRA.SOLV>
0.187044

>  <SCORE.INTRA.SOLV.lig_0>
-112.452

>  <SCORE.INTRA.VDW>
1.23883

>  <SCORE.INTRA.VDW.0>
-5.95059

>  <SCORE.INTRA.norm>
-0.0613561

>  <SCORE.RESTR>
0

>  <SCORE.RESTR.CAVITY>
0

>  <SCORE.RESTR.norm>
0

>  <SCORE.SYSTEM>
0

>  <SCORE.SYSTEM.CONST>
0

>  <SCORE.SYSTEM.DIHEDRAL>
0

>  <SCORE.SYSTEM.SOLV>
0

>  <SCORE.SYSTEM.norm>
0

>  <SCORE.heavy>
42

>  <SCORE.norm>
-0.382689

>  <RMSD>
8.318

$$$$
2fcy_lig
 OpenBabel11021811433D
libRbt.so/2013.1/901 2013/11/27
 42 45  0  0  0  0  0  0  0  0999 V2000
   -0.7386   89.0199    8.9009 C   0  0  2  0  0  0  0  0  0  0  0  0
   -0.2101   89.1254    7.5679 O   0  0  0  0  0  0  0  0  0  0  0  0
    0.0212   87.8621    9.5499 C   0  0  2  0  0  0  0  0  0  0  0  0
    1.4627   88.1255    9.4424 N   0  0  0  0  0  0  0  0  0  0  0  0
   -0.3133   86.5578    8.8218 C   0  0  1  0  0  0  0  0  0  0  0  0
    0.3833   85.4582    9.4144 O   0  0  0  0  0  0  0  0  0  0  0  0
   -1.8235   86.3237    8.8697 C   0  0  2  0  0  0  0  0  0  0  0  0
   -2.1433   85.1593    8.1083 O   0  0  0  0  0  0  0  0  0  0  0  0
   -2.5281   87.5197    8.2277 C   0  0  2  0  0  0  0  0  0  0  0  0
   -2.1502   88.7239    8.9130 O   0  0  0  0  0  0  0  0  0  0  0  0
   -4.0425   87.3011    8.2789 C   0  0  0  0  0  0  0  0  0  0  0  0
   -4.7598   88.4505    7.7071 N   0  0  0  0  0  0  0  0  0  0  0  0
    0.3031   92.4025    4.9903 C   0  0  2  0  0  0  0  0  0  0  0  0
    0.2030   93.5826    4.1185 N   0  0  0  0  0  0  0  0  0  0  0  0
   -0.6101   91.2801    4.4931 C   0  0  0  0  0  0  0  0  0  0  0  0
   -0.3637   90.0398    5.3581 C   0  0  2  0  0  0  0  0  0  0  0  0
   -1.2930   88.9745    4.9551 N   0  0  0  0  0  0  0  0  0  0  0  0
   -0.5847   90.3136    6.8486 C   0  0  2  0  0  0  0  0  0  0  0  0
    0.1066   91.5664    7.3750 C   0  0  2  0  0  0  0  0  0  0  0  0
   -0.5225   91.8534    8.6343 O   0  0  0  0  0  0  0  0  0  0  0  0
   -0.0782   92.7603    6.4289 C   0  0  1  0  0  0  0  0  0  0  0  0
    0.7354   93.8636    6.8361 O   0  0  0  0  0  0  0  0  0  0  0  0
    0.0828   92.9011    9.4090 C   0  0  1  0  0  0  0  0  0  0  0  0
   -0.9735   93.4235   10.3842 C   0  0  2  0  0  0  0  0  0  0  0  0
   -1.7983   94.3891    9.7276 O   0  0  0  0  0  0  0  0  0  0  0  0
   -0.0505   94.1296   11.3731 C   0  0  1  0  0  0  0  0  0  0  0  0
    1.0284   93.0719   11.5448 C   0  0  2  0  0  0  0  0  0  0  0  0
    1.1581   92.4420   10.2536 O   0  0  0  0  0  0  0  0  0  0  0  0
    0.5870   92.0764   12.6238 C   0  0  0  0  0  0  0  0  0  0  0  0
    1.6783   91.2350   13.0077 O   0  0  0  0  0  0  0  0  0  0  0  0
    1.0342   96.1671   11.7859 C   0  0  2  0  0  0  0  0  0  0  0  0
    0.5056   95.3064   10.7655 O   0  0  0  0  0  0  0  0  0  0  0  0
   -0.1126   96.7035   12.6486 C   0  0  1  0  0  0  0  0  0  0  0  0
    4.3357   98.5336   10.7485 N   0  0  0  0  0  0  0  0  0  0  0  0
    0.4177   97.7044   13.6807 C   0  0  1  0  0  0  0  0  0  0  0  0
    1.2288   97.0342   14.6509 O   0  0  0  0  0  0  0  0  0  0  0  0
    1.2381   98.7891   12.9772 C   0  0  2  0  0  0  0  0  0  0  0  0
    0.3641   99.5461   12.1330 O   0  0  0  0  0  0  0  0  0  0  0  0
    2.3419   98.1352   12.1392 C   0  0  1  0  0  0  0  0  0  0  0  0
    1.7588   97.2456   11.1689 O   0  0  0  0  0  0  0  0  0  0  0  0
    3.2057   99.1819   11.4302 C   0  0  0  0  0  0  0  0  0  0  0  0
   -1.0725   97.3988   11.7779 N   0  0  0  0  0  0  0  0  0  0  0  0
  1  2  1  6  0  0  0
  1  3  1  0  0  0  0
  1 10  1  0  0  0  0
  3  4  1  6  0  0  0
  3  5  1  0  0  0  0
  5  6  1  1  0  0  0
  5  7  1  0  0  0  0
  7  8  1  6  0  0  0
  7  9  1  0  0  0  0
  9 10  1  0  0  0  0
  9 11  1  1  0  0  0
 11 12  1  0  0  0  0
 13 14  1  6  0  0  0
 13 15  1  0  0  0  0
 13 21  1  0  0  0  0
 16 15  1  0  0  0  0
 16 17  1  6  0  0  0
 18  2  1  1  0  0  0
 18 16  1  0  0  0  0
 19 18  1  0  0  0  0
 19 20  1  1  0  0  0
 21 19  1  0  0  0  0
 21 22  1  1  0  0  0
 23 20  1  1  0  0  0
 23 24  1  0  0  0  0
 23 28  1  0  0  0  0
 24 25  1  6  0  0  0
 24 26  1  0  0  0  0
 26 27  1  0  0  0  0
 26 32  1  6  0  0  0
 27 28  1  0  0  0  0
 27 29  1  1  0  0  0
 29 30  1  0  0  0  0
 31 32  1  6  0  0  0
 31 40  1  0  0  0  0
 33 31  1  0  0  0  0
 33 42  1  6  0  0  0
 35 33  1  0  0  0  0
 35 36  1  1  0  0  0
 37 35  1  0  0  0  0
 37 38  1  6  0  0  0
 37 39  1  0  0  0  0
 39 40  1  0  0  0  0
 39 41  1  6  0  0  0
 41 34  1  0  0  0  0
M  END
>  <CHROM.1>
-168.25932054,178.26716198,-160.69159210,172.24013391,158.36971808,162.88010750
-168.12493230,-66.62445832,174.19418308,-0.04184404,92.42163011,9.50244462
3.01383211,-1.32124986,-1.27448764

>  <Name>
2fcy_lig

>  <RI>
2.89127e+07

>  <Rbt.Current_Directory>
/home/itssahil/PROJECTS/Mol_Feturizer/New_Systems/rnas/2fcy

>  <Rbt.Executable>
rbdock ($Id: //depot/dev/client3/rdock/2013.1/src/exe/rbdock.cxx#4 $)

>  <Rbt.Library>
libRbt.so (2013.1, Build901 2013/11/27)

>  <Rbt.Parameter_File>
/export/apps/rDock/src/rDock_2013.1_src/data/scripts/dock_solv.prm

>  <Rbt.Receptor>
prm/pocket_docking_7.prm

>  <SCORE>
-17.2898

>  <SCORE.INTER>
-12.1778

>  <SCORE.INTER.CONST>
1

>  <SCORE.INTER.POLAR>
-2.40244

>  <SCORE.INTER.ROT>
9

>  <SCORE.INTER.SOLV>
20.8207

>  <SCORE.INTER.VDW>
-16.6506

>  <SCORE.INTER.norm>
-0.289948

>  <SCORE.INTRA>
-5.11204

>  <SCORE.INTRA.DIHEDRAL>
-10.0498

>  <SCORE.INTRA.DIHEDRAL.0>
17.3446

>  <SCORE.INTRA.POLAR>
0

>  <SCORE.INTRA.POLAR.0>
0

>  <SCORE.INTRA.REPUL>
0.000663103

>  <SCORE.INTRA.REPUL.0>
0

>  <SCORE.INTRA.SOLV>
-4.88659

>  <SCORE.INTRA.SOLV.lig_0>
-112.452

>  <SCORE.INTRA.VDW>
2.35286

>  <SCORE.INTRA.VDW.0>
-5.95059

>  <SCORE.INTRA.norm>
-0.121715

>  <SCORE.RESTR>
0

>  <SCORE.RESTR.CAVITY>
0

>  <SCORE.RESTR.norm>
0

>  <SCORE.SYSTEM>
0

>  <SCORE.SYSTEM.CONST>
0

>  <SCORE.SYSTEM.DIHEDRAL>
0

>  <SCORE.SYSTEM.SOLV>
0

>  <SCORE.SYSTEM.norm>
0

>  <SCORE.heavy>
42

>  <SCORE.norm>
-0.411663

>  <RMSD>
8.321

$$$$
2fcy_lig
 OpenBabel11021811433D
libRbt.so/2013.1/901 2013/11/27
 42 45  0  0  0  0  0  0  0  0999 V2000
    4.4433   97.6521   10.5394 C   0  0  2  0  0  0  0  0  0  0  0  0
    4.6069   98.5094   11.6820 O   0  0  0  0  0  0  0  0  0  0  0  0
    3.1197   98.0740    9.8999 C   0  0  2  0  0  0  0  0  0  0  0  0
    3.1670   99.5169    9.6270 N   0  0  0  0  0  0  0  0  0  0  0  0
    1.9676   97.7758   10.8627 C   0  0  1  0  0  0  0  0  0  0  0  0
    0.7169   98.1585   10.2840 O   0  0  0  0  0  0  0  0  0  0  0  0
    1.9659   96.2856   11.2050 C   0  0  2  0  0  0  0  0  0  0  0  0
    0.9525   96.0274   12.1766 O   0  0  0  0  0  0  0  0  0  0  0  0
    3.3178   95.9197   11.8194 C   0  0  2  0  0  0  0  0  0  0  0  0
    4.3694   96.2579   10.9016 O   0  0  0  0  0  0  0  0  0  0  0  0
    3.3316   94.4266   12.1573 C   0  0  0  0  0  0  0  0  0  0  0  0
    3.3852   93.6109   10.9348 N   0  0  0  0  0  0  0  0  0  0  0  0
    8.2831   96.7603   12.7179 C   0  0  2  0  0  0  0  0  0  0  0  0
    9.6116   96.3871   13.2265 N   0  0  0  0  0  0  0  0  0  0  0  0
    8.3490   98.0749   11.9379 C   0  0  0  0  0  0  0  0  0  0  0  0
    6.9705   98.3404   11.3243 C   0  0  2  0  0  0  0  0  0  0  0  0
    6.9854   99.6427   10.6426 N   0  0  0  0  0  0  0  0  0  0  0  0
    5.8593   98.3771   12.3775 C   0  0  2  0  0  0  0  0  0  0  0  0
    5.8716   97.2084   13.3566 C   0  0  2  0  0  0  0  0  0  0  0  0
    5.0416   97.6178   14.4555 O   0  0  0  0  0  0  0  0  0  0  0  0
    7.2863   96.9090   13.8699 C   0  0  1  0  0  0  0  0  0  0  0  0
    7.3073   95.6958   14.6267 O   0  0  0  0  0  0  0  0  0  0  0  0
    3.8328   96.8632   14.6385 C   0  0  1  0  0  0  0  0  0  0  0  0
    4.2060   95.5559   15.3395 C   0  0  2  0  0  0  0  0  0  0  0  0
    4.6521   94.6021   14.3725 O   0  0  0  0  0  0  0  0  0  0  0  0
    2.8228   95.1589   15.8468 C   0  0  1  0  0  0  0  0  0  0  0  0
    2.3437   96.4889   16.4069 C   0  0  2  0  0  0  0  0  0  0  0  0
    2.8915   97.4949   15.5302 O   0  0  0  0  0  0  0  0  0  0  0  0
    2.8577   96.6422   17.8431 C   0  0  0  0  0  0  0  0  0  0  0  0
    2.2392   95.6810   18.7033 O   0  0  0  0  0  0  0  0  0  0  0  0
    1.6261   93.3827   14.8921 C   0  0  2  0  0  0  0  0  0  0  0  0
    1.9941   94.7624   14.7425 O   0  0  0  0  0  0  0  0  0  0  0  0
    0.7939   92.9405   13.6842 C   0  0  1  0  0  0  0  0  0  0  0  0
   -0.2147   90.3045   18.1200 N   0  0  0  0  0  0  0  0  0  0  0  0
    0.3042   91.5004   13.8708 C   0  0  1  0  0  0  0  0  0  0  0  0
    1.4075   90.5903   13.8186 O   0  0  0  0  0  0  0  0  0  0  0  0
   -0.4161   91.3677   15.2154 C   0  0  2  0  0  0  0  0  0  0  0  0
   -1.6031   92.1671   15.1775 O   0  0  0  0  0  0  0  0  0  0  0  0
    0.5057   91.8486   16.3411 C   0  0  1  0  0  0  0  0  0  0  0  0
    0.8839   93.2190   16.1132 O   0  0  0  0  0  0  0  0  0  0  0  0
   -0.1630   91.7162   17.7121 C   0  0  0  0  0  0  0  0  0  0  0  0
   -0.3800   93.8195   13.5729 N   0  0  0  0  0  0  0  0  0  0  0  0
  1  2  1  1  0  0  0
  1  3  1  0  0  0  0
  1 10  1  0  0  0  0
  3  4  1  1  0  0  0
  3  5  1  0  0  0  0
  5  6  1  6  0  0  0
  5  7  1  0  0  0  0
  7  8  1  1  0  0  0
  7  9  1  0  0  0  0
  9 10  1  0  0  0  0
  9 11  1  6  0  0  0
 11 12  1  0  0  0  0
 13 14  1  1  0  0  0
 13 15  1  0  0  0  0
 13 21  1  0  0  0  0
 16 15  1  0  0  0  0
 16 17  1  1  0  0  0
 18  2  1  6  0  0  0
 18 16  1  0  0  0  0
 19 18  1  0  0  0  0
 19 20  1  1  0  0  0
 21 19  1  0  0  0  0
 21 22  1  6  0  0  0
 23 20  1  1  0  0  0
 23 24  1  0  0  0  0
 23 28  1  0  0  0  0
 24 25  1  6  0  0  0
 24 26  1  0  0  0  0
 26 27  1  0  0  0  0
 26 32  1  6  0  0  0
 27 28  1  0  0  0  0
 27 29  1  1  0  0  0
 29 30  1  0  0  0  0
 31 32  1  6  0  0  0
 31 40  1  0  0  0  0
 33 31  1  0  0  0  0
 33 42  1  1  0  0  0
 35 33  1  0  0  0  0
 35 36  1  1  0  0  0
 37 35  1  0  0  0  0
 37 38  1  6  0  0  0
 37 39  1  0  0  0  0
 39 40  1  0  0  0  0
 39 41  1  1  0  0  0
 41 34  1  0  0  0  0
M  END
>  <CHROM.1>
-174.44253099,70.99283994,45.17770690,114.59163150,78.93281230,117.09881590
-67.06856321,-177.51685467,73.59953822,3.24512868,95.54598059,13.65862297
0.77787178,-0.47282342,-1.07398780

>  <Name>
2fcy_lig

>  <RI>
9.29634e+06

>  <Rbt.Current_Directory>
/home/itssahil/PROJECTS/Mol_Feturizer/New_Systems/rnas/2fcy

>  <Rbt.Executable>
rbdock ($Id: //depot/dev/client3/rdock/2013.1/src/exe/rbdock.cxx#4 $)

>  <Rbt.Library>
libRbt.so (2013.1, Build901 2013/11/27)

>  <Rbt.Parameter_File>
/export/apps/rDock/src/rDock_2013.1_src/data/scripts/dock_solv.prm

>  <Rbt.Receptor>
prm/blind_docking_100.prm

>  <SCORE>
6.23365

>  <SCORE.INTER>
-3.73853

>  <SCORE.INTER.CONST>
1

>  <SCORE.INTER.POLAR>
-1.44122

>  <SCORE.INTER.ROT>
9

>  <SCORE.INTER.SOLV>
31.3665

>  <SCORE.INTER.VDW>
-17.7438

>  <SCORE.INTER.norm>
-0.0890125

>  <SCORE.INTRA>
2.88301

>  <SCORE.INTRA.DIHEDRAL>
0.847078

>  <SCORE.INTRA.DIHEDRAL.0>
17.3446

>  <SCORE.INTRA.POLAR>
0

>  <SCORE.INTRA.POLAR.0>
0

>  <SCORE.INTRA.REPUL>
0

>  <SCORE.INTRA.REPUL.0>
0

>  <SCORE.INTRA.SOLV>
0.984892

>  <SCORE.INTRA.SOLV.lig_0>
-112.452

>  <SCORE.INTRA.VDW>
1.96702

>  <SCORE.INTRA.VDW.0>
-5.95059

>  <SCORE.INTRA.norm>
0.068643

>  <SCORE.RESTR>
7.08917

>  <SCORE.RESTR.CAVITY>
7.08917

>  <SCORE.RESTR.norm>
0.16879

>  <SCORE.SYSTEM>
0

>  <SCORE.SYSTEM.CONST>
0

>  <SCORE.SYSTEM.DIHEDRAL>
0

>  <SCORE.SYSTEM.SOLV>
0

>  <SCORE.SYSTEM.norm>
0

>  <SCORE.heavy>
42

>  <SCORE.norm>
0.14842

>  <RMSD>
8.333

$$$$
2fcy_lig
 OpenBabel11021811433D
libRbt.so/2013.1/901 2013/11/27
 42 45  0  0  0  0  0  0  0  0999 V2000
   -6.2413   91.8815    8.1098 C   0  0  2  0  0  0  0  0  0  0  0  0
   -5.3959   93.0422    8.0370 O   0  0  0  0  0  0  0  0  0  0  0  0
   -7.6229   92.4078    8.5012 C   0  0  2  0  0  0  0  0  0  0  0  0
   -8.0231   93.4427    7.5381 N   0  0  0  0  0  0  0  0  0  0  0  0
   -7.5607   93.0158    9.9047 C   0  0  1  0  0  0  0  0  0  0  0  0
   -8.8441   93.5117   10.2951 O   0  0  0  0  0  0  0  0  0  0  0  0
   -7.0716   91.9576   10.8942 C   0  0  2  0  0  0  0  0  0  0  0  0
   -6.9221   92.5525   12.1832 O   0  0  0  0  0  0  0  0  0  0  0  0
   -5.7001   91.4554   10.4404 C   0  0  2  0  0  0  0  0  0  0  0  0
   -5.7967   90.9366    9.1047 O   0  0  0  0  0  0  0  0  0  0  0  0
   -5.2042   90.3873   11.4187 C   0  0  0  0  0  0  0  0  0  0  0  0
   -4.7952   90.9922   12.6952 N   0  0  0  0  0  0  0  0  0  0  0  0
   -2.3655   90.9810    5.9841 C   0  0  2  0  0  0  0  0  0  0  0  0
   -1.1566   90.4985    5.2994 N   0  0  0  0  0  0  0  0  0  0  0  0
   -2.8954   92.2534    5.3200 C   0  0  0  0  0  0  0  0  0  0  0  0
   -4.2210   92.6299    5.9894 C   0  0  2  0  0  0  0  0  0  0  0  0
   -4.7056   93.8986    5.4270 N   0  0  0  0  0  0  0  0  0  0  0  0
   -4.0797   92.8136    7.5033 C   0  0  2  0  0  0  0  0  0  0  0  0
   -3.3404   91.6860    8.2149 C   0  0  2  0  0  0  0  0  0  0  0  0
   -2.9774   92.2145    9.5006 O   0  0  0  0  0  0  0  0  0  0  0  0
   -2.0722   91.2686    7.4586 C   0  0  1  0  0  0  0  0  0  0  0  0
   -1.5036   90.0876    8.0305 O   0  0  0  0  0  0  0  0  0  0  0  0
   -2.0911   93.3452    9.4820 C   0  0  1  0  0  0  0  0  0  0  0  0
   -2.2789   94.1008   10.7987 C   0  0  2  0  0  0  0  0  0  0  0  0
   -3.4002   94.9811   10.6922 O   0  0  0  0  0  0  0  0  0  0  0  0
   -0.9884   94.9151   10.7875 C   0  0  1  0  0  0  0  0  0  0  0  0
    0.0107   93.8406   10.3884 C   0  0  2  0  0  0  0  0  0  0  0  0
   -0.6958   92.9804    9.4710 O   0  0  0  0  0  0  0  0  0  0  0  0
    0.4639   93.0866   11.6439 C   0  0  0  0  0  0  0  0  0  0  0  0
   -0.6069   92.2969   12.1696 O   0  0  0  0  0  0  0  0  0  0  0  0
   -0.4137   97.1203   10.2348 C   0  0  2  0  0  0  0  0  0  0  0  0
   -1.0587   95.9252    9.7686 O   0  0  0  0  0  0  0  0  0  0  0  0
   -0.3754   98.1556    9.1062 C   0  0  1  0  0  0  0  0  0  0  0  0
    2.7715   96.5743   12.8712 N   0  0  0  0  0  0  0  0  0  0  0  0
    0.3989   99.4015    9.5497 C   0  0  1  0  0  0  0  0  0  0  0  0
   -0.3257  100.1001   10.5671 O   0  0  0  0  0  0  0  0  0  0  0  0
    1.7768   98.9946   10.0790 C   0  0  2  0  0  0  0  0  0  0  0  0
    2.5363   98.4444    8.9974 O   0  0  0  0  0  0  0  0  0  0  0  0
    1.6125   97.9517   11.1897 C   0  0  1  0  0  0  0  0  0  0  0  0
    0.9156   96.7992   10.6808 O   0  0  0  0  0  0  0  0  0  0  0  0
    2.9650   97.5266   11.7678 C   0  0  0  0  0  0  0  0  0  0  0  0
    0.3156   97.5667    7.9491 N   0  0  0  0  0  0  0  0  0  0  0  0
  1  2  1  1  0  0  0
  1  3  1  0  0  0  0
  1 10  1  0  0  0  0
  3  4  1  6  0  0  0
  3  5  1  0  0  0  0
  5  6  1  1  0  0  0
  5  7  1  0  0  0  0
  7  8  1  1  0  0  0
  7  9  1  0  0  0  0
  9 10  1  0  0  0  0
  9 11  1  1  0  0  0
 11 12  1  0  0  0  0
 13 14  1  6  0  0  0
 13 15  1  0  0  0  0
 13 21  1  0  0  0  0
 16 15  1  0  0  0  0
 16 17  1  6  0  0  0
 18  2  1  1  0  0  0
 18 16  1  0  0  0  0
 19 18  1  0  0  0  0
 19 20  1  1  0  0  0
 21 19  1  0  0  0  0
 21 22  1  1  0  0  0
 23 20  1  1  0  0  0
 23 24  1  0  0  0  0
 23 28  1  0  0  0  0
 24 25  1  6  0  0  0
 24 26  1  0  0  0  0
 26 27  1  0  0  0  0
 26 32  1  6  0  0  0
 27 28  1  0  0  0  0
 27 29  1  1  0  0  0
 29 30  1  0  0  0  0
 31 32  1  6  0  0  0
 31 40  1  0  0  0  0
 33 31  1  0  0  0  0
 33 42  1  6  0  0  0
 35 33  1  0  0  0  0
 35 36  1  1  0  0  0
 37 35  1  0  0  0  0
 37 38  1  6  0  0  0
 37 39  1  0  0  0  0
 39 40  1  0  0  0  0
 39 41  1  6  0  0  0
 41 34  1  0  0  0  0
M  END
>  <CHROM.1>
-171.81369133,-72.75791373,74.50459281,-62.16185522,156.88975782,143.03682248
69.28534193,174.92911191,177.37618312,-2.54276581,94.00350441,9.46039710
-2.61258356,0.47429170,0.92649642

>  <Name>
2fcy_lig

>  <RI>
224

>  <Rbt.Current_Directory>
/home/itssahil/PROJECTS/Mol_Feturizer/New_Systems/rnas/2fcy

>  <Rbt.Executable>
rbdock ($Id: //depot/dev/client3/rdock/2013.1/src/exe/rbdock.cxx#4 $)

>  <Rbt.Library>
libRbt.so (2013.1, Build901 2013/11/27)

>  <Rbt.Parameter_File>
/export/apps/rDock/src/rDock_2013.1_src/data/scripts/dock_solv.prm

>  <Rbt.Receptor>
prm/pocket_docking_6.prm

>  <SCORE>
-7.97008

>  <SCORE.INTER>
-6.16069

>  <SCORE.INTER.CONST>
1

>  <SCORE.INTER.POLAR>
-1.2761

>  <SCORE.INTER.ROT>
9

>  <SCORE.INTER.SOLV>
10.1256

>  <SCORE.INTER.VDW>
-12.8287

>  <SCORE.INTER.norm>
-0.146683

>  <SCORE.INTRA>
-1.80949

>  <SCORE.INTRA.DIHEDRAL>
-7.68994

>  <SCORE.INTRA.DIHEDRAL.0>
17.3446

>  <SCORE.INTRA.POLAR>
0

>  <SCORE.INTRA.POLAR.0>
0

>  <SCORE.INTRA.REPUL>
0

>  <SCORE.INTRA.REPUL.0>
0

>  <SCORE.INTRA.SOLV>
-2.55042

>  <SCORE.INTRA.SOLV.lig_0>
-112.452

>  <SCORE.INTRA.VDW>
3.31069

>  <SCORE.INTRA.VDW.0>
-5.95059

>  <SCORE.INTRA.norm>
-0.0430832

>  <SCORE.RESTR>
0.000103876

>  <SCORE.RESTR.CAVITY>
0.000103876

>  <SCORE.RESTR.norm>
2.47324e-06

>  <SCORE.SYSTEM>
0

>  <SCORE.SYSTEM.CONST>
0

>  <SCORE.SYSTEM.DIHEDRAL>
0

>  <SCORE.SYSTEM.SOLV>
0

>  <SCORE.SYSTEM.norm>
0

>  <SCORE.heavy>
42

>  <SCORE.norm>
-0.189764

>  <RMSD>
8.338

$$$$
2fcy_lig
 OpenBabel11021811433D
libRbt.so/2013.1/901 2013/11/27
 42 45  0  0  0  0  0  0  0  0999 V2000
   -0.2117   94.0254    7.8651 C   0  0  2  0  0  0  0  0  0  0  0  0
   -0.8173   95.3239    7.9852 O   0  0  0  0  0  0  0  0  0  0  0  0
   -0.4099   93.6170    6.4047 C   0  0  2  0  0  0  0  0  0  0  0  0
    0.1397   94.6716    5.5418 N   0  0  0  0  0  0  0  0  0  0  0  0
   -1.9044   93.4519    6.1173 C   0  0  1  0  0  0  0  0  0  0  0  0
   -2.1149   93.0654    4.7564 O   0  0  0  0  0  0  0  0  0  0  0  0
   -2.4909   92.4076    7.0676 C   0  0  2  0  0  0  0  0  0  0  0  0
   -3.9013   92.3255    6.8637 O   0  0  0  0  0  0  0  0  0  0  0  0
   -2.2444   92.8587    8.5081 C   0  0  2  0  0  0  0  0  0  0  0  0
   -0.8359   93.0443    8.7186 O   0  0  0  0  0  0  0  0  0  0  0  0
   -2.8189   91.8152    9.4697 C   0  0  0  0  0  0  0  0  0  0  0  0
   -2.7539   92.2888   10.8604 N   0  0  0  0  0  0  0  0  0  0  0  0
    0.1984   98.6087   10.3987 C   0  0  2  0  0  0  0  0  0  0  0  0
    0.4934   99.5845   11.4588 N   0  0  0  0  0  0  0  0  0  0  0  0
   -1.2360   98.0903   10.5206 C   0  0  0  0  0  0  0  0  0  0  0  0
   -1.5247   97.1850    9.3189 C   0  0  2  0  0  0  0  0  0  0  0  0
   -2.8682   96.6052    9.4598 N   0  0  0  0  0  0  0  0  0  0  0  0
   -0.5265   96.0291    9.2049 C   0  0  2  0  0  0  0  0  0  0  0  0
    0.9376   96.4393    9.3164 C   0  0  2  0  0  0  0  0  0  0  0  0
    1.6593   95.2246    9.5768 O   0  0  0  0  0  0  0  0  0  0  0  0
    1.1676   97.4261   10.4688 C   0  0  1  0  0  0  0  0  0  0  0  0
    2.4986   97.9480   10.4344 O   0  0  0  0  0  0  0  0  0  0  0  0
    1.3749   94.5877   10.8329 C   0  0  1  0  0  0  0  0  0  0  0  0
    2.2731   93.3542   10.9390 C   0  0  2  0  0  0  0  0  0  0  0  0
    1.6681   92.2580   10.2491 O   0  0  0  0  0  0  0  0  0  0  0  0
    2.1780   93.1241   12.4445 C   0  0  1  0  0  0  0  0  0  0  0  0
    2.3709   94.5444   12.9520 C   0  0  2  0  0  0  0  0  0  0  0  0
    1.7289   95.3916   11.9769 O   0  0  0  0  0  0  0  0  0  0  0  0
    3.8716   94.8374   13.0628 C   0  0  0  0  0  0  0  0  0  0  0  0
    4.0902   96.1290   13.6376 O   0  0  0  0  0  0  0  0  0  0  0  0
    0.9176   91.9379   14.0266 C   0  0  2  0  0  0  0  0  0  0  0  0
    0.8636   92.6542   12.7834 O   0  0  0  0  0  0  0  0  0  0  0  0
   -0.3892   91.1644   14.2296 C   0  0  1  0  0  0  0  0  0  0  0  0
    2.9235   93.7936   17.2106 N   0  0  0  0  0  0  0  0  0  0  0  0
   -0.3947   90.4740   15.5977 C   0  0  1  0  0  0  0  0  0  0  0  0
    0.5778   89.4244   15.6279 O   0  0  0  0  0  0  0  0  0  0  0  0
   -0.0902   91.4966   16.6958 C   0  0  2  0  0  0  0  0  0  0  0  0
   -1.1630   92.4432   16.7474 O   0  0  0  0  0  0  0  0  0  0  0  0
    1.2274   92.2123   16.3797 C   0  0  1  0  0  0  0  0  0  0  0  0
    1.1343   92.8686   15.1017 O   0  0  0  0  0  0  0  0  0  0  0  0
    1.5876   93.2334   17.4623 C   0  0  0  0  0  0  0  0  0  0  0  0
   -1.5114   92.1140   14.1840 N   0  0  0  0  0  0  0  0  0  0  0  0
  1  2  1  6  0  0  0
  1  3  1  0  0  0  0
  1 10  1  0  0  0  0
  3  4  1  6  0  0  0
  3  5  1  0  0  0  0
  5  6  1  6  0  0  0
  5  7  1  0  0  0  0
  7  8  1  6  0  0  0
  7  9  1  0  0  0  0
  9 10  1  0  0  0  0
  9 11  1  1  0  0  0
 11 12  1  0  0  0  0
 13 14  1  1  0  0  0
 13 15  1  0  0  0  0
 13 21  1  0  0  0  0
 16 15  1  0  0  0  0
 16 17  1  1  0  0  0
 18  2  1  6  0  0  0
 18 16  1  0  0  0  0
 19 18  1  0  0  0  0
 19 20  1  1  0  0  0
 21 19  1  0  0  0  0
 21 22  1  6  0  0  0
 23 20  1  6  0  0  0
 23 24  1  0  0  0  0
 23 28  1  0  0  0  0
 24 25  1  6  0  0  0
 24 26  1  0  0  0  0
 26 27  1  0  0  0  0
 26 32  1  6  0  0  0
 27 28  1  0  0  0  0
 27 29  1  6  0  0  0
 29 30  1  0  0  0  0
 31 32  1  6  0  0  0
 31 40  1  0  0  0  0
 33 31  1  0  0  0  0
 33 42  1  1  0  0  0
 35 33  1  0  0  0  0
 35 36  1  6  0  0  0
 37 35  1  0  0  0  0
 37 38  1  6  0  0  0
 37 39  1  0  0  0  0
 39 40  1  0  0  0  0
 39 41  1  1  0  0  0
 41 34  1  0  0  0  0
M  END
>  <CHROM.1>
-168.22829768,-172.89101612,-165.26675754,-65.36597908,-177.93943441,156.62157466
-175.43798853,-166.91283628,173.70935832,0.14746805,94.03767233,11.25146803
2.06978430,-0.95210787,-0.90210406

>  <Name>
2fcy_lig

>  <RI>
0

>  <Rbt.Current_Directory>
/home/itssahil/PROJECTS/Mol_Feturizer/New_Systems/rnas/2fcy

>  <Rbt.Executable>
rbdock ($Id: //depot/dev/client3/rdock/2013.1/src/exe/rbdock.cxx#4 $)

>  <Rbt.Library>
libRbt.so (2013.1, Build901 2013/11/27)

>  <Rbt.Parameter_File>
/export/apps/rDock/src/rDock_2013.1_src/data/scripts/dock_solv.prm

>  <Rbt.Receptor>
prm/pocket_docking_5.prm

>  <SCORE>
-14.6235

>  <SCORE.INTER>
-9.70661

>  <SCORE.INTER.CONST>
1

>  <SCORE.INTER.POLAR>
-1.01824

>  <SCORE.INTER.ROT>
9

>  <SCORE.INTER.SOLV>
16.4848

>  <SCORE.INTER.VDW>
-18.1719

>  <SCORE.INTER.norm>
-0.23111

>  <SCORE.INTRA>
-4.91691

>  <SCORE.INTRA.DIHEDRAL>
-11.5283

>  <SCORE.INTRA.DIHEDRAL.0>
17.3446

>  <SCORE.INTRA.POLAR>
0

>  <SCORE.INTRA.POLAR.0>
0

>  <SCORE.INTRA.REPUL>
0.00845011

>  <SCORE.INTRA.REPUL.0>
0

>  <SCORE.INTRA.SOLV>
-3.47547

>  <SCORE.INTRA.SOLV.lig_0>
-112.452

>  <SCORE.INTRA.VDW>
2.54274

>  <SCORE.INTRA.VDW.0>
-5.95059

>  <SCORE.INTRA.norm>
-0.117069

>  <SCORE.RESTR>
0

>  <SCORE.RESTR.CAVITY>
0

>  <SCORE.RESTR.norm>
0

>  <SCORE.SYSTEM>
0

>  <SCORE.SYSTEM.CONST>
0

>  <SCORE.SYSTEM.DIHEDRAL>
0

>  <SCORE.SYSTEM.SOLV>
0

>  <SCORE.SYSTEM.norm>
0

>  <SCORE.heavy>
42

>  <SCORE.norm>
-0.348179

>  <RMSD>
8.349

$$$$
2fcy_lig
 OpenBabel11021811433D
libRbt.so/2013.1/901 2013/11/27
 42 45  0  0  0  0  0  0  0  0999 V2000
   -1.2157   91.4476    9.4176 C   0  0  2  0  0  0  0  0  0  0  0  0
   -0.6735   91.4654    8.0861 O   0  0  0  0  0  0  0  0  0  0  0  0
   -0.2845   90.5417   10.2246 C   0  0  2  0  0  0  0  0  0  0  0  0
    1.0909   91.0408   10.0907 N   0  0  0  0  0  0  0  0  0  0  0  0
   -0.3623   89.1128    9.6810 C   0  0  1  0  0  0  0  0  0  0  0  0
    0.4983   88.2448   10.4237 O   0  0  0  0  0  0  0  0  0  0  0  0
   -1.8086   88.6218    9.7514 C   0  0  2  0  0  0  0  0  0  0  0  0
   -1.8955   87.3275    9.1557 O   0  0  0  0  0  0  0  0  0  0  0  0
   -2.6925   89.5758    8.9465 C   0  0  2  0  0  0  0  0  0  0  0  0
   -2.5531   90.9091    9.4617 O   0  0  0  0  0  0  0  0  0  0  0  0
   -4.1457   89.0997    9.0180 C   0  0  0  0  0  0  0  0  0  0  0  0
   -4.3415   87.8846    8.2131 N   0  0  0  0  0  0  0  0  0  0  0  0
   -0.5631   94.4869    5.1699 C   0  0  2  0  0  0  0  0  0  0  0  0
   -0.8070   95.5323    4.1646 N   0  0  0  0  0  0  0  0  0  0  0  0
   -1.2473   93.1781    4.7703 C   0  0  0  0  0  0  0  0  0  0  0  0
   -0.8490   92.0982    5.7814 C   0  0  2  0  0  0  0  0  0  0  0  0
   -1.5640   90.8526    5.4682 N   0  0  0  0  0  0  0  0  0  0  0  0
   -1.1979   92.4880    7.2207 C   0  0  2  0  0  0  0  0  0  0  0  0
   -0.7553   93.8897    7.6256 C   0  0  2  0  0  0  0  0  0  0  0  0
   -1.4948   94.1978    8.8182 O   0  0  0  0  0  0  0  0  0  0  0  0
   -1.0807   94.9261    6.5418 C   0  0  1  0  0  0  0  0  0  0  0  0
   -0.4861   96.1895    6.8504 O   0  0  0  0  0  0  0  0  0  0  0  0
   -0.9542   95.2511    9.6321 C   0  0  1  0  0  0  0  0  0  0  0  0
   -2.1092   96.1777   10.0154 C   0  0  2  0  0  0  0  0  0  0  0  0
   -2.3432   97.1154    8.9619 O   0  0  0  0  0  0  0  0  0  0  0  0
   -1.4562   96.8900   11.1963 C   0  0  1  0  0  0  0  0  0  0  0  0
   -0.8440   95.7054   11.9270 C   0  0  2  0  0  0  0  0  0  0  0  0
   -0.4283   94.7891   10.8933 O   0  0  0  0  0  0  0  0  0  0  0  0
   -1.9002   95.0849   12.8487 C   0  0  0  0  0  0  0  0  0  0  0  0
   -2.3936   96.0581   13.7739 O   0  0  0  0  0  0  0  0  0  0  0  0
    0.1053   98.5221   11.8261 C   0  0  2  0  0  0  0  0  0  0  0  0
   -0.4204   97.7664   10.7243 O   0  0  0  0  0  0  0  0  0  0  0  0
    0.9732   99.6672   11.2944 C   0  0  1  0  0  0  0  0  0  0  0  0
    2.6574   98.0356   15.9217 N   0  0  0  0  0  0  0  0  0  0  0  0
    1.6270  100.4256   12.4544 C   0  0  1  0  0  0  0  0  0  0  0  0
    0.6356  101.1313   13.2076 O   0  0  0  0  0  0  0  0  0  0  0  0
    2.3687   99.4424   13.3642 C   0  0  2  0  0  0  0  0  0  0  0  0
    3.4554   98.8709   12.6278 O   0  0  0  0  0  0  0  0  0  0  0  0
    1.4069   98.3406   13.8215 C   0  0  1  0  0  0  0  0  0  0  0  0
    0.8715   97.6511   12.6767 O   0  0  0  0  0  0  0  0  0  0  0  0
    2.0976   97.3409   14.7530 C   0  0  0  0  0  0  0  0  0  0  0  0
    2.0370   99.1007   10.4515 N   0  0  0  0  0  0  0  0  0  0  0  0
  1  2  1  6  0  0  0
  1  3  1  0  0  0  0
  1 10  1  0  0  0  0
  3  4  1  6  0  0  0
  3  5  1  0  0  0  0
  5  6  1  1  0  0  0
  5  7  1  0  0  0  0
  7  8  1  6  0  0  0
  7  9  1  0  0  0  0
  9 10  1  0  0  0  0
  9 11  1  1  0  0  0
 11 12  1  0  0  0  0
 13 14  1  6  0  0  0
 13 15  1  0  0  0  0
 13 21  1  0  0  0  0
 16 15  1  0  0  0  0
 16 17  1  6  0  0  0
 18  2  1  1  0  0  0
 18 16  1  0  0  0  0
 19 18  1  0  0  0  0
 19 20  1  1  0  0  0
 21 19  1  0  0  0  0
 21 22  1  1  0  0  0
 23 20  1  6  0  0  0
 23 24  1  0  0  0  0
 23 28  1  0  0  0  0
 24 25  1  6  0  0  0
 24 26  1  0  0  0  0
 26 27  1  0  0  0  0
 26 32  1  6  0  0  0
 27 28  1  0  0  0  0
 27 29  1  1  0  0  0
 29 30  1  0  0  0  0
 31 32  1  6  0  0  0
 31 40  1  0  0  0  0
 33 31  1  0  0  0  0
 33 42  1  6  0  0  0
 35 33  1  0  0  0  0
 35 36  1  1  0  0  0
 37 35  1  0  0  0  0
 37 38  1  6  0  0  0
 37 39  1  0  0  0  0
 39 40  1  0  0  0  0
 39 41  1  1  0  0  0
 41 34  1  0  0  0  0
M  END
>  <CHROM.1>
-166.33274433,-72.26606060,-163.02110274,160.32240040,133.89936591,174.77840616
-57.70132787,-167.35363123,57.46274224,-0.55027522,94.44780580,9.96119692
-2.93170927,-1.27852070,-0.86047599

>  <Name>
2fcy_lig

>  <RI>
2.32494e+07

>  <Rbt.Current_Directory>
/home/itssahil/PROJECTS/Mol_Feturizer/New_Systems/rnas/2fcy

>  <Rbt.Executable>
rbdock ($Id: //depot/dev/client3/rdock/2013.1/src/exe/rbdock.cxx#4 $)

>  <Rbt.Library>
libRbt.so (2013.1, Build901 2013/11/27)

>  <Rbt.Parameter_File>
/export/apps/rDock/src/rDock_2013.1_src/data/scripts/dock_solv.prm

>  <Rbt.Receptor>
prm/pocket_docking_8.prm

>  <SCORE>
-9.23731

>  <SCORE.INTER>
-7.20057

>  <SCORE.INTER.CONST>
1

>  <SCORE.INTER.POLAR>
-1.60579

>  <SCORE.INTER.ROT>
9

>  <SCORE.INTER.SOLV>
22.5476

>  <SCORE.INTER.VDW>
-16.5636

>  <SCORE.INTER.norm>
-0.171442

>  <SCORE.INTRA>
-2.03674

>  <SCORE.INTRA.DIHEDRAL>
-5.1921

>  <SCORE.INTRA.DIHEDRAL.0>
17.3446

>  <SCORE.INTRA.POLAR>
0

>  <SCORE.INTRA.POLAR.0>
0

>  <SCORE.INTRA.REPUL>
0.0208537

>  <SCORE.INTRA.REPUL.0>
0

>  <SCORE.INTRA.SOLV>
-3.331

>  <SCORE.INTRA.SOLV.lig_0>
-112.452

>  <SCORE.INTRA.VDW>
2.12054

>  <SCORE.INTRA.VDW.0>
-5.95059

>  <SCORE.INTRA.norm>
-0.0484939

>  <SCORE.RESTR>
0

>  <SCORE.RESTR.CAVITY>
0

>  <SCORE.RESTR.norm>
0

>  <SCORE.SYSTEM>
0

>  <SCORE.SYSTEM.CONST>
0

>  <SCORE.SYSTEM.DIHEDRAL>
0

>  <SCORE.SYSTEM.SOLV>
0

>  <SCORE.SYSTEM.norm>
0

>  <SCORE.heavy>
42

>  <SCORE.norm>
-0.219936

>  <RMSD>
8.358

$$$$
2fcy_lig
 OpenBabel11021811433D
libRbt.so/2013.1/901 2013/11/27
 42 45  0  0  0  0  0  0  0  0999 V2000
    2.6597   96.6914   16.0886 C   0  0  2  0  0  0  0  0  0  0  0  0
    4.0319   96.3460   15.8337 O   0  0  0  0  0  0  0  0  0  0  0  0
    2.7087   98.0053   16.8697 C   0  0  2  0  0  0  0  0  0  0  0  0
    3.4915   98.9820   16.1002 N   0  0  0  0  0  0  0  0  0  0  0  0
    3.3796   97.7705   18.2255 C   0  0  1  0  0  0  0  0  0  0  0  0
    3.4333   98.9862   18.9771 O   0  0  0  0  0  0  0  0  0  0  0  0
    2.6065   96.6988   18.9946 C   0  0  2  0  0  0  0  0  0  0  0  0
    3.2882   96.4125   20.2157 O   0  0  0  0  0  0  0  0  0  0  0  0
    2.5731   95.4193   18.1575 C   0  0  2  0  0  0  0  0  0  0  0  0
    1.9781   95.6967   16.8802 O   0  0  0  0  0  0  0  0  0  0  0  0
    1.7924   94.3411   18.9137 C   0  0  0  0  0  0  0  0  0  0  0  0
    2.4561   94.0024   20.1815 N   0  0  0  0  0  0  0  0  0  0  0  0
    5.0304   97.2282   11.8498 C   0  0  2  0  0  0  0  0  0  0  0  0
    5.4166   97.2571   10.4310 N   0  0  0  0  0  0  0  0  0  0  0  0
    6.1220   96.5715   12.6972 C   0  0  0  0  0  0  0  0  0  0  0  0
    5.7238   96.6902   14.1718 C   0  0  2  0  0  0  0  0  0  0  0  0
    6.7152   95.9890   15.0003 N   0  0  0  0  0  0  0  0  0  0  0  0
    4.3530   96.0707   14.4587 C   0  0  2  0  0  0  0  0  0  0  0  0
    3.2488   96.4953   13.4969 C   0  0  2  0  0  0  0  0  0  0  0  0
    2.1903   95.5413   13.6802 O   0  0  0  0  0  0  0  0  0  0  0  0
    3.7194   96.4606   12.0368 C   0  0  1  0  0  0  0  0  0  0  0  0
    2.7419   97.0462   11.1727 O   0  0  0  0  0  0  0  0  0  0  0  0
    2.5996   94.1677   13.7797 C   0  0  1  0  0  0  0  0  0  0  0  0
    1.4707   93.3981   14.4674 C   0  0  2  0  0  0  0  0  0  0  0  0
    1.5905   93.5339   15.8855 O   0  0  0  0  0  0  0  0  0  0  0  0
    1.8667   91.9833   14.0553 C   0  0  1  0  0  0  0  0  0  0  0  0
    2.1708   92.2016   12.5816 C   0  0  2  0  0  0  0  0  0  0  0  0
    2.7505   93.5199   12.4999 O   0  0  0  0  0  0  0  0  0  0  0  0
    0.8675   92.1006   11.7807 C   0  0  0  0  0  0  0  0  0  0  0  0
    1.1456   91.9099   10.3905 O   0  0  0  0  0  0  0  0  0  0  0  0
    2.7888   90.4218   15.5419 C   0  0  2  0  0  0  0  0  0  0  0  0
    3.0599   91.5892   14.7514 O   0  0  0  0  0  0  0  0  0  0  0  0
    1.9438   90.8118   16.7588 C   0  0  1  0  0  0  0  0  0  0  0  0
    6.0356   88.8814   17.8036 N   0  0  0  0  0  0  0  0  0  0  0  0
    1.7280   89.5992   17.6707 C   0  0  1  0  0  0  0  0  0  0  0  0
    0.8894   88.6357   17.0251 O   0  0  0  0  0  0  0  0  0  0  0  0
    3.0776   88.9645   18.0175 C   0  0  2  0  0  0  0  0  0  0  0  0
    3.8313   89.8957   18.8013 O   0  0  0  0  0  0  0  0  0  0  0  0
    3.8341   88.6301   16.7275 C   0  0  1  0  0  0  0  0  0  0  0  0
    4.0325   89.8264   15.9514 O   0  0  0  0  0  0  0  0  0  0  0  0
    5.1852   87.9723   17.0212 C   0  0  0  0  0  0  0  0  0  0  0  0
    2.6626   91.8440   17.5210 N   0  0  0  0  0  0  0  0  0  0  0  0
  1  2  1  1  0  0  0
  1  3  1  0  0  0  0
  1 10  1  0  0  0  0
  3  4  1  6  0  0  0
  3  5  1  0  0  0  0
  5  6  1  1  0  0  0
  5  7  1  0  0  0  0
  7  8  1  1  0  0  0
  7  9  1  0  0  0  0
  9 10  1  0  0  0  0
  9 11  1  1  0  0  0
 11 12  1  0  0  0  0
 13 14  1  6  0  0  0
 13 15  1  0  0  0  0
 13 21  1  0  0  0  0
 16 15  1  0  0  0  0
 16 17  1  1  0  0  0
 18  2  1  1  0  0  0
 18 16  1  0  0  0  0
 19 18  1  0  0  0  0
 19 20  1  6  0  0  0
 21 19  1  0  0  0  0
 21 22  1  6  0  0  0
 23 20  1  6  0  0  0
 23 24  1  0  0  0  0
 23 28  1  0  0  0  0
 24 25  1  1  0  0  0
 24 26  1  0  0  0  0
 26 27  1  0  0  0  0
 26 32  1  1  0  0  0
 27 28  1  0  0  0  0
 27 29  1  6  0  0  0
 29 30  1  0  0  0  0
 31 32  1  1  0  0  0
 31 40  1  0  0  0  0
 33 31  1  0  0  0  0
 33 42  1  1  0  0  0
 35 33  1  0  0  0  0
 35 36  1  6  0  0  0
 37 35  1  0  0  0  0
 37 38  1  1  0  0  0
 37 39  1  0  0  0  0
 39 40  1  0  0  0  0
 39 41  1  1  0  0  0
 41 34  1  0  0  0  0
M  END
>  <CHROM.1>
-127.59390162,-62.48961487,140.12497786,-43.21550860,159.43562516,119.98652536
-163.14309458,-73.35602748,-60.84475596,3.15490140,93.90653007,15.56073295
-0.19870097,1.46508842,1.42450068

>  <Name>
2fcy_lig

>  <RI>
9.29634e+06

>  <Rbt.Current_Directory>
/home/itssahil/PROJECTS/Mol_Feturizer/New_Systems/rnas/2fcy

>  <Rbt.Executable>
rbdock ($Id: //depot/dev/client3/rdock/2013.1/src/exe/rbdock.cxx#4 $)

>  <Rbt.Library>
libRbt.so (2013.1, Build901 2013/11/27)

>  <Rbt.Parameter_File>
/export/apps/rDock/src/rDock_2013.1_src/data/scripts/dock_solv.prm

>  <Rbt.Receptor>
prm/blind_docking_100.prm

>  <SCORE>
1.9331

>  <SCORE.INTER>
-14.9971

>  <SCORE.INTER.CONST>
1

>  <SCORE.INTER.POLAR>
-1.55971

>  <SCORE.INTER.ROT>
9

>  <SCORE.INTER.SOLV>
24.3022

>  <SCORE.INTER.VDW>
-22.4998

>  <SCORE.INTER.norm>
-0.357074

>  <SCORE.INTRA>
12.2826

>  <SCORE.INTRA.DIHEDRAL>
6.80685

>  <SCORE.INTRA.DIHEDRAL.0>
17.3446

>  <SCORE.INTRA.POLAR>
0

>  <SCORE.INTRA.POLAR.0>
0

>  <SCORE.INTRA.REPUL>
0.00729222

>  <SCORE.INTRA.REPUL.0>
0

>  <SCORE.INTRA.SOLV>
3.18083

>  <SCORE.INTRA.SOLV.lig_0>
-112.452

>  <SCORE.INTRA.VDW>
7.25227

>  <SCORE.INTRA.VDW.0>
-5.95059

>  <SCORE.INTRA.norm>
0.292442

>  <SCORE.RESTR>
4.64764

>  <SCORE.RESTR.CAVITY>
4.64764

>  <SCORE.RESTR.norm>
0.110658

>  <SCORE.SYSTEM>
0

>  <SCORE.SYSTEM.CONST>
0

>  <SCORE.SYSTEM.DIHEDRAL>
0

>  <SCORE.SYSTEM.SOLV>
0

>  <SCORE.SYSTEM.norm>
0

>  <SCORE.heavy>
42

>  <SCORE.norm>
0.0460263

>  <RMSD>
8.368

$$$$
2fcy_lig
 OpenBabel11021811433D
libRbt.so/2013.1/901 2013/11/27
 42 45  0  0  0  0  0  0  0  0999 V2000
   -0.8520   89.0760    8.8013 C   0  0  2  0  0  0  0  0  0  0  0  0
   -0.2055   89.3039    7.5374 O   0  0  0  0  0  0  0  0  0  0  0  0
   -0.1207   87.8859    9.4241 C   0  0  2  0  0  0  0  0  0  0  0  0
    1.3158   88.1900    9.4755 N   0  0  0  0  0  0  0  0  0  0  0  0
   -0.3465   86.6393    8.5648 C   0  0  1  0  0  0  0  0  0  0  0  0
    0.3254   85.5104    9.1304 O   0  0  0  0  0  0  0  0  0  0  0  0
   -1.8468   86.3677    8.4501 C   0  0  2  0  0  0  0  0  0  0  0  0
   -2.0589   85.2637    7.5705 O   0  0  0  0  0  0  0  0  0  0  0  0
   -2.5248   87.5967    7.8426 C   0  0  2  0  0  0  0  0  0  0  0  0
   -2.2490   88.7480    8.6555 O   0  0  0  0  0  0  0  0  0  0  0  0
   -4.0301   87.3401    7.7320 C   0  0  0  0  0  0  0  0  0  0  0  0
   -4.7441   88.5619    7.3319 N   0  0  0  0  0  0  0  0  0  0  0  0
    0.2718   92.7020    5.1143 C   0  0  2  0  0  0  0  0  0  0  0  0
    0.1570   93.9120    4.2863 N   0  0  0  0  0  0  0  0  0  0  0  0
   -0.5731   91.5651    4.5360 C   0  0  0  0  0  0  0  0  0  0  0  0
   -0.3094   90.3013    5.3609 C   0  0  2  0  0  0  0  0  0  0  0  0
   -1.1765   89.2169    4.8781 N   0  0  0  0  0  0  0  0  0  0  0  0
   -0.6008   90.5046    6.8506 C   0  0  2  0  0  0  0  0  0  0  0  0
    0.0160   91.7615    7.4540 C   0  0  2  0  0  0  0  0  0  0  0  0
   -0.6742   91.9709    8.6966 O   0  0  0  0  0  0  0  0  0  0  0  0
   -0.1810   92.9848    6.5489 C   0  0  1  0  0  0  0  0  0  0  0  0
    0.5688   94.1023    7.0326 O   0  0  0  0  0  0  0  0  0  0  0  0
   -0.1279   92.9906    9.5488 C   0  0  1  0  0  0  0  0  0  0  0  0
   -0.9177   92.9697   10.8585 C   0  0  2  0  0  0  0  0  0  0  0  0
   -2.1143   93.7378   10.7108 O   0  0  0  0  0  0  0  0  0  0  0  0
    0.0700   93.7288   11.7398 C   0  0  1  0  0  0  0  0  0  0  0  0
    1.3698   93.0437   11.3484 C   0  0  2  0  0  0  0  0  0  0  0  0
    1.2355   92.7371    9.9453 O   0  0  0  0  0  0  0  0  0  0  0  0
    1.5436   91.7777   12.1953 C   0  0  0  0  0  0  0  0  0  0  0  0
    0.5569   90.8018   11.8483 O   0  0  0  0  0  0  0  0  0  0  0  0
    0.1199   95.9373   12.5264 C   0  0  2  0  0  0  0  0  0  0  0  0
    0.1058   95.1115   11.3520 O   0  0  0  0  0  0  0  0  0  0  0  0
   -0.1507   97.3929   12.1326 C   0  0  1  0  0  0  0  0  0  0  0  0
    2.8945   94.8978   15.4597 N   0  0  0  0  0  0  0  0  0  0  0  0
   -0.0395   98.3075   13.3572 C   0  0  1  0  0  0  0  0  0  0  0  0
   -1.1089   98.0450   14.2714 O   0  0  0  0  0  0  0  0  0  0  0  0
    1.3060   98.0821   14.0523 C   0  0  2  0  0  0  0  0  0  0  0  0
    2.3512   98.5051   13.1703 O   0  0  0  0  0  0  0  0  0  0  0  0
    1.4689   96.5953   14.3854 C   0  0  1  0  0  0  0  0  0  0  0  0
    1.3953   95.8120   13.1796 O   0  0  0  0  0  0  0  0  0  0  0  0
    2.7935   96.3205   15.1024 C   0  0  0  0  0  0  0  0  0  0  0  0
    0.8586   97.8106   11.1478 N   0  0  0  0  0  0  0  0  0  0  0  0
  1  2  1  6  0  0  0
  1  3  1  0  0  0  0
  1 10  1  0  0  0  0
  3  4  1  6  0  0  0
  3  5  1  0  0  0  0
  5  6  1  1  0  0  0
  5  7  1  0  0  0  0
  7  8  1  6  0  0  0
  7  9  1  0  0  0  0
  9 10  1  0  0  0  0
  9 11  1  1  0  0  0
 11 12  1  0  0  0  0
 13 14  1  6  0  0  0
 13 15  1  0  0  0  0
 13 21  1  0  0  0  0
 16 15  1  0  0  0  0
 16 17  1  6  0  0  0
 18  2  1  1  0  0  0
 18 16  1  0  0  0  0
 19 18  1  0  0  0  0
 19 20  1  1  0  0  0
 21 19  1  0  0  0  0
 21 22  1  1  0  0  0
 23 20  1  6  0  0  0
 23 24  1  0  0  0  0
 23 28  1  0  0  0  0
 24 25  1  6  0  0  0
 24 26  1  0  0  0  0
 26 27  1  0  0  0  0
 26 32  1  6  0  0  0
 27 28  1  0  0  0  0
 27 29  1  1  0  0  0
 29 30  1  0  0  0  0
 31 32  1  6  0  0  0
 31 40  1  0  0  0  0
 33 31  1  0  0  0  0
 33 42  1  6  0  0  0
 35 33  1  0  0  0  0
 35 36  1  1  0  0  0
 37 35  1  0  0  0  0
 37 38  1  6  0  0  0
 37 39  1  0  0  0  0
 39 40  1  0  0  0  0
 39 41  1  6  0  0  0
 41 34  1  0  0  0  0
M  END
>  <CHROM.1>
-171.40445020,171.96720258,-156.56064430,170.99734589,-174.96028356,137.30731712
67.77904269,-167.67602427,177.56669524,-0.14713282,92.23858673,9.77525719
-2.85694465,-1.33655884,-0.67658263

>  <Name>
2fcy_lig

>  <RI>
2.32494e+07

>  <Rbt.Current_Directory>
/home/itssahil/PROJECTS/Mol_Feturizer/New_Systems/rnas/2fcy

>  <Rbt.Executable>
rbdock ($Id: //depot/dev/client3/rdock/2013.1/src/exe/rbdock.cxx#4 $)

>  <Rbt.Library>
libRbt.so (2013.1, Build901 2013/11/27)

>  <Rbt.Parameter_File>
/export/apps/rDock/src/rDock_2013.1_src/data/scripts/dock_solv.prm

>  <Rbt.Receptor>
prm/pocket_docking_8.prm

>  <SCORE>
-20.0224

>  <SCORE.INTER>
-15.7952

>  <SCORE.INTER.CONST>
1

>  <SCORE.INTER.POLAR>
-2.39498

>  <SCORE.INTER.ROT>
9

>  <SCORE.INTER.SOLV>
19.2045

>  <SCORE.INTER.VDW>
-18.5483

>  <SCORE.INTER.norm>
-0.376075

>  <SCORE.INTRA>
-4.22725

>  <SCORE.INTRA.DIHEDRAL>
-7.09831

>  <SCORE.INTRA.DIHEDRAL.0>
17.3446

>  <SCORE.INTRA.POLAR>
0

>  <SCORE.INTRA.POLAR.0>
0

>  <SCORE.INTRA.REPUL>
0

>  <SCORE.INTRA.REPUL.0>
0

>  <SCORE.INTRA.SOLV>
-4.04504

>  <SCORE.INTRA.SOLV.lig_0>
-112.452

>  <SCORE.INTRA.VDW>
1.34443

>  <SCORE.INTRA.VDW.0>
-5.95059

>  <SCORE.INTRA.norm>
-0.100649

>  <SCORE.RESTR>
0

>  <SCORE.RESTR.CAVITY>
0

>  <SCORE.RESTR.norm>
0

>  <SCORE.SYSTEM>
0

>  <SCORE.SYSTEM.CONST>
0

>  <SCORE.SYSTEM.DIHEDRAL>
0

>  <SCORE.SYSTEM.SOLV>
0

>  <SCORE.SYSTEM.norm>
0

>  <SCORE.heavy>
42

>  <SCORE.norm>
-0.476724

>  <RMSD>
8.389

$$$$
2fcy_lig
 OpenBabel11021811433D
libRbt.so/2013.1/901 2013/11/27
 42 45  0  0  0  0  0  0  0  0999 V2000
   -0.8785   88.9773    8.8043 C   0  0  2  0  0  0  0  0  0  0  0  0
   -0.1727   89.2197    7.5753 O   0  0  0  0  0  0  0  0  0  0  0  0
   -0.1299   87.8301    9.4844 C   0  0  2  0  0  0  0  0  0  0  0  0
    1.2860   88.2013    9.6116 N   0  0  0  0  0  0  0  0  0  0  0  0
   -0.2494   86.5641    8.6322 C   0  0  1  0  0  0  0  0  0  0  0  0
    0.4404   85.4746    9.2510 O   0  0  0  0  0  0  0  0  0  0  0  0
   -1.7268   86.2216    8.4378 C   0  0  2  0  0  0  0  0  0  0  0  0
   -1.8382   85.0983    7.5640 O   0  0  0  0  0  0  0  0  0  0  0  0
   -2.4250   87.4102    7.7753 C   0  0  2  0  0  0  0  0  0  0  0  0
   -2.2485   88.5829    8.5853 O   0  0  0  0  0  0  0  0  0  0  0  0
   -3.9082   87.0826    7.5845 C   0  0  0  0  0  0  0  0  0  0  0  0
   -4.1005   86.1436    6.4692 N   0  0  0  0  0  0  0  0  0  0  0  0
    0.3124   92.5465    5.0566 C   0  0  2  0  0  0  0  0  0  0  0  0
    0.2012   93.7368    4.2000 N   0  0  0  0  0  0  0  0  0  0  0  0
   -0.5621   91.4097    4.5241 C   0  0  0  0  0  0  0  0  0  0  0  0
   -0.3030   90.1630    5.3762 C   0  0  2  0  0  0  0  0  0  0  0  0
   -1.1971   89.0814    4.9383 N   0  0  0  0  0  0  0  0  0  0  0  0
   -0.5617   90.4090    6.8655 C   0  0  2  0  0  0  0  0  0  0  0  0
    0.0873   91.6703    7.4243 C   0  0  2  0  0  0  0  0  0  0  0  0
   -0.5748   91.9229    8.6741 O   0  0  0  0  0  0  0  0  0  0  0  0
   -0.1074   92.8733    6.4918 C   0  0  1  0  0  0  0  0  0  0  0  0
    0.6700   93.9900    6.9321 O   0  0  0  0  0  0  0  0  0  0  0  0
   -0.0402   93.0037    9.4553 C   0  0  1  0  0  0  0  0  0  0  0  0
   -0.8391   93.0712   10.7580 C   0  0  2  0  0  0  0  0  0  0  0  0
   -2.0388   93.8197   10.5480 O   0  0  0  0  0  0  0  0  0  0  0  0
    0.1381   93.8969   11.5896 C   0  0  1  0  0  0  0  0  0  0  0  0
    1.4444   93.1935   11.2566 C   0  0  2  0  0  0  0  0  0  0  0  0
    1.3217   92.7872    9.8780 O   0  0  0  0  0  0  0  0  0  0  0  0
    1.6192   91.9918   12.1924 C   0  0  0  0  0  0  0  0  0  0  0  0
    0.6384   90.9892   11.9110 O   0  0  0  0  0  0  0  0  0  0  0  0
    0.9554   96.0574   11.9932 C   0  0  2  0  0  0  0  0  0  0  0  0
    0.1691   95.2487   11.1048 O   0  0  0  0  0  0  0  0  0  0  0  0
    0.1277   96.4093   13.2335 C   0  0  1  0  0  0  0  0  0  0  0  0
    3.5877   98.7916   10.2217 N   0  0  0  0  0  0  0  0  0  0  0  0
    0.9118   97.3562   14.1484 C   0  0  1  0  0  0  0  0  0  0  0  0
    2.0319   96.6761   14.7238 O   0  0  0  0  0  0  0  0  0  0  0  0
    1.3950   98.5688   13.3479 C   0  0  2  0  0  0  0  0  0  0  0  0
    0.2522   99.3180   12.9211 O   0  0  0  0  0  0  0  0  0  0  0  0
    2.1967   98.0942   12.1312 C   0  0  1  0  0  0  0  0  0  0  0  0
    1.3771   97.2475   11.3041 O   0  0  0  0  0  0  0  0  0  0  0  0
    2.7211   99.2734   11.3073 C   0  0  0  0  0  0  0  0  0  0  0  0
   -1.1014   97.0922   12.8022 N   0  0  0  0  0  0  0  0  0  0  0  0
  1  2  1  6  0  0  0
  1  3  1  0  0  0  0
  1 10  1  0  0  0  0
  3  4  1  6  0  0  0
  3  5  1  0  0  0  0
  5  6  1  1  0  0  0
  5  7  1  0  0  0  0
  7  8  1  6  0  0  0
  7  9  1  0  0  0  0
  9 10  1  0  0  0  0
  9 11  1  1  0  0  0
 11 12  1  0  0  0  0
 13 14  1  6  0  0  0
 13 15  1  0  0  0  0
 13 21  1  0  0  0  0
 16 15  1  0  0  0  0
 16 17  1  6  0  0  0
 18  2  1  1  0  0  0
 18 16  1  0  0  0  0
 19 18  1  0  0  0  0
 19 20  1  1  0  0  0
 21 19  1  0  0  0  0
 21 22  1  1  0  0  0
 23 20  1  6  0  0  0
 23 24  1  0  0  0  0
 23 28  1  0  0  0  0
 24 25  1  6  0  0  0
 24 26  1  0  0  0  0
 26 27  1  0  0  0  0
 26 32  1  6  0  0  0
 27 28  1  0  0  0  0
 27 29  1  1  0  0  0
 29 30  1  0  0  0  0
 31 32  1  6  0  0  0
 31 40  1  0  0  0  0
 33 31  1  0  0  0  0
 33 42  1  6  0  0  0
 35 33  1  0  0  0  0
 35 36  1  6  0  0  0
 37 35  1  0  0  0  0
 37 38  1  6  0  0  0
 37 39  1  0  0  0  0
 39 40  1  0  0  0  0
 39 41  1  6  0  0  0
 41 34  1  0  0  0  0
M  END
>  <CHROM.1>
-170.02676655,-75.13120032,-151.60878029,174.30027414,-177.74782775,172.67001504
67.65039103,-78.30842317,174.75584288,-0.02673702,92.32166159,9.47698142
2.91327066,-1.32641782,-1.33657185

>  <Name>
2fcy_lig

>  <RI>
2.89127e+07

>  <Rbt.Current_Directory>
/home/itssahil/PROJECTS/Mol_Feturizer/New_Systems/rnas/2fcy

>  <Rbt.Executable>
rbdock ($Id: //depot/dev/client3/rdock/2013.1/src/exe/rbdock.cxx#4 $)

>  <Rbt.Library>
libRbt.so (2013.1, Build901 2013/11/27)

>  <Rbt.Parameter_File>
/export/apps/rDock/src/rDock_2013.1_src/data/scripts/dock_solv.prm

>  <Rbt.Receptor>
prm/pocket_docking_7.prm

>  <SCORE>
-17.4328

>  <SCORE.INTER>
-13.3809

>  <SCORE.INTER.CONST>
1

>  <SCORE.INTER.POLAR>
-2.57578

>  <SCORE.INTER.ROT>
9

>  <SCORE.INTER.SOLV>
22.8312

>  <SCORE.INTER.VDW>
-17.5451

>  <SCORE.INTER.norm>
-0.318593

>  <SCORE.INTRA>
-4.06522

>  <SCORE.INTRA.DIHEDRAL>
-10.0375

>  <SCORE.INTRA.DIHEDRAL.0>
17.3446

>  <SCORE.INTRA.POLAR>
0

>  <SCORE.INTRA.POLAR.0>
0

>  <SCORE.INTRA.REPUL>
0

>  <SCORE.INTRA.REPUL.0>
0

>  <SCORE.INTRA.SOLV>
-2.5518

>  <SCORE.INTRA.SOLV.lig_0>
-112.452

>  <SCORE.INTRA.VDW>
2.22944

>  <SCORE.INTRA.VDW.0>
-5.95059

>  <SCORE.INTRA.norm>
-0.096791

>  <SCORE.RESTR>
0.0133879

>  <SCORE.RESTR.CAVITY>
0.0133879

>  <SCORE.RESTR.norm>
0.000318759

>  <SCORE.SYSTEM>
0

>  <SCORE.SYSTEM.CONST>
0

>  <SCORE.SYSTEM.DIHEDRAL>
0

>  <SCORE.SYSTEM.SOLV>
0

>  <SCORE.SYSTEM.norm>
0

>  <SCORE.heavy>
42

>  <SCORE.norm>
-0.415066

>  <RMSD>
8.418

$$$$
2fcy_lig
 OpenBabel11021811433D
libRbt.so/2013.1/901 2013/11/27
 42 45  0  0  0  0  0  0  0  0999 V2000
   -2.4014   90.0454    8.2890 C   0  0  2  0  0  0  0  0  0  0  0  0
   -2.8452   91.1160    9.1399 O   0  0  0  0  0  0  0  0  0  0  0  0
   -1.2465   89.3806    9.0395 C   0  0  2  0  0  0  0  0  0  0  0  0
   -1.7144   88.9945   10.3777 N   0  0  0  0  0  0  0  0  0  0  0  0
   -0.0854   90.3692    9.1722 C   0  0  1  0  0  0  0  0  0  0  0  0
    1.0100   89.7679    9.8681 O   0  0  0  0  0  0  0  0  0  0  0  0
    0.3512   90.8280    7.7805 C   0  0  2  0  0  0  0  0  0  0  0  0
    1.3679   91.8216    7.9102 O   0  0  0  0  0  0  0  0  0  0  0  0
   -0.8467   91.4632    7.0729 C   0  0  2  0  0  0  0  0  0  0  0  0
   -1.9252   90.5168    7.0117 O   0  0  0  0  0  0  0  0  0  0  0  0
   -0.4240   91.9178    5.6734 C   0  0  0  0  0  0  0  0  0  0  0  0
   -0.5002   90.8062    4.7136 N   0  0  0  0  0  0  0  0  0  0  0  0
   -6.4454   93.2040    8.5696 C   0  0  2  0  0  0  0  0  0  0  0  0
   -7.8278   93.6885    8.4380 N   0  0  0  0  0  0  0  0  0  0  0  0
   -6.2000   92.0044    7.6523 C   0  0  0  0  0  0  0  0  0  0  0  0
   -4.7164   91.6310    7.7341 C   0  0  2  0  0  0  0  0  0  0  0  0
   -4.4740   90.4259    6.9279 N   0  0  0  0  0  0  0  0  0  0  0  0
   -4.2671   91.3325    9.1674 C   0  0  2  0  0  0  0  0  0  0  0  0
   -4.6868   92.3764   10.1963 C   0  0  2  0  0  0  0  0  0  0  0  0
   -4.5270   91.7423   11.4756 O   0  0  0  0  0  0  0  0  0  0  0  0
   -6.1508   92.7990   10.0160 C   0  0  1  0  0  0  0  0  0  0  0  0
   -6.4666   93.9127   10.8557 O   0  0  0  0  0  0  0  0  0  0  0  0
   -3.1774   91.6444   11.9585 C   0  0  1  0  0  0  0  0  0  0  0  0
   -2.7879   93.0124   12.5213 C   0  0  2  0  0  0  0  0  0  0  0  0
   -2.3438   93.8603   11.4595 O   0  0  0  0  0  0  0  0  0  0  0  0
   -1.5918   92.5857   13.3673 C   0  0  1  0  0  0  0  0  0  0  0  0
   -2.1640   91.3532   14.0497 C   0  0  2  0  0  0  0  0  0  0  0  0
   -3.0309   90.7407   13.0730 O   0  0  0  0  0  0  0  0  0  0  0  0
   -2.9327   91.7861   15.3035 C   0  0  0  0  0  0  0  0  0  0  0  0
   -4.0823   92.5588   14.9462 O   0  0  0  0  0  0  0  0  0  0  0  0
    0.3063   93.3687   12.2348 C   0  0  2  0  0  0  0  0  0  0  0  0
   -0.4989   92.2129   12.5129 O   0  0  0  0  0  0  0  0  0  0  0  0
    1.4469   92.9827   11.2876 C   0  0  1  0  0  0  0  0  0  0  0  0
    2.6592   96.9815   14.4332 N   0  0  0  0  0  0  0  0  0  0  0  0
    2.3785   94.1776   11.0578 C   0  0  1  0  0  0  0  0  0  0  0  0
    1.7051   95.1954   10.3102 O   0  0  0  0  0  0  0  0  0  0  0  0
    2.8406   94.7413   12.4042 C   0  0  2  0  0  0  0  0  0  0  0  0
    3.6468   93.7556   13.0585 O   0  0  0  0  0  0  0  0  0  0  0  0
    1.6192   95.0777   13.2663 C   0  0  1  0  0  0  0  0  0  0  0  0
    0.8222   93.8961   13.4696 O   0  0  0  0  0  0  0  0  0  0  0  0
    2.0293   95.6660   14.6191 C   0  0  0  0  0  0  0  0  0  0  0  0
    2.2258   91.8983   11.9044 N   0  0  0  0  0  0  0  0  0  0  0  0
  1  2  1  1  0  0  0
  1  3  1  0  0  0  0
  1 10  1  0  0  0  0
  3  4  1  1  0  0  0
  3  5  1  0  0  0  0
  5  6  1  6  0  0  0
  5  7  1  0  0  0  0
  7  8  1  1  0  0  0
  7  9  1  0  0  0  0
  9 10  1  0  0  0  0
  9 11  1  6  0  0  0
 11 12  1  0  0  0  0
 13 14  1  1  0  0  0
 13 15  1  0  0  0  0
 13 21  1  0  0  0  0
 16 15  1  0  0  0  0
 16 17  1  6  0  0  0
 18  2  1  6  0  0  0
 18 16  1  0  0  0  0
 19 18  1  0  0  0  0
 19 20  1  1  0  0  0
 21 19  1  0  0  0  0
 21 22  1  1  0  0  0
 23 20  1  1  0  0  0
 23 24  1  0  0  0  0
 23 28  1  0  0  0  0
 24 25  1  6  0  0  0
 24 26  1  0  0  0  0
 26 27  1  0  0  0  0
 26 32  1  6  0  0  0
 27 28  1  0  0  0  0
 27 29  1  1  0  0  0
 29 30  1  0  0  0  0
 31 32  1  1  0  0  0
 31 40  1  0  0  0  0
 33 31  1  0  0  0  0
 33 42  1  1  0  0  0
 35 33  1  0  0  0  0
 35 36  1  1  0  0  0
 37 35  1  0  0  0  0
 37 38  1  1  0  0  0
 37 39  1  0  0  0  0
 39 40  1  0  0  0  0
 39 41  1  1  0  0  0
 41 34  1  0  0  0  0
M  END
>  <CHROM.1>
-142.21694540,84.17509332,-58.72008762,77.03782995,78.60142068,89.62972164
65.83137071,-178.20413247,66.78845758,-1.55648771,92.33071907,10.60738755
-2.43522748,0.08665531,1.17759916

>  <Name>
2fcy_lig

>  <RI>
4.13508e+07

>  <Rbt.Current_Directory>
/home/itssahil/PROJECTS/Mol_Feturizer/New_Systems/rnas/2fcy

>  <Rbt.Executable>
rbdock ($Id: //depot/dev/client3/rdock/2013.1/src/exe/rbdock.cxx#4 $)

>  <Rbt.Library>
libRbt.so (2013.1, Build901 2013/11/27)

>  <Rbt.Parameter_File>
/export/apps/rDock/src/rDock_2013.1_src/data/scripts/dock_solv.prm

>  <Rbt.Receptor>
prm/pocket_docking_3.prm

>  <SCORE>
-3.62365

>  <SCORE.INTER>
-7.1825

>  <SCORE.INTER.CONST>
1

>  <SCORE.INTER.POLAR>
-1.43999

>  <SCORE.INTER.ROT>
9

>  <SCORE.INTER.SOLV>
12.1453

>  <SCORE.INTER.VDW>
-13.6368

>  <SCORE.INTER.norm>
-0.171012

>  <SCORE.INTRA>
3.23741

>  <SCORE.INTRA.DIHEDRAL>
-3.43456

>  <SCORE.INTRA.DIHEDRAL.0>
17.3446

>  <SCORE.INTRA.POLAR>
0

>  <SCORE.INTRA.POLAR.0>
0

>  <SCORE.INTRA.REPUL>
0

>  <SCORE.INTRA.REPUL.0>
0

>  <SCORE.INTRA.SOLV>
2.09416

>  <SCORE.INTRA.SOLV.lig_0>
-112.452

>  <SCORE.INTRA.VDW>
3.90761

>  <SCORE.INTRA.VDW.0>
-5.95059

>  <SCORE.INTRA.norm>
0.0770813

>  <SCORE.RESTR>
0.321436

>  <SCORE.RESTR.CAVITY>
0.321436

>  <SCORE.RESTR.norm>
0.00765325

>  <SCORE.SYSTEM>
0

>  <SCORE.SYSTEM.CONST>
0

>  <SCORE.SYSTEM.DIHEDRAL>
0

>  <SCORE.SYSTEM.SOLV>
0

>  <SCORE.SYSTEM.norm>
0

>  <SCORE.heavy>
42

>  <SCORE.norm>
-0.0862774

>  <RMSD>
8.420

$$$$
2fcy_lig
 OpenBabel11021811433D
libRbt.so/2013.1/901 2013/11/27
 42 45  0  0  0  0  0  0  0  0999 V2000
   -0.8490   88.9416    8.7084 C   0  0  2  0  0  0  0  0  0  0  0  0
   -0.1166   89.2314    7.5056 O   0  0  0  0  0  0  0  0  0  0  0  0
   -0.0755   87.8148    9.3948 C   0  0  2  0  0  0  0  0  0  0  0  0
    1.3197   88.2404    9.5711 N   0  0  0  0  0  0  0  0  0  0  0  0
   -0.1175   86.5585    8.5210 C   0  0  1  0  0  0  0  0  0  0  0  0
    0.5968   85.4880    9.1451 O   0  0  0  0  0  0  0  0  0  0  0  0
   -1.5732   86.1601    8.2760 C   0  0  2  0  0  0  0  0  0  0  0  0
   -1.6122   85.0471    7.3829 O   0  0  0  0  0  0  0  0  0  0  0  0
   -2.2986   87.3301    7.6095 C   0  0  2  0  0  0  0  0  0  0  0  0
   -2.1946   88.4960    8.4414 O   0  0  0  0  0  0  0  0  0  0  0  0
   -3.7608   86.9462    7.3680 C   0  0  0  0  0  0  0  0  0  0  0  0
   -3.8796   86.0082    6.2416 N   0  0  0  0  0  0  0  0  0  0  0  0
    0.3478   92.6364    5.0897 C   0  0  2  0  0  0  0  0  0  0  0  0
    0.2279   93.8443    4.2593 N   0  0  0  0  0  0  0  0  0  0  0  0
   -0.4682   91.4859    4.4971 C   0  0  0  0  0  0  0  0  0  0  0  0
   -0.1985   90.2267    5.3271 C   0  0  2  0  0  0  0  0  0  0  0  0
   -1.0393   89.1282    4.8297 N   0  0  0  0  0  0  0  0  0  0  0  0
   -0.5192   90.4253    6.8114 C   0  0  2  0  0  0  0  0  0  0  0  0
    0.0663   91.6923    7.4250 C   0  0  2  0  0  0  0  0  0  0  0  0
   -0.6488   91.8906    8.6552 O   0  0  0  0  0  0  0  0  0  0  0  0
   -0.1346   92.9120    6.5160 C   0  0  1  0  0  0  0  0  0  0  0  0
    0.5883   94.0417    7.0123 O   0  0  0  0  0  0  0  0  0  0  0  0
   -0.1348   92.9197    9.5160 C   0  0  1  0  0  0  0  0  0  0  0  0
   -0.9200   92.8599   10.8272 C   0  0  2  0  0  0  0  0  0  0  0  0
   -2.1420   93.5889   10.6896 O   0  0  0  0  0  0  0  0  0  0  0  0
    0.0440   93.6432   11.7135 C   0  0  1  0  0  0  0  0  0  0  0  0
    1.3650   93.0058   11.3127 C   0  0  2  0  0  0  0  0  0  0  0  0
    1.2374   92.7083    9.9070 O   0  0  0  0  0  0  0  0  0  0  0  0
    1.5832   91.7382   12.1468 C   0  0  0  0  0  0  0  0  0  0  0  0
    1.7570   92.0692   13.5276 O   0  0  0  0  0  0  0  0  0  0  0  0
    0.1239   95.8444   12.5179 C   0  0  2  0  0  0  0  0  0  0  0  0
    0.0325   95.0299   11.3390 O   0  0  0  0  0  0  0  0  0  0  0  0
   -0.0531   97.3179   12.1377 C   0  0  1  0  0  0  0  0  0  0  0  0
    2.7811   94.6665   15.6043 N   0  0  0  0  0  0  0  0  0  0  0  0
    0.1421   98.2139   13.3656 C   0  0  1  0  0  0  0  0  0  0  0  0
   -0.9266   98.0187   14.2973 O   0  0  0  0  0  0  0  0  0  0  0  0
    1.4809   97.8919   14.0350 C   0  0  2  0  0  0  0  0  0  0  0  0
    2.5371   98.2486   13.1369 O   0  0  0  0  0  0  0  0  0  0  0  0
    1.5472   96.3950   14.3562 C   0  0  1  0  0  0  0  0  0  0  0  0
    1.3989   95.6273   13.1473 O   0  0  0  0  0  0  0  0  0  0  0  0
    2.8623   96.0250   15.0476 C   0  0  0  0  0  0  0  0  0  0  0  0
    0.9651   97.6725   11.1374 N   0  0  0  0  0  0  0  0  0  0  0  0
  1  2  1  6  0  0  0
  1  3  1  0  0  0  0
  1 10  1  0  0  0  0
  3  4  1  6  0  0  0
  3  5  1  0  0  0  0
  5  6  1  1  0  0  0
  5  7  1  0  0  0  0
  7  8  1  6  0  0  0
  7  9  1  0  0  0  0
  9 10  1  0  0  0  0
  9 11  1  1  0  0  0
 11 12  1  0  0  0  0
 13 14  1  6  0  0  0
 13 15  1  0  0  0  0
 13 21  1  0  0  0  0
 16 15  1  0  0  0  0
 16 17  1  6  0  0  0
 18  2  1  1  0  0  0
 18 16  1  0  0  0  0
 19 18  1  0  0  0  0
 19 20  1  1  0  0  0
 21 19  1  0  0  0  0
 21 22  1  1  0  0  0
 23 20  1  6  0  0  0
 23 24  1  0  0  0  0
 23 28  1  0  0  0  0
 24 25  1  6  0  0  0
 24 26  1  0  0  0  0
 26 27  1  0  0  0  0
 26 32  1  6  0  0  0
 27 28  1  0  0  0  0
 27 29  1  1  0  0  0
 29 30  1  0  0  0  0
 31 32  1  6  0  0  0
 31 40  1  0  0  0  0
 33 31  1  0  0  0  0
 33 42  1  6  0  0  0
 35 33  1  0  0  0  0
 35 36  1  1  0  0  0
 37 35  1  0  0  0  0
 37 38  1  6  0  0  0
 37 39  1  0  0  0  0
 39 40  1  0  0  0  0
 39 41  1  6  0  0  0
 41 34  1  0  0  0  0
M  END
>  <CHROM.1>
-169.18520524,-74.61072541,-152.21438150,171.03854820,-173.36598643,141.62212700
-65.94451702,-173.41328217,167.62002013,-0.01086511,92.09845913,9.75082908
-2.75791025,-1.33462807,-0.56140576

>  <Name>
2fcy_lig

>  <RI>
2.32494e+07

>  <Rbt.Current_Directory>
/home/itssahil/PROJECTS/Mol_Feturizer/New_Systems/rnas/2fcy

>  <Rbt.Executable>
rbdock ($Id: //depot/dev/client3/rdock/2013.1/src/exe/rbdock.cxx#4 $)

>  <Rbt.Library>
libRbt.so (2013.1, Build901 2013/11/27)

>  <Rbt.Parameter_File>
/export/apps/rDock/src/rDock_2013.1_src/data/scripts/dock_solv.prm

>  <Rbt.Receptor>
prm/pocket_docking_8.prm

>  <SCORE>
-19.4519

>  <SCORE.INTER>
-16.0731

>  <SCORE.INTER.CONST>
1

>  <SCORE.INTER.POLAR>
-2.62596

>  <SCORE.INTER.ROT>
9

>  <SCORE.INTER.SOLV>
19.9994

>  <SCORE.INTER.VDW>
-18.2287

>  <SCORE.INTER.norm>
-0.382693

>  <SCORE.INTRA>
-3.37877

>  <SCORE.INTRA.DIHEDRAL>
-6.24005

>  <SCORE.INTRA.DIHEDRAL.0>
17.3446

>  <SCORE.INTRA.POLAR>
0

>  <SCORE.INTRA.POLAR.0>
0

>  <SCORE.INTRA.REPUL>
0

>  <SCORE.INTRA.REPUL.0>
0

>  <SCORE.INTRA.SOLV>
-3.22734

>  <SCORE.INTRA.SOLV.lig_0>
-112.452

>  <SCORE.INTRA.VDW>
1.35492

>  <SCORE.INTRA.VDW.0>
-5.95059

>  <SCORE.INTRA.norm>
-0.080447

>  <SCORE.RESTR>
0

>  <SCORE.RESTR.CAVITY>
0

>  <SCORE.RESTR.norm>
0

>  <SCORE.SYSTEM>
0

>  <SCORE.SYSTEM.CONST>
0

>  <SCORE.SYSTEM.DIHEDRAL>
0

>  <SCORE.SYSTEM.SOLV>
0

>  <SCORE.SYSTEM.norm>
0

>  <SCORE.heavy>
42

>  <SCORE.norm>
-0.46314

>  <RMSD>
8.460

$$$$
2fcy_lig
 OpenBabel11021811433D
libRbt.so/2013.1/901 2013/11/27
 42 45  0  0  0  0  0  0  0  0999 V2000
   -1.6629   94.3058    7.2428 C   0  0  2  0  0  0  0  0  0  0  0  0
   -2.1961   94.6125    8.5423 O   0  0  0  0  0  0  0  0  0  0  0  0
   -2.8494   93.7904    6.4269 C   0  0  2  0  0  0  0  0  0  0  0  0
   -3.9212   94.7946    6.4681 N   0  0  0  0  0  0  0  0  0  0  0  0
   -3.3569   92.4795    7.0328 C   0  0  1  0  0  0  0  0  0  0  0  0
   -4.4655   91.9751    6.2831 O   0  0  0  0  0  0  0  0  0  0  0  0
   -2.2187   91.4589    7.0584 C   0  0  2  0  0  0  0  0  0  0  0  0
   -2.6666   90.2711    7.7112 O   0  0  0  0  0  0  0  0  0  0  0  0
   -1.0568   92.0369    7.8678 C   0  0  2  0  0  0  0  0  0  0  0  0
   -0.6443   93.2857    7.2909 O   0  0  0  0  0  0  0  0  0  0  0  0
    0.0937   91.0271    7.8920 C   0  0  0  0  0  0  0  0  0  0  0  0
    1.2519   91.5662    8.6203 N   0  0  0  0  0  0  0  0  0  0  0  0
    1.5528   95.8155   10.0069 C   0  0  2  0  0  0  0  0  0  0  0  0
    2.7143   96.3666   10.7211 N   0  0  0  0  0  0  0  0  0  0  0  0
    0.5971   96.9315    9.5802 C   0  0  0  0  0  0  0  0  0  0  0  0
   -0.5176   96.3125    8.7308 C   0  0  2  0  0  0  0  0  0  0  0  0
   -1.4963   97.3523    8.3820 N   0  0  0  0  0  0  0  0  0  0  0  0
   -1.2638   95.1971    9.4688 C   0  0  2  0  0  0  0  0  0  0  0  0
   -0.3641   94.1622   10.1351 C   0  0  2  0  0  0  0  0  0  0  0  0
   -1.2051   93.4634   11.0670 O   0  0  0  0  0  0  0  0  0  0  0  0
    0.7987   94.8190   10.8908 C   0  0  1  0  0  0  0  0  0  0  0  0
    1.7350   93.8353   11.3390 O   0  0  0  0  0  0  0  0  0  0  0  0
   -0.6156   92.3161   11.6997 C   0  0  1  0  0  0  0  0  0  0  0  0
   -1.4607   91.9821   12.9301 C   0  0  2  0  0  0  0  0  0  0  0  0
   -1.0505   92.7968   14.0308 O   0  0  0  0  0  0  0  0  0  0  0  0
   -0.9910   90.5477   13.1545 C   0  0  1  0  0  0  0  0  0  0  0  0
   -1.0475   90.0146   11.7315 C   0  0  2  0  0  0  0  0  0  0  0  0
   -0.6693   91.1236   10.8902 O   0  0  0  0  0  0  0  0  0  0  0  0
   -2.4717   89.5318   11.4335 C   0  0  0  0  0  0  0  0  0  0  0  0
   -2.5075   88.8010   10.2042 O   0  0  0  0  0  0  0  0  0  0  0  0
    0.4047   90.0366   14.9681 C   0  0  2  0  0  0  0  0  0  0  0  0
    0.3655   90.5476   13.6270 O   0  0  0  0  0  0  0  0  0  0  0  0
    0.0363   91.1514   15.9522 C   0  0  1  0  0  0  0  0  0  0  0  0
    3.3023   87.7207   18.0908 N   0  0  0  0  0  0  0  0  0  0  0  0
    0.1704   90.6558   17.3961 C   0  0  1  0  0  0  0  0  0  0  0  0
   -0.8291   89.6709   17.6777 O   0  0  0  0  0  0  0  0  0  0  0  0
    1.5638   90.0591   17.6122 C   0  0  2  0  0  0  0  0  0  0  0  0
    2.5328   91.1048   17.4815 O   0  0  0  0  0  0  0  0  0  0  0  0
    1.8230   88.9688   16.5671 C   0  0  1  0  0  0  0  0  0  0  0  0
    1.7205   89.5248   15.2430 O   0  0  0  0  0  0  0  0  0  0  0  0
    3.1994   88.3248   16.7543 C   0  0  0  0  0  0  0  0  0  0  0  0
    0.9637   92.2765   15.7593 N   0  0  0  0  0  0  0  0  0  0  0  0
  1  2  1  1  0  0  0
  1  3  1  0  0  0  0
  1 10  1  0  0  0  0
  3  4  1  1  0  0  0
  3  5  1  0  0  0  0
  5  6  1  6  0  0  0
  5  7  1  0  0  0  0
  7  8  1  1  0  0  0
  7  9  1  0  0  0  0
  9 10  1  0  0  0  0
  9 11  1  6  0  0  0
 11 12  1  0  0  0  0
 13 14  1  1  0  0  0
 13 15  1  0  0  0  0
 13 21  1  0  0  0  0
 16 15  1  0  0  0  0
 16 17  1  1  0  0  0
 18  2  1  6  0  0  0
 18 16  1  0  0  0  0
 19 18  1  0  0  0  0
 19 20  1  1  0  0  0
 21 19  1  0  0  0  0
 21 22  1  6  0  0  0
 23 20  1  6  0  0  0
 23 24  1  0  0  0  0
 23 28  1  0  0  0  0
 24 25  1  1  0  0  0
 24 26  1  0  0  0  0
 26 27  1  0  0  0  0
 26 32  1  6  0  0  0
 27 28  1  0  0  0  0
 27 29  1  6  0  0  0
 29 30  1  0  0  0  0
 31 32  1  6  0  0  0
 31 40  1  0  0  0  0
 33 31  1  0  0  0  0
 33 42  1  1  0  0  0
 35 33  1  0  0  0  0
 35 36  1  6  0  0  0
 37 35  1  0  0  0  0
 37 38  1  6  0  0  0
 37 39  1  0  0  0  0
 39 40  1  0  0  0  0
 39 41  1  1  0  0  0
 41 34  1  0  0  0  0
M  END
>  <CHROM.1>
-176.40098601,177.90683646,46.77167024,172.38257453,162.78355406,114.46775324
-169.25721652,-81.77031592,59.44399992,-0.40752854,92.18181197,11.48459772
-2.12797390,0.95082257,2.46907555

>  <Name>
2fcy_lig

>  <RI>
1.56845e+07

>  <Rbt.Current_Directory>
/home/itssahil/PROJECTS/Mol_Feturizer/New_Systems/rnas/2fcy

>  <Rbt.Executable>
rbdock ($Id: //depot/dev/client3/rdock/2013.1/src/exe/rbdock.cxx#4 $)

>  <Rbt.Library>
libRbt.so (2013.1, Build901 2013/11/27)

>  <Rbt.Parameter_File>
/export/apps/rDock/src/rDock_2013.1_src/data/scripts/dock_solv.prm

>  <Rbt.Receptor>
prm/pocket_docking_4.prm

>  <SCORE>
-17.884

>  <SCORE.INTER>
-17.8045

>  <SCORE.INTER.CONST>
1

>  <SCORE.INTER.POLAR>
-2.63899

>  <SCORE.INTER.ROT>
9

>  <SCORE.INTER.SOLV>
16.8162

>  <SCORE.INTER.VDW>
-18.2784

>  <SCORE.INTER.norm>
-0.423916

>  <SCORE.INTRA>
-0.079563

>  <SCORE.INTRA.DIHEDRAL>
-5.33607

>  <SCORE.INTRA.DIHEDRAL.0>
17.3446

>  <SCORE.INTRA.POLAR>
0

>  <SCORE.INTRA.POLAR.0>
0

>  <SCORE.INTRA.REPUL>
0

>  <SCORE.INTRA.REPUL.0>
0

>  <SCORE.INTRA.SOLV>
2.09506

>  <SCORE.INTRA.SOLV.lig_0>
-112.452

>  <SCORE.INTRA.VDW>
1.54094

>  <SCORE.INTRA.VDW.0>
-5.95059

>  <SCORE.INTRA.norm>
-0.00189436

>  <SCORE.RESTR>
0

>  <SCORE.RESTR.CAVITY>
0

>  <SCORE.RESTR.norm>
0

>  <SCORE.SYSTEM>
0

>  <SCORE.SYSTEM.CONST>
0

>  <SCORE.SYSTEM.DIHEDRAL>
0

>  <SCORE.SYSTEM.SOLV>
0

>  <SCORE.SYSTEM.norm>
0

>  <SCORE.heavy>
42

>  <SCORE.norm>
-0.42581

>  <RMSD>
8.462

$$$$
2fcy_lig
 OpenBabel11021811433D
libRbt.so/2013.1/901 2013/11/27
 42 45  0  0  0  0  0  0  0  0999 V2000
   -2.6312   93.0811    7.3523 C   0  0  2  0  0  0  0  0  0  0  0  0
   -2.3894   92.9076    8.7590 O   0  0  0  0  0  0  0  0  0  0  0  0
   -3.6199   91.9787    6.9700 C   0  0  2  0  0  0  0  0  0  0  0  0
   -4.7948   92.0747    7.8470 N   0  0  0  0  0  0  0  0  0  0  0  0
   -2.9581   90.6107    7.1540 C   0  0  1  0  0  0  0  0  0  0  0  0
   -3.8635   89.5622    6.7980 O   0  0  0  0  0  0  0  0  0  0  0  0
   -1.6935   90.5402    6.2975 C   0  0  2  0  0  0  0  0  0  0  0  0
   -1.0268   89.3024    6.5442 O   0  0  0  0  0  0  0  0  0  0  0  0
   -0.7555   91.6758    6.7096 C   0  0  2  0  0  0  0  0  0  0  0  0
   -1.4322   92.9341    6.5640 O   0  0  0  0  0  0  0  0  0  0  0  0
    0.5110   91.6215    5.8513 C   0  0  0  0  0  0  0  0  0  0  0  0
    1.2353   90.3589    6.0613 N   0  0  0  0  0  0  0  0  0  0  0  0
   -0.5776   96.6837    9.0828 C   0  0  2  0  0  0  0  0  0  0  0  0
    0.0696   97.9455    9.4727 N   0  0  0  0  0  0  0  0  0  0  0  0
   -1.8946   96.4921    9.8376 C   0  0  0  0  0  0  0  0  0  0  0  0
   -2.5824   95.2354    9.2947 C   0  0  2  0  0  0  0  0  0  0  0  0
   -3.8083   94.9818   10.0653 N   0  0  0  0  0  0  0  0  0  0  0  0
   -1.6963   93.9910    9.4034 C   0  0  2  0  0  0  0  0  0  0  0  0
   -0.2743   94.1751    8.8852 C   0  0  2  0  0  0  0  0  0  0  0  0
    0.4763   93.0730    9.4200 O   0  0  0  0  0  0  0  0  0  0  0  0
    0.3427   95.4944    9.3682 C   0  0  1  0  0  0  0  0  0  0  0  0
    1.5918   95.7410    8.7171 O   0  0  0  0  0  0  0  0  0  0  0  0
    0.3591   92.8684   10.8373 C   0  0  1  0  0  0  0  0  0  0  0  0
    1.3763   91.7975   11.2350 C   0  0  2  0  0  0  0  0  0  0  0  0
    0.8229   90.4996   11.0045 O   0  0  0  0  0  0  0  0  0  0  0  0
    1.4291   92.0702   12.7354 C   0  0  1  0  0  0  0  0  0  0  0  0
    1.5276   93.5875   12.7353 C   0  0  2  0  0  0  0  0  0  0  0  0
    0.7290   94.0246   11.6164 O   0  0  0  0  0  0  0  0  0  0  0  0
    2.9976   93.9942   12.5809 C   0  0  0  0  0  0  0  0  0  0  0  0
    3.1441   95.4106   12.7181 O   0  0  0  0  0  0  0  0  0  0  0  0
    0.4525   91.2447   14.7010 C   0  0  2  0  0  0  0  0  0  0  0  0
    0.1980   91.6566   13.3493 O   0  0  0  0  0  0  0  0  0  0  0  0
   -0.8119   90.6112   15.2903 C   0  0  1  0  0  0  0  0  0  0  0  0
    2.8938   93.7894   16.8728 N   0  0  0  0  0  0  0  0  0  0  0  0
   -0.5944   90.2565   16.7652 C   0  0  1  0  0  0  0  0  0  0  0  0
    0.3534   89.1909   16.8849 O   0  0  0  0  0  0  0  0  0  0  0  0
   -0.0923   91.4869   17.5259 C   0  0  2  0  0  0  0  0  0  0  0  0
   -1.1266   92.4767   17.5251 O   0  0  0  0  0  0  0  0  0  0  0  0
    1.1626   92.0375   16.8401 C   0  0  1  0  0  0  0  0  0  0  0  0
    0.8628   92.3852   15.4755 O   0  0  0  0  0  0  0  0  0  0  0  0
    1.7169   93.2597   17.5771 C   0  0  0  0  0  0  0  0  0  0  0  0
   -1.9113   91.5843   15.2038 N   0  0  0  0  0  0  0  0  0  0  0  0
  1  2  1  1  0  0  0
  1  3  1  0  0  0  0
  1 10  1  0  0  0  0
  3  4  1  1  0  0  0
  3  5  1  0  0  0  0
  5  6  1  6  0  0  0
  5  7  1  0  0  0  0
  7  8  1  1  0  0  0
  7  9  1  0  0  0  0
  9 10  1  0  0  0  0
  9 11  1  6  0  0  0
 11 12  1  0  0  0  0
 13 14  1  1  0  0  0
 13 15  1  0  0  0  0
 13 21  1  0  0  0  0
 16 15  1  0  0  0  0
 16 17  1  1  0  0  0
 18  2  1  6  0  0  0
 18 16  1  0  0  0  0
 19 18  1  0  0  0  0
 19 20  1  1  0  0  0
 21 19  1  0  0  0  0
 21 22  1  6  0  0  0
 23 20  1  6  0  0  0
 23 24  1  0  0  0  0
 23 28  1  0  0  0  0
 24 25  1  1  0  0  0
 24 26  1  0  0  0  0
 26 27  1  0  0  0  0
 26 32  1  1  0  0  0
 27 28  1  0  0  0  0
 27 29  1  6  0  0  0
 29 30  1  0  0  0  0
 31 32  1  6  0  0  0
 31 40  1  0  0  0  0
 33 31  1  0  0  0  0
 33 42  1  1  0  0  0
 35 33  1  0  0  0  0
 35 36  1  6  0  0  0
 37 35  1  0  0  0  0
 37 38  1  6  0  0  0
 37 39  1  0  0  0  0
 39 40  1  0  0  0  0
 39 41  1  1  0  0  0
 41 34  1  0  0  0  0
M  END
>  <CHROM.1>
-168.09406059,-61.91301656,62.79235214,-51.11982911,-171.86995690,149.92971968
-173.90163547,-171.70484548,-178.24100728,-0.36912428,92.71381120,11.10012363
2.18367694,-1.08999428,-0.97555175

>  <Name>
2fcy_lig

>  <RI>
224

>  <Rbt.Current_Directory>
/home/itssahil/PROJECTS/Mol_Feturizer/New_Systems/rnas/2fcy

>  <Rbt.Executable>
rbdock ($Id: //depot/dev/client3/rdock/2013.1/src/exe/rbdock.cxx#4 $)

>  <Rbt.Library>
libRbt.so (2013.1, Build901 2013/11/27)

>  <Rbt.Parameter_File>
/export/apps/rDock/src/rDock_2013.1_src/data/scripts/dock_solv.prm

>  <Rbt.Receptor>
prm/pocket_docking_6.prm

>  <SCORE>
-14.915

>  <SCORE.INTER>
-11.7154

>  <SCORE.INTER.CONST>
1

>  <SCORE.INTER.POLAR>
-1.74776

>  <SCORE.INTER.ROT>
9

>  <SCORE.INTER.SOLV>
15.9075

>  <SCORE.INTER.VDW>
-16.8869

>  <SCORE.INTER.norm>
-0.278939

>  <SCORE.INTRA>
-3.19954

>  <SCORE.INTRA.DIHEDRAL>
-11.5204

>  <SCORE.INTRA.DIHEDRAL.0>
17.3446

>  <SCORE.INTRA.POLAR>
0

>  <SCORE.INTRA.POLAR.0>
0

>  <SCORE.INTRA.REPUL>
0

>  <SCORE.INTRA.REPUL.0>
0

>  <SCORE.INTRA.SOLV>
-2.95245

>  <SCORE.INTRA.SOLV.lig_0>
-112.452

>  <SCORE.INTRA.VDW>
4.03689

>  <SCORE.INTRA.VDW.0>
-5.95059

>  <SCORE.INTRA.norm>
-0.0761795

>  <SCORE.RESTR>
0

>  <SCORE.RESTR.CAVITY>
0

>  <SCORE.RESTR.norm>
0

>  <SCORE.SYSTEM>
0

>  <SCORE.SYSTEM.CONST>
0

>  <SCORE.SYSTEM.DIHEDRAL>
0

>  <SCORE.SYSTEM.SOLV>
0

>  <SCORE.SYSTEM.norm>
0

>  <SCORE.heavy>
42

>  <SCORE.norm>
-0.355118

>  <RMSD>
8.483

$$$$
2fcy_lig
 OpenBabel11021811433D
libRbt.so/2013.1/901 2013/11/27
 42 45  0  0  0  0  0  0  0  0999 V2000
   -1.1501   89.4459    9.3878 C   0  0  2  0  0  0  0  0  0  0  0  0
   -0.5989   89.7158    8.0876 O   0  0  0  0  0  0  0  0  0  0  0  0
   -0.4761   88.1554    9.8561 C   0  0  2  0  0  0  0  0  0  0  0  0
    0.9807   88.3353    9.7935 N   0  0  0  0  0  0  0  0  0  0  0  0
   -0.8861   87.0011    8.9381 C   0  0  1  0  0  0  0  0  0  0  0  0
   -0.2706   85.7807    9.3593 O   0  0  0  0  0  0  0  0  0  0  0  0
   -2.4089   86.8636    8.9459 C   0  0  2  0  0  0  0  0  0  0  0  0
   -2.7946   85.8514    8.0162 O   0  0  0  0  0  0  0  0  0  0  0  0
   -3.0254   88.1872    8.4905 C   0  0  2  0  0  0  0  0  0  0  0  0
   -2.5782   89.2463    9.3511 O   0  0  0  0  0  0  0  0  0  0  0  0
   -4.5514   88.0648    8.5039 C   0  0  0  0  0  0  0  0  0  0  0  0
   -5.1850   89.3427    8.1461 N   0  0  0  0  0  0  0  0  0  0  0  0
    0.2589   93.2155    5.9282 C   0  0  2  0  0  0  0  0  0  0  0  0
    0.2965   94.5174    5.2452 N   0  0  0  0  0  0  0  0  0  0  0  0
   -0.9055   92.3658    5.4154 C   0  0  0  0  0  0  0  0  0  0  0  0
   -0.8130   90.9806    6.0634 C   0  0  2  0  0  0  0  0  0  0  0  0
   -1.9716   90.1744    5.6529 N   0  0  0  0  0  0  0  0  0  0  0  0
   -0.8105   91.0501    7.5933 C   0  0  2  0  0  0  0  0  0  0  0  0
    0.1665   92.0612    8.1828 C   0  0  2  0  0  0  0  0  0  0  0  0
   -0.2515   92.2524    9.5440 O   0  0  0  0  0  0  0  0  0  0  0  0
    0.1160   93.4033    7.4405 C   0  0  1  0  0  0  0  0  0  0  0  0
    1.1698   94.2663    7.8763 O   0  0  0  0  0  0  0  0  0  0  0  0
    0.5143   93.2014   10.3037 C   0  0  1  0  0  0  0  0  0  0  0  0
   -0.2362   93.4595   11.6112 C   0  0  2  0  0  0  0  0  0  0  0  0
   -1.2463   94.4486   11.3987 O   0  0  0  0  0  0  0  0  0  0  0  0
    0.9065   94.0638   12.4220 C   0  0  1  0  0  0  0  0  0  0  0  0
    2.0245   93.0879   12.0902 C   0  0  2  0  0  0  0  0  0  0  0  0
    1.8010   92.6991   10.7192 O   0  0  0  0  0  0  0  0  0  0  0  0
    1.9435   91.8902   13.0436 C   0  0  0  0  0  0  0  0  0  0  0  0
    2.2128   92.2990   14.3878 O   0  0  0  0  0  0  0  0  0  0  0  0
    2.0854   96.0461   12.8456 C   0  0  2  0  0  0  0  0  0  0  0  0
    1.2260   95.3695   11.9155 O   0  0  0  0  0  0  0  0  0  0  0  0
    1.3040   96.3699   14.1230 C   0  0  1  0  0  0  0  0  0  0  0  0
    3.0329  100.0679   11.9115 N   0  0  0  0  0  0  0  0  0  0  0  0
    2.1726   97.1822   15.0895 C   0  0  1  0  0  0  0  0  0  0  0  0
    3.2418   96.3754   15.5936 O   0  0  0  0  0  0  0  0  0  0  0  0
    2.7411   98.4085   14.3702 C   0  0  2  0  0  0  0  0  0  0  0  0
    1.6566   99.2748   14.0197 O   0  0  0  0  0  0  0  0  0  0  0  0
    3.4870   97.9631   13.1079 C   0  0  1  0  0  0  0  0  0  0  0  0
    2.5921   97.2467   12.2368 O   0  0  0  0  0  0  0  0  0  0  0  0
    4.0936   99.1548   12.3621 C   0  0  0  0  0  0  0  0  0  0  0  0
    0.1281   97.1773   13.7648 N   0  0  0  0  0  0  0  0  0  0  0  0
  1  2  1  6  0  0  0
  1  3  1  0  0  0  0
  1 10  1  0  0  0  0
  3  4  1  6  0  0  0
  3  5  1  0  0  0  0
  5  6  1  1  0  0  0
  5  7  1  0  0  0  0
  7  8  1  6  0  0  0
  7  9  1  0  0  0  0
  9 10  1  0  0  0  0
  9 11  1  1  0  0  0
 11 12  1  0  0  0  0
 13 14  1  6  0  0  0
 13 15  1  0  0  0  0
 13 21  1  0  0  0  0
 16 15  1  0  0  0  0
 16 17  1  1  0  0  0
 18  2  1  1  0  0  0
 18 16  1  0  0  0  0
 19 18  1  0  0  0  0
 19 20  1  1  0  0  0
 21 19  1  0  0  0  0
 21 22  1  1  0  0  0
 23 20  1  6  0  0  0
 23 24  1  0  0  0  0
 23 28  1  0  0  0  0
 24 25  1  6  0  0  0
 24 26  1  0  0  0  0
 26 27  1  0  0  0  0
 26 32  1  6  0  0  0
 27 28  1  0  0  0  0
 27 29  1  1  0  0  0
 29 30  1  0  0  0  0
 31 32  1  6  0  0  0
 31 40  1  0  0  0  0
 33 31  1  0  0  0  0
 33 42  1  6  0  0  0
 35 33  1  0  0  0  0
 35 36  1  6  0  0  0
 37 35  1  0  0  0  0
 37 38  1  6  0  0  0
 37 39  1  0  0  0  0
 39 40  1  0  0  0  0
 39 41  1  6  0  0  0
 41 34  1  0  0  0  0
M  END
>  <CHROM.1>
-164.33428378,176.72733977,-152.62793450,-178.63148018,169.34671683,167.53836477
-65.64917153,-68.42769841,-62.19999143,0.24575550,92.76366266,10.33950787
-3.03332372,-1.17630426,-0.91198880

>  <Name>
2fcy_lig

>  <RI>
224

>  <Rbt.Current_Directory>
/home/itssahil/PROJECTS/Mol_Feturizer/New_Systems/rnas/2fcy

>  <Rbt.Executable>
rbdock ($Id: //depot/dev/client3/rdock/2013.1/src/exe/rbdock.cxx#4 $)

>  <Rbt.Library>
libRbt.so (2013.1, Build901 2013/11/27)

>  <Rbt.Parameter_File>
/export/apps/rDock/src/rDock_2013.1_src/data/scripts/dock_solv.prm

>  <Rbt.Receptor>
prm/pocket_docking_6.prm

>  <SCORE>
-17.7664

>  <SCORE.INTER>
-14.3194

>  <SCORE.INTER.CONST>
1

>  <SCORE.INTER.POLAR>
-2.45569

>  <SCORE.INTER.ROT>
9

>  <SCORE.INTER.SOLV>
20.2312

>  <SCORE.INTER.VDW>
-17.7044

>  <SCORE.INTER.norm>
-0.340938

>  <SCORE.INTRA>
-3.49365

>  <SCORE.INTRA.DIHEDRAL>
-10.8505

>  <SCORE.INTRA.DIHEDRAL.0>
17.3446

>  <SCORE.INTRA.POLAR>
0

>  <SCORE.INTRA.POLAR.0>
0

>  <SCORE.INTRA.REPUL>
0

>  <SCORE.INTRA.REPUL.0>
0

>  <SCORE.INTRA.SOLV>
-1.95335

>  <SCORE.INTRA.SOLV.lig_0>
-112.452

>  <SCORE.INTRA.VDW>
2.90829

>  <SCORE.INTRA.VDW.0>
-5.95059

>  <SCORE.INTRA.norm>
-0.0831822

>  <SCORE.RESTR>
0.0466158

>  <SCORE.RESTR.CAVITY>
0.0466158

>  <SCORE.RESTR.norm>
0.0011099

>  <SCORE.SYSTEM>
0

>  <SCORE.SYSTEM.CONST>
0

>  <SCORE.SYSTEM.DIHEDRAL>
0

>  <SCORE.SYSTEM.SOLV>
0

>  <SCORE.SYSTEM.norm>
0

>  <SCORE.heavy>
42

>  <SCORE.norm>
-0.42301

>  <RMSD>
8.526

$$$$
2fcy_lig
 OpenBabel11021811433D
libRbt.so/2013.1/901 2013/11/27
 42 45  0  0  0  0  0  0  0  0999 V2000
   -1.7085   91.3784    8.6417 C   0  0  2  0  0  0  0  0  0  0  0  0
   -1.3562   91.2339    7.2552 O   0  0  0  0  0  0  0  0  0  0  0  0
   -0.5127   90.8343    9.4247 C   0  0  2  0  0  0  0  0  0  0  0  0
    0.6986   91.5408    8.9859 N   0  0  0  0  0  0  0  0  0  0  0  0
   -0.3571   89.3370    9.1470 C   0  0  1  0  0  0  0  0  0  0  0  0
    0.7541   88.8039    9.8728 O   0  0  0  0  0  0  0  0  0  0  0  0
   -1.6469   88.6130    9.5343 C   0  0  2  0  0  0  0  0  0  0  0  0
   -1.5349   87.2334    9.1850 O   0  0  0  0  0  0  0  0  0  0  0  0
   -2.8066   89.2125    8.7375 C   0  0  2  0  0  0  0  0  0  0  0  0
   -2.8861   90.6234    8.9934 O   0  0  0  0  0  0  0  0  0  0  0  0
   -4.1061   88.5017    9.1245 C   0  0  0  0  0  0  0  0  0  0  0  0
   -5.2360   88.9987    8.3250 N   0  0  0  0  0  0  0  0  0  0  0  0
   -3.1118   92.7922    3.7716 C   0  0  2  0  0  0  0  0  0  0  0  0
   -3.9543   93.1905    2.6338 N   0  0  0  0  0  0  0  0  0  0  0  0
   -2.9911   91.2691    3.8519 C   0  0  0  0  0  0  0  0  0  0  0  0
   -2.0006   90.9227    4.9681 C   0  0  2  0  0  0  0  0  0  0  0  0
   -1.9345   89.4623    5.1224 N   0  0  0  0  0  0  0  0  0  0  0  0
   -2.4107   91.5171    6.3186 C   0  0  2  0  0  0  0  0  0  0  0  0
   -2.7836   92.9948    6.2766 C   0  0  2  0  0  0  0  0  0  0  0  0
   -3.4908   93.2487    7.5012 O   0  0  0  0  0  0  0  0  0  0  0  0
   -3.6941   93.3200    5.0851 C   0  0  1  0  0  0  0  0  0  0  0  0
   -3.8707   94.7326    4.9496 O   0  0  0  0  0  0  0  0  0  0  0  0
   -2.9308   94.2682    8.3446 C   0  0  1  0  0  0  0  0  0  0  0  0
   -2.8928   95.5664    7.5366 C   0  0  2  0  0  0  0  0  0  0  0  0
   -1.7156   95.5940    6.7260 O   0  0  0  0  0  0  0  0  0  0  0  0
   -2.7416   96.5551    8.6890 C   0  0  1  0  0  0  0  0  0  0  0  0
   -3.7830   96.0122    9.6549 C   0  0  2  0  0  0  0  0  0  0  0  0
   -3.7506   94.5796    9.4897 O   0  0  0  0  0  0  0  0  0  0  0  0
   -5.1535   96.5974    9.2951 C   0  0  0  0  0  0  0  0  0  0  0  0
   -5.1731   98.0091    9.5254 O   0  0  0  0  0  0  0  0  0  0  0  0
   -1.1029   97.6498    9.9599 C   0  0  2  0  0  0  0  0  0  0  0  0
   -1.4297   96.4381    9.2623 O   0  0  0  0  0  0  0  0  0  0  0  0
   -0.5417   98.6756    8.9700 C   0  0  1  0  0  0  0  0  0  0  0  0
    1.3575   99.2931   13.7939 N   0  0  0  0  0  0  0  0  0  0  0  0
   -0.0913   99.9404    9.7087 C   0  0  1  0  0  0  0  0  0  0  0  0
   -1.2241  100.6336   10.2421 O   0  0  0  0  0  0  0  0  0  0  0  0
    0.8692   99.5656   10.8406 C   0  0  2  0  0  0  0  0  0  0  0  0
    2.0615   99.0209   10.2651 O   0  0  0  0  0  0  0  0  0  0  0  0
    0.2061   98.5296   11.7545 C   0  0  1  0  0  0  0  0  0  0  0  0
   -0.1462   97.3591   10.9939 O   0  0  0  0  0  0  0  0  0  0  0  0
    1.1212   98.1365   12.9174 C   0  0  0  0  0  0  0  0  0  0  0  0
    0.6271   98.0902    8.2960 N   0  0  0  0  0  0  0  0  0  0  0  0
  1  2  1  6  0  0  0
  1  3  1  0  0  0  0
  1 10  1  0  0  0  0
  3  4  1  6  0  0  0
  3  5  1  0  0  0  0
  5  6  1  1  0  0  0
  5  7  1  0  0  0  0
  7  8  1  6  0  0  0
  7  9  1  0  0  0  0
  9 10  1  0  0  0  0
  9 11  1  1  0  0  0
 11 12  1  0  0  0  0
 13 14  1  6  0  0  0
 13 15  1  0  0  0  0
 13 21  1  0  0  0  0
 16 15  1  0  0  0  0
 16 17  1  1  0  0  0
 18  2  1  1  0  0  0
 18 16  1  0  0  0  0
 19 18  1  0  0  0  0
 19 20  1  1  0  0  0
 21 19  1  0  0  0  0
 21 22  1  6  0  0  0
 23 20  1  6  0  0  0
 23 24  1  0  0  0  0
 23 28  1  0  0  0  0
 24 25  1  6  0  0  0
 24 26  1  0  0  0  0
 26 27  1  0  0  0  0
 26 32  1  1  0  0  0
 27 28  1  0  0  0  0
 27 29  1  6  0  0  0
 29 30  1  0  0  0  0
 31 32  1  6  0  0  0
 31 40  1  0  0  0  0
 33 31  1  0  0  0  0
 33 42  1  1  0  0  0
 35 33  1  0  0  0  0
 35 36  1  1  0  0  0
 37 35  1  0  0  0  0
 37 38  1  6  0  0  0
 37 39  1  0  0  0  0
 39 40  1  0  0  0  0
 39 41  1  1  0  0  0
 41 34  1  0  0  0  0
M  END
>  <CHROM.1>
171.97063604,-176.85703863,-163.44406140,121.99914792,58.91719847,158.15357478
-66.30936830,-84.23852892,64.64783230,-1.84334644,94.06911644,8.44826168
-1.96279801,-0.95772428,0.04092301

>  <Name>
2fcy_lig

>  <RI>
2.89127e+07

>  <Rbt.Current_Directory>
/home/itssahil/PROJECTS/Mol_Feturizer/New_Systems/rnas/2fcy

>  <Rbt.Executable>
rbdock ($Id: //depot/dev/client3/rdock/2013.1/src/exe/rbdock.cxx#4 $)

>  <Rbt.Library>
libRbt.so (2013.1, Build901 2013/11/27)

>  <Rbt.Parameter_File>
/export/apps/rDock/src/rDock_2013.1_src/data/scripts/dock_solv.prm

>  <Rbt.Receptor>
prm/pocket_docking_7.prm

>  <SCORE>
-17.5408

>  <SCORE.INTER>
-16.1023

>  <SCORE.INTER.CONST>
1

>  <SCORE.INTER.POLAR>
-2.79168

>  <SCORE.INTER.ROT>
9

>  <SCORE.INTER.SOLV>
16.0265

>  <SCORE.INTER.VDW>
-16.3715

>  <SCORE.INTER.norm>
-0.383389

>  <SCORE.INTRA>
-1.43848

>  <SCORE.INTRA.DIHEDRAL>
-3.28155

>  <SCORE.INTRA.DIHEDRAL.0>
17.3446

>  <SCORE.INTRA.POLAR>
0

>  <SCORE.INTRA.POLAR.0>
0

>  <SCORE.INTRA.REPUL>
0

>  <SCORE.INTRA.REPUL.0>
0

>  <SCORE.INTRA.SOLV>
-3.74274

>  <SCORE.INTRA.SOLV.lig_0>
-112.452

>  <SCORE.INTRA.VDW>
2.07366

>  <SCORE.INTRA.VDW.0>
-5.95059

>  <SCORE.INTRA.norm>
-0.0342495

>  <SCORE.RESTR>
0

>  <SCORE.RESTR.CAVITY>
0

>  <SCORE.RESTR.norm>
0

>  <SCORE.SYSTEM>
0

>  <SCORE.SYSTEM.CONST>
0

>  <SCORE.SYSTEM.DIHEDRAL>
0

>  <SCORE.SYSTEM.SOLV>
0

>  <SCORE.SYSTEM.norm>
0

>  <SCORE.heavy>
42

>  <SCORE.norm>
-0.417638

>  <RMSD>
8.533

$$$$
2fcy_lig
 OpenBabel11021811433D
libRbt.so/2013.1/901 2013/11/27
 42 45  0  0  0  0  0  0  0  0999 V2000
   -1.2002   89.7982    9.5542 C   0  0  2  0  0  0  0  0  0  0  0  0
   -0.6495   89.9510    8.2348 O   0  0  0  0  0  0  0  0  0  0  0  0
   -0.8444   88.3735    9.9815 C   0  0  2  0  0  0  0  0  0  0  0  0
    0.6088   88.1941    9.8601 N   0  0  0  0  0  0  0  0  0  0  0  0
   -1.5585   87.3721    9.0702 C   0  0  1  0  0  0  0  0  0  0  0  0
   -1.2442   86.0305    9.4536 O   0  0  0  0  0  0  0  0  0  0  0  0
   -3.0673   87.6096    9.1401 C   0  0  2  0  0  0  0  0  0  0  0  0
   -3.7236   86.7402    8.2175 O   0  0  0  0  0  0  0  0  0  0  0  0
   -3.3588   89.0521    8.7236 C   0  0  2  0  0  0  0  0  0  0  0  0
   -2.6340   89.9533    9.5751 O   0  0  0  0  0  0  0  0  0  0  0  0
   -4.8668   89.3049    8.7994 C   0  0  0  0  0  0  0  0  0  0  0  0
   -5.3016   89.4805   10.1932 N   0  0  0  0  0  0  0  0  0  0  0  0
    0.2762   93.2495    5.8038 C   0  0  2  0  0  0  0  0  0  0  0  0
    0.3393   94.4919    5.0194 N   0  0  0  0  0  0  0  0  0  0  0  0
   -0.9063   92.3858    5.3603 C   0  0  0  0  0  0  0  0  0  0  0  0
   -0.8411   91.0550    6.1164 C   0  0  2  0  0  0  0  0  0  0  0  0
   -2.0167   90.2426    5.7714 N   0  0  0  0  0  0  0  0  0  0  0  0
   -0.8346   91.2459    7.6359 C   0  0  2  0  0  0  0  0  0  0  0  0
    0.1639   92.2804    8.1431 C   0  0  2  0  0  0  0  0  0  0  0  0
   -0.2478   92.5878    9.4848 O   0  0  0  0  0  0  0  0  0  0  0  0
    0.1397   93.5599    7.2964 C   0  0  1  0  0  0  0  0  0  0  0  0
    1.2116   94.4329    7.6621 O   0  0  0  0  0  0  0  0  0  0  0  0
    0.6615   93.3998   10.2452 C   0  0  1  0  0  0  0  0  0  0  0  0
   -0.0657   93.8403   11.5167 C   0  0  2  0  0  0  0  0  0  0  0  0
   -0.8615   94.9952   11.2399 O   0  0  0  0  0  0  0  0  0  0  0  0
    1.1461   94.2442   12.3515 C   0  0  1  0  0  0  0  0  0  0  0  0
    2.0669   93.0632   12.0881 C   0  0  2  0  0  0  0  0  0  0  0  0
    1.8153   92.6770   10.7212 O   0  0  0  0  0  0  0  0  0  0  0  0
    1.7299   91.9360   13.0709 C   0  0  0  0  0  0  0  0  0  0  0  0
    0.4607   91.3565   12.7547 O   0  0  0  0  0  0  0  0  0  0  0  0
    2.6270   96.0099   12.7851 C   0  0  2  0  0  0  0  0  0  0  0  0
    1.7241   95.4474   11.8208 O   0  0  0  0  0  0  0  0  0  0  0  0
    1.8320   96.5433   13.9812 C   0  0  1  0  0  0  0  0  0  0  0  0
    4.3572   99.6718   11.6606 N   0  0  0  0  0  0  0  0  0  0  0  0
    2.7665   97.2394   14.9765 C   0  0  1  0  0  0  0  0  0  0  0  0
    3.6303   96.2829   15.5987 O   0  0  0  0  0  0  0  0  0  0  0  0
    3.6006   98.2988   14.2509 C   0  0  2  0  0  0  0  0  0  0  0  0
    2.7220   99.3254   13.7779 O   0  0  0  0  0  0  0  0  0  0  0  0
    4.3372   97.6533   13.0724 C   0  0  1  0  0  0  0  0  0  0  0  0
    3.3881   97.0617   12.1658 O   0  0  0  0  0  0  0  0  0  0  0  0
    5.2042   98.6703   12.3250 C   0  0  0  0  0  0  0  0  0  0  0  0
    0.8535   97.5282   13.4959 N   0  0  0  0  0  0  0  0  0  0  0  0
  1  2  1  6  0  0  0
  1  3  1  0  0  0  0
  1 10  1  0  0  0  0
  3  4  1  6  0  0  0
  3  5  1  0  0  0  0
  5  6  1  1  0  0  0
  5  7  1  0  0  0  0
  7  8  1  6  0  0  0
  7  9  1  0  0  0  0
  9 10  1  0  0  0  0
  9 11  1  1  0  0  0
 11 12  1  0  0  0  0
 13 14  1  6  0  0  0
 13 15  1  0  0  0  0
 13 21  1  0  0  0  0
 16 15  1  0  0  0  0
 16 17  1  1  0  0  0
 18  2  1  1  0  0  0
 18 16  1  0  0  0  0
 19 18  1  0  0  0  0
 19 20  1  1  0  0  0
 21 19  1  0  0  0  0
 21 22  1  1  0  0  0
 23 20  1  6  0  0  0
 23 24  1  0  0  0  0
 23 28  1  0  0  0  0
 24 25  1  6  0  0  0
 24 26  1  0  0  0  0
 26 27  1  0  0  0  0
 26 32  1  6  0  0  0
 27 28  1  0  0  0  0
 27 29  1  1  0  0  0
 29 30  1  0  0  0  0
 31 32  1  6  0  0  0
 31 40  1  0  0  0  0
 33 31  1  0  0  0  0
 33 42  1  6  0  0  0
 35 33  1  0  0  0  0
 35 36  1  6  0  0  0
 37 35  1  0  0  0  0
 37 38  1  6  0  0  0
 37 39  1  0  0  0  0
 39 40  1  0  0  0  0
 39 41  1  6  0  0  0
 41 34  1  0  0  0  0
M  END
>  <CHROM.1>
-178.45665882,76.39932586,-152.82599771,171.15023979,169.01246904,165.18882890
70.24642469,-69.09659399,-66.77303280,0.32186047,92.91883940,10.33032658
2.93364132,-1.05900646,-1.28467555

>  <Name>
2fcy_lig

>  <RI>
224

>  <Rbt.Current_Directory>
/home/itssahil/PROJECTS/Mol_Feturizer/New_Systems/rnas/2fcy

>  <Rbt.Executable>
rbdock ($Id: //depot/dev/client3/rdock/2013.1/src/exe/rbdock.cxx#4 $)

>  <Rbt.Library>
libRbt.so (2013.1, Build901 2013/11/27)

>  <Rbt.Parameter_File>
/export/apps/rDock/src/rDock_2013.1_src/data/scripts/dock_solv.prm

>  <Rbt.Receptor>
prm/pocket_docking_6.prm

>  <SCORE>
-12.1541

>  <SCORE.INTER>
-9.0982

>  <SCORE.INTER.CONST>
1

>  <SCORE.INTER.POLAR>
-1.77452

>  <SCORE.INTER.ROT>
9

>  <SCORE.INTER.SOLV>
19.6407

>  <SCORE.INTER.VDW>
-16.2973

>  <SCORE.INTER.norm>
-0.216624

>  <SCORE.INTRA>
-3.05589

>  <SCORE.INTRA.DIHEDRAL>
-10.0308

>  <SCORE.INTRA.DIHEDRAL.0>
17.3446

>  <SCORE.INTRA.POLAR>
0

>  <SCORE.INTRA.POLAR.0>
0

>  <SCORE.INTRA.REPUL>
0

>  <SCORE.INTRA.REPUL.0>
0

>  <SCORE.INTRA.SOLV>
-0.43469

>  <SCORE.INTRA.SOLV.lig_0>
-112.452

>  <SCORE.INTRA.VDW>
2.17686

>  <SCORE.INTRA.VDW.0>
-5.95059

>  <SCORE.INTRA.norm>
-0.0727592

>  <SCORE.RESTR>
0

>  <SCORE.RESTR.CAVITY>
0

>  <SCORE.RESTR.norm>
0

>  <SCORE.SYSTEM>
0

>  <SCORE.SYSTEM.CONST>
0

>  <SCORE.SYSTEM.DIHEDRAL>
0

>  <SCORE.SYSTEM.SOLV>
0

>  <SCORE.SYSTEM.norm>
0

>  <SCORE.heavy>
42

>  <SCORE.norm>
-0.289383

>  <RMSD>
8.549

$$$$
2fcy_lig
 OpenBabel11021811433D
libRbt.so/2013.1/901 2013/11/27
 42 45  0  0  0  0  0  0  0  0999 V2000
    6.4106   98.2791   11.9397 C   0  0  2  0  0  0  0  0  0  0  0  0
    5.7273   97.0494   11.6431 O   0  0  0  0  0  0  0  0  0  0  0  0
    7.6677   98.2669   11.0688 C   0  0  2  0  0  0  0  0  0  0  0  0
    7.2690   98.0676    9.6688 N   0  0  0  0  0  0  0  0  0  0  0  0
    8.5823   97.1198   11.5056 C   0  0  1  0  0  0  0  0  0  0  0  0
    9.7686   97.0906   10.7071 O   0  0  0  0  0  0  0  0  0  0  0  0
    8.9356   97.2880   12.9837 C   0  0  2  0  0  0  0  0  0  0  0  0
    9.7082   96.1671   13.4131 O   0  0  0  0  0  0  0  0  0  0  0  0
    7.6421   97.3143   13.7995 C   0  0  2  0  0  0  0  0  0  0  0  0
    6.7975   98.3749   13.3260 O   0  0  0  0  0  0  0  0  0  0  0  0
    7.9829   97.4925   15.2813 C   0  0  0  0  0  0  0  0  0  0  0  0
    6.7721   97.4179   16.1124 N   0  0  0  0  0  0  0  0  0  0  0  0
    1.9401   98.7844   12.1852 C   0  0  2  0  0  0  0  0  0  0  0  0
    0.5179   99.1290   12.3312 N   0  0  0  0  0  0  0  0  0  0  0  0
    2.2063   98.1394   10.8235 C   0  0  0  0  0  0  0  0  0  0  0  0
    3.7165   97.9265   10.6784 C   0  0  2  0  0  0  0  0  0  0  0  0
    3.9889   97.2278    9.4140 N   0  0  0  0  0  0  0  0  0  0  0  0
    4.2993   97.0809   11.8145 C   0  0  2  0  0  0  0  0  0  0  0  0
    3.8810   97.5196   13.2135 C   0  0  2  0  0  0  0  0  0  0  0  0
    4.1903   96.4110   14.0734 O   0  0  0  0  0  0  0  0  0  0  0  0
    2.3786   97.8216   13.2914 C   0  0  1  0  0  0  0  0  0  0  0  0
    2.0431   98.4163   14.5479 O   0  0  0  0  0  0  0  0  0  0  0  0
    3.1835   95.3898   14.1605 C   0  0  1  0  0  0  0  0  0  0  0  0
    3.8858   94.0369   14.0341 C   0  0  2  0  0  0  0  0  0  0  0  0
    4.0806   93.7235   12.6530 O   0  0  0  0  0  0  0  0  0  0  0  0
    2.7867   93.1478   14.6086 C   0  0  1  0  0  0  0  0  0  0  0  0
    2.3930   93.9559   15.8350 C   0  0  2  0  0  0  0  0  0  0  0  0
    2.5285   95.3379   15.4446 O   0  0  0  0  0  0  0  0  0  0  0  0
    3.3295   93.5959   16.9941 C   0  0  0  0  0  0  0  0  0  0  0  0
    3.0002   94.3556   18.1607 O   0  0  0  0  0  0  0  0  0  0  0  0
    0.7950   92.0255   14.0870 C   0  0  2  0  0  0  0  0  0  0  0  0
    1.6851   93.0796   13.6893 O   0  0  0  0  0  0  0  0  0  0  0  0
   -0.5623   92.2152   13.4022 C   0  0  1  0  0  0  0  0  0  0  0  0
   -0.2016   89.5838   18.0156 N   0  0  0  0  0  0  0  0  0  0  0  0
   -1.5597   91.1594   13.8909 C   0  0  1  0  0  0  0  0  0  0  0  0
   -1.1744   89.8609   13.4285 O   0  0  0  0  0  0  0  0  0  0  0  0
   -1.6185   91.1703   15.4208 C   0  0  2  0  0  0  0  0  0  0  0  0
   -2.1594   92.4252   15.8474 O   0  0  0  0  0  0  0  0  0  0  0  0
   -0.2077   90.9854   15.9899 C   0  0  1  0  0  0  0  0  0  0  0  0
    0.6530   92.0388   15.5183 O   0  0  0  0  0  0  0  0  0  0  0  0
   -0.2157   90.9684   17.5209 C   0  0  0  0  0  0  0  0  0  0  0  0
   -1.0850   93.5448   13.7513 N   0  0  0  0  0  0  0  0  0  0  0  0
  1  2  1  1  0  0  0
  1  3  1  0  0  0  0
  1 10  1  0  0  0  0
  3  4  1  6  0  0  0
  3  5  1  0  0  0  0
  5  6  1  6  0  0  0
  5  7  1  0  0  0  0
  7  8  1  1  0  0  0
  7  9  1  0  0  0  0
  9 10  1  0  0  0  0
  9 11  1  1  0  0  0
 11 12  1  0  0  0  0
 13 14  1  1  0  0  0
 13 15  1  0  0  0  0
 13 21  1  0  0  0  0
 16 15  1  0  0  0  0
 16 17  1  6  0  0  0
 18  2  1  1  0  0  0
 18 16  1  0  0  0  0
 19 18  1  0  0  0  0
 19 20  1  1  0  0  0
 21 19  1  0  0  0  0
 21 22  1  1  0  0  0
 23 20  1  1  0  0  0
 23 24  1  0  0  0  0
 23 28  1  0  0  0  0
 24 25  1  6  0  0  0
 24 26  1  0  0  0  0
 26 27  1  0  0  0  0
 26 32  1  6  0  0  0
 27 28  1  0  0  0  0
 27 29  1  1  0  0  0
 29 30  1  0  0  0  0
 31 32  1  1  0  0  0
 31 40  1  0  0  0  0
 33 31  1  0  0  0  0
 33 42  1  1  0  0  0
 35 33  1  0  0  0  0
 35 36  1  1  0  0  0
 37 35  1  0  0  0  0
 37 38  1  6  0  0  0
 37 39  1  0  0  0  0
 39 40  1  0  0  0  0
 39 41  1  1  0  0  0
 41 34  1  0  0  0  0
M  END
>  <CHROM.1>
-152.12262849,-175.58269252,71.91469628,-85.17881016,134.39025724,167.37522758
179.07055625,162.66006307,97.89051257,3.38924484,95.24538278,13.74594152
0.70623796,-0.26869979,-0.80946604

>  <Name>
2fcy_lig

>  <RI>
9.29634e+06

>  <Rbt.Current_Directory>
/home/itssahil/PROJECTS/Mol_Feturizer/New_Systems/rnas/2fcy

>  <Rbt.Executable>
rbdock ($Id: //depot/dev/client3/rdock/2013.1/src/exe/rbdock.cxx#4 $)

>  <Rbt.Library>
libRbt.so (2013.1, Build901 2013/11/27)

>  <Rbt.Parameter_File>
/export/apps/rDock/src/rDock_2013.1_src/data/scripts/dock_solv.prm

>  <Rbt.Receptor>
prm/blind_docking_100.prm

>  <SCORE>
3.62135

>  <SCORE.INTER>
-3.33646

>  <SCORE.INTER.CONST>
1

>  <SCORE.INTER.POLAR>
-0.23405

>  <SCORE.INTER.ROT>
9

>  <SCORE.INTER.SOLV>
32.8961

>  <SCORE.INTER.VDW>
-22.0095

>  <SCORE.INTER.norm>
-0.0794395

>  <SCORE.INTRA>
4.57587

>  <SCORE.INTRA.DIHEDRAL>
1.76708

>  <SCORE.INTRA.DIHEDRAL.0>
17.3446

>  <SCORE.INTRA.POLAR>
0

>  <SCORE.INTRA.POLAR.0>
0

>  <SCORE.INTRA.REPUL>
0

>  <SCORE.INTRA.REPUL.0>
0

>  <SCORE.INTRA.SOLV>
-2.76016

>  <SCORE.INTRA.SOLV.lig_0>
-112.452

>  <SCORE.INTRA.VDW>
5.0724

>  <SCORE.INTRA.VDW.0>
-5.95059

>  <SCORE.INTRA.norm>
0.108949

>  <SCORE.RESTR>
2.38194

>  <SCORE.RESTR.CAVITY>
2.38194

>  <SCORE.RESTR.norm>
0.0567128

>  <SCORE.SYSTEM>
0

>  <SCORE.SYSTEM.CONST>
0

>  <SCORE.SYSTEM.DIHEDRAL>
0

>  <SCORE.SYSTEM.SOLV>
0

>  <SCORE.SYSTEM.norm>
0

>  <SCORE.heavy>
42

>  <SCORE.norm>
0.0862226

>  <RMSD>
8.565

$$$$
2fcy_lig
 OpenBabel11021811433D
libRbt.so/2013.1/901 2013/11/27
 42 45  0  0  0  0  0  0  0  0999 V2000
   -0.5073   93.0028    8.4303 C   0  0  2  0  0  0  0  0  0  0  0  0
   -1.6833   93.1209    9.2491 O   0  0  0  0  0  0  0  0  0  0  0  0
    0.2295   91.7681    8.9514 C   0  0  2  0  0  0  0  0  0  0  0  0
   -0.6933   90.6249    8.9303 N   0  0  0  0  0  0  0  0  0  0  0  0
    0.6966   92.0184   10.3875 C   0  0  1  0  0  0  0  0  0  0  0  0
    1.3932   90.8772   10.8957 O   0  0  0  0  0  0  0  0  0  0  0  0
    1.5970   93.2537   10.4195 C   0  0  2  0  0  0  0  0  0  0  0  0
    1.9525   93.5416   11.7717 O   0  0  0  0  0  0  0  0  0  0  0  0
    0.8153   94.4475    9.8690 C   0  0  2  0  0  0  0  0  0  0  0  0
    0.3590   94.1508    8.5400 O   0  0  0  0  0  0  0  0  0  0  0  0
    1.7105   95.6892    9.8869 C   0  0  0  0  0  0  0  0  0  0  0  0
    2.0128   96.1003   11.2661 N   0  0  0  0  0  0  0  0  0  0  0  0
   -5.6952   93.2132    8.0072 C   0  0  2  0  0  0  0  0  0  0  0  0
   -7.0379   92.9995    7.4464 N   0  0  0  0  0  0  0  0  0  0  0  0
   -4.6384   93.2191    6.9008 C   0  0  0  0  0  0  0  0  0  0  0  0
   -3.2869   93.5766    7.5276 C   0  0  2  0  0  0  0  0  0  0  0  0
   -2.2399   93.5028    6.4984 N   0  0  0  0  0  0  0  0  0  0  0  0
   -2.8972   92.6220    8.6599 C   0  0  2  0  0  0  0  0  0  0  0  0
   -3.9948   92.3725    9.6882 C   0  0  2  0  0  0  0  0  0  0  0  0
   -3.5892   91.1966   10.4072 O   0  0  0  0  0  0  0  0  0  0  0  0
   -5.3538   92.1196    9.0222 C   0  0  1  0  0  0  0  0  0  0  0  0
   -6.3999   92.0845    9.9967 O   0  0  0  0  0  0  0  0  0  0  0  0
   -3.1705   91.4097   11.7649 C   0  0  1  0  0  0  0  0  0  0  0  0
   -1.6906   91.0337   11.8562 C   0  0  2  0  0  0  0  0  0  0  0  0
   -1.5638   89.6218   12.0412 O   0  0  0  0  0  0  0  0  0  0  0  0
   -1.3464   91.7516   13.1579 C   0  0  1  0  0  0  0  0  0  0  0  0
   -2.0212   93.0930   12.9184 C   0  0  2  0  0  0  0  0  0  0  0  0
   -3.2169   92.7934   12.1692 O   0  0  0  0  0  0  0  0  0  0  0  0
   -1.0676   94.0004   12.1326 C   0  0  0  0  0  0  0  0  0  0  0  0
    0.0371   94.3965   12.9506 O   0  0  0  0  0  0  0  0  0  0  0  0
   -0.9611   90.6799   15.2077 C   0  0  2  0  0  0  0  0  0  0  0  0
   -1.9675   91.0783   14.2644 O   0  0  0  0  0  0  0  0  0  0  0  0
   -1.5785   90.5854   16.6066 C   0  0  1  0  0  0  0  0  0  0  0  0
    1.8708   93.6428   16.0503 N   0  0  0  0  0  0  0  0  0  0  0  0
   -0.5003   90.2606   17.6460 C   0  0  1  0  0  0  0  0  0  0  0  0
   -0.0067   88.9315   17.4505 O   0  0  0  0  0  0  0  0  0  0  0  0
    0.6499   91.2646   17.5311 C   0  0  2  0  0  0  0  0  0  0  0  0
    0.1605   92.5615   17.8889 O   0  0  0  0  0  0  0  0  0  0  0  0
    1.1759   91.2800   16.0919 C   0  0  1  0  0  0  0  0  0  0  0  0
    0.1146   91.6346   15.1860 O   0  0  0  0  0  0  0  0  0  0  0  0
    2.3443   92.2561   15.9296 C   0  0  0  0  0  0  0  0  0  0  0  0
   -2.1757   91.8855   16.9475 N   0  0  0  0  0  0  0  0  0  0  0  0
  1  2  1  1  0  0  0
  1  3  1  0  0  0  0
  1 10  1  0  0  0  0
  3  4  1  1  0  0  0
  3  5  1  0  0  0  0
  5  6  1  6  0  0  0
  5  7  1  0  0  0  0
  7  8  1  1  0  0  0
  7  9  1  0  0  0  0
  9 10  1  0  0  0  0
  9 11  1  6  0  0  0
 11 12  1  0  0  0  0
 13 14  1  6  0  0  0
 13 15  1  0  0  0  0
 13 21  1  0  0  0  0
 16 15  1  0  0  0  0
 16 17  1  6  0  0  0
 18  2  1  1  0  0  0
 18 16  1  0  0  0  0
 19 18  1  0  0  0  0
 19 20  1  6  0  0  0
 21 19  1  0  0  0  0
 21 22  1  1  0  0  0
 23 20  1  6  0  0  0
 23 24  1  0  0  0  0
 23 28  1  0  0  0  0
 24 25  1  1  0  0  0
 24 26  1  0  0  0  0
 26 27  1  0  0  0  0
 26 32  1  1  0  0  0
 27 28  1  0  0  0  0
 27 29  1  6  0  0  0
 29 30  1  0  0  0  0
 31 32  1  6  0  0  0
 31 40  1  0  0  0  0
 33 31  1  0  0  0  0
 33 42  1  1  0  0  0
 35 33  1  0  0  0  0
 35 36  1  6  0  0  0
 37 35  1  0  0  0  0
 37 38  1  6  0  0  0
 37 39  1  0  0  0  0
 39 40  1  0  0  0  0
 39 41  1  1  0  0  0
 41 34  1  0  0  0  0
M  END
>  <CHROM.1>
-100.04705892,-67.13528668,-70.27039577,109.30499231,-115.75188575,122.38603967
-69.95377911,153.48876345,-69.47752244,-1.22905354,92.36569194,11.90141195
-2.01883315,0.34610634,1.91492422

>  <Name>
2fcy_lig

>  <RI>
0

>  <Rbt.Current_Directory>
/home/itssahil/PROJECTS/Mol_Feturizer/New_Systems/rnas/2fcy

>  <Rbt.Executable>
rbdock ($Id: //depot/dev/client3/rdock/2013.1/src/exe/rbdock.cxx#4 $)

>  <Rbt.Library>
libRbt.so (2013.1, Build901 2013/11/27)

>  <Rbt.Parameter_File>
/export/apps/rDock/src/rDock_2013.1_src/data/scripts/dock_solv.prm

>  <Rbt.Receptor>
prm/pocket_docking_2.prm

>  <SCORE>
14.5392

>  <SCORE.INTER>
-3.2109

>  <SCORE.INTER.CONST>
1

>  <SCORE.INTER.POLAR>
-0.102749

>  <SCORE.INTER.ROT>
9

>  <SCORE.INTER.SOLV>
14.5668

>  <SCORE.INTER.VDW>
-16.2537

>  <SCORE.INTER.norm>
-0.07645

>  <SCORE.INTRA>
13.6834

>  <SCORE.INTRA.DIHEDRAL>
13.0915

>  <SCORE.INTRA.DIHEDRAL.0>
17.3446

>  <SCORE.INTRA.POLAR>
0

>  <SCORE.INTRA.POLAR.0>
0

>  <SCORE.INTRA.REPUL>
0.0093595

>  <SCORE.INTRA.REPUL.0>
0

>  <SCORE.INTRA.SOLV>
7.3407

>  <SCORE.INTRA.SOLV.lig_0>
-112.452

>  <SCORE.INTRA.VDW>
3.42047

>  <SCORE.INTRA.VDW.0>
-5.95059

>  <SCORE.INTRA.norm>
0.325795

>  <SCORE.RESTR>
4.06673

>  <SCORE.RESTR.CAVITY>
4.06673

>  <SCORE.RESTR.norm>
0.0968268

>  <SCORE.SYSTEM>
0

>  <SCORE.SYSTEM.CONST>
0

>  <SCORE.SYSTEM.DIHEDRAL>
0

>  <SCORE.SYSTEM.SOLV>
0

>  <SCORE.SYSTEM.norm>
0

>  <SCORE.heavy>
42

>  <SCORE.norm>
0.346172

>  <RMSD>
8.576

$$$$
2fcy_lig
 OpenBabel11021811433D
libRbt.so/2013.1/901 2013/11/27
 42 45  0  0  0  0  0  0  0  0999 V2000
   -0.8374   94.5919    7.8633 C   0  0  2  0  0  0  0  0  0  0  0  0
   -2.2044   95.0315    7.9356 O   0  0  0  0  0  0  0  0  0  0  0  0
   -0.5648   94.3515    6.3777 C   0  0  2  0  0  0  0  0  0  0  0  0
   -0.8928   95.5757    5.6344 N   0  0  0  0  0  0  0  0  0  0  0  0
   -1.4412   93.2012    5.8757 C   0  0  1  0  0  0  0  0  0  0  0  0
   -1.2005   92.9546    4.4876 O   0  0  0  0  0  0  0  0  0  0  0  0
   -1.1524   91.9467    6.7007 C   0  0  2  0  0  0  0  0  0  0  0  0
   -2.0383   90.9032    6.2957 O   0  0  0  0  0  0  0  0  0  0  0  0
   -1.4217   92.2535    8.1746 C   0  0  2  0  0  0  0  0  0  0  0  0
   -0.6129   93.3656    8.5889 O   0  0  0  0  0  0  0  0  0  0  0  0
   -1.1261   91.0067    9.0123 C   0  0  0  0  0  0  0  0  0  0  0  0
   -1.6409   91.1584   10.3815 N   0  0  0  0  0  0  0  0  0  0  0  0
   -4.0338   97.7318   10.5828 C   0  0  2  0  0  0  0  0  0  0  0  0
   -4.6152   98.4820   11.7063 N   0  0  0  0  0  0  0  0  0  0  0  0
   -4.6909   96.3566   10.4492 C   0  0  0  0  0  0  0  0  0  0  0  0
   -4.1409   95.6804    9.1893 C   0  0  2  0  0  0  0  0  0  0  0  0
   -4.6926   94.3216    9.0875 N   0  0  0  0  0  0  0  0  0  0  0  0
   -2.6139   95.5645    9.2074 C   0  0  2  0  0  0  0  0  0  0  0  0
   -1.8824   96.8513    9.5729 C   0  0  2  0  0  0  0  0  0  0  0  0
   -0.5450   96.4510    9.9124 O   0  0  0  0  0  0  0  0  0  0  0  0
   -2.5263   97.5515   10.7769 C   0  0  1  0  0  0  0  0  0  0  0  0
   -1.9529   98.8458   10.9798 O   0  0  0  0  0  0  0  0  0  0  0  0
   -0.4152   95.6582   11.1036 C   0  0  1  0  0  0  0  0  0  0  0  0
    1.0509   95.2383   11.2213 C   0  0  2  0  0  0  0  0  0  0  0  0
    1.2832   94.0744   10.4244 O   0  0  0  0  0  0  0  0  0  0  0  0
    1.0673   94.8563   12.6986 C   0  0  1  0  0  0  0  0  0  0  0  0
    0.3173   96.0367   13.2956 C   0  0  2  0  0  0  0  0  0  0  0  0
   -0.6779   96.3956   12.3150 O   0  0  0  0  0  0  0  0  0  0  0  0
    1.3054   97.1807   13.5511 C   0  0  0  0  0  0  0  0  0  0  0  0
    2.2246   96.8281   14.5890 O   0  0  0  0  0  0  0  0  0  0  0  0
    0.6001   93.1193   14.2029 C   0  0  2  0  0  0  0  0  0  0  0  0
    0.3193   93.6462   12.8972 O   0  0  0  0  0  0  0  0  0  0  0  0
    1.9689   92.4313   14.1944 C   0  0  1  0  0  0  0  0  0  0  0  0
   -2.6729   91.5527   16.2055 N   0  0  0  0  0  0  0  0  0  0  0  0
    2.2448   91.7731   15.5506 C   0  0  1  0  0  0  0  0  0  0  0  0
    2.4224   92.7719   16.5601 O   0  0  0  0  0  0  0  0  0  0  0  0
    1.0796   90.8541   15.9276 C   0  0  2  0  0  0  0  0  0  0  0  0
    1.0281   89.7747   14.9886 O   0  0  0  0  0  0  0  0  0  0  0  0
   -0.2317   91.6462   15.8901 C   0  0  1  0  0  0  0  0  0  0  0  0
   -0.4363   92.1936   14.5743 O   0  0  0  0  0  0  0  0  0  0  0  0
   -1.4279   90.7742   16.2810 C   0  0  0  0  0  0  0  0  0  0  0  0
    1.9639   91.3837   13.1621 N   0  0  0  0  0  0  0  0  0  0  0  0
  1  2  1  6  0  0  0
  1  3  1  0  0  0  0
  1 10  1  0  0  0  0
  3  4  1  6  0  0  0
  3  5  1  0  0  0  0
  5  6  1  6  0  0  0
  5  7  1  0  0  0  0
  7  8  1  6  0  0  0
  7  9  1  0  0  0  0
  9 10  1  0  0  0  0
  9 11  1  1  0  0  0
 11 12  1  0  0  0  0
 13 14  1  1  0  0  0
 13 15  1  0  0  0  0
 13 21  1  0  0  0  0
 16 15  1  0  0  0  0
 16 17  1  1  0  0  0
 18  2  1  6  0  0  0
 18 16  1  0  0  0  0
 19 18  1  0  0  0  0
 19 20  1  1  0  0  0
 21 19  1  0  0  0  0
 21 22  1  6  0  0  0
 23 20  1  6  0  0  0
 23 24  1  0  0  0  0
 23 28  1  0  0  0  0
 24 25  1  6  0  0  0
 24 26  1  0  0  0  0
 26 27  1  0  0  0  0
 26 32  1  6  0  0  0
 27 28  1  0  0  0  0
 27 29  1  6  0  0  0
 29 30  1  0  0  0  0
 31 32  1  6  0  0  0
 31 40  1  0  0  0  0
 33 31  1  0  0  0  0
 33 42  1  6  0  0  0
 35 33  1  0  0  0  0
 35 36  1  1  0  0  0
 37 35  1  0  0  0  0
 37 38  1  6  0  0  0
 37 39  1  0  0  0  0
 39 40  1  0  0  0  0
 39 41  1  6  0  0  0
 41 34  1  0  0  0  0
M  END
>  <CHROM.1>
-168.56771119,-167.77851900,-167.57860324,-66.94023583,175.19245519,166.20582021
-67.53081252,-77.05468459,-178.69190636,-0.78206448,94.09796206,11.15747841
-2.64147045,-1.16644118,0.82940854

>  <Name>
2fcy_lig

>  <RI>
2.32494e+07

>  <Rbt.Current_Directory>
/home/itssahil/PROJECTS/Mol_Feturizer/New_Systems/rnas/2fcy

>  <Rbt.Executable>
rbdock ($Id: //depot/dev/client3/rdock/2013.1/src/exe/rbdock.cxx#4 $)

>  <Rbt.Library>
libRbt.so (2013.1, Build901 2013/11/27)

>  <Rbt.Parameter_File>
/export/apps/rDock/src/rDock_2013.1_src/data/scripts/dock_solv.prm

>  <Rbt.Receptor>
prm/pocket_docking_8.prm

>  <SCORE>
-11.9025

>  <SCORE.INTER>
-6.63141

>  <SCORE.INTER.CONST>
1

>  <SCORE.INTER.POLAR>
-1.16757

>  <SCORE.INTER.ROT>
9

>  <SCORE.INTER.SOLV>
18.9068

>  <SCORE.INTER.VDW>
-16.4313

>  <SCORE.INTER.norm>
-0.157891

>  <SCORE.INTRA>
-5.29288

>  <SCORE.INTRA.DIHEDRAL>
-12.1149

>  <SCORE.INTRA.DIHEDRAL.0>
17.3446

>  <SCORE.INTRA.POLAR>
0

>  <SCORE.INTRA.POLAR.0>
0

>  <SCORE.INTRA.REPUL>
0

>  <SCORE.INTRA.REPUL.0>
0

>  <SCORE.INTRA.SOLV>
-4.15201

>  <SCORE.INTRA.SOLV.lig_0>
-112.452

>  <SCORE.INTRA.VDW>
2.84058

>  <SCORE.INTRA.VDW.0>
-5.95059

>  <SCORE.INTRA.norm>
-0.126021

>  <SCORE.RESTR>
0.0218248

>  <SCORE.RESTR.CAVITY>
0.0218248

>  <SCORE.RESTR.norm>
0.000519637

>  <SCORE.SYSTEM>
0

>  <SCORE.SYSTEM.CONST>
0

>  <SCORE.SYSTEM.DIHEDRAL>
0

>  <SCORE.SYSTEM.SOLV>
0

>  <SCORE.SYSTEM.norm>
0

>  <SCORE.heavy>
42

>  <SCORE.norm>
-0.283392

>  <RMSD>
8.578

$$$$
2fcy_lig
 OpenBabel11021811433D
libRbt.so/2013.1/901 2013/11/27
 42 45  0  0  0  0  0  0  0  0999 V2000
   -1.2484   89.2472    9.4730 C   0  0  2  0  0  0  0  0  0  0  0  0
   -0.6815   89.6254    8.2070 O   0  0  0  0  0  0  0  0  0  0  0  0
   -0.5053   87.9767    9.8888 C   0  0  2  0  0  0  0  0  0  0  0  0
    0.9381   88.2509    9.8800 N   0  0  0  0  0  0  0  0  0  0  0  0
   -0.8159   86.8537    8.8960 C   0  0  1  0  0  0  0  0  0  0  0  0
   -0.1345   85.6521    9.2669 O   0  0  0  0  0  0  0  0  0  0  0  0
   -2.3264   86.6207    8.8506 C   0  0  2  0  0  0  0  0  0  0  0  0
   -2.6215   85.6414    7.8548 O   0  0  0  0  0  0  0  0  0  0  0  0
   -3.0145   87.9270    8.4513 C   0  0  2  0  0  0  0  0  0  0  0  0
   -2.6591   88.9608    9.3826 O   0  0  0  0  0  0  0  0  0  0  0  0
   -4.5292   87.7085    8.4122 C   0  0  0  0  0  0  0  0  0  0  0  0
   -5.2299   88.9461    8.0379 N   0  0  0  0  0  0  0  0  0  0  0  0
    0.3762   93.3242    6.5199 C   0  0  2  0  0  0  0  0  0  0  0  0
    0.4797   94.6924    5.9904 N   0  0  0  0  0  0  0  0  0  0  0  0
   -0.7545   92.5583    5.8301 C   0  0  0  0  0  0  0  0  0  0  0  0
   -0.7266   91.1088    6.3254 C   0  0  2  0  0  0  0  0  0  0  0  0
   -1.8588   90.3747    5.7423 N   0  0  0  0  0  0  0  0  0  0  0  0
   -0.8405   91.0097    7.8494 C   0  0  2  0  0  0  0  0  0  0  0  0
    0.0991   91.9312    8.6191 C   0  0  2  0  0  0  0  0  0  0  0  0
   -0.4199   91.9795    9.9579 O   0  0  0  0  0  0  0  0  0  0  0  0
    0.1198   93.3474    8.0287 C   0  0  1  0  0  0  0  0  0  0  0  0
    1.1462   94.1371    8.6353 O   0  0  0  0  0  0  0  0  0  0  0  0
    0.3925   92.6762   10.9166 C   0  0  1  0  0  0  0  0  0  0  0  0
   -0.5478   93.3309   11.9298 C   0  0  2  0  0  0  0  0  0  0  0  0
   -1.0113   94.5823   11.4170 O   0  0  0  0  0  0  0  0  0  0  0  0
    0.4547   93.5799   13.0529 C   0  0  1  0  0  0  0  0  0  0  0  0
    1.1738   92.2405   13.0809 C   0  0  2  0  0  0  0  0  0  0  0  0
    1.2234   91.8020   11.7076 O   0  0  0  0  0  0  0  0  0  0  0  0
    0.3845   91.2663   13.9630 C   0  0  0  0  0  0  0  0  0  0  0  0
    0.3112   91.7518   15.3067 O   0  0  0  0  0  0  0  0  0  0  0  0
    1.4590   95.5893   13.7255 C   0  0  2  0  0  0  0  0  0  0  0  0
    1.3672   94.6210   12.6694 O   0  0  0  0  0  0  0  0  0  0  0  0
    2.3110   96.7748   13.2610 C   0  0  1  0  0  0  0  0  0  0  0  0
    2.5163   95.9929   18.4302 N   0  0  0  0  0  0  0  0  0  0  0  0
    2.5071   97.7736   14.4067 C   0  0  1  0  0  0  0  0  0  0  0  0
    1.2661   98.4097   14.7285 O   0  0  0  0  0  0  0  0  0  0  0  0
    3.0545   97.0482   15.6390 C   0  0  2  0  0  0  0  0  0  0  0  0
    4.3660   96.5606   15.3358 O   0  0  0  0  0  0  0  0  0  0  0  0
    2.1301   95.8805   15.9999 C   0  0  1  0  0  0  0  0  0  0  0  0
    2.0344   94.9697   14.8891 O   0  0  0  0  0  0  0  0  0  0  0  0
    2.6245   95.1338   17.2419 C   0  0  0  0  0  0  0  0  0  0  0  0
    3.6315   96.2744   12.8500 N   0  0  0  0  0  0  0  0  0  0  0  0
  1  2  1  6  0  0  0
  1  3  1  0  0  0  0
  1 10  1  0  0  0  0
  3  4  1  6  0  0  0
  3  5  1  0  0  0  0
  5  6  1  1  0  0  0
  5  7  1  0  0  0  0
  7  8  1  6  0  0  0
  7  9  1  0  0  0  0
  9 10  1  0  0  0  0
  9 11  1  1  0  0  0
 11 12  1  0  0  0  0
 13 14  1  6  0  0  0
 13 15  1  0  0  0  0
 13 21  1  0  0  0  0
 16 15  1  0  0  0  0
 16 17  1  6  0  0  0
 18  2  1  1  0  0  0
 18 16  1  0  0  0  0
 19 18  1  0  0  0  0
 19 20  1  1  0  0  0
 21 19  1  0  0  0  0
 21 22  1  1  0  0  0
 23 20  1  6  0  0  0
 23 24  1  0  0  0  0
 23 28  1  0  0  0  0
 24 25  1  6  0  0  0
 24 26  1  0  0  0  0
 26 27  1  0  0  0  0
 26 32  1  6  0  0  0
 27 28  1  0  0  0  0
 27 29  1  1  0  0  0
 29 30  1  0  0  0  0
 31 32  1  6  0  0  0
 31 40  1  0  0  0  0
 33 31  1  0  0  0  0
 33 42  1  1  0  0  0
 35 33  1  0  0  0  0
 35 36  1  1  0  0  0
 37 35  1  0  0  0  0
 37 38  1  6  0  0  0
 37 39  1  0  0  0  0
 39 40  1  0  0  0  0
 39 41  1  1  0  0  0
 41 34  1  0  0  0  0
M  END
>  <CHROM.1>
-157.82683823,179.71052245,-157.07363162,173.28762327,147.30169558,130.88021966
-61.61679642,-173.92700392,67.19353832,0.15872353,92.23692823,10.99638173
2.94328211,-1.17589282,-1.03557133

>  <Name>
2fcy_lig

>  <RI>
2.89127e+07

>  <Rbt.Current_Directory>
/home/itssahil/PROJECTS/Mol_Feturizer/New_Systems/rnas/2fcy

>  <Rbt.Executable>
rbdock ($Id: //depot/dev/client3/rdock/2013.1/src/exe/rbdock.cxx#4 $)

>  <Rbt.Library>
libRbt.so (2013.1, Build901 2013/11/27)

>  <Rbt.Parameter_File>
/export/apps/rDock/src/rDock_2013.1_src/data/scripts/dock_solv.prm

>  <Rbt.Receptor>
prm/pocket_docking_7.prm

>  <SCORE>
-18.0747

>  <SCORE.INTER>
-16.7148

>  <SCORE.INTER.CONST>
1

>  <SCORE.INTER.POLAR>
-2.41985

>  <SCORE.INTER.ROT>
9

>  <SCORE.INTER.SOLV>
21.4187

>  <SCORE.INTER.VDW>
-19.8166

>  <SCORE.INTER.norm>
-0.397971

>  <SCORE.INTRA>
-1.35996

>  <SCORE.INTRA.DIHEDRAL>
-1.73013

>  <SCORE.INTRA.DIHEDRAL.0>
17.3446

>  <SCORE.INTRA.POLAR>
0

>  <SCORE.INTRA.POLAR.0>
0

>  <SCORE.INTRA.REPUL>
0.0188572

>  <SCORE.INTRA.REPUL.0>
0

>  <SCORE.INTRA.SOLV>
-4.29303

>  <SCORE.INTRA.SOLV.lig_0>
-112.452

>  <SCORE.INTRA.VDW>
1.55734

>  <SCORE.INTRA.VDW.0>
-5.95059

>  <SCORE.INTRA.norm>
-0.03238

>  <SCORE.RESTR>
0

>  <SCORE.RESTR.CAVITY>
0

>  <SCORE.RESTR.norm>
0

>  <SCORE.SYSTEM>
0

>  <SCORE.SYSTEM.CONST>
0

>  <SCORE.SYSTEM.DIHEDRAL>
0

>  <SCORE.SYSTEM.SOLV>
0

>  <SCORE.SYSTEM.norm>
0

>  <SCORE.heavy>
42

>  <SCORE.norm>
-0.430351

>  <RMSD>
8.582

$$$$
2fcy_lig
 OpenBabel11021811433D
libRbt.so/2013.1/901 2013/11/27
 42 45  0  0  0  0  0  0  0  0999 V2000
   -3.5762   91.8268    9.7637 C   0  0  2  0  0  0  0  0  0  0  0  0
   -3.5766   90.3919    9.8542 O   0  0  0  0  0  0  0  0  0  0  0  0
   -4.8349   92.2819   10.5037 C   0  0  2  0  0  0  0  0  0  0  0  0
   -4.8142   91.7173   11.8599 N   0  0  0  0  0  0  0  0  0  0  0  0
   -6.0755   91.7783    9.7618 C   0  0  1  0  0  0  0  0  0  0  0  0
   -7.2671   92.1957   10.4337 O   0  0  0  0  0  0  0  0  0  0  0  0
   -6.0569   92.3057    8.3267 C   0  0  2  0  0  0  0  0  0  0  0  0
   -7.1623   91.7569    7.6095 O   0  0  0  0  0  0  0  0  0  0  0  0
   -4.7694   91.8377    7.6466 C   0  0  2  0  0  0  0  0  0  0  0  0
   -3.6352   92.2938    8.4003 O   0  0  0  0  0  0  0  0  0  0  0  0
   -4.7347   92.3686    6.2110 C   0  0  0  0  0  0  0  0  0  0  0  0
   -4.6853   93.8382    6.1945 N   0  0  0  0  0  0  0  0  0  0  0  0
   -0.2297   87.8702    9.5606 C   0  0  2  0  0  0  0  0  0  0  0  0
    0.9226   87.0394    9.1801 N   0  0  0  0  0  0  0  0  0  0  0  0
   -1.4945   87.4127    8.8312 C   0  0  0  0  0  0  0  0  0  0  0  0
   -2.6789   88.2243    9.3657 C   0  0  2  0  0  0  0  0  0  0  0  0
   -3.8916   87.8634    8.6174 N   0  0  0  0  0  0  0  0  0  0  0  0
   -2.4686   89.7337    9.2149 C   0  0  2  0  0  0  0  0  0  0  0  0
   -1.1167   90.2401    9.7053 C   0  0  2  0  0  0  0  0  0  0  0  0
   -0.9655   91.5496    9.1342 O   0  0  0  0  0  0  0  0  0  0  0  0
    0.0344   89.3419    9.2334 C   0  0  1  0  0  0  0  0  0  0  0  0
    1.2632   89.7166    9.8617 O   0  0  0  0  0  0  0  0  0  0  0  0
   -0.2411   92.4985    9.9337 C   0  0  1  0  0  0  0  0  0  0  0  0
    0.4224   93.4941    8.9807 C   0  0  2  0  0  0  0  0  0  0  0  0
    1.6582   92.9546    8.5058 O   0  0  0  0  0  0  0  0  0  0  0  0
    0.7048   94.6171    9.9745 C   0  0  1  0  0  0  0  0  0  0  0  0
   -0.6256   94.6748   10.7087 C   0  0  2  0  0  0  0  0  0  0  0  0
   -1.0902   93.3106   10.7703 O   0  0  0  0  0  0  0  0  0  0  0  0
   -1.5914   95.5718    9.9259 C   0  0  0  0  0  0  0  0  0  0  0  0
   -1.0461   96.8857    9.7750 O   0  0  0  0  0  0  0  0  0  0  0  0
    2.5003   95.3728   11.2797 C   0  0  2  0  0  0  0  0  0  0  0  0
    1.7485   94.2178   10.8771 O   0  0  0  0  0  0  0  0  0  0  0  0
    3.4718   94.9871   12.3998 C   0  0  1  0  0  0  0  0  0  0  0  0
    1.9352  100.0024   12.5410 N   0  0  0  0  0  0  0  0  0  0  0  0
    4.2125   96.2257   12.9151 C   0  0  1  0  0  0  0  0  0  0  0  0
    5.1020   96.7254   11.9114 O   0  0  0  0  0  0  0  0  0  0  0  0
    3.2030   97.3101   13.3017 C   0  0  2  0  0  0  0  0  0  0  0  0
    2.4340   96.8412   14.4145 O   0  0  0  0  0  0  0  0  0  0  0  0
    2.2821   97.6017   12.1121 C   0  0  1  0  0  0  0  0  0  0  0  0
    1.5940   96.3998   11.7188 O   0  0  0  0  0  0  0  0  0  0  0  0
    1.2650   98.6975   12.4424 C   0  0  0  0  0  0  0  0  0  0  0  0
    2.7032   94.4091   13.5126 N   0  0  0  0  0  0  0  0  0  0  0  0
  1  2  1  6  0  0  0
  1  3  1  0  0  0  0
  1 10  1  0  0  0  0
  3  4  1  1  0  0  0
  3  5  1  0  0  0  0
  5  6  1  1  0  0  0
  5  7  1  0  0  0  0
  7  8  1  6  0  0  0
  7  9  1  0  0  0  0
  9 10  1  0  0  0  0
  9 11  1  6  0  0  0
 11 12  1  0  0  0  0
 13 14  1  6  0  0  0
 13 15  1  0  0  0  0
 13 21  1  0  0  0  0
 16 15  1  0  0  0  0
 16 17  1  6  0  0  0
 18  2  1  1  0  0  0
 18 16  1  0  0  0  0
 19 18  1  0  0  0  0
 19 20  1  6  0  0  0
 21 19  1  0  0  0  0
 21 22  1  1  0  0  0
 23 20  1  6  0  0  0
 23 24  1  0  0  0  0
 23 28  1  0  0  0  0
 24 25  1  1  0  0  0
 24 26  1  0  0  0  0
 26 27  1  0  0  0  0
 26 32  1  1  0  0  0
 27 28  1  0  0  0  0
 27 29  1  6  0  0  0
 29 30  1  0  0  0  0
 31 32  1  1  0  0  0
 31 40  1  0  0  0  0
 33 31  1  0  0  0  0
 33 42  1  1  0  0  0
 35 33  1  0  0  0  0
 35 36  1  6  0  0  0
 37 35  1  0  0  0  0
 37 38  1  1  0  0  0
 37 39  1  0  0  0  0
 39 40  1  0  0  0  0
 39 41  1  1  0  0  0
 41 34  1  0  0  0  0
M  END
>  <CHROM.1>
179.84268488,63.69674136,-177.55081931,147.13538389,151.61375969,148.78206099
-58.34766687,171.44124242,70.94963108,-0.97894626,93.03787625,10.17408107
2.36823619,0.28870322,-2.91306252

>  <Name>
2fcy_lig

>  <RI>
0

>  <Rbt.Current_Directory>
/home/itssahil/PROJECTS/Mol_Feturizer/New_Systems/rnas/2fcy

>  <Rbt.Executable>
rbdock ($Id: //depot/dev/client3/rdock/2013.1/src/exe/rbdock.cxx#4 $)

>  <Rbt.Library>
libRbt.so (2013.1, Build901 2013/11/27)

>  <Rbt.Parameter_File>
/export/apps/rDock/src/rDock_2013.1_src/data/scripts/dock_solv.prm

>  <Rbt.Receptor>
prm/pocket_docking_5.prm

>  <SCORE>
-11.2717

>  <SCORE.INTER>
-8.84954

>  <SCORE.INTER.CONST>
1

>  <SCORE.INTER.POLAR>
-2.48101

>  <SCORE.INTER.ROT>
9

>  <SCORE.INTER.SOLV>
14.2615

>  <SCORE.INTER.VDW>
-11.9835

>  <SCORE.INTER.norm>
-0.210703

>  <SCORE.INTRA>
-2.42698

>  <SCORE.INTRA.DIHEDRAL>
-5.00013

>  <SCORE.INTRA.DIHEDRAL.0>
17.3446

>  <SCORE.INTRA.POLAR>
0

>  <SCORE.INTRA.POLAR.0>
0

>  <SCORE.INTRA.REPUL>
0

>  <SCORE.INTRA.REPUL.0>
0

>  <SCORE.INTRA.SOLV>
-3.6243

>  <SCORE.INTRA.SOLV.lig_0>
-112.452

>  <SCORE.INTRA.VDW>
1.88523

>  <SCORE.INTRA.VDW.0>
-5.95059

>  <SCORE.INTRA.norm>
-0.0577852

>  <SCORE.RESTR>
0.0047913

>  <SCORE.RESTR.CAVITY>
0.0047913

>  <SCORE.RESTR.norm>
0.000114079

>  <SCORE.SYSTEM>
0

>  <SCORE.SYSTEM.CONST>
0

>  <SCORE.SYSTEM.DIHEDRAL>
0

>  <SCORE.SYSTEM.SOLV>
0

>  <SCORE.SYSTEM.norm>
0

>  <SCORE.heavy>
42

>  <SCORE.norm>
-0.268374

>  <RMSD>
8.595

$$$$
2fcy_lig
 OpenBabel11021811433D
libRbt.so/2013.1/901 2013/11/27
 42 45  0  0  0  0  0  0  0  0999 V2000
   -2.7483   93.3877    8.0061 C   0  0  2  0  0  0  0  0  0  0  0  0
   -1.4118   93.8750    8.2145 O   0  0  0  0  0  0  0  0  0  0  0  0
   -3.4357   94.4425    7.1379 C   0  0  2  0  0  0  0  0  0  0  0  0
   -2.6277   94.6576    5.9297 N   0  0  0  0  0  0  0  0  0  0  0  0
   -3.5450   95.7555    7.9172 C   0  0  1  0  0  0  0  0  0  0  0  0
   -4.1894   96.7577    7.1260 O   0  0  0  0  0  0  0  0  0  0  0  0
   -4.3220   95.5133    9.2117 C   0  0  2  0  0  0  0  0  0  0  0  0
   -4.3393   96.7152    9.9817 O   0  0  0  0  0  0  0  0  0  0  0  0
   -3.6007   94.4377   10.0253 C   0  0  2  0  0  0  0  0  0  0  0  0
   -3.4810   93.2414    9.2399 O   0  0  0  0  0  0  0  0  0  0  0  0
   -4.3755   94.1793   11.3202 C   0  0  0  0  0  0  0  0  0  0  0  0
   -4.2806   95.3315   12.2291 N   0  0  0  0  0  0  0  0  0  0  0  0
    0.0175   90.0627    9.2488 C   0  0  2  0  0  0  0  0  0  0  0  0
    0.7653   88.8609    9.6480 N   0  0  0  0  0  0  0  0  0  0  0  0
    0.6646   90.7266    8.0318 C   0  0  0  0  0  0  0  0  0  0  0  0
   -0.2288   91.8882    7.5850 C   0  0  2  0  0  0  0  0  0  0  0  0
    0.4168   92.5962    6.4701 N   0  0  0  0  0  0  0  0  0  0  0  0
   -0.4711   92.9036    8.7055 C   0  0  2  0  0  0  0  0  0  0  0  0
   -0.8923   92.2930   10.0375 C   0  0  2  0  0  0  0  0  0  0  0  0
   -0.6877   93.3247   11.0162 O   0  0  0  0  0  0  0  0  0  0  0  0
   -0.0392   91.0701   10.3998 C   0  0  1  0  0  0  0  0  0  0  0  0
   -0.5723   90.3982   11.5442 O   0  0  0  0  0  0  0  0  0  0  0  0
    0.6107   93.9397   11.0114 C   0  0  1  0  0  0  0  0  0  0  0  0
    0.6152   95.0176   12.0966 C   0  0  2  0  0  0  0  0  0  0  0  0
    0.0454   96.2226   11.5798 O   0  0  0  0  0  0  0  0  0  0  0  0
    2.1236   95.1910   12.2483 C   0  0  1  0  0  0  0  0  0  0  0  0
    2.5647   93.7364   12.2863 C   0  0  2  0  0  0  0  0  0  0  0  0
    1.6727   93.0407   11.3913 O   0  0  0  0  0  0  0  0  0  0  0  0
    2.4513   93.2158   13.7238 C   0  0  0  0  0  0  0  0  0  0  0  0
    3.3426   93.9271   14.5875 O   0  0  0  0  0  0  0  0  0  0  0  0
    2.4378   97.2533   11.1773 C   0  0  2  0  0  0  0  0  0  0  0  0
    2.6593   95.8378   11.0829 O   0  0  0  0  0  0  0  0  0  0  0  0
    2.8650   97.9272    9.8695 C   0  0  1  0  0  0  0  0  0  0  0  0
    3.4151  101.0910   13.9708 N   0  0  0  0  0  0  0  0  0  0  0  0
    2.7327   99.4496    9.9845 C   0  0  1  0  0  0  0  0  0  0  0  0
    1.3538   99.8227   10.0725 O   0  0  0  0  0  0  0  0  0  0  0  0
    3.4850   99.9434   11.2233 C   0  0  2  0  0  0  0  0  0  0  0  0
    4.8831   99.7001   11.0347 O   0  0  0  0  0  0  0  0  0  0  0  0
    2.9834   99.1928   12.4615 C   0  0  1  0  0  0  0  0  0  0  0  0
    3.1827   97.7772   12.2907 O   0  0  0  0  0  0  0  0  0  0  0  0
    3.6923   99.6667   13.7332 C   0  0  0  0  0  0  0  0  0  0  0  0
    4.2757   97.6018    9.6101 N   0  0  0  0  0  0  0  0  0  0  0  0
  1  2  1  1  0  0  0
  1  3  1  0  0  0  0
  1 10  1  0  0  0  0
  3  4  1  6  0  0  0
  3  5  1  0  0  0  0
  5  6  1  6  0  0  0
  5  7  1  0  0  0  0
  7  8  1  1  0  0  0
  7  9  1  0  0  0  0
  9 10  1  0  0  0  0
  9 11  1  1  0  0  0
 11 12  1  0  0  0  0
 13 14  1  1  0  0  0
 13 15  1  0  0  0  0
 13 21  1  0  0  0  0
 16 15  1  0  0  0  0
 16 17  1  6  0  0  0
 18  2  1  6  0  0  0
 18 16  1  0  0  0  0
 19 18  1  0  0  0  0
 19 20  1  1  0  0  0
 21 19  1  0  0  0  0
 21 22  1  1  0  0  0
 23 20  1  1  0  0  0
 23 24  1  0  0  0  0
 23 28  1  0  0  0  0
 24 25  1  6  0  0  0
 24 26  1  0  0  0  0
 26 27  1  0  0  0  0
 26 32  1  6  0  0  0
 27 28  1  0  0  0  0
 27 29  1  1  0  0  0
 29 30  1  0  0  0  0
 31 32  1  6  0  0  0
 31 40  1  0  0  0  0
 33 31  1  0  0  0  0
 33 42  1  1  0  0  0
 35 33  1  0  0  0  0
 35 36  1  1  0  0  0
 37 35  1  0  0  0  0
 37 38  1  6  0  0  0
 37 39  1  0  0  0  0
 39 40  1  0  0  0  0
 39 41  1  1  0  0  0
 41 34  1  0  0  0  0
M  END
>  <CHROM.1>
-164.50185742,-69.42359284,68.71078007,-51.49966855,178.92536779,80.47127460
-63.51356930,-173.70023881,61.97636578,0.19474299,95.06785512,10.37000420
2.40191719,0.52166140,-3.13255599

>  <Name>
2fcy_lig

>  <RI>
224

>  <Rbt.Current_Directory>
/home/itssahil/PROJECTS/Mol_Feturizer/New_Systems/rnas/2fcy

>  <Rbt.Executable>
rbdock ($Id: //depot/dev/client3/rdock/2013.1/src/exe/rbdock.cxx#4 $)

>  <Rbt.Library>
libRbt.so (2013.1, Build901 2013/11/27)

>  <Rbt.Parameter_File>
/export/apps/rDock/src/rDock_2013.1_src/data/scripts/dock_solv.prm

>  <Rbt.Receptor>
prm/pocket_docking_6.prm

>  <SCORE>
-6.07639

>  <SCORE.INTER>
-3.25778

>  <SCORE.INTER.CONST>
1

>  <SCORE.INTER.POLAR>
-0.959166

>  <SCORE.INTER.ROT>
9

>  <SCORE.INTER.SOLV>
17.1206

>  <SCORE.INTER.VDW>
-14.2815

>  <SCORE.INTER.norm>
-0.0775661

>  <SCORE.INTRA>
-2.81862

>  <SCORE.INTRA.DIHEDRAL>
-12.5871

>  <SCORE.INTRA.DIHEDRAL.0>
17.3446

>  <SCORE.INTRA.POLAR>
0

>  <SCORE.INTRA.POLAR.0>
0

>  <SCORE.INTRA.REPUL>
0

>  <SCORE.INTRA.REPUL.0>
0

>  <SCORE.INTRA.SOLV>
-2.68712

>  <SCORE.INTRA.SOLV.lig_0>
-112.452

>  <SCORE.INTRA.VDW>
4.81847

>  <SCORE.INTRA.VDW.0>
-5.95059

>  <SCORE.INTRA.norm>
-0.0671099

>  <SCORE.RESTR>
0

>  <SCORE.RESTR.CAVITY>
0

>  <SCORE.RESTR.norm>
0

>  <SCORE.SYSTEM>
0

>  <SCORE.SYSTEM.CONST>
0

>  <SCORE.SYSTEM.DIHEDRAL>
0

>  <SCORE.SYSTEM.SOLV>
0

>  <SCORE.SYSTEM.norm>
0

>  <SCORE.heavy>
42

>  <SCORE.norm>
-0.144676

>  <RMSD>
8.597

$$$$
2fcy_lig
 OpenBabel11021811433D
libRbt.so/2013.1/901 2013/11/27
 42 45  0  0  0  0  0  0  0  0999 V2000
    0.8823   90.2066   15.7006 C   0  0  2  0  0  0  0  0  0  0  0  0
    1.3648   91.5035   16.0909 O   0  0  0  0  0  0  0  0  0  0  0  0
   -0.6430   90.3171   15.7184 C   0  0  2  0  0  0  0  0  0  0  0  0
   -1.0438   91.4429   14.8636 N   0  0  0  0  0  0  0  0  0  0  0  0
   -1.1215   90.5701   17.1503 C   0  0  1  0  0  0  0  0  0  0  0  0
   -2.5474   90.6731   17.1931 O   0  0  0  0  0  0  0  0  0  0  0  0
   -0.6390   89.4349   18.0539 C   0  0  2  0  0  0  0  0  0  0  0  0
   -1.0030   89.7215   19.4041 O   0  0  0  0  0  0  0  0  0  0  0  0
    0.8867   89.3599   17.9786 C   0  0  2  0  0  0  0  0  0  0  0  0
    1.2910   89.1678   16.6140 O   0  0  0  0  0  0  0  0  0  0  0  0
    1.3811   88.2195   18.8723 C   0  0  0  0  0  0  0  0  0  0  0  0
    0.3412   87.1933   19.0396 N   0  0  0  0  0  0  0  0  0  0  0  0
    4.2461   90.0244   18.7662 C   0  0  2  0  0  0  0  0  0  0  0  0
    5.4094   89.7274   19.6155 N   0  0  0  0  0  0  0  0  0  0  0  0
    4.6494   90.0796   17.2914 C   0  0  0  0  0  0  0  0  0  0  0  0
    3.3807   90.2588   16.4515 C   0  0  2  0  0  0  0  0  0  0  0  0
    3.7517   90.4022   15.0363 N   0  0  0  0  0  0  0  0  0  0  0  0
    2.5842   91.5033   16.8542 C   0  0  2  0  0  0  0  0  0  0  0  0
    2.3441   91.6479   18.3528 C   0  0  2  0  0  0  0  0  0  0  0  0
    1.9509   93.0157   18.5498 O   0  0  0  0  0  0  0  0  0  0  0  0
    3.6141   91.3604   19.1645 C   0  0  1  0  0  0  0  0  0  0  0  0
    3.3232   91.3075   20.5637 O   0  0  0  0  0  0  0  0  0  0  0  0
    2.7568   93.9985   17.8798 C   0  0  1  0  0  0  0  0  0  0  0  0
    1.8177   94.8841   17.0591 C   0  0  2  0  0  0  0  0  0  0  0  0
    1.5416   94.2585   15.8038 O   0  0  0  0  0  0  0  0  0  0  0  0
    2.7480   96.0740   16.8421 C   0  0  1  0  0  0  0  0  0  0  0  0
    3.3066   96.2454   18.2460 C   0  0  2  0  0  0  0  0  0  0  0  0
    3.4170   94.9105   18.7814 O   0  0  0  0  0  0  0  0  0  0  0  0
    2.3436   97.1115   19.0661 C   0  0  0  0  0  0  0  0  0  0  0  0
    1.2751   96.3172   19.5895 O   0  0  0  0  0  0  0  0  0  0  0  0
    4.1069   96.8275   15.0859 C   0  0  2  0  0  0  0  0  0  0  0  0
    3.8002   95.7105   15.9343 O   0  0  0  0  0  0  0  0  0  0  0  0
    3.4713   96.6144   13.7084 C   0  0  1  0  0  0  0  0  0  0  0  0
    8.0963   97.0062   13.7789 N   0  0  0  0  0  0  0  0  0  0  0  0
    3.8703   97.7456   12.7547 C   0  0  1  0  0  0  0  0  0  0  0  0
    3.2721   98.9781   13.1688 O   0  0  0  0  0  0  0  0  0  0  0  0
    5.3945   97.8899   12.7303 C   0  0  2  0  0  0  0  0  0  0  0  0
    5.9557   96.7021   12.1613 O   0  0  0  0  0  0  0  0  0  0  0  0
    5.9145   98.0848   14.1585 C   0  0  1  0  0  0  0  0  0  0  0  0
    5.5348   96.9621   14.9759 O   0  0  0  0  0  0  0  0  0  0  0  0
    7.4359   98.2553   14.1856 C   0  0  0  0  0  0  0  0  0  0  0  0
    3.9627   95.3440   13.1535 N   0  0  0  0  0  0  0  0  0  0  0  0
  1  2  1  1  0  0  0
  1  3  1  0  0  0  0
  1 10  1  0  0  0  0
  3  4  1  6  0  0  0
  3  5  1  0  0  0  0
  5  6  1  6  0  0  0
  5  7  1  0  0  0  0
  7  8  1  1  0  0  0
  7  9  1  0  0  0  0
  9 10  1  0  0  0  0
  9 11  1  1  0  0  0
 11 12  1  0  0  0  0
 13 14  1  1  0  0  0
 13 15  1  0  0  0  0
 13 21  1  0  0  0  0
 16 15  1  0  0  0  0
 16 17  1  6  0  0  0
 18  2  1  6  0  0  0
 18 16  1  0  0  0  0
 19 18  1  0  0  0  0
 19 20  1  6  0  0  0
 21 19  1  0  0  0  0
 21 22  1  1  0  0  0
 23 20  1  1  0  0  0
 23 24  1  0  0  0  0
 23 28  1  0  0  0  0
 24 25  1  6  0  0  0
 24 26  1  0  0  0  0
 26 27  1  0  0  0  0
 26 32  1  6  0  0  0
 27 28  1  0  0  0  0
 27 29  1  1  0  0  0
 29 30  1  0  0  0  0
 31 32  1  1  0  0  0
 31 40  1  0  0  0  0
 33 31  1  0  0  0  0
 33 42  1  6  0  0  0
 35 33  1  0  0  0  0
 35 36  1  1  0  0  0
 37 35  1  0  0  0  0
 37 38  1  1  0  0  0
 37 39  1  0  0  0  0
 39 40  1  0  0  0  0
 39 41  1  6  0  0  0
 41 34  1  0  0  0  0
M  END
>  <CHROM.1>
146.35909985,25.60256741,28.23939073,-46.43707326,126.81052649,142.95409618
82.59986844,-102.22235060,-66.98072866,2.70838662,93.28433184,16.59572494
2.08174747,0.45222245,2.43436080

>  <Name>
2fcy_lig

>  <RI>
9.29634e+06

>  <Rbt.Current_Directory>
/home/itssahil/PROJECTS/Mol_Feturizer/New_Systems/rnas/2fcy

>  <Rbt.Executable>
rbdock ($Id: //depot/dev/client3/rdock/2013.1/src/exe/rbdock.cxx#4 $)

>  <Rbt.Library>
libRbt.so (2013.1, Build901 2013/11/27)

>  <Rbt.Parameter_File>
/export/apps/rDock/src/rDock_2013.1_src/data/scripts/dock_solv.prm

>  <Rbt.Receptor>
prm/blind_docking_100.prm

>  <SCORE>
31.4782

>  <SCORE.INTER>
3.69346

>  <SCORE.INTER.CONST>
1

>  <SCORE.INTER.POLAR>
-0.0994602

>  <SCORE.INTER.ROT>
9

>  <SCORE.INTER.SOLV>
29.3996

>  <SCORE.INTER.VDW>
-16.606

>  <SCORE.INTER.norm>
0.0879395

>  <SCORE.INTRA>
21.2743

>  <SCORE.INTRA.DIHEDRAL>
14.197

>  <SCORE.INTRA.DIHEDRAL.0>
17.3446

>  <SCORE.INTRA.POLAR>
0

>  <SCORE.INTRA.POLAR.0>
0

>  <SCORE.INTRA.REPUL>
0

>  <SCORE.INTRA.REPUL.0>
0

>  <SCORE.INTRA.SOLV>
1.4431

>  <SCORE.INTRA.SOLV.lig_0>
-112.452

>  <SCORE.INTRA.VDW>
13.4542

>  <SCORE.INTRA.VDW.0>
-5.95059

>  <SCORE.INTRA.norm>
0.50653

>  <SCORE.RESTR>
6.51052

>  <SCORE.RESTR.CAVITY>
6.51052

>  <SCORE.RESTR.norm>
0.155012

>  <SCORE.SYSTEM>
0

>  <SCORE.SYSTEM.CONST>
0

>  <SCORE.SYSTEM.DIHEDRAL>
0

>  <SCORE.SYSTEM.SOLV>
0

>  <SCORE.SYSTEM.norm>
0

>  <SCORE.heavy>
42

>  <SCORE.norm>
0.749482

>  <RMSD>
8.605

$$$$
2fcy_lig
 OpenBabel11021811433D
libRbt.so/2013.1/901 2013/11/27
 42 45  0  0  0  0  0  0  0  0999 V2000
   -4.1484   92.3035    8.5368 C   0  0  2  0  0  0  0  0  0  0  0  0
   -4.0302   91.0269    9.1876 O   0  0  0  0  0  0  0  0  0  0  0  0
   -5.2928   93.0216    9.2535 C   0  0  2  0  0  0  0  0  0  0  0  0
   -5.0018   93.0518   10.6934 N   0  0  0  0  0  0  0  0  0  0  0  0
   -6.6018   92.2648    9.0148 C   0  0  1  0  0  0  0  0  0  0  0  0
   -7.6891   92.9209    9.6729 O   0  0  0  0  0  0  0  0  0  0  0  0
   -6.8648   92.1688    7.5116 C   0  0  2  0  0  0  0  0  0  0  0  0
   -8.0335   91.3802    7.2881 O   0  0  0  0  0  0  0  0  0  0  0  0
   -5.6811   91.4629    6.8485 C   0  0  2  0  0  0  0  0  0  0  0  0
   -4.4713   92.1812    7.1364 O   0  0  0  0  0  0  0  0  0  0  0  0
   -5.9287   91.3697    5.3406 C   0  0  0  0  0  0  0  0  0  0  0  0
   -5.9596   92.7066    4.7288 N   0  0  0  0  0  0  0  0  0  0  0  0
   -0.5721   88.7724    9.9657 C   0  0  2  0  0  0  0  0  0  0  0  0
    0.6454   87.9474    9.9571 N   0  0  0  0  0  0  0  0  0  0  0  0
   -1.7370   88.0296    9.3082 C   0  0  0  0  0  0  0  0  0  0  0  0
   -3.0012   88.8806    9.4658 C   0  0  2  0  0  0  0  0  0  0  0  0
   -4.1163   88.2275    8.7651 N   0  0  0  0  0  0  0  0  0  0  0  0
   -2.8375   90.2848    8.8770 C   0  0  2  0  0  0  0  0  0  0  0  0
   -1.5638   91.0080    9.3003 C   0  0  2  0  0  0  0  0  0  0  0  0
   -1.4083   92.0912    8.3694 O   0  0  0  0  0  0  0  0  0  0  0  0
   -0.3356   90.0912    9.2257 C   0  0  1  0  0  0  0  0  0  0  0  0
    0.8071   90.7223    9.8098 O   0  0  0  0  0  0  0  0  0  0  0  0
   -0.6362   93.2090    8.8371 C   0  0  1  0  0  0  0  0  0  0  0  0
    0.4852   93.4512    7.8255 C   0  0  2  0  0  0  0  0  0  0  0  0
    1.5826   92.5790    8.1061 O   0  0  0  0  0  0  0  0  0  0  0  0
    0.8538   94.8780    8.2215 C   0  0  1  0  0  0  0  0  0  0  0  0
   -0.5305   95.4956    8.3423 C   0  0  2  0  0  0  0  0  0  0  0  0
   -1.3753   94.4473    8.8602 O   0  0  0  0  0  0  0  0  0  0  0  0
   -0.9907   95.9682    6.9584 C   0  0  0  0  0  0  0  0  0  0  0  0
   -1.2644   94.8490    6.1106 O   0  0  0  0  0  0  0  0  0  0  0  0
    2.1042   96.1590    9.7361 C   0  0  2  0  0  0  0  0  0  0  0  0
    1.5053   94.8753    9.5017 O   0  0  0  0  0  0  0  0  0  0  0  0
    2.9066   96.1196   11.0406 C   0  0  1  0  0  0  0  0  0  0  0  0
   -0.6803   99.0584   10.7120 N   0  0  0  0  0  0  0  0  0  0  0  0
    3.4709   97.5074   11.3632 C   0  0  1  0  0  0  0  0  0  0  0  0
    4.4749   97.8690   10.4095 O   0  0  0  0  0  0  0  0  0  0  0  0
    2.3426   98.5423   11.3481 C   0  0  2  0  0  0  0  0  0  0  0  0
    1.4378   98.2459   12.4171 O   0  0  0  0  0  0  0  0  0  0  0  0
    1.6074   98.4805   10.0049 C   0  0  1  0  0  0  0  0  0  0  0  0
    1.0728   97.1597    9.7991 O   0  0  0  0  0  0  0  0  0  0  0  0
    0.4799   99.5137    9.9319 C   0  0  0  0  0  0  0  0  0  0  0  0
    2.0095   95.7173   12.1343 N   0  0  0  0  0  0  0  0  0  0  0  0
  1  2  1  1  0  0  0
  1  3  1  0  0  0  0
  1 10  1  0  0  0  0
  3  4  1  1  0  0  0
  3  5  1  0  0  0  0
  5  6  1  1  0  0  0
  5  7  1  0  0  0  0
  7  8  1  1  0  0  0
  7  9  1  0  0  0  0
  9 10  1  0  0  0  0
  9 11  1  6  0  0  0
 11 12  1  0  0  0  0
 13 14  1  6  0  0  0
 13 15  1  0  0  0  0
 13 21  1  0  0  0  0
 16 15  1  0  0  0  0
 16 17  1  6  0  0  0
 18  2  1  1  0  0  0
 18 16  1  0  0  0  0
 19 18  1  0  0  0  0
 19 20  1  6  0  0  0
 21 19  1  0  0  0  0
 21 22  1  1  0  0  0
 23 20  1  6  0  0  0
 23 24  1  0  0  0  0
 23 28  1  0  0  0  0
 24 25  1  1  0  0  0
 24 26  1  0  0  0  0
 26 27  1  0  0  0  0
 26 32  1  1  0  0  0
 27 28  1  0  0  0  0
 27 29  1  6  0  0  0
 29 30  1  0  0  0  0
 31 32  1  1  0  0  0
 31 40  1  0  0  0  0
 33 31  1  0  0  0  0
 33 42  1  1  0  0  0
 35 33  1  0  0  0  0
 35 36  1  6  0  0  0
 37 35  1  0  0  0  0
 37 38  1  1  0  0  0
 37 39  1  0  0  0  0
 39 40  1  0  0  0  0
 39 41  1  1  0  0  0
 41 34  1  0  0  0  0
M  END
>  <CHROM.1>
-167.30081354,64.92585629,-170.70974911,155.84741808,125.29570733,167.54763639
69.80641998,-174.88379630,-76.63920732,-1.49919537,93.49763413,9.03766830
2.42699694,0.31058107,-3.12191119

>  <Name>
2fcy_lig

>  <RI>
0

>  <Rbt.Current_Directory>
/home/itssahil/PROJECTS/Mol_Feturizer/New_Systems/rnas/2fcy

>  <Rbt.Executable>
rbdock ($Id: //depot/dev/client3/rdock/2013.1/src/exe/rbdock.cxx#4 $)

>  <Rbt.Library>
libRbt.so (2013.1, Build901 2013/11/27)

>  <Rbt.Parameter_File>
/export/apps/rDock/src/rDock_2013.1_src/data/scripts/dock_solv.prm

>  <Rbt.Receptor>
prm/pocket_docking_5.prm

>  <SCORE>
-11.8778

>  <SCORE.INTER>
-11.7352

>  <SCORE.INTER.CONST>
1

>  <SCORE.INTER.POLAR>
-1.97038

>  <SCORE.INTER.ROT>
9

>  <SCORE.INTER.SOLV>
15.115

>  <SCORE.INTER.VDW>
-15.8939

>  <SCORE.INTER.norm>
-0.27941

>  <SCORE.INTRA>
-0.426052

>  <SCORE.INTRA.DIHEDRAL>
-3.93814

>  <SCORE.INTRA.DIHEDRAL.0>
17.3446

>  <SCORE.INTRA.POLAR>
0

>  <SCORE.INTRA.POLAR.0>
0

>  <SCORE.INTRA.REPUL>
0.013249

>  <SCORE.INTRA.REPUL.0>
0

>  <SCORE.INTRA.SOLV>
-1.43059

>  <SCORE.INTRA.SOLV.lig_0>
-112.452

>  <SCORE.INTRA.VDW>
2.19207

>  <SCORE.INTRA.VDW.0>
-5.95059

>  <SCORE.INTRA.norm>
-0.0101441

>  <SCORE.RESTR>
0.283467

>  <SCORE.RESTR.CAVITY>
0.283467

>  <SCORE.RESTR.norm>
0.00674923

>  <SCORE.SYSTEM>
0

>  <SCORE.SYSTEM.CONST>
0

>  <SCORE.SYSTEM.DIHEDRAL>
0

>  <SCORE.SYSTEM.SOLV>
0

>  <SCORE.SYSTEM.norm>
0

>  <SCORE.heavy>
42

>  <SCORE.norm>
-0.282805

>  <RMSD>
8.637

$$$$
2fcy_lig
 OpenBabel11021811433D
libRbt.so/2013.1/901 2013/11/27
 42 45  0  0  0  0  0  0  0  0999 V2000
   -3.6762   91.9852    8.4713 C   0  0  2  0  0  0  0  0  0  0  0  0
   -2.5758   92.8349    8.8379 O   0  0  0  0  0  0  0  0  0  0  0  0
   -4.9362   92.8000    8.7671 C   0  0  2  0  0  0  0  0  0  0  0  0
   -4.8440   94.0840    8.0590 N   0  0  0  0  0  0  0  0  0  0  0  0
   -5.0391   93.0556   10.2729 C   0  0  1  0  0  0  0  0  0  0  0  0
   -6.2138   93.8135   10.5750 O   0  0  0  0  0  0  0  0  0  0  0  0
   -5.0590   91.7182   11.0138 C   0  0  2  0  0  0  0  0  0  0  0  0
   -5.0574   91.9599   12.4206 O   0  0  0  0  0  0  0  0  0  0  0  0
   -3.7888   90.9419   10.6633 C   0  0  2  0  0  0  0  0  0  0  0  0
   -3.7114   90.7653    9.2401 O   0  0  0  0  0  0  0  0  0  0  0  0
   -3.8023   89.5956   11.3921 C   0  0  0  0  0  0  0  0  0  0  0  0
   -2.5747   88.8348   11.1147 N   0  0  0  0  0  0  0  0  0  0  0  0
    0.2745   89.9646    7.7051 C   0  0  2  0  0  0  0  0  0  0  0  0
    1.4504   89.1800    7.2995 N   0  0  0  0  0  0  0  0  0  0  0  0
   -0.0113   91.0776    6.6950 C   0  0  0  0  0  0  0  0  0  0  0  0
   -1.3165   91.7709    7.0987 C   0  0  2  0  0  0  0  0  0  0  0  0
   -1.5663   92.9011    6.1924 N   0  0  0  0  0  0  0  0  0  0  0  0
   -1.2691   92.3195    8.5277 C   0  0  2  0  0  0  0  0  0  0  0  0
   -0.7594   91.3323    9.5718 C   0  0  2  0  0  0  0  0  0  0  0  0
   -0.4253   92.1261   10.7218 O   0  0  0  0  0  0  0  0  0  0  0  0
    0.4901   90.5844    9.0879 C   0  0  1  0  0  0  0  0  0  0  0  0
    0.8346   89.5307    9.9913 O   0  0  0  0  0  0  0  0  0  0  0  0
   -0.2691   91.4035   11.9538 C   0  0  1  0  0  0  0  0  0  0  0  0
    0.3985   92.3435   12.9590 C   0  0  2  0  0  0  0  0  0  0  0  0
    1.8153   92.3221   12.7697 O   0  0  0  0  0  0  0  0  0  0  0  0
    0.0445   91.6015   14.2445 C   0  0  1  0  0  0  0  0  0  0  0  0
   -1.4227   91.2944   13.9890 C   0  0  2  0  0  0  0  0  0  0  0  0
   -1.5222   91.0453   12.5717 O   0  0  0  0  0  0  0  0  0  0  0  0
   -2.2687   92.4988   14.4176 C   0  0  0  0  0  0  0  0  0  0  0  0
   -3.6325   92.1120   14.6095 O   0  0  0  0  0  0  0  0  0  0  0  0
    1.9300   90.5725   15.1850 C   0  0  2  0  0  0  0  0  0  0  0  0
    0.7966   90.3803   14.3248 O   0  0  0  0  0  0  0  0  0  0  0  0
    2.1490   89.3153   16.0327 C   0  0  1  0  0  0  0  0  0  0  0  0
    2.4526   94.4196   16.7240 N   0  0  0  0  0  0  0  0  0  0  0  0
    3.2910   89.5356   17.0305 C   0  0  1  0  0  0  0  0  0  0  0  0
    4.5393   89.6472   16.3395 O   0  0  0  0  0  0  0  0  0  0  0  0
    3.0313   90.8068   17.8435 C   0  0  2  0  0  0  0  0  0  0  0  0
    1.8636   90.6038   18.6464 O   0  0  0  0  0  0  0  0  0  0  0  0
    2.8162   91.9891   16.8926 C   0  0  1  0  0  0  0  0  0  0  0  0
    1.7023   91.7207   16.0209 O   0  0  0  0  0  0  0  0  0  0  0  0
    2.5726   93.2917   17.6596 C   0  0  0  0  0  0  0  0  0  0  0  0
    0.9188   89.0360   16.7889 N   0  0  0  0  0  0  0  0  0  0  0  0
  1  2  1  1  0  0  0
  1  3  1  0  0  0  0
  1 10  1  0  0  0  0
  3  4  1  6  0  0  0
  3  5  1  0  0  0  0
  5  6  1  6  0  0  0
  5  7  1  0  0  0  0
  7  8  1  1  0  0  0
  7  9  1  0  0  0  0
  9 10  1  0  0  0  0
  9 11  1  1  0  0  0
 11 12  1  0  0  0  0
 13 14  1  6  0  0  0
 13 15  1  0  0  0  0
 13 21  1  0  0  0  0
 16 15  1  0  0  0  0
 16 17  1  6  0  0  0
 18  2  1  1  0  0  0
 18 16  1  0  0  0  0
 19 18  1  0  0  0  0
 19 20  1  1  0  0  0
 21 19  1  0  0  0  0
 21 22  1  1  0  0  0
 23 20  1  6  0  0  0
 23 24  1  0  0  0  0
 23 28  1  0  0  0  0
 24 25  1  6  0  0  0
 24 26  1  0  0  0  0
 26 27  1  0  0  0  0
 26 32  1  6  0  0  0
 27 28  1  0  0  0  0
 27 29  1  6  0  0  0
 29 30  1  0  0  0  0
 31 32  1  6  0  0  0
 31 40  1  0  0  0  0
 33 31  1  0  0  0  0
 33 42  1  1  0  0  0
 35 33  1  0  0  0  0
 35 36  1  6  0  0  0
 37 35  1  0  0  0  0
 37 38  1  6  0  0  0
 37 39  1  0  0  0  0
 39 40  1  0  0  0  0
 39 41  1  1  0  0  0
 41 34  1  0  0  0  0
M  END
>  <CHROM.1>
-174.45567486,-178.19006846,45.62643564,163.64056316,166.73923789,99.31249645
-161.09902426,141.15101462,176.52244148,-0.77852426,91.41177649,12.19637437
2.20059048,0.31706975,-1.67721472

>  <Name>
2fcy_lig

>  <RI>
4.13508e+07

>  <Rbt.Current_Directory>
/home/itssahil/PROJECTS/Mol_Feturizer/New_Systems/rnas/2fcy

>  <Rbt.Executable>
rbdock ($Id: //depot/dev/client3/rdock/2013.1/src/exe/rbdock.cxx#4 $)

>  <Rbt.Library>
libRbt.so (2013.1, Build901 2013/11/27)

>  <Rbt.Parameter_File>
/export/apps/rDock/src/rDock_2013.1_src/data/scripts/dock_solv.prm

>  <Rbt.Receptor>
prm/pocket_docking_3.prm

>  <SCORE>
-8.80858

>  <SCORE.INTER>
-12.0387

>  <SCORE.INTER.CONST>
1

>  <SCORE.INTER.POLAR>
-1.88651

>  <SCORE.INTER.ROT>
9

>  <SCORE.INTER.SOLV>
19.0231

>  <SCORE.INTER.VDW>
-17.6785

>  <SCORE.INTER.norm>
-0.286635

>  <SCORE.INTRA>
2.97815

>  <SCORE.INTRA.DIHEDRAL>
-2.35597

>  <SCORE.INTRA.DIHEDRAL.0>
17.3446

>  <SCORE.INTRA.POLAR>
0

>  <SCORE.INTRA.POLAR.0>
0

>  <SCORE.INTRA.REPUL>
0

>  <SCORE.INTRA.REPUL.0>
0

>  <SCORE.INTRA.SOLV>
0.832224

>  <SCORE.INTRA.SOLV.lig_0>
-112.452

>  <SCORE.INTRA.VDW>
3.74002

>  <SCORE.INTRA.VDW.0>
-5.95059

>  <SCORE.INTRA.norm>
0.0709083

>  <SCORE.RESTR>
0.251961

>  <SCORE.RESTR.CAVITY>
0.251961

>  <SCORE.RESTR.norm>
0.00599907

>  <SCORE.SYSTEM>
0

>  <SCORE.SYSTEM.CONST>
0

>  <SCORE.SYSTEM.DIHEDRAL>
0

>  <SCORE.SYSTEM.SOLV>
0

>  <SCORE.SYSTEM.norm>
0

>  <SCORE.heavy>
42

>  <SCORE.norm>
-0.209728

>  <RMSD>
8.639

$$$$
2fcy_lig
 OpenBabel11021811433D
libRbt.so/2013.1/901 2013/11/27
 42 45  0  0  0  0  0  0  0  0999 V2000
   -2.4180   91.5451    6.5389 C   0  0  2  0  0  0  0  0  0  0  0  0
   -2.8977   92.8991    6.4765 O   0  0  0  0  0  0  0  0  0  0  0  0
   -3.1602   90.7985    5.4295 C   0  0  2  0  0  0  0  0  0  0  0  0
   -2.9445   91.5055    4.1598 N   0  0  0  0  0  0  0  0  0  0  0  0
   -4.6575   90.7671    5.7463 C   0  0  1  0  0  0  0  0  0  0  0  0
   -5.3733   90.0692    4.7235 O   0  0  0  0  0  0  0  0  0  0  0  0
   -4.8744   90.0979    7.1039 C   0  0  2  0  0  0  0  0  0  0  0  0
   -6.2603   90.1564    7.4410 O   0  0  0  0  0  0  0  0  0  0  0  0
   -4.0937   90.8736    8.1659 C   0  0  2  0  0  0  0  0  0  0  0  0
   -2.7043   90.9159    7.8048 O   0  0  0  0  0  0  0  0  0  0  0  0
   -4.2953   90.2064    9.5289 C   0  0  0  0  0  0  0  0  0  0  0  0
   -3.8334   88.8104    9.5050 N   0  0  0  0  0  0  0  0  0  0  0  0
   -0.1989   96.0085    7.3097 C   0  0  2  0  0  0  0  0  0  0  0  0
    0.6335   97.0882    7.8614 N   0  0  0  0  0  0  0  0  0  0  0  0
   -1.6856   96.3371    7.4603 C   0  0  0  0  0  0  0  0  0  0  0  0
   -2.4943   95.2451    6.7526 C   0  0  2  0  0  0  0  0  0  0  0  0
   -3.9285   95.4927    6.9587 N   0  0  0  0  0  0  0  0  0  0  0  0
   -2.1800   93.8453    7.2884 C   0  0  2  0  0  0  0  0  0  0  0  0
   -0.6936   93.5242    7.3967 C   0  0  2  0  0  0  0  0  0  0  0  0
   -0.6092   92.3754    8.2554 O   0  0  0  0  0  0  0  0  0  0  0  0
    0.0969   94.6838    8.0172 C   0  0  1  0  0  0  0  0  0  0  0  0
    1.5043   94.4452    7.9296 O   0  0  0  0  0  0  0  0  0  0  0  0
    0.1916   92.5381    9.4372 C   0  0  1  0  0  0  0  0  0  0  0  0
   -0.7331   93.0105   10.5602 C   0  0  2  0  0  0  0  0  0  0  0  0
   -0.9001   94.4281   10.4813 O   0  0  0  0  0  0  0  0  0  0  0  0
    0.1535   92.6672   11.7538 C   0  0  1  0  0  0  0  0  0  0  0  0
    0.6134   91.2719   11.3617 C   0  0  2  0  0  0  0  0  0  0  0  0
    0.7507   91.3016    9.9260 O   0  0  0  0  0  0  0  0  0  0  0  0
   -0.4384   90.2522   11.8134 C   0  0  0  0  0  0  0  0  0  0  0  0
   -1.7510   90.6895   11.4494 O   0  0  0  0  0  0  0  0  0  0  0  0
    1.3720   94.1431   13.1086 C   0  0  2  0  0  0  0  0  0  0  0  0
    1.2767   93.5614   11.7993 O   0  0  0  0  0  0  0  0  0  0  0  0
    2.4832   95.1976   13.1211 C   0  0  1  0  0  0  0  0  0  0  0  0
    2.9726   91.5777   15.9879 N   0  0  0  0  0  0  0  0  0  0  0  0
    2.6711   95.7594   14.5345 C   0  0  1  0  0  0  0  0  0  0  0  0
    1.5279   96.5302   14.9182 O   0  0  0  0  0  0  0  0  0  0  0  0
    2.8804   94.6111   15.5254 C   0  0  2  0  0  0  0  0  0  0  0  0
    4.1155   93.9583   15.2124 O   0  0  0  0  0  0  0  0  0  0  0  0
    1.7183   93.6185   15.4136 C   0  0  1  0  0  0  0  0  0  0  0  0
    1.6381   93.1070   14.0702 O   0  0  0  0  0  0  0  0  0  0  0  0
    1.8709   92.4590   16.4019 C   0  0  0  0  0  0  0  0  0  0  0  0
    3.7417   94.5618   12.7030 N   0  0  0  0  0  0  0  0  0  0  0  0
  1  2  1  1  0  0  0
  1  3  1  0  0  0  0
  1 10  1  0  0  0  0
  3  4  1  6  0  0  0
  3  5  1  0  0  0  0
  5  6  1  6  0  0  0
  5  7  1  0  0  0  0
  7  8  1  1  0  0  0
  7  9  1  0  0  0  0
  9 10  1  0  0  0  0
  9 11  1  1  0  0  0
 11 12  1  0  0  0  0
 13 14  1  1  0  0  0
 13 15  1  0  0  0  0
 13 21  1  0  0  0  0
 16 15  1  0  0  0  0
 16 17  1  1  0  0  0
 18  2  1  6  0  0  0
 18 16  1  0  0  0  0
 19 18  1  0  0  0  0
 19 20  1  1  0  0  0
 21 19  1  0  0  0  0
 21 22  1  6  0  0  0
 23 20  1  6  0  0  0
 23 24  1  0  0  0  0
 23 28  1  0  0  0  0
 24 25  1  6  0  0  0
 24 26  1  0  0  0  0
 26 27  1  0  0  0  0
 26 32  1  6  0  0  0
 27 28  1  0  0  0  0
 27 29  1  6  0  0  0
 29 30  1  0  0  0  0
 31 32  1  6  0  0  0
 31 40  1  0  0  0  0
 33 31  1  0  0  0  0
 33 42  1  1  0  0  0
 35 33  1  0  0  0  0
 35 36  1  1  0  0  0
 37 35  1  0  0  0  0
 37 38  1  6  0  0  0
 37 39  1  0  0  0  0
 39 40  1  0  0  0  0
 39 41  1  1  0  0  0
 41 34  1  0  0  0  0
M  END
>  <CHROM.1>
-170.29570637,59.26268756,161.13416141,-122.13427245,91.69295804,128.12823742
46.67327532,-174.52942069,-70.78530407,-0.73756002,92.90722076,9.95044706
-2.73501048,0.86190021,2.32208401

>  <Name>
2fcy_lig

>  <RI>
1.56845e+07

>  <Rbt.Current_Directory>
/home/itssahil/PROJECTS/Mol_Feturizer/New_Systems/rnas/2fcy

>  <Rbt.Executable>
rbdock ($Id: //depot/dev/client3/rdock/2013.1/src/exe/rbdock.cxx#4 $)

>  <Rbt.Library>
libRbt.so (2013.1, Build901 2013/11/27)

>  <Rbt.Parameter_File>
/export/apps/rDock/src/rDock_2013.1_src/data/scripts/dock_solv.prm

>  <Rbt.Receptor>
prm/pocket_docking_4.prm

>  <SCORE>
-3.37611

>  <SCORE.INTER>
-13.9752

>  <SCORE.INTER.CONST>
1

>  <SCORE.INTER.POLAR>
-2.76342

>  <SCORE.INTER.ROT>
9

>  <SCORE.INTER.SOLV>
17.2093

>  <SCORE.INTER.VDW>
-15.4419

>  <SCORE.INTER.norm>
-0.332744

>  <SCORE.INTRA>
10.5991

>  <SCORE.INTRA.DIHEDRAL>
3.72842

>  <SCORE.INTRA.DIHEDRAL.0>
17.3446

>  <SCORE.INTRA.POLAR>
0

>  <SCORE.INTRA.POLAR.0>
0

>  <SCORE.INTRA.REPUL>
0

>  <SCORE.INTRA.REPUL.0>
0

>  <SCORE.INTRA.SOLV>
-0.0812599

>  <SCORE.INTRA.SOLV.lig_0>
-112.452

>  <SCORE.INTRA.VDW>
8.77555

>  <SCORE.INTRA.VDW.0>
-5.95059

>  <SCORE.INTRA.norm>
0.25236

>  <SCORE.RESTR>
0

>  <SCORE.RESTR.CAVITY>
0

>  <SCORE.RESTR.norm>
0

>  <SCORE.SYSTEM>
0

>  <SCORE.SYSTEM.CONST>
0

>  <SCORE.SYSTEM.DIHEDRAL>
0

>  <SCORE.SYSTEM.SOLV>
0

>  <SCORE.SYSTEM.norm>
0

>  <SCORE.heavy>
42

>  <SCORE.norm>
-0.0803835

>  <RMSD>
8.639

$$$$
2fcy_lig
 OpenBabel11021811433D
libRbt.so/2013.1/901 2013/11/27
 42 45  0  0  0  0  0  0  0  0999 V2000
    0.0151   96.2397    7.6239 C   0  0  2  0  0  0  0  0  0  0  0  0
   -0.5365   96.2358    8.9516 O   0  0  0  0  0  0  0  0  0  0  0  0
   -1.1888   96.3029    6.6828 C   0  0  2  0  0  0  0  0  0  0  0  0
   -2.0112   97.4646    7.0472 N   0  0  0  0  0  0  0  0  0  0  0  0
   -2.0199   95.0256    6.8279 C   0  0  1  0  0  0  0  0  0  0  0  0
   -3.1509   95.0597    5.9530 O   0  0  0  0  0  0  0  0  0  0  0  0
   -1.1418   93.8120    6.5212 C   0  0  2  0  0  0  0  0  0  0  0  0
   -1.8914   92.6191    6.7508 O   0  0  0  0  0  0  0  0  0  0  0  0
    0.0526   93.8142    7.4765 C   0  0  2  0  0  0  0  0  0  0  0  0
    0.7753   95.0476    7.3386 O   0  0  0  0  0  0  0  0  0  0  0  0
    0.9450   92.6081    7.1722 C   0  0  0  0  0  0  0  0  0  0  0  0
    0.2738   91.3515    7.5368 N   0  0  0  0  0  0  0  0  0  0  0  0
    2.7678   98.0548   10.8007 C   0  0  2  0  0  0  0  0  0  0  0  0
    3.8270   98.5671   11.6831 N   0  0  0  0  0  0  0  0  0  0  0  0
    1.3866   98.4693   11.3117 C   0  0  0  0  0  0  0  0  0  0  0  0
    0.3396   98.0232   10.2860 C   0  0  2  0  0  0  0  0  0  0  0  0
   -1.0034   98.3331   10.7970 N   0  0  0  0  0  0  0  0  0  0  0  0
    0.3981   96.5182   10.0082 C   0  0  2  0  0  0  0  0  0  0  0  0
    1.7947   95.9775    9.7227 C   0  0  2  0  0  0  0  0  0  0  0  0
    1.6957   94.5528    9.8795 O   0  0  0  0  0  0  0  0  0  0  0  0
    2.8325   96.5282   10.7098 C   0  0  1  0  0  0  0  0  0  0  0  0
    4.1574   96.1691   10.3088 O   0  0  0  0  0  0  0  0  0  0  0  0
    1.7676   94.0679   11.2301 C   0  0  1  0  0  0  0  0  0  0  0  0
    0.3520   94.1012   11.8086 C   0  0  2  0  0  0  0  0  0  0  0  0
    0.0632   95.4131   12.2977 O   0  0  0  0  0  0  0  0  0  0  0  0
    0.5576   93.1521   12.9856 C   0  0  1  0  0  0  0  0  0  0  0  0
    1.3301   92.0334   12.3044 C   0  0  2  0  0  0  0  0  0  0  0  0
    2.1628   92.6839   11.3225 O   0  0  0  0  0  0  0  0  0  0  0  0
    0.3374   91.0611   11.6569 C   0  0  0  0  0  0  0  0  0  0  0  0
   -0.5125   90.4766   12.6482 O   0  0  0  0  0  0  0  0  0  0  0  0
    1.3165   93.0259   15.2007 C   0  0  2  0  0  0  0  0  0  0  0  0
    1.3788   93.7820   13.9817 O   0  0  0  0  0  0  0  0  0  0  0  0
    1.8274   93.8840   16.3626 C   0  0  1  0  0  0  0  0  0  0  0  0
    2.7273   88.8242   17.1649 N   0  0  0  0  0  0  0  0  0  0  0  0
    1.8655   93.0637   17.6565 C   0  0  1  0  0  0  0  0  0  0  0  0
    0.5365   92.7487   18.0838 O   0  0  0  0  0  0  0  0  0  0  0  0
    2.6582   91.7736   17.4294 C   0  0  2  0  0  0  0  0  0  0  0  0
    4.0218   92.1175   17.1612 O   0  0  0  0  0  0  0  0  0  0  0  0
    2.0654   91.0095   16.2407 C   0  0  1  0  0  0  0  0  0  0  0  0
    2.1063   91.8320   15.0597 O   0  0  0  0  0  0  0  0  0  0  0  0
    2.8125   89.6976   15.9852 C   0  0  0  0  0  0  0  0  0  0  0  0
    3.1948   94.3293   16.0545 N   0  0  0  0  0  0  0  0  0  0  0  0
  1  2  1  1  0  0  0
  1  3  1  0  0  0  0
  1 10  1  0  0  0  0
  3  4  1  1  0  0  0
  3  5  1  0  0  0  0
  5  6  1  6  0  0  0
  5  7  1  0  0  0  0
  7  8  1  1  0  0  0
  7  9  1  0  0  0  0
  9 10  1  0  0  0  0
  9 11  1  6  0  0  0
 11 12  1  0  0  0  0
 13 14  1  1  0  0  0
 13 15  1  0  0  0  0
 13 21  1  0  0  0  0
 16 15  1  0  0  0  0
 16 17  1  1  0  0  0
 18  2  1  6  0  0  0
 18 16  1  0  0  0  0
 19 18  1  0  0  0  0
 19 20  1  1  0  0  0
 21 19  1  0  0  0  0
 21 22  1  6  0  0  0
 23 20  1  6  0  0  0
 23 24  1  0  0  0  0
 23 28  1  0  0  0  0
 24 25  1  1  0  0  0
 24 26  1  0  0  0  0
 26 27  1  0  0  0  0
 26 32  1  1  0  0  0
 27 28  1  0  0  0  0
 27 29  1  6  0  0  0
 29 30  1  0  0  0  0
 31 32  1  6  0  0  0
 31 40  1  0  0  0  0
 33 31  1  0  0  0  0
 33 42  1  6  0  0  0
 35 33  1  0  0  0  0
 35 36  1  6  0  0  0
 37 35  1  0  0  0  0
 37 38  1  6  0  0  0
 37 39  1  0  0  0  0
 39 40  1  0  0  0  0
 39 41  1  6  0  0  0
 41 34  1  0  0  0  0
M  END
>  <CHROM.1>
-164.96122133,-68.65240471,93.35223563,-81.60102412,86.82846459,166.80756415
-61.18829375,-163.21407199,60.35310375,0.96886157,94.15635759,11.52594632
-2.27659382,1.11915963,2.62445978

>  <Name>
2fcy_lig

>  <RI>
2.32494e+07

>  <Rbt.Current_Directory>
/home/itssahil/PROJECTS/Mol_Feturizer/New_Systems/rnas/2fcy

>  <Rbt.Executable>
rbdock ($Id: //depot/dev/client3/rdock/2013.1/src/exe/rbdock.cxx#4 $)

>  <Rbt.Library>
libRbt.so (2013.1, Build901 2013/11/27)

>  <Rbt.Parameter_File>
/export/apps/rDock/src/rDock_2013.1_src/data/scripts/dock_solv.prm

>  <Rbt.Receptor>
prm/pocket_docking_8.prm

>  <SCORE>
-8.57235

>  <SCORE.INTER>
-11.2603

>  <SCORE.INTER.CONST>
1

>  <SCORE.INTER.POLAR>
-0.746731

>  <SCORE.INTER.ROT>
9

>  <SCORE.INTER.SOLV>
18.3103

>  <SCORE.INTER.VDW>
-20.7212

>  <SCORE.INTER.norm>
-0.268102

>  <SCORE.INTRA>
2.68793

>  <SCORE.INTRA.DIHEDRAL>
-4.28028

>  <SCORE.INTRA.DIHEDRAL.0>
17.3446

>  <SCORE.INTRA.POLAR>
0

>  <SCORE.INTRA.POLAR.0>
0

>  <SCORE.INTRA.REPUL>
0

>  <SCORE.INTRA.REPUL.0>
0

>  <SCORE.INTRA.SOLV>
-1.55627

>  <SCORE.INTRA.SOLV.lig_0>
-112.452

>  <SCORE.INTRA.VDW>
5.60621

>  <SCORE.INTRA.VDW.0>
-5.95059

>  <SCORE.INTRA.norm>
0.0639984

>  <SCORE.RESTR>
0

>  <SCORE.RESTR.CAVITY>
0

>  <SCORE.RESTR.norm>
0

>  <SCORE.SYSTEM>
0

>  <SCORE.SYSTEM.CONST>
0

>  <SCORE.SYSTEM.DIHEDRAL>
0

>  <SCORE.SYSTEM.SOLV>
0

>  <SCORE.SYSTEM.norm>
0

>  <SCORE.heavy>
42

>  <SCORE.norm>
-0.204103

>  <RMSD>
8.641

$$$$
2fcy_lig
 OpenBabel11021811433D
libRbt.so/2013.1/901 2013/11/27
 42 45  0  0  0  0  0  0  0  0999 V2000
   -0.9371   92.3708   10.7360 C   0  0  2  0  0  0  0  0  0  0  0  0
   -1.2875   92.5705    9.3560 O   0  0  0  0  0  0  0  0  0  0  0  0
    0.0438   91.1975   10.7416 C   0  0  2  0  0  0  0  0  0  0  0  0
    1.1529   91.5062    9.8286 N   0  0  0  0  0  0  0  0  0  0  0  0
   -0.6704   89.9305   10.2643 C   0  0  1  0  0  0  0  0  0  0  0  0
    0.2271   88.8168   10.2650 O   0  0  0  0  0  0  0  0  0  0  0  0
   -1.8697   89.6526   11.1711 C   0  0  2  0  0  0  0  0  0  0  0  0
   -2.5896   88.5276   10.6673 O   0  0  0  0  0  0  0  0  0  0  0  0
   -2.8012   90.8652   11.1414 C   0  0  2  0  0  0  0  0  0  0  0  0
   -2.0782   92.0361   11.5523 O   0  0  0  0  0  0  0  0  0  0  0  0
   -4.0017   90.6025   12.0544 C   0  0  0  0  0  0  0  0  0  0  0  0
   -4.9983   91.6774   11.9357 N   0  0  0  0  0  0  0  0  0  0  0  0
   -0.7794   96.0822    7.1074 C   0  0  2  0  0  0  0  0  0  0  0  0
   -0.8246   97.4055    6.4674 N   0  0  0  0  0  0  0  0  0  0  0  0
   -2.1117   95.3496    6.9365 C   0  0  0  0  0  0  0  0  0  0  0  0
   -1.9596   93.9347    7.5039 C   0  0  2  0  0  0  0  0  0  0  0  0
   -3.2533   93.2405    7.4301 N   0  0  0  0  0  0  0  0  0  0  0  0
   -1.5137   93.9374    8.9690 C   0  0  2  0  0  0  0  0  0  0  0  0
   -0.3242   94.8422    9.2706 C   0  0  2  0  0  0  0  0  0  0  0  0
   -0.3171   95.0065   10.6978 O   0  0  0  0  0  0  0  0  0  0  0  0
   -0.4669   96.2149    8.5999 C   0  0  1  0  0  0  0  0  0  0  0  0
    0.7389   96.9728    8.7293 O   0  0  0  0  0  0  0  0  0  0  0  0
    0.9427   95.3853   11.2754 C   0  0  1  0  0  0  0  0  0  0  0  0
    0.6726   95.8535   12.7063 C   0  0  2  0  0  0  0  0  0  0  0  0
    0.2682   97.2247   12.6952 O   0  0  0  0  0  0  0  0  0  0  0  0
    2.0903   95.7444   13.2600 C   0  0  1  0  0  0  0  0  0  0  0  0
    2.4934   94.3829   12.7160 C   0  0  2  0  0  0  0  0  0  0  0  0
    1.8606   94.2826   11.4237 O   0  0  0  0  0  0  0  0  0  0  0  0
    2.0035   93.2940   13.6775 C   0  0  0  0  0  0  0  0  0  0  0  0
    2.2306   91.9950   13.1231 O   0  0  0  0  0  0  0  0  0  0  0  0
    2.7598   97.9851   13.4326 C   0  0  2  0  0  0  0  0  0  0  0  0
    2.9176   96.7688   12.6860 O   0  0  0  0  0  0  0  0  0  0  0  0
    3.5343   99.1133   12.7439 C   0  0  1  0  0  0  0  0  0  0  0  0
    4.8559   98.1361   17.0853 N   0  0  0  0  0  0  0  0  0  0  0  0
    3.4637  100.3969   13.5781 C   0  0  1  0  0  0  0  0  0  0  0  0
    2.1292  100.9138   13.5814 O   0  0  0  0  0  0  0  0  0  0  0  0
    3.9131  100.1082   15.0131 C   0  0  2  0  0  0  0  0  0  0  0  0
    5.2984   99.7478   14.9931 O   0  0  0  0  0  0  0  0  0  0  0  0
    3.0794   98.9594   15.5906 C   0  0  1  0  0  0  0  0  0  0  0  0
    3.2347   97.7830   14.7752 O   0  0  0  0  0  0  0  0  0  0  0  0
    3.4776   98.6454   17.0353 C   0  0  0  0  0  0  0  0  0  0  0  0
    4.9447   98.7133   12.6255 N   0  0  0  0  0  0  0  0  0  0  0  0
  1  2  1  6  0  0  0
  1  3  1  0  0  0  0
  1 10  1  0  0  0  0
  3  4  1  6  0  0  0
  3  5  1  0  0  0  0
  5  6  1  1  0  0  0
  5  7  1  0  0  0  0
  7  8  1  6  0  0  0
  7  9  1  0  0  0  0
  9 10  1  0  0  0  0
  9 11  1  1  0  0  0
 11 12  1  0  0  0  0
 13 14  1  1  0  0  0
 13 15  1  0  0  0  0
 13 21  1  0  0  0  0
 16 15  1  0  0  0  0
 16 17  1  1  0  0  0
 18  2  1  6  0  0  0
 18 16  1  0  0  0  0
 19 18  1  0  0  0  0
 19 20  1  1  0  0  0
 21 19  1  0  0  0  0
 21 22  1  6  0  0  0
 23 20  1  1  0  0  0
 23 24  1  0  0  0  0
 23 28  1  0  0  0  0
 24 25  1  6  0  0  0
 24 26  1  0  0  0  0
 26 27  1  0  0  0  0
 26 32  1  6  0  0  0
 27 28  1  0  0  0  0
 27 29  1  1  0  0  0
 29 30  1  0  0  0  0
 31 32  1  6  0  0  0
 31 40  1  0  0  0  0
 33 31  1  0  0  0  0
 33 42  1  1  0  0  0
 35 33  1  0  0  0  0
 35 36  1  1  0  0  0
 37 35  1  0  0  0  0
 37 38  1  6  0  0  0
 37 39  1  0  0  0  0
 39 40  1  0  0  0  0
 39 41  1  1  0  0  0
 41 34  1  0  0  0  0
M  END
>  <CHROM.1>
-145.38221522,-173.47326647,-176.39606136,157.81985255,165.73931276,84.37664070
173.40809741,-174.56581533,-65.25657166,0.62382232,94.94584568,11.57891794
-2.78456674,-0.96005477,-0.58971987

>  <Name>
2fcy_lig

>  <RI>
224

>  <Rbt.Current_Directory>
/home/itssahil/PROJECTS/Mol_Feturizer/New_Systems/rnas/2fcy

>  <Rbt.Executable>
rbdock ($Id: //depot/dev/client3/rdock/2013.1/src/exe/rbdock.cxx#4 $)

>  <Rbt.Library>
libRbt.so (2013.1, Build901 2013/11/27)

>  <Rbt.Parameter_File>
/export/apps/rDock/src/rDock_2013.1_src/data/scripts/dock_solv.prm

>  <Rbt.Receptor>
prm/pocket_docking_6.prm

>  <SCORE>
-16.4585

>  <SCORE.INTER>
-14.8149

>  <SCORE.INTER.CONST>
1

>  <SCORE.INTER.POLAR>
-2.77252

>  <SCORE.INTER.ROT>
9

>  <SCORE.INTER.SOLV>
16.4347

>  <SCORE.INTER.VDW>
-15.7131

>  <SCORE.INTER.norm>
-0.352736

>  <SCORE.INTRA>
-1.64363

>  <SCORE.INTRA.DIHEDRAL>
-6.18297

>  <SCORE.INTRA.DIHEDRAL.0>
17.3446

>  <SCORE.INTRA.POLAR>
0

>  <SCORE.INTRA.POLAR.0>
0

>  <SCORE.INTRA.REPUL>
0

>  <SCORE.INTRA.REPUL.0>
0

>  <SCORE.INTRA.SOLV>
-1.40544

>  <SCORE.INTRA.SOLV.lig_0>
-112.452

>  <SCORE.INTRA.VDW>
2.15057

>  <SCORE.INTRA.VDW.0>
-5.95059

>  <SCORE.INTRA.norm>
-0.039134

>  <SCORE.RESTR>
0

>  <SCORE.RESTR.CAVITY>
0

>  <SCORE.RESTR.norm>
0

>  <SCORE.SYSTEM>
0

>  <SCORE.SYSTEM.CONST>
0

>  <SCORE.SYSTEM.DIHEDRAL>
0

>  <SCORE.SYSTEM.SOLV>
0

>  <SCORE.SYSTEM.norm>
0

>  <SCORE.heavy>
42

>  <SCORE.norm>
-0.39187

>  <RMSD>
8.649

$$$$
2fcy_lig
 OpenBabel11021811433D
libRbt.so/2013.1/901 2013/11/27
 42 45  0  0  0  0  0  0  0  0999 V2000
    0.2739   94.1464    7.0130 C   0  0  2  0  0  0  0  0  0  0  0  0
   -0.7695   94.1223    8.0020 O   0  0  0  0  0  0  0  0  0  0  0  0
   -0.3313   94.8539    5.7996 C   0  0  2  0  0  0  0  0  0  0  0  0
   -0.8509   96.1602    6.2266 N   0  0  0  0  0  0  0  0  0  0  0  0
   -1.4769   94.0109    5.2339 C   0  0  1  0  0  0  0  0  0  0  0  0
   -2.0568   94.6511    4.0939 O   0  0  0  0  0  0  0  0  0  0  0  0
   -0.9498   92.6253    4.8597 C   0  0  2  0  0  0  0  0  0  0  0  0
   -2.0375   91.8103    4.4234 O   0  0  0  0  0  0  0  0  0  0  0  0
   -0.3398   91.9778    6.1038 C   0  0  2  0  0  0  0  0  0  0  0  0
    0.6974   92.8232    6.6254 O   0  0  0  0  0  0  0  0  0  0  0  0
    0.2009   90.5928    5.7389 C   0  0  0  0  0  0  0  0  0  0  0  0
    0.6315   89.8626    6.9406 N   0  0  0  0  0  0  0  0  0  0  0  0
   -0.4945   98.0180    9.5496 C   0  0  2  0  0  0  0  0  0  0  0  0
   -0.4403   99.2559   10.3417 N   0  0  0  0  0  0  0  0  0  0  0  0
   -1.8205   97.2878    9.7719 C   0  0  0  0  0  0  0  0  0  0  0  0
   -1.8722   96.0843    8.8253 C   0  0  2  0  0  0  0  0  0  0  0  0
   -3.0993   95.3168    9.0825 N   0  0  0  0  0  0  0  0  0  0  0  0
   -0.6818   95.1397    9.0153 C   0  0  2  0  0  0  0  0  0  0  0  0
    0.6782   95.8281    9.0463 C   0  0  2  0  0  0  0  0  0  0  0  0
    1.5844   94.8657    9.6092 O   0  0  0  0  0  0  0  0  0  0  0  0
    0.6609   97.0865    9.9241 C   0  0  1  0  0  0  0  0  0  0  0  0
    1.8794   97.8219    9.7841 O   0  0  0  0  0  0  0  0  0  0  0  0
    1.2622   94.4053   10.9315 C   0  0  1  0  0  0  0  0  0  0  0  0
    2.1223   93.1723   11.2134 C   0  0  2  0  0  0  0  0  0  0  0  0
    1.4962   92.0125   10.6598 O   0  0  0  0  0  0  0  0  0  0  0  0
    1.9974   93.1423   12.7340 C   0  0  1  0  0  0  0  0  0  0  0  0
    2.2239   94.6108   13.0569 C   0  0  2  0  0  0  0  0  0  0  0  0
    1.6220   95.3411   11.9684 O   0  0  0  0  0  0  0  0  0  0  0  0
    3.7307   94.8751   13.1574 C   0  0  0  0  0  0  0  0  0  0  0  0
    4.2978   94.1421   14.2472 O   0  0  0  0  0  0  0  0  0  0  0  0
    0.5943   92.5924   14.5305 C   0  0  2  0  0  0  0  0  0  0  0  0
    0.6648   92.7561   13.1058 O   0  0  0  0  0  0  0  0  0  0  0  0
    1.4648   91.4048   14.9535 C   0  0  1  0  0  0  0  0  0  0  0  0
   -3.1183   91.2954   15.7498 N   0  0  0  0  0  0  0  0  0  0  0  0
    1.3247   91.1483   16.4578 C   0  0  1  0  0  0  0  0  0  0  0  0
    1.9092   92.2227   17.2011 O   0  0  0  0  0  0  0  0  0  0  0  0
   -0.1553   91.0074   16.8242 C   0  0  2  0  0  0  0  0  0  0  0  0
   -0.6714   89.8312   16.1920 O   0  0  0  0  0  0  0  0  0  0  0  0
   -0.9232   92.2429   16.3425 C   0  0  1  0  0  0  0  0  0  0  0  0
   -0.7757   92.3870   14.9176 O   0  0  0  0  0  0  0  0  0  0  0  0
   -2.4085   92.1595   16.7044 C   0  0  0  0  0  0  0  0  0  0  0  0
    1.0093   90.2059   14.2335 N   0  0  0  0  0  0  0  0  0  0  0  0
  1  2  1  1  0  0  0
  1  3  1  0  0  0  0
  1 10  1  0  0  0  0
  3  4  1  1  0  0  0
  3  5  1  0  0  0  0
  5  6  1  6  0  0  0
  5  7  1  0  0  0  0
  7  8  1  1  0  0  0
  7  9  1  0  0  0  0
  9 10  1  0  0  0  0
  9 11  1  6  0  0  0
 11 12  1  0  0  0  0
 13 14  1  1  0  0  0
 13 15  1  0  0  0  0
 13 21  1  0  0  0  0
 16 15  1  0  0  0  0
 16 17  1  1  0  0  0
 18  2  1  6  0  0  0
 18 16  1  0  0  0  0
 19 18  1  0  0  0  0
 19 20  1  1  0  0  0
 21 19  1  0  0  0  0
 21 22  1  6  0  0  0
 23 20  1  6  0  0  0
 23 24  1  0  0  0  0
 23 28  1  0  0  0  0
 24 25  1  6  0  0  0
 24 26  1  0  0  0  0
 26 27  1  0  0  0  0
 26 32  1  6  0  0  0
 27 28  1  0  0  0  0
 27 29  1  6  0  0  0
 29 30  1  0  0  0  0
 31 32  1  6  0  0  0
 31 40  1  0  0  0  0
 33 31  1  0  0  0  0
 33 42  1  6  0  0  0
 35 33  1  0  0  0  0
 35 36  1  1  0  0  0
 37 35  1  0  0  0  0
 37 38  1  6  0  0  0
 37 39  1  0  0  0  0
 39 40  1  0  0  0  0
 39 41  1  6  0  0  0
 41 34  1  0  0  0  0
M  END
>  <CHROM.1>
-99.36465655,-172.33850525,113.19035340,-59.36175335,166.68832070,173.92912741
-63.93687295,-66.19876758,-79.73466047,0.18319265,93.68117377,10.74949186
2.12014532,-1.31148343,-0.79236277

>  <Name>
2fcy_lig

>  <RI>
224

>  <Rbt.Current_Directory>
/home/itssahil/PROJECTS/Mol_Feturizer/New_Systems/rnas/2fcy

>  <Rbt.Executable>
rbdock ($Id: //depot/dev/client3/rdock/2013.1/src/exe/rbdock.cxx#4 $)

>  <Rbt.Library>
libRbt.so (2013.1, Build901 2013/11/27)

>  <Rbt.Parameter_File>
/export/apps/rDock/src/rDock_2013.1_src/data/scripts/dock_solv.prm

>  <Rbt.Receptor>
prm/pocket_docking_6.prm

>  <SCORE>
-13.9485

>  <SCORE.INTER>
-18.9235

>  <SCORE.INTER.CONST>
1

>  <SCORE.INTER.POLAR>
-1.75727

>  <SCORE.INTER.ROT>
9

>  <SCORE.INTER.SOLV>
23.2173

>  <SCORE.INTER.VDW>
-24.0972

>  <SCORE.INTER.norm>
-0.45056

>  <SCORE.INTRA>
4.97502

>  <SCORE.INTRA.DIHEDRAL>
-2.02334

>  <SCORE.INTRA.DIHEDRAL.0>
17.3446

>  <SCORE.INTRA.POLAR>
0

>  <SCORE.INTRA.POLAR.0>
0

>  <SCORE.INTRA.REPUL>
0.00110856

>  <SCORE.INTRA.REPUL.0>
0

>  <SCORE.INTRA.SOLV>
0.409113

>  <SCORE.INTRA.SOLV.lig_0>
-112.452

>  <SCORE.INTRA.VDW>
5.77659

>  <SCORE.INTRA.VDW.0>
-5.95059

>  <SCORE.INTRA.norm>
0.118453

>  <SCORE.RESTR>
0

>  <SCORE.RESTR.CAVITY>
0

>  <SCORE.RESTR.norm>
0

>  <SCORE.SYSTEM>
0

>  <SCORE.SYSTEM.CONST>
0

>  <SCORE.SYSTEM.DIHEDRAL>
0

>  <SCORE.SYSTEM.SOLV>
0

>  <SCORE.SYSTEM.norm>
0

>  <SCORE.heavy>
42

>  <SCORE.norm>
-0.332107

>  <RMSD>
8.650

$$$$
2fcy_lig
 OpenBabel11021811433D
libRbt.so/2013.1/901 2013/11/27
 42 45  0  0  0  0  0  0  0  0999 V2000
   -2.6852   91.3943    6.1517 C   0  0  2  0  0  0  0  0  0  0  0  0
   -2.5140   92.8179    6.2585 O   0  0  0  0  0  0  0  0  0  0  0  0
   -3.2919   91.1597    4.7676 C   0  0  2  0  0  0  0  0  0  0  0  0
   -2.4247   91.7864    3.7606 N   0  0  0  0  0  0  0  0  0  0  0  0
   -4.6843   91.7927    4.7047 C   0  0  1  0  0  0  0  0  0  0  0  0
   -5.2746   91.5824    3.4190 O   0  0  0  0  0  0  0  0  0  0  0  0
   -5.5636   91.1931    5.8024 C   0  0  2  0  0  0  0  0  0  0  0  0
   -6.8294   91.8531    5.8040 O   0  0  0  0  0  0  0  0  0  0  0  0
   -4.8973   91.4396    7.1569 C   0  0  2  0  0  0  0  0  0  0  0  0
   -3.5793   90.8692    7.1543 O   0  0  0  0  0  0  0  0  0  0  0  0
   -5.7644   90.8344    8.2640 C   0  0  0  0  0  0  0  0  0  0  0  0
   -5.2284   91.1658    9.5927 N   0  0  0  0  0  0  0  0  0  0  0  0
    0.4232   94.9484    8.3752 C   0  0  2  0  0  0  0  0  0  0  0  0
    1.3140   95.6018    9.3460 N   0  0  0  0  0  0  0  0  0  0  0  0
   -1.0247   95.4004    8.5757 C   0  0  0  0  0  0  0  0  0  0  0  0
   -1.8782   94.7927    7.4579 C   0  0  2  0  0  0  0  0  0  0  0  0
   -3.2888   95.1420    7.6798 N   0  0  0  0  0  0  0  0  0  0  0  0
   -1.7770   93.2653    7.4101 C   0  0  2  0  0  0  0  0  0  0  0  0
   -0.3537   92.7203    7.4500 C   0  0  2  0  0  0  0  0  0  0  0  0
   -0.4831   91.3297    7.7872 O   0  0  0  0  0  0  0  0  0  0  0  0
    0.4979   93.4258    8.5137 C   0  0  1  0  0  0  0  0  0  0  0  0
    1.8713   93.0429    8.4028 O   0  0  0  0  0  0  0  0  0  0  0  0
   -0.3245   91.0084    9.1786 C   0  0  1  0  0  0  0  0  0  0  0  0
   -1.6261   91.3815    9.8899 C   0  0  2  0  0  0  0  0  0  0  0  0
   -1.6155   92.7741   10.2129 O   0  0  0  0  0  0  0  0  0  0  0  0
   -1.4406   90.5613   11.1632 C   0  0  1  0  0  0  0  0  0  0  0  0
   -0.9700   89.2413   10.5733 C   0  0  2  0  0  0  0  0  0  0  0  0
   -0.1692   89.5961    9.4272 O   0  0  0  0  0  0  0  0  0  0  0  0
   -2.1924   88.4046   10.1786 C   0  0  0  0  0  0  0  0  0  0  0  0
   -3.3233   89.2481    9.9418 O   0  0  0  0  0  0  0  0  0  0  0  0
   -0.6954   90.9244   13.3567 C   0  0  2  0  0  0  0  0  0  0  0  0
   -0.4008   91.1397   11.9681 O   0  0  0  0  0  0  0  0  0  0  0  0
   -1.2357   92.2189   13.9727 C   0  0  1  0  0  0  0  0  0  0  0  0
    2.0710   88.5651   15.2368 N   0  0  0  0  0  0  0  0  0  0  0  0
   -1.4610   92.0412   15.4780 C   0  0  1  0  0  0  0  0  0  0  0  0
   -2.5385   91.1293   15.7144 O   0  0  0  0  0  0  0  0  0  0  0  0
   -0.1818   91.5161   16.1355 C   0  0  2  0  0  0  0  0  0  0  0  0
    0.8335   92.5190   16.0226 O   0  0  0  0  0  0  0  0  0  0  0  0
    0.2675   90.2317   15.4307 C   0  0  1  0  0  0  0  0  0  0  0  0
    0.4984   90.4941   14.0341 O   0  0  0  0  0  0  0  0  0  0  0  0
    1.5350   89.6542   16.0665 C   0  0  0  0  0  0  0  0  0  0  0  0
   -0.2430   93.2858   13.7744 N   0  0  0  0  0  0  0  0  0  0  0  0
  1  2  1  1  0  0  0
  1  3  1  0  0  0  0
  1 10  1  0  0  0  0
  3  4  1  6  0  0  0
  3  5  1  0  0  0  0
  5  6  1  6  0  0  0
  5  7  1  0  0  0  0
  7  8  1  1  0  0  0
  7  9  1  0  0  0  0
  9 10  1  0  0  0  0
  9 11  1  1  0  0  0
 11 12  1  0  0  0  0
 13 14  1  1  0  0  0
 13 15  1  0  0  0  0
 13 21  1  0  0  0  0
 16 15  1  0  0  0  0
 16 17  1  1  0  0  0
 18  2  1  6  0  0  0
 18 16  1  0  0  0  0
 19 18  1  0  0  0  0
 19 20  1  1  0  0  0
 21 19  1  0  0  0  0
 21 22  1  6  0  0  0
 23 20  1  6  0  0  0
 23 24  1  0  0  0  0
 23 28  1  0  0  0  0
 24 25  1  1  0  0  0
 24 26  1  0  0  0  0
 26 27  1  0  0  0  0
 26 32  1  1  0  0  0
 27 28  1  0  0  0  0
 27 29  1  6  0  0  0
 29 30  1  0  0  0  0
 31 32  1  6  0  0  0
 31 40  1  0  0  0  0
 33 31  1  0  0  0  0
 33 42  1  1  0  0  0
 35 33  1  0  0  0  0
 35 36  1  6  0  0  0
 37 35  1  0  0  0  0
 37 38  1  6  0  0  0
 37 39  1  0  0  0  0
 39 40  1  0  0  0  0
 39 41  1  1  0  0  0
 41 34  1  0  0  0  0
M  END
>  <CHROM.1>
-171.47813172,-174.32726032,-171.81868111,-96.08437204,77.81452443,147.70282655
24.19038730,-102.92980342,-170.29143686,-1.68781745,91.73183456,9.80107556
2.10379719,-0.65950841,-1.10645975

>  <Name>
2fcy_lig

>  <RI>
4.13508e+07

>  <Rbt.Current_Directory>
/home/itssahil/PROJECTS/Mol_Feturizer/New_Systems/rnas/2fcy

>  <Rbt.Executable>
rbdock ($Id: //depot/dev/client3/rdock/2013.1/src/exe/rbdock.cxx#4 $)

>  <Rbt.Library>
libRbt.so (2013.1, Build901 2013/11/27)

>  <Rbt.Parameter_File>
/export/apps/rDock/src/rDock_2013.1_src/data/scripts/dock_solv.prm

>  <Rbt.Receptor>
prm/pocket_docking_3.prm

>  <SCORE>
-6.37524

>  <SCORE.INTER>
-13.0251

>  <SCORE.INTER.CONST>
1

>  <SCORE.INTER.POLAR>
-2.32768

>  <SCORE.INTER.ROT>
9

>  <SCORE.INTER.SOLV>
21.1512

>  <SCORE.INTER.VDW>
-17.5749

>  <SCORE.INTER.norm>
-0.310123

>  <SCORE.INTRA>
6.64991

>  <SCORE.INTRA.DIHEDRAL>
3.47275

>  <SCORE.INTRA.DIHEDRAL.0>
17.3446

>  <SCORE.INTRA.POLAR>
0

>  <SCORE.INTRA.POLAR.0>
0

>  <SCORE.INTRA.REPUL>
0.00143923

>  <SCORE.INTRA.REPUL.0>
0

>  <SCORE.INTRA.SOLV>
-0.292431

>  <SCORE.INTRA.SOLV.lig_0>
-112.452

>  <SCORE.INTRA.VDW>
5.05255

>  <SCORE.INTRA.VDW.0>
-5.95059

>  <SCORE.INTRA.norm>
0.158331

>  <SCORE.RESTR>
0

>  <SCORE.RESTR.CAVITY>
0

>  <SCORE.RESTR.norm>
0

>  <SCORE.SYSTEM>
0

>  <SCORE.SYSTEM.CONST>
0

>  <SCORE.SYSTEM.DIHEDRAL>
0

>  <SCORE.SYSTEM.SOLV>
0

>  <SCORE.SYSTEM.norm>
0

>  <SCORE.heavy>
42

>  <SCORE.norm>
-0.151791

>  <RMSD>
8.659

$$$$
2fcy_lig
 OpenBabel11021811433D
libRbt.so/2013.1/901 2013/11/27
 42 45  0  0  0  0  0  0  0  0999 V2000
   -3.6687   93.1836    7.3135 C   0  0  2  0  0  0  0  0  0  0  0  0
   -3.5906   93.4245    8.7289 O   0  0  0  0  0  0  0  0  0  0  0  0
   -5.1022   92.7156    7.0585 C   0  0  2  0  0  0  0  0  0  0  0  0
   -6.0288   93.7202    7.5978 N   0  0  0  0  0  0  0  0  0  0  0  0
   -5.3369   91.3770    7.7629 C   0  0  1  0  0  0  0  0  0  0  0  0
   -6.6717   90.9162    7.5350 O   0  0  0  0  0  0  0  0  0  0  0  0
   -4.3223   90.3521    7.2548 C   0  0  2  0  0  0  0  0  0  0  0  0
   -4.4801   89.1338    7.9817 O   0  0  0  0  0  0  0  0  0  0  0  0
   -2.9122   90.8831    7.5173 C   0  0  2  0  0  0  0  0  0  0  0  0
   -2.7527   92.1586    6.8768 O   0  0  0  0  0  0  0  0  0  0  0  0
   -1.8868   89.8692    7.0033 C   0  0  0  0  0  0  0  0  0  0  0  0
   -0.5212   90.4058    7.1017 N   0  0  0  0  0  0  0  0  0  0  0  0
    0.3284   94.9060    8.4240 C   0  0  2  0  0  0  0  0  0  0  0  0
    1.6647   95.4978    8.5886 N   0  0  0  0  0  0  0  0  0  0  0  0
   -0.7627   95.9264    8.7542 C   0  0  0  0  0  0  0  0  0  0  0  0
   -2.1229   95.2965    8.4378 C   0  0  2  0  0  0  0  0  0  0  0  0
   -3.1916   96.2268    8.8294 N   0  0  0  0  0  0  0  0  0  0  0  0
   -2.3479   93.9824    9.1915 C   0  0  2  0  0  0  0  0  0  0  0  0
   -1.1892   92.9950    9.1090 C   0  0  2  0  0  0  0  0  0  0  0  0
   -1.4184   92.0434   10.1607 O   0  0  0  0  0  0  0  0  0  0  0  0
    0.1641   93.6836    9.3305 C   0  0  1  0  0  0  0  0  0  0  0  0
    1.2432   92.7863    9.0556 O   0  0  0  0  0  0  0  0  0  0  0  0
   -1.3410   92.5620   11.4984 C   0  0  1  0  0  0  0  0  0  0  0  0
    0.0339   92.1932   12.0579 C   0  0  2  0  0  0  0  0  0  0  0  0
   -0.0001   90.8622   12.5786 O   0  0  0  0  0  0  0  0  0  0  0  0
    0.0928   93.1906   13.2112 C   0  0  1  0  0  0  0  0  0  0  0  0
   -0.3934   94.4494   12.5105 C   0  0  2  0  0  0  0  0  0  0  0  0
   -1.3805   94.0026   11.5583 O   0  0  0  0  0  0  0  0  0  0  0  0
    0.7953   95.1310   11.8229 C   0  0  0  0  0  0  0  0  0  0  0  0
    1.7947   95.4864   12.7828 O   0  0  0  0  0  0  0  0  0  0  0  0
   -0.1946   91.9109   15.1550 C   0  0  2  0  0  0  0  0  0  0  0  0
   -0.8381   92.8063   14.2355 O   0  0  0  0  0  0  0  0  0  0  0  0
   -1.2422   91.2929   16.0865 C   0  0  1  0  0  0  0  0  0  0  0  0
    3.5918   93.0488   16.4991 N   0  0  0  0  0  0  0  0  0  0  0  0
   -0.5655   90.4118   17.1421 C   0  0  1  0  0  0  0  0  0  0  0  0
    0.0053   89.2517   16.5284 O   0  0  0  0  0  0  0  0  0  0  0  0
    0.5256   91.2095   17.8614 C   0  0  2  0  0  0  0  0  0  0  0  0
   -0.0947   92.2695   18.5971 O   0  0  0  0  0  0  0  0  0  0  0  0
    1.5029   91.7864   16.8317 C   0  0  1  0  0  0  0  0  0  0  0  0
    0.7965   92.6334   15.9064 O   0  0  0  0  0  0  0  0  0  0  0  0
    2.6279   92.5777   17.5044 C   0  0  0  0  0  0  0  0  0  0  0  0
   -1.9583   92.3768   16.7760 N   0  0  0  0  0  0  0  0  0  0  0  0
  1  2  1  1  0  0  0
  1  3  1  0  0  0  0
  1 10  1  0  0  0  0
  3  4  1  1  0  0  0
  3  5  1  0  0  0  0
  5  6  1  6  0  0  0
  5  7  1  0  0  0  0
  7  8  1  1  0  0  0
  7  9  1  0  0  0  0
  9 10  1  0  0  0  0
  9 11  1  6  0  0  0
 11 12  1  0  0  0  0
 13 14  1  1  0  0  0
 13 15  1  0  0  0  0
 13 21  1  0  0  0  0
 16 15  1  0  0  0  0
 16 17  1  1  0  0  0
 18  2  1  6  0  0  0
 18 16  1  0  0  0  0
 19 18  1  0  0  0  0
 19 20  1  1  0  0  0
 21 19  1  0  0  0  0
 21 22  1  6  0  0  0
 23 20  1  6  0  0  0
 23 24  1  0  0  0  0
 23 28  1  0  0  0  0
 24 25  1  1  0  0  0
 24 26  1  0  0  0  0
 26 27  1  0  0  0  0
 26 32  1  1  0  0  0
 27 28  1  0  0  0  0
 27 29  1  6  0  0  0
 29 30  1  0  0  0  0
 31 32  1  6  0  0  0
 31 40  1  0  0  0  0
 33 31  1  0  0  0  0
 33 42  1  1  0  0  0
 35 33  1  0  0  0  0
 35 36  1  6  0  0  0
 37 35  1  0  0  0  0
 37 38  1  6  0  0  0
 37 39  1  0  0  0  0
 39 40  1  0  0  0  0
 39 41  1  1  0  0  0
 41 34  1  0  0  0  0
M  END
>  <CHROM.1>
-175.18770031,173.76322446,57.58430732,-65.53154128,-100.26825766,88.75655959
-60.05572657,-169.32553174,176.58676824,-1.21461473,92.62248058,11.37114127
2.18775853,-0.74167435,-1.08961679

>  <Name>
2fcy_lig

>  <RI>
4.13508e+07

>  <Rbt.Current_Directory>
/home/itssahil/PROJECTS/Mol_Feturizer/New_Systems/rnas/2fcy

>  <Rbt.Executable>
rbdock ($Id: //depot/dev/client3/rdock/2013.1/src/exe/rbdock.cxx#4 $)

>  <Rbt.Library>
libRbt.so (2013.1, Build901 2013/11/27)

>  <Rbt.Parameter_File>
/export/apps/rDock/src/rDock_2013.1_src/data/scripts/dock_solv.prm

>  <Rbt.Receptor>
prm/pocket_docking_3.prm

>  <SCORE>
-6.75288

>  <SCORE.INTER>
-9.35716

>  <SCORE.INTER.CONST>
1

>  <SCORE.INTER.POLAR>
-2.25749

>  <SCORE.INTER.ROT>
9

>  <SCORE.INTER.SOLV>
19.9001

>  <SCORE.INTER.VDW>
-14.9465

>  <SCORE.INTER.norm>
-0.222789

>  <SCORE.INTRA>
1.72904

>  <SCORE.INTRA.DIHEDRAL>
-7.29234

>  <SCORE.INTRA.DIHEDRAL.0>
17.3446

>  <SCORE.INTRA.POLAR>
0

>  <SCORE.INTRA.POLAR.0>
0

>  <SCORE.INTRA.REPUL>
0

>  <SCORE.INTRA.REPUL.0>
0

>  <SCORE.INTRA.SOLV>
-0.285611

>  <SCORE.INTRA.SOLV.lig_0>
-112.452

>  <SCORE.INTRA.VDW>
5.51802

>  <SCORE.INTRA.VDW.0>
-5.95059

>  <SCORE.INTRA.norm>
0.0411677

>  <SCORE.RESTR>
0.87524

>  <SCORE.RESTR.CAVITY>
0.87524

>  <SCORE.RESTR.norm>
0.0208391

>  <SCORE.SYSTEM>
0

>  <SCORE.SYSTEM.CONST>
0

>  <SCORE.SYSTEM.DIHEDRAL>
0

>  <SCORE.SYSTEM.SOLV>
0

>  <SCORE.SYSTEM.norm>
0

>  <SCORE.heavy>
42

>  <SCORE.norm>
-0.160783

>  <RMSD>
8.665

$$$$
2fcy_lig
 OpenBabel11021811433D
libRbt.so/2013.1/901 2013/11/27
 42 45  0  0  0  0  0  0  0  0999 V2000
   -2.9245   97.3557   10.9249 C   0  0  2  0  0  0  0  0  0  0  0  0
   -2.3849   96.3408   11.7886 O   0  0  0  0  0  0  0  0  0  0  0  0
   -4.1867   96.7433   10.3159 C   0  0  2  0  0  0  0  0  0  0  0  0
   -5.0609   96.2857   11.4046 N   0  0  0  0  0  0  0  0  0  0  0  0
   -3.8041   95.5510    9.4355 C   0  0  1  0  0  0  0  0  0  0  0  0
   -4.9696   94.9634    8.8506 O   0  0  0  0  0  0  0  0  0  0  0  0
   -2.8346   96.0146    8.3478 C   0  0  2  0  0  0  0  0  0  0  0  0
   -2.4043   94.8849    7.5886 O   0  0  0  0  0  0  0  0  0  0  0  0
   -1.6060   96.6350    9.0148 C   0  0  2  0  0  0  0  0  0  0  0  0
   -2.0165   97.7178    9.8643 O   0  0  0  0  0  0  0  0  0  0  0  0
   -0.6318   97.1124    7.9347 C   0  0  0  0  0  0  0  0  0  0  0  0
   -1.2409   98.1610    7.1029 N   0  0  0  0  0  0  0  0  0  0  0  0
    0.6441   98.9007   13.1739 C   0  0  2  0  0  0  0  0  0  0  0  0
    1.7638   99.5852   13.8376 N   0  0  0  0  0  0  0  0  0  0  0  0
   -0.4263   98.4979   14.1902 C   0  0  0  0  0  0  0  0  0  0  0  0
   -1.6191   97.9128   13.4273 C   0  0  2  0  0  0  0  0  0  0  0  0
   -2.6246   97.4380   14.3888 N   0  0  0  0  0  0  0  0  0  0  0  0
   -1.2223   96.7274   12.5425 C   0  0  2  0  0  0  0  0  0  0  0  0
   -0.0008   96.9705   11.6631 C   0  0  2  0  0  0  0  0  0  0  0  0
    0.4285   95.6691   11.2317 O   0  0  0  0  0  0  0  0  0  0  0  0
    1.1348   97.6508   12.4391 C   0  0  1  0  0  0  0  0  0  0  0  0
    2.1885   98.0468   11.5570 O   0  0  0  0  0  0  0  0  0  0  0  0
    0.5662   94.6831   12.2677 C   0  0  1  0  0  0  0  0  0  0  0  0
    1.2783   93.4727   11.6615 C   0  0  2  0  0  0  0  0  0  0  0  0
    0.3268   92.6380   10.9970 O   0  0  0  0  0  0  0  0  0  0  0  0
    1.7343   92.7986   12.9523 C   0  0  1  0  0  0  0  0  0  0  0  0
    2.2786   93.9986   13.7112 C   0  0  2  0  0  0  0  0  0  0  0  0
    1.4239   95.1026   13.3487 O   0  0  0  0  0  0  0  0  0  0  0  0
    3.7327   94.2402   13.2902 C   0  0  0  0  0  0  0  0  0  0  0  0
    4.2837   95.3520   14.0022 O   0  0  0  0  0  0  0  0  0  0  0  0
    1.0505   91.4869   14.7717 C   0  0  2  0  0  0  0  0  0  0  0  0
    0.5999   92.2519   13.6434 O   0  0  0  0  0  0  0  0  0  0  0  0
   -0.0820   90.5779   15.2598 C   0  0  1  0  0  0  0  0  0  0  0  0
    3.1098   91.9687   19.1326 N   0  0  0  0  0  0  0  0  0  0  0  0
    0.3435   89.8268   16.5260 C   0  0  1  0  0  0  0  0  0  0  0  0
    1.3714   88.8794   16.2194 O   0  0  0  0  0  0  0  0  0  0  0  0
    0.8493   90.8219   17.5740 C   0  0  2  0  0  0  0  0  0  0  0  0
   -0.2439   91.6529   17.9786 O   0  0  0  0  0  0  0  0  0  0  0  0
    1.9662   91.6799   16.9701 C   0  0  1  0  0  0  0  0  0  0  0  0
    1.4736   92.3830   15.8143 O   0  0  0  0  0  0  0  0  0  0  0  0
    2.5213   92.6798   17.9881 C   0  0  0  0  0  0  0  0  0  0  0  0
   -1.2493   91.4116   15.5845 N   0  0  0  0  0  0  0  0  0  0  0  0
  1  2  1  1  0  0  0
  1  3  1  0  0  0  0
  1 10  1  0  0  0  0
  3  4  1  1  0  0  0
  3  5  1  0  0  0  0
  5  6  1  6  0  0  0
  5  7  1  0  0  0  0
  7  8  1  1  0  0  0
  7  9  1  0  0  0  0
  9 10  1  0  0  0  0
  9 11  1  6  0  0  0
 11 12  1  0  0  0  0
 13 14  1  1  0  0  0
 13 15  1  0  0  0  0
 13 21  1  0  0  0  0
 16 15  1  0  0  0  0
 16 17  1  1  0  0  0
 18  2  1  6  0  0  0
 18 16  1  0  0  0  0
 19 18  1  0  0  0  0
 19 20  1  1  0  0  0
 21 19  1  0  0  0  0
 21 22  1  6  0  0  0
 23 20  1  6  0  0  0
 23 24  1  0  0  0  0
 23 28  1  0  0  0  0
 24 25  1  1  0  0  0
 24 26  1  0  0  0  0
 26 27  1  0  0  0  0
 26 32  1  1  0  0  0
 27 28  1  0  0  0  0
 27 29  1  6  0  0  0
 29 30  1  0  0  0  0
 31 32  1  6  0  0  0
 31 40  1  0  0  0  0
 33 31  1  0  0  0  0
 33 42  1  1  0  0  0
 35 33  1  0  0  0  0
 35 36  1  6  0  0  0
 37 35  1  0  0  0  0
 37 38  1  6  0  0  0
 37 39  1  0  0  0  0
 39 40  1  0  0  0  0
 39 41  1  1  0  0  0
 41 34  1  0  0  0  0
M  END
>  <CHROM.1>
-176.33864673,62.41081379,60.38943334,-49.39631973,-169.27150569,173.31593683
-179.09776790,-163.38277913,61.70252854,-0.14091639,94.81521047,12.86200429
2.11133099,-0.69904693,-0.52566392

>  <Name>
2fcy_lig

>  <RI>
2.89127e+07

>  <Rbt.Current_Directory>
/home/itssahil/PROJECTS/Mol_Feturizer/New_Systems/rnas/2fcy

>  <Rbt.Executable>
rbdock ($Id: //depot/dev/client3/rdock/2013.1/src/exe/rbdock.cxx#4 $)

>  <Rbt.Library>
libRbt.so (2013.1, Build901 2013/11/27)

>  <Rbt.Parameter_File>
/export/apps/rDock/src/rDock_2013.1_src/data/scripts/dock_solv.prm

>  <Rbt.Receptor>
prm/pocket_docking_7.prm

>  <SCORE>
-14.8623

>  <SCORE.INTER>
-10.6439

>  <SCORE.INTER.CONST>
1

>  <SCORE.INTER.POLAR>
-0.797499

>  <SCORE.INTER.ROT>
9

>  <SCORE.INTER.SOLV>
19.1122

>  <SCORE.INTER.VDW>
-20.4083

>  <SCORE.INTER.norm>
-0.253426

>  <SCORE.INTRA>
-4.21837

>  <SCORE.INTRA.DIHEDRAL>
-14.022

>  <SCORE.INTRA.DIHEDRAL.0>
17.3446

>  <SCORE.INTRA.POLAR>
0

>  <SCORE.INTRA.POLAR.0>
0

>  <SCORE.INTRA.REPUL>
0

>  <SCORE.INTRA.REPUL.0>
0

>  <SCORE.INTRA.SOLV>
-3.13114

>  <SCORE.INTRA.SOLV.lig_0>
-112.452

>  <SCORE.INTRA.VDW>
4.35817

>  <SCORE.INTRA.VDW.0>
-5.95059

>  <SCORE.INTRA.norm>
-0.100437

>  <SCORE.RESTR>
0

>  <SCORE.RESTR.CAVITY>
0

>  <SCORE.RESTR.norm>
0

>  <SCORE.SYSTEM>
0

>  <SCORE.SYSTEM.CONST>
0

>  <SCORE.SYSTEM.DIHEDRAL>
0

>  <SCORE.SYSTEM.SOLV>
0

>  <SCORE.SYSTEM.norm>
0

>  <SCORE.heavy>
42

>  <SCORE.norm>
-0.353863

>  <RMSD>
8.683

$$$$
2fcy_lig
 OpenBabel11021811433D
libRbt.so/2013.1/901 2013/11/27
 42 45  0  0  0  0  0  0  0  0999 V2000
    6.4516   96.8158   13.6101 C   0  0  2  0  0  0  0  0  0  0  0  0
    6.3146   98.1357   14.1636 O   0  0  0  0  0  0  0  0  0  0  0  0
    7.8777   96.7502   13.0615 C   0  0  2  0  0  0  0  0  0  0  0  0
    8.8134   97.1028   14.1381 N   0  0  0  0  0  0  0  0  0  0  0  0
    8.0295   97.7463   11.9091 C   0  0  1  0  0  0  0  0  0  0  0  0
    9.3559   97.7001   11.3760 O   0  0  0  0  0  0  0  0  0  0  0  0
    7.0037   97.4238   10.8220 C   0  0  2  0  0  0  0  0  0  0  0  0
    7.0820   98.4109    9.7938 O   0  0  0  0  0  0  0  0  0  0  0  0
    5.6029   97.4839   11.4331 C   0  0  2  0  0  0  0  0  0  0  0  0
    5.5209   96.5682   12.5364 O   0  0  0  0  0  0  0  0  0  0  0  0
    4.5671   97.1526   10.3556 C   0  0  0  0  0  0  0  0  0  0  0  0
    3.2124   97.5139   10.7991 N   0  0  0  0  0  0  0  0  0  0  0  0
    4.4185   97.5928   17.8726 C   0  0  2  0  0  0  0  0  0  0  0  0
    3.5719   97.5969   19.0752 N   0  0  0  0  0  0  0  0  0  0  0  0
    4.9515   98.9964   17.5780 C   0  0  0  0  0  0  0  0  0  0  0  0
    5.9270   98.9038   16.4003 C   0  0  2  0  0  0  0  0  0  0  0  0
    6.3856  100.2538   16.0426 N   0  0  0  0  0  0  0  0  0  0  0  0
    5.2840   98.2838   15.1563 C   0  0  2  0  0  0  0  0  0  0  0  0
    4.5194   96.9899   15.4128 C   0  0  2  0  0  0  0  0  0  0  0  0
    3.6939   96.7938   14.2534 O   0  0  0  0  0  0  0  0  0  0  0  0
    3.6313   97.0897   16.6602 C   0  0  1  0  0  0  0  0  0  0  0  0
    3.0788   95.8139   16.9953 O   0  0  0  0  0  0  0  0  0  0  0  0
    2.8249   95.6504   14.2931 C   0  0  1  0  0  0  0  0  0  0  0  0
    1.7775   95.8279   13.1927 C   0  0  2  0  0  0  0  0  0  0  0  0
    0.7116   96.6514   13.6718 O   0  0  0  0  0  0  0  0  0  0  0  0
    1.2986   94.3828   13.0898 C   0  0  1  0  0  0  0  0  0  0  0  0
    2.6316   93.6513   13.0886 C   0  0  2  0  0  0  0  0  0  0  0  0
    3.4891   94.4133   13.9631 O   0  0  0  0  0  0  0  0  0  0  0  0
    3.1753   93.6030   11.6560 C   0  0  0  0  0  0  0  0  0  0  0  0
    2.2477   92.9448   10.7884 O   0  0  0  0  0  0  0  0  0  0  0  0
    0.5990   92.6128   14.4596 C   0  0  2  0  0  0  0  0  0  0  0  0
    0.5465   94.0341   14.2630 O   0  0  0  0  0  0  0  0  0  0  0  0
   -0.6251   91.9600   13.8095 C   0  0  1  0  0  0  0  0  0  0  0  0
    2.0893   91.3986   18.1326 N   0  0  0  0  0  0  0  0  0  0  0  0
   -0.6426   90.4544   14.0945 C   0  0  1  0  0  0  0  0  0  0  0  0
    0.4354   89.8073   13.4109 O   0  0  0  0  0  0  0  0  0  0  0  0
   -0.5237   90.2104   15.6014 C   0  0  2  0  0  0  0  0  0  0  0  0
   -1.6952   90.7284   16.2409 O   0  0  0  0  0  0  0  0  0  0  0  0
    0.7247   90.9180   16.1389 C   0  0  1  0  0  0  0  0  0  0  0  0
    0.6424   92.3298   15.8692 O   0  0  0  0  0  0  0  0  0  0  0  0
    0.9001   90.6864   17.6422 C   0  0  0  0  0  0  0  0  0  0  0  0
   -1.8397   92.5561   14.3863 N   0  0  0  0  0  0  0  0  0  0  0  0
  1  2  1  6  0  0  0
  1  3  1  0  0  0  0
  1 10  1  0  0  0  0
  3  4  1  1  0  0  0
  3  5  1  0  0  0  0
  5  6  1  6  0  0  0
  5  7  1  0  0  0  0
  7  8  1  6  0  0  0
  7  9  1  0  0  0  0
  9 10  1  0  0  0  0
  9 11  1  6  0  0  0
 11 12  1  0  0  0  0
 13 14  1  1  0  0  0
 13 15  1  0  0  0  0
 13 21  1  0  0  0  0
 16 15  1  0  0  0  0
 16 17  1  6  0  0  0
 18  2  1  6  0  0  0
 18 16  1  0  0  0  0
 19 18  1  0  0  0  0
 19 20  1  6  0  0  0
 21 19  1  0  0  0  0
 21 22  1  1  0  0  0
 23 20  1  6  0  0  0
 23 24  1  0  0  0  0
 23 28  1  0  0  0  0
 24 25  1  1  0  0  0
 24 26  1  0  0  0  0
 26 27  1  0  0  0  0
 26 32  1  1  0  0  0
 27 28  1  0  0  0  0
 27 29  1  6  0  0  0
 29 30  1  0  0  0  0
 31 32  1  1  0  0  0
 31 40  1  0  0  0  0
 33 31  1  0  0  0  0
 33 42  1  1  0  0  0
 35 33  1  0  0  0  0
 35 36  1  6  0  0  0
 37 35  1  0  0  0  0
 37 38  1  1  0  0  0
 37 39  1  0  0  0  0
 39 40  1  0  0  0  0
 39 41  1  1  0  0  0
 41 34  1  0  0  0  0
M  END
>  <CHROM.1>
-157.71235068,-166.14024579,126.72372441,-177.31326359,164.37579803,-154.99008119
-58.56877290,-94.11587955,-178.87304257,3.41669554,95.26908372,14.19487095
0.01882575,-0.78807479,-1.83813376

>  <Name>
2fcy_lig

>  <RI>
9.29634e+06

>  <Rbt.Current_Directory>
/home/itssahil/PROJECTS/Mol_Feturizer/New_Systems/rnas/2fcy

>  <Rbt.Executable>
rbdock ($Id: //depot/dev/client3/rdock/2013.1/src/exe/rbdock.cxx#4 $)

>  <Rbt.Library>
libRbt.so (2013.1, Build901 2013/11/27)

>  <Rbt.Parameter_File>
/export/apps/rDock/src/rDock_2013.1_src/data/scripts/dock_solv.prm

>  <Rbt.Receptor>
prm/blind_docking_100.prm

>  <SCORE>
1.06575

>  <SCORE.INTER>
-11.1733

>  <SCORE.INTER.CONST>
1

>  <SCORE.INTER.POLAR>
-1.48034

>  <SCORE.INTER.ROT>
9

>  <SCORE.INTER.SOLV>
21.2959

>  <SCORE.INTER.VDW>
-19.213

>  <SCORE.INTER.norm>
-0.26603

>  <SCORE.INTRA>
5.50935

>  <SCORE.INTRA.DIHEDRAL>
0.736756

>  <SCORE.INTRA.DIHEDRAL.0>
17.3446

>  <SCORE.INTRA.POLAR>
0

>  <SCORE.INTRA.POLAR.0>
0

>  <SCORE.INTRA.REPUL>
0.00120232

>  <SCORE.INTRA.REPUL.0>
0

>  <SCORE.INTRA.SOLV>
-2.504

>  <SCORE.INTRA.SOLV.lig_0>
-112.452

>  <SCORE.INTRA.VDW>
6.38696

>  <SCORE.INTRA.VDW.0>
-5.95059

>  <SCORE.INTRA.norm>
0.131175

>  <SCORE.RESTR>
6.72968

>  <SCORE.RESTR.CAVITY>
6.72968

>  <SCORE.RESTR.norm>
0.16023

>  <SCORE.SYSTEM>
0

>  <SCORE.SYSTEM.CONST>
0

>  <SCORE.SYSTEM.DIHEDRAL>
0

>  <SCORE.SYSTEM.SOLV>
0

>  <SCORE.SYSTEM.norm>
0

>  <SCORE.heavy>
42

>  <SCORE.norm>
0.025375

>  <RMSD>
8.716

$$$$
2fcy_lig
 OpenBabel11021811433D
libRbt.so/2013.1/901 2013/11/27
 42 45  0  0  0  0  0  0  0  0999 V2000
   -0.9304   89.4072    9.3088 C   0  0  2  0  0  0  0  0  0  0  0  0
   -0.2336   90.0221    8.2118 O   0  0  0  0  0  0  0  0  0  0  0  0
   -0.1128   88.1650    9.6657 C   0  0  2  0  0  0  0  0  0  0  0  0
    1.2747   88.5728    9.9252 N   0  0  0  0  0  0  0  0  0  0  0  0
   -0.1427   87.1785    8.4956 C   0  0  1  0  0  0  0  0  0  0  0  0
    0.6129   86.0049    8.8079 O   0  0  0  0  0  0  0  0  0  0  0  0
   -1.5930   86.8130    8.1778 C   0  0  2  0  0  0  0  0  0  0  0  0
   -1.6241   85.9698    7.0264 O   0  0  0  0  0  0  0  0  0  0  0  0
   -2.3632   88.0931    7.8506 C   0  0  2  0  0  0  0  0  0  0  0  0
   -2.2700   89.0053    8.9559 O   0  0  0  0  0  0  0  0  0  0  0  0
   -3.8203   87.7406    7.5402 C   0  0  0  0  0  0  0  0  0  0  0  0
   -4.6035   88.9503    7.2472 N   0  0  0  0  0  0  0  0  0  0  0  0
    0.7345   94.0897    7.8062 C   0  0  2  0  0  0  0  0  0  0  0  0
    0.7985   95.5448    7.6030 N   0  0  0  0  0  0  0  0  0  0  0  0
    0.1933   93.3896    6.5580 C   0  0  0  0  0  0  0  0  0  0  0  0
    0.2751   91.8761    6.7810 C   0  0  2  0  0  0  0  0  0  0  0  0
   -0.3206   91.1829    5.6297 N   0  0  0  0  0  0  0  0  0  0  0  0
   -0.4787   91.4289    8.0369 C   0  0  2  0  0  0  0  0  0  0  0  0
   -0.1699   92.2432    9.2883 C   0  0  2  0  0  0  0  0  0  0  0  0
   -1.2252   91.9405   10.2150 O   0  0  0  0  0  0  0  0  0  0  0  0
   -0.1608   93.7504    9.0005 C   0  0  1  0  0  0  0  0  0  0  0  0
    0.3212   94.4818   10.1309 O   0  0  0  0  0  0  0  0  0  0  0  0
   -0.8150   91.3281   11.4483 C   0  0  1  0  0  0  0  0  0  0  0  0
   -0.4582   92.4501   12.4248 C   0  0  2  0  0  0  0  0  0  0  0  0
    0.8857   92.8791   12.1938 O   0  0  0  0  0  0  0  0  0  0  0  0
   -0.5237   91.6571   13.7268 C   0  0  1  0  0  0  0  0  0  0  0  0
   -1.8214   90.8927   13.5177 C   0  0  2  0  0  0  0  0  0  0  0  0
   -1.8717   90.5994   12.1063 O   0  0  0  0  0  0  0  0  0  0  0  0
   -2.9973   91.7712   13.9604 C   0  0  0  0  0  0  0  0  0  0  0  0
   -3.2301   92.8150   13.0103 O   0  0  0  0  0  0  0  0  0  0  0  0
    0.6576   90.1832   15.1163 C   0  0  2  0  0  0  0  0  0  0  0  0
    0.5813   90.7419   13.7959 O   0  0  0  0  0  0  0  0  0  0  0  0
    0.4929   91.2976   16.1546 C   0  0  1  0  0  0  0  0  0  0  0  0
    3.4836   87.4430   17.9474 N   0  0  0  0  0  0  0  0  0  0  0  0
    0.6725   90.7398   17.5706 C   0  0  1  0  0  0  0  0  0  0  0  0
   -0.4115   89.8656   17.9009 O   0  0  0  0  0  0  0  0  0  0  0  0
    1.9993   89.9814   17.6647 C   0  0  2  0  0  0  0  0  0  0  0  0
    3.0710   90.9141   17.4887 O   0  0  0  0  0  0  0  0  0  0  0  0
    2.0542   88.9059   16.5745 C   0  0  1  0  0  0  0  0  0  0  0  0
    1.9216   89.5158   15.2772 O   0  0  0  0  0  0  0  0  0  0  0  0
    3.3566   88.1035   16.6399 C   0  0  0  0  0  0  0  0  0  0  0  0
    1.5282   92.3160   15.9218 N   0  0  0  0  0  0  0  0  0  0  0  0
  1  2  1  6  0  0  0
  1  3  1  0  0  0  0
  1 10  1  0  0  0  0
  3  4  1  6  0  0  0
  3  5  1  0  0  0  0
  5  6  1  1  0  0  0
  5  7  1  0  0  0  0
  7  8  1  6  0  0  0
  7  9  1  0  0  0  0
  9 10  1  0  0  0  0
  9 11  1  1  0  0  0
 11 12  1  0  0  0  0
 13 14  1  6  0  0  0
 13 15  1  0  0  0  0
 13 21  1  0  0  0  0
 16 15  1  0  0  0  0
 16 17  1  6  0  0  0
 18  2  1  1  0  0  0
 18 16  1  0  0  0  0
 19 18  1  0  0  0  0
 19 20  1  1  0  0  0
 21 19  1  0  0  0  0
 21 22  1  1  0  0  0
 23 20  1  6  0  0  0
 23 24  1  0  0  0  0
 23 28  1  0  0  0  0
 24 25  1  6  0  0  0
 24 26  1  0  0  0  0
 26 27  1  0  0  0  0
 26 32  1  6  0  0  0
 27 28  1  0  0  0  0
 27 29  1  6  0  0  0
 29 30  1  0  0  0  0
 31 32  1  6  0  0  0
 31 40  1  0  0  0  0
 33 31  1  0  0  0  0
 33 42  1  6  0  0  0
 35 33  1  0  0  0  0
 35 36  1  6  0  0  0
 37 35  1  0  0  0  0
 37 38  1  6  0  0  0
 37 39  1  0  0  0  0
 39 40  1  0  0  0  0
 39 41  1  6  0  0  0
 41 34  1  0  0  0  0
M  END
>  <CHROM.1>
-156.64583132,178.80823838,-176.56661114,118.81705682,86.99114719,169.34070531
73.49813978,-45.30954575,59.55836470,-0.17811484,90.47488277,11.51160831
2.88406479,-1.28166982,-0.26885434

>  <Name>
2fcy_lig

>  <RI>
2.89127e+07

>  <Rbt.Current_Directory>
/home/itssahil/PROJECTS/Mol_Feturizer/New_Systems/rnas/2fcy

>  <Rbt.Executable>
rbdock ($Id: //depot/dev/client3/rdock/2013.1/src/exe/rbdock.cxx#4 $)

>  <Rbt.Library>
libRbt.so (2013.1, Build901 2013/11/27)

>  <Rbt.Parameter_File>
/export/apps/rDock/src/rDock_2013.1_src/data/scripts/dock_solv.prm

>  <Rbt.Receptor>
prm/pocket_docking_7.prm

>  <SCORE>
-23.581

>  <SCORE.INTER>
-26.3094

>  <SCORE.INTER.CONST>
1

>  <SCORE.INTER.POLAR>
-3.83948

>  <SCORE.INTER.ROT>
9

>  <SCORE.INTER.SOLV>
20.42

>  <SCORE.INTER.VDW>
-21.148

>  <SCORE.INTER.norm>
-0.626414

>  <SCORE.INTRA>
2.72836

>  <SCORE.INTRA.DIHEDRAL>
-1.97276

>  <SCORE.INTRA.DIHEDRAL.0>
17.3446

>  <SCORE.INTRA.POLAR>
0

>  <SCORE.INTRA.POLAR.0>
0

>  <SCORE.INTRA.REPUL>
0

>  <SCORE.INTRA.REPUL.0>
0

>  <SCORE.INTRA.SOLV>
-2.44122

>  <SCORE.INTRA.SOLV.lig_0>
-112.452

>  <SCORE.INTRA.VDW>
4.93535

>  <SCORE.INTRA.VDW.0>
-5.95059

>  <SCORE.INTRA.norm>
0.064961

>  <SCORE.RESTR>
0

>  <SCORE.RESTR.CAVITY>
0

>  <SCORE.RESTR.norm>
0

>  <SCORE.SYSTEM>
0

>  <SCORE.SYSTEM.CONST>
0

>  <SCORE.SYSTEM.DIHEDRAL>
0

>  <SCORE.SYSTEM.SOLV>
0

>  <SCORE.SYSTEM.norm>
0

>  <SCORE.heavy>
42

>  <SCORE.norm>
-0.561453

>  <RMSD>
8.731

$$$$
2fcy_lig
 OpenBabel11021811433D
libRbt.so/2013.1/901 2013/11/27
 42 45  0  0  0  0  0  0  0  0999 V2000
    2.7875   92.0499   13.7912 C   0  0  2  0  0  0  0  0  0  0  0  0
    3.0422   92.7459   15.0233 O   0  0  0  0  0  0  0  0  0  0  0  0
    2.8590   93.1172   12.6982 C   0  0  2  0  0  0  0  0  0  0  0  0
    4.1519   93.8080   12.7980 N   0  0  0  0  0  0  0  0  0  0  0  0
    1.7259   94.1276   12.8940 C   0  0  1  0  0  0  0  0  0  0  0  0
    1.7695   95.1349   11.8795 O   0  0  0  0  0  0  0  0  0  0  0  0
    0.3837   93.3959   12.8651 C   0  0  2  0  0  0  0  0  0  0  0  0
   -0.6642   94.3242   13.1441 O   0  0  0  0  0  0  0  0  0  0  0  0
    0.3796   92.3306   13.9625 C   0  0  2  0  0  0  0  0  0  0  0  0
    1.4837   91.4337   13.7648 O   0  0  0  0  0  0  0  0  0  0  0  0
   -0.9566   91.5839   13.9368 C   0  0  0  0  0  0  0  0  0  0  0  0
   -0.7786   90.2025   13.4649 N   0  0  0  0  0  0  0  0  0  0  0  0
    0.1142   90.6048   17.1420 C   0  0  2  0  0  0  0  0  0  0  0  0
   -0.7483   89.9095   18.1093 N   0  0  0  0  0  0  0  0  0  0  0  0
    1.5304   90.0261   17.1620 C   0  0  0  0  0  0  0  0  0  0  0  0
    2.3403   90.6962   16.0475 C   0  0  2  0  0  0  0  0  0  0  0  0
    3.7297   90.2195   16.1033 N   0  0  0  0  0  0  0  0  0  0  0  0
    2.3641   92.2219   16.1787 C   0  0  2  0  0  0  0  0  0  0  0  0
    0.9992   92.8625   16.4049 C   0  0  2  0  0  0  0  0  0  0  0  0
    1.2712   94.1902   16.8817 O   0  0  0  0  0  0  0  0  0  0  0  0
    0.1787   92.1017   17.4549 C   0  0  1  0  0  0  0  0  0  0  0  0
   -1.1622   92.5959   17.5094 O   0  0  0  0  0  0  0  0  0  0  0  0
    2.2625   94.9257   16.1465 C   0  0  1  0  0  0  0  0  0  0  0  0
    1.6116   96.2232   15.6643 C   0  0  2  0  0  0  0  0  0  0  0  0
    0.8959   95.9800   14.4509 O   0  0  0  0  0  0  0  0  0  0  0  0
    2.8764   97.0205   15.3592 C   0  0  1  0  0  0  0  0  0  0  0  0
    3.6974   96.7194   16.6031 C   0  0  2  0  0  0  0  0  0  0  0  0
    3.3739   95.3591   16.9574 O   0  0  0  0  0  0  0  0  0  0  0  0
    3.3089   97.7055   17.7107 C   0  0  0  0  0  0  0  0  0  0  0  0
    3.7921   97.2527   18.9788 O   0  0  0  0  0  0  0  0  0  0  0  0
    4.3912   97.4718   13.6271 C   0  0  2  0  0  0  0  0  0  0  0  0
    3.5253   96.4788   14.1977 O   0  0  0  0  0  0  0  0  0  0  0  0
    4.0611   97.6466   12.1412 C   0  0  1  0  0  0  0  0  0  0  0  0
    8.3236   97.5983   15.0656 N   0  0  0  0  0  0  0  0  0  0  0  0
    5.0403   98.6278   11.4879 C   0  0  1  0  0  0  0  0  0  0  0  0
    4.8307   99.9497   11.9948 O   0  0  0  0  0  0  0  0  0  0  0  0
    6.4798   98.1865   11.7663 C   0  0  2  0  0  0  0  0  0  0  0  0
    6.7077   96.9344   11.1106 O   0  0  0  0  0  0  0  0  0  0  0  0
    6.6868   98.0339   13.2770 C   0  0  1  0  0  0  0  0  0  0  0  0
    5.7599   97.0662   13.8035 O   0  0  0  0  0  0  0  0  0  0  0  0
    8.1209   97.6129   13.6094 C   0  0  0  0  0  0  0  0  0  0  0  0
    4.1935   96.3436   11.4721 N   0  0  0  0  0  0  0  0  0  0  0  0
  1  2  1  1  0  0  0
  1  3  1  0  0  0  0
  1 10  1  0  0  0  0
  3  4  1  1  0  0  0
  3  5  1  0  0  0  0
  5  6  1  6  0  0  0
  5  7  1  0  0  0  0
  7  8  1  1  0  0  0
  7  9  1  0  0  0  0
  9 10  1  0  0  0  0
  9 11  1  6  0  0  0
 11 12  1  0  0  0  0
 13 14  1  1  0  0  0
 13 15  1  0  0  0  0
 13 21  1  0  0  0  0
 16 15  1  0  0  0  0
 16 17  1  1  0  0  0
 18  2  1  6  0  0  0
 18 16  1  0  0  0  0
 19 18  1  0  0  0  0
 19 20  1  1  0  0  0
 21 19  1  0  0  0  0
 21 22  1  6  0  0  0
 23 20  1  1  0  0  0
 23 24  1  0  0  0  0
 23 28  1  0  0  0  0
 24 25  1  6  0  0  0
 24 26  1  0  0  0  0
 26 27  1  0  0  0  0
 26 32  1  6  0  0  0
 27 28  1  0  0  0  0
 27 29  1  1  0  0  0
 29 30  1  0  0  0  0
 31 32  1  6  0  0  0
 31 40  1  0  0  0  0
 33 31  1  0  0  0  0
 33 42  1  6  0  0  0
 35 33  1  0  0  0  0
 35 36  1  1  0  0  0
 37 35  1  0  0  0  0
 37 38  1  6  0  0  0
 37 39  1  0  0  0  0
 39 40  1  0  0  0  0
 39 41  1  6  0  0  0
 41 34  1  0  0  0  0
M  END
>  <CHROM.1>
147.70365928,110.28909490,37.05249599,46.74224022,122.99495671,158.93401801
165.17652801,-126.80812475,174.66473722,2.77712361,94.62168332,14.63680086
2.84553741,0.89258464,1.52496468

>  <Name>
2fcy_lig

>  <RI>
9.29634e+06

>  <Rbt.Current_Directory>
/home/itssahil/PROJECTS/Mol_Feturizer/New_Systems/rnas/2fcy

>  <Rbt.Executable>
rbdock ($Id: //depot/dev/client3/rdock/2013.1/src/exe/rbdock.cxx#4 $)

>  <Rbt.Library>
libRbt.so (2013.1, Build901 2013/11/27)

>  <Rbt.Parameter_File>
/export/apps/rDock/src/rDock_2013.1_src/data/scripts/dock_solv.prm

>  <Rbt.Receptor>
prm/blind_docking_100.prm

>  <SCORE>
31.9449

>  <SCORE.INTER>
6.66856

>  <SCORE.INTER.CONST>
1

>  <SCORE.INTER.POLAR>
-0.925992

>  <SCORE.INTER.ROT>
9

>  <SCORE.INTER.SOLV>
31.6198

>  <SCORE.INTER.VDW>
-12.6076

>  <SCORE.INTER.norm>
0.158775

>  <SCORE.INTRA>
21.7509

>  <SCORE.INTRA.DIHEDRAL>
11.9209

>  <SCORE.INTRA.DIHEDRAL.0>
17.3446

>  <SCORE.INTRA.POLAR>
0

>  <SCORE.INTRA.POLAR.0>
0

>  <SCORE.INTRA.REPUL>
0.514214

>  <SCORE.INTRA.REPUL.0>
0

>  <SCORE.INTRA.SOLV>
5.54078

>  <SCORE.INTRA.SOLV.lig_0>
-112.452

>  <SCORE.INTRA.VDW>
10.4489

>  <SCORE.INTRA.VDW.0>
-5.95059

>  <SCORE.INTRA.norm>
0.517878

>  <SCORE.RESTR>
3.52545

>  <SCORE.RESTR.CAVITY>
3.52545

>  <SCORE.RESTR.norm>
0.0839393

>  <SCORE.SYSTEM>
0

>  <SCORE.SYSTEM.CONST>
0

>  <SCORE.SYSTEM.DIHEDRAL>
0

>  <SCORE.SYSTEM.SOLV>
0

>  <SCORE.SYSTEM.norm>
0

>  <SCORE.heavy>
42

>  <SCORE.norm>
0.760593

>  <RMSD>
8.736

$$$$
2fcy_lig
 OpenBabel11021811433D
libRbt.so/2013.1/901 2013/11/27
 42 45  0  0  0  0  0  0  0  0999 V2000
    6.1303   98.1881   12.1155 C   0  0  2  0  0  0  0  0  0  0  0  0
    5.4751   96.9578   11.7628 O   0  0  0  0  0  0  0  0  0  0  0  0
    7.3781   98.2523   11.2335 C   0  0  2  0  0  0  0  0  0  0  0  0
    6.9698   98.1141    9.8288 N   0  0  0  0  0  0  0  0  0  0  0  0
    8.3259   97.1084   11.6027 C   0  0  1  0  0  0  0  0  0  0  0  0
    9.5040   97.1502   10.7928 O   0  0  0  0  0  0  0  0  0  0  0  0
    8.6903   97.2104   13.0842 C   0  0  2  0  0  0  0  0  0  0  0  0
    9.4954   96.0893   13.4487 O   0  0  0  0  0  0  0  0  0  0  0  0
    7.4053   97.1621   13.9121 C   0  0  2  0  0  0  0  0  0  0  0  0
    6.5293   98.2233   13.5011 O   0  0  0  0  0  0  0  0  0  0  0  0
    7.7571   97.2735   15.3979 C   0  0  0  0  0  0  0  0  0  0  0  0
    6.5421   97.3738   16.2203 N   0  0  0  0  0  0  0  0  0  0  0  0
    1.5954   98.4729   12.3100 C   0  0  2  0  0  0  0  0  0  0  0  0
    0.1610   98.7304   12.5077 N   0  0  0  0  0  0  0  0  0  0  0  0
    1.8289   97.6341   11.0519 C   0  0  0  0  0  0  0  0  0  0  0  0
    3.3396   97.5127   10.8275 C   0  0  2  0  0  0  0  0  0  0  0  0
    3.5900   96.6376    9.6732 N   0  0  0  0  0  0  0  0  0  0  0  0
    4.0634   96.9112   12.0357 C   0  0  2  0  0  0  0  0  0  0  0  0
    3.6986   97.5420   13.3749 C   0  0  2  0  0  0  0  0  0  0  0  0
    4.1555   96.6161   14.3740 O   0  0  0  0  0  0  0  0  0  0  0  0
    2.1838   97.7405   13.5184 C   0  0  1  0  0  0  0  0  0  0  0  0
    1.8791   98.5074   14.6863 O   0  0  0  0  0  0  0  0  0  0  0  0
    3.2326   95.5725   14.7252 C   0  0  1  0  0  0  0  0  0  0  0  0
    4.0482   94.3995   15.2717 C   0  0  2  0  0  0  0  0  0  0  0  0
    4.5317   93.6034   14.1871 O   0  0  0  0  0  0  0  0  0  0  0  0
    2.9301   93.6528   15.9933 C   0  0  1  0  0  0  0  0  0  0  0  0
    2.2441   94.8078   16.7058 C   0  0  2  0  0  0  0  0  0  0  0  0
    2.3462   95.9300   15.8054 O   0  0  0  0  0  0  0  0  0  0  0  0
    2.9619   95.0745   18.0339 C   0  0  0  0  0  0  0  0  0  0  0  0
    2.2725   96.0780   18.7849 O   0  0  0  0  0  0  0  0  0  0  0  0
    1.0273   92.3103   15.7186 C   0  0  2  0  0  0  0  0  0  0  0  0
    2.0371   93.0664   15.0330 O   0  0  0  0  0  0  0  0  0  0  0  0
    1.2465   90.8153   15.4659 C   0  0  1  0  0  0  0  0  0  0  0  0
   -2.8620   92.4389   14.0375 N   0  0  0  0  0  0  0  0  0  0  0  0
    0.1209   89.9944   16.1044 C   0  0  1  0  0  0  0  0  0  0  0  0
    0.2011   90.0678   17.5315 O   0  0  0  0  0  0  0  0  0  0  0  0
   -1.2370   90.5211   15.6322 C   0  0  2  0  0  0  0  0  0  0  0  0
   -1.3522   90.2872   14.2245 O   0  0  0  0  0  0  0  0  0  0  0  0
   -1.3355   92.0220   15.9253 C   0  0  1  0  0  0  0  0  0  0  0  0
   -0.2707   92.7230   15.2562 O   0  0  0  0  0  0  0  0  0  0  0  0
   -2.6873   92.5936   15.4892 C   0  0  0  0  0  0  0  0  0  0  0  0
    1.2312   90.5748   14.0151 N   0  0  0  0  0  0  0  0  0  0  0  0
  1  2  1  1  0  0  0
  1  3  1  0  0  0  0
  1 10  1  0  0  0  0
  3  4  1  6  0  0  0
  3  5  1  0  0  0  0
  5  6  1  6  0  0  0
  5  7  1  0  0  0  0
  7  8  1  1  0  0  0
  7  9  1  0  0  0  0
  9 10  1  0  0  0  0
  9 11  1  1  0  0  0
 11 12  1  0  0  0  0
 13 14  1  1  0  0  0
 13 15  1  0  0  0  0
 13 21  1  0  0  0  0
 16 15  1  0  0  0  0
 16 17  1  6  0  0  0
 18  2  1  6  0  0  0
 18 16  1  0  0  0  0
 19 18  1  0  0  0  0
 19 20  1  1  0  0  0
 21 19  1  0  0  0  0
 21 22  1  1  0  0  0
 23 20  1  1  0  0  0
 23 24  1  0  0  0  0
 23 28  1  0  0  0  0
 24 25  1  6  0  0  0
 24 26  1  0  0  0  0
 26 27  1  0  0  0  0
 26 32  1  6  0  0  0
 27 28  1  0  0  0  0
 27 29  1  1  0  0  0
 29 30  1  0  0  0  0
 31 32  1  6  0  0  0
 31 40  1  0  0  0  0
 33 31  1  0  0  0  0
 33 42  1  6  0  0  0
 35 33  1  0  0  0  0
 35 36  1  1  0  0  0
 37 35  1  0  0  0  0
 37 38  1  6  0  0  0
 37 39  1  0  0  0  0
 39 40  1  0  0  0  0
 39 41  1  6  0  0  0
 41 34  1  0  0  0  0
M  END
>  <CHROM.1>
-156.26583545,174.02176405,86.25311451,-86.80134060,155.43428982,177.12428460
-174.96665506,-110.29848432,-61.81891322,3.28040673,95.27334817,14.10088352
0.71499432,-0.23771837,-0.79120742

>  <Name>
2fcy_lig

>  <RI>
9.29634e+06

>  <Rbt.Current_Directory>
/home/itssahil/PROJECTS/Mol_Feturizer/New_Systems/rnas/2fcy

>  <Rbt.Executable>
rbdock ($Id: //depot/dev/client3/rdock/2013.1/src/exe/rbdock.cxx#4 $)

>  <Rbt.Library>
libRbt.so (2013.1, Build901 2013/11/27)

>  <Rbt.Parameter_File>
/export/apps/rDock/src/rDock_2013.1_src/data/scripts/dock_solv.prm

>  <Rbt.Receptor>
prm/blind_docking_100.prm

>  <SCORE>
-3.82297

>  <SCORE.INTER>
-10.078

>  <SCORE.INTER.CONST>
1

>  <SCORE.INTER.POLAR>
-1.09489

>  <SCORE.INTER.ROT>
9

>  <SCORE.INTER.SOLV>
31.6286

>  <SCORE.INTER.VDW>
-23.2119

>  <SCORE.INTER.norm>
-0.239953

>  <SCORE.INTRA>
4.27121

>  <SCORE.INTRA.DIHEDRAL>
1.03388

>  <SCORE.INTRA.DIHEDRAL.0>
17.3446

>  <SCORE.INTRA.POLAR>
0

>  <SCORE.INTRA.POLAR.0>
0

>  <SCORE.INTRA.REPUL>
0

>  <SCORE.INTRA.REPUL.0>
0

>  <SCORE.INTRA.SOLV>
-0.578902

>  <SCORE.INTRA.SOLV.lig_0>
-112.452

>  <SCORE.INTRA.VDW>
4.04372

>  <SCORE.INTRA.VDW.0>
-5.95059

>  <SCORE.INTRA.norm>
0.101695

>  <SCORE.RESTR>
1.98385

>  <SCORE.RESTR.CAVITY>
1.98385

>  <SCORE.RESTR.norm>
0.0472346

>  <SCORE.SYSTEM>
0

>  <SCORE.SYSTEM.CONST>
0

>  <SCORE.SYSTEM.DIHEDRAL>
0

>  <SCORE.SYSTEM.SOLV>
0

>  <SCORE.SYSTEM.norm>
0

>  <SCORE.heavy>
42

>  <SCORE.norm>
-0.091023

>  <RMSD>
8.741

$$$$
2fcy_lig
 OpenBabel11021811433D
libRbt.so/2013.1/901 2013/11/27
 42 45  0  0  0  0  0  0  0  0999 V2000
   -1.1122   89.4564    9.4253 C   0  0  2  0  0  0  0  0  0  0  0  0
   -0.5584   89.7137    8.1236 O   0  0  0  0  0  0  0  0  0  0  0  0
   -0.4606   88.1549    9.8951 C   0  0  2  0  0  0  0  0  0  0  0  0
    0.9992   88.3085    9.8298 N   0  0  0  0  0  0  0  0  0  0  0  0
   -0.8928   87.0063    8.9801 C   0  0  1  0  0  0  0  0  0  0  0  0
   -0.2985   85.7760    9.4029 O   0  0  0  0  0  0  0  0  0  0  0  0
   -2.4177   86.8962    8.9908 C   0  0  2  0  0  0  0  0  0  0  0  0
   -2.8230   85.8892    8.0638 O   0  0  0  0  0  0  0  0  0  0  0  0
   -3.0112   88.2296    8.5337 C   0  0  2  0  0  0  0  0  0  0  0  0
   -2.5436   89.2823    9.3914 O   0  0  0  0  0  0  0  0  0  0  0  0
   -4.5391   88.1346    8.5498 C   0  0  0  0  0  0  0  0  0  0  0  0
   -5.0226   87.2483    7.4806 N   0  0  0  0  0  0  0  0  0  0  0  0
    0.1762   93.1399    5.8067 C   0  0  2  0  0  0  0  0  0  0  0  0
    0.1764   94.4203    5.0832 N   0  0  0  0  0  0  0  0  0  0  0  0
   -1.0240   92.2840    5.3971 C   0  0  0  0  0  0  0  0  0  0  0  0
   -0.8971   90.9184    6.0799 C   0  0  2  0  0  0  0  0  0  0  0  0
   -2.0846   90.1089    5.7706 N   0  0  0  0  0  0  0  0  0  0  0  0
   -0.7943   91.0341    7.6035 C   0  0  2  0  0  0  0  0  0  0  0  0
    0.2248   92.0551    8.0969 C   0  0  2  0  0  0  0  0  0  0  0  0
   -0.1023   92.2905    9.4759 O   0  0  0  0  0  0  0  0  0  0  0  0
    0.1334   93.3744    7.3187 C   0  0  1  0  0  0  0  0  0  0  0  0
    1.2183   94.2421    7.6583 O   0  0  0  0  0  0  0  0  0  0  0  0
    0.7970   93.1528   10.1914 C   0  0  1  0  0  0  0  0  0  0  0  0
    0.0454   93.6972   11.4073 C   0  0  2  0  0  0  0  0  0  0  0  0
   -0.7332   94.8328   11.0224 O   0  0  0  0  0  0  0  0  0  0  0  0
    1.2416   94.1564   12.2359 C   0  0  1  0  0  0  0  0  0  0  0  0
    2.1571   92.9514   12.0872 C   0  0  2  0  0  0  0  0  0  0  0  0
    1.9330   92.4610   10.7493 O   0  0  0  0  0  0  0  0  0  0  0  0
    1.7875   91.9075   13.1472 C   0  0  0  0  0  0  0  0  0  0  0  0
    2.0940   92.3919   14.4578 O   0  0  0  0  0  0  0  0  0  0  0  0
    3.0282   95.6707   12.3511 C   0  0  2  0  0  0  0  0  0  0  0  0
    1.8426   95.3098   11.6261 O   0  0  0  0  0  0  0  0  0  0  0  0
    2.6375   96.2865   13.6984 C   0  0  1  0  0  0  0  0  0  0  0  0
    7.1793   98.1200   11.8850 N   0  0  0  0  0  0  0  0  0  0  0  0
    3.8840   96.7724   14.4457 C   0  0  1  0  0  0  0  0  0  0  0  0
    4.6853   95.6580   14.8514 O   0  0  0  0  0  0  0  0  0  0  0  0
    4.7019   97.6993   13.5423 C   0  0  2  0  0  0  0  0  0  0  0  0
    3.9334   98.8794   13.2848 O   0  0  0  0  0  0  0  0  0  0  0  0
    5.0212   96.9826   12.2260 C   0  0  1  0  0  0  0  0  0  0  0  0
    3.7995   96.5987   11.5681 O   0  0  0  0  0  0  0  0  0  0  0  0
    5.8579   97.8630   11.2938 C   0  0  0  0  0  0  0  0  0  0  0  0
    1.7631   97.4433   13.4525 N   0  0  0  0  0  0  0  0  0  0  0  0
  1  2  1  6  0  0  0
  1  3  1  0  0  0  0
  1 10  1  0  0  0  0
  3  4  1  6  0  0  0
  3  5  1  0  0  0  0
  5  6  1  1  0  0  0
  5  7  1  0  0  0  0
  7  8  1  6  0  0  0
  7  9  1  0  0  0  0
  9 10  1  0  0  0  0
  9 11  1  1  0  0  0
 11 12  1  0  0  0  0
 13 14  1  6  0  0  0
 13 15  1  0  0  0  0
 13 21  1  0  0  0  0
 16 15  1  0  0  0  0
 16 17  1  1  0  0  0
 18  2  1  1  0  0  0
 18 16  1  0  0  0  0
 19 18  1  0  0  0  0
 19 20  1  1  0  0  0
 21 19  1  0  0  0  0
 21 22  1  1  0  0  0
 23 20  1  1  0  0  0
 23 24  1  0  0  0  0
 23 28  1  0  0  0  0
 24 25  1  6  0  0  0
 24 26  1  0  0  0  0
 26 27  1  0  0  0  0
 26 32  1  6  0  0  0
 27 28  1  0  0  0  0
 27 29  1  1  0  0  0
 29 30  1  0  0  0  0
 31 32  1  6  0  0  0
 31 40  1  0  0  0  0
 33 31  1  0  0  0  0
 33 42  1  6  0  0  0
 35 33  1  0  0  0  0
 35 36  1  6  0  0  0
 37 35  1  0  0  0  0
 37 38  1  6  0  0  0
 37 39  1  0  0  0  0
 39 40  1  0  0  0  0
 39 41  1  6  0  0  0
 41 34  1  0  0  0  0
M  END
>  <CHROM.1>
-166.77949652,-70.19163086,-148.19350613,175.35290159,159.05854138,-175.44279123
-67.14512026,-72.40431134,65.07637308,0.77046631,92.54485115,10.13289936
-3.05296792,-1.00885300,-0.94605694

>  <Name>
2fcy_lig

>  <RI>
224

>  <Rbt.Current_Directory>
/home/itssahil/PROJECTS/Mol_Feturizer/New_Systems/rnas/2fcy

>  <Rbt.Executable>
rbdock ($Id: //depot/dev/client3/rdock/2013.1/src/exe/rbdock.cxx#4 $)

>  <Rbt.Library>
libRbt.so (2013.1, Build901 2013/11/27)

>  <Rbt.Parameter_File>
/export/apps/rDock/src/rDock_2013.1_src/data/scripts/dock_solv.prm

>  <Rbt.Receptor>
prm/pocket_docking_6.prm

>  <SCORE>
-16.7573

>  <SCORE.INTER>
-13.7765

>  <SCORE.INTER.CONST>
1

>  <SCORE.INTER.POLAR>
-2.39125

>  <SCORE.INTER.ROT>
9

>  <SCORE.INTER.SOLV>
21.4909

>  <SCORE.INTER.VDW>
-17.9771

>  <SCORE.INTER.norm>
-0.328012

>  <SCORE.INTRA>
-2.98659

>  <SCORE.INTRA.DIHEDRAL>
-8.62343

>  <SCORE.INTRA.DIHEDRAL.0>
17.3446

>  <SCORE.INTRA.POLAR>
0

>  <SCORE.INTRA.POLAR.0>
0

>  <SCORE.INTRA.REPUL>
0

>  <SCORE.INTRA.REPUL.0>
0

>  <SCORE.INTRA.SOLV>
-2.8981

>  <SCORE.INTRA.SOLV.lig_0>
-112.452

>  <SCORE.INTRA.VDW>
2.77418

>  <SCORE.INTRA.VDW.0>
-5.95059

>  <SCORE.INTRA.norm>
-0.0711092

>  <SCORE.RESTR>
0.00584203

>  <SCORE.RESTR.CAVITY>
0.00584203

>  <SCORE.RESTR.norm>
0.000139096

>  <SCORE.SYSTEM>
0

>  <SCORE.SYSTEM.CONST>
0

>  <SCORE.SYSTEM.DIHEDRAL>
0

>  <SCORE.SYSTEM.SOLV>
0

>  <SCORE.SYSTEM.norm>
0

>  <SCORE.heavy>
42

>  <SCORE.norm>
-0.398982

>  <RMSD>
8.745

$$$$
2fcy_lig
 OpenBabel11021811433D
libRbt.so/2013.1/901 2013/11/27
 42 45  0  0  0  0  0  0  0  0999 V2000
   -4.7513   93.9396    6.7435 C   0  0  2  0  0  0  0  0  0  0  0  0
   -4.0893   93.4221    7.9102 O   0  0  0  0  0  0  0  0  0  0  0  0
   -6.1088   93.2366    6.6999 C   0  0  2  0  0  0  0  0  0  0  0  0
   -6.7922   93.4516    7.9827 N   0  0  0  0  0  0  0  0  0  0  0  0
   -5.9016   91.7360    6.4791 C   0  0  1  0  0  0  0  0  0  0  0  0
   -7.1593   91.0566    6.4305 O   0  0  0  0  0  0  0  0  0  0  0  0
   -5.1241   91.5174    5.1809 C   0  0  2  0  0  0  0  0  0  0  0  0
   -4.8482   90.1253    5.0266 O   0  0  0  0  0  0  0  0  0  0  0  0
   -3.7897   92.2588    5.2750 C   0  0  2  0  0  0  0  0  0  0  0  0
   -4.0314   93.6519    5.5272 O   0  0  0  0  0  0  0  0  0  0  0  0
   -3.0059   92.0553    3.9758 C   0  0  0  0  0  0  0  0  0  0  0  0
   -2.5554   90.6615    3.8458 N   0  0  0  0  0  0  0  0  0  0  0  0
   -0.9798   96.2299    7.6036 C   0  0  2  0  0  0  0  0  0  0  0  0
    0.2051   97.0913    7.7334 N   0  0  0  0  0  0  0  0  0  0  0  0
   -1.8522   96.3125    8.8578 C   0  0  0  0  0  0  0  0  0  0  0  0
   -3.1293   95.5033    8.6103 C   0  0  2  0  0  0  0  0  0  0  0  0
   -3.9439   95.4958    9.8339 N   0  0  0  0  0  0  0  0  0  0  0  0
   -2.8354   94.0477    8.2357 C   0  0  2  0  0  0  0  0  0  0  0  0
   -1.7853   93.8709    7.1447 C   0  0  2  0  0  0  0  0  0  0  0  0
   -1.3804   92.4944    7.2191 O   0  0  0  0  0  0  0  0  0  0  0  0
   -0.5662   94.7741    7.3744 C   0  0  1  0  0  0  0  0  0  0  0  0
    0.3121   94.7407    6.2463 O   0  0  0  0  0  0  0  0  0  0  0  0
   -0.2707   92.2172    8.0885 C   0  0  1  0  0  0  0  0  0  0  0  0
   -0.8293   92.0030    9.4963 C   0  0  2  0  0  0  0  0  0  0  0  0
   -1.0132   93.2670   10.1381 O   0  0  0  0  0  0  0  0  0  0  0  0
    0.3663   91.2855   10.1160 C   0  0  1  0  0  0  0  0  0  0  0  0
    0.6935   90.2929    9.0116 C   0  0  2  0  0  0  0  0  0  0  0  0
    0.4074   90.9828    7.7775 O   0  0  0  0  0  0  0  0  0  0  0  0
   -0.1806   89.0454    9.1840 C   0  0  0  0  0  0  0  0  0  0  0  0
    0.2500   88.2826   10.3150 O   0  0  0  0  0  0  0  0  0  0  0  0
    1.3519   92.8344   11.5748 C   0  0  2  0  0  0  0  0  0  0  0  0
    1.4536   92.2087   10.2865 O   0  0  0  0  0  0  0  0  0  0  0  0
    2.0671   94.1890   11.5444 C   0  0  1  0  0  0  0  0  0  0  0  0
    1.9505   91.9125   16.2765 N   0  0  0  0  0  0  0  0  0  0  0  0
    2.0591   94.8290   12.9368 C   0  0  1  0  0  0  0  0  0  0  0  0
    0.7277   95.2059   13.3023 O   0  0  0  0  0  0  0  0  0  0  0  0
    2.6207   93.8425   13.9643 C   0  0  2  0  0  0  0  0  0  0  0  0
    4.0011   93.6091   13.6650 O   0  0  0  0  0  0  0  0  0  0  0  0
    1.8380   92.5269   13.8938 C   0  0  1  0  0  0  0  0  0  0  0  0
    1.9315   91.9713   12.5689 O   0  0  0  0  0  0  0  0  0  0  0  0
    2.3494   91.5115   14.9194 C   0  0  0  0  0  0  0  0  0  0  0  0
    3.4647   93.9755   11.1394 N   0  0  0  0  0  0  0  0  0  0  0  0
  1  2  1  1  0  0  0
  1  3  1  0  0  0  0
  1 10  1  0  0  0  0
  3  4  1  1  0  0  0
  3  5  1  0  0  0  0
  5  6  1  6  0  0  0
  5  7  1  0  0  0  0
  7  8  1  1  0  0  0
  7  9  1  0  0  0  0
  9 10  1  0  0  0  0
  9 11  1  6  0  0  0
 11 12  1  0  0  0  0
 13 14  1  1  0  0  0
 13 15  1  0  0  0  0
 13 21  1  0  0  0  0
 16 15  1  0  0  0  0
 16 17  1  1  0  0  0
 18  2  1  6  0  0  0
 18 16  1  0  0  0  0
 19 18  1  0  0  0  0
 19 20  1  1  0  0  0
 21 19  1  0  0  0  0
 21 22  1  6  0  0  0
 23 20  1  6  0  0  0
 23 24  1  0  0  0  0
 23 28  1  0  0  0  0
 24 25  1  1  0  0  0
 24 26  1  0  0  0  0
 26 27  1  0  0  0  0
 26 32  1  6  0  0  0
 27 28  1  0  0  0  0
 27 29  1  1  0  0  0
 29 30  1  0  0  0  0
 31 32  1  6  0  0  0
 31 40  1  0  0  0  0
 33 31  1  0  0  0  0
 33 42  1  1  0  0  0
 35 33  1  0  0  0  0
 35 36  1  1  0  0  0
 37 35  1  0  0  0  0
 37 38  1  6  0  0  0
 37 39  1  0  0  0  0
 39 40  1  0  0  0  0
 39 41  1  1  0  0  0
 41 34  1  0  0  0  0
M  END
>  <CHROM.1>
-173.82910843,-69.01398472,65.21978412,-90.32962372,86.52738273,89.42966124
-71.80834201,-155.37455044,72.26753859,-1.15302121,92.91143743,9.05000656
3.00218864,0.80196711,-3.01440790

>  <Name>
2fcy_lig

>  <RI>
1.56845e+07

>  <Rbt.Current_Directory>
/home/itssahil/PROJECTS/Mol_Feturizer/New_Systems/rnas/2fcy

>  <Rbt.Executable>
rbdock ($Id: //depot/dev/client3/rdock/2013.1/src/exe/rbdock.cxx#4 $)

>  <Rbt.Library>
libRbt.so (2013.1, Build901 2013/11/27)

>  <Rbt.Parameter_File>
/export/apps/rDock/src/rDock_2013.1_src/data/scripts/dock_solv.prm

>  <Rbt.Receptor>
prm/pocket_docking_4.prm

>  <SCORE>
-9.32431

>  <SCORE.INTER>
-11.3806

>  <SCORE.INTER.CONST>
1

>  <SCORE.INTER.POLAR>
-2.77723

>  <SCORE.INTER.ROT>
9

>  <SCORE.INTER.SOLV>
16.0974

>  <SCORE.INTER.VDW>
-13.2955

>  <SCORE.INTER.norm>
-0.270966

>  <SCORE.INTRA>
2.05628

>  <SCORE.INTRA.DIHEDRAL>
-2.77025

>  <SCORE.INTRA.DIHEDRAL.0>
17.3446

>  <SCORE.INTRA.POLAR>
0

>  <SCORE.INTRA.POLAR.0>
0

>  <SCORE.INTRA.REPUL>
0

>  <SCORE.INTRA.REPUL.0>
0

>  <SCORE.INTRA.SOLV>
-2.35627

>  <SCORE.INTRA.SOLV.lig_0>
-112.452

>  <SCORE.INTRA.VDW>
4.61954

>  <SCORE.INTRA.VDW.0>
-5.95059

>  <SCORE.INTRA.norm>
0.048959

>  <SCORE.RESTR>
0

>  <SCORE.RESTR.CAVITY>
0

>  <SCORE.RESTR.norm>
0

>  <SCORE.SYSTEM>
0

>  <SCORE.SYSTEM.CONST>
0

>  <SCORE.SYSTEM.DIHEDRAL>
0

>  <SCORE.SYSTEM.SOLV>
0

>  <SCORE.SYSTEM.norm>
0

>  <SCORE.heavy>
42

>  <SCORE.norm>
-0.222007

>  <RMSD>
8.748

$$$$
2fcy_lig
 OpenBabel11021811433D
libRbt.so/2013.1/901 2013/11/27
 42 45  0  0  0  0  0  0  0  0999 V2000
   -1.1367   92.4702   10.7263 C   0  0  2  0  0  0  0  0  0  0  0  0
   -1.4061   92.6863    9.3306 O   0  0  0  0  0  0  0  0  0  0  0  0
   -0.0672   91.3779   10.7704 C   0  0  2  0  0  0  0  0  0  0  0  0
    1.0737   91.8020    9.9475 N   0  0  0  0  0  0  0  0  0  0  0  0
   -0.6425   90.0749   10.2096 C   0  0  1  0  0  0  0  0  0  0  0  0
    0.3396   89.0356   10.2446 O   0  0  0  0  0  0  0  0  0  0  0  0
   -1.8752   89.6745   11.0209 C   0  0  2  0  0  0  0  0  0  0  0  0
   -2.4657   88.5134   10.4370 O   0  0  0  0  0  0  0  0  0  0  0  0
   -2.8971   90.8107   10.9572 C   0  0  2  0  0  0  0  0  0  0  0  0
   -2.3008   92.0207   11.4498 O   0  0  0  0  0  0  0  0  0  0  0  0
   -4.1327   90.4252   11.7748 C   0  0  0  0  0  0  0  0  0  0  0  0
   -5.1708   91.4624   11.6804 N   0  0  0  0  0  0  0  0  0  0  0  0
   -1.2426   96.3646    7.3082 C   0  0  2  0  0  0  0  0  0  0  0  0
   -1.4349   97.7010    6.7252 N   0  0  0  0  0  0  0  0  0  0  0  0
   -2.4131   95.4442    6.9565 C   0  0  0  0  0  0  0  0  0  0  0  0
   -2.0935   94.0387    7.4755 C   0  0  2  0  0  0  0  0  0  0  0  0
   -3.2425   93.1563    7.2261 N   0  0  0  0  0  0  0  0  0  0  0  0
   -1.8094   94.0220    8.9803 C   0  0  2  0  0  0  0  0  0  0  0  0
   -0.8206   95.0817    9.4531 C   0  0  2  0  0  0  0  0  0  0  0  0
   -0.9894   95.1579   10.8778 O   0  0  0  0  0  0  0  0  0  0  0  0
   -1.1134   96.4534    8.8308 C   0  0  1  0  0  0  0  0  0  0  0  0
   -0.0667   97.3814    9.1281 O   0  0  0  0  0  0  0  0  0  0  0  0
    0.0482   95.8487   11.5923 C   0  0  1  0  0  0  0  0  0  0  0  0
   -0.4128   96.0013   13.0428 C   0  0  2  0  0  0  0  0  0  0  0  0
   -1.2555   97.1500   13.1611 O   0  0  0  0  0  0  0  0  0  0  0  0
    0.9387   96.2917   13.6888 C   0  0  1  0  0  0  0  0  0  0  0  0
    1.7960   95.2275   13.0220 C   0  0  2  0  0  0  0  0  0  0  0  0
    1.2787   95.1015   11.6814 O   0  0  0  0  0  0  0  0  0  0  0  0
    1.6698   93.9174   13.8081 C   0  0  0  0  0  0  0  0  0  0  0  0
    2.5338   92.9176   13.2601 O   0  0  0  0  0  0  0  0  0  0  0  0
    2.5541   97.9478   14.0718 C   0  0  2  0  0  0  0  0  0  0  0  0
    1.3909   97.6001   13.3052 O   0  0  0  0  0  0  0  0  0  0  0  0
    2.8106   99.4540   13.9591 C   0  0  1  0  0  0  0  0  0  0  0  0
    7.2200   96.7804   14.6719 N   0  0  0  0  0  0  0  0  0  0  0  0
    4.1056   99.8316   14.6864 C   0  0  1  0  0  0  0  0  0  0  0  0
    3.9486   99.6634   16.0990 O   0  0  0  0  0  0  0  0  0  0  0  0
    5.2569   98.9566   14.1834 C   0  0  2  0  0  0  0  0  0  0  0  0
    5.4952   99.2645   12.8057 O   0  0  0  0  0  0  0  0  0  0  0  0
    4.8820   97.4784   14.3342 C   0  0  1  0  0  0  0  0  0  0  0  0
    3.6827   97.1984   13.5885 O   0  0  0  0  0  0  0  0  0  0  0  0
    6.0124   96.5596   13.8628 C   0  0  0  0  0  0  0  0  0  0  0  0
    2.9576   99.8025   12.5378 N   0  0  0  0  0  0  0  0  0  0  0  0
  1  2  1  6  0  0  0
  1  3  1  0  0  0  0
  1 10  1  0  0  0  0
  3  4  1  6  0  0  0
  3  5  1  0  0  0  0
  5  6  1  1  0  0  0
  5  7  1  0  0  0  0
  7  8  1  6  0  0  0
  7  9  1  0  0  0  0
  9 10  1  0  0  0  0
  9 11  1  1  0  0  0
 11 12  1  0  0  0  0
 13 14  1  1  0  0  0
 13 15  1  0  0  0  0
 13 21  1  0  0  0  0
 16 15  1  0  0  0  0
 16 17  1  1  0  0  0
 18  2  1  6  0  0  0
 18 16  1  0  0  0  0
 19 18  1  0  0  0  0
 19 20  1  1  0  0  0
 21 19  1  0  0  0  0
 21 22  1  6  0  0  0
 23 20  1  6  0  0  0
 23 24  1  0  0  0  0
 23 28  1  0  0  0  0
 24 25  1  6  0  0  0
 24 26  1  0  0  0  0
 26 27  1  0  0  0  0
 26 32  1  6  0  0  0
 27 28  1  0  0  0  0
 27 29  1  1  0  0  0
 29 30  1  0  0  0  0
 31 32  1  6  0  0  0
 31 40  1  0  0  0  0
 33 31  1  0  0  0  0
 33 42  1  6  0  0  0
 35 33  1  0  0  0  0
 35 36  1  1  0  0  0
 37 35  1  0  0  0  0
 37 38  1  6  0  0  0
 37 39  1  0  0  0  0
 39 40  1  0  0  0  0
 39 41  1  6  0  0  0
 41 34  1  0  0  0  0
M  END
>  <CHROM.1>
-149.72670233,-176.97073823,-178.10811505,165.53104579,171.75498710,171.26372352
-176.13482216,-164.53108831,61.26806332,0.51447012,94.94794234,11.51698511
-2.64842166,-0.77544755,-0.34751407

>  <Name>
2fcy_lig

>  <RI>
2.89127e+07

>  <Rbt.Current_Directory>
/home/itssahil/PROJECTS/Mol_Feturizer/New_Systems/rnas/2fcy

>  <Rbt.Executable>
rbdock ($Id: //depot/dev/client3/rdock/2013.1/src/exe/rbdock.cxx#4 $)

>  <Rbt.Library>
libRbt.so (2013.1, Build901 2013/11/27)

>  <Rbt.Parameter_File>
/export/apps/rDock/src/rDock_2013.1_src/data/scripts/dock_solv.prm

>  <Rbt.Receptor>
prm/pocket_docking_7.prm

>  <SCORE>
-13.9259

>  <SCORE.INTER>
-8.90135

>  <SCORE.INTER.CONST>
1

>  <SCORE.INTER.POLAR>
-1.85291

>  <SCORE.INTER.ROT>
9

>  <SCORE.INTER.SOLV>
14.3337

>  <SCORE.INTER.VDW>
-14.1358

>  <SCORE.INTER.norm>
-0.211937

>  <SCORE.INTRA>
-5.02457

>  <SCORE.INTRA.DIHEDRAL>
-10.1679

>  <SCORE.INTRA.DIHEDRAL.0>
17.3446

>  <SCORE.INTRA.POLAR>
0

>  <SCORE.INTRA.POLAR.0>
0

>  <SCORE.INTRA.REPUL>
0

>  <SCORE.INTRA.REPUL.0>
0

>  <SCORE.INTRA.SOLV>
-4.3659

>  <SCORE.INTRA.SOLV.lig_0>
-112.452

>  <SCORE.INTRA.VDW>
2.24234

>  <SCORE.INTRA.VDW.0>
-5.95059

>  <SCORE.INTRA.norm>
-0.119633

>  <SCORE.RESTR>
0

>  <SCORE.RESTR.CAVITY>
0

>  <SCORE.RESTR.norm>
0

>  <SCORE.SYSTEM>
0

>  <SCORE.SYSTEM.CONST>
0

>  <SCORE.SYSTEM.DIHEDRAL>
0

>  <SCORE.SYSTEM.SOLV>
0

>  <SCORE.SYSTEM.norm>
0

>  <SCORE.heavy>
42

>  <SCORE.norm>
-0.33157

>  <RMSD>
8.755

$$$$
2fcy_lig
 OpenBabel11021811433D
libRbt.so/2013.1/901 2013/11/27
 42 45  0  0  0  0  0  0  0  0999 V2000
   -2.3195   90.8279    7.4415 C   0  0  2  0  0  0  0  0  0  0  0  0
   -1.7649   91.7958    6.5344 O   0  0  0  0  0  0  0  0  0  0  0  0
   -2.3518   89.5119    6.6630 C   0  0  2  0  0  0  0  0  0  0  0  0
   -1.0010   89.2293    6.1588 N   0  0  0  0  0  0  0  0  0  0  0  0
   -3.3190   89.6383    5.4832 C   0  0  1  0  0  0  0  0  0  0  0  0
   -3.3695   88.4165    4.7413 O   0  0  0  0  0  0  0  0  0  0  0  0
   -4.7085   90.0065    6.0042 C   0  0  2  0  0  0  0  0  0  0  0  0
   -5.5848   90.2185    4.8974 O   0  0  0  0  0  0  0  0  0  0  0  0
   -4.6093   91.3152    6.7894 C   0  0  2  0  0  0  0  0  0  0  0  0
   -3.6594   91.1643    7.8559 O   0  0  0  0  0  0  0  0  0  0  0  0
   -5.9939   91.6892    7.3250 C   0  0  0  0  0  0  0  0  0  0  0  0
   -5.9543   92.9783    8.0317 N   0  0  0  0  0  0  0  0  0  0  0  0
    0.3635   95.2820    7.5155 C   0  0  2  0  0  0  0  0  0  0  0  0
    0.8551   96.6029    7.9358 N   0  0  0  0  0  0  0  0  0  0  0  0
   -0.7108   95.4202    6.4350 C   0  0  0  0  0  0  0  0  0  0  0  0
   -1.0855   94.0174    5.9462 C   0  0  2  0  0  0  0  0  0  0  0  0
   -2.1792   94.1199    4.9693 N   0  0  0  0  0  0  0  0  0  0  0  0
   -1.5593   93.1091    7.0845 C   0  0  2  0  0  0  0  0  0  0  0  0
   -0.6542   93.1014    8.3114 C   0  0  2  0  0  0  0  0  0  0  0  0
   -1.4427   92.5314    9.3684 O   0  0  0  0  0  0  0  0  0  0  0  0
   -0.2182   94.5183    8.7076 C   0  0  1  0  0  0  0  0  0  0  0  0
    0.7803   94.4765    9.7305 O   0  0  0  0  0  0  0  0  0  0  0  0
   -0.7275   91.7120   10.3072 C   0  0  1  0  0  0  0  0  0  0  0  0
   -1.5829   91.6033   11.5706 C   0  0  2  0  0  0  0  0  0  0  0  0
   -1.3604   92.7451   12.4016 O   0  0  0  0  0  0  0  0  0  0  0  0
   -0.9205   90.3798   12.1974 C   0  0  1  0  0  0  0  0  0  0  0  0
   -0.8168   89.4713   10.9825 C   0  0  2  0  0  0  0  0  0  0  0  0
   -0.5589   90.3489    9.8671 O   0  0  0  0  0  0  0  0  0  0  0  0
   -2.1351   88.7069   10.8144 C   0  0  0  0  0  0  0  0  0  0  0  0
   -2.0605   87.8164    9.6974 O   0  0  0  0  0  0  0  0  0  0  0  0
    0.2812   91.4708   13.8897 C   0  0  2  0  0  0  0  0  0  0  0  0
    0.3921   90.7241   12.6684 O   0  0  0  0  0  0  0  0  0  0  0  0
    1.6091   91.4077   14.6512 C   0  0  1  0  0  0  0  0  0  0  0  0
   -3.4263   91.4020   15.8790 N   0  0  0  0  0  0  0  0  0  0  0  0
    1.4824   92.1126   16.0060 C   0  0  1  0  0  0  0  0  0  0  0  0
    1.3158   93.5217   15.8187 O   0  0  0  0  0  0  0  0  0  0  0  0
    0.2864   91.5455   16.7758 C   0  0  2  0  0  0  0  0  0  0  0  0
    0.5542   90.1744   17.0884 O   0  0  0  0  0  0  0  0  0  0  0  0
   -0.9759   91.6512   15.9134 C   0  0  1  0  0  0  0  0  0  0  0  0
   -0.7900   90.9289   14.6819 O   0  0  0  0  0  0  0  0  0  0  0  0
   -2.2070   91.1146   16.6488 C   0  0  0  0  0  0  0  0  0  0  0  0
    1.9484   89.9970   14.8916 N   0  0  0  0  0  0  0  0  0  0  0  0
  1  2  1  6  0  0  0
  1  3  1  0  0  0  0
  1 10  1  0  0  0  0
  3  4  1  6  0  0  0
  3  5  1  0  0  0  0
  5  6  1  1  0  0  0
  5  7  1  0  0  0  0
  7  8  1  6  0  0  0
  7  9  1  0  0  0  0
  9 10  1  0  0  0  0
  9 11  1  1  0  0  0
 11 12  1  0  0  0  0
 13 14  1  1  0  0  0
 13 15  1  0  0  0  0
 13 21  1  0  0  0  0
 16 15  1  0  0  0  0
 16 17  1  6  0  0  0
 18  2  1  6  0  0  0
 18 16  1  0  0  0  0
 19 18  1  0  0  0  0
 19 20  1  1  0  0  0
 21 19  1  0  0  0  0
 21 22  1  1  0  0  0
 23 20  1  6  0  0  0
 23 24  1  0  0  0  0
 23 28  1  0  0  0  0
 24 25  1  1  0  0  0
 24 26  1  0  0  0  0
 26 27  1  0  0  0  0
 26 32  1  6  0  0  0
 27 28  1  0  0  0  0
 27 29  1  6  0  0  0
 29 30  1  0  0  0  0
 31 32  1  6  0  0  0
 31 40  1  0  0  0  0
 33 31  1  0  0  0  0
 33 42  1  1  0  0  0
 35 33  1  0  0  0  0
 35 36  1  6  0  0  0
 37 35  1  0  0  0  0
 37 38  1  6  0  0  0
 37 39  1  0  0  0  0
 39 40  1  0  0  0  0
 39 41  1  1  0  0  0
 41 34  1  0  0  0  0
M  END
>  <CHROM.1>
-176.27297661,-177.22277690,-175.11502228,144.63780049,160.93810456,76.03412134
-178.57575557,159.75720266,171.97575380,-1.43835964,91.61410919,10.17138212
2.13853768,-0.92958903,-1.07810818

>  <Name>
2fcy_lig

>  <RI>
224

>  <Rbt.Current_Directory>
/home/itssahil/PROJECTS/Mol_Feturizer/New_Systems/rnas/2fcy

>  <Rbt.Executable>
rbdock ($Id: //depot/dev/client3/rdock/2013.1/src/exe/rbdock.cxx#4 $)

>  <Rbt.Library>
libRbt.so (2013.1, Build901 2013/11/27)

>  <Rbt.Parameter_File>
/export/apps/rDock/src/rDock_2013.1_src/data/scripts/dock_solv.prm

>  <Rbt.Receptor>
prm/pocket_docking_6.prm

>  <SCORE>
-14.8566

>  <SCORE.INTER>
-12.8076

>  <SCORE.INTER.CONST>
1

>  <SCORE.INTER.POLAR>
-1.73227

>  <SCORE.INTER.ROT>
9

>  <SCORE.INTER.SOLV>
21.8704

>  <SCORE.INTER.VDW>
-19.6543

>  <SCORE.INTER.norm>
-0.304943

>  <SCORE.INTRA>
-2.04903

>  <SCORE.INTRA.DIHEDRAL>
-7.10279

>  <SCORE.INTRA.DIHEDRAL.0>
17.3446

>  <SCORE.INTRA.POLAR>
0

>  <SCORE.INTRA.POLAR.0>
0

>  <SCORE.INTRA.REPUL>
0

>  <SCORE.INTRA.REPUL.0>
0

>  <SCORE.INTRA.SOLV>
-4.54343

>  <SCORE.INTRA.SOLV.lig_0>
-112.452

>  <SCORE.INTRA.VDW>
3.77408

>  <SCORE.INTRA.VDW.0>
-5.95059

>  <SCORE.INTRA.norm>
-0.0487865

>  <SCORE.RESTR>
0

>  <SCORE.RESTR.CAVITY>
0

>  <SCORE.RESTR.norm>
0

>  <SCORE.SYSTEM>
0

>  <SCORE.SYSTEM.CONST>
0

>  <SCORE.SYSTEM.DIHEDRAL>
0

>  <SCORE.SYSTEM.SOLV>
0

>  <SCORE.SYSTEM.norm>
0

>  <SCORE.heavy>
42

>  <SCORE.norm>
-0.353729

>  <RMSD>
8.759

$$$$
2fcy_lig
 OpenBabel11021811433D
libRbt.so/2013.1/901 2013/11/27
 42 45  0  0  0  0  0  0  0  0999 V2000
   -4.1789   94.7746    7.0366 C   0  0  2  0  0  0  0  0  0  0  0  0
   -3.9177   94.1098    8.2845 O   0  0  0  0  0  0  0  0  0  0  0  0
   -5.6934   94.6919    6.8402 C   0  0  2  0  0  0  0  0  0  0  0  0
   -6.3537   95.2548    8.0259 N   0  0  0  0  0  0  0  0  0  0  0  0
   -6.1090   93.2282    6.6732 C   0  0  1  0  0  0  0  0  0  0  0  0
   -7.5230   93.1256    6.4835 O   0  0  0  0  0  0  0  0  0  0  0  0
   -5.3636   92.6222    5.4837 C   0  0  2  0  0  0  0  0  0  0  0  0
   -5.6789   91.2332    5.3892 O   0  0  0  0  0  0  0  0  0  0  0  0
   -3.8592   92.7526    5.7268 C   0  0  2  0  0  0  0  0  0  0  0  0
   -3.5228   94.1350    5.9227 O   0  0  0  0  0  0  0  0  0  0  0  0
   -3.1017   92.1578    4.5368 C   0  0  0  0  0  0  0  0  0  0  0  0
   -3.3170   92.9587    3.3224 N   0  0  0  0  0  0  0  0  0  0  0  0
    0.0831   95.3897    8.3197 C   0  0  2  0  0  0  0  0  0  0  0  0
    1.4928   95.7133    8.5863 N   0  0  0  0  0  0  0  0  0  0  0  0
   -0.8202   95.9447    9.4227 C   0  0  0  0  0  0  0  0  0  0  0  0
   -2.2778   95.6933    9.0236 C   0  0  2  0  0  0  0  0  0  0  0  0
   -3.1624   96.1399   10.1094 N   0  0  0  0  0  0  0  0  0  0  0  0
   -2.5659   94.2114    8.7658 C   0  0  2  0  0  0  0  0  0  0  0  0
   -1.5599   93.5166    7.8550 C   0  0  2  0  0  0  0  0  0  0  0  0
   -1.7684   92.1090    8.0536 O   0  0  0  0  0  0  0  0  0  0  0  0
   -0.1140   93.8749    8.2235 C   0  0  1  0  0  0  0  0  0  0  0  0
    0.7999   93.3756    7.2435 O   0  0  0  0  0  0  0  0  0  0  0  0
   -1.1771   91.5525    9.2390 C   0  0  1  0  0  0  0  0  0  0  0  0
   -2.3041   91.2983   10.2415 C   0  0  2  0  0  0  0  0  0  0  0  0
   -2.5940   92.5029   10.9547 O   0  0  0  0  0  0  0  0  0  0  0  0
   -1.5811   90.3211   11.1638 C   0  0  1  0  0  0  0  0  0  0  0  0
   -0.9333   89.4040   10.1384 C   0  0  2  0  0  0  0  0  0  0  0  0
   -0.5818   90.2557    9.0286 O   0  0  0  0  0  0  0  0  0  0  0  0
   -1.9377   88.3200    9.7304 C   0  0  0  0  0  0  0  0  0  0  0  0
   -1.3975   87.0178    9.9726 O   0  0  0  0  0  0  0  0  0  0  0  0
   -0.7939   90.8157   13.3165 C   0  0  2  0  0  0  0  0  0  0  0  0
   -0.5702   91.0148   11.9124 O   0  0  0  0  0  0  0  0  0  0  0  0
   -1.2872   92.1219   13.9472 C   0  0  1  0  0  0  0  0  0  0  0  0
    1.3730   89.1811   17.3303 N   0  0  0  0  0  0  0  0  0  0  0  0
   -1.4353   91.9606   15.4639 C   0  0  1  0  0  0  0  0  0  0  0  0
   -2.5087   91.0632   15.7652 O   0  0  0  0  0  0  0  0  0  0  0  0
   -0.1292   91.4272   16.0587 C   0  0  2  0  0  0  0  0  0  0  0  0
    0.8896   92.4175   15.8830 O   0  0  0  0  0  0  0  0  0  0  0  0
    0.2687   90.1314   15.3441 C   0  0  1  0  0  0  0  0  0  0  0  0
    0.4289   90.3782   13.9348 O   0  0  0  0  0  0  0  0  0  0  0  0
    1.5615   89.5455   15.9184 C   0  0  0  0  0  0  0  0  0  0  0  0
   -0.2948   93.1756   13.6868 N   0  0  0  0  0  0  0  0  0  0  0  0
  1  2  1  1  0  0  0
  1  3  1  0  0  0  0
  1 10  1  0  0  0  0
  3  4  1  1  0  0  0
  3  5  1  0  0  0  0
  5  6  1  6  0  0  0
  5  7  1  0  0  0  0
  7  8  1  1  0  0  0
  7  9  1  0  0  0  0
  9 10  1  0  0  0  0
  9 11  1  6  0  0  0
 11 12  1  0  0  0  0
 13 14  1  1  0  0  0
 13 15  1  0  0  0  0
 13 21  1  0  0  0  0
 16 15  1  0  0  0  0
 16 17  1  1  0  0  0
 18  2  1  6  0  0  0
 18 16  1  0  0  0  0
 19 18  1  0  0  0  0
 19 20  1  1  0  0  0
 21 19  1  0  0  0  0
 21 22  1  6  0  0  0
 23 20  1  6  0  0  0
 23 24  1  0  0  0  0
 23 28  1  0  0  0  0
 24 25  1  1  0  0  0
 24 26  1  0  0  0  0
 26 27  1  0  0  0  0
 26 32  1  6  0  0  0
 27 28  1  0  0  0  0
 27 29  1  6  0  0  0
 29 30  1  0  0  0  0
 31 32  1  6  0  0  0
 31 40  1  0  0  0  0
 33 31  1  0  0  0  0
 33 42  1  1  0  0  0
 35 33  1  0  0  0  0
 35 36  1  6  0  0  0
 37 35  1  0  0  0  0
 37 38  1  6  0  0  0
 37 39  1  0  0  0  0
 39 40  1  0  0  0  0
 39 41  1  1  0  0  0
 41 34  1  0  0  0  0
M  END
>  <CHROM.1>
-172.37106123,66.82919384,62.61570693,-79.30143735,105.48761893,123.78369982
-122.92415489,-108.93118553,62.76466815,-1.98999594,92.36738165,9.95935662
-2.59314307,1.05406023,2.85350916

>  <Name>
2fcy_lig

>  <RI>
1.56845e+07

>  <Rbt.Current_Directory>
/home/itssahil/PROJECTS/Mol_Feturizer/New_Systems/rnas/2fcy

>  <Rbt.Executable>
rbdock ($Id: //depot/dev/client3/rdock/2013.1/src/exe/rbdock.cxx#4 $)

>  <Rbt.Library>
libRbt.so (2013.1, Build901 2013/11/27)

>  <Rbt.Parameter_File>
/export/apps/rDock/src/rDock_2013.1_src/data/scripts/dock_solv.prm

>  <Rbt.Receptor>
prm/pocket_docking_4.prm

>  <SCORE>
-6.05004

>  <SCORE.INTER>
-13.004

>  <SCORE.INTER.CONST>
1

>  <SCORE.INTER.POLAR>
-2.42133

>  <SCORE.INTER.ROT>
9

>  <SCORE.INTER.SOLV>
16.1285

>  <SCORE.INTER.VDW>
-15.5744

>  <SCORE.INTER.norm>
-0.30962

>  <SCORE.INTRA>
6.92467

>  <SCORE.INTRA.DIHEDRAL>
9.81078

>  <SCORE.INTRA.DIHEDRAL.0>
17.3446

>  <SCORE.INTRA.POLAR>
0

>  <SCORE.INTRA.POLAR.0>
0

>  <SCORE.INTRA.REPUL>
0

>  <SCORE.INTRA.REPUL.0>
0

>  <SCORE.INTRA.SOLV>
-2.02835

>  <SCORE.INTRA.SOLV.lig_0>
-112.452

>  <SCORE.INTRA.VDW>
3.03346

>  <SCORE.INTRA.VDW.0>
-5.95059

>  <SCORE.INTRA.norm>
0.164873

>  <SCORE.RESTR>
0.0293166

>  <SCORE.RESTR.CAVITY>
0.0293166

>  <SCORE.RESTR.norm>
0.000698013

>  <SCORE.SYSTEM>
0

>  <SCORE.SYSTEM.CONST>
0

>  <SCORE.SYSTEM.DIHEDRAL>
0

>  <SCORE.SYSTEM.SOLV>
0

>  <SCORE.SYSTEM.norm>
0

>  <SCORE.heavy>
42

>  <SCORE.norm>
-0.144049

>  <RMSD>
8.760

$$$$
2fcy_lig
 OpenBabel11021811433D
libRbt.so/2013.1/901 2013/11/27
 42 45  0  0  0  0  0  0  0  0999 V2000
    0.8559   94.7505   10.2338 C   0  0  2  0  0  0  0  0  0  0  0  0
    1.9528   95.5160    9.7066 O   0  0  0  0  0  0  0  0  0  0  0  0
    0.4201   93.8262    9.0959 C   0  0  2  0  0  0  0  0  0  0  0  0
    1.5869   93.0587    8.6394 N   0  0  0  0  0  0  0  0  0  0  0  0
   -0.1237   94.6635    7.9356 C   0  0  1  0  0  0  0  0  0  0  0  0
   -0.5422   93.8195    6.8594 O   0  0  0  0  0  0  0  0  0  0  0  0
   -1.2907   95.5184    8.4308 C   0  0  2  0  0  0  0  0  0  0  0  0
   -1.7332   96.3684    7.3729 O   0  0  0  0  0  0  0  0  0  0  0  0
   -0.8010   96.4032    9.5783 C   0  0  2  0  0  0  0  0  0  0  0  0
   -0.2590   95.5791   10.6222 O   0  0  0  0  0  0  0  0  0  0  0  0
   -1.9642   97.2572   10.0895 C   0  0  0  0  0  0  0  0  0  0  0  0
   -2.9877   96.4208   10.7339 N   0  0  0  0  0  0  0  0  0  0  0  0
    5.1536   97.4223   11.6476 C   0  0  2  0  0  0  0  0  0  0  0  0
    6.0717   98.2471   12.4475 N   0  0  0  0  0  0  0  0  0  0  0  0
    4.2893   98.2972   10.7375 C   0  0  0  0  0  0  0  0  0  0  0  0
    3.4536   97.3796    9.8393 C   0  0  2  0  0  0  0  0  0  0  0  0
    2.5507   98.1971    9.0163 N   0  0  0  0  0  0  0  0  0  0  0  0
    2.5943   96.3996   10.6433 C   0  0  2  0  0  0  0  0  0  0  0  0
    3.3403   95.6540   11.7442 C   0  0  2  0  0  0  0  0  0  0  0  0
    2.3221   95.1123   12.6009 O   0  0  0  0  0  0  0  0  0  0  0  0
    4.2446   96.5908   12.5561 C   0  0  1  0  0  0  0  0  0  0  0  0
    5.0789   95.8468   13.4479 O   0  0  0  0  0  0  0  0  0  0  0  0
    2.6390   93.8607   13.2313 C   0  0  1  0  0  0  0  0  0  0  0  0
    1.6935   93.6908   14.4216 C   0  0  2  0  0  0  0  0  0  0  0  0
    2.2155   94.3903   15.5539 O   0  0  0  0  0  0  0  0  0  0  0  0
    1.8514   92.1880   14.6336 C   0  0  1  0  0  0  0  0  0  0  0  0
    1.7461   91.6959   13.1987 C   0  0  2  0  0  0  0  0  0  0  0  0
    2.3767   92.7148   12.3956 O   0  0  0  0  0  0  0  0  0  0  0  0
    0.2669   91.5183   12.8372 C   0  0  0  0  0  0  0  0  0  0  0  0
   -0.2988   90.4212   13.5602 O   0  0  0  0  0  0  0  0  0  0  0  0
    3.0368   91.0921   16.3343 C   0  0  2  0  0  0  0  0  0  0  0  0
    3.1588   91.9045   15.1568 O   0  0  0  0  0  0  0  0  0  0  0  0
    2.8719   89.6238   15.9290 C   0  0  1  0  0  0  0  0  0  0  0  0
    0.9094   92.7935   19.4746 N   0  0  0  0  0  0  0  0  0  0  0  0
    2.6379   88.7507   17.1664 C   0  0  1  0  0  0  0  0  0  0  0  0
    3.8201   88.7040   17.9717 O   0  0  0  0  0  0  0  0  0  0  0  0
    1.4729   89.3134   17.9853 C   0  0  2  0  0  0  0  0  0  0  0  0
    0.2741   89.1984   17.2112 O   0  0  0  0  0  0  0  0  0  0  0  0
    1.7436   90.7842   18.3195 C   0  0  1  0  0  0  0  0  0  0  0  0
    1.9085   91.5404   17.1056 O   0  0  0  0  0  0  0  0  0  0  0  0
    0.6139   91.3885   19.1578 C   0  0  0  0  0  0  0  0  0  0  0  0
    1.6993   89.5062   15.0490 N   0  0  0  0  0  0  0  0  0  0  0  0
  1  2  1  6  0  0  0
  1  3  1  0  0  0  0
  1 10  1  0  0  0  0
  3  4  1  6  0  0  0
  3  5  1  0  0  0  0
  5  6  1  6  0  0  0
  5  7  1  0  0  0  0
  7  8  1  6  0  0  0
  7  9  1  0  0  0  0
  9 10  1  0  0  0  0
  9 11  1  1  0  0  0
 11 12  1  0  0  0  0
 13 14  1  1  0  0  0
 13 15  1  0  0  0  0
 13 21  1  0  0  0  0
 16 15  1  0  0  0  0
 16 17  1  1  0  0  0
 18  2  1  6  0  0  0
 18 16  1  0  0  0  0
 19 18  1  0  0  0  0
 19 20  1  1  0  0  0
 21 19  1  0  0  0  0
 21 22  1  1  0  0  0
 23 20  1  6  0  0  0
 23 24  1  0  0  0  0
 23 28  1  0  0  0  0
 24 25  1  1  0  0  0
 24 26  1  0  0  0  0
 26 27  1  0  0  0  0
 26 32  1  6  0  0  0
 27 28  1  0  0  0  0
 27 29  1  6  0  0  0
 29 30  1  0  0  0  0
 31 32  1  6  0  0  0
 31 40  1  0  0  0  0
 33 31  1  0  0  0  0
 33 42  1  6  0  0  0
 35 33  1  0  0  0  0
 35 36  1  1  0  0  0
 37 35  1  0  0  0  0
 37 38  1  6  0  0  0
 37 39  1  0  0  0  0
 39 40  1  0  0  0  0
 39 41  1  6  0  0  0
 41 34  1  0  0  0  0
M  END
>  <CHROM.1>
-175.77912838,67.22862436,-165.00041406,147.78931328,161.17380433,128.27634084
-69.06586454,82.46099786,179.36290299,1.67214679,93.72512756,12.88335398
1.69806833,-0.62186884,-0.85429863

>  <Name>
2fcy_lig

>  <RI>
224

>  <Rbt.Current_Directory>
/home/itssahil/PROJECTS/Mol_Feturizer/New_Systems/rnas/2fcy

>  <Rbt.Executable>
rbdock ($Id: //depot/dev/client3/rdock/2013.1/src/exe/rbdock.cxx#4 $)

>  <Rbt.Library>
libRbt.so (2013.1, Build901 2013/11/27)

>  <Rbt.Parameter_File>
/export/apps/rDock/src/rDock_2013.1_src/data/scripts/dock_solv.prm

>  <Rbt.Receptor>
prm/pocket_docking_6.prm

>  <SCORE>
-17.0343

>  <SCORE.INTER>
-19.0779

>  <SCORE.INTER.CONST>
1

>  <SCORE.INTER.POLAR>
-2.81983

>  <SCORE.INTER.ROT>
9

>  <SCORE.INTER.SOLV>
23.5236

>  <SCORE.INTER.VDW>
-20.7603

>  <SCORE.INTER.norm>
-0.454235

>  <SCORE.INTRA>
2.04358

>  <SCORE.INTRA.DIHEDRAL>
-1.08819

>  <SCORE.INTRA.DIHEDRAL.0>
17.3446

>  <SCORE.INTRA.POLAR>
0

>  <SCORE.INTRA.POLAR.0>
0

>  <SCORE.INTRA.REPUL>
0.0530777

>  <SCORE.INTRA.REPUL.0>
0

>  <SCORE.INTRA.SOLV>
-0.346844

>  <SCORE.INTRA.SOLV.lig_0>
-112.452

>  <SCORE.INTRA.VDW>
2.49571

>  <SCORE.INTRA.VDW.0>
-5.95059

>  <SCORE.INTRA.norm>
0.0486566

>  <SCORE.RESTR>
0

>  <SCORE.RESTR.CAVITY>
0

>  <SCORE.RESTR.norm>
0

>  <SCORE.SYSTEM>
0

>  <SCORE.SYSTEM.CONST>
0

>  <SCORE.SYSTEM.DIHEDRAL>
0

>  <SCORE.SYSTEM.SOLV>
0

>  <SCORE.SYSTEM.norm>
0

>  <SCORE.heavy>
42

>  <SCORE.norm>
-0.405579

>  <RMSD>
8.773

$$$$
2fcy_lig
 OpenBabel11021811433D
libRbt.so/2013.1/901 2013/11/27
 42 45  0  0  0  0  0  0  0  0999 V2000
   -3.8387   92.6830    9.5588 C   0  0  2  0  0  0  0  0  0  0  0  0
   -3.6776   91.6999    8.5221 O   0  0  0  0  0  0  0  0  0  0  0  0
   -5.1971   92.3851   10.1951 C   0  0  2  0  0  0  0  0  0  0  0  0
   -5.2184   90.9801   10.6243 N   0  0  0  0  0  0  0  0  0  0  0  0
   -6.3068   92.6199    9.1672 C   0  0  1  0  0  0  0  0  0  0  0  0
   -7.5890   92.3515    9.7413 O   0  0  0  0  0  0  0  0  0  0  0  0
   -6.2359   94.0625    8.6655 C   0  0  2  0  0  0  0  0  0  0  0  0
   -7.2085   94.2514    7.6378 O   0  0  0  0  0  0  0  0  0  0  0  0
   -4.8523   94.3065    8.0612 C   0  0  2  0  0  0  0  0  0  0  0  0
   -3.8433   94.0308    9.0453 O   0  0  0  0  0  0  0  0  0  0  0  0
   -4.7659   95.7519    7.5640 C   0  0  0  0  0  0  0  0  0  0  0  0
   -3.4370   96.0366    7.0023 N   0  0  0  0  0  0  0  0  0  0  0  0
   -0.1424   90.3608    6.6902 C   0  0  2  0  0  0  0  0  0  0  0  0
    1.1016   90.1511    5.9344 N   0  0  0  0  0  0  0  0  0  0  0  0
   -1.2857   90.7608    5.7555 C   0  0  0  0  0  0  0  0  0  0  0  0
   -2.5765   90.8345    6.5775 C   0  0  2  0  0  0  0  0  0  0  0  0
   -3.6734   91.3023    5.7178 N   0  0  0  0  0  0  0  0  0  0  0  0
   -2.4628   91.8029    7.7584 C   0  0  2  0  0  0  0  0  0  0  0  0
   -1.2114   91.6232    8.6105 C   0  0  2  0  0  0  0  0  0  0  0  0
   -1.0971   92.8274    9.3858 O   0  0  0  0  0  0  0  0  0  0  0  0
    0.0461   91.4507    7.7483 C   0  0  1  0  0  0  0  0  0  0  0  0
    1.1706   91.0887    8.5543 O   0  0  0  0  0  0  0  0  0  0  0  0
   -0.7506   92.6479   10.7686 C   0  0  1  0  0  0  0  0  0  0  0  0
    0.5395   93.4280   11.0264 C   0  0  2  0  0  0  0  0  0  0  0  0
    1.6657   92.6348   10.6439 O   0  0  0  0  0  0  0  0  0  0  0  0
    0.4651   93.5074   12.5485 C   0  0  1  0  0  0  0  0  0  0  0  0
   -0.9919   93.9017   12.7318 C   0  0  2  0  0  0  0  0  0  0  0  0
   -1.7090   93.2239   11.6796 O   0  0  0  0  0  0  0  0  0  0  0  0
   -1.1167   95.4254   12.6179 C   0  0  0  0  0  0  0  0  0  0  0  0
   -0.8843   95.8493   11.2716 O   0  0  0  0  0  0  0  0  0  0  0  0
    0.5095   92.2670   14.5379 C   0  0  2  0  0  0  0  0  0  0  0  0
    0.6991   92.2086   13.1159 O   0  0  0  0  0  0  0  0  0  0  0  0
    1.5099   91.3334   15.2270 C   0  0  1  0  0  0  0  0  0  0  0  0
   -3.4323   92.5817   15.7302 N   0  0  0  0  0  0  0  0  0  0  0  0
    1.2586   91.3023   16.7384 C   0  0  1  0  0  0  0  0  0  0  0  0
    1.5849   92.5676   17.3220 O   0  0  0  0  0  0  0  0  0  0  0  0
   -0.2098   90.9662   17.0131 C   0  0  2  0  0  0  0  0  0  0  0  0
   -0.4642   89.6318   16.5615 O   0  0  0  0  0  0  0  0  0  0  0  0
   -1.1110   91.9548   16.2656 C   0  0  1  0  0  0  0  0  0  0  0  0
   -0.8427   91.8908   14.8525 O   0  0  0  0  0  0  0  0  0  0  0  0
   -2.5934   91.6730   16.5254 C   0  0  0  0  0  0  0  0  0  0  0  0
    1.3276   89.9733   14.6977 N   0  0  0  0  0  0  0  0  0  0  0  0
  1  2  1  6  0  0  0
  1  3  1  0  0  0  0
  1 10  1  0  0  0  0
  3  4  1  6  0  0  0
  3  5  1  0  0  0  0
  5  6  1  1  0  0  0
  5  7  1  0  0  0  0
  7  8  1  6  0  0  0
  7  9  1  0  0  0  0
  9 10  1  0  0  0  0
  9 11  1  1  0  0  0
 11 12  1  0  0  0  0
 13 14  1  6  0  0  0
 13 15  1  0  0  0  0
 13 21  1  0  0  0  0
 16 15  1  0  0  0  0
 16 17  1  6  0  0  0
 18  2  1  1  0  0  0
 18 16  1  0  0  0  0
 19 18  1  0  0  0  0
 19 20  1  1  0  0  0
 21 19  1  0  0  0  0
 21 22  1  1  0  0  0
 23 20  1  6  0  0  0
 23 24  1  0  0  0  0
 23 28  1  0  0  0  0
 24 25  1  1  0  0  0
 24 26  1  0  0  0  0
 26 27  1  0  0  0  0
 26 32  1  1  0  0  0
 27 28  1  0  0  0  0
 27 29  1  6  0  0  0
 29 30  1  0  0  0  0
 31 32  1  6  0  0  0
 31 40  1  0  0  0  0
 33 31  1  0  0  0  0
 33 42  1  6  0  0  0
 35 33  1  0  0  0  0
 35 36  1  6  0  0  0
 37 35  1  0  0  0  0
 37 38  1  6  0  0  0
 37 39  1  0  0  0  0
 39 40  1  0  0  0  0
 39 41  1  6  0  0  0
 41 34  1  0  0  0  0
M  END
>  <CHROM.1>
178.83615212,178.69810061,-170.99804716,136.94291151,121.95276387,-174.88511460
69.68925053,-144.51475939,-176.44900065,-1.82977982,92.44995149,10.97852754
2.07190150,0.32707261,-1.61337316

>  <Name>
2fcy_lig

>  <RI>
1.56845e+07

>  <Rbt.Current_Directory>
/home/itssahil/PROJECTS/Mol_Feturizer/New_Systems/rnas/2fcy

>  <Rbt.Executable>
rbdock ($Id: //depot/dev/client3/rdock/2013.1/src/exe/rbdock.cxx#4 $)

>  <Rbt.Library>
libRbt.so (2013.1, Build901 2013/11/27)

>  <Rbt.Parameter_File>
/export/apps/rDock/src/rDock_2013.1_src/data/scripts/dock_solv.prm

>  <Rbt.Receptor>
prm/pocket_docking_4.prm

>  <SCORE>
-11.6373

>  <SCORE.INTER>
-12.0123

>  <SCORE.INTER.CONST>
1

>  <SCORE.INTER.POLAR>
-2.23605

>  <SCORE.INTER.ROT>
9

>  <SCORE.INTER.SOLV>
18.6091

>  <SCORE.INTER.VDW>
-16.3577

>  <SCORE.INTER.norm>
-0.286007

>  <SCORE.INTRA>
0.374997

>  <SCORE.INTRA.DIHEDRAL>
1.6875

>  <SCORE.INTRA.DIHEDRAL.0>
17.3446

>  <SCORE.INTRA.POLAR>
0

>  <SCORE.INTRA.POLAR.0>
0

>  <SCORE.INTRA.REPUL>
0

>  <SCORE.INTRA.REPUL.0>
0

>  <SCORE.INTRA.SOLV>
-4.20054

>  <SCORE.INTRA.SOLV.lig_0>
-112.452

>  <SCORE.INTRA.VDW>
1.63152

>  <SCORE.INTRA.VDW.0>
-5.95059

>  <SCORE.INTRA.norm>
0.00892851

>  <SCORE.RESTR>
0

>  <SCORE.RESTR.CAVITY>
0

>  <SCORE.RESTR.norm>
0

>  <SCORE.SYSTEM>
0

>  <SCORE.SYSTEM.CONST>
0

>  <SCORE.SYSTEM.DIHEDRAL>
0

>  <SCORE.SYSTEM.SOLV>
0

>  <SCORE.SYSTEM.norm>
0

>  <SCORE.heavy>
42

>  <SCORE.norm>
-0.277078

>  <RMSD>
8.774

$$$$
2fcy_lig
 OpenBabel11021811433D
libRbt.so/2013.1/901 2013/11/27
 42 45  0  0  0  0  0  0  0  0999 V2000
   -0.6756   94.1018    6.8774 C   0  0  2  0  0  0  0  0  0  0  0  0
   -2.0873   94.0875    6.6055 O   0  0  0  0  0  0  0  0  0  0  0  0
    0.0018   93.8653    5.5268 C   0  0  2  0  0  0  0  0  0  0  0  0
   -0.4854   94.8710    4.5729 N   0  0  0  0  0  0  0  0  0  0  0  0
   -0.3502   92.4662    5.0152 C   0  0  1  0  0  0  0  0  0  0  0  0
    0.2763   92.2199    3.7532 O   0  0  0  0  0  0  0  0  0  0  0  0
    0.0902   91.4246    6.0443 C   0  0  2  0  0  0  0  0  0  0  0  0
   -0.3253   90.1297    5.6103 O   0  0  0  0  0  0  0  0  0  0  0  0
   -0.6010   91.7243    7.3753 C   0  0  2  0  0  0  0  0  0  0  0  0
   -0.2794   93.0601    7.7931 O   0  0  0  0  0  0  0  0  0  0  0  0
   -0.1597   90.6929    8.4171 C   0  0  0  0  0  0  0  0  0  0  0  0
    1.2542   90.8792    8.7759 N   0  0  0  0  0  0  0  0  0  0  0  0
   -5.4475   95.4521    8.7253 C   0  0  2  0  0  0  0  0  0  0  0  0
   -6.5190   95.7743    9.6798 N   0  0  0  0  0  0  0  0  0  0  0  0
   -5.3377   93.9398    8.5213 C   0  0  0  0  0  0  0  0  0  0  0  0
   -4.3018   93.6758    7.4239 C   0  0  2  0  0  0  0  0  0  0  0  0
   -4.1153   92.2256    7.2711 N   0  0  0  0  0  0  0  0  0  0  0  0
   -2.9372   94.2908    7.7482 C   0  0  2  0  0  0  0  0  0  0  0  0
   -2.9860   95.7468    8.1977 C   0  0  2  0  0  0  0  0  0  0  0  0
   -1.7125   96.0036    8.8111 O   0  0  0  0  0  0  0  0  0  0  0  0
   -4.1033   95.9911    9.2208 C   0  0  1  0  0  0  0  0  0  0  0  0
   -4.2603   97.3887    9.4795 O   0  0  0  0  0  0  0  0  0  0  0  0
   -1.4905   95.3634   10.0780 C   0  0  1  0  0  0  0  0  0  0  0  0
   -0.0194   95.5646   10.4456 C   0  0  2  0  0  0  0  0  0  0  0  0
    0.7774   94.5659    9.8042 O   0  0  0  0  0  0  0  0  0  0  0  0
   -0.1081   95.2646   11.9391 C   0  0  1  0  0  0  0  0  0  0  0  0
   -1.3463   96.0668   12.3072 C   0  0  2  0  0  0  0  0  0  0  0  0
   -2.2202   95.9712   11.1636 O   0  0  0  0  0  0  0  0  0  0  0  0
   -0.9375   97.5163   12.5936 C   0  0  0  0  0  0  0  0  0  0  0  0
   -0.0695   97.5784   13.7290 O   0  0  0  0  0  0  0  0  0  0  0  0
   -0.0128   93.5089   13.4906 C   0  0  2  0  0  0  0  0  0  0  0  0
   -0.3510   93.8633   12.1410 O   0  0  0  0  0  0  0  0  0  0  0  0
    1.4440   93.0380   13.5470 C   0  0  1  0  0  0  0  0  0  0  0  0
   -3.0401   91.6640   15.6444 N   0  0  0  0  0  0  0  0  0  0  0  0
    1.7965   92.5583   14.9591 C   0  0  1  0  0  0  0  0  0  0  0  0
    1.8073   93.6621   15.8700 O   0  0  0  0  0  0  0  0  0  0  0  0
    0.7776   91.5129   15.4210 C   0  0  2  0  0  0  0  0  0  0  0  0
    0.9025   90.3554   14.5880 O   0  0  0  0  0  0  0  0  0  0  0  0
   -0.6373   92.0907   15.3091 C   0  0  1  0  0  0  0  0  0  0  0  0
   -0.9032   92.4758   13.9476 O   0  0  0  0  0  0  0  0  0  0  0  0
   -1.6941   91.0881   15.7804 C   0  0  0  0  0  0  0  0  0  0  0  0
    1.6115   91.9102   12.6180 N   0  0  0  0  0  0  0  0  0  0  0  0
  1  2  1  6  0  0  0
  1  3  1  0  0  0  0
  1 10  1  0  0  0  0
  3  4  1  6  0  0  0
  3  5  1  0  0  0  0
  5  6  1  6  0  0  0
  5  7  1  0  0  0  0
  7  8  1  6  0  0  0
  7  9  1  0  0  0  0
  9 10  1  0  0  0  0
  9 11  1  1  0  0  0
 11 12  1  0  0  0  0
 13 14  1  1  0  0  0
 13 15  1  0  0  0  0
 13 21  1  0  0  0  0
 16 15  1  0  0  0  0
 16 17  1  1  0  0  0
 18  2  1  6  0  0  0
 18 16  1  0  0  0  0
 19 18  1  0  0  0  0
 19 20  1  1  0  0  0
 21 19  1  0  0  0  0
 21 22  1  6  0  0  0
 23 20  1  6  0  0  0
 23 24  1  0  0  0  0
 23 28  1  0  0  0  0
 24 25  1  6  0  0  0
 24 26  1  0  0  0  0
 26 27  1  0  0  0  0
 26 32  1  6  0  0  0
 27 28  1  0  0  0  0
 27 29  1  6  0  0  0
 29 30  1  0  0  0  0
 31 32  1  6  0  0  0
 31 40  1  0  0  0  0
 33 31  1  0  0  0  0
 33 42  1  6  0  0  0
 35 33  1  0  0  0  0
 35 36  1  1  0  0  0
 37 35  1  0  0  0  0
 37 38  1  6  0  0  0
 37 39  1  0  0  0  0
 39 40  1  0  0  0  0
 39 41  1  6  0  0  0
 41 34  1  0  0  0  0
M  END
>  <CHROM.1>
179.87830724,69.03300930,-156.44880545,-70.70167523,170.69936411,161.64906915
-63.57018503,-92.11763991,-179.25192053,-1.14109134,93.71061794,10.17224911
-1.89655816,-0.81282610,1.39395932

>  <Name>
2fcy_lig

>  <RI>
0

>  <Rbt.Current_Directory>
/home/itssahil/PROJECTS/Mol_Feturizer/New_Systems/rnas/2fcy

>  <Rbt.Executable>
rbdock ($Id: //depot/dev/client3/rdock/2013.1/src/exe/rbdock.cxx#4 $)

>  <Rbt.Library>
libRbt.so (2013.1, Build901 2013/11/27)

>  <Rbt.Parameter_File>
/export/apps/rDock/src/rDock_2013.1_src/data/scripts/dock_solv.prm

>  <Rbt.Receptor>
prm/pocket_docking_5.prm

>  <SCORE>
-11.844

>  <SCORE.INTER>
-9.21959

>  <SCORE.INTER.CONST>
1

>  <SCORE.INTER.POLAR>
-1.85359

>  <SCORE.INTER.ROT>
9

>  <SCORE.INTER.SOLV>
20.0917

>  <SCORE.INTER.VDW>
-16.265

>  <SCORE.INTER.norm>
-0.219514

>  <SCORE.INTRA>
-2.62444

>  <SCORE.INTRA.DIHEDRAL>
-7.70679

>  <SCORE.INTRA.DIHEDRAL.0>
17.3446

>  <SCORE.INTRA.POLAR>
0

>  <SCORE.INTRA.POLAR.0>
0

>  <SCORE.INTRA.REPUL>
0.00194586

>  <SCORE.INTRA.REPUL.0>
0

>  <SCORE.INTRA.SOLV>
-1.87437

>  <SCORE.INTRA.SOLV.lig_0>
-112.452

>  <SCORE.INTRA.VDW>
2.15642

>  <SCORE.INTRA.VDW.0>
-5.95059

>  <SCORE.INTRA.norm>
-0.0624866

>  <SCORE.RESTR>
0

>  <SCORE.RESTR.CAVITY>
0

>  <SCORE.RESTR.norm>
0

>  <SCORE.SYSTEM>
0

>  <SCORE.SYSTEM.CONST>
0

>  <SCORE.SYSTEM.DIHEDRAL>
0

>  <SCORE.SYSTEM.SOLV>
0

>  <SCORE.SYSTEM.norm>
0

>  <SCORE.heavy>
42

>  <SCORE.norm>
-0.282001

>  <RMSD>
8.780

$$$$
2fcy_lig
 OpenBabel11021811433D
libRbt.so/2013.1/901 2013/11/27
 42 45  0  0  0  0  0  0  0  0999 V2000
   -2.3343   93.1788    5.5379 C   0  0  2  0  0  0  0  0  0  0  0  0
   -3.1720   93.1712    6.7064 O   0  0  0  0  0  0  0  0  0  0  0  0
   -2.9653   92.1694    4.5778 C   0  0  2  0  0  0  0  0  0  0  0  0
   -4.3732   92.5341    4.3692 N   0  0  0  0  0  0  0  0  0  0  0  0
   -2.8878   90.7667    5.1857 C   0  0  1  0  0  0  0  0  0  0  0  0
   -3.4688   89.8032    4.3026 O   0  0  0  0  0  0  0  0  0  0  0  0
   -1.4268   90.4184    5.4720 C   0  0  2  0  0  0  0  0  0  0  0  0
   -1.3649   89.1515    6.1269 O   0  0  0  0  0  0  0  0  0  0  0  0
   -0.8455   91.4710    6.4172 C   0  0  2  0  0  0  0  0  0  0  0  0
   -0.9806   92.7732    5.8268 O   0  0  0  0  0  0  0  0  0  0  0  0
    0.6211   91.1382    6.7034 C   0  0  0  0  0  0  0  0  0  0  0  0
    1.4224   91.1889    5.4714 N   0  0  0  0  0  0  0  0  0  0  0  0
   -0.8356   96.0945    8.6148 C   0  0  2  0  0  0  0  0  0  0  0  0
   -0.2399   97.1429    9.4568 N   0  0  0  0  0  0  0  0  0  0  0  0
   -2.1638   96.5650    8.0189 C   0  0  0  0  0  0  0  0  0  0  0  0
   -2.6664   95.4881    7.0521 C   0  0  2  0  0  0  0  0  0  0  0  0
   -3.9851   95.8788    6.5332 N   0  0  0  0  0  0  0  0  0  0  0  0
   -2.8159   94.1212    7.7263 C   0  0  2  0  0  0  0  0  0  0  0  0
   -1.6095   93.6819    8.5486 C   0  0  2  0  0  0  0  0  0  0  0  0
   -2.0819   92.6139    9.3855 O   0  0  0  0  0  0  0  0  0  0  0  0
   -1.0732   94.8195    9.4277 C   0  0  1  0  0  0  0  0  0  0  0  0
    0.1669   94.4510   10.0370 O   0  0  0  0  0  0  0  0  0  0  0  0
   -1.1012   92.0202   10.2515 C   0  0  1  0  0  0  0  0  0  0  0  0
   -1.8193   90.9895   11.1242 C   0  0  2  0  0  0  0  0  0  0  0  0
   -2.4135   91.6422   12.2488 O   0  0  0  0  0  0  0  0  0  0  0  0
   -0.6063   90.1857   11.5835 C   0  0  1  0  0  0  0  0  0  0  0  0
    0.1362   90.0319   10.2655 C   0  0  2  0  0  0  0  0  0  0  0  0
   -0.0982   91.2603    9.5466 O   0  0  0  0  0  0  0  0  0  0  0  0
   -0.4209   88.8164    9.5155 C   0  0  0  0  0  0  0  0  0  0  0  0
   -1.7613   89.0647    9.0818 O   0  0  0  0  0  0  0  0  0  0  0  0
   -0.2785   90.7254   13.8418 C   0  0  2  0  0  0  0  0  0  0  0  0
    0.1761   90.9661   12.5014 O   0  0  0  0  0  0  0  0  0  0  0  0
   -0.7451   92.0430   14.4690 C   0  0  1  0  0  0  0  0  0  0  0  0
    1.1031   88.7431   18.0441 N   0  0  0  0  0  0  0  0  0  0  0  0
   -1.1393   91.8276   15.9342 C   0  0  1  0  0  0  0  0  0  0  0  0
   -2.3219   91.0257   16.0172 O   0  0  0  0  0  0  0  0  0  0  0  0
    0.0067   91.1432   16.6843 C   0  0  2  0  0  0  0  0  0  0  0  0
    1.1244   92.0369   16.7226 O   0  0  0  0  0  0  0  0  0  0  0  0
    0.3932   89.8489   15.9605 C   0  0  1  0  0  0  0  0  0  0  0  0
    0.7904   90.1434   14.6084 O   0  0  0  0  0  0  0  0  0  0  0  0
    1.5245   89.1146   16.6853 C   0  0  0  0  0  0  0  0  0  0  0  0
    0.3654   93.0063   14.4237 N   0  0  0  0  0  0  0  0  0  0  0  0
  1  2  1  1  0  0  0
  1  3  1  0  0  0  0
  1 10  1  0  0  0  0
  3  4  1  1  0  0  0
  3  5  1  0  0  0  0
  5  6  1  6  0  0  0
  5  7  1  0  0  0  0
  7  8  1  1  0  0  0
  7  9  1  0  0  0  0
  9 10  1  0  0  0  0
  9 11  1  6  0  0  0
 11 12  1  0  0  0  0
 13 14  1  1  0  0  0
 13 15  1  0  0  0  0
 13 21  1  0  0  0  0
 16 15  1  0  0  0  0
 16 17  1  1  0  0  0
 18  2  1  6  0  0  0
 18 16  1  0  0  0  0
 19 18  1  0  0  0  0
 19 20  1  1  0  0  0
 21 19  1  0  0  0  0
 21 22  1  6  0  0  0
 23 20  1  6  0  0  0
 23 24  1  0  0  0  0
 23 28  1  0  0  0  0
 24 25  1  1  0  0  0
 24 26  1  0  0  0  0
 26 27  1  0  0  0  0
 26 32  1  1  0  0  0
 27 28  1  0  0  0  0
 27 29  1  6  0  0  0
 29 30  1  0  0  0  0
 31 32  1  6  0  0  0
 31 40  1  0  0  0  0
 33 31  1  0  0  0  0
 33 42  1  1  0  0  0
 35 33  1  0  0  0  0
 35 36  1  6  0  0  0
 37 35  1  0  0  0  0
 37 38  1  6  0  0  0
 37 39  1  0  0  0  0
 39 40  1  0  0  0  0
 39 41  1  1  0  0  0
 41 34  1  0  0  0  0
M  END
>  <CHROM.1>
-176.16718683,62.64535058,50.45694775,179.26405664,175.80086423,90.30410046
68.31208860,-120.54183045,60.98765155,-1.09660045,91.95099188,10.03635160
2.74511554,1.31648838,-2.53243439

>  <Name>
2fcy_lig

>  <RI>
0

>  <Rbt.Current_Directory>
/home/itssahil/PROJECTS/Mol_Feturizer/New_Systems/rnas/2fcy

>  <Rbt.Executable>
rbdock ($Id: //depot/dev/client3/rdock/2013.1/src/exe/rbdock.cxx#4 $)

>  <Rbt.Library>
libRbt.so (2013.1, Build901 2013/11/27)

>  <Rbt.Parameter_File>
/export/apps/rDock/src/rDock_2013.1_src/data/scripts/dock_solv.prm

>  <Rbt.Receptor>
prm/pocket_docking_5.prm

>  <SCORE>
-11.2176

>  <SCORE.INTER>
-10.456

>  <SCORE.INTER.CONST>
1

>  <SCORE.INTER.POLAR>
-0.959166

>  <SCORE.INTER.ROT>
9

>  <SCORE.INTER.SOLV>
14.5917

>  <SCORE.INTER.VDW>
-18.2373

>  <SCORE.INTER.norm>
-0.248951

>  <SCORE.INTRA>
-0.761609

>  <SCORE.INTRA.DIHEDRAL>
-5.34898

>  <SCORE.INTRA.DIHEDRAL.0>
17.3446

>  <SCORE.INTRA.POLAR>
0

>  <SCORE.INTRA.POLAR.0>
0

>  <SCORE.INTRA.REPUL>
0

>  <SCORE.INTRA.REPUL.0>
0

>  <SCORE.INTRA.SOLV>
-0.762484

>  <SCORE.INTRA.SOLV.lig_0>
-112.452

>  <SCORE.INTRA.VDW>
2.29412

>  <SCORE.INTRA.VDW.0>
-5.95059

>  <SCORE.INTRA.norm>
-0.0181336

>  <SCORE.RESTR>
0

>  <SCORE.RESTR.CAVITY>
0

>  <SCORE.RESTR.norm>
0

>  <SCORE.SYSTEM>
0

>  <SCORE.SYSTEM.CONST>
0

>  <SCORE.SYSTEM.DIHEDRAL>
0

>  <SCORE.SYSTEM.SOLV>
0

>  <SCORE.SYSTEM.norm>
0

>  <SCORE.heavy>
42

>  <SCORE.norm>
-0.267085

>  <RMSD>
8.787

$$$$
2fcy_lig
 OpenBabel11021811433D
libRbt.so/2013.1/901 2013/11/27
 42 45  0  0  0  0  0  0  0  0999 V2000
   -1.8274   89.3295    7.6999 C   0  0  2  0  0  0  0  0  0  0  0  0
   -1.9239   87.9050    7.8687 O   0  0  0  0  0  0  0  0  0  0  0  0
   -0.3827   89.6847    8.0544 C   0  0  2  0  0  0  0  0  0  0  0  0
    0.5191   88.8708    7.2279 N   0  0  0  0  0  0  0  0  0  0  0  0
   -0.1290   89.3822    9.5334 C   0  0  1  0  0  0  0  0  0  0  0  0
    1.2166   89.7108    9.8902 O   0  0  0  0  0  0  0  0  0  0  0  0
   -1.1186   90.1732   10.3895 C   0  0  2  0  0  0  0  0  0  0  0  0
   -0.9444   89.8163   11.7606 O   0  0  0  0  0  0  0  0  0  0  0  0
   -2.5412   89.7928    9.9763 C   0  0  2  0  0  0  0  0  0  0  0  0
   -2.7191   90.0506    8.5747 O   0  0  0  0  0  0  0  0  0  0  0  0
   -3.5417   90.5866   10.8205 C   0  0  0  0  0  0  0  0  0  0  0  0
   -4.9249   90.2552   10.4470 N   0  0  0  0  0  0  0  0  0  0  0  0
   -1.9046   85.6723    4.3104 C   0  0  2  0  0  0  0  0  0  0  0  0
   -2.1759   84.8640    3.1122 N   0  0  0  0  0  0  0  0  0  0  0  0
   -2.3492   84.9356    5.5755 C   0  0  0  0  0  0  0  0  0  0  0  0
   -1.9219   85.7645    6.7910 C   0  0  2  0  0  0  0  0  0  0  0  0
   -2.4155   85.1195    8.0162 N   0  0  0  0  0  0  0  0  0  0  0  0
   -2.4837   87.1887    6.7538 C   0  0  2  0  0  0  0  0  0  0  0  0
   -2.2904   87.9147    5.4271 C   0  0  2  0  0  0  0  0  0  0  0  0
   -3.1969   89.0288    5.4619 O   0  0  0  0  0  0  0  0  0  0  0  0
   -2.6316   87.0169    4.2304 C   0  0  1  0  0  0  0  0  0  0  0  0
   -2.2584   87.6440    3.0005 O   0  0  0  0  0  0  0  0  0  0  0  0
   -3.0248   90.0051    4.4220 C   0  0  1  0  0  0  0  0  0  0  0  0
   -4.1232   91.0564    4.5891 C   0  0  2  0  0  0  0  0  0  0  0  0
   -5.3237   90.6017    3.9600 O   0  0  0  0  0  0  0  0  0  0  0  0
   -3.5043   92.1761    3.7576 C   0  0  1  0  0  0  0  0  0  0  0  0
   -2.0731   92.1396    4.2699 C   0  0  2  0  0  0  0  0  0  0  0  0
   -1.7938   90.7488    4.5314 O   0  0  0  0  0  0  0  0  0  0  0  0
   -1.9741   92.9905    5.5413 C   0  0  0  0  0  0  0  0  0  0  0  0
   -2.1811   94.3731    5.2379 O   0  0  0  0  0  0  0  0  0  0  0  0
   -4.8272   92.1476    1.8217 C   0  0  2  0  0  0  0  0  0  0  0  0
   -3.5381   91.8246    2.3652 O   0  0  0  0  0  0  0  0  0  0  0  0
   -4.8919   91.7026    0.3571 C   0  0  1  0  0  0  0  0  0  0  0  0
   -7.9008   95.6549    2.2978 N   0  0  0  0  0  0  0  0  0  0  0  0
   -6.2224   92.1288   -0.2728 C   0  0  1  0  0  0  0  0  0  0  0  0
   -7.3044   91.3934    0.3076 O   0  0  0  0  0  0  0  0  0  0  0  0
   -6.4400   93.6293   -0.0595 C   0  0  2  0  0  0  0  0  0  0  0  0
   -5.4338   94.3435   -0.7854 O   0  0  0  0  0  0  0  0  0  0  0  0
   -6.3410   93.9550    1.4346 C   0  0  1  0  0  0  0  0  0  0  0  0
   -5.0497   93.5639    1.9370 O   0  0  0  0  0  0  0  0  0  0  0  0
   -6.5727   95.4445    1.7029 C   0  0  0  0  0  0  0  0  0  0  0  0
   -3.7989   92.3522   -0.3820 N   0  0  0  0  0  0  0  0  0  0  0  0
  1  2  1  1  0  0  0
  1  3  1  0  0  0  0
  1 10  1  0  0  0  0
  3  4  1  6  0  0  0
  3  5  1  0  0  0  0
  5  6  1  1  0  0  0
  5  7  1  0  0  0  0
  7  8  1  1  0  0  0
  7  9  1  0  0  0  0
  9 10  1  0  0  0  0
  9 11  1  1  0  0  0
 11 12  1  0  0  0  0
 13 14  1  6  0  0  0
 13 15  1  0  0  0  0
 13 21  1  0  0  0  0
 16 15  1  0  0  0  0
 16 17  1  1  0  0  0
 18  2  1  1  0  0  0
 18 16  1  0  0  0  0
 19 18  1  0  0  0  0
 19 20  1  1  0  0  0
 21 19  1  0  0  0  0
 21 22  1  6  0  0  0
 23 20  1  1  0  0  0
 23 24  1  0  0  0  0
 23 28  1  0  0  0  0
 24 25  1  6  0  0  0
 24 26  1  0  0  0  0
 26 27  1  0  0  0  0
 26 32  1  6  0  0  0
 27 28  1  0  0  0  0
 27 29  1  1  0  0  0
 29 30  1  0  0  0  0
 31 32  1  6  0  0  0
 31 40  1  0  0  0  0
 33 31  1  0  0  0  0
 33 42  1  6  0  0  0
 35 33  1  0  0  0  0
 35 36  1  1  0  0  0
 37 35  1  0  0  0  0
 37 38  1  6  0  0  0
 37 39  1  0  0  0  0
 39 40  1  0  0  0  0
 39 41  1  6  0  0  0
 41 34  1  0  0  0  0
M  END
>  <CHROM.1>
-129.05961342,179.63419831,153.41987359,169.06543771,176.93027099,83.15504487
-67.00919950,-176.89076411,105.90249597,-3.19653494,90.33986344,5.04565256
0.10965980,-1.13601514,0.68665992

>  <Name>
2fcy_lig

>  <RI>
2.32494e+07

>  <Rbt.Current_Directory>
/home/itssahil/PROJECTS/Mol_Feturizer/New_Systems/rnas/2fcy

>  <Rbt.Executable>
rbdock ($Id: //depot/dev/client3/rdock/2013.1/src/exe/rbdock.cxx#4 $)

>  <Rbt.Library>
libRbt.so (2013.1, Build901 2013/11/27)

>  <Rbt.Parameter_File>
/export/apps/rDock/src/rDock_2013.1_src/data/scripts/dock_solv.prm

>  <Rbt.Receptor>
prm/pocket_docking_8.prm

>  <SCORE>
-1.62438

>  <SCORE.INTER>
-3.92945

>  <SCORE.INTER.CONST>
1

>  <SCORE.INTER.POLAR>
-1.92164

>  <SCORE.INTER.ROT>
9

>  <SCORE.INTER.SOLV>
12.0689

>  <SCORE.INTER.VDW>
-9.83713

>  <SCORE.INTER.norm>
-0.0935583

>  <SCORE.INTRA>
2.30507

>  <SCORE.INTRA.DIHEDRAL>
0.454947

>  <SCORE.INTRA.DIHEDRAL.0>
17.3446

>  <SCORE.INTRA.POLAR>
0

>  <SCORE.INTRA.POLAR.0>
0

>  <SCORE.INTRA.REPUL>
0

>  <SCORE.INTRA.REPUL.0>
0

>  <SCORE.INTRA.SOLV>
-5.14407

>  <SCORE.INTRA.SOLV.lig_0>
-112.452

>  <SCORE.INTRA.VDW>
4.64963

>  <SCORE.INTRA.VDW.0>
-5.95059

>  <SCORE.INTRA.norm>
0.0548825

>  <SCORE.RESTR>
0

>  <SCORE.RESTR.CAVITY>
0

>  <SCORE.RESTR.norm>
0

>  <SCORE.SYSTEM>
0

>  <SCORE.SYSTEM.CONST>
0

>  <SCORE.SYSTEM.DIHEDRAL>
0

>  <SCORE.SYSTEM.SOLV>
0

>  <SCORE.SYSTEM.norm>
0

>  <SCORE.heavy>
42

>  <SCORE.norm>
-0.0386758

>  <RMSD>
8.793

$$$$
2fcy_lig
 OpenBabel11021811433D
libRbt.so/2013.1/901 2013/11/27
 42 45  0  0  0  0  0  0  0  0999 V2000
   -0.7835   92.5024   10.9087 C   0  0  2  0  0  0  0  0  0  0  0  0
   -1.2472   92.7061    9.5631 O   0  0  0  0  0  0  0  0  0  0  0  0
    0.1338   91.2804   10.8428 C   0  0  2  0  0  0  0  0  0  0  0  0
    1.1695   91.5228    9.8293 N   0  0  0  0  0  0  0  0  0  0  0  0
   -0.6835   90.0470   10.4500 C   0  0  1  0  0  0  0  0  0  0  0  0
    0.1534   88.8889   10.3859 O   0  0  0  0  0  0  0  0  0  0  0  0
   -1.8080   89.8399   11.4651 C   0  0  2  0  0  0  0  0  0  0  0  0
   -2.6262   88.7484   11.0444 O   0  0  0  0  0  0  0  0  0  0  0  0
   -2.6764   91.0983   11.5019 C   0  0  2  0  0  0  0  0  0  0  0  0
   -1.8613   92.2346   11.8291 O   0  0  0  0  0  0  0  0  0  0  0  0
   -3.8009   90.9065   12.5229 C   0  0  0  0  0  0  0  0  0  0  0  0
   -4.6619   92.0969   12.5874 N   0  0  0  0  0  0  0  0  0  0  0  0
   -0.8896   96.1810    7.2298 C   0  0  2  0  0  0  0  0  0  0  0  0
   -0.9655   97.5002    6.5841 N   0  0  0  0  0  0  0  0  0  0  0  0
   -2.2565   95.4936    7.2246 C   0  0  0  0  0  0  0  0  0  0  0  0
   -2.0862   94.0786    7.7867 C   0  0  2  0  0  0  0  0  0  0  0  0
   -3.4021   93.4290    7.8730 N   0  0  0  0  0  0  0  0  0  0  0  0
   -1.4714   94.0771    9.1894 C   0  0  2  0  0  0  0  0  0  0  0  0
   -0.2251   94.9425    9.3390 C   0  0  2  0  0  0  0  0  0  0  0  0
   -0.0450   95.1173   10.7536 O   0  0  0  0  0  0  0  0  0  0  0  0
   -0.3997   96.3142    8.6738 C   0  0  1  0  0  0  0  0  0  0  0  0
    0.8376   97.0309    8.6521 O   0  0  0  0  0  0  0  0  0  0  0  0
    1.0820   95.9183   11.1441 C   0  0  1  0  0  0  0  0  0  0  0  0
    1.0633   96.0293   12.6695 C   0  0  2  0  0  0  0  0  0  0  0  0
    0.1811   97.0827   13.0642 O   0  0  0  0  0  0  0  0  0  0  0  0
    2.5089   96.4652   12.8904 C   0  0  1  0  0  0  0  0  0  0  0  0
    3.2320   95.4943   11.9703 C   0  0  2  0  0  0  0  0  0  0  0  0
    2.3528   95.3066   10.8422 O   0  0  0  0  0  0  0  0  0  0  0  0
    3.4826   94.1826   12.7232 C   0  0  0  0  0  0  0  0  0  0  0  0
    4.4188   94.3843   13.7858 O   0  0  0  0  0  0  0  0  0  0  0  0
    3.9311   98.3293   12.9233 C   0  0  2  0  0  0  0  0  0  0  0  0
    2.6882   97.8120   12.4242 O   0  0  0  0  0  0  0  0  0  0  0  0
    3.8567   99.8577   12.9986 C   0  0  1  0  0  0  0  0  0  0  0  0
    7.3823   98.4310   10.3126 N   0  0  0  0  0  0  0  0  0  0  0  0
    5.2072  100.4379   13.4323 C   0  0  1  0  0  0  0  0  0  0  0  0
    5.4840  100.0881   14.7922 O   0  0  0  0  0  0  0  0  0  0  0  0
    6.3170   99.9047   12.5221 C   0  0  2  0  0  0  0  0  0  0  0  0
    6.1001  100.4045   11.1982 O   0  0  0  0  0  0  0  0  0  0  0  0
    6.2852   98.3727   12.5173 C   0  0  1  0  0  0  0  0  0  0  0  0
    5.0012   97.9105   12.0582 O   0  0  0  0  0  0  0  0  0  0  0  0
    7.3923   97.7890   11.6353 C   0  0  0  0  0  0  0  0  0  0  0  0
    3.5340  100.3807   11.6624 N   0  0  0  0  0  0  0  0  0  0  0  0
  1  2  1  6  0  0  0
  1  3  1  0  0  0  0
  1 10  1  0  0  0  0
  3  4  1  6  0  0  0
  3  5  1  0  0  0  0
  5  6  1  1  0  0  0
  5  7  1  0  0  0  0
  7  8  1  6  0  0  0
  7  9  1  0  0  0  0
  9 10  1  0  0  0  0
  9 11  1  1  0  0  0
 11 12  1  0  0  0  0
 13 14  1  1  0  0  0
 13 15  1  0  0  0  0
 13 21  1  0  0  0  0
 16 15  1  0  0  0  0
 16 17  1  1  0  0  0
 18  2  1  6  0  0  0
 18 16  1  0  0  0  0
 19 18  1  0  0  0  0
 19 20  1  1  0  0  0
 21 19  1  0  0  0  0
 21 22  1  6  0  0  0
 23 20  1  1  0  0  0
 23 24  1  0  0  0  0
 23 28  1  0  0  0  0
 24 25  1  6  0  0  0
 24 26  1  0  0  0  0
 26 27  1  0  0  0  0
 26 32  1  6  0  0  0
 27 28  1  0  0  0  0
 27 29  1  1  0  0  0
 29 30  1  0  0  0  0
 31 32  1  6  0  0  0
 31 40  1  0  0  0  0
 33 31  1  0  0  0  0
 33 42  1  6  0  0  0
 35 33  1  0  0  0  0
 35 36  1  1  0  0  0
 37 35  1  0  0  0  0
 37 38  1  6  0  0  0
 37 39  1  0  0  0  0
 39 40  1  0  0  0  0
 39 41  1  6  0  0  0
 41 34  1  0  0  0  0
M  END
>  <CHROM.1>
-146.90898422,-179.91915305,-174.54095452,-179.65813660,177.70682380,165.91292371
-67.19017918,-154.48419547,-49.95151260,1.25529505,95.24853450,11.06473705
-2.63719110,-0.66441736,-0.56825507

>  <Name>
2fcy_lig

>  <RI>
224

>  <Rbt.Current_Directory>
/home/itssahil/PROJECTS/Mol_Feturizer/New_Systems/rnas/2fcy

>  <Rbt.Executable>
rbdock ($Id: //depot/dev/client3/rdock/2013.1/src/exe/rbdock.cxx#4 $)

>  <Rbt.Library>
libRbt.so (2013.1, Build901 2013/11/27)

>  <Rbt.Parameter_File>
/export/apps/rDock/src/rDock_2013.1_src/data/scripts/dock_solv.prm

>  <Rbt.Receptor>
prm/pocket_docking_6.prm

>  <SCORE>
-16.0949

>  <SCORE.INTER>
-13.7238

>  <SCORE.INTER.CONST>
1

>  <SCORE.INTER.POLAR>
-3.21025

>  <SCORE.INTER.ROT>
9

>  <SCORE.INTER.SOLV>
20.6182

>  <SCORE.INTER.VDW>
-14.9211

>  <SCORE.INTER.norm>
-0.326758

>  <SCORE.INTRA>
-2.37103

>  <SCORE.INTRA.DIHEDRAL>
-8.19498

>  <SCORE.INTRA.DIHEDRAL.0>
17.3446

>  <SCORE.INTRA.POLAR>
0

>  <SCORE.INTRA.POLAR.0>
0

>  <SCORE.INTRA.REPUL>
0

>  <SCORE.INTRA.REPUL.0>
0

>  <SCORE.INTRA.SOLV>
-3.28155

>  <SCORE.INTRA.SOLV.lig_0>
-112.452

>  <SCORE.INTRA.VDW>
3.36723

>  <SCORE.INTRA.VDW.0>
-5.95059

>  <SCORE.INTRA.norm>
-0.0564531

>  <SCORE.RESTR>
0

>  <SCORE.RESTR.CAVITY>
0

>  <SCORE.RESTR.norm>
0

>  <SCORE.SYSTEM>
0

>  <SCORE.SYSTEM.CONST>
0

>  <SCORE.SYSTEM.DIHEDRAL>
0

>  <SCORE.SYSTEM.SOLV>
0

>  <SCORE.SYSTEM.norm>
0

>  <SCORE.heavy>
42

>  <SCORE.norm>
-0.383211

>  <RMSD>
8.809

$$$$
2fcy_lig
 OpenBabel11021811433D
libRbt.so/2013.1/901 2013/11/27
 42 45  0  0  0  0  0  0  0  0999 V2000
   -4.1236   91.9254   11.3888 C   0  0  2  0  0  0  0  0  0  0  0  0
   -4.1075   91.2322   10.1293 O   0  0  0  0  0  0  0  0  0  0  0  0
   -5.3565   91.4012   12.1265 C   0  0  2  0  0  0  0  0  0  0  0  0
   -5.2777   89.9356   12.1935 N   0  0  0  0  0  0  0  0  0  0  0  0
   -6.6206   91.8085   11.3652 C   0  0  1  0  0  0  0  0  0  0  0  0
   -7.7888   91.3324   12.0393 O   0  0  0  0  0  0  0  0  0  0  0  0
   -6.6628   93.3310   11.2307 C   0  0  2  0  0  0  0  0  0  0  0  0
   -7.7905   93.7020   10.4380 O   0  0  0  0  0  0  0  0  0  0  0  0
   -5.3988   93.7968   10.5066 C   0  0  2  0  0  0  0  0  0  0  0  0
   -4.2402   93.3544   11.2307 O   0  0  0  0  0  0  0  0  0  0  0  0
   -5.4250   95.3218   10.3748 C   0  0  0  0  0  0  0  0  0  0  0  0
   -4.2359   95.8087    9.6595 N   0  0  0  0  0  0  0  0  0  0  0  0
   -0.8468   90.7872    7.5185 C   0  0  2  0  0  0  0  0  0  0  0  0
    0.2465   90.9035    6.5417 N   0  0  0  0  0  0  0  0  0  0  0  0
   -2.1886   91.1490    6.8785 C   0  0  0  0  0  0  0  0  0  0  0  0
   -3.2976   90.8821    7.9011 C   0  0  2  0  0  0  0  0  0  0  0  0
   -4.5883   91.3050    7.3389 N   0  0  0  0  0  0  0  0  0  0  0  0
   -3.0836   91.6496    9.2090 C   0  0  2  0  0  0  0  0  0  0  0  0
   -1.6801   91.5330    9.7930 C   0  0  2  0  0  0  0  0  0  0  0  0
   -1.5726   92.5966   10.7529 O   0  0  0  0  0  0  0  0  0  0  0  0
   -0.5987   91.7049    8.7181 C   0  0  1  0  0  0  0  0  0  0  0  0
    0.6954   91.3983    9.2439 O   0  0  0  0  0  0  0  0  0  0  0  0
   -0.9023   92.2639   11.9793 C   0  0  1  0  0  0  0  0  0  0  0  0
   -0.7919   93.5452   12.8075 C   0  0  2  0  0  0  0  0  0  0  0  0
    0.3525   94.2921   12.3875 O   0  0  0  0  0  0  0  0  0  0  0  0
   -0.5196   92.9193   14.1722 C   0  0  1  0  0  0  0  0  0  0  0  0
   -1.5635   91.8138   14.1804 C   0  0  2  0  0  0  0  0  0  0  0  0
   -1.6510   91.3575   12.8148 O   0  0  0  0  0  0  0  0  0  0  0  0
   -2.8959   92.3865   14.6773 C   0  0  0  0  0  0  0  0  0  0  0  0
   -3.8708   91.3481   14.8103 O   0  0  0  0  0  0  0  0  0  0  0  0
    1.1736   92.0602   15.5484 C   0  0  2  0  0  0  0  0  0  0  0  0
    0.7996   92.3511   14.1930 O   0  0  0  0  0  0  0  0  0  0  0  0
    2.6349   91.6019   15.5897 C   0  0  1  0  0  0  0  0  0  0  0  0
   -0.2122   89.4994   19.4204 N   0  0  0  0  0  0  0  0  0  0  0  0
    3.0256   91.1887   17.0127 C   0  0  1  0  0  0  0  0  0  0  0  0
    3.0501   92.3325   17.8726 O   0  0  0  0  0  0  0  0  0  0  0  0
    2.0264   90.1585   17.5463 C   0  0  2  0  0  0  0  0  0  0  0  0
    2.1398   88.9654   16.7633 O   0  0  0  0  0  0  0  0  0  0  0  0
    0.6048   90.7213   17.4437 C   0  0  1  0  0  0  0  0  0  0  0  0
    0.3027   91.0428   16.0733 O   0  0  0  0  0  0  0  0  0  0  0  0
   -0.4324   89.7339   17.9857 C   0  0  0  0  0  0  0  0  0  0  0  0
    2.7882   90.4345   14.7084 N   0  0  0  0  0  0  0  0  0  0  0  0
  1  2  1  6  0  0  0
  1  3  1  0  0  0  0
  1 10  1  0  0  0  0
  3  4  1  6  0  0  0
  3  5  1  0  0  0  0
  5  6  1  1  0  0  0
  5  7  1  0  0  0  0
  7  8  1  6  0  0  0
  7  9  1  0  0  0  0
  9 10  1  0  0  0  0
  9 11  1  1  0  0  0
 11 12  1  0  0  0  0
 13 14  1  6  0  0  0
 13 15  1  0  0  0  0
 13 21  1  0  0  0  0
 16 15  1  0  0  0  0
 16 17  1  6  0  0  0
 18  2  1  1  0  0  0
 18 16  1  0  0  0  0
 19 18  1  0  0  0  0
 19 20  1  1  0  0  0
 21 19  1  0  0  0  0
 21 22  1  1  0  0  0
 23 20  1  6  0  0  0
 23 24  1  0  0  0  0
 23 28  1  0  0  0  0
 24 25  1  6  0  0  0
 24 26  1  0  0  0  0
 26 27  1  0  0  0  0
 26 32  1  6  0  0  0
 27 28  1  0  0  0  0
 27 29  1  6  0  0  0
 29 30  1  0  0  0  0
 31 32  1  6  0  0  0
 31 40  1  0  0  0  0
 33 31  1  0  0  0  0
 33 42  1  6  0  0  0
 35 33  1  0  0  0  0
 35 36  1  1  0  0  0
 37 35  1  0  0  0  0
 37 38  1  6  0  0  0
 37 39  1  0  0  0  0
 39 40  1  0  0  0  0
 39 41  1  6  0  0  0
 41 34  1  0  0  0  0
M  END
>  <CHROM.1>
175.04866941,-178.92401799,-175.63385081,139.28150355,175.46117379,166.06342833
-174.89236158,-173.70684733,63.40469828,-1.85846932,91.83494645,12.51311707
2.26604092,0.15686689,-1.49719079

>  <Name>
2fcy_lig

>  <RI>
0

>  <Rbt.Current_Directory>
/home/itssahil/PROJECTS/Mol_Feturizer/New_Systems/rnas/2fcy

>  <Rbt.Executable>
rbdock ($Id: //depot/dev/client3/rdock/2013.1/src/exe/rbdock.cxx#4 $)

>  <Rbt.Library>
libRbt.so (2013.1, Build901 2013/11/27)

>  <Rbt.Parameter_File>
/export/apps/rDock/src/rDock_2013.1_src/data/scripts/dock_solv.prm

>  <Rbt.Receptor>
prm/pocket_docking_5.prm

>  <SCORE>
-13.6928

>  <SCORE.INTER>
-7.93282

>  <SCORE.INTER.CONST>
1

>  <SCORE.INTER.POLAR>
-1.36064

>  <SCORE.INTER.ROT>
9

>  <SCORE.INTER.SOLV>
18.61

>  <SCORE.INTER.VDW>
-16.5564

>  <SCORE.INTER.norm>
-0.188877

>  <SCORE.INTRA>
-5.76001

>  <SCORE.INTRA.DIHEDRAL>
-9.7009

>  <SCORE.INTRA.DIHEDRAL.0>
17.3446

>  <SCORE.INTRA.POLAR>
0

>  <SCORE.INTRA.POLAR.0>
0

>  <SCORE.INTRA.REPUL>
0

>  <SCORE.INTRA.REPUL.0>
0

>  <SCORE.INTRA.SOLV>
-3.7106

>  <SCORE.INTRA.SOLV.lig_0>
-112.452

>  <SCORE.INTRA.VDW>
0.945737

>  <SCORE.INTRA.VDW.0>
-5.95059

>  <SCORE.INTRA.norm>
-0.137143

>  <SCORE.RESTR>
0

>  <SCORE.RESTR.CAVITY>
0

>  <SCORE.RESTR.norm>
0

>  <SCORE.SYSTEM>
0

>  <SCORE.SYSTEM.CONST>
0

>  <SCORE.SYSTEM.DIHEDRAL>
0

>  <SCORE.SYSTEM.SOLV>
0

>  <SCORE.SYSTEM.norm>
0

>  <SCORE.heavy>
42

>  <SCORE.norm>
-0.32602

>  <RMSD>
8.814

$$$$
2fcy_lig
 OpenBabel11021811433D
libRbt.so/2013.1/901 2013/11/27
 42 45  0  0  0  0  0  0  0  0999 V2000
   -3.0402   93.8514    8.7882 C   0  0  2  0  0  0  0  0  0  0  0  0
   -2.9832   92.9919    7.6371 O   0  0  0  0  0  0  0  0  0  0  0  0
   -4.5287   94.0250    9.0936 C   0  0  2  0  0  0  0  0  0  0  0  0
   -5.1366   92.6960    9.2453 N   0  0  0  0  0  0  0  0  0  0  0  0
   -5.2059   94.7652    7.9374 C   0  0  1  0  0  0  0  0  0  0  0  0
   -6.6001   94.9434    8.2024 O   0  0  0  0  0  0  0  0  0  0  0  0
   -4.5225   96.1174    7.7318 C   0  0  2  0  0  0  0  0  0  0  0  0
   -5.0913   96.7635    6.5931 O   0  0  0  0  0  0  0  0  0  0  0  0
   -3.0375   95.8815    7.4521 C   0  0  2  0  0  0  0  0  0  0  0  0
   -2.4552   95.1462    8.5397 O   0  0  0  0  0  0  0  0  0  0  0  0
   -2.3402   97.2299    7.2544 C   0  0  0  0  0  0  0  0  0  0  0  0
   -0.8941   97.0506    7.0561 N   0  0  0  0  0  0  0  0  0  0  0  0
    0.3315   90.8696    6.1687 C   0  0  2  0  0  0  0  0  0  0  0  0
    1.5845   90.3817    5.5732 N   0  0  0  0  0  0  0  0  0  0  0  0
   -0.4974   91.6385    5.1378 C   0  0  0  0  0  0  0  0  0  0  0  0
   -1.8413   92.0040    5.7761 C   0  0  2  0  0  0  0  0  0  0  0  0
   -2.6206   92.8194    4.8333 N   0  0  0  0  0  0  0  0  0  0  0  0
   -1.6750   92.8122    7.0662 C   0  0  2  0  0  0  0  0  0  0  0  0
   -0.6721   92.2309    8.0566 C   0  0  2  0  0  0  0  0  0  0  0  0
   -0.3768   93.2952    8.9754 O   0  0  0  0  0  0  0  0  0  0  0  0
    0.6210   91.7828    7.3626 C   0  0  1  0  0  0  0  0  0  0  0  0
    1.4630   91.0652    8.2688 O   0  0  0  0  0  0  0  0  0  0  0  0
   -0.2856   92.9172   10.3585 C   0  0  1  0  0  0  0  0  0  0  0  0
    0.1787   94.1453   11.1432 C   0  0  2  0  0  0  0  0  0  0  0  0
    1.6033   94.2462   11.0795 O   0  0  0  0  0  0  0  0  0  0  0  0
   -0.2390   93.7013   12.5420 C   0  0  1  0  0  0  0  0  0  0  0  0
   -1.6348   93.1702   12.2560 C   0  0  2  0  0  0  0  0  0  0  0  0
   -1.5582   92.5744   10.9446 O   0  0  0  0  0  0  0  0  0  0  0  0
   -2.6318   94.3340   12.2968 C   0  0  0  0  0  0  0  0  0  0  0  0
   -2.5537   95.0188   13.5504 O   0  0  0  0  0  0  0  0  0  0  0  0
    0.5564   92.5452   14.4207 C   0  0  2  0  0  0  0  0  0  0  0  0
    0.6122   92.6339   12.9887 O   0  0  0  0  0  0  0  0  0  0  0  0
    1.5032   91.4416   14.9030 C   0  0  1  0  0  0  0  0  0  0  0  0
   -3.1132   91.2638   15.6052 N   0  0  0  0  0  0  0  0  0  0  0  0
    1.3841   91.2604   16.4201 C   0  0  1  0  0  0  0  0  0  0  0  0
    1.8997   92.4098   17.0993 O   0  0  0  0  0  0  0  0  0  0  0  0
   -0.0826   91.0447   16.8030 C   0  0  2  0  0  0  0  0  0  0  0  0
   -0.5231   89.8044   16.2399 O   0  0  0  0  0  0  0  0  0  0  0  0
   -0.9303   92.1994   16.2588 C   0  0  1  0  0  0  0  0  0  0  0  0
   -0.7963   92.2735   14.8272 O   0  0  0  0  0  0  0  0  0  0  0  0
   -2.4061   92.0404   16.6342 C   0  0  0  0  0  0  0  0  0  0  0  0
    1.1245   90.1778   14.2532 N   0  0  0  0  0  0  0  0  0  0  0  0
  1  2  1  6  0  0  0
  1  3  1  0  0  0  0
  1 10  1  0  0  0  0
  3  4  1  6  0  0  0
  3  5  1  0  0  0  0
  5  6  1  1  0  0  0
  5  7  1  0  0  0  0
  7  8  1  6  0  0  0
  7  9  1  0  0  0  0
  9 10  1  0  0  0  0
  9 11  1  1  0  0  0
 11 12  1  0  0  0  0
 13 14  1  6  0  0  0
 13 15  1  0  0  0  0
 13 21  1  0  0  0  0
 16 15  1  0  0  0  0
 16 17  1  6  0  0  0
 18  2  1  1  0  0  0
 18 16  1  0  0  0  0
 19 18  1  0  0  0  0
 19 20  1  1  0  0  0
 21 19  1  0  0  0  0
 21 22  1  1  0  0  0
 23 20  1  6  0  0  0
 23 24  1  0  0  0  0
 23 28  1  0  0  0  0
 24 25  1  1  0  0  0
 24 26  1  0  0  0  0
 26 27  1  0  0  0  0
 26 32  1  6  0  0  0
 27 28  1  0  0  0  0
 27 29  1  6  0  0  0
 29 30  1  0  0  0  0
 31 32  1  6  0  0  0
 31 40  1  0  0  0  0
 33 31  1  0  0  0  0
 33 42  1  6  0  0  0
 35 33  1  0  0  0  0
 35 36  1  1  0  0  0
 37 35  1  0  0  0  0
 37 38  1  6  0  0  0
 37 39  1  0  0  0  0
 39 40  1  0  0  0  0
 39 41  1  6  0  0  0
 41 34  1  0  0  0  0
M  END
>  <CHROM.1>
172.95209024,176.87232060,-173.81747025,138.59396565,174.02675081,159.33039033
-55.83233384,-177.91488374,-89.27738519,-1.37036847,93.09826231,10.58236280
1.92630609,0.61414396,-1.51724911

>  <Name>
2fcy_lig

>  <RI>
1.56845e+07

>  <Rbt.Current_Directory>
/home/itssahil/PROJECTS/Mol_Feturizer/New_Systems/rnas/2fcy

>  <Rbt.Executable>
rbdock ($Id: //depot/dev/client3/rdock/2013.1/src/exe/rbdock.cxx#4 $)

>  <Rbt.Library>
libRbt.so (2013.1, Build901 2013/11/27)

>  <Rbt.Parameter_File>
/export/apps/rDock/src/rDock_2013.1_src/data/scripts/dock_solv.prm

>  <Rbt.Receptor>
prm/pocket_docking_4.prm

>  <SCORE>
-13.652

>  <SCORE.INTER>
-10.2526

>  <SCORE.INTER.CONST>
1

>  <SCORE.INTER.POLAR>
-1.72118

>  <SCORE.INTER.ROT>
9

>  <SCORE.INTER.SOLV>
21.5153

>  <SCORE.INTER.VDW>
-17.8696

>  <SCORE.INTER.norm>
-0.24411

>  <SCORE.INTRA>
-3.42147

>  <SCORE.INTRA.DIHEDRAL>
-6.08035

>  <SCORE.INTRA.DIHEDRAL.0>
17.3446

>  <SCORE.INTRA.POLAR>
0

>  <SCORE.INTRA.POLAR.0>
0

>  <SCORE.INTRA.REPUL>
0

>  <SCORE.INTRA.REPUL.0>
0

>  <SCORE.INTRA.SOLV>
-2.66782

>  <SCORE.INTRA.SOLV.lig_0>
-112.452

>  <SCORE.INTRA.VDW>
0.95261

>  <SCORE.INTRA.VDW.0>
-5.95059

>  <SCORE.INTRA.norm>
-0.0814636

>  <SCORE.RESTR>
0.0221469

>  <SCORE.RESTR.CAVITY>
0.0221469

>  <SCORE.RESTR.norm>
0.000527306

>  <SCORE.SYSTEM>
0

>  <SCORE.SYSTEM.CONST>
0

>  <SCORE.SYSTEM.DIHEDRAL>
0

>  <SCORE.SYSTEM.SOLV>
0

>  <SCORE.SYSTEM.norm>
0

>  <SCORE.heavy>
42

>  <SCORE.norm>
-0.325047

>  <RMSD>
8.842

$$$$
2fcy_lig
 OpenBabel11021811433D
libRbt.so/2013.1/901 2013/11/27
 42 45  0  0  0  0  0  0  0  0999 V2000
   -3.8091   91.8012    8.9090 C   0  0  2  0  0  0  0  0  0  0  0  0
   -2.8605   92.2480    7.9253 O   0  0  0  0  0  0  0  0  0  0  0  0
   -3.8041   90.2747    8.8157 C   0  0  2  0  0  0  0  0  0  0  0  0
   -2.4245   89.7971    8.9808 N   0  0  0  0  0  0  0  0  0  0  0  0
   -4.3311   89.8435    7.4447 C   0  0  1  0  0  0  0  0  0  0  0  0
   -4.3398   88.4175    7.3352 O   0  0  0  0  0  0  0  0  0  0  0  0
   -5.7390   90.4049    7.2434 C   0  0  2  0  0  0  0  0  0  0  0  0
   -6.1898   90.0836    5.9277 O   0  0  0  0  0  0  0  0  0  0  0  0
   -5.6844   91.9283    7.3684 C   0  0  2  0  0  0  0  0  0  0  0  0
   -5.1427   92.2857    8.6495 O   0  0  0  0  0  0  0  0  0  0  0  0
   -7.0912   92.5015    7.1785 C   0  0  0  0  0  0  0  0  0  0  0  0
   -7.0634   93.9717    7.1679 N   0  0  0  0  0  0  0  0  0  0  0  0
   -0.3922   95.6463    7.8455 C   0  0  2  0  0  0  0  0  0  0  0  0
    0.2277   96.9795    7.8134 N   0  0  0  0  0  0  0  0  0  0  0  0
   -1.3201   95.4489    6.6451 C   0  0  0  0  0  0  0  0  0  0  0  0
   -1.8288   94.0039    6.6620 C   0  0  2  0  0  0  0  0  0  0  0  0
   -2.7914   93.8154    5.5671 N   0  0  0  0  0  0  0  0  0  0  0  0
   -2.5368   93.6489    7.9728 C   0  0  2  0  0  0  0  0  0  0  0  0
   -1.7731   94.0371    9.2340 C   0  0  2  0  0  0  0  0  0  0  0  0
   -2.7370   93.9886   10.2983 O   0  0  0  0  0  0  0  0  0  0  0  0
   -1.1925   95.4541    9.1361 C   0  0  1  0  0  0  0  0  0  0  0  0
   -0.3203   95.7243   10.2367 O   0  0  0  0  0  0  0  0  0  0  0  0
   -2.4767   93.0246   11.3314 C   0  0  1  0  0  0  0  0  0  0  0  0
   -1.4484   93.6355   12.2847 C   0  0  2  0  0  0  0  0  0  0  0  0
   -0.1317   93.4318   11.7664 O   0  0  0  0  0  0  0  0  0  0  0  0
   -1.6706   92.7214   13.4861 C   0  0  1  0  0  0  0  0  0  0  0  0
   -3.1901   92.7015   13.5385 C   0  0  2  0  0  0  0  0  0  0  0  0
   -3.6229   92.7518   12.1634 O   0  0  0  0  0  0  0  0  0  0  0  0
   -3.6799   93.9157   14.3359 C   0  0  0  0  0  0  0  0  0  0  0  0
   -5.1015   93.8753   14.4901 O   0  0  0  0  0  0  0  0  0  0  0  0
    0.0674   91.2011   13.8945 C   0  0  2  0  0  0  0  0  0  0  0  0
   -1.1705   91.4062   13.1966 O   0  0  0  0  0  0  0  0  0  0  0  0
   -0.1906   90.3889   15.1676 C   0  0  1  0  0  0  0  0  0  0  0  0
    3.8527   93.6007   15.7455 N   0  0  0  0  0  0  0  0  0  0  0  0
    1.1004   90.2449   15.9806 C   0  0  1  0  0  0  0  0  0  0  0  0
    2.0353   89.4143   15.2846 O   0  0  0  0  0  0  0  0  0  0  0  0
    1.7147   91.6255   16.2272 C   0  0  2  0  0  0  0  0  0  0  0  0
    0.8265   92.3773   17.0611 O   0  0  0  0  0  0  0  0  0  0  0  0
    1.9143   92.3450   14.8890 C   0  0  1  0  0  0  0  0  0  0  0  0
    0.6514   92.4771   14.2104 O   0  0  0  0  0  0  0  0  0  0  0  0
    2.5472   93.7259   15.0808 C   0  0  0  0  0  0  0  0  0  0  0  0
   -1.1800   91.1019   15.9896 N   0  0  0  0  0  0  0  0  0  0  0  0
  1  2  1  6  0  0  0
  1  3  1  0  0  0  0
  1 10  1  0  0  0  0
  3  4  1  6  0  0  0
  3  5  1  0  0  0  0
  5  6  1  1  0  0  0
  5  7  1  0  0  0  0
  7  8  1  6  0  0  0
  7  9  1  0  0  0  0
  9 10  1  0  0  0  0
  9 11  1  1  0  0  0
 11 12  1  0  0  0  0
 13 14  1  1  0  0  0
 13 15  1  0  0  0  0
 13 21  1  0  0  0  0
 16 15  1  0  0  0  0
 16 17  1  6  0  0  0
 18  2  1  1  0  0  0
 18 16  1  0  0  0  0
 19 18  1  0  0  0  0
 19 20  1  1  0  0  0
 21 19  1  0  0  0  0
 21 22  1  1  0  0  0
 23 20  1  6  0  0  0
 23 24  1  0  0  0  0
 23 28  1  0  0  0  0
 24 25  1  6  0  0  0
 24 26  1  0  0  0  0
 26 27  1  0  0  0  0
 26 32  1  6  0  0  0
 27 28  1  0  0  0  0
 27 29  1  1  0  0  0
 29 30  1  0  0  0  0
 31 32  1  1  0  0  0
 31 40  1  0  0  0  0
 33 31  1  0  0  0  0
 33 42  1  1  0  0  0
 35 33  1  0  0  0  0
 35 36  1  6  0  0  0
 37 35  1  0  0  0  0
 37 38  1  1  0  0  0
 37 39  1  0  0  0  0
 39 40  1  0  0  0  0
 39 41  1  1  0  0  0
 41 34  1  0  0  0  0
M  END
>  <CHROM.1>
-170.56892695,-174.77922485,-165.33787931,117.31656576,81.03865528,105.01474132
-175.70655611,99.58009034,59.18930561,-1.97156017,92.56794419,10.98541304
2.37934092,-0.70634345,-0.94576382

>  <Name>
2fcy_lig

>  <RI>
1.56845e+07

>  <Rbt.Current_Directory>
/home/itssahil/PROJECTS/Mol_Feturizer/New_Systems/rnas/2fcy

>  <Rbt.Executable>
rbdock ($Id: //depot/dev/client3/rdock/2013.1/src/exe/rbdock.cxx#4 $)

>  <Rbt.Library>
libRbt.so (2013.1, Build901 2013/11/27)

>  <Rbt.Parameter_File>
/export/apps/rDock/src/rDock_2013.1_src/data/scripts/dock_solv.prm

>  <Rbt.Receptor>
prm/pocket_docking_4.prm

>  <SCORE>
-6.4773

>  <SCORE.INTER>
-11.4475

>  <SCORE.INTER.CONST>
1

>  <SCORE.INTER.POLAR>
-1.75037

>  <SCORE.INTER.ROT>
9

>  <SCORE.INTER.SOLV>
14.6092

>  <SCORE.INTER.VDW>
-16.2669

>  <SCORE.INTER.norm>
-0.27256

>  <SCORE.INTRA>
4.96871

>  <SCORE.INTRA.DIHEDRAL>
4.84238

>  <SCORE.INTRA.DIHEDRAL.0>
17.3446

>  <SCORE.INTRA.POLAR>
0

>  <SCORE.INTRA.POLAR.0>
0

>  <SCORE.INTRA.REPUL>
0

>  <SCORE.INTRA.REPUL.0>
0

>  <SCORE.INTRA.SOLV>
-2.44149

>  <SCORE.INTRA.SOLV.lig_0>
-112.452

>  <SCORE.INTRA.VDW>
3.76827

>  <SCORE.INTRA.VDW.0>
-5.95059

>  <SCORE.INTRA.norm>
0.118303

>  <SCORE.RESTR>
0.00151588

>  <SCORE.RESTR.CAVITY>
0.00151588

>  <SCORE.RESTR.norm>
3.60924e-05

>  <SCORE.SYSTEM>
0

>  <SCORE.SYSTEM.CONST>
0

>  <SCORE.SYSTEM.DIHEDRAL>
0

>  <SCORE.SYSTEM.SOLV>
0

>  <SCORE.SYSTEM.norm>
0

>  <SCORE.heavy>
42

>  <SCORE.norm>
-0.154222

>  <RMSD>
8.854

$$$$
2fcy_lig
 OpenBabel11021811433D
libRbt.so/2013.1/901 2013/11/27
 42 45  0  0  0  0  0  0  0  0999 V2000
   -3.7681   93.8219    6.5769 C   0  0  2  0  0  0  0  0  0  0  0  0
   -3.5595   94.1661    7.9572 O   0  0  0  0  0  0  0  0  0  0  0  0
   -5.0635   94.5272    6.1725 C   0  0  2  0  0  0  0  0  0  0  0  0
   -4.9330   95.9598    6.4715 N   0  0  0  0  0  0  0  0  0  0  0  0
   -6.2337   93.9457    6.9697 C   0  0  1  0  0  0  0  0  0  0  0  0
   -7.4588   94.5877    6.6051 O   0  0  0  0  0  0  0  0  0  0  0  0
   -6.3216   92.4404    6.7159 C   0  0  2  0  0  0  0  0  0  0  0  0
   -7.3511   91.8849    7.5338 O   0  0  0  0  0  0  0  0  0  0  0  0
   -4.9947   91.7948    7.1179 C   0  0  2  0  0  0  0  0  0  0  0  0
   -3.9226   92.4014    6.3796 O   0  0  0  0  0  0  0  0  0  0  0  0
   -5.0671   90.2877    6.8587 C   0  0  0  0  0  0  0  0  0  0  0  0
   -5.0202   89.9988    5.4176 N   0  0  0  0  0  0  0  0  0  0  0  0
    0.4958   93.0771    7.8338 C   0  0  2  0  0  0  0  0  0  0  0  0
    1.9107   92.7516    8.0684 N   0  0  0  0  0  0  0  0  0  0  0  0
    0.1874   94.5099    8.2728 C   0  0  0  0  0  0  0  0  0  0  0  0
   -1.2587   94.8324    7.8830 C   0  0  2  0  0  0  0  0  0  0  0  0
   -1.6058   96.1742    8.3730 N   0  0  0  0  0  0  0  0  0  0  0  0
   -2.2606   93.8420    8.4837 C   0  0  2  0  0  0  0  0  0  0  0  0
   -1.8952   92.3738    8.2950 C   0  0  2  0  0  0  0  0  0  0  0  0
   -2.7091   91.6507    9.2324 O   0  0  0  0  0  0  0  0  0  0  0  0
   -0.4139   92.1111    8.5969 C   0  0  1  0  0  0  0  0  0  0  0  0
   -0.0471   90.7793    8.2267 O   0  0  0  0  0  0  0  0  0  0  0  0
   -2.0693   91.2947   10.4686 C   0  0  1  0  0  0  0  0  0  0  0  0
   -2.1716   92.4996   11.4052 C   0  0  2  0  0  0  0  0  0  0  0  0
   -1.1127   93.4181   11.1246 O   0  0  0  0  0  0  0  0  0  0  0  0
   -1.8953   91.7918   12.7285 C   0  0  1  0  0  0  0  0  0  0  0  0
   -2.7858   90.5687   12.5767 C   0  0  2  0  0  0  0  0  0  0  0  0
   -2.7386   90.2303   11.1753 O   0  0  0  0  0  0  0  0  0  0  0  0
   -4.2064   90.9237   13.0306 C   0  0  0  0  0  0  0  0  0  0  0  0
   -5.0875   89.8131   12.8385 O   0  0  0  0  0  0  0  0  0  0  0  0
   -0.0625   91.4471   14.1499 C   0  0  2  0  0  0  0  0  0  0  0  0
   -0.5167   91.3929   12.7890 O   0  0  0  0  0  0  0  0  0  0  0  0
    0.2720   92.8953   14.5213 C   0  0  1  0  0  0  0  0  0  0  0  0
    2.2212   88.2085   15.5490 N   0  0  0  0  0  0  0  0  0  0  0  0
    0.8552   92.9631   15.9368 C   0  0  1  0  0  0  0  0  0  0  0  0
   -0.1479   92.6344   16.9032 O   0  0  0  0  0  0  0  0  0  0  0  0
    2.0331   91.9927   16.0594 C   0  0  2  0  0  0  0  0  0  0  0  0
    3.0845   92.4406   15.1971 O   0  0  0  0  0  0  0  0  0  0  0  0
    1.5833   90.5854   15.6524 C   0  0  1  0  0  0  0  0  0  0  0  0
    1.0906   90.6004   14.2997 O   0  0  0  0  0  0  0  0  0  0  0  0
    2.7234   89.5712   15.7781 C   0  0  0  0  0  0  0  0  0  0  0  0
    1.2803   93.4031   13.5787 N   0  0  0  0  0  0  0  0  0  0  0  0
  1  2  1  1  0  0  0
  1  3  1  0  0  0  0
  1 10  1  0  0  0  0
  3  4  1  1  0  0  0
  3  5  1  0  0  0  0
  5  6  1  6  0  0  0
  5  7  1  0  0  0  0
  7  8  1  1  0  0  0
  7  9  1  0  0  0  0
  9 10  1  0  0  0  0
  9 11  1  6  0  0  0
 11 12  1  0  0  0  0
 13 14  1  1  0  0  0
 13 15  1  0  0  0  0
 13 21  1  0  0  0  0
 16 15  1  0  0  0  0
 16 17  1  1  0  0  0
 18  2  1  6  0  0  0
 18 16  1  0  0  0  0
 19 18  1  0  0  0  0
 19 20  1  1  0  0  0
 21 19  1  0  0  0  0
 21 22  1  6  0  0  0
 23 20  1  6  0  0  0
 23 24  1  0  0  0  0
 23 28  1  0  0  0  0
 24 25  1  6  0  0  0
 24 26  1  0  0  0  0
 26 27  1  0  0  0  0
 26 32  1  6  0  0  0
 27 28  1  0  0  0  0
 27 29  1  6  0  0  0
 29 30  1  0  0  0  0
 31 32  1  6  0  0  0
 31 40  1  0  0  0  0
 33 31  1  0  0  0  0
 33 42  1  6  0  0  0
 35 33  1  0  0  0  0
 35 36  1  1  0  0  0
 37 35  1  0  0  0  0
 37 38  1  6  0  0  0
 37 39  1  0  0  0  0
 39 40  1  0  0  0  0
 39 41  1  6  0  0  0
 41 34  1  0  0  0  0
M  END
>  <CHROM.1>
-167.82614695,72.50313653,72.71735710,-98.10797061,83.98450619,147.59043963
177.13276132,-80.01119256,172.76013565,-1.89933353,92.27818913,10.48679016
-2.25483319,0.39153805,2.09373714

>  <Name>
2fcy_lig

>  <RI>
0

>  <Rbt.Current_Directory>
/home/itssahil/PROJECTS/Mol_Feturizer/New_Systems/rnas/2fcy

>  <Rbt.Executable>
rbdock ($Id: //depot/dev/client3/rdock/2013.1/src/exe/rbdock.cxx#4 $)

>  <Rbt.Library>
libRbt.so (2013.1, Build901 2013/11/27)

>  <Rbt.Parameter_File>
/export/apps/rDock/src/rDock_2013.1_src/data/scripts/dock_solv.prm

>  <Rbt.Receptor>
prm/pocket_docking_2.prm

>  <SCORE>
3.59356

>  <SCORE.INTER>
-4.14076

>  <SCORE.INTER.CONST>
1

>  <SCORE.INTER.POLAR>
-1.8452

>  <SCORE.INTER.ROT>
9

>  <SCORE.INTER.SOLV>
25.1591

>  <SCORE.INTER.VDW>
-14.5962

>  <SCORE.INTER.norm>
-0.0985895

>  <SCORE.INTRA>
2.98631

>  <SCORE.INTRA.DIHEDRAL>
-1.49323

>  <SCORE.INTRA.DIHEDRAL.0>
17.3446

>  <SCORE.INTRA.POLAR>
0

>  <SCORE.INTRA.POLAR.0>
0

>  <SCORE.INTRA.REPUL>
0

>  <SCORE.INTRA.REPUL.0>
0

>  <SCORE.INTRA.SOLV>
-1.81801

>  <SCORE.INTRA.SOLV.lig_0>
-112.452

>  <SCORE.INTRA.VDW>
4.64193

>  <SCORE.INTRA.VDW.0>
-5.95059

>  <SCORE.INTRA.norm>
0.0711027

>  <SCORE.RESTR>
4.74801

>  <SCORE.RESTR.CAVITY>
4.74801

>  <SCORE.RESTR.norm>
0.113048

>  <SCORE.SYSTEM>
0

>  <SCORE.SYSTEM.CONST>
0

>  <SCORE.SYSTEM.DIHEDRAL>
0

>  <SCORE.SYSTEM.SOLV>
0

>  <SCORE.SYSTEM.norm>
0

>  <SCORE.heavy>
42

>  <SCORE.norm>
0.085561

>  <RMSD>
8.859

$$$$
2fcy_lig
 OpenBabel11021811433D
libRbt.so/2013.1/901 2013/11/27
 42 45  0  0  0  0  0  0  0  0999 V2000
   -3.7730   93.9503    6.5218 C   0  0  2  0  0  0  0  0  0  0  0  0
   -3.3099   94.3745    7.8152 O   0  0  0  0  0  0  0  0  0  0  0  0
   -5.1501   94.5933    6.3512 C   0  0  2  0  0  0  0  0  0  0  0  0
   -5.0210   96.0433    6.5507 N   0  0  0  0  0  0  0  0  0  0  0  0
   -6.1154   94.0205    7.3920 C   0  0  1  0  0  0  0  0  0  0  0  0
   -7.4132   94.6047    7.2493 O   0  0  0  0  0  0  0  0  0  0  0  0
   -6.1909   92.5018    7.2316 C   0  0  2  0  0  0  0  0  0  0  0  0
   -7.0154   91.9603    8.2635 O   0  0  0  0  0  0  0  0  0  0  0  0
   -4.7858   91.9192    7.3908 C   0  0  2  0  0  0  0  0  0  0  0  0
   -3.9060   92.5172    6.4261 O   0  0  0  0  0  0  0  0  0  0  0  0
   -4.8473   90.3988    7.2221 C   0  0  0  0  0  0  0  0  0  0  0  0
   -5.6338   89.7811    8.3003 N   0  0  0  0  0  0  0  0  0  0  0  0
    0.1342   91.9816    7.5738 C   0  0  2  0  0  0  0  0  0  0  0  0
    1.4374   91.3110    7.6963 N   0  0  0  0  0  0  0  0  0  0  0  0
    0.3152   93.4701    7.2696 C   0  0  0  0  0  0  0  0  0  0  0  0
   -1.0672   94.0828    7.0228 C   0  0  2  0  0  0  0  0  0  0  0  0
   -0.9260   95.5311    6.8145 N   0  0  0  0  0  0  0  0  0  0  0  0
   -2.0194   93.8711    8.2034 C   0  0  2  0  0  0  0  0  0  0  0  0
   -2.0756   92.4403    8.7271 C   0  0  2  0  0  0  0  0  0  0  0  0
   -2.6865   92.5287   10.0244 O   0  0  0  0  0  0  0  0  0  0  0  0
   -0.6756   91.8272    8.8634 C   0  0  1  0  0  0  0  0  0  0  0  0
   -0.7579   90.4316    9.1645 O   0  0  0  0  0  0  0  0  0  0  0  0
   -1.7874   92.4584   11.1429 C   0  0  1  0  0  0  0  0  0  0  0  0
   -1.7522   93.8416   11.7947 C   0  0  2  0  0  0  0  0  0  0  0  0
   -0.8210   94.6761   11.1018 O   0  0  0  0  0  0  0  0  0  0  0  0
   -1.1728   93.4471   13.1502 C   0  0  1  0  0  0  0  0  0  0  0  0
   -2.0143   92.2195   13.4615 C   0  0  2  0  0  0  0  0  0  0  0  0
   -2.2423   91.5772   12.1902 O   0  0  0  0  0  0  0  0  0  0  0  0
   -3.3255   92.6645   14.1195 C   0  0  0  0  0  0  0  0  0  0  0  0
   -3.1184   92.9576   15.5043 O   0  0  0  0  0  0  0  0  0  0  0  0
    0.7573   92.7542   14.2872 C   0  0  2  0  0  0  0  0  0  0  0  0
    0.2062   93.0740   13.0005 O   0  0  0  0  0  0  0  0  0  0  0  0
    2.2407   92.4020   14.1361 C   0  0  1  0  0  0  0  0  0  0  0  0
   -0.0055   89.9637   18.1708 N   0  0  0  0  0  0  0  0  0  0  0  0
    2.8246   91.9588   15.4819 C   0  0  1  0  0  0  0  0  0  0  0  0
    2.8743   93.0642   16.3896 O   0  0  0  0  0  0  0  0  0  0  0  0
    1.9675   90.8372   16.0749 C   0  0  2  0  0  0  0  0  0  0  0  0
    2.0669   89.6895   15.2249 O   0  0  0  0  0  0  0  0  0  0  0  0
    0.5092   91.2990   16.1658 C   0  0  1  0  0  0  0  0  0  0  0  0
    0.0253   91.6551   14.8574 O   0  0  0  0  0  0  0  0  0  0  0  0
   -0.3875   90.2170   16.7737 C   0  0  0  0  0  0  0  0  0  0  0  0
    2.3663   91.2869   13.1854 N   0  0  0  0  0  0  0  0  0  0  0  0
  1  2  1  1  0  0  0
  1  3  1  0  0  0  0
  1 10  1  0  0  0  0
  3  4  1  1  0  0  0
  3  5  1  0  0  0  0
  5  6  1  6  0  0  0
  5  7  1  0  0  0  0
  7  8  1  1  0  0  0
  7  9  1  0  0  0  0
  9 10  1  0  0  0  0
  9 11  1  6  0  0  0
 11 12  1  0  0  0  0
 13 14  1  1  0  0  0
 13 15  1  0  0  0  0
 13 21  1  0  0  0  0
 16 15  1  0  0  0  0
 16 17  1  1  0  0  0
 18  2  1  6  0  0  0
 18 16  1  0  0  0  0
 19 18  1  0  0  0  0
 19 20  1  1  0  0  0
 21 19  1  0  0  0  0
 21 22  1  6  0  0  0
 23 20  1  6  0  0  0
 23 24  1  0  0  0  0
 23 28  1  0  0  0  0
 24 25  1  6  0  0  0
 24 26  1  0  0  0  0
 26 27  1  0  0  0  0
 26 32  1  6  0  0  0
 27 28  1  0  0  0  0
 27 29  1  6  0  0  0
 29 30  1  0  0  0  0
 31 32  1  6  0  0  0
 31 40  1  0  0  0  0
 33 31  1  0  0  0  0
 33 42  1  6  0  0  0
 35 33  1  0  0  0  0
 35 36  1  1  0  0  0
 37 35  1  0  0  0  0
 37 38  1  6  0  0  0
 37 39  1  0  0  0  0
 39 40  1  0  0  0  0
 39 41  1  6  0  0  0
 41 34  1  0  0  0  0
M  END
>  <CHROM.1>
179.32553439,-64.95991592,47.54776329,-101.55765277,110.41886424,177.78904902
-79.44364295,-178.09051384,64.87063288,-1.73751007,92.52164726,10.84605931
-2.13786264,0.03383687,1.80260114

>  <Name>
2fcy_lig

>  <RI>
0

>  <Rbt.Current_Directory>
/home/itssahil/PROJECTS/Mol_Feturizer/New_Systems/rnas/2fcy

>  <Rbt.Executable>
rbdock ($Id: //depot/dev/client3/rdock/2013.1/src/exe/rbdock.cxx#4 $)

>  <Rbt.Library>
libRbt.so (2013.1, Build901 2013/11/27)

>  <Rbt.Parameter_File>
/export/apps/rDock/src/rDock_2013.1_src/data/scripts/dock_solv.prm

>  <Rbt.Receptor>
prm/pocket_docking_2.prm

>  <SCORE>
3.73517

>  <SCORE.INTER>
-5.9559

>  <SCORE.INTER.CONST>
1

>  <SCORE.INTER.POLAR>
-1.49096

>  <SCORE.INTER.ROT>
9

>  <SCORE.INTER.SOLV>
19.172

>  <SCORE.INTER.VDW>
-14.9914

>  <SCORE.INTER.norm>
-0.141807

>  <SCORE.INTRA>
5.14501

>  <SCORE.INTRA.DIHEDRAL>
-2.25395

>  <SCORE.INTRA.DIHEDRAL.0>
17.3446

>  <SCORE.INTRA.POLAR>
0

>  <SCORE.INTRA.POLAR.0>
0

>  <SCORE.INTRA.REPUL>
0

>  <SCORE.INTRA.REPUL.0>
0

>  <SCORE.INTRA.SOLV>
-2.55376

>  <SCORE.INTRA.SOLV.lig_0>
-112.452

>  <SCORE.INTRA.VDW>
7.54886

>  <SCORE.INTRA.VDW.0>
-5.95059

>  <SCORE.INTRA.norm>
0.1225

>  <SCORE.RESTR>
4.54606

>  <SCORE.RESTR.CAVITY>
4.54606

>  <SCORE.RESTR.norm>
0.10824

>  <SCORE.SYSTEM>
0

>  <SCORE.SYSTEM.CONST>
0

>  <SCORE.SYSTEM.DIHEDRAL>
0

>  <SCORE.SYSTEM.SOLV>
0

>  <SCORE.SYSTEM.norm>
0

>  <SCORE.heavy>
42

>  <SCORE.norm>
0.0889327

>  <RMSD>
8.860

$$$$
2fcy_lig
 OpenBabel11021811433D
libRbt.so/2013.1/901 2013/11/27
 42 45  0  0  0  0  0  0  0  0999 V2000
   -3.6355   94.0190    5.5035 C   0  0  2  0  0  0  0  0  0  0  0  0
   -3.7830   93.8596    6.9248 O   0  0  0  0  0  0  0  0  0  0  0  0
   -5.0565   93.9778    4.9394 C   0  0  2  0  0  0  0  0  0  0  0  0
   -5.8655   94.9942    5.6259 N   0  0  0  0  0  0  0  0  0  0  0  0
   -5.6643   92.5942    5.1828 C   0  0  1  0  0  0  0  0  0  0  0  0
   -6.9938   92.5299    4.6593 O   0  0  0  0  0  0  0  0  0  0  0  0
   -4.7800   91.5304    4.5313 C   0  0  2  0  0  0  0  0  0  0  0  0
   -5.2955   90.2359    4.8414 O   0  0  0  0  0  0  0  0  0  0  0  0
   -3.3713   91.6341    5.1179 C   0  0  2  0  0  0  0  0  0  0  0  0
   -2.8598   92.9594    4.9069 O   0  0  0  0  0  0  0  0  0  0  0  0
   -2.4735   90.5796    4.4655 C   0  0  0  0  0  0  0  0  0  0  0  0
   -1.1215   90.6093    5.0431 N   0  0  0  0  0  0  0  0  0  0  0  0
    0.1280   95.2047    7.6608 C   0  0  2  0  0  0  0  0  0  0  0  0
    1.4307   95.6348    8.1909 N   0  0  0  0  0  0  0  0  0  0  0  0
   -1.0050   96.0428    8.2566 C   0  0  0  0  0  0  0  0  0  0  0  0
   -2.3143   95.6397    7.5707 C   0  0  2  0  0  0  0  0  0  0  0  0
   -3.4306   96.3699    8.1884 N   0  0  0  0  0  0  0  0  0  0  0  0
   -2.6058   94.1420    7.7021 C   0  0  2  0  0  0  0  0  0  0  0  0
   -1.4335   93.2323    7.3521 C   0  0  2  0  0  0  0  0  0  0  0  0
   -1.7666   91.9466    7.9000 O   0  0  0  0  0  0  0  0  0  0  0  0
   -0.1213   93.7275    7.9746 C   0  0  1  0  0  0  0  0  0  0  0  0
    0.9921   92.9802    7.4775 O   0  0  0  0  0  0  0  0  0  0  0  0
   -1.7694   91.8621    9.3342 C   0  0  1  0  0  0  0  0  0  0  0  0
   -2.8908   90.9035    9.7381 C   0  0  2  0  0  0  0  0  0  0  0  0
   -4.1340   91.6081    9.7797 O   0  0  0  0  0  0  0  0  0  0  0  0
   -2.4328   90.5930   11.1602 C   0  0  1  0  0  0  0  0  0  0  0  0
   -0.9504   90.3502   10.9243 C   0  0  2  0  0  0  0  0  0  0  0  0
   -0.5728   91.2665    9.8762 O   0  0  0  0  0  0  0  0  0  0  0  0
   -0.7420   88.8895   10.5079 C   0  0  0  0  0  0  0  0  0  0  0  0
    0.6461   88.5471   10.5544 O   0  0  0  0  0  0  0  0  0  0  0  0
   -2.5196   91.3623   13.3736 C   0  0  2  0  0  0  0  0  0  0  0  0
   -2.6161   91.7482   11.9940 O   0  0  0  0  0  0  0  0  0  0  0  0
   -2.9477   92.5329   14.2644 C   0  0  1  0  0  0  0  0  0  0  0  0
    0.5983   89.5823   16.6347 N   0  0  0  0  0  0  0  0  0  0  0  0
   -2.7558   92.1778   15.7427 C   0  0  1  0  0  0  0  0  0  0  0  0
   -3.6802   91.1569   16.1320 O   0  0  0  0  0  0  0  0  0  0  0  0
   -1.3212   91.6977   15.9787 C   0  0  2  0  0  0  0  0  0  0  0  0
   -0.4288   92.7903   15.7351 O   0  0  0  0  0  0  0  0  0  0  0  0
   -1.0048   90.5386   15.0275 C   0  0  1  0  0  0  0  0  0  0  0  0
   -1.1672   90.9665   13.6625 O   0  0  0  0  0  0  0  0  0  0  0  0
    0.4157   90.0078   15.2392 C   0  0  0  0  0  0  0  0  0  0  0  0
   -2.1033   93.6961   13.9527 N   0  0  0  0  0  0  0  0  0  0  0  0
  1  2  1  1  0  0  0
  1  3  1  0  0  0  0
  1 10  1  0  0  0  0
  3  4  1  1  0  0  0
  3  5  1  0  0  0  0
  5  6  1  6  0  0  0
  5  7  1  0  0  0  0
  7  8  1  1  0  0  0
  7  9  1  0  0  0  0
  9 10  1  0  0  0  0
  9 11  1  6  0  0  0
 11 12  1  0  0  0  0
 13 14  1  1  0  0  0
 13 15  1  0  0  0  0
 13 21  1  0  0  0  0
 16 15  1  0  0  0  0
 16 17  1  1  0  0  0
 18  2  1  6  0  0  0
 18 16  1  0  0  0  0
 19 18  1  0  0  0  0
 19 20  1  1  0  0  0
 21 19  1  0  0  0  0
 21 22  1  6  0  0  0
 23 20  1  6  0  0  0
 23 24  1  0  0  0  0
 23 28  1  0  0  0  0
 24 25  1  1  0  0  0
 24 26  1  0  0  0  0
 26 27  1  0  0  0  0
 26 32  1  1  0  0  0
 27 28  1  0  0  0  0
 27 29  1  6  0  0  0
 29 30  1  0  0  0  0
 31 32  1  6  0  0  0
 31 40  1  0  0  0  0
 33 31  1  0  0  0  0
 33 42  1  6  0  0  0
 35 33  1  0  0  0  0
 35 36  1  6  0  0  0
 37 35  1  0  0  0  0
 37 38  1  6  0  0  0
 37 39  1  0  0  0  0
 39 40  1  0  0  0  0
 39 41  1  6  0  0  0
 41 34  1  0  0  0  0
M  END
>  <CHROM.1>
-167.62498611,-177.65797690,66.61894932,-68.93832363,144.64040022,165.13939540
-167.65688010,-170.44540331,57.21932615,-2.22430005,92.27161025,9.52028821
-2.04254645,0.96280379,2.16822251

>  <Name>
2fcy_lig

>  <RI>
1.56845e+07

>  <Rbt.Current_Directory>
/home/itssahil/PROJECTS/Mol_Feturizer/New_Systems/rnas/2fcy

>  <Rbt.Executable>
rbdock ($Id: //depot/dev/client3/rdock/2013.1/src/exe/rbdock.cxx#4 $)

>  <Rbt.Library>
libRbt.so (2013.1, Build901 2013/11/27)

>  <Rbt.Parameter_File>
/export/apps/rDock/src/rDock_2013.1_src/data/scripts/dock_solv.prm

>  <Rbt.Receptor>
prm/pocket_docking_4.prm

>  <SCORE>
-13.7775

>  <SCORE.INTER>
-10.8518

>  <SCORE.INTER.CONST>
1

>  <SCORE.INTER.POLAR>
-2.26957

>  <SCORE.INTER.ROT>
9

>  <SCORE.INTER.SOLV>
21.0916

>  <SCORE.INTER.VDW>
-16.2998

>  <SCORE.INTER.norm>
-0.258377

>  <SCORE.INTRA>
-2.9257

>  <SCORE.INTRA.DIHEDRAL>
-8.9238

>  <SCORE.INTRA.DIHEDRAL.0>
17.3446

>  <SCORE.INTRA.POLAR>
0

>  <SCORE.INTRA.POLAR.0>
0

>  <SCORE.INTRA.REPUL>
0

>  <SCORE.INTRA.REPUL.0>
0

>  <SCORE.INTRA.SOLV>
-2.18597

>  <SCORE.INTRA.SOLV.lig_0>
-112.452

>  <SCORE.INTRA.VDW>
2.62918

>  <SCORE.INTRA.VDW.0>
-5.95059

>  <SCORE.INTRA.norm>
-0.0696595

>  <SCORE.RESTR>
0

>  <SCORE.RESTR.CAVITY>
0

>  <SCORE.RESTR.norm>
0

>  <SCORE.SYSTEM>
0

>  <SCORE.SYSTEM.CONST>
0

>  <SCORE.SYSTEM.DIHEDRAL>
0

>  <SCORE.SYSTEM.SOLV>
0

>  <SCORE.SYSTEM.norm>
0

>  <SCORE.heavy>
42

>  <SCORE.norm>
-0.328036

>  <RMSD>
8.860

$$$$
2fcy_lig
 OpenBabel11021811433D
libRbt.so/2013.1/901 2013/11/27
 42 45  0  0  0  0  0  0  0  0999 V2000
   -2.9895   91.9414    7.7248 C   0  0  2  0  0  0  0  0  0  0  0  0
   -2.9908   90.5956    8.2308 O   0  0  0  0  0  0  0  0  0  0  0  0
   -4.3529   92.5208    8.1050 C   0  0  2  0  0  0  0  0  0  0  0  0
   -4.5400   92.3729    9.5547 N   0  0  0  0  0  0  0  0  0  0  0  0
   -5.4570   91.7577    7.3690 C   0  0  1  0  0  0  0  0  0  0  0  0
   -6.7431   92.2852    7.7058 O   0  0  0  0  0  0  0  0  0  0  0  0
   -5.2184   91.8496    5.8615 C   0  0  2  0  0  0  0  0  0  0  0  0
   -6.1925   91.0578    5.1820 O   0  0  0  0  0  0  0  0  0  0  0  0
   -3.8359   91.2766    5.5458 C   0  0  2  0  0  0  0  0  0  0  0  0
   -2.8382   91.9918    6.2912 O   0  0  0  0  0  0  0  0  0  0  0  0
   -3.5813   91.3725    4.0392 C   0  0  0  0  0  0  0  0  0  0  0  0
   -2.3076   90.7318    3.6789 N   0  0  0  0  0  0  0  0  0  0  0  0
    0.0936   87.8612    9.0410 C   0  0  2  0  0  0  0  0  0  0  0  0
    1.2431   86.9441    9.0530 N   0  0  0  0  0  0  0  0  0  0  0  0
   -0.9198   87.4491    7.9714 C   0  0  0  0  0  0  0  0  0  0  0  0
   -2.1480   88.3563    8.0965 C   0  0  2  0  0  0  0  0  0  0  0  0
   -3.0992   88.0363    7.0223 N   0  0  0  0  0  0  0  0  0  0  0  0
   -1.7922   89.8411    7.9785 C   0  0  2  0  0  0  0  0  0  0  0  0
   -0.6199   90.2855    8.8462 C   0  0  2  0  0  0  0  0  0  0  0  0
   -0.2072   91.5551    8.3152 O   0  0  0  0  0  0  0  0  0  0  0  0
    0.5514   89.2970    8.7726 C   0  0  1  0  0  0  0  0  0  0  0  0
    1.5552   89.6241    9.7371 O   0  0  0  0  0  0  0  0  0  0  0  0
    0.1864   92.5384    9.2860 C   0  0  1  0  0  0  0  0  0  0  0  0
   -1.0838   93.0454    9.9710 C   0  0  2  0  0  0  0  0  0  0  0  0
   -1.6812   94.0727    9.1764 O   0  0  0  0  0  0  0  0  0  0  0  0
   -0.4490   93.6653   11.2125 C   0  0  1  0  0  0  0  0  0  0  0  0
    0.5224   92.5627   11.6036 C   0  0  2  0  0  0  0  0  0  0  0  0
    0.9841   91.9978   10.3593 O   0  0  0  0  0  0  0  0  0  0  0  0
   -0.2138   91.5276   12.4620 C   0  0  0  0  0  0  0  0  0  0  0  0
    0.7129   90.6040   13.0404 O   0  0  0  0  0  0  0  0  0  0  0  0
    0.4214   95.6942   12.0026 C   0  0  2  0  0  0  0  0  0  0  0  0
    0.2737   94.8523   10.8490 O   0  0  0  0  0  0  0  0  0  0  0  0
    0.9538   97.0647   11.5720 C   0  0  1  0  0  0  0  0  0  0  0  0
    3.6485   94.7363   14.5498 N   0  0  0  0  0  0  0  0  0  0  0  0
    1.2155   97.9459   12.7982 C   0  0  1  0  0  0  0  0  0  0  0  0
   -0.0196   98.2944   13.4317 O   0  0  0  0  0  0  0  0  0  0  0  0
    2.1160   97.2023   13.7885 C   0  0  2  0  0  0  0  0  0  0  0  0
    3.3987   97.0099   13.1824 O   0  0  0  0  0  0  0  0  0  0  0  0
    1.4895   95.8472   14.1343 C   0  0  1  0  0  0  0  0  0  0  0  0
    1.3174   95.0669   12.9367 O   0  0  0  0  0  0  0  0  0  0  0  0
    2.3444   95.0718   15.1404 C   0  0  0  0  0  0  0  0  0  0  0  0
    2.2250   96.8736   10.8575 N   0  0  0  0  0  0  0  0  0  0  0  0
  1  2  1  6  0  0  0
  1  3  1  0  0  0  0
  1 10  1  0  0  0  0
  3  4  1  1  0  0  0
  3  5  1  0  0  0  0
  5  6  1  6  0  0  0
  5  7  1  0  0  0  0
  7  8  1  6  0  0  0
  7  9  1  0  0  0  0
  9 10  1  0  0  0  0
  9 11  1  6  0  0  0
 11 12  1  0  0  0  0
 13 14  1  6  0  0  0
 13 15  1  0  0  0  0
 13 21  1  0  0  0  0
 16 15  1  0  0  0  0
 16 17  1  6  0  0  0
 18  2  1  1  0  0  0
 18 16  1  0  0  0  0
 19 18  1  0  0  0  0
 19 20  1  6  0  0  0
 21 19  1  0  0  0  0
 21 22  1  1  0  0  0
 23 20  1  6  0  0  0
 23 24  1  0  0  0  0
 23 28  1  0  0  0  0
 24 25  1  6  0  0  0
 24 26  1  0  0  0  0
 26 27  1  0  0  0  0
 26 32  1  6  0  0  0
 27 28  1  0  0  0  0
 27 29  1  1  0  0  0
 29 30  1  0  0  0  0
 31 32  1  6  0  0  0
 31 40  1  0  0  0  0
 33 31  1  0  0  0  0
 33 42  1  1  0  0  0
 35 33  1  0  0  0  0
 35 36  1  1  0  0  0
 37 35  1  0  0  0  0
 37 38  1  6  0  0  0
 37 39  1  0  0  0  0
 39 40  1  0  0  0  0
 39 41  1  1  0  0  0
 41 34  1  0  0  0  0
M  END
>  <CHROM.1>
179.61724450,-175.36722486,-159.26162388,141.39497526,-73.62821297,157.87784686
-169.91395938,-169.52249575,-64.23786889,-0.90229342,92.50896322,9.68712319
2.29376301,0.67487684,-2.78478142

>  <Name>
2fcy_lig

>  <RI>
0

>  <Rbt.Current_Directory>
/home/itssahil/PROJECTS/Mol_Feturizer/New_Systems/rnas/2fcy

>  <Rbt.Executable>
rbdock ($Id: //depot/dev/client3/rdock/2013.1/src/exe/rbdock.cxx#4 $)

>  <Rbt.Library>
libRbt.so (2013.1, Build901 2013/11/27)

>  <Rbt.Parameter_File>
/export/apps/rDock/src/rDock_2013.1_src/data/scripts/dock_solv.prm

>  <Rbt.Receptor>
prm/pocket_docking_5.prm

>  <SCORE>
-11.5677

>  <SCORE.INTER>
-9.07587

>  <SCORE.INTER.CONST>
1

>  <SCORE.INTER.POLAR>
-2.83855

>  <SCORE.INTER.ROT>
9

>  <SCORE.INTER.SOLV>
10.4789

>  <SCORE.INTER.VDW>
-9.68174

>  <SCORE.INTER.norm>
-0.216092

>  <SCORE.INTRA>
-2.4918

>  <SCORE.INTRA.DIHEDRAL>
-5.85814

>  <SCORE.INTRA.DIHEDRAL.0>
17.3446

>  <SCORE.INTRA.POLAR>
0

>  <SCORE.INTRA.POLAR.0>
0

>  <SCORE.INTRA.REPUL>
0

>  <SCORE.INTRA.REPUL.0>
0

>  <SCORE.INTRA.SOLV>
-0.822871

>  <SCORE.INTRA.SOLV.lig_0>
-112.452

>  <SCORE.INTRA.VDW>
0.8487

>  <SCORE.INTRA.VDW.0>
-5.95059

>  <SCORE.INTRA.norm>
-0.0593287

>  <SCORE.RESTR>
0

>  <SCORE.RESTR.CAVITY>
0

>  <SCORE.RESTR.norm>
0

>  <SCORE.SYSTEM>
0

>  <SCORE.SYSTEM.CONST>
0

>  <SCORE.SYSTEM.DIHEDRAL>
0

>  <SCORE.SYSTEM.SOLV>
0

>  <SCORE.SYSTEM.norm>
0

>  <SCORE.heavy>
42

>  <SCORE.norm>
-0.275421

>  <RMSD>
8.861

$$$$
2fcy_lig
 OpenBabel11021811433D
libRbt.so/2013.1/901 2013/11/27
 42 45  0  0  0  0  0  0  0  0999 V2000
    6.5602   98.4176   11.7929 C   0  0  2  0  0  0  0  0  0  0  0  0
    5.8762   97.1951   11.4689 O   0  0  0  0  0  0  0  0  0  0  0  0
    7.8553   98.3875   10.9800 C   0  0  2  0  0  0  0  0  0  0  0  0
    7.5181   98.1884    9.5639 N   0  0  0  0  0  0  0  0  0  0  0  0
    8.7352   97.2310   11.4610 C   0  0  1  0  0  0  0  0  0  0  0  0
    9.9560   97.1851   10.7172 O   0  0  0  0  0  0  0  0  0  0  0  0
    9.0231   97.3998   12.9531 C   0  0  2  0  0  0  0  0  0  0  0  0
    9.7619   96.2712   13.4202 O   0  0  0  0  0  0  0  0  0  0  0  0
    7.6944   97.4442   13.7092 C   0  0  2  0  0  0  0  0  0  0  0  0
    6.8850   98.5133   13.1950 O   0  0  0  0  0  0  0  0  0  0  0  0
    7.9698   97.6231   15.2045 C   0  0  0  0  0  0  0  0  0  0  0  0
    6.7247   97.5399   15.9826 N   0  0  0  0  0  0  0  0  0  0  0  0
    2.0406   98.8698   11.8292 C   0  0  2  0  0  0  0  0  0  0  0  0
    0.6107   99.1865   11.9635 N   0  0  0  0  0  0  0  0  0  0  0  0
    2.2908   97.9970   10.5977 C   0  0  0  0  0  0  0  0  0  0  0  0
    3.8033   97.8128   10.4372 C   0  0  2  0  0  0  0  0  0  0  0  0
    4.0648   96.9051    9.3109 N   0  0  0  0  0  0  0  0  0  0  0  0
    4.4540   97.2087   11.6850 C   0  0  2  0  0  0  0  0  0  0  0  0
    4.0613   97.8803   12.9961 C   0  0  2  0  0  0  0  0  0  0  0  0
    4.4412   96.9582   14.0303 O   0  0  0  0  0  0  0  0  0  0  0  0
    2.5510   98.1401   13.0742 C   0  0  1  0  0  0  0  0  0  0  0  0
    2.2304   98.9420   14.2140 O   0  0  0  0  0  0  0  0  0  0  0  0
    3.6044   95.7986   14.1696 C   0  0  1  0  0  0  0  0  0  0  0  0
    4.4488   94.6936   14.8065 C   0  0  2  0  0  0  0  0  0  0  0  0
    5.2053   94.0233   13.7954 O   0  0  0  0  0  0  0  0  0  0  0  0
    3.3213   93.7845   15.2867 C   0  0  1  0  0  0  0  0  0  0  0  0
    2.3880   94.8105   15.9099 C   0  0  2  0  0  0  0  0  0  0  0  0
    2.5079   95.9891   15.0870 O   0  0  0  0  0  0  0  0  0  0  0  0
    2.8277   95.0757   17.3544 C   0  0  0  0  0  0  0  0  0  0  0  0
    2.7505   93.8768   18.1311 O   0  0  0  0  0  0  0  0  0  0  0  0
    1.9116   92.0375   14.6090 C   0  0  2  0  0  0  0  0  0  0  0  0
    2.6854   93.1605   14.1599 O   0  0  0  0  0  0  0  0  0  0  0  0
    0.8074   91.7360   13.5907 C   0  0  1  0  0  0  0  0  0  0  0  0
   -1.0039   92.4998   17.8212 N   0  0  0  0  0  0  0  0  0  0  0  0
   -0.0941   90.6056   14.0986 C   0  0  1  0  0  0  0  0  0  0  0  0
    0.6275   89.3699   14.1267 O   0  0  0  0  0  0  0  0  0  0  0  0
   -0.6054   90.9411   15.5023 C   0  0  2  0  0  0  0  0  0  0  0  0
   -1.4550   92.0900   15.4154 O   0  0  0  0  0  0  0  0  0  0  0  0
    0.5825   91.2345   16.4248 C   0  0  1  0  0  0  0  0  0  0  0  0
    1.3508   92.3332   15.9001 O   0  0  0  0  0  0  0  0  0  0  0  0
    0.1233   91.5562   17.8495 C   0  0  0  0  0  0  0  0  0  0  0  0
   -0.0150   92.9426   13.4153 N   0  0  0  0  0  0  0  0  0  0  0  0
  1  2  1  1  0  0  0
  1  3  1  0  0  0  0
  1 10  1  0  0  0  0
  3  4  1  6  0  0  0
  3  5  1  0  0  0  0
  5  6  1  6  0  0  0
  5  7  1  0  0  0  0
  7  8  1  1  0  0  0
  7  9  1  0  0  0  0
  9 10  1  0  0  0  0
  9 11  1  1  0  0  0
 11 12  1  0  0  0  0
 13 14  1  1  0  0  0
 13 15  1  0  0  0  0
 13 21  1  0  0  0  0
 16 15  1  0  0  0  0
 16 17  1  6  0  0  0
 18  2  1  6  0  0  0
 18 16  1  0  0  0  0
 19 18  1  0  0  0  0
 19 20  1  1  0  0  0
 21 19  1  0  0  0  0
 21 22  1  1  0  0  0
 23 20  1  1  0  0  0
 23 24  1  0  0  0  0
 23 28  1  0  0  0  0
 24 25  1  6  0  0  0
 24 26  1  0  0  0  0
 26 27  1  0  0  0  0
 26 32  1  6  0  0  0
 27 28  1  0  0  0  0
 27 29  1  1  0  0  0
 29 30  1  0  0  0  0
 31 32  1  6  0  0  0
 31 40  1  0  0  0  0
 33 31  1  0  0  0  0
 33 42  1  1  0  0  0
 35 33  1  0  0  0  0
 35 36  1  1  0  0  0
 37 35  1  0  0  0  0
 37 38  1  6  0  0  0
 37 39  1  0  0  0  0
 39 40  1  0  0  0  0
 39 41  1  1  0  0  0
 41 34  1  0  0  0  0
M  END
>  <CHROM.1>
-157.23442552,-174.49099093,84.75599461,-74.04832940,154.98340389,163.31822181
-61.32710532,156.44531283,-45.56158434,3.75048113,95.45448558,13.78919976
0.78447023,-0.19779601,-0.76422291

>  <Name>
2fcy_lig

>  <RI>
9.29634e+06

>  <Rbt.Current_Directory>
/home/itssahil/PROJECTS/Mol_Feturizer/New_Systems/rnas/2fcy

>  <Rbt.Executable>
rbdock ($Id: //depot/dev/client3/rdock/2013.1/src/exe/rbdock.cxx#4 $)

>  <Rbt.Library>
libRbt.so (2013.1, Build901 2013/11/27)

>  <Rbt.Parameter_File>
/export/apps/rDock/src/rDock_2013.1_src/data/scripts/dock_solv.prm

>  <Rbt.Receptor>
prm/blind_docking_100.prm

>  <SCORE>
-1.53396

>  <SCORE.INTER>
-8.25076

>  <SCORE.INTER.CONST>
1

>  <SCORE.INTER.POLAR>
-1.33427

>  <SCORE.INTER.ROT>
9

>  <SCORE.INTER.SOLV>
33.5757

>  <SCORE.INTER.VDW>
-21.8448

>  <SCORE.INTER.norm>
-0.196447

>  <SCORE.INTRA>
3.85921

>  <SCORE.INTRA.DIHEDRAL>
-3.9828

>  <SCORE.INTRA.DIHEDRAL.0>
17.3446

>  <SCORE.INTRA.POLAR>
0

>  <SCORE.INTRA.POLAR.0>
0

>  <SCORE.INTRA.REPUL>
0

>  <SCORE.INTRA.REPUL.0>
0

>  <SCORE.INTRA.SOLV>
1.24476

>  <SCORE.INTRA.SOLV.lig_0>
-112.452

>  <SCORE.INTRA.VDW>
5.22823

>  <SCORE.INTRA.VDW.0>
-5.95059

>  <SCORE.INTRA.norm>
0.091886

>  <SCORE.RESTR>
2.85759

>  <SCORE.RESTR.CAVITY>
2.85759

>  <SCORE.RESTR.norm>
0.0680379

>  <SCORE.SYSTEM>
0

>  <SCORE.SYSTEM.CONST>
0

>  <SCORE.SYSTEM.DIHEDRAL>
0

>  <SCORE.SYSTEM.SOLV>
0

>  <SCORE.SYSTEM.norm>
0

>  <SCORE.heavy>
42

>  <SCORE.norm>
-0.0365228

>  <RMSD>
8.872

$$$$
2fcy_lig
 OpenBabel11021811433D
libRbt.so/2013.1/901 2013/11/27
 42 45  0  0  0  0  0  0  0  0999 V2000
    0.4039   94.7276    9.8740 C   0  0  2  0  0  0  0  0  0  0  0  0
   -0.8772   95.3410   10.0968 O   0  0  0  0  0  0  0  0  0  0  0  0
    0.7258   94.9804    8.4004 C   0  0  2  0  0  0  0  0  0  0  0  0
    0.6439   96.4243    8.1412 N   0  0  0  0  0  0  0  0  0  0  0  0
   -0.2903   94.2472    7.5211 C   0  0  1  0  0  0  0  0  0  0  0  0
   -0.0068   94.4656    6.1363 O   0  0  0  0  0  0  0  0  0  0  0  0
   -0.2569   92.7535    7.8457 C   0  0  2  0  0  0  0  0  0  0  0  0
   -1.2713   92.0862    7.0950 O   0  0  0  0  0  0  0  0  0  0  0  0
   -0.5642   92.5654    9.3321 C   0  0  2  0  0  0  0  0  0  0  0  0
    0.3846   93.3058   10.1158 O   0  0  0  0  0  0  0  0  0  0  0  0
   -0.5237   91.0731    9.6714 C   0  0  0  0  0  0  0  0  0  0  0  0
    0.7863   90.4933    9.3395 N   0  0  0  0  0  0  0  0  0  0  0  0
   -2.3092   97.5815   13.3489 C   0  0  2  0  0  0  0  0  0  0  0  0
   -2.7730   98.1263   14.6338 N   0  0  0  0  0  0  0  0  0  0  0  0
   -3.1353   96.3581   12.9470 C   0  0  0  0  0  0  0  0  0  0  0  0
   -2.6958   95.9189   11.5466 C   0  0  2  0  0  0  0  0  0  0  0  0
   -3.4147   94.6919   11.1747 N   0  0  0  0  0  0  0  0  0  0  0  0
   -1.1952   95.6223   11.4713 C   0  0  2  0  0  0  0  0  0  0  0  0
   -0.3023   96.6998   12.0765 C   0  0  2  0  0  0  0  0  0  0  0  0
    0.9801   96.0789   12.2607 O   0  0  0  0  0  0  0  0  0  0  0  0
   -0.8330   97.1858   13.4318 C   0  0  1  0  0  0  0  0  0  0  0  0
   -0.0989   98.3254   13.8872 O   0  0  0  0  0  0  0  0  0  0  0  0
    1.1514   95.3553   13.4901 C   0  0  1  0  0  0  0  0  0  0  0  0
    2.2212   94.2881   13.2526 C   0  0  2  0  0  0  0  0  0  0  0  0
    1.6243   93.1328   12.6588 O   0  0  0  0  0  0  0  0  0  0  0  0
    2.5788   93.9876   14.7053 C   0  0  1  0  0  0  0  0  0  0  0  0
    2.6850   95.3996   15.2595 C   0  0  2  0  0  0  0  0  0  0  0  0
    1.6790   96.1629   14.5624 O   0  0  0  0  0  0  0  0  0  0  0  0
    4.0957   95.9374   14.9937 C   0  0  0  0  0  0  0  0  0  0  0  0
    4.2578   97.2330   15.5782 O   0  0  0  0  0  0  0  0  0  0  0  0
    1.8322   91.9002   15.4692 C   0  0  2  0  0  0  0  0  0  0  0  0
    1.4951   93.2898   15.3394 O   0  0  0  0  0  0  0  0  0  0  0  0
    0.5584   91.0845   15.7130 C   0  0  1  0  0  0  0  0  0  0  0  0
    4.8247   88.9200   17.8311 N   0  0  0  0  0  0  0  0  0  0  0  0
    0.9050   89.6117   15.9559 C   0  0  1  0  0  0  0  0  0  0  0  0
    1.4120   89.0168   14.7570 O   0  0  0  0  0  0  0  0  0  0  0  0
    1.9474   89.5016   17.0720 C   0  0  2  0  0  0  0  0  0  0  0  0
    1.3564   89.9559   18.2942 O   0  0  0  0  0  0  0  0  0  0  0  0
    3.1649   90.3649   16.7242 C   0  0  1  0  0  0  0  0  0  0  0  0
    2.7610   91.7364   16.5552 O   0  0  0  0  0  0  0  0  0  0  0  0
    4.2477   90.2721   17.8027 C   0  0  0  0  0  0  0  0  0  0  0  0
   -0.1143   91.6073   16.9119 N   0  0  0  0  0  0  0  0  0  0  0  0
  1  2  1  6  0  0  0
  1  3  1  0  0  0  0
  1 10  1  0  0  0  0
  3  4  1  1  0  0  0
  3  5  1  0  0  0  0
  5  6  1  6  0  0  0
  5  7  1  0  0  0  0
  7  8  1  6  0  0  0
  7  9  1  0  0  0  0
  9 10  1  0  0  0  0
  9 11  1  1  0  0  0
 11 12  1  0  0  0  0
 13 14  1  1  0  0  0
 13 15  1  0  0  0  0
 13 21  1  0  0  0  0
 16 15  1  0  0  0  0
 16 17  1  1  0  0  0
 18  2  1  6  0  0  0
 18 16  1  0  0  0  0
 19 18  1  0  0  0  0
 19 20  1  1  0  0  0
 21 19  1  0  0  0  0
 21 22  1  6  0  0  0
 23 20  1  6  0  0  0
 23 24  1  0  0  0  0
 23 28  1  0  0  0  0
 24 25  1  1  0  0  0
 24 26  1  0  0  0  0
 26 27  1  0  0  0  0
 26 32  1  1  0  0  0
 27 28  1  0  0  0  0
 27 29  1  6  0  0  0
 29 30  1  0  0  0  0
 31 32  1  1  0  0  0
 31 40  1  0  0  0  0
 33 31  1  0  0  0  0
 33 42  1  1  0  0  0
 35 33  1  0  0  0  0
 35 36  1  6  0  0  0
 37 35  1  0  0  0  0
 37 38  1  1  0  0  0
 37 39  1  0  0  0  0
 39 40  1  0  0  0  0
 39 41  1  1  0  0  0
 41 34  1  0  0  0  0
M  END
>  <CHROM.1>
-160.44627155,57.93295972,-165.52185965,-85.85113084,154.44704278,104.27962482
-176.29924509,-161.91440425,67.17676569,0.68986926,93.75767940,12.93792319
-3.00436289,-1.18338727,0.63591074

>  <Name>
2fcy_lig

>  <RI>
2.89127e+07

>  <Rbt.Current_Directory>
/home/itssahil/PROJECTS/Mol_Feturizer/New_Systems/rnas/2fcy

>  <Rbt.Executable>
rbdock ($Id: //depot/dev/client3/rdock/2013.1/src/exe/rbdock.cxx#4 $)

>  <Rbt.Library>
libRbt.so (2013.1, Build901 2013/11/27)

>  <Rbt.Parameter_File>
/export/apps/rDock/src/rDock_2013.1_src/data/scripts/dock_solv.prm

>  <Rbt.Receptor>
prm/pocket_docking_7.prm

>  <SCORE>
-20.2212

>  <SCORE.INTER>
-21.1171

>  <SCORE.INTER.CONST>
1

>  <SCORE.INTER.POLAR>
-3.12927

>  <SCORE.INTER.ROT>
9

>  <SCORE.INTER.SOLV>
21.3097

>  <SCORE.INTER.VDW>
-20.3504

>  <SCORE.INTER.norm>
-0.502789

>  <SCORE.INTRA>
0.869609

>  <SCORE.INTRA.DIHEDRAL>
-1.285

>  <SCORE.INTRA.DIHEDRAL.0>
17.3446

>  <SCORE.INTRA.POLAR>
0

>  <SCORE.INTRA.POLAR.0>
0

>  <SCORE.INTRA.REPUL>
0.0132572

>  <SCORE.INTRA.REPUL.0>
0

>  <SCORE.INTRA.SOLV>
-3.19116

>  <SCORE.INTRA.SOLV.lig_0>
-112.452

>  <SCORE.INTRA.VDW>
3.0414

>  <SCORE.INTRA.VDW.0>
-5.95059

>  <SCORE.INTRA.norm>
0.020705

>  <SCORE.RESTR>
0.0262932

>  <SCORE.RESTR.CAVITY>
0.0262932

>  <SCORE.RESTR.norm>
0.000626028

>  <SCORE.SYSTEM>
0

>  <SCORE.SYSTEM.CONST>
0

>  <SCORE.SYSTEM.DIHEDRAL>
0

>  <SCORE.SYSTEM.SOLV>
0

>  <SCORE.SYSTEM.norm>
0

>  <SCORE.heavy>
42

>  <SCORE.norm>
-0.481458

>  <RMSD>
8.874

$$$$
2fcy_lig
 OpenBabel11021811433D
libRbt.so/2013.1/901 2013/11/27
 42 45  0  0  0  0  0  0  0  0999 V2000
   -1.4509   90.9714    8.1223 C   0  0  2  0  0  0  0  0  0  0  0  0
   -1.6580   91.9669    9.1389 O   0  0  0  0  0  0  0  0  0  0  0  0
    0.0578   90.9522    7.8724 C   0  0  2  0  0  0  0  0  0  0  0  0
    0.7445   90.7261    9.1515 N   0  0  0  0  0  0  0  0  0  0  0  0
    0.4976   92.2977    7.2898 C   0  0  1  0  0  0  0  0  0  0  0  0
    1.9065   92.3024    7.0431 O   0  0  0  0  0  0  0  0  0  0  0  0
   -0.2734   92.5666    5.9970 C   0  0  2  0  0  0  0  0  0  0  0  0
    0.0669   93.8636    5.5075 O   0  0  0  0  0  0  0  0  0  0  0  0
   -1.7715   92.5527    6.3050 C   0  0  2  0  0  0  0  0  0  0  0  0
   -2.1295   91.2911    6.8904 O   0  0  0  0  0  0  0  0  0  0  0  0
   -2.5547   92.8110    5.0152 C   0  0  0  0  0  0  0  0  0  0  0  0
   -2.3440   94.1860    4.5380 N   0  0  0  0  0  0  0  0  0  0  0  0
   -3.1194   91.6784   13.0667 C   0  0  2  0  0  0  0  0  0  0  0  0
   -3.4644   91.3487   14.4578 N   0  0  0  0  0  0  0  0  0  0  0  0
   -3.4243   90.5018   12.1374 C   0  0  0  0  0  0  0  0  0  0  0  0
   -3.1709   90.9496   10.6943 C   0  0  2  0  0  0  0  0  0  0  0  0
   -3.3733   89.8089    9.7895 N   0  0  0  0  0  0  0  0  0  0  0  0
   -1.7442   91.4652   10.4844 C   0  0  2  0  0  0  0  0  0  0  0  0
   -1.2734   92.4762   11.5239 C   0  0  2  0  0  0  0  0  0  0  0  0
    0.1561   92.5288   11.3904 O   0  0  0  0  0  0  0  0  0  0  0  0
   -1.6366   92.0399   12.9495 C   0  0  1  0  0  0  0  0  0  0  0  0
   -1.3654   93.0854   13.8868 O   0  0  0  0  0  0  0  0  0  0  0  0
    0.7515   93.8241   11.5687 C   0  0  1  0  0  0  0  0  0  0  0  0
    0.3767   94.6757   10.3546 C   0  0  2  0  0  0  0  0  0  0  0  0
    1.2835   94.4093    9.2820 O   0  0  0  0  0  0  0  0  0  0  0  0
    0.6677   96.0556   10.9375 C   0  0  1  0  0  0  0  0  0  0  0  0
    0.0105   95.9212   12.3021 C   0  0  2  0  0  0  0  0  0  0  0  0
    0.2201   94.5496   12.6964 O   0  0  0  0  0  0  0  0  0  0  0  0
   -1.4799   96.2575   12.1759 C   0  0  0  0  0  0  0  0  0  0  0  0
   -1.6556   97.6232   11.7881 O   0  0  0  0  0  0  0  0  0  0  0  0
    2.3548   97.5619   11.5565 C   0  0  2  0  0  0  0  0  0  0  0  0
    2.0853   96.2315   11.0887 O   0  0  0  0  0  0  0  0  0  0  0  0
    1.9007   98.5773   10.5030 C   0  0  1  0  0  0  0  0  0  0  0  0
    6.4102   98.5335   11.6113 N   0  0  0  0  0  0  0  0  0  0  0  0
    2.2713   99.9996   10.9368 C   0  0  1  0  0  0  0  0  0  0  0  0
    1.4968  100.3889   12.0756 O   0  0  0  0  0  0  0  0  0  0  0  0
    3.7631  100.0665   11.2751 C   0  0  2  0  0  0  0  0  0  0  0  0
    4.5128   99.8303   10.0786 O   0  0  0  0  0  0  0  0  0  0  0  0
    4.0995   99.0020   12.3248 C   0  0  1  0  0  0  0  0  0  0  0  0
    3.7619   97.6953   11.8235 O   0  0  0  0  0  0  0  0  0  0  0  0
    5.5800   99.0420   12.7132 C   0  0  0  0  0  0  0  0  0  0  0  0
    2.5892   98.2836    9.2370 N   0  0  0  0  0  0  0  0  0  0  0  0
  1  2  1  1  0  0  0
  1  3  1  0  0  0  0
  1 10  1  0  0  0  0
  3  4  1  1  0  0  0
  3  5  1  0  0  0  0
  5  6  1  6  0  0  0
  5  7  1  0  0  0  0
  7  8  1  1  0  0  0
  7  9  1  0  0  0  0
  9 10  1  0  0  0  0
  9 11  1  6  0  0  0
 11 12  1  0  0  0  0
 13 14  1  1  0  0  0
 13 15  1  0  0  0  0
 13 21  1  0  0  0  0
 16 15  1  0  0  0  0
 16 17  1  6  0  0  0
 18  2  1  6  0  0  0
 18 16  1  0  0  0  0
 19 18  1  0  0  0  0
 19 20  1  1  0  0  0
 21 19  1  0  0  0  0
 21 22  1  1  0  0  0
 23 20  1  6  0  0  0
 23 24  1  0  0  0  0
 23 28  1  0  0  0  0
 24 25  1  6  0  0  0
 24 26  1  0  0  0  0
 26 27  1  0  0  0  0
 26 32  1  1  0  0  0
 27 28  1  0  0  0  0
 27 29  1  6  0  0  0
 29 30  1  0  0  0  0
 31 32  1  6  0  0  0
 31 40  1  0  0  0  0
 33 31  1  0  0  0  0
 33 42  1  6  0  0  0
 35 33  1  0  0  0  0
 35 36  1  1  0  0  0
 37 35  1  0  0  0  0
 37 38  1  6  0  0  0
 37 39  1  0  0  0  0
 39 40  1  0  0  0  0
 39 41  1  6  0  0  0
 41 34  1  0  0  0  0
M  END
>  <CHROM.1>
-96.16276838,-67.85761579,-81.24788510,143.09578531,-70.92928097,176.33951157
-63.89884276,-63.59968799,-71.49922046,0.25274206,94.57210350,10.22437035
-2.68396243,0.89044213,1.32389538

>  <Name>
2fcy_lig

>  <RI>
2.89127e+07

>  <Rbt.Current_Directory>
/home/itssahil/PROJECTS/Mol_Feturizer/New_Systems/rnas/2fcy

>  <Rbt.Executable>
rbdock ($Id: //depot/dev/client3/rdock/2013.1/src/exe/rbdock.cxx#4 $)

>  <Rbt.Library>
libRbt.so (2013.1, Build901 2013/11/27)

>  <Rbt.Parameter_File>
/export/apps/rDock/src/rDock_2013.1_src/data/scripts/dock_solv.prm

>  <Rbt.Receptor>
prm/pocket_docking_7.prm

>  <SCORE>
-4.07217

>  <SCORE.INTER>
-6.51099

>  <SCORE.INTER.CONST>
1

>  <SCORE.INTER.POLAR>
-2.13965

>  <SCORE.INTER.ROT>
9

>  <SCORE.INTER.SOLV>
17.1142

>  <SCORE.INTER.VDW>
-12.5132

>  <SCORE.INTER.norm>
-0.155024

>  <SCORE.INTRA>
2.43882

>  <SCORE.INTRA.DIHEDRAL>
-3.73159

>  <SCORE.INTRA.DIHEDRAL.0>
17.3446

>  <SCORE.INTRA.POLAR>
0

>  <SCORE.INTRA.POLAR.0>
0

>  <SCORE.INTRA.REPUL>
0

>  <SCORE.INTRA.REPUL.0>
0

>  <SCORE.INTRA.SOLV>
3.24269

>  <SCORE.INTRA.SOLV.lig_0>
-112.452

>  <SCORE.INTRA.VDW>
2.68327

>  <SCORE.INTRA.VDW.0>
-5.95059

>  <SCORE.INTRA.norm>
0.0580672

>  <SCORE.RESTR>
0

>  <SCORE.RESTR.CAVITY>
0

>  <SCORE.RESTR.norm>
0

>  <SCORE.SYSTEM>
0

>  <SCORE.SYSTEM.CONST>
0

>  <SCORE.SYSTEM.DIHEDRAL>
0

>  <SCORE.SYSTEM.SOLV>
0

>  <SCORE.SYSTEM.norm>
0

>  <SCORE.heavy>
42

>  <SCORE.norm>
-0.0969564

>  <RMSD>
8.886

$$$$
2fcy_lig
 OpenBabel11021811433D
libRbt.so/2013.1/901 2013/11/27
 42 45  0  0  0  0  0  0  0  0999 V2000
   -2.7871   93.3827   11.3043 C   0  0  2  0  0  0  0  0  0  0  0  0
   -1.5586   93.8246   10.7021 O   0  0  0  0  0  0  0  0  0  0  0  0
   -2.5781   93.5310   12.8120 C   0  0  2  0  0  0  0  0  0  0  0  0
   -2.1763   94.9151   13.0980 N   0  0  0  0  0  0  0  0  0  0  0  0
   -1.4745   92.5755   13.2726 C   0  0  1  0  0  0  0  0  0  0  0  0
   -1.2635   92.6932   14.6824 O   0  0  0  0  0  0  0  0  0  0  0  0
   -1.8600   91.1419   12.9065 C   0  0  2  0  0  0  0  0  0  0  0  0
   -0.7876   90.2643   13.2494 O   0  0  0  0  0  0  0  0  0  0  0  0
   -2.0758   91.0606   11.3946 C   0  0  2  0  0  0  0  0  0  0  0  0
   -3.0850   92.0041   11.0023 O   0  0  0  0  0  0  0  0  0  0  0  0
   -2.4723   89.6309   11.0170 C   0  0  0  0  0  0  0  0  0  0  0  0
   -2.4554   89.4481    9.5579 N   0  0  0  0  0  0  0  0  0  0  0  0
   -0.8745   96.8303    7.8482 C   0  0  2  0  0  0  0  0  0  0  0  0
   -0.7960   98.0423    7.0189 N   0  0  0  0  0  0  0  0  0  0  0  0
   -2.3302   96.4099    8.0605 C   0  0  0  0  0  0  0  0  0  0  0  0
   -2.3413   95.0761    8.8142 C   0  0  2  0  0  0  0  0  0  0  0  0
   -3.7307   94.6955    9.1066 N   0  0  0  0  0  0  0  0  0  0  0  0
   -1.5873   95.1507   10.1451 C   0  0  2  0  0  0  0  0  0  0  0  0
   -0.2040   95.7859   10.0582 C   0  0  2  0  0  0  0  0  0  0  0  0
    0.1553   96.1132   11.4101 O   0  0  0  0  0  0  0  0  0  0  0  0
   -0.2156   97.0645    9.2098 C   0  0  1  0  0  0  0  0  0  0  0  0
    1.1153   97.5335    8.9775 O   0  0  0  0  0  0  0  0  0  0  0  0
    1.5643   96.2033   11.6762 C   0  0  1  0  0  0  0  0  0  0  0  0
    1.7322   96.7356   13.1003 C   0  0  2  0  0  0  0  0  0  0  0  0
    1.6449   98.1625   13.0937 O   0  0  0  0  0  0  0  0  0  0  0  0
    3.1794   96.3145   13.3387 C   0  0  1  0  0  0  0  0  0  0  0  0
    3.1427   94.8914   12.8042 C   0  0  2  0  0  0  0  0  0  0  0  0
    2.2288   94.9232   11.6886 O   0  0  0  0  0  0  0  0  0  0  0  0
    2.6567   93.9518   13.9137 C   0  0  0  0  0  0  0  0  0  0  0  0
    2.5583   92.6098   13.4282 O   0  0  0  0  0  0  0  0  0  0  0  0
    5.4218   96.8269   12.8828 C   0  0  2  0  0  0  0  0  0  0  0  0
    4.0591   97.1191   12.5374 O   0  0  0  0  0  0  0  0  0  0  0  0
    5.7152   97.3461   14.2940 C   0  0  1  0  0  0  0  0  0  0  0  0
    8.1369   99.0941   10.7323 N   0  0  0  0  0  0  0  0  0  0  0  0
    7.1922   97.1358   14.6446 C   0  0  1  0  0  0  0  0  0  0  0  0
    7.4767   95.7396   14.7783 O   0  0  0  0  0  0  0  0  0  0  0  0
    8.0761   97.7443   13.5524 C   0  0  2  0  0  0  0  0  0  0  0  0
    7.8876   99.1635   13.5514 O   0  0  0  0  0  0  0  0  0  0  0  0
    7.6839   97.1612   12.1906 C   0  0  1  0  0  0  0  0  0  0  0  0
    6.2974   97.4386   11.9195 O   0  0  0  0  0  0  0  0  0  0  0  0
    8.5554   97.7243   11.0647 C   0  0  0  0  0  0  0  0  0  0  0  0
    5.4288   98.7881   14.3352 N   0  0  0  0  0  0  0  0  0  0  0  0
  1  2  1  6  0  0  0
  1  3  1  0  0  0  0
  1 10  1  0  0  0  0
  3  4  1  6  0  0  0
  3  5  1  0  0  0  0
  5  6  1  1  0  0  0
  5  7  1  0  0  0  0
  7  8  1  6  0  0  0
  7  9  1  0  0  0  0
  9 10  1  0  0  0  0
  9 11  1  1  0  0  0
 11 12  1  0  0  0  0
 13 14  1  6  0  0  0
 13 15  1  0  0  0  0
 13 21  1  0  0  0  0
 16 15  1  0  0  0  0
 16 17  1  1  0  0  0
 18  2  1  6  0  0  0
 18 16  1  0  0  0  0
 19 18  1  0  0  0  0
 19 20  1  1  0  0  0
 21 19  1  0  0  0  0
 21 22  1  6  0  0  0
 23 20  1  1  0  0  0
 23 24  1  0  0  0  0
 23 28  1  0  0  0  0
 24 25  1  6  0  0  0
 24 26  1  0  0  0  0
 26 27  1  0  0  0  0
 26 32  1  6  0  0  0
 27 28  1  0  0  0  0
 27 29  1  1  0  0  0
 29 30  1  0  0  0  0
 31 32  1  6  0  0  0
 31 40  1  0  0  0  0
 33 31  1  0  0  0  0
 33 42  1  6  0  0  0
 35 33  1  0  0  0  0
 35 36  1  6  0  0  0
 37 35  1  0  0  0  0
 37 38  1  6  0  0  0
 37 39  1  0  0  0  0
 39 40  1  0  0  0  0
 39 41  1  6  0  0  0
 41 34  1  0  0  0  0
M  END
>  <CHROM.1>
-101.98757708,-169.86644106,-76.52198556,155.36610666,172.65839136,173.23996038
177.65700246,-69.02613248,-76.17702851,1.57856643,95.28511705,11.81199931
-2.92357638,-0.48395319,-0.71297580

>  <Name>
2fcy_lig

>  <RI>
2.89127e+07

>  <Rbt.Current_Directory>
/home/itssahil/PROJECTS/Mol_Feturizer/New_Systems/rnas/2fcy

>  <Rbt.Executable>
rbdock ($Id: //depot/dev/client3/rdock/2013.1/src/exe/rbdock.cxx#4 $)

>  <Rbt.Library>
libRbt.so (2013.1, Build901 2013/11/27)

>  <Rbt.Parameter_File>
/export/apps/rDock/src/rDock_2013.1_src/data/scripts/dock_solv.prm

>  <Rbt.Receptor>
prm/pocket_docking_7.prm

>  <SCORE>
-12.8348

>  <SCORE.INTER>
-12.5696

>  <SCORE.INTER.CONST>
1

>  <SCORE.INTER.POLAR>
-1.79851

>  <SCORE.INTER.ROT>
9

>  <SCORE.INTER.SOLV>
14.7676

>  <SCORE.INTER.VDW>
-16.9072

>  <SCORE.INTER.norm>
-0.299276

>  <SCORE.INTRA>
-0.265199

>  <SCORE.INTRA.DIHEDRAL>
-5.02747

>  <SCORE.INTRA.DIHEDRAL.0>
17.3446

>  <SCORE.INTRA.POLAR>
0

>  <SCORE.INTRA.POLAR.0>
0

>  <SCORE.INTRA.REPUL>
0

>  <SCORE.INTRA.REPUL.0>
0

>  <SCORE.INTRA.SOLV>
-0.287107

>  <SCORE.INTRA.SOLV.lig_0>
-112.452

>  <SCORE.INTRA.VDW>
2.39209

>  <SCORE.INTRA.VDW.0>
-5.95059

>  <SCORE.INTRA.norm>
-0.00631426

>  <SCORE.RESTR>
0

>  <SCORE.RESTR.CAVITY>
0

>  <SCORE.RESTR.norm>
0

>  <SCORE.SYSTEM>
0

>  <SCORE.SYSTEM.CONST>
0

>  <SCORE.SYSTEM.DIHEDRAL>
0

>  <SCORE.SYSTEM.SOLV>
0

>  <SCORE.SYSTEM.norm>
0

>  <SCORE.heavy>
42

>  <SCORE.norm>
-0.305591

>  <RMSD>
8.890

$$$$
2fcy_lig
 OpenBabel11021811433D
libRbt.so/2013.1/901 2013/11/27
 42 45  0  0  0  0  0  0  0  0999 V2000
    6.5440   98.1322   12.2508 C   0  0  2  0  0  0  0  0  0  0  0  0
    6.0055   97.0182   11.5185 O   0  0  0  0  0  0  0  0  0  0  0  0
    8.0318   97.8239   12.4255 C   0  0  2  0  0  0  0  0  0  0  0  0
    8.6193   97.5720   11.1025 N   0  0  0  0  0  0  0  0  0  0  0  0
    8.1976   96.5792   13.3010 C   0  0  1  0  0  0  0  0  0  0  0  0
    9.5829   96.2730   13.4824 O   0  0  0  0  0  0  0  0  0  0  0  0
    7.5199   96.8153   14.6511 C   0  0  2  0  0  0  0  0  0  0  0  0
    7.5916   95.6204   15.4288 O   0  0  0  0  0  0  0  0  0  0  0  0
    6.0444   97.1388   14.4118 C   0  0  2  0  0  0  0  0  0  0  0  0
    5.9374   98.2832   13.5507 O   0  0  0  0  0  0  0  0  0  0  0  0
    5.3570   97.3873   15.7570 C   0  0  0  0  0  0  0  0  0  0  0  0
    5.9608   98.5336   16.4527 N   0  0  0  0  0  0  0  0  0  0  0  0
    2.0752   98.5002   11.5696 C   0  0  2  0  0  0  0  0  0  0  0  0
    0.6742   98.8841   11.3396 N   0  0  0  0  0  0  0  0  0  0  0  0
    2.9620   98.9587   10.4102 C   0  0  0  0  0  0  0  0  0  0  0  0
    4.4195   98.6502   10.7674 C   0  0  2  0  0  0  0  0  0  0  0  0
    5.2828   99.0024    9.6309 N   0  0  0  0  0  0  0  0  0  0  0  0
    4.6429   97.1682   11.0823 C   0  0  2  0  0  0  0  0  0  0  0  0
    3.6392   96.5669   12.0599 C   0  0  2  0  0  0  0  0  0  0  0  0
    3.7693   95.1431   11.9186 O   0  0  0  0  0  0  0  0  0  0  0  0
    2.2000   96.9829   11.7279 C   0  0  1  0  0  0  0  0  0  0  0  0
    1.3006   96.5750   12.7623 O   0  0  0  0  0  0  0  0  0  0  0  0
    3.4222   94.3675   13.0771 C   0  0  1  0  0  0  0  0  0  0  0  0
    4.3671   94.7781   14.2078 C   0  0  2  0  0  0  0  0  0  0  0  0
    5.5951   94.0550   14.0947 O   0  0  0  0  0  0  0  0  0  0  0  0
    3.5656   94.2404   15.3897 C   0  0  1  0  0  0  0  0  0  0  0  0
    2.1742   94.7332   15.0248 C   0  0  2  0  0  0  0  0  0  0  0  0
    2.1037   94.6552   13.5862 O   0  0  0  0  0  0  0  0  0  0  0  0
    2.0043   96.1715   15.5274 C   0  0  0  0  0  0  0  0  0  0  0  0
    2.2790   96.2496   16.9291 O   0  0  0  0  0  0  0  0  0  0  0  0
    2.4860   92.3004   16.1442 C   0  0  2  0  0  0  0  0  0  0  0  0
    3.5962   92.8042   15.3859 O   0  0  0  0  0  0  0  0  0  0  0  0
    2.9339   91.0853   16.9628 C   0  0  1  0  0  0  0  0  0  0  0  0
   -1.2110   92.4756   14.2490 N   0  0  0  0  0  0  0  0  0  0  0  0
    1.7409   90.4692   17.7016 C   0  0  1  0  0  0  0  0  0  0  0  0
    1.2764   91.3583   18.7224 O   0  0  0  0  0  0  0  0  0  0  0  0
    0.6104   90.1797   16.7104 C   0  0  2  0  0  0  0  0  0  0  0  0
    1.0517   89.1682   15.7984 O   0  0  0  0  0  0  0  0  0  0  0  0
    0.2584   91.4599   15.9452 C   0  0  1  0  0  0  0  0  0  0  0  0
    1.4187   91.9481   15.2466 O   0  0  0  0  0  0  0  0  0  0  0  0
   -0.8845   91.2269   14.9533 C   0  0  0  0  0  0  0  0  0  0  0  0
    3.4841   90.0756   16.0458 N   0  0  0  0  0  0  0  0  0  0  0  0
  1  2  1  1  0  0  0
  1  3  1  0  0  0  0
  1 10  1  0  0  0  0
  3  4  1  6  0  0  0
  3  5  1  0  0  0  0
  5  6  1  1  0  0  0
  5  7  1  0  0  0  0
  7  8  1  1  0  0  0
  7  9  1  0  0  0  0
  9 10  1  0  0  0  0
  9 11  1  1  0  0  0
 11 12  1  0  0  0  0
 13 14  1  6  0  0  0
 13 15  1  0  0  0  0
 13 21  1  0  0  0  0
 16 15  1  0  0  0  0
 16 17  1  6  0  0  0
 18  2  1  1  0  0  0
 18 16  1  0  0  0  0
 19 18  1  0  0  0  0
 19 20  1  6  0  0  0
 21 19  1  0  0  0  0
 21 22  1  1  0  0  0
 23 20  1  6  0  0  0
 23 24  1  0  0  0  0
 23 28  1  0  0  0  0
 24 25  1  6  0  0  0
 24 26  1  0  0  0  0
 26 27  1  0  0  0  0
 26 32  1  6  0  0  0
 27 28  1  0  0  0  0
 27 29  1  6  0  0  0
 29 30  1  0  0  0  0
 31 32  1  6  0  0  0
 31 40  1  0  0  0  0
 33 31  1  0  0  0  0
 33 42  1  6  0  0  0
 35 33  1  0  0  0  0
 35 36  1  1  0  0  0
 37 35  1  0  0  0  0
 37 38  1  6  0  0  0
 37 39  1  0  0  0  0
 39 40  1  0  0  0  0
 39 41  1  6  0  0  0
 41 34  1  0  0  0  0
M  END
>  <CHROM.1>
-172.24185779,61.29776664,33.36446446,152.88747669,-61.20521199,-158.61209758
-54.96639873,-140.56884135,179.22626746,3.77961897,95.14992971,14.05316289
-0.99307908,0.23833401,2.43499603

>  <Name>
2fcy_lig

>  <RI>
9.29634e+06

>  <Rbt.Current_Directory>
/home/itssahil/PROJECTS/Mol_Feturizer/New_Systems/rnas/2fcy

>  <Rbt.Executable>
rbdock ($Id: //depot/dev/client3/rdock/2013.1/src/exe/rbdock.cxx#4 $)

>  <Rbt.Library>
libRbt.so (2013.1, Build901 2013/11/27)

>  <Rbt.Parameter_File>
/export/apps/rDock/src/rDock_2013.1_src/data/scripts/dock_solv.prm

>  <Rbt.Receptor>
prm/blind_docking_100.prm

>  <SCORE>
6.78282

>  <SCORE.INTER>
-3.91398

>  <SCORE.INTER.CONST>
1

>  <SCORE.INTER.POLAR>
-0.070539

>  <SCORE.INTER.ROT>
9

>  <SCORE.INTER.SOLV>
26.9256

>  <SCORE.INTER.VDW>
-20.9494

>  <SCORE.INTER.norm>
-0.0931901

>  <SCORE.INTRA>
6.19564

>  <SCORE.INTRA.DIHEDRAL>
-3.27617

>  <SCORE.INTRA.DIHEDRAL.0>
17.3446

>  <SCORE.INTRA.POLAR>
0

>  <SCORE.INTRA.POLAR.0>
0

>  <SCORE.INTRA.REPUL>
0

>  <SCORE.INTRA.REPUL.0>
0

>  <SCORE.INTRA.SOLV>
-0.0866415

>  <SCORE.INTRA.SOLV.lig_0>
-112.452

>  <SCORE.INTRA.VDW>
7.87705

>  <SCORE.INTRA.VDW.0>
-5.95059

>  <SCORE.INTRA.norm>
0.147515

>  <SCORE.RESTR>
4.50117

>  <SCORE.RESTR.CAVITY>
4.50117

>  <SCORE.RESTR.norm>
0.107171

>  <SCORE.SYSTEM>
0

>  <SCORE.SYSTEM.CONST>
0

>  <SCORE.SYSTEM.DIHEDRAL>
0

>  <SCORE.SYSTEM.SOLV>
0

>  <SCORE.SYSTEM.norm>
0

>  <SCORE.heavy>
42

>  <SCORE.norm>
0.161496

>  <RMSD>
8.918

$$$$
2fcy_lig
 OpenBabel11021811433D
libRbt.so/2013.1/901 2013/11/27
 42 45  0  0  0  0  0  0  0  0999 V2000
   -1.9448   89.7715    6.8085 C   0  0  2  0  0  0  0  0  0  0  0  0
   -2.6908   90.9890    6.9764 O   0  0  0  0  0  0  0  0  0  0  0  0
   -0.9855   89.7143    7.9983 C   0  0  2  0  0  0  0  0  0  0  0  0
   -1.7651   89.8318    9.2382 N   0  0  0  0  0  0  0  0  0  0  0  0
    0.0090   90.8746    7.9107 C   0  0  1  0  0  0  0  0  0  0  0  0
    0.9207   90.8397    9.0123 O   0  0  0  0  0  0  0  0  0  0  0  0
    0.7670   90.7936    6.5853 C   0  0  2  0  0  0  0  0  0  0  0  0
    1.6234   91.9291    6.4630 O   0  0  0  0  0  0  0  0  0  0  0  0
   -0.2427   90.8338    5.4372 C   0  0  2  0  0  0  0  0  0  0  0  0
   -1.1809   89.7566    5.5851 O   0  0  0  0  0  0  0  0  0  0  0  0
    0.5045   90.7431    4.1040 C   0  0  0  0  0  0  0  0  0  0  0  0
   -0.4306   90.8110    2.9711 N   0  0  0  0  0  0  0  0  0  0  0  0
   -6.8696   91.4175    6.9507 C   0  0  2  0  0  0  0  0  0  0  0  0
   -8.3254   91.3829    7.1565 N   0  0  0  0  0  0  0  0  0  0  0  0
   -6.3261   90.0144    6.6736 C   0  0  0  0  0  0  0  0  0  0  0  0
   -4.8360   90.1327    6.3379 C   0  0  2  0  0  0  0  0  0  0  0  0
   -4.2718   88.7879    6.1533 N   0  0  0  0  0  0  0  0  0  0  0  0
   -4.0400   90.8251    7.4480 C   0  0  2  0  0  0  0  0  0  0  0  0
   -4.6524   92.1267    7.9532 C   0  0  2  0  0  0  0  0  0  0  0  0
   -4.0033   92.3970    9.2061 O   0  0  0  0  0  0  0  0  0  0  0  0
   -6.1643   91.9958    8.1800 C   0  0  1  0  0  0  0  0  0  0  0  0
   -6.7493   93.2699    8.4616 O   0  0  0  0  0  0  0  0  0  0  0  0
   -2.8998   93.3154    9.1510 C   0  0  1  0  0  0  0  0  0  0  0  0
   -2.9128   94.1312   10.4448 C   0  0  2  0  0  0  0  0  0  0  0  0
   -3.8254   95.2239   10.3151 O   0  0  0  0  0  0  0  0  0  0  0  0
   -1.4804   94.6557   10.4055 C   0  0  1  0  0  0  0  0  0  0  0  0
   -0.7326   93.3843   10.0361 C   0  0  2  0  0  0  0  0  0  0  0  0
   -1.6122   92.6655    9.1470 O   0  0  0  0  0  0  0  0  0  0  0  0
   -0.4363   92.5884   11.3124 C   0  0  0  0  0  0  0  0  0  0  0  0
    0.4909   93.2952   12.1413 O   0  0  0  0  0  0  0  0  0  0  0  0
   -0.8395   96.8549    9.9043 C   0  0  2  0  0  0  0  0  0  0  0  0
   -1.3464   95.6283    9.3568 O   0  0  0  0  0  0  0  0  0  0  0  0
   -0.6772   97.8876    8.7843 C   0  0  1  0  0  0  0  0  0  0  0  0
    2.6527   98.5640   12.7767 N   0  0  0  0  0  0  0  0  0  0  0  0
   -0.0417   99.1713    9.3288 C   0  0  1  0  0  0  0  0  0  0  0  0
   -0.9476   99.8365   10.2149 O   0  0  0  0  0  0  0  0  0  0  0  0
    1.2559   98.8343   10.0684 C   0  0  2  0  0  0  0  0  0  0  0  0
    2.1990   98.3190    9.1227 O   0  0  0  0  0  0  0  0  0  0  0  0
    0.9724   97.7879   11.1514 C   0  0  1  0  0  0  0  0  0  0  0  0
    0.4188   96.6010   10.5532 O   0  0  0  0  0  0  0  0  0  0  0  0
    2.2382   97.4316   11.9356 C   0  0  0  0  0  0  0  0  0  0  0  0
    0.2118   97.3300    7.7538 N   0  0  0  0  0  0  0  0  0  0  0  0
  1  2  1  1  0  0  0
  1  3  1  0  0  0  0
  1 10  1  0  0  0  0
  3  4  1  1  0  0  0
  3  5  1  0  0  0  0
  5  6  1  1  0  0  0
  5  7  1  0  0  0  0
  7  8  1  6  0  0  0
  7  9  1  0  0  0  0
  9 10  1  0  0  0  0
  9 11  1  6  0  0  0
 11 12  1  0  0  0  0
 13 14  1  1  0  0  0
 13 15  1  0  0  0  0
 13 21  1  0  0  0  0
 16 15  1  0  0  0  0
 16 17  1  1  0  0  0
 18  2  1  6  0  0  0
 18 16  1  0  0  0  0
 19 18  1  0  0  0  0
 19 20  1  1  0  0  0
 21 19  1  0  0  0  0
 21 22  1  6  0  0  0
 23 20  1  1  0  0  0
 23 24  1  0  0  0  0
 23 28  1  0  0  0  0
 24 25  1  6  0  0  0
 24 26  1  0  0  0  0
 26 27  1  0  0  0  0
 26 32  1  6  0  0  0
 27 28  1  0  0  0  0
 27 29  1  1  0  0  0
 29 30  1  0  0  0  0
 31 32  1  6  0  0  0
 31 40  1  0  0  0  0
 33 31  1  0  0  0  0
 33 42  1  6  0  0  0
 35 33  1  0  0  0  0
 35 36  1  1  0  0  0
 37 35  1  0  0  0  0
 37 38  1  6  0  0  0
 37 39  1  0  0  0  0
 39 40  1  0  0  0  0
 39 41  1  6  0  0  0
 41 34  1  0  0  0  0
M  END
>  <CHROM.1>
-104.28425268,-178.64608642,-67.69970407,97.15997272,144.94911386,124.49245781
-66.70755348,179.21367076,69.78173292,-1.61794933,93.42066699,8.53340333
-2.07520938,0.10356403,0.54346715

>  <Name>
2fcy_lig

>  <RI>
2.89127e+07

>  <Rbt.Current_Directory>
/home/itssahil/PROJECTS/Mol_Feturizer/New_Systems/rnas/2fcy

>  <Rbt.Executable>
rbdock ($Id: //depot/dev/client3/rdock/2013.1/src/exe/rbdock.cxx#4 $)

>  <Rbt.Library>
libRbt.so (2013.1, Build901 2013/11/27)

>  <Rbt.Parameter_File>
/export/apps/rDock/src/rDock_2013.1_src/data/scripts/dock_solv.prm

>  <Rbt.Receptor>
prm/pocket_docking_7.prm

>  <SCORE>
-6.69392

>  <SCORE.INTER>
-11.5746

>  <SCORE.INTER.CONST>
1

>  <SCORE.INTER.POLAR>
-2.4007

>  <SCORE.INTER.ROT>
9

>  <SCORE.INTER.SOLV>
16.0535

>  <SCORE.INTER.VDW>
-14.6652

>  <SCORE.INTER.norm>
-0.275585

>  <SCORE.INTRA>
4.88064

>  <SCORE.INTRA.DIHEDRAL>
5.92298

>  <SCORE.INTRA.DIHEDRAL.0>
17.3446

>  <SCORE.INTRA.POLAR>
0

>  <SCORE.INTRA.POLAR.0>
0

>  <SCORE.INTRA.REPUL>
0.0134498

>  <SCORE.INTRA.REPUL.0>
0

>  <SCORE.INTRA.SOLV>
0.603347

>  <SCORE.INTRA.SOLV.lig_0>
-112.452

>  <SCORE.INTRA.VDW>
1.55023

>  <SCORE.INTRA.VDW.0>
-5.95059

>  <SCORE.INTRA.norm>
0.116206

>  <SCORE.RESTR>
0

>  <SCORE.RESTR.CAVITY>
0

>  <SCORE.RESTR.norm>
0

>  <SCORE.SYSTEM>
0

>  <SCORE.SYSTEM.CONST>
0

>  <SCORE.SYSTEM.DIHEDRAL>
0

>  <SCORE.SYSTEM.SOLV>
0

>  <SCORE.SYSTEM.norm>
0

>  <SCORE.heavy>
42

>  <SCORE.norm>
-0.159379

>  <RMSD>
8.944

$$$$
2fcy_lig
 OpenBabel11021811433D
libRbt.so/2013.1/901 2013/11/27
 42 45  0  0  0  0  0  0  0  0999 V2000
    0.0508   93.8065    9.1958 C   0  0  2  0  0  0  0  0  0  0  0  0
    1.2950   94.5268    9.2164 O   0  0  0  0  0  0  0  0  0  0  0  0
    0.1200   92.9095    7.9590 C   0  0  2  0  0  0  0  0  0  0  0  0
    1.3403   92.0948    8.0355 N   0  0  0  0  0  0  0  0  0  0  0  0
    0.1658   93.7773    6.6989 C   0  0  1  0  0  0  0  0  0  0  0  0
    0.2265   92.9593    5.5271 O   0  0  0  0  0  0  0  0  0  0  0  0
   -1.0684   94.6790    6.6593 C   0  0  2  0  0  0  0  0  0  0  0  0
   -0.9755   95.5544    5.5356 O   0  0  0  0  0  0  0  0  0  0  0  0
   -1.0946   95.5340    7.9271 C   0  0  2  0  0  0  0  0  0  0  0  0
   -1.0910   94.6804    9.0820 O   0  0  0  0  0  0  0  0  0  0  0  0
   -2.3323   96.4347    7.9036 C   0  0  0  0  0  0  0  0  0  0  0  0
   -2.4286   97.2292    9.1373 N   0  0  0  0  0  0  0  0  0  0  0  0
    3.6829   95.9831   12.3507 C   0  0  2  0  0  0  0  0  0  0  0  0
    4.2840   96.6308   13.5264 N   0  0  0  0  0  0  0  0  0  0  0  0
    3.1085   97.0258   11.3897 C   0  0  0  0  0  0  0  0  0  0  0  0
    2.6190   96.3027   10.1309 C   0  0  2  0  0  0  0  0  0  0  0  0
    1.9832   97.2743    9.2293 N   0  0  0  0  0  0  0  0  0  0  0  0
    1.5891   95.2138   10.4457 C   0  0  2  0  0  0  0  0  0  0  0  0
    1.9883   94.2668   11.5718 C   0  0  2  0  0  0  0  0  0  0  0  0
    0.7762   93.6031   11.9649 O   0  0  0  0  0  0  0  0  0  0  0  0
    2.5688   95.0227   12.7743 C   0  0  1  0  0  0  0  0  0  0  0  0
    3.1157   94.1127   13.7323 O   0  0  0  0  0  0  0  0  0  0  0  0
    0.9448   92.3508   12.6486 C   0  0  1  0  0  0  0  0  0  0  0  0
    0.0642   92.3849   13.8988 C   0  0  2  0  0  0  0  0  0  0  0  0
    0.7563   93.0527   14.9564 O   0  0  0  0  0  0  0  0  0  0  0  0
    0.0116   90.8878   14.1892 C   0  0  1  0  0  0  0  0  0  0  0  0
   -0.2585   90.3469   12.7940 C   0  0  2  0  0  0  0  0  0  0  0  0
    0.4622   91.2177   11.8979 O   0  0  0  0  0  0  0  0  0  0  0  0
   -1.7680   90.3772   12.5283 C   0  0  0  0  0  0  0  0  0  0  0  0
   -2.2157   91.7208   12.3266 O   0  0  0  0  0  0  0  0  0  0  0  0
    1.4205   90.7150   16.0556 C   0  0  2  0  0  0  0  0  0  0  0  0
    1.2939   90.4362   14.6529 O   0  0  0  0  0  0  0  0  0  0  0  0
    2.8984   90.6670   16.4563 C   0  0  1  0  0  0  0  0  0  0  0  0
   -0.2605   89.3350   20.3851 N   0  0  0  0  0  0  0  0  0  0  0  0
    3.0487   90.8611   17.9690 C   0  0  1  0  0  0  0  0  0  0  0  0
    2.6861   92.1959   18.3366 O   0  0  0  0  0  0  0  0  0  0  0  0
    2.1613   89.8581   18.7113 C   0  0  2  0  0  0  0  0  0  0  0  0
    2.6493   88.5377   18.4507 O   0  0  0  0  0  0  0  0  0  0  0  0
    0.7157   89.9904   18.2205 C   0  0  1  0  0  0  0  0  0  0  0  0
    0.6558   89.7520   16.8019 O   0  0  0  0  0  0  0  0  0  0  0  0
   -0.2177   89.0200   18.9495 C   0  0  0  0  0  0  0  0  0  0  0  0
    3.4408   89.3468   16.1013 N   0  0  0  0  0  0  0  0  0  0  0  0
  1  2  1  6  0  0  0
  1  3  1  0  0  0  0
  1 10  1  0  0  0  0
  3  4  1  1  0  0  0
  3  5  1  0  0  0  0
  5  6  1  6  0  0  0
  5  7  1  0  0  0  0
  7  8  1  6  0  0  0
  7  9  1  0  0  0  0
  9 10  1  0  0  0  0
  9 11  1  6  0  0  0
 11 12  1  0  0  0  0
 13 14  1  1  0  0  0
 13 15  1  0  0  0  0
 13 21  1  0  0  0  0
 16 15  1  0  0  0  0
 16 17  1  6  0  0  0
 18  2  1  6  0  0  0
 18 16  1  0  0  0  0
 19 18  1  0  0  0  0
 19 20  1  1  0  0  0
 21 19  1  0  0  0  0
 21 22  1  1  0  0  0
 23 20  1  6  0  0  0
 23 24  1  0  0  0  0
 23 28  1  0  0  0  0
 24 25  1  1  0  0  0
 24 26  1  0  0  0  0
 26 27  1  0  0  0  0
 26 32  1  6  0  0  0
 27 28  1  0  0  0  0
 27 29  1  6  0  0  0
 29 30  1  0  0  0  0
 31 32  1  6  0  0  0
 31 40  1  0  0  0  0
 33 31  1  0  0  0  0
 33 42  1  1  0  0  0
 35 33  1  0  0  0  0
 35 36  1  6  0  0  0
 37 35  1  0  0  0  0
 37 38  1  6  0  0  0
 37 39  1  0  0  0  0
 39 40  1  0  0  0  0
 39 41  1  1  0  0  0
 41 34  1  0  0  0  0
M  END
>  <CHROM.1>
-166.75062382,177.33641319,-159.32185404,158.45563852,131.40513525,82.19274870
72.64562584,-161.78679289,63.11858280,0.89983241,92.90196655,12.53251163
1.77077941,-0.79078760,-0.95046829

>  <Name>
2fcy_lig

>  <RI>
0

>  <Rbt.Current_Directory>
/home/itssahil/PROJECTS/Mol_Feturizer/New_Systems/rnas/2fcy

>  <Rbt.Executable>
rbdock ($Id: //depot/dev/client3/rdock/2013.1/src/exe/rbdock.cxx#4 $)

>  <Rbt.Library>
libRbt.so (2013.1, Build901 2013/11/27)

>  <Rbt.Parameter_File>
/export/apps/rDock/src/rDock_2013.1_src/data/scripts/dock_solv.prm

>  <Rbt.Receptor>
prm/pocket_docking_5.prm

>  <SCORE>
-23.5851

>  <SCORE.INTER>
-22.7802

>  <SCORE.INTER.CONST>
1

>  <SCORE.INTER.POLAR>
-3.58574

>  <SCORE.INTER.ROT>
9

>  <SCORE.INTER.SOLV>
23.0742

>  <SCORE.INTER.VDW>
-20.5257

>  <SCORE.INTER.norm>
-0.542385

>  <SCORE.INTRA>
-0.80491

>  <SCORE.INTRA.DIHEDRAL>
-1.4737

>  <SCORE.INTRA.DIHEDRAL.0>
17.3446

>  <SCORE.INTRA.POLAR>
0

>  <SCORE.INTRA.POLAR.0>
0

>  <SCORE.INTRA.REPUL>
0

>  <SCORE.INTRA.REPUL.0>
0

>  <SCORE.INTRA.SOLV>
-3.65839

>  <SCORE.INTRA.SOLV.lig_0>
-112.452

>  <SCORE.INTRA.VDW>
1.76113

>  <SCORE.INTRA.VDW.0>
-5.95059

>  <SCORE.INTRA.norm>
-0.0191645

>  <SCORE.RESTR>
0

>  <SCORE.RESTR.CAVITY>
0

>  <SCORE.RESTR.norm>
0

>  <SCORE.SYSTEM>
0

>  <SCORE.SYSTEM.CONST>
0

>  <SCORE.SYSTEM.DIHEDRAL>
0

>  <SCORE.SYSTEM.SOLV>
0

>  <SCORE.SYSTEM.norm>
0

>  <SCORE.heavy>
42

>  <SCORE.norm>
-0.561549

>  <RMSD>
8.947

$$$$
2fcy_lig
 OpenBabel11021811433D
libRbt.so/2013.1/901 2013/11/27
 42 45  0  0  0  0  0  0  0  0999 V2000
   -3.8737   91.8657    7.0911 C   0  0  2  0  0  0  0  0  0  0  0  0
   -2.8608   92.7963    6.6726 O   0  0  0  0  0  0  0  0  0  0  0  0
   -4.4622   91.2960    5.7995 C   0  0  2  0  0  0  0  0  0  0  0  0
   -3.3694   90.7438    4.9873 N   0  0  0  0  0  0  0  0  0  0  0  0
   -5.1620   92.4119    5.0196 C   0  0  1  0  0  0  0  0  0  0  0  0
   -5.7248   91.9017    3.8078 O   0  0  0  0  0  0  0  0  0  0  0  0
   -6.2496   93.0364    5.8942 C   0  0  2  0  0  0  0  0  0  0  0  0
   -6.8349   94.1388    5.2015 O   0  0  0  0  0  0  0  0  0  0  0  0
   -5.6064   93.5677    7.1760 C   0  0  2  0  0  0  0  0  0  0  0  0
   -4.9247   92.4983    7.8499 O   0  0  0  0  0  0  0  0  0  0  0  0
   -6.6882   94.1868    8.0650 C   0  0  0  0  0  0  0  0  0  0  0  0
   -7.6735   93.1757    8.4765 N   0  0  0  0  0  0  0  0  0  0  0  0
    0.4281   94.8184    8.3281 C   0  0  2  0  0  0  0  0  0  0  0  0
    1.4679   95.4479    9.1560 N   0  0  0  0  0  0  0  0  0  0  0  0
   -0.9572   95.3551    8.6939 C   0  0  0  0  0  0  0  0  0  0  0  0
   -1.9765   94.7651    7.7140 C   0  0  2  0  0  0  0  0  0  0  0  0
   -3.3274   95.1979    8.0997 N   0  0  0  0  0  0  0  0  0  0  0  0
   -1.9608   93.2338    7.7061 C   0  0  2  0  0  0  0  0  0  0  0  0
   -0.5740   92.6121    7.5850 C   0  0  2  0  0  0  0  0  0  0  0  0
   -0.7305   91.2406    7.9833 O   0  0  0  0  0  0  0  0  0  0  0  0
    0.4415   93.2984    8.5082 C   0  0  1  0  0  0  0  0  0  0  0  0
    1.7680   92.8372    8.2384 O   0  0  0  0  0  0  0  0  0  0  0  0
   -0.5410   90.9722    9.3820 C   0  0  1  0  0  0  0  0  0  0  0  0
   -1.7589   91.5213   10.1268 C   0  0  2  0  0  0  0  0  0  0  0  0
   -1.5821   92.9183   10.3735 O   0  0  0  0  0  0  0  0  0  0  0  0
   -1.6023   90.7489   11.4334 C   0  0  1  0  0  0  0  0  0  0  0  0
   -1.3062   89.3577   10.8961 C   0  0  2  0  0  0  0  0  0  0  0  0
   -0.5278   89.5653    9.6996 O   0  0  0  0  0  0  0  0  0  0  0  0
   -2.6296   88.6430   10.5992 C   0  0  0  0  0  0  0  0  0  0  0  0
   -3.2423   89.1871    9.4266 O   0  0  0  0  0  0  0  0  0  0  0  0
   -0.5977   90.8959   13.5471 C   0  0  2  0  0  0  0  0  0  0  0  0
   -0.4686   91.2475   12.1611 O   0  0  0  0  0  0  0  0  0  0  0  0
   -1.0454   92.1231   14.3476 C   0  0  1  0  0  0  0  0  0  0  0  0
    1.9019   89.0336   17.2644 N   0  0  0  0  0  0  0  0  0  0  0  0
   -1.0916   91.7973   15.8443 C   0  0  1  0  0  0  0  0  0  0  0  0
   -2.1438   90.8664   16.1175 O   0  0  0  0  0  0  0  0  0  0  0  0
    0.2507   91.2100   16.2888 C   0  0  2  0  0  0  0  0  0  0  0  0
    1.2570   92.2193   16.1540 O   0  0  0  0  0  0  0  0  0  0  0  0
    0.5976   90.0016   15.4126 C   0  0  1  0  0  0  0  0  0  0  0  0
    0.6632   90.4008   14.0309 O   0  0  0  0  0  0  0  0  0  0  0  0
    1.9251   89.3642   15.8319 C   0  0  0  0  0  0  0  0  0  0  0  0
   -0.0710   93.2045   14.1374 N   0  0  0  0  0  0  0  0  0  0  0  0
  1  2  1  6  0  0  0
  1  3  1  0  0  0  0
  1 10  1  0  0  0  0
  3  4  1  6  0  0  0
  3  5  1  0  0  0  0
  5  6  1  6  0  0  0
  5  7  1  0  0  0  0
  7  8  1  6  0  0  0
  7  9  1  0  0  0  0
  9 10  1  0  0  0  0
  9 11  1  1  0  0  0
 11 12  1  0  0  0  0
 13 14  1  1  0  0  0
 13 15  1  0  0  0  0
 13 21  1  0  0  0  0
 16 15  1  0  0  0  0
 16 17  1  1  0  0  0
 18  2  1  6  0  0  0
 18 16  1  0  0  0  0
 19 18  1  0  0  0  0
 19 20  1  1  0  0  0
 21 19  1  0  0  0  0
 21 22  1  6  0  0  0
 23 20  1  6  0  0  0
 23 24  1  0  0  0  0
 23 28  1  0  0  0  0
 24 25  1  1  0  0  0
 24 26  1  0  0  0  0
 26 27  1  0  0  0  0
 26 32  1  1  0  0  0
 27 28  1  0  0  0  0
 27 29  1  6  0  0  0
 29 30  1  0  0  0  0
 31 32  1  6  0  0  0
 31 40  1  0  0  0  0
 33 31  1  0  0  0  0
 33 42  1  1  0  0  0
 35 33  1  0  0  0  0
 35 36  1  6  0  0  0
 37 35  1  0  0  0  0
 37 38  1  6  0  0  0
 37 39  1  0  0  0  0
 39 40  1  0  0  0  0
 39 41  1  1  0  0  0
 41 34  1  0  0  0  0
M  END
>  <CHROM.1>
-166.42681978,62.70804223,-126.24401937,-90.16656889,72.94165231,159.05867246
73.14978749,-103.05132174,54.13628620,-1.92724847,92.02351310,10.02215573
2.12318925,-0.36079713,-1.11857681

>  <Name>
2fcy_lig

>  <RI>
4.13508e+07

>  <Rbt.Current_Directory>
/home/itssahil/PROJECTS/Mol_Feturizer/New_Systems/rnas/2fcy

>  <Rbt.Executable>
rbdock ($Id: //depot/dev/client3/rdock/2013.1/src/exe/rbdock.cxx#4 $)

>  <Rbt.Library>
libRbt.so (2013.1, Build901 2013/11/27)

>  <Rbt.Parameter_File>
/export/apps/rDock/src/rDock_2013.1_src/data/scripts/dock_solv.prm

>  <Rbt.Receptor>
prm/pocket_docking_3.prm

>  <SCORE>
-6.12478

>  <SCORE.INTER>
-12.5399

>  <SCORE.INTER.CONST>
1

>  <SCORE.INTER.POLAR>
-2.10445

>  <SCORE.INTER.ROT>
9

>  <SCORE.INTER.SOLV>
13.8391

>  <SCORE.INTER.VDW>
-15.5581

>  <SCORE.INTER.norm>
-0.298569

>  <SCORE.INTRA>
6.4151

>  <SCORE.INTRA.DIHEDRAL>
3.62094

>  <SCORE.INTRA.DIHEDRAL.0>
17.3446

>  <SCORE.INTRA.POLAR>
0

>  <SCORE.INTRA.POLAR.0>
0

>  <SCORE.INTRA.REPUL>
0

>  <SCORE.INTRA.REPUL.0>
0

>  <SCORE.INTRA.SOLV>
1.28859

>  <SCORE.INTRA.SOLV.lig_0>
-112.452

>  <SCORE.INTRA.VDW>
3.96034

>  <SCORE.INTRA.VDW.0>
-5.95059

>  <SCORE.INTRA.norm>
0.152741

>  <SCORE.RESTR>
0

>  <SCORE.RESTR.CAVITY>
0

>  <SCORE.RESTR.norm>
0

>  <SCORE.SYSTEM>
0

>  <SCORE.SYSTEM.CONST>
0

>  <SCORE.SYSTEM.DIHEDRAL>
0

>  <SCORE.SYSTEM.SOLV>
0

>  <SCORE.SYSTEM.norm>
0

>  <SCORE.heavy>
42

>  <SCORE.norm>
-0.145828

>  <RMSD>
8.953

$$$$
2fcy_lig
 OpenBabel11021811433D
libRbt.so/2013.1/901 2013/11/27
 42 45  0  0  0  0  0  0  0  0999 V2000
   -0.7857   93.6779    6.3509 C   0  0  2  0  0  0  0  0  0  0  0  0
   -1.0239   92.5506    7.2109 O   0  0  0  0  0  0  0  0  0  0  0  0
    0.0792   94.6384    7.1685 C   0  0  2  0  0  0  0  0  0  0  0  0
    1.2702   93.9169    7.6374 N   0  0  0  0  0  0  0  0  0  0  0  0
   -0.7166   95.1444    8.3742 C   0  0  1  0  0  0  0  0  0  0  0  0
    0.0713   96.0490    9.1530 O   0  0  0  0  0  0  0  0  0  0  0  0
   -1.9940   95.8292    7.8871 C   0  0  2  0  0  0  0  0  0  0  0  0
   -2.7805   96.2141    9.0145 O   0  0  0  0  0  0  0  0  0  0  0  0
   -2.8046   94.8295    7.0609 C   0  0  2  0  0  0  0  0  0  0  0  0
   -2.0045   94.3484    5.9696 O   0  0  0  0  0  0  0  0  0  0  0  0
   -4.0821   95.5075    6.5589 C   0  0  0  0  0  0  0  0  0  0  0  0
   -5.0263   95.7343    7.6634 N   0  0  0  0  0  0  0  0  0  0  0  0
    0.5504   88.6592    7.3691 C   0  0  2  0  0  0  0  0  0  0  0  0
    1.3443   87.4214    7.3481 N   0  0  0  0  0  0  0  0  0  0  0  0
    0.6004   89.3605    6.0102 C   0  0  0  0  0  0  0  0  0  0  0  0
   -0.3463   90.5641    6.0542 C   0  0  2  0  0  0  0  0  0  0  0  0
   -0.2491   91.3047    4.7881 N   0  0  0  0  0  0  0  0  0  0  0  0
   -0.0066   91.5337    7.1900 C   0  0  2  0  0  0  0  0  0  0  0  0
    0.1990   90.8746    8.5493 C   0  0  2  0  0  0  0  0  0  0  0  0
    0.8722   91.8552    9.3551 O   0  0  0  0  0  0  0  0  0  0  0  0
    1.0688   89.6146    8.4468 C   0  0  1  0  0  0  0  0  0  0  0  0
    1.0867   88.9057    9.6887 O   0  0  0  0  0  0  0  0  0  0  0  0
    0.7127   91.7105   10.7757 C   0  0  1  0  0  0  0  0  0  0  0  0
    1.2054   93.0025   11.4296 C   0  0  2  0  0  0  0  0  0  0  0  0
    2.6255   92.9508   11.5864 O   0  0  0  0  0  0  0  0  0  0  0  0
    0.5360   92.8456   12.7919 C   0  0  1  0  0  0  0  0  0  0  0  0
   -0.8577   92.4132   12.3646 C   0  0  2  0  0  0  0  0  0  0  0  0
   -0.6644   91.5987   11.1899 O   0  0  0  0  0  0  0  0  0  0  0  0
   -1.6985   93.6591   12.0632 C   0  0  0  0  0  0  0  0  0  0  0  0
   -1.7908   94.4950   13.2205 O   0  0  0  0  0  0  0  0  0  0  0  0
    0.8301   91.9037   14.9191 C   0  0  2  0  0  0  0  0  0  0  0  0
    1.1743   91.7912   13.5297 O   0  0  0  0  0  0  0  0  0  0  0  0
    1.7546   91.0084   15.7502 C   0  0  1  0  0  0  0  0  0  0  0  0
   -3.2182   92.2069   15.6427 N   0  0  0  0  0  0  0  0  0  0  0  0
    1.3397   91.0344   17.2252 C   0  0  1  0  0  0  0  0  0  0  0  0
    1.5927   92.3251   17.7893 O   0  0  0  0  0  0  0  0  0  0  0  0
   -0.1479   90.6943   17.3515 C   0  0  2  0  0  0  0  0  0  0  0  0
   -0.3435   89.3405   16.9291 O   0  0  0  0  0  0  0  0  0  0  0  0
   -0.9679   91.6433   16.4709 C   0  0  1  0  0  0  0  0  0  0  0  0
   -0.5462   91.5263   15.0993 O   0  0  0  0  0  0  0  0  0  0  0  0
   -2.4680   91.3566   16.5787 C   0  0  0  0  0  0  0  0  0  0  0  0
    1.6394   89.6267   15.2595 N   0  0  0  0  0  0  0  0  0  0  0  0
  1  2  1  1  0  0  0
  1  3  1  0  0  0  0
  1 10  1  0  0  0  0
  3  4  1  1  0  0  0
  3  5  1  0  0  0  0
  5  6  1  6  0  0  0
  5  7  1  0  0  0  0
  7  8  1  1  0  0  0
  7  9  1  0  0  0  0
  9 10  1  0  0  0  0
  9 11  1  6  0  0  0
 11 12  1  0  0  0  0
 13 14  1  6  0  0  0
 13 15  1  0  0  0  0
 13 21  1  0  0  0  0
 16 15  1  0  0  0  0
 16 17  1  6  0  0  0
 18  2  1  1  0  0  0
 18 16  1  0  0  0  0
 19 18  1  0  0  0  0
 19 20  1  1  0  0  0
 21 19  1  0  0  0  0
 21 22  1  1  0  0  0
 23 20  1  6  0  0  0
 23 24  1  0  0  0  0
 23 28  1  0  0  0  0
 24 25  1  1  0  0  0
 24 26  1  0  0  0  0
 26 27  1  0  0  0  0
 26 32  1  1  0  0  0
 27 28  1  0  0  0  0
 27 29  1  6  0  0  0
 29 30  1  0  0  0  0
 31 32  1  6  0  0  0
 31 40  1  0  0  0  0
 33 31  1  0  0  0  0
 33 42  1  6  0  0  0
 35 33  1  0  0  0  0
 35 36  1  6  0  0  0
 37 35  1  0  0  0  0
 37 38  1  6  0  0  0
 37 39  1  0  0  0  0
 39 40  1  0  0  0  0
 39 41  1  6  0  0  0
 41 34  1  0  0  0  0
M  END
>  <CHROM.1>
-85.89588446,-71.18157682,-87.36604593,156.12733357,-166.80564106,162.95181102
-59.49833915,-166.57815474,-175.39582332,-0.33406616,92.29508154,10.81550771
1.81798846,1.00759150,-1.57581403

>  <Name>
2fcy_lig

>  <RI>
0

>  <Rbt.Current_Directory>
/home/itssahil/PROJECTS/Mol_Feturizer/New_Systems/rnas/2fcy

>  <Rbt.Executable>
rbdock ($Id: //depot/dev/client3/rdock/2013.1/src/exe/rbdock.cxx#4 $)

>  <Rbt.Library>
libRbt.so (2013.1, Build901 2013/11/27)

>  <Rbt.Parameter_File>
/export/apps/rDock/src/rDock_2013.1_src/data/scripts/dock_solv.prm

>  <Rbt.Receptor>
prm/pocket_docking_5.prm

>  <SCORE>
-26.1392

>  <SCORE.INTER>
-25.7765

>  <SCORE.INTER.CONST>
1

>  <SCORE.INTER.POLAR>
-3.54894

>  <SCORE.INTER.ROT>
9

>  <SCORE.INTER.SOLV>
20.0826

>  <SCORE.INTER.VDW>
-21.6487

>  <SCORE.INTER.norm>
-0.613727

>  <SCORE.INTRA>
-0.362716

>  <SCORE.INTRA.DIHEDRAL>
-5.0544

>  <SCORE.INTRA.DIHEDRAL.0>
17.3446

>  <SCORE.INTRA.POLAR>
0

>  <SCORE.INTRA.POLAR.0>
0

>  <SCORE.INTRA.REPUL>
0

>  <SCORE.INTRA.REPUL.0>
0

>  <SCORE.INTRA.SOLV>
1.25314

>  <SCORE.INTRA.SOLV.lig_0>
-112.452

>  <SCORE.INTRA.VDW>
1.53791

>  <SCORE.INTRA.VDW.0>
-5.95059

>  <SCORE.INTRA.norm>
-0.00863609

>  <SCORE.RESTR>
0

>  <SCORE.RESTR.CAVITY>
0

>  <SCORE.RESTR.norm>
0

>  <SCORE.SYSTEM>
0

>  <SCORE.SYSTEM.CONST>
0

>  <SCORE.SYSTEM.DIHEDRAL>
0

>  <SCORE.SYSTEM.SOLV>
0

>  <SCORE.SYSTEM.norm>
0

>  <SCORE.heavy>
42

>  <SCORE.norm>
-0.622363

>  <RMSD>
8.963

$$$$
2fcy_lig
 OpenBabel11021811433D
libRbt.so/2013.1/901 2013/11/27
 42 45  0  0  0  0  0  0  0  0999 V2000
   -2.6313   93.8001    8.6154 C   0  0  2  0  0  0  0  0  0  0  0  0
   -1.4463   94.5189    8.2331 O   0  0  0  0  0  0  0  0  0  0  0  0
   -3.1769   93.1962    7.3205 C   0  0  2  0  0  0  0  0  0  0  0  0
   -2.1144   92.4047    6.6855 N   0  0  0  0  0  0  0  0  0  0  0  0
   -3.6095   94.3190    6.3742 C   0  0  1  0  0  0  0  0  0  0  0  0
   -4.1281   93.7779    5.1560 O   0  0  0  0  0  0  0  0  0  0  0  0
   -4.6614   95.1872    7.0653 C   0  0  2  0  0  0  0  0  0  0  0  0
   -4.9921   96.2883    6.2192 O   0  0  0  0  0  0  0  0  0  0  0  0
   -4.0673   95.7441    8.3599 C   0  0  2  0  0  0  0  0  0  0  0  0
   -3.6347   94.6589    9.1952 O   0  0  0  0  0  0  0  0  0  0  0  0
   -5.1156   96.6077    9.0663 C   0  0  0  0  0  0  0  0  0  0  0  0
   -6.3028   95.8134    9.4160 N   0  0  0  0  0  0  0  0  0  0  0  0
    1.8869   95.9213   10.3709 C   0  0  2  0  0  0  0  0  0  0  0  0
    2.8607   96.5372   11.2848 N   0  0  0  0  0  0  0  0  0  0  0  0
    0.9830   96.9840    9.7428 C   0  0  0  0  0  0  0  0  0  0  0  0
    0.0844   96.3009    8.7069 C   0  0  2  0  0  0  0  0  0  0  0  0
   -0.8538   97.2874    8.1523 N   0  0  0  0  0  0  0  0  0  0  0  0
   -0.7398   95.1598    9.3100 C   0  0  2  0  0  0  0  0  0  0  0  0
    0.0588   94.1782   10.1604 C   0  0  2  0  0  0  0  0  0  0  0  0
   -0.9151   93.4509   10.9264 O   0  0  0  0  0  0  0  0  0  0  0  0
    1.0211   94.9002   11.1130 C   0  0  1  0  0  0  0  0  0  0  0  0
    1.8957   93.9690   11.7556 O   0  0  0  0  0  0  0  0  0  0  0  0
   -0.4225   92.2964   11.6255 C   0  0  1  0  0  0  0  0  0  0  0  0
   -1.2881   92.1075   12.8724 C   0  0  2  0  0  0  0  0  0  0  0  0
   -0.8058   92.9470   13.9242 O   0  0  0  0  0  0  0  0  0  0  0  0
   -0.9410   90.6539   13.1804 C   0  0  1  0  0  0  0  0  0  0  0  0
   -1.0482   90.0457   11.7909 C   0  0  2  0  0  0  0  0  0  0  0  0
   -0.5806   91.0677   10.8868 O   0  0  0  0  0  0  0  0  0  0  0  0
   -2.5094   89.6691   11.5202 C   0  0  0  0  0  0  0  0  0  0  0  0
   -3.3258   90.8418   11.4505 O   0  0  0  0  0  0  0  0  0  0  0  0
    0.4207   90.0156   14.9796 C   0  0  2  0  0  0  0  0  0  0  0  0
    0.4125   90.5660   13.6535 O   0  0  0  0  0  0  0  0  0  0  0  0
    0.0354   91.1027   15.9879 C   0  0  1  0  0  0  0  0  0  0  0  0
    3.2331   87.5758   18.0843 N   0  0  0  0  0  0  0  0  0  0  0  0
    0.1365   90.5644   17.4192 C   0  0  1  0  0  0  0  0  0  0  0  0
   -0.8725   89.5761   17.6501 O   0  0  0  0  0  0  0  0  0  0  0  0
    1.5227   89.9555   17.6475 C   0  0  2  0  0  0  0  0  0  0  0  0
    2.4982   91.0002   17.5684 O   0  0  0  0  0  0  0  0  0  0  0  0
    1.8002   88.8951   16.5765 C   0  0  1  0  0  0  0  0  0  0  0  0
    1.7284   89.4902   15.2674 O   0  0  0  0  0  0  0  0  0  0  0  0
    3.1698   88.2399   16.7741 C   0  0  0  0  0  0  0  0  0  0  0  0
    0.9710   92.2288   15.8481 N   0  0  0  0  0  0  0  0  0  0  0  0
  1  2  1  6  0  0  0
  1  3  1  0  0  0  0
  1 10  1  0  0  0  0
  3  4  1  6  0  0  0
  3  5  1  0  0  0  0
  5  6  1  6  0  0  0
  5  7  1  0  0  0  0
  7  8  1  6  0  0  0
  7  9  1  0  0  0  0
  9 10  1  0  0  0  0
  9 11  1  1  0  0  0
 11 12  1  0  0  0  0
 13 14  1  1  0  0  0
 13 15  1  0  0  0  0
 13 21  1  0  0  0  0
 16 15  1  0  0  0  0
 16 17  1  1  0  0  0
 18  2  1  6  0  0  0
 18 16  1  0  0  0  0
 19 18  1  0  0  0  0
 19 20  1  1  0  0  0
 21 19  1  0  0  0  0
 21 22  1  6  0  0  0
 23 20  1  6  0  0  0
 23 24  1  0  0  0  0
 23 28  1  0  0  0  0
 24 25  1  1  0  0  0
 24 26  1  0  0  0  0
 26 27  1  0  0  0  0
 26 32  1  6  0  0  0
 27 28  1  0  0  0  0
 27 29  1  6  0  0  0
 29 30  1  0  0  0  0
 31 32  1  6  0  0  0
 31 40  1  0  0  0  0
 33 31  1  0  0  0  0
 33 42  1  1  0  0  0
 35 33  1  0  0  0  0
 35 36  1  6  0  0  0
 37 35  1  0  0  0  0
 37 38  1  6  0  0  0
 37 39  1  0  0  0  0
 39 40  1  0  0  0  0
 39 41  1  1  0  0  0
 41 34  1  0  0  0  0
M  END
>  <CHROM.1>
-178.92239131,61.02084395,-156.77073132,168.97501412,150.79105185,119.73708129
66.14152399,-78.63844211,60.45585495,-0.85575697,92.83669496,11.62253118
2.06175733,-0.54920716,-0.74446135

>  <Name>
2fcy_lig

>  <RI>
1.56845e+07

>  <Rbt.Current_Directory>
/home/itssahil/PROJECTS/Mol_Feturizer/New_Systems/rnas/2fcy

>  <Rbt.Executable>
rbdock ($Id: //depot/dev/client3/rdock/2013.1/src/exe/rbdock.cxx#4 $)

>  <Rbt.Library>
libRbt.so (2013.1, Build901 2013/11/27)

>  <Rbt.Parameter_File>
/export/apps/rDock/src/rDock_2013.1_src/data/scripts/dock_solv.prm

>  <Rbt.Receptor>
prm/pocket_docking_4.prm

>  <SCORE>
-15.4641

>  <SCORE.INTER>
-15.8058

>  <SCORE.INTER.CONST>
1

>  <SCORE.INTER.POLAR>
-1.74598

>  <SCORE.INTER.ROT>
9

>  <SCORE.INTER.SOLV>
12.6187

>  <SCORE.INTER.VDW>
-18.5235

>  <SCORE.INTER.norm>
-0.376329

>  <SCORE.INTRA>
0.341712

>  <SCORE.INTRA.DIHEDRAL>
-2.26258

>  <SCORE.INTRA.DIHEDRAL.0>
17.3446

>  <SCORE.INTRA.POLAR>
0

>  <SCORE.INTRA.POLAR.0>
0

>  <SCORE.INTRA.REPUL>
0.00688883

>  <SCORE.INTRA.REPUL.0>
0

>  <SCORE.INTRA.SOLV>
-0.771238

>  <SCORE.INTRA.SOLV.lig_0>
-112.452

>  <SCORE.INTRA.VDW>
1.82418

>  <SCORE.INTRA.VDW.0>
-5.95059

>  <SCORE.INTRA.norm>
0.00813601

>  <SCORE.RESTR>
0

>  <SCORE.RESTR.CAVITY>
0

>  <SCORE.RESTR.norm>
0

>  <SCORE.SYSTEM>
0

>  <SCORE.SYSTEM.CONST>
0

>  <SCORE.SYSTEM.DIHEDRAL>
0

>  <SCORE.SYSTEM.SOLV>
0

>  <SCORE.SYSTEM.norm>
0

>  <SCORE.heavy>
42

>  <SCORE.norm>
-0.368193

>  <RMSD>
8.964

$$$$
2fcy_lig
 OpenBabel11021811433D
libRbt.so/2013.1/901 2013/11/27
 42 45  0  0  0  0  0  0  0  0999 V2000
   -0.3984   92.4939   10.8646 C   0  0  2  0  0  0  0  0  0  0  0  0
   -1.0633   92.7823    9.6228 O   0  0  0  0  0  0  0  0  0  0  0  0
    0.0283   91.0285   10.7674 C   0  0  2  0  0  0  0  0  0  0  0  0
    0.8269   90.8502    9.5471 N   0  0  0  0  0  0  0  0  0  0  0  0
   -1.2141   90.1369   10.6971 C   0  0  1  0  0  0  0  0  0  0  0  0
   -0.8399   88.7591   10.6099 O   0  0  0  0  0  0  0  0  0  0  0  0
   -2.0822   90.3790   11.9323 C   0  0  2  0  0  0  0  0  0  0  0  0
   -3.2853   89.6194   11.8178 O   0  0  0  0  0  0  0  0  0  0  0  0
   -2.4586   91.8604   11.9871 C   0  0  2  0  0  0  0  0  0  0  0  0
   -1.2649   92.6586   12.0058 O   0  0  0  0  0  0  0  0  0  0  0  0
   -3.3204   92.1171   13.2261 C   0  0  0  0  0  0  0  0  0  0  0  0
   -3.7922   93.5095   13.2597 N   0  0  0  0  0  0  0  0  0  0  0  0
   -0.5213   96.3940    7.5472 C   0  0  2  0  0  0  0  0  0  0  0  0
   -0.5396   97.7540    6.9876 N   0  0  0  0  0  0  0  0  0  0  0  0
   -1.8979   95.7374    7.4256 C   0  0  0  0  0  0  0  0  0  0  0  0
   -1.7826   94.2854    7.9005 C   0  0  2  0  0  0  0  0  0  0  0  0
   -3.1124   93.6594    7.8752 N   0  0  0  0  0  0  0  0  0  0  0  0
   -1.2432   94.1792    9.3300 C   0  0  2  0  0  0  0  0  0  0  0  0
    0.0084   95.0065    9.6010 C   0  0  2  0  0  0  0  0  0  0  0  0
    0.1162   95.0846   11.0315 O   0  0  0  0  0  0  0  0  0  0  0  0
   -0.1065   96.4222    9.0203 C   0  0  1  0  0  0  0  0  0  0  0  0
    1.1427   97.1125    9.1104 O   0  0  0  0  0  0  0  0  0  0  0  0
    1.2743   95.7717   11.5327 C   0  0  1  0  0  0  0  0  0  0  0  0
    1.1129   95.9041   13.0480 C   0  0  2  0  0  0  0  0  0  0  0  0
    0.3081   97.0470   13.3478 O   0  0  0  0  0  0  0  0  0  0  0  0
    2.5658   96.1934   13.4139 C   0  0  1  0  0  0  0  0  0  0  0  0
    3.2747   95.1418   12.5750 C   0  0  2  0  0  0  0  0  0  0  0  0
    2.4995   95.0297   11.3637 O   0  0  0  0  0  0  0  0  0  0  0  0
    3.3118   93.8215   13.3531 C   0  0  0  0  0  0  0  0  0  0  0  0
    4.1158   93.9537   14.5289 O   0  0  0  0  0  0  0  0  0  0  0  0
    3.7333   98.1506   13.9655 C   0  0  2  0  0  0  0  0  0  0  0  0
    2.9287   97.5086   12.9647 O   0  0  0  0  0  0  0  0  0  0  0  0
    4.0031   99.6013   13.5532 C   0  0  1  0  0  0  0  0  0  0  0  0
    7.7869   96.9654   14.0874 N   0  0  0  0  0  0  0  0  0  0  0  0
    4.9447  100.2759   14.5566 C   0  0  1  0  0  0  0  0  0  0  0  0
    4.2886  100.4442   15.8173 O   0  0  0  0  0  0  0  0  0  0  0  0
    6.2059   99.4266   14.7361 C   0  0  2  0  0  0  0  0  0  0  0  0
    6.9244   99.4099   13.4979 O   0  0  0  0  0  0  0  0  0  0  0  0
    5.8118   98.0002   15.1342 C   0  0  1  0  0  0  0  0  0  0  0  0
    4.9654   97.4249   14.1216 O   0  0  0  0  0  0  0  0  0  0  0  0
    7.0424   97.1143   15.3465 C   0  0  0  0  0  0  0  0  0  0  0  0
    4.6519   99.6037   12.2333 N   0  0  0  0  0  0  0  0  0  0  0  0
  1  2  1  6  0  0  0
  1  3  1  0  0  0  0
  1 10  1  0  0  0  0
  3  4  1  6  0  0  0
  3  5  1  0  0  0  0
  5  6  1  1  0  0  0
  5  7  1  0  0  0  0
  7  8  1  6  0  0  0
  7  9  1  0  0  0  0
  9 10  1  0  0  0  0
  9 11  1  1  0  0  0
 11 12  1  0  0  0  0
 13 14  1  1  0  0  0
 13 15  1  0  0  0  0
 13 21  1  0  0  0  0
 16 15  1  0  0  0  0
 16 17  1  1  0  0  0
 18  2  1  6  0  0  0
 18 16  1  0  0  0  0
 19 18  1  0  0  0  0
 19 20  1  1  0  0  0
 21 19  1  0  0  0  0
 21 22  1  6  0  0  0
 23 20  1  1  0  0  0
 23 24  1  0  0  0  0
 23 28  1  0  0  0  0
 24 25  1  6  0  0  0
 24 26  1  0  0  0  0
 26 27  1  0  0  0  0
 26 32  1  6  0  0  0
 27 28  1  0  0  0  0
 27 29  1  1  0  0  0
 29 30  1  0  0  0  0
 31 32  1  6  0  0  0
 31 40  1  0  0  0  0
 33 31  1  0  0  0  0
 33 42  1  6  0  0  0
 35 33  1  0  0  0  0
 35 36  1  1  0  0  0
 37 35  1  0  0  0  0
 37 38  1  6  0  0  0
 37 39  1  0  0  0  0
 39 40  1  0  0  0  0
 39 41  1  6  0  0  0
 41 34  1  0  0  0  0
M  END
>  <CHROM.1>
-164.26709665,-175.53890627,172.28250226,177.06244242,172.80248913,139.31266836
-65.27039708,-174.31632701,-63.72896908,1.32395125,95.19944421,11.81899571
-2.83828551,-0.76223310,-0.59696174

>  <Name>
2fcy_lig

>  <RI>
224

>  <Rbt.Current_Directory>
/home/itssahil/PROJECTS/Mol_Feturizer/New_Systems/rnas/2fcy

>  <Rbt.Executable>
rbdock ($Id: //depot/dev/client3/rdock/2013.1/src/exe/rbdock.cxx#4 $)

>  <Rbt.Library>
libRbt.so (2013.1, Build901 2013/11/27)

>  <Rbt.Parameter_File>
/export/apps/rDock/src/rDock_2013.1_src/data/scripts/dock_solv.prm

>  <Rbt.Receptor>
prm/pocket_docking_6.prm

>  <SCORE>
-13.6427

>  <SCORE.INTER>
-10.1568

>  <SCORE.INTER.CONST>
1

>  <SCORE.INTER.POLAR>
-1.79298

>  <SCORE.INTER.ROT>
9

>  <SCORE.INTER.SOLV>
15.1683

>  <SCORE.INTER.VDW>
-15.4507

>  <SCORE.INTER.norm>
-0.24183

>  <SCORE.INTRA>
-3.48589

>  <SCORE.INTRA.DIHEDRAL>
-9.58823

>  <SCORE.INTRA.DIHEDRAL.0>
17.3446

>  <SCORE.INTRA.POLAR>
0

>  <SCORE.INTRA.POLAR.0>
0

>  <SCORE.INTRA.REPUL>
0

>  <SCORE.INTRA.REPUL.0>
0

>  <SCORE.INTRA.SOLV>
-4.19568

>  <SCORE.INTRA.SOLV.lig_0>
-112.452

>  <SCORE.INTRA.VDW>
3.40607

>  <SCORE.INTRA.VDW.0>
-5.95059

>  <SCORE.INTRA.norm>
-0.0829973

>  <SCORE.RESTR>
0

>  <SCORE.RESTR.CAVITY>
0

>  <SCORE.RESTR.norm>
0

>  <SCORE.SYSTEM>
0

>  <SCORE.SYSTEM.CONST>
0

>  <SCORE.SYSTEM.DIHEDRAL>
0

>  <SCORE.SYSTEM.SOLV>
0

>  <SCORE.SYSTEM.norm>
0

>  <SCORE.heavy>
42

>  <SCORE.norm>
-0.324827

>  <RMSD>
8.967

$$$$
2fcy_lig
 OpenBabel11021811433D
libRbt.so/2013.1/901 2013/11/27
 42 45  0  0  0  0  0  0  0  0999 V2000
   -2.0355   92.0860    7.3353 C   0  0  2  0  0  0  0  0  0  0  0  0
   -0.6815   92.4038    6.9709 O   0  0  0  0  0  0  0  0  0  0  0  0
   -2.8779   92.4190    6.1031 C   0  0  2  0  0  0  0  0  0  0  0  0
   -2.3298   91.6950    4.9480 N   0  0  0  0  0  0  0  0  0  0  0  0
   -2.8191   93.9248    5.8342 C   0  0  1  0  0  0  0  0  0  0  0  0
   -3.6042   94.2617    4.6870 O   0  0  0  0  0  0  0  0  0  0  0  0
   -3.3195   94.6796    7.0662 C   0  0  2  0  0  0  0  0  0  0  0  0
   -3.1732   96.0829    6.8496 O   0  0  0  0  0  0  0  0  0  0  0  0
   -2.4551   94.2911    8.2666 C   0  0  2  0  0  0  0  0  0  0  0  0
   -2.5042   92.8680    8.4530 O   0  0  0  0  0  0  0  0  0  0  0  0
   -2.9533   95.0336    9.5093 C   0  0  0  0  0  0  0  0  0  0  0  0
   -2.7260   96.4811    9.3840 N   0  0  0  0  0  0  0  0  0  0  0  0
    0.6538   88.4916    7.7183 C   0  0  2  0  0  0  0  0  0  0  0  0
    1.3773   87.2272    7.9201 N   0  0  0  0  0  0  0  0  0  0  0  0
    0.8938   89.0366    6.3090 C   0  0  0  0  0  0  0  0  0  0  0  0
    0.0141   90.2759    6.1156 C   0  0  2  0  0  0  0  0  0  0  0  0
    0.2927   90.8683    4.7993 N   0  0  0  0  0  0  0  0  0  0  0  0
    0.2756   91.3495    7.1759 C   0  0  2  0  0  0  0  0  0  0  0  0
    0.2914   90.8358    8.6113 C   0  0  2  0  0  0  0  0  0  0  0  0
    0.9214   91.8704    9.3839 O   0  0  0  0  0  0  0  0  0  0  0  0
    1.0982   89.5374    8.7439 C   0  0  1  0  0  0  0  0  0  0  0  0
    0.9383   88.9691   10.0464 O   0  0  0  0  0  0  0  0  0  0  0  0
    0.8092   91.7391   10.8102 C   0  0  1  0  0  0  0  0  0  0  0  0
    1.2878   93.0513   11.4338 C   0  0  2  0  0  0  0  0  0  0  0  0
    2.7129   93.0380   11.5472 O   0  0  0  0  0  0  0  0  0  0  0  0
    0.6647   92.8940   12.8178 C   0  0  1  0  0  0  0  0  0  0  0  0
   -0.7297   92.4206   12.4387 C   0  0  2  0  0  0  0  0  0  0  0  0
   -0.5512   91.5970   11.2681 O   0  0  0  0  0  0  0  0  0  0  0  0
   -1.6116   93.6408   12.1491 C   0  0  0  0  0  0  0  0  0  0  0  0
   -2.9637   93.2385   11.9120 O   0  0  0  0  0  0  0  0  0  0  0  0
    1.0691   92.0023   14.9485 C   0  0  2  0  0  0  0  0  0  0  0  0
    1.3525   91.8655   13.5476 O   0  0  0  0  0  0  0  0  0  0  0  0
    1.7804   90.8904   15.7262 C   0  0  1  0  0  0  0  0  0  0  0  0
   -2.8622   91.1128   15.8564 N   0  0  0  0  0  0  0  0  0  0  0  0
    1.4100   90.9560   17.2118 C   0  0  1  0  0  0  0  0  0  0  0  0
    1.9614   92.1337   17.8093 O   0  0  0  0  0  0  0  0  0  0  0  0
   -0.1132   90.9587   17.3668 C   0  0  2  0  0  0  0  0  0  0  0  0
   -0.6205   89.7012   16.9075 O   0  0  0  0  0  0  0  0  0  0  0  0
   -0.7114   92.1008   16.5386 C   0  0  1  0  0  0  0  0  0  0  0  0
   -0.3533   91.9414   15.1533 O   0  0  0  0  0  0  0  0  0  0  0  0
   -2.2351   92.1591   16.6772 C   0  0  0  0  0  0  0  0  0  0  0  0
    1.3437   89.5900   15.1956 N   0  0  0  0  0  0  0  0  0  0  0  0
  1  2  1  6  0  0  0
  1  3  1  0  0  0  0
  1 10  1  0  0  0  0
  3  4  1  6  0  0  0
  3  5  1  0  0  0  0
  5  6  1  6  0  0  0
  5  7  1  0  0  0  0
  7  8  1  6  0  0  0
  7  9  1  0  0  0  0
  9 10  1  0  0  0  0
  9 11  1  1  0  0  0
 11 12  1  0  0  0  0
 13 14  1  1  0  0  0
 13 15  1  0  0  0  0
 13 21  1  0  0  0  0
 16 15  1  0  0  0  0
 16 17  1  6  0  0  0
 18  2  1  1  0  0  0
 18 16  1  0  0  0  0
 19 18  1  0  0  0  0
 19 20  1  1  0  0  0
 21 19  1  0  0  0  0
 21 22  1  1  0  0  0
 23 20  1  6  0  0  0
 23 24  1  0  0  0  0
 23 28  1  0  0  0  0
 24 25  1  1  0  0  0
 24 26  1  0  0  0  0
 26 27  1  0  0  0  0
 26 32  1  1  0  0  0
 27 28  1  0  0  0  0
 27 29  1  6  0  0  0
 29 30  1  0  0  0  0
 31 32  1  6  0  0  0
 31 40  1  0  0  0  0
 33 31  1  0  0  0  0
 33 42  1  6  0  0  0
 35 33  1  0  0  0  0
 35 36  1  6  0  0  0
 37 35  1  0  0  0  0
 37 38  1  6  0  0  0
 37 39  1  0  0  0  0
 39 40  1  0  0  0  0
 39 41  1  6  0  0  0
 41 34  1  0  0  0  0
M  END
>  <CHROM.1>
-127.21958570,-66.77764746,71.77990824,167.76581352,-169.00678318,161.82120293
-174.55176157,178.93787654,-77.43092786,-0.55563450,91.96486055,10.72342563
1.89368217,0.89032386,-1.70301237

>  <Name>
2fcy_lig

>  <RI>
0

>  <Rbt.Current_Directory>
/home/itssahil/PROJECTS/Mol_Feturizer/New_Systems/rnas/2fcy

>  <Rbt.Executable>
rbdock ($Id: //depot/dev/client3/rdock/2013.1/src/exe/rbdock.cxx#4 $)

>  <Rbt.Library>
libRbt.so (2013.1, Build901 2013/11/27)

>  <Rbt.Parameter_File>
/export/apps/rDock/src/rDock_2013.1_src/data/scripts/dock_solv.prm

>  <Rbt.Receptor>
prm/pocket_docking_5.prm

>  <SCORE>
-13.5865

>  <SCORE.INTER>
-14.4011

>  <SCORE.INTER.CONST>
1

>  <SCORE.INTER.POLAR>
-2.02509

>  <SCORE.INTER.ROT>
9

>  <SCORE.INTER.SOLV>
19.7129

>  <SCORE.INTER.VDW>
-19.0214

>  <SCORE.INTER.norm>
-0.342882

>  <SCORE.INTRA>
0.814595

>  <SCORE.INTRA.DIHEDRAL>
-5.16437

>  <SCORE.INTRA.DIHEDRAL.0>
17.3446

>  <SCORE.INTRA.POLAR>
0

>  <SCORE.INTRA.POLAR.0>
0

>  <SCORE.INTRA.REPUL>
0.000814544

>  <SCORE.INTRA.REPUL.0>
0

>  <SCORE.INTRA.SOLV>
2.03848

>  <SCORE.INTRA.SOLV.lig_0>
-112.452

>  <SCORE.INTRA.VDW>
2.37346

>  <SCORE.INTRA.VDW.0>
-5.95059

>  <SCORE.INTRA.norm>
0.0193951

>  <SCORE.RESTR>
0

>  <SCORE.RESTR.CAVITY>
0

>  <SCORE.RESTR.norm>
0

>  <SCORE.SYSTEM>
0

>  <SCORE.SYSTEM.CONST>
0

>  <SCORE.SYSTEM.DIHEDRAL>
0

>  <SCORE.SYSTEM.SOLV>
0

>  <SCORE.SYSTEM.norm>
0

>  <SCORE.heavy>
42

>  <SCORE.norm>
-0.323487

>  <RMSD>
8.970

$$$$
2fcy_lig
 OpenBabel11021811433D
libRbt.so/2013.1/901 2013/11/27
 42 45  0  0  0  0  0  0  0  0999 V2000
   -0.7946   93.3944    5.4823 C   0  0  2  0  0  0  0  0  0  0  0  0
   -0.8905   92.5666    6.6540 O   0  0  0  0  0  0  0  0  0  0  0  0
   -1.0590   94.8202    5.9683 C   0  0  2  0  0  0  0  0  0  0  0  0
   -0.1231   95.1277    7.0584 N   0  0  0  0  0  0  0  0  0  0  0  0
   -2.4956   94.9268    6.4860 C   0  0  1  0  0  0  0  0  0  0  0  0
   -2.7683   96.2545    6.9428 O   0  0  0  0  0  0  0  0  0  0  0  0
   -3.4663   94.5336    5.3719 C   0  0  2  0  0  0  0  0  0  0  0  0
   -4.7985   94.5403    5.8848 O   0  0  0  0  0  0  0  0  0  0  0  0
   -3.1404   93.1113    4.9138 C   0  0  2  0  0  0  0  0  0  0  0  0
   -1.7727   93.0481    4.4804 O   0  0  0  0  0  0  0  0  0  0  0  0
   -4.1002   92.7099    3.7907 C   0  0  0  0  0  0  0  0  0  0  0  0
   -3.8938   93.5456    2.5984 N   0  0  0  0  0  0  0  0  0  0  0  0
    0.3416   88.6179    7.3866 C   0  0  2  0  0  0  0  0  0  0  0  0
    1.0092   87.3131    7.5073 N   0  0  0  0  0  0  0  0  0  0  0  0
    0.2222   89.0340    5.9191 C   0  0  0  0  0  0  0  0  0  0  0  0
   -0.5946   90.3283    5.8504 C   0  0  2  0  0  0  0  0  0  0  0  0
   -0.6485   90.7949    4.4574 N   0  0  0  0  0  0  0  0  0  0  0  0
    0.0158   91.4501    6.6956 C   0  0  2  0  0  0  0  0  0  0  0  0
    0.3898   91.0445    8.1169 C   0  0  2  0  0  0  0  0  0  0  0  0
    1.2727   92.0738    8.5915 O   0  0  0  0  0  0  0  0  0  0  0  0
    1.1162   89.6934    8.1522 C   0  0  1  0  0  0  0  0  0  0  0  0
    1.2818   89.2392    9.4981 O   0  0  0  0  0  0  0  0  0  0  0  0
    0.6739   93.0657    9.4411 C   0  0  1  0  0  0  0  0  0  0  0  0
    0.6208   92.4898   10.8571 C   0  0  2  0  0  0  0  0  0  0  0  0
   -0.5415   91.6698   10.9995 O   0  0  0  0  0  0  0  0  0  0  0  0
    0.4256   93.7899   11.6317 C   0  0  1  0  0  0  0  0  0  0  0  0
    1.4612   94.6722   10.9524 C   0  0  2  0  0  0  0  0  0  0  0  0
    1.4649   94.2650    9.5686 O   0  0  0  0  0  0  0  0  0  0  0  0
    2.8242   94.4476   11.6171 C   0  0  0  0  0  0  0  0  0  0  0  0
    2.7596   94.7559   13.0126 O   0  0  0  0  0  0  0  0  0  0  0  0
   -1.1722   95.3581   12.3292 C   0  0  2  0  0  0  0  0  0  0  0  0
   -0.8936   94.3057   11.3930 O   0  0  0  0  0  0  0  0  0  0  0  0
   -2.6631   95.7072   12.2790 C   0  0  1  0  0  0  0  0  0  0  0  0
    1.7875   98.2697   12.7661 N   0  0  0  0  0  0  0  0  0  0  0  0
   -2.9646   96.8971   13.1964 C   0  0  1  0  0  0  0  0  0  0  0  0
   -2.7948   96.5226   14.5672 O   0  0  0  0  0  0  0  0  0  0  0  0
   -2.0322   98.0632   12.8567 C   0  0  2  0  0  0  0  0  0  0  0  0
   -2.3369   98.5202   11.5346 O   0  0  0  0  0  0  0  0  0  0  0  0
   -0.5755   97.5929   12.9274 C   0  0  1  0  0  0  0  0  0  0  0  0
   -0.3663   96.5053   12.0076 O   0  0  0  0  0  0  0  0  0  0  0  0
    0.3997   98.7312   12.6152 C   0  0  0  0  0  0  0  0  0  0  0  0
   -3.0135   96.0827   10.9009 N   0  0  0  0  0  0  0  0  0  0  0  0
  1  2  1  1  0  0  0
  1  3  1  0  0  0  0
  1 10  1  0  0  0  0
  3  4  1  1  0  0  0
  3  5  1  0  0  0  0
  5  6  1  6  0  0  0
  5  7  1  0  0  0  0
  7  8  1  1  0  0  0
  7  9  1  0  0  0  0
  9 10  1  0  0  0  0
  9 11  1  6  0  0  0
 11 12  1  0  0  0  0
 13 14  1  6  0  0  0
 13 15  1  0  0  0  0
 13 21  1  0  0  0  0
 16 15  1  0  0  0  0
 16 17  1  6  0  0  0
 18  2  1  1  0  0  0
 18 16  1  0  0  0  0
 19 18  1  0  0  0  0
 19 20  1  6  0  0  0
 21 19  1  0  0  0  0
 21 22  1  1  0  0  0
 23 20  1  6  0  0  0
 23 24  1  0  0  0  0
 23 28  1  0  0  0  0
 24 25  1  6  0  0  0
 24 26  1  0  0  0  0
 26 27  1  0  0  0  0
 26 32  1  6  0  0  0
 27 28  1  0  0  0  0
 27 29  1  1  0  0  0
 29 30  1  0  0  0  0
 31 32  1  6  0  0  0
 31 40  1  0  0  0  0
 33 31  1  0  0  0  0
 33 42  1  6  0  0  0
 35 33  1  0  0  0  0
 35 36  1  1  0  0  0
 37 35  1  0  0  0  0
 37 38  1  6  0  0  0
 37 39  1  0  0  0  0
 39 40  1  0  0  0  0
 39 41  1  6  0  0  0
 41 34  1  0  0  0  0
M  END
>  <CHROM.1>
-144.51122946,64.90917983,-81.28424220,99.88450650,82.22609923,167.90602643
-58.95920712,-168.12890165,176.76368115,-0.75713188,93.82725489,8.96288983
1.66324928,0.83280861,-2.29338847

>  <Name>
2fcy_lig

>  <RI>
2.89127e+07

>  <Rbt.Current_Directory>
/home/itssahil/PROJECTS/Mol_Feturizer/New_Systems/rnas/2fcy

>  <Rbt.Executable>
rbdock ($Id: //depot/dev/client3/rdock/2013.1/src/exe/rbdock.cxx#4 $)

>  <Rbt.Library>
libRbt.so (2013.1, Build901 2013/11/27)

>  <Rbt.Parameter_File>
/export/apps/rDock/src/rDock_2013.1_src/data/scripts/dock_solv.prm

>  <Rbt.Receptor>
prm/pocket_docking_7.prm

>  <SCORE>
-20.4607

>  <SCORE.INTER>
-22.4012

>  <SCORE.INTER.CONST>
1

>  <SCORE.INTER.POLAR>
-3.37454

>  <SCORE.INTER.ROT>
9

>  <SCORE.INTER.SOLV>
11.298

>  <SCORE.INTER.VDW>
-17.0516

>  <SCORE.INTER.norm>
-0.533361

>  <SCORE.INTRA>
1.94047

>  <SCORE.INTRA.DIHEDRAL>
-1.20894

>  <SCORE.INTRA.DIHEDRAL.0>
17.3446

>  <SCORE.INTRA.POLAR>
0

>  <SCORE.INTRA.POLAR.0>
0

>  <SCORE.INTRA.REPUL>
0

>  <SCORE.INTRA.REPUL.0>
0

>  <SCORE.INTRA.SOLV>
2.08168

>  <SCORE.INTRA.SOLV.lig_0>
-112.452

>  <SCORE.INTRA.VDW>
1.5041

>  <SCORE.INTRA.VDW.0>
-5.95059

>  <SCORE.INTRA.norm>
0.0462017

>  <SCORE.RESTR>
0

>  <SCORE.RESTR.CAVITY>
0

>  <SCORE.RESTR.norm>
0

>  <SCORE.SYSTEM>
0

>  <SCORE.SYSTEM.CONST>
0

>  <SCORE.SYSTEM.DIHEDRAL>
0

>  <SCORE.SYSTEM.SOLV>
0

>  <SCORE.SYSTEM.norm>
0

>  <SCORE.heavy>
42

>  <SCORE.norm>
-0.487159

>  <RMSD>
8.976

$$$$
2fcy_lig
 OpenBabel11021811433D
libRbt.so/2013.1/901 2013/11/27
 42 45  0  0  0  0  0  0  0  0999 V2000
   -1.4156   92.2713    8.5750 C   0  0  2  0  0  0  0  0  0  0  0  0
   -1.0775   91.6254    7.3358 O   0  0  0  0  0  0  0  0  0  0  0  0
   -2.9152   92.5593    8.4883 C   0  0  2  0  0  0  0  0  0  0  0  0
   -3.6201   91.3033    8.1978 N   0  0  0  0  0  0  0  0  0  0  0  0
   -3.1798   93.5632    7.3634 C   0  0  1  0  0  0  0  0  0  0  0  0
   -4.5772   93.8518    7.2656 O   0  0  0  0  0  0  0  0  0  0  0  0
   -2.3858   94.8426    7.6287 C   0  0  2  0  0  0  0  0  0  0  0  0
   -2.5577   95.7390    6.5311 O   0  0  0  0  0  0  0  0  0  0  0  0
   -0.9008   94.4895    7.7261 C   0  0  2  0  0  0  0  0  0  0  0  0
   -0.7064   93.5134    8.7614 O   0  0  0  0  0  0  0  0  0  0  0  0
   -0.0960   95.7623    8.0018 C   0  0  0  0  0  0  0  0  0  0  0  0
    1.3464   95.4771    8.0302 N   0  0  0  0  0  0  0  0  0  0  0  0
    1.3989   88.2328    7.2704 C   0  0  2  0  0  0  0  0  0  0  0  0
    2.4762   87.2329    7.2199 N   0  0  0  0  0  0  0  0  0  0  0  0
    1.4152   89.1133    6.0193 C   0  0  0  0  0  0  0  0  0  0  0  0
    0.1969   90.0411    6.0674 C   0  0  2  0  0  0  0  0  0  0  0  0
    0.2389   90.9572    4.9185 N   0  0  0  0  0  0  0  0  0  0  0  0
    0.1592   90.8904    7.3412 C   0  0  2  0  0  0  0  0  0  0  0  0
    0.3781   90.1106    8.6328 C   0  0  2  0  0  0  0  0  0  0  0  0
    0.6934   91.0963    9.6293 O   0  0  0  0  0  0  0  0  0  0  0  0
    1.5427   89.1189    8.5102 C   0  0  1  0  0  0  0  0  0  0  0  0
    1.6061   88.2638    9.6547 O   0  0  0  0  0  0  0  0  0  0  0  0
    0.4732   90.6976   10.9920 C   0  0  1  0  0  0  0  0  0  0  0  0
    0.1423   91.9574   11.7940 C   0  0  2  0  0  0  0  0  0  0  0  0
    1.3526   92.6111   12.1835 O   0  0  0  0  0  0  0  0  0  0  0  0
   -0.4962   91.2980   13.0130 C   0  0  1  0  0  0  0  0  0  0  0  0
   -1.4012   90.2826   12.3334 C   0  0  2  0  0  0  0  0  0  0  0  0
   -0.6801   89.8482   11.1620 O   0  0  0  0  0  0  0  0  0  0  0  0
   -2.7279   90.9588   11.9688 C   0  0  0  0  0  0  0  0  0  0  0  0
   -3.6318   90.0126   11.3908 O   0  0  0  0  0  0  0  0  0  0  0  0
    0.0009   90.3482   15.0986 C   0  0  2  0  0  0  0  0  0  0  0  0
    0.5099   90.6225   13.7844 O   0  0  0  0  0  0  0  0  0  0  0  0
   -0.4299   91.6586   15.7651 C   0  0  1  0  0  0  0  0  0  0  0  0
    1.1196   88.0532   19.2128 N   0  0  0  0  0  0  0  0  0  0  0  0
   -0.8819   91.4018   17.2067 C   0  0  1  0  0  0  0  0  0  0  0  0
   -2.0996   90.6499   17.2186 O   0  0  0  0  0  0  0  0  0  0  0  0
    0.2082   90.6380   17.9636 C   0  0  2  0  0  0  0  0  0  0  0  0
    1.3610   91.4796   18.0746 O   0  0  0  0  0  0  0  0  0  0  0  0
    0.5633   89.3583   17.1991 C   0  0  1  0  0  0  0  0  0  0  0  0
    1.0178   89.6893   15.8737 O   0  0  0  0  0  0  0  0  0  0  0  0
    1.6374   88.5464   17.9281 C   0  0  0  0  0  0  0  0  0  0  0  0
    0.7214   92.5733   15.7953 N   0  0  0  0  0  0  0  0  0  0  0  0
  1  2  1  6  0  0  0
  1  3  1  0  0  0  0
  1 10  1  0  0  0  0
  3  4  1  6  0  0  0
  3  5  1  0  0  0  0
  5  6  1  1  0  0  0
  5  7  1  0  0  0  0
  7  8  1  6  0  0  0
  7  9  1  0  0  0  0
  9 10  1  0  0  0  0
  9 11  1  1  0  0  0
 11 12  1  0  0  0  0
 13 14  1  6  0  0  0
 13 15  1  0  0  0  0
 13 21  1  0  0  0  0
 16 15  1  0  0  0  0
 16 17  1  6  0  0  0
 18  2  1  1  0  0  0
 18 16  1  0  0  0  0
 19 18  1  0  0  0  0
 19 20  1  1  0  0  0
 21 19  1  0  0  0  0
 21 22  1  1  0  0  0
 23 20  1  6  0  0  0
 23 24  1  0  0  0  0
 23 28  1  0  0  0  0
 24 25  1  1  0  0  0
 24 26  1  0  0  0  0
 26 27  1  0  0  0  0
 26 32  1  1  0  0  0
 27 28  1  0  0  0  0
 27 29  1  6  0  0  0
 29 30  1  0  0  0  0
 31 32  1  6  0  0  0
 31 40  1  0  0  0  0
 33 31  1  0  0  0  0
 33 42  1  1  0  0  0
 35 33  1  0  0  0  0
 35 36  1  6  0  0  0
 37 35  1  0  0  0  0
 37 38  1  6  0  0  0
 37 39  1  0  0  0  0
 39 40  1  0  0  0  0
 39 41  1  1  0  0  0
 41 34  1  0  0  0  0
M  END
>  <CHROM.1>
-161.33908116,-176.92189179,167.99455724,158.40802423,-150.87210444,163.20533967
-176.91436453,-57.54125506,65.25791172,-0.37258334,91.26484406,11.09322714
1.80115849,0.97648970,-1.54676613

>  <Name>
2fcy_lig

>  <RI>
224

>  <Rbt.Current_Directory>
/home/itssahil/PROJECTS/Mol_Feturizer/New_Systems/rnas/2fcy

>  <Rbt.Executable>
rbdock ($Id: //depot/dev/client3/rdock/2013.1/src/exe/rbdock.cxx#4 $)

>  <Rbt.Library>
libRbt.so (2013.1, Build901 2013/11/27)

>  <Rbt.Parameter_File>
/export/apps/rDock/src/rDock_2013.1_src/data/scripts/dock_solv.prm

>  <Rbt.Receptor>
prm/pocket_docking_6.prm

>  <SCORE>
-30.1798

>  <SCORE.INTER>
-28.1249

>  <SCORE.INTER.CONST>
1

>  <SCORE.INTER.POLAR>
-3.90107

>  <SCORE.INTER.ROT>
9

>  <SCORE.INTER.SOLV>
22.6014

>  <SCORE.INTER.VDW>
-22.8802

>  <SCORE.INTER.norm>
-0.669641

>  <SCORE.INTRA>
-2.06675

>  <SCORE.INTRA.DIHEDRAL>
-7.64396

>  <SCORE.INTRA.DIHEDRAL.0>
17.3446

>  <SCORE.INTRA.POLAR>
0

>  <SCORE.INTRA.POLAR.0>
0

>  <SCORE.INTRA.REPUL>
0

>  <SCORE.INTRA.REPUL.0>
0

>  <SCORE.INTRA.SOLV>
-3.52013

>  <SCORE.INTRA.SOLV.lig_0>
-112.452

>  <SCORE.INTRA.VDW>
3.51529

>  <SCORE.INTRA.VDW.0>
-5.95059

>  <SCORE.INTRA.norm>
-0.0492083

>  <SCORE.RESTR>
0.011884

>  <SCORE.RESTR.CAVITY>
0.011884

>  <SCORE.RESTR.norm>
0.000282953

>  <SCORE.SYSTEM>
0

>  <SCORE.SYSTEM.CONST>
0

>  <SCORE.SYSTEM.DIHEDRAL>
0

>  <SCORE.SYSTEM.SOLV>
0

>  <SCORE.SYSTEM.norm>
0

>  <SCORE.heavy>
42

>  <SCORE.norm>
-0.718566

>  <RMSD>
8.983

$$$$
2fcy_lig
 OpenBabel11021811433D
libRbt.so/2013.1/901 2013/11/27
 42 45  0  0  0  0  0  0  0  0999 V2000
    5.3449   98.3394   12.1488 C   0  0  2  0  0  0  0  0  0  0  0  0
    4.5794   97.1224   12.1553 O   0  0  0  0  0  0  0  0  0  0  0  0
    6.4586   98.1147   11.1250 C   0  0  2  0  0  0  0  0  0  0  0  0
    5.8507   97.7236    9.8458 N   0  0  0  0  0  0  0  0  0  0  0  0
    7.3837   96.9963   11.6116 C   0  0  1  0  0  0  0  0  0  0  0  0
    8.4373   96.7705   10.6710 O   0  0  0  0  0  0  0  0  0  0  0  0
    7.9570   97.3716   12.9784 C   0  0  2  0  0  0  0  0  0  0  0  0
    8.7417   96.2866   13.4733 O   0  0  0  0  0  0  0  0  0  0  0  0
    6.7998   97.6038   13.9511 C   0  0  2  0  0  0  0  0  0  0  0  0
    5.9353   98.6269   13.4331 O   0  0  0  0  0  0  0  0  0  0  0  0
    7.3618   97.9903   15.3217 C   0  0  0  0  0  0  0  0  0  0  0  0
    6.4120   97.6556   16.3934 N   0  0  0  0  0  0  0  0  0  0  0  0
    3.1787   97.3309   16.1102 C   0  0  2  0  0  0  0  0  0  0  0  0
    2.4360   97.3457   17.3795 N   0  0  0  0  0  0  0  0  0  0  0  0
    2.5899   98.3416   15.1239 C   0  0  0  0  0  0  0  0  0  0  0  0
    3.4815   98.3747   13.8784 C   0  0  2  0  0  0  0  0  0  0  0  0
    2.8871   99.2749   12.8798 N   0  0  0  0  0  0  0  0  0  0  0  0
    3.6337   96.9948   13.2318 C   0  0  2  0  0  0  0  0  0  0  0  0
    3.9890   95.8733   14.2016 C   0  0  2  0  0  0  0  0  0  0  0  0
    3.7033   94.6525   13.5001 O   0  0  0  0  0  0  0  0  0  0  0  0
    3.1440   95.9360   15.4808 C   0  0  1  0  0  0  0  0  0  0  0  0
    3.6234   95.0044   16.4541 O   0  0  0  0  0  0  0  0  0  0  0  0
    2.6789   93.8269   14.0775 C   0  0  1  0  0  0  0  0  0  0  0  0
    1.3505   94.2164   13.4270 C   0  0  2  0  0  0  0  0  0  0  0  0
    0.8043   95.3565   14.0945 O   0  0  0  0  0  0  0  0  0  0  0  0
    0.5393   92.9760   13.7899 C   0  0  1  0  0  0  0  0  0  0  0  0
    1.5377   91.8834   13.4411 C   0  0  2  0  0  0  0  0  0  0  0  0
    2.8325   92.4253   13.7735 O   0  0  0  0  0  0  0  0  0  0  0  0
    1.4218   91.5571   11.9476 C   0  0  0  0  0  0  0  0  0  0  0  0
    2.0576   92.5690   11.1615 O   0  0  0  0  0  0  0  0  0  0  0  0
    0.5140   91.6506   15.7242 C   0  0  2  0  0  0  0  0  0  0  0  0
    0.2706   92.9653   15.2010 O   0  0  0  0  0  0  0  0  0  0  0  0
   -0.2112   91.4899   17.0641 C   0  0  1  0  0  0  0  0  0  0  0  0
    4.0999   88.5471   16.6816 N   0  0  0  0  0  0  0  0  0  0  0  0
    0.1172   90.1302   17.6900 C   0  0  1  0  0  0  0  0  0  0  0  0
   -0.4585   89.0745   16.9140 O   0  0  0  0  0  0  0  0  0  0  0  0
    1.6355   89.9489   17.7692 C   0  0  2  0  0  0  0  0  0  0  0  0
    2.1637   90.9198   18.6791 O   0  0  0  0  0  0  0  0  0  0  0  0
    2.2488   90.1437   16.3784 C   0  0  1  0  0  0  0  0  0  0  0  0
    1.9306   91.4571   15.8820 O   0  0  0  0  0  0  0  0  0  0  0  0
    3.7677   89.9516   16.4007 C   0  0  0  0  0  0  0  0  0  0  0  0
    0.2487   92.5457   17.9790 N   0  0  0  0  0  0  0  0  0  0  0  0
  1  2  1  1  0  0  0
  1  3  1  0  0  0  0
  1 10  1  0  0  0  0
  3  4  1  6  0  0  0
  3  5  1  0  0  0  0
  5  6  1  6  0  0  0
  5  7  1  0  0  0  0
  7  8  1  1  0  0  0
  7  9  1  0  0  0  0
  9 10  1  0  0  0  0
  9 11  1  1  0  0  0
 11 12  1  0  0  0  0
 13 14  1  1  0  0  0
 13 15  1  0  0  0  0
 13 21  1  0  0  0  0
 16 15  1  0  0  0  0
 16 17  1  6  0  0  0
 18  2  1  6  0  0  0
 18 16  1  0  0  0  0
 19 18  1  0  0  0  0
 19 20  1  6  0  0  0
 21 19  1  0  0  0  0
 21 22  1  1  0  0  0
 23 20  1  6  0  0  0
 23 24  1  0  0  0  0
 23 28  1  0  0  0  0
 24 25  1  1  0  0  0
 24 26  1  0  0  0  0
 26 27  1  0  0  0  0
 26 32  1  1  0  0  0
 27 28  1  0  0  0  0
 27 29  1  6  0  0  0
 29 30  1  0  0  0  0
 31 32  1  1  0  0  0
 31 40  1  0  0  0  0
 33 31  1  0  0  0  0
 33 42  1  1  0  0  0
 35 33  1  0  0  0  0
 35 36  1  6  0  0  0
 37 35  1  0  0  0  0
 37 38  1  1  0  0  0
 37 39  1  0  0  0  0
 39 40  1  0  0  0  0
 39 41  1  1  0  0  0
 41 34  1  0  0  0  0
M  END
>  <CHROM.1>
168.19718115,-155.09661052,13.71110306,-117.13369999,92.20332684,-135.07042876
76.59233348,-160.39010549,67.62606248,3.42209221,94.57890229,14.50196798
-0.40690489,-0.94571671,-2.54164053

>  <Name>
2fcy_lig

>  <RI>
9.29634e+06

>  <Rbt.Current_Directory>
/home/itssahil/PROJECTS/Mol_Feturizer/New_Systems/rnas/2fcy

>  <Rbt.Executable>
rbdock ($Id: //depot/dev/client3/rdock/2013.1/src/exe/rbdock.cxx#4 $)

>  <Rbt.Library>
libRbt.so (2013.1, Build901 2013/11/27)

>  <Rbt.Parameter_File>
/export/apps/rDock/src/rDock_2013.1_src/data/scripts/dock_solv.prm

>  <Rbt.Receptor>
prm/blind_docking_100.prm

>  <SCORE>
40.876

>  <SCORE.INTER>
12.1048

>  <SCORE.INTER.CONST>
1

>  <SCORE.INTER.POLAR>
0

>  <SCORE.INTER.ROT>
9

>  <SCORE.INTER.SOLV>
29.0317

>  <SCORE.INTER.VDW>
-11.2074

>  <SCORE.INTER.norm>
0.28821

>  <SCORE.INTRA>
26.2779

>  <SCORE.INTRA.DIHEDRAL>
11.4021

>  <SCORE.INTRA.DIHEDRAL.0>
17.3446

>  <SCORE.INTRA.POLAR>
0

>  <SCORE.INTRA.POLAR.0>
0

>  <SCORE.INTRA.REPUL>
0

>  <SCORE.INTRA.REPUL.0>
0

>  <SCORE.INTRA.SOLV>
1.73288

>  <SCORE.INTRA.SOLV.lig_0>
-112.452

>  <SCORE.INTRA.VDW>
19.7104

>  <SCORE.INTRA.VDW.0>
-5.95059

>  <SCORE.INTRA.norm>
0.625664

>  <SCORE.RESTR>
2.49331

>  <SCORE.RESTR.CAVITY>
2.49331

>  <SCORE.RESTR.norm>
0.0593646

>  <SCORE.SYSTEM>
0

>  <SCORE.SYSTEM.CONST>
0

>  <SCORE.SYSTEM.DIHEDRAL>
0

>  <SCORE.SYSTEM.SOLV>
0

>  <SCORE.SYSTEM.norm>
0

>  <SCORE.heavy>
42

>  <SCORE.norm>
0.973239

>  <RMSD>
8.992

$$$$
2fcy_lig
 OpenBabel11021811433D
libRbt.so/2013.1/901 2013/11/27
 42 45  0  0  0  0  0  0  0  0999 V2000
   -3.6242   91.3674    5.1313 C   0  0  2  0  0  0  0  0  0  0  0  0
   -3.6893   92.5629    5.9274 O   0  0  0  0  0  0  0  0  0  0  0  0
   -4.8881   91.3821    4.2702 C   0  0  2  0  0  0  0  0  0  0  0  0
   -4.9404   92.6513    3.5319 N   0  0  0  0  0  0  0  0  0  0  0  0
   -6.1216   91.2651    5.1691 C   0  0  1  0  0  0  0  0  0  0  0  0
   -7.3177   91.2724    4.3849 O   0  0  0  0  0  0  0  0  0  0  0  0
   -6.0287   89.9801    5.9925 C   0  0  2  0  0  0  0  0  0  0  0  0
   -7.1301   89.9215    6.8987 O   0  0  0  0  0  0  0  0  0  0  0  0
   -4.7388   90.0134    6.8137 C   0  0  2  0  0  0  0  0  0  0  0  0
   -3.6140   90.1694    5.9345 O   0  0  0  0  0  0  0  0  0  0  0  0
   -4.6297   88.7263    7.6354 C   0  0  0  0  0  0  0  0  0  0  0  0
   -5.5571   88.7503    8.7765 N   0  0  0  0  0  0  0  0  0  0  0  0
    0.1601   91.9305    7.4859 C   0  0  2  0  0  0  0  0  0  0  0  0
    1.4815   91.9734    8.1302 N   0  0  0  0  0  0  0  0  0  0  0  0
    0.0136   93.0647    6.4695 C   0  0  0  0  0  0  0  0  0  0  0  0
   -1.3224   92.8888    5.7407 C   0  0  2  0  0  0  0  0  0  0  0  0
   -1.5253   94.0167    4.8201 N   0  0  0  0  0  0  0  0  0  0  0  0
   -2.5128   92.8514    6.7034 C   0  0  2  0  0  0  0  0  0  0  0  0
   -2.3419   91.9103    7.8907 C   0  0  2  0  0  0  0  0  0  0  0  0
   -3.3451   92.3030    8.8412 O   0  0  0  0  0  0  0  0  0  0  0  0
   -0.9534   92.0446    8.5299 C   0  0  1  0  0  0  0  0  0  0  0  0
   -0.7424   91.0235    9.5086 O   0  0  0  0  0  0  0  0  0  0  0  0
   -3.3098   91.6179   10.1036 C   0  0  1  0  0  0  0  0  0  0  0  0
   -3.2218   92.6785   11.2023 C   0  0  2  0  0  0  0  0  0  0  0  0
   -1.8596   93.0734   11.3814 O   0  0  0  0  0  0  0  0  0  0  0  0
   -3.6655   91.8255   12.3872 C   0  0  1  0  0  0  0  0  0  0  0  0
   -4.8656   91.1158   11.7805 C   0  0  2  0  0  0  0  0  0  0  0  0
   -4.5220   90.8935   10.3973 O   0  0  0  0  0  0  0  0  0  0  0  0
   -6.1023   92.0102   11.9248 C   0  0  0  0  0  0  0  0  0  0  0  0
   -7.1857   91.4995   11.1425 O   0  0  0  0  0  0  0  0  0  0  0  0
   -1.6495   91.4983   13.5393 C   0  0  2  0  0  0  0  0  0  0  0  0
   -2.6414   90.8719   12.7115 O   0  0  0  0  0  0  0  0  0  0  0  0
   -0.2826   91.4164   12.8523 C   0  0  1  0  0  0  0  0  0  0  0  0
   -0.2692   89.4116   17.0506 N   0  0  0  0  0  0  0  0  0  0  0  0
    0.8087   91.9884   13.7635 C   0  0  1  0  0  0  0  0  0  0  0  0
    0.6385   93.4012   13.9154 O   0  0  0  0  0  0  0  0  0  0  0  0
    0.7500   91.3073   15.1335 C   0  0  2  0  0  0  0  0  0  0  0  0
    1.0825   89.9245   14.9699 O   0  0  0  0  0  0  0  0  0  0  0  0
   -0.6617   91.4432   15.7141 C   0  0  1  0  0  0  0  0  0  0  0  0
   -1.6189   90.8449   14.8204 O   0  0  0  0  0  0  0  0  0  0  0  0
   -0.7669   90.7943   17.0969 C   0  0  0  0  0  0  0  0  0  0  0  0
    0.0277   90.0037   12.5861 N   0  0  0  0  0  0  0  0  0  0  0  0
  1  2  1  1  0  0  0
  1  3  1  0  0  0  0
  1 10  1  0  0  0  0
  3  4  1  1  0  0  0
  3  5  1  0  0  0  0
  5  6  1  6  0  0  0
  5  7  1  0  0  0  0
  7  8  1  1  0  0  0
  7  9  1  0  0  0  0
  9 10  1  0  0  0  0
  9 11  1  6  0  0  0
 11 12  1  0  0  0  0
 13 14  1  1  0  0  0
 13 15  1  0  0  0  0
 13 21  1  0  0  0  0
 16 15  1  0  0  0  0
 16 17  1  6  0  0  0
 18  2  1  6  0  0  0
 18 16  1  0  0  0  0
 19 18  1  0  0  0  0
 19 20  1  1  0  0  0
 21 19  1  0  0  0  0
 21 22  1  1  0  0  0
 23 20  1  6  0  0  0
 23 24  1  0  0  0  0
 23 28  1  0  0  0  0
 24 25  1  1  0  0  0
 24 26  1  0  0  0  0
 26 27  1  0  0  0  0
 26 32  1  6  0  0  0
 27 28  1  0  0  0  0
 27 29  1  6  0  0  0
 29 30  1  0  0  0  0
 31 32  1  6  0  0  0
 31 40  1  0  0  0  0
 33 31  1  0  0  0  0
 33 42  1  1  0  0  0
 35 33  1  0  0  0  0
 35 36  1  1  0  0  0
 37 35  1  0  0  0  0
 37 38  1  6  0  0  0
 37 39  1  0  0  0  0
 39 40  1  0  0  0  0
 39 41  1  1  0  0  0
 41 34  1  0  0  0  0
M  END
>  <CHROM.1>
-172.50672725,-74.67308082,55.16468944,-175.21599943,125.07646792,82.88483874
168.71051140,-121.09556815,-52.18543624,-2.71076379,91.41290249,9.76180499
-2.01746475,0.28086120,1.73552190

>  <Name>
2fcy_lig

>  <RI>
1.56845e+07

>  <Rbt.Current_Directory>
/home/itssahil/PROJECTS/Mol_Feturizer/New_Systems/rnas/2fcy

>  <Rbt.Executable>
rbdock ($Id: //depot/dev/client3/rdock/2013.1/src/exe/rbdock.cxx#4 $)

>  <Rbt.Library>
libRbt.so (2013.1, Build901 2013/11/27)

>  <Rbt.Parameter_File>
/export/apps/rDock/src/rDock_2013.1_src/data/scripts/dock_solv.prm

>  <Rbt.Receptor>
prm/pocket_docking_4.prm

>  <SCORE>
-6.63925

>  <SCORE.INTER>
-12.0179

>  <SCORE.INTER.CONST>
1

>  <SCORE.INTER.POLAR>
-2.0768

>  <SCORE.INTER.ROT>
9

>  <SCORE.INTER.SOLV>
25.3269

>  <SCORE.INTER.VDW>
-19.1316

>  <SCORE.INTER.norm>
-0.28614

>  <SCORE.INTRA>
5.37862

>  <SCORE.INTRA.DIHEDRAL>
1.3837

>  <SCORE.INTRA.DIHEDRAL.0>
17.3446

>  <SCORE.INTRA.POLAR>
0

>  <SCORE.INTRA.POLAR.0>
0

>  <SCORE.INTRA.REPUL>
0

>  <SCORE.INTRA.REPUL.0>
0

>  <SCORE.INTRA.SOLV>
2.79889

>  <SCORE.INTRA.SOLV.lig_0>
-112.452

>  <SCORE.INTRA.VDW>
3.28732

>  <SCORE.INTRA.VDW.0>
-5.95059

>  <SCORE.INTRA.norm>
0.128062

>  <SCORE.RESTR>
0

>  <SCORE.RESTR.CAVITY>
0

>  <SCORE.RESTR.norm>
0

>  <SCORE.SYSTEM>
0

>  <SCORE.SYSTEM.CONST>
0

>  <SCORE.SYSTEM.DIHEDRAL>
0

>  <SCORE.SYSTEM.SOLV>
0

>  <SCORE.SYSTEM.norm>
0

>  <SCORE.heavy>
42

>  <SCORE.norm>
-0.158077

>  <RMSD>
8.994

$$$$
2fcy_lig
 OpenBabel11021811433D
libRbt.so/2013.1/901 2013/11/27
 42 45  0  0  0  0  0  0  0  0999 V2000
    0.6432   94.6889    9.7509 C   0  0  2  0  0  0  0  0  0  0  0  0
    1.8087   95.4703    9.4377 O   0  0  0  0  0  0  0  0  0  0  0  0
    0.4732   93.7227    8.5776 C   0  0  2  0  0  0  0  0  0  0  0  0
    1.7257   92.9761    8.3968 N   0  0  0  0  0  0  0  0  0  0  0  0
    0.1638   94.5133    7.3038 C   0  0  1  0  0  0  0  0  0  0  0  0
   -0.0039   93.6295    6.1918 O   0  0  0  0  0  0  0  0  0  0  0  0
   -1.0988   95.3482    7.5197 C   0  0  2  0  0  0  0  0  0  0  0  0
   -1.3307   96.1570    6.3665 O   0  0  0  0  0  0  0  0  0  0  0  0
   -0.8772   96.2766    8.7148 C   0  0  2  0  0  0  0  0  0  0  0  0
   -0.5458   95.4961    9.8739 O   0  0  0  0  0  0  0  0  0  0  0  0
   -2.1394   97.1112    8.9470 C   0  0  0  0  0  0  0  0  0  0  0  0
   -3.2558   96.2641    9.3926 N   0  0  0  0  0  0  0  0  0  0  0  0
    4.7241   97.2690   11.8692 C   0  0  2  0  0  0  0  0  0  0  0  0
    5.5252   98.0373   12.8340 N   0  0  0  0  0  0  0  0  0  0  0  0
    3.9198   98.2039   10.9637 C   0  0  0  0  0  0  0  0  0  0  0  0
    3.2139   97.3555    9.9010 C   0  0  2  0  0  0  0  0  0  0  0  0
    2.3649   98.2234    9.0723 N   0  0  0  0  0  0  0  0  0  0  0  0
    2.3190   96.2752   10.5154 C   0  0  2  0  0  0  0  0  0  0  0  0
    2.9818   95.4465   11.6101 C   0  0  2  0  0  0  0  0  0  0  0  0
    1.9063   94.7922   12.3025 O   0  0  0  0  0  0  0  0  0  0  0  0
    3.7636   96.3246   12.5962 C   0  0  1  0  0  0  0  0  0  0  0  0
    4.5347   95.5209   13.4931 O   0  0  0  0  0  0  0  0  0  0  0  0
    2.2795   93.6624   13.1078 C   0  0  1  0  0  0  0  0  0  0  0  0
    1.5108   93.7611   14.4264 C   0  0  2  0  0  0  0  0  0  0  0  0
    2.2067   94.6282   15.3250 O   0  0  0  0  0  0  0  0  0  0  0  0
    1.6605   92.3161   14.8936 C   0  0  1  0  0  0  0  0  0  0  0  0
    1.3384   91.5762   13.6048 C   0  0  2  0  0  0  0  0  0  0  0  0
    1.8720   92.3979   12.5461 O   0  0  0  0  0  0  0  0  0  0  0  0
   -0.1813   91.4110   13.4883 C   0  0  0  0  0  0  0  0  0  0  0  0
   -0.8114   92.6809   13.2965 O   0  0  0  0  0  0  0  0  0  0  0  0
    3.0441   91.2527   16.4598 C   0  0  2  0  0  0  0  0  0  0  0  0
    3.0221   92.0669   15.2775 O   0  0  0  0  0  0  0  0  0  0  0  0
    2.9986   89.7733   16.0641 C   0  0  1  0  0  0  0  0  0  0  0  0
    0.9275   92.7646   19.6940 N   0  0  0  0  0  0  0  0  0  0  0  0
    2.9184   88.8882   17.3126 C   0  0  1  0  0  0  0  0  0  0  0  0
    4.1426   88.9591   18.0506 O   0  0  0  0  0  0  0  0  0  0  0  0
    1.7521   89.3410   18.1953 C   0  0  2  0  0  0  0  0  0  0  0  0
    0.5288   89.1077   17.4892 O   0  0  0  0  0  0  0  0  0  0  0  0
    1.8987   90.8326   18.5141 C   0  0  1  0  0  0  0  0  0  0  0  0
    1.9226   91.5949   17.2929 O   0  0  0  0  0  0  0  0  0  0  0  0
    0.7645   91.3304   19.4142 C   0  0  0  0  0  0  0  0  0  0  0  0
    1.7956   89.5394   15.2509 N   0  0  0  0  0  0  0  0  0  0  0  0
  1  2  1  6  0  0  0
  1  3  1  0  0  0  0
  1 10  1  0  0  0  0
  3  4  1  6  0  0  0
  3  5  1  0  0  0  0
  5  6  1  6  0  0  0
  5  7  1  0  0  0  0
  7  8  1  6  0  0  0
  7  9  1  0  0  0  0
  9 10  1  0  0  0  0
  9 11  1  1  0  0  0
 11 12  1  0  0  0  0
 13 14  1  1  0  0  0
 13 15  1  0  0  0  0
 13 21  1  0  0  0  0
 16 15  1  0  0  0  0
 16 17  1  1  0  0  0
 18  2  1  6  0  0  0
 18 16  1  0  0  0  0
 19 18  1  0  0  0  0
 19 20  1  1  0  0  0
 21 19  1  0  0  0  0
 21 22  1  1  0  0  0
 23 20  1  6  0  0  0
 23 24  1  0  0  0  0
 23 28  1  0  0  0  0
 24 25  1  1  0  0  0
 24 26  1  0  0  0  0
 26 27  1  0  0  0  0
 26 32  1  6  0  0  0
 27 28  1  0  0  0  0
 27 29  1  6  0  0  0
 29 30  1  0  0  0  0
 31 32  1  6  0  0  0
 31 40  1  0  0  0  0
 33 31  1  0  0  0  0
 33 42  1  6  0  0  0
 35 33  1  0  0  0  0
 35 36  1  1  0  0  0
 37 35  1  0  0  0  0
 37 38  1  6  0  0  0
 37 39  1  0  0  0  0
 39 40  1  0  0  0  0
 39 41  1  1  0  0  0
 41 34  1  0  0  0  0
M  END
>  <CHROM.1>
-168.50414690,67.24380015,-161.15319641,162.20224774,137.30693261,139.81867685
67.42139065,87.35065862,-179.59796185,1.56723616,93.72148543,12.75233973
1.77164995,-0.70909289,-0.88449113

>  <Name>
2fcy_lig

>  <RI>
0

>  <Rbt.Current_Directory>
/home/itssahil/PROJECTS/Mol_Feturizer/New_Systems/rnas/2fcy

>  <Rbt.Executable>
rbdock ($Id: //depot/dev/client3/rdock/2013.1/src/exe/rbdock.cxx#4 $)

>  <Rbt.Library>
libRbt.so (2013.1, Build901 2013/11/27)

>  <Rbt.Parameter_File>
/export/apps/rDock/src/rDock_2013.1_src/data/scripts/dock_solv.prm

>  <Rbt.Receptor>
prm/pocket_docking_5.prm

>  <SCORE>
-16.1226

>  <SCORE.INTER>
-20.2414

>  <SCORE.INTER.CONST>
1

>  <SCORE.INTER.POLAR>
-2.91121

>  <SCORE.INTER.ROT>
9

>  <SCORE.INTER.SOLV>
22.553

>  <SCORE.INTER.VDW>
-20.9079

>  <SCORE.INTER.norm>
-0.481937

>  <SCORE.INTRA>
4.11874

>  <SCORE.INTRA.DIHEDRAL>
1.0124

>  <SCORE.INTRA.DIHEDRAL.0>
17.3446

>  <SCORE.INTRA.POLAR>
0

>  <SCORE.INTRA.POLAR.0>
0

>  <SCORE.INTRA.REPUL>
0.0162794

>  <SCORE.INTRA.REPUL.0>
0

>  <SCORE.INTRA.SOLV>
-0.378134

>  <SCORE.INTRA.SOLV.lig_0>
-112.452

>  <SCORE.INTRA.VDW>
3.72022

>  <SCORE.INTRA.VDW.0>
-5.95059

>  <SCORE.INTRA.norm>
0.0980653

>  <SCORE.RESTR>
0

>  <SCORE.RESTR.CAVITY>
0

>  <SCORE.RESTR.norm>
0

>  <SCORE.SYSTEM>
0

>  <SCORE.SYSTEM.CONST>
0

>  <SCORE.SYSTEM.DIHEDRAL>
0

>  <SCORE.SYSTEM.SOLV>
0

>  <SCORE.SYSTEM.norm>
0

>  <SCORE.heavy>
42

>  <SCORE.norm>
-0.383872

>  <RMSD>
8.997

$$$$
2fcy_lig
 OpenBabel11021811433D
libRbt.so/2013.1/901 2013/11/27
 42 45  0  0  0  0  0  0  0  0999 V2000
   -0.6807   92.5446   10.8308 C   0  0  2  0  0  0  0  0  0  0  0  0
   -1.0880   92.8429    9.4845 O   0  0  0  0  0  0  0  0  0  0  0  0
   -0.1721   91.1027   10.7925 C   0  0  2  0  0  0  0  0  0  0  0  0
    0.8691   90.9977    9.7612 N   0  0  0  0  0  0  0  0  0  0  0  0
   -1.3281   90.1609   10.4461 C   0  0  1  0  0  0  0  0  0  0  0  0
   -0.8771   88.8041   10.4085 O   0  0  0  0  0  0  0  0  0  0  0  0
   -2.4434   90.3263   11.4788 C   0  0  2  0  0  0  0  0  0  0  0  0
   -3.5584   89.5193   11.1002 O   0  0  0  0  0  0  0  0  0  0  0  0
   -2.8950   91.7875   11.4864 C   0  0  2  0  0  0  0  0  0  0  0  0
   -1.7714   92.6357   11.7703 O   0  0  0  0  0  0  0  0  0  0  0  0
   -4.0057   91.9676   12.5246 C   0  0  0  0  0  0  0  0  0  0  0  0
   -5.2525   91.3288   12.0776 N   0  0  0  0  0  0  0  0  0  0  0  0
   -0.5547   96.4739    7.4406 C   0  0  2  0  0  0  0  0  0  0  0  0
   -0.5814   97.8364    6.8875 N   0  0  0  0  0  0  0  0  0  0  0  0
   -1.9173   95.7963    7.2830 C   0  0  0  0  0  0  0  0  0  0  0  0
   -1.7902   94.3437    7.7532 C   0  0  2  0  0  0  0  0  0  0  0  0
   -3.1089   93.6969    7.6932 N   0  0  0  0  0  0  0  0  0  0  0  0
   -1.2832   94.2383    9.1945 C   0  0  2  0  0  0  0  0  0  0  0  0
   -0.0517   95.0838    9.4994 C   0  0  2  0  0  0  0  0  0  0  0  0
    0.0210   95.1559   10.9325 O   0  0  0  0  0  0  0  0  0  0  0  0
   -0.1754   96.5006    8.9232 C   0  0  1  0  0  0  0  0  0  0  0  0
    1.0601   97.2101    9.0465 O   0  0  0  0  0  0  0  0  0  0  0  0
    1.1873   95.8037   11.4656 C   0  0  1  0  0  0  0  0  0  0  0  0
    1.0250   95.8695   12.9851 C   0  0  2  0  0  0  0  0  0  0  0  0
    0.2354   97.0086   13.3354 O   0  0  0  0  0  0  0  0  0  0  0  0
    2.4810   96.1220   13.3655 C   0  0  1  0  0  0  0  0  0  0  0  0
    3.1771   95.0999   12.4807 C   0  0  2  0  0  0  0  0  0  0  0  0
    2.4026   95.0534   11.2646 O   0  0  0  0  0  0  0  0  0  0  0  0
    3.1948   93.7453   13.1983 C   0  0  0  0  0  0  0  0  0  0  0  0
    1.8830   93.1754   13.2281 O   0  0  0  0  0  0  0  0  0  0  0  0
    3.6652   98.0401   14.0114 C   0  0  2  0  0  0  0  0  0  0  0  0
    2.8626   97.4512   12.9768 O   0  0  0  0  0  0  0  0  0  0  0  0
    3.8508   99.5342   13.7281 C   0  0  1  0  0  0  0  0  0  0  0  0
    7.7688   97.0514   13.9148 N   0  0  0  0  0  0  0  0  0  0  0  0
    4.7885  100.1624   14.7646 C   0  0  1  0  0  0  0  0  0  0  0  0
    4.1639  100.1812   16.0522 O   0  0  0  0  0  0  0  0  0  0  0  0
    6.0948   99.3665   14.8319 C   0  0  2  0  0  0  0  0  0  0  0  0
    6.7749   99.4997   13.5792 O   0  0  0  0  0  0  0  0  0  0  0  0
    5.7834   97.8914   15.1066 C   0  0  1  0  0  0  0  0  0  0  0  0
    4.9355   97.3677   14.0676 O   0  0  0  0  0  0  0  0  0  0  0  0
    7.0619   97.0545   15.2040 C   0  0  0  0  0  0  0  0  0  0  0  0
    4.4579   99.6902   12.3976 N   0  0  0  0  0  0  0  0  0  0  0  0
  1  2  1  6  0  0  0
  1  3  1  0  0  0  0
  1 10  1  0  0  0  0
  3  4  1  6  0  0  0
  3  5  1  0  0  0  0
  5  6  1  1  0  0  0
  5  7  1  0  0  0  0
  7  8  1  6  0  0  0
  7  9  1  0  0  0  0
  9 10  1  0  0  0  0
  9 11  1  1  0  0  0
 11 12  1  0  0  0  0
 13 14  1  1  0  0  0
 13 15  1  0  0  0  0
 13 21  1  0  0  0  0
 16 15  1  0  0  0  0
 16 17  1  1  0  0  0
 18  2  1  6  0  0  0
 18 16  1  0  0  0  0
 19 18  1  0  0  0  0
 19 20  1  1  0  0  0
 21 19  1  0  0  0  0
 21 22  1  6  0  0  0
 23 20  1  6  0  0  0
 23 24  1  0  0  0  0
 23 28  1  0  0  0  0
 24 25  1  6  0  0  0
 24 26  1  0  0  0  0
 26 27  1  0  0  0  0
 26 32  1  6  0  0  0
 27 28  1  0  0  0  0
 27 29  1  1  0  0  0
 29 30  1  0  0  0  0
 31 32  1  6  0  0  0
 31 40  1  0  0  0  0
 33 31  1  0  0  0  0
 33 42  1  6  0  0  0
 35 33  1  0  0  0  0
 35 36  1  1  0  0  0
 37 35  1  0  0  0  0
 37 38  1  6  0  0  0
 37 39  1  0  0  0  0
 39 40  1  0  0  0  0
 39 41  1  6  0  0  0
 41 34  1  0  0  0  0
M  END
>  <CHROM.1>
-164.80115390,-71.18538561,-176.67832497,174.25988771,175.85902887,138.85173086
71.62748652,-169.33002149,-64.13836747,1.10977625,95.12382279,11.65833537
-2.85070794,-0.76391371,-0.61440553

>  <Name>
2fcy_lig

>  <RI>
224

>  <Rbt.Current_Directory>
/home/itssahil/PROJECTS/Mol_Feturizer/New_Systems/rnas/2fcy

>  <Rbt.Executable>
rbdock ($Id: //depot/dev/client3/rdock/2013.1/src/exe/rbdock.cxx#4 $)

>  <Rbt.Library>
libRbt.so (2013.1, Build901 2013/11/27)

>  <Rbt.Parameter_File>
/export/apps/rDock/src/rDock_2013.1_src/data/scripts/dock_solv.prm

>  <Rbt.Receptor>
prm/pocket_docking_6.prm

>  <SCORE>
-11.9754

>  <SCORE.INTER>
-9.20118

>  <SCORE.INTER.CONST>
1

>  <SCORE.INTER.POLAR>
-1.70378

>  <SCORE.INTER.ROT>
9

>  <SCORE.INTER.SOLV>
14.6572

>  <SCORE.INTER.VDW>
-14.9406

>  <SCORE.INTER.norm>
-0.219076

>  <SCORE.INTRA>
-2.77418

>  <SCORE.INTRA.DIHEDRAL>
-8.75231

>  <SCORE.INTRA.DIHEDRAL.0>
17.3446

>  <SCORE.INTRA.POLAR>
0

>  <SCORE.INTRA.POLAR.0>
0

>  <SCORE.INTRA.REPUL>
0

>  <SCORE.INTRA.REPUL.0>
0

>  <SCORE.INTRA.SOLV>
-2.21351

>  <SCORE.INTRA.SOLV.lig_0>
-112.452

>  <SCORE.INTRA.VDW>
2.70873

>  <SCORE.INTRA.VDW.0>
-5.95059

>  <SCORE.INTRA.norm>
-0.0660519

>  <SCORE.RESTR>
0

>  <SCORE.RESTR.CAVITY>
0

>  <SCORE.RESTR.norm>
0

>  <SCORE.SYSTEM>
0

>  <SCORE.SYSTEM.CONST>
0

>  <SCORE.SYSTEM.DIHEDRAL>
0

>  <SCORE.SYSTEM.SOLV>
0

>  <SCORE.SYSTEM.norm>
0

>  <SCORE.heavy>
42

>  <SCORE.norm>
-0.285128

>  <RMSD>
9.001

$$$$
2fcy_lig
 OpenBabel11021811433D
libRbt.so/2013.1/901 2013/11/27
 42 45  0  0  0  0  0  0  0  0999 V2000
   -2.2131   93.2129    7.8142 C   0  0  2  0  0  0  0  0  0  0  0  0
   -1.1502   94.1543    7.5876 O   0  0  0  0  0  0  0  0  0  0  0  0
   -2.2928   92.3735    6.5382 C   0  0  2  0  0  0  0  0  0  0  0  0
   -0.9667   91.8020    6.2668 N   0  0  0  0  0  0  0  0  0  0  0  0
   -2.7132   93.2629    5.3654 C   0  0  1  0  0  0  0  0  0  0  0  0
   -2.7988   92.4981    4.1599 O   0  0  0  0  0  0  0  0  0  0  0  0
   -4.0588   93.9165    5.6819 C   0  0  2  0  0  0  0  0  0  0  0  0
   -4.4021   94.8191    4.6307 O   0  0  0  0  0  0  0  0  0  0  0  0
   -3.9232   94.7221    6.9749 C   0  0  2  0  0  0  0  0  0  0  0  0
   -3.4841   93.8583    8.0348 O   0  0  0  0  0  0  0  0  0  0  0  0
   -5.2680   95.3735    7.3076 C   0  0  0  0  0  0  0  0  0  0  0  0
   -5.1712   96.1862    8.5294 N   0  0  0  0  0  0  0  0  0  0  0  0
    1.5520   96.0319   10.1989 C   0  0  2  0  0  0  0  0  0  0  0  0
    2.2647   96.7877   11.2400 N   0  0  0  0  0  0  0  0  0  0  0  0
    0.6310   96.9509    9.3940 C   0  0  0  0  0  0  0  0  0  0  0  0
    0.0215   96.1379    8.2474 C   0  0  2  0  0  0  0  0  0  0  0  0
   -0.9351   96.9775    7.5119 N   0  0  0  0  0  0  0  0  0  0  0  0
   -0.7296   94.8991    8.7442 C   0  0  2  0  0  0  0  0  0  0  0  0
    0.0403   94.0481    9.7480 C   0  0  2  0  0  0  0  0  0  0  0  0
   -0.9407   93.1999   10.3663 O   0  0  0  0  0  0  0  0  0  0  0  0
    0.7206   94.9077   10.8217 C   0  0  1  0  0  0  0  0  0  0  0  0
    1.5928   94.1149   11.6315 O   0  0  0  0  0  0  0  0  0  0  0  0
   -0.4206   92.1298   11.1717 C   0  0  1  0  0  0  0  0  0  0  0  0
   -1.4169   91.8782   12.3047 C   0  0  2  0  0  0  0  0  0  0  0  0
   -1.1728   92.7970   13.3724 O   0  0  0  0  0  0  0  0  0  0  0  0
   -0.9556   90.4834   12.7169 C   0  0  1  0  0  0  0  0  0  0  0  0
   -0.8111   89.8277   11.3526 C   0  0  2  0  0  0  0  0  0  0  0  0
   -0.3437   90.8706   10.4725 O   0  0  0  0  0  0  0  0  0  0  0  0
   -2.1735   89.2785   10.9138 C   0  0  0  0  0  0  0  0  0  0  0  0
   -3.0849   90.3488   10.6488 O   0  0  0  0  0  0  0  0  0  0  0  0
    0.1964   90.1578   14.7333 C   0  0  2  0  0  0  0  0  0  0  0  0
    0.3251   90.5648   13.3624 O   0  0  0  0  0  0  0  0  0  0  0  0
   -0.2051   91.3628   15.5900 C   0  0  1  0  0  0  0  0  0  0  0  0
    2.6281   87.9716   18.3147 N   0  0  0  0  0  0  0  0  0  0  0  0
   -0.2491   90.9743   17.0717 C   0  0  1  0  0  0  0  0  0  0  0  0
   -1.3282   90.0662   17.3149 O   0  0  0  0  0  0  0  0  0  0  0  0
    1.0774   90.3261   17.4775 C   0  0  2  0  0  0  0  0  0  0  0  0
    2.1143   91.3080   17.3763 O   0  0  0  0  0  0  0  0  0  0  0  0
    1.3780   89.1464   16.5469 C   0  0  1  0  0  0  0  0  0  0  0  0
    1.4448   89.6027   15.1830 O   0  0  0  0  0  0  0  0  0  0  0  0
    2.6879   88.4498   16.9255 C   0  0  0  0  0  0  0  0  0  0  0  0
    0.8016   92.4209   15.4169 N   0  0  0  0  0  0  0  0  0  0  0  0
  1  2  1  6  0  0  0
  1  3  1  0  0  0  0
  1 10  1  0  0  0  0
  3  4  1  6  0  0  0
  3  5  1  0  0  0  0
  5  6  1  6  0  0  0
  5  7  1  0  0  0  0
  7  8  1  6  0  0  0
  7  9  1  0  0  0  0
  9 10  1  0  0  0  0
  9 11  1  1  0  0  0
 11 12  1  0  0  0  0
 13 14  1  1  0  0  0
 13 15  1  0  0  0  0
 13 21  1  0  0  0  0
 16 15  1  0  0  0  0
 16 17  1  1  0  0  0
 18  2  1  6  0  0  0
 18 16  1  0  0  0  0
 19 18  1  0  0  0  0
 19 20  1  1  0  0  0
 21 19  1  0  0  0  0
 21 22  1  6  0  0  0
 23 20  1  6  0  0  0
 23 24  1  0  0  0  0
 23 28  1  0  0  0  0
 24 25  1  1  0  0  0
 24 26  1  0  0  0  0
 26 27  1  0  0  0  0
 26 32  1  6  0  0  0
 27 28  1  0  0  0  0
 27 29  1  6  0  0  0
 29 30  1  0  0  0  0
 31 32  1  6  0  0  0
 31 40  1  0  0  0  0
 33 31  1  0  0  0  0
 33 42  1  1  0  0  0
 35 33  1  0  0  0  0
 35 36  1  6  0  0  0
 37 35  1  0  0  0  0
 37 38  1  6  0  0  0
 37 39  1  0  0  0  0
 39 40  1  0  0  0  0
 39 41  1  1  0  0  0
 41 34  1  0  0  0  0
M  END
>  <CHROM.1>
-169.39644085,-178.60609756,-160.90090407,168.72764257,148.15460793,115.15059607
67.98564960,-86.82836045,58.24663876,-0.81294700,92.60412278,11.07569056
2.10809266,-0.86955386,-0.71354889

>  <Name>
2fcy_lig

>  <RI>
1.56845e+07

>  <Rbt.Current_Directory>
/home/itssahil/PROJECTS/Mol_Feturizer/New_Systems/rnas/2fcy

>  <Rbt.Executable>
rbdock ($Id: //depot/dev/client3/rdock/2013.1/src/exe/rbdock.cxx#4 $)

>  <Rbt.Library>
libRbt.so (2013.1, Build901 2013/11/27)

>  <Rbt.Parameter_File>
/export/apps/rDock/src/rDock_2013.1_src/data/scripts/dock_solv.prm

>  <Rbt.Receptor>
prm/pocket_docking_4.prm

>  <SCORE>
-15.6711

>  <SCORE.INTER>
-15.8459

>  <SCORE.INTER.CONST>
1

>  <SCORE.INTER.POLAR>
-1.60285

>  <SCORE.INTER.ROT>
9

>  <SCORE.INTER.SOLV>
12.0549

>  <SCORE.INTER.VDW>
-18.8394

>  <SCORE.INTER.norm>
-0.377284

>  <SCORE.INTRA>
0.17482

>  <SCORE.INTRA.DIHEDRAL>
-0.458754

>  <SCORE.INTRA.DIHEDRAL.0>
17.3446

>  <SCORE.INTRA.POLAR>
0

>  <SCORE.INTRA.POLAR.0>
0

>  <SCORE.INTRA.REPUL>
0.0116394

>  <SCORE.INTRA.REPUL.0>
0

>  <SCORE.INTRA.SOLV>
-2.59796

>  <SCORE.INTRA.SOLV.lig_0>
-112.452

>  <SCORE.INTRA.VDW>
1.64498

>  <SCORE.INTRA.VDW.0>
-5.95059

>  <SCORE.INTRA.norm>
0.00416238

>  <SCORE.RESTR>
0

>  <SCORE.RESTR.CAVITY>
0

>  <SCORE.RESTR.norm>
0

>  <SCORE.SYSTEM>
0

>  <SCORE.SYSTEM.CONST>
0

>  <SCORE.SYSTEM.DIHEDRAL>
0

>  <SCORE.SYSTEM.SOLV>
0

>  <SCORE.SYSTEM.norm>
0

>  <SCORE.heavy>
42

>  <SCORE.norm>
-0.373122

>  <RMSD>
9.015

$$$$
2fcy_lig
 OpenBabel11021811433D
libRbt.so/2013.1/901 2013/11/27
 42 45  0  0  0  0  0  0  0  0999 V2000
   -0.3097   91.2203   10.0072 C   0  0  2  0  0  0  0  0  0  0  0  0
    0.6870   92.2320    9.7834 O   0  0  0  0  0  0  0  0  0  0  0  0
    0.1622   90.0011    9.2134 C   0  0  2  0  0  0  0  0  0  0  0  0
    1.5307   89.6675    9.6315 N   0  0  0  0  0  0  0  0  0  0  0  0
    0.1525   90.3283    7.7181 C   0  0  1  0  0  0  0  0  0  0  0  0
    0.5866   89.2001    6.9537 O   0  0  0  0  0  0  0  0  0  0  0  0
   -1.2571   90.7481    7.3002 C   0  0  2  0  0  0  0  0  0  0  0  0
   -1.2426   91.1452    5.9292 O   0  0  0  0  0  0  0  0  0  0  0  0
   -1.6813   91.9540    8.1399 C   0  0  2  0  0  0  0  0  0  0  0  0
   -1.6136   91.6158    9.5340 O   0  0  0  0  0  0  0  0  0  0  0  0
   -3.0962   92.3775    7.7371 C   0  0  0  0  0  0  0  0  0  0  0  0
   -3.5012   93.6008    8.4457 N   0  0  0  0  0  0  0  0  0  0  0  0
    1.4042   96.0147   11.4638 C   0  0  2  0  0  0  0  0  0  0  0  0
    1.3834   97.3881   11.9894 N   0  0  0  0  0  0  0  0  0  0  0  0
    0.9916   95.9899    9.9907 C   0  0  0  0  0  0  0  0  0  0  0  0
    1.1603   94.5599    9.4673 C   0  0  2  0  0  0  0  0  0  0  0  0
    0.6868   94.4929    8.0772 N   0  0  0  0  0  0  0  0  0  0  0  0
    0.3598   93.5407   10.2833 C   0  0  2  0  0  0  0  0  0  0  0  0
    0.5332   93.6574   11.7935 C   0  0  2  0  0  0  0  0  0  0  0  0
   -0.5563   92.9152   12.3648 O   0  0  0  0  0  0  0  0  0  0  0  0
    0.4596   95.1157   12.2653 C   0  0  1  0  0  0  0  0  0  0  0  0
    0.8186   95.2232   13.6454 O   0  0  0  0  0  0  0  0  0  0  0  0
   -0.1966   91.9569   13.3730 C   0  0  1  0  0  0  0  0  0  0  0  0
    0.3320   92.7330   14.5804 C   0  0  2  0  0  0  0  0  0  0  0  0
    1.7140   93.0427   14.3853 O   0  0  0  0  0  0  0  0  0  0  0  0
    0.1985   91.6410   15.6377 C   0  0  1  0  0  0  0  0  0  0  0  0
   -1.1941   91.1198   15.3196 C   0  0  2  0  0  0  0  0  0  0  0  0
   -1.3216   91.2141   13.8858 O   0  0  0  0  0  0  0  0  0  0  0  0
   -2.2310   91.9867   16.0431 C   0  0  0  0  0  0  0  0  0  0  0  0
   -3.5519   91.4891   15.8108 O   0  0  0  0  0  0  0  0  0  0  0  0
    1.9327   90.3912   16.6016 C   0  0  2  0  0  0  0  0  0  0  0  0
    1.1745   90.6135   15.4028 O   0  0  0  0  0  0  0  0  0  0  0  0
    3.0326   89.3603   16.3285 C   0  0  1  0  0  0  0  0  0  0  0  0
    1.3821   89.4297   21.3060 N   0  0  0  0  0  0  0  0  0  0  0  0
    3.7897   89.0316   17.6197 C   0  0  1  0  0  0  0  0  0  0  0  0
    4.5483   90.1655   18.0526 O   0  0  0  0  0  0  0  0  0  0  0  0
    2.7984   88.6215   18.7122 C   0  0  2  0  0  0  0  0  0  0  0  0
    2.1708   87.3956   18.3213 O   0  0  0  0  0  0  0  0  0  0  0  0
    1.7438   89.7195   18.8867 C   0  0  1  0  0  0  0  0  0  0  0  0
    1.0512   89.9361   17.6432 O   0  0  0  0  0  0  0  0  0  0  0  0
    0.7383   89.3652   19.9857 C   0  0  0  0  0  0  0  0  0  0  0  0
    2.4085   88.1257   15.8290 N   0  0  0  0  0  0  0  0  0  0  0  0
  1  2  1  6  0  0  0
  1  3  1  0  0  0  0
  1 10  1  0  0  0  0
  3  4  1  1  0  0  0
  3  5  1  0  0  0  0
  5  6  1  6  0  0  0
  5  7  1  0  0  0  0
  7  8  1  6  0  0  0
  7  9  1  0  0  0  0
  9 10  1  0  0  0  0
  9 11  1  6  0  0  0
 11 12  1  0  0  0  0
 13 14  1  1  0  0  0
 13 15  1  0  0  0  0
 13 21  1  0  0  0  0
 16 15  1  0  0  0  0
 16 17  1  6  0  0  0
 18  2  1  6  0  0  0
 18 16  1  0  0  0  0
 19 18  1  0  0  0  0
 19 20  1  1  0  0  0
 21 19  1  0  0  0  0
 21 22  1  1  0  0  0
 23 20  1  6  0  0  0
 23 24  1  0  0  0  0
 23 28  1  0  0  0  0
 24 25  1  6  0  0  0
 24 26  1  0  0  0  0
 26 27  1  0  0  0  0
 26 32  1  6  0  0  0
 27 28  1  0  0  0  0
 27 29  1  1  0  0  0
 29 30  1  0  0  0  0
 31 32  1  6  0  0  0
 31 40  1  0  0  0  0
 33 31  1  0  0  0  0
 33 42  1  1  0  0  0
 35 33  1  0  0  0  0
 35 36  1  1  0  0  0
 37 35  1  0  0  0  0
 37 38  1  6  0  0  0
 37 39  1  0  0  0  0
 39 40  1  0  0  0  0
 39 41  1  1  0  0  0
 41 34  1  0  0  0  0
M  END
>  <CHROM.1>
171.58966378,-175.46515992,-155.57808883,129.84705219,66.58731877,126.71190273
-177.55869136,-176.40934634,70.21640647,0.42013843,91.65604373,13.00021559
3.04997294,-1.33949718,0.20438905

>  <Name>
2fcy_lig

>  <RI>
4.13508e+07

>  <Rbt.Current_Directory>
/home/itssahil/PROJECTS/Mol_Feturizer/New_Systems/rnas/2fcy

>  <Rbt.Executable>
rbdock ($Id: //depot/dev/client3/rdock/2013.1/src/exe/rbdock.cxx#4 $)

>  <Rbt.Library>
libRbt.so (2013.1, Build901 2013/11/27)

>  <Rbt.Parameter_File>
/export/apps/rDock/src/rDock_2013.1_src/data/scripts/dock_solv.prm

>  <Rbt.Receptor>
prm/pocket_docking_3.prm

>  <SCORE>
-7.09286

>  <SCORE.INTER>
-8.91172

>  <SCORE.INTER.CONST>
1

>  <SCORE.INTER.POLAR>
-1.55153

>  <SCORE.INTER.ROT>
9

>  <SCORE.INTER.SOLV>
21.0939

>  <SCORE.INTER.VDW>
-17.4007

>  <SCORE.INTER.norm>
-0.212184

>  <SCORE.INTRA>
0.644867

>  <SCORE.INTRA.DIHEDRAL>
-0.132636

>  <SCORE.INTRA.DIHEDRAL.0>
17.3446

>  <SCORE.INTRA.POLAR>
0

>  <SCORE.INTRA.POLAR.0>
0

>  <SCORE.INTRA.REPUL>
0.000246267

>  <SCORE.INTRA.REPUL.0>
0

>  <SCORE.INTRA.SOLV>
-3.70206

>  <SCORE.INTRA.SOLV.lig_0>
-112.452

>  <SCORE.INTRA.VDW>
2.56099

>  <SCORE.INTRA.VDW.0>
-5.95059

>  <SCORE.INTRA.norm>
0.015354

>  <SCORE.RESTR>
1.17399

>  <SCORE.RESTR.CAVITY>
1.17399

>  <SCORE.RESTR.norm>
0.0279521

>  <SCORE.SYSTEM>
0

>  <SCORE.SYSTEM.CONST>
0

>  <SCORE.SYSTEM.DIHEDRAL>
0

>  <SCORE.SYSTEM.SOLV>
0

>  <SCORE.SYSTEM.norm>
0

>  <SCORE.heavy>
42

>  <SCORE.norm>
-0.168878

>  <RMSD>
9.028

$$$$
2fcy_lig
 OpenBabel11021811433D
libRbt.so/2013.1/901 2013/11/27
 42 45  0  0  0  0  0  0  0  0999 V2000
    6.3000   98.3191   11.9055 C   0  0  2  0  0  0  0  0  0  0  0  0
    5.6101   97.1370   11.4652 O   0  0  0  0  0  0  0  0  0  0  0  0
    7.6182   98.3339   11.1302 C   0  0  2  0  0  0  0  0  0  0  0  0
    7.3209   98.2533    9.6936 N   0  0  0  0  0  0  0  0  0  0  0  0
    8.4683   97.1293   11.5421 C   0  0  1  0  0  0  0  0  0  0  0  0
    9.7100   97.1239   10.8323 O   0  0  0  0  0  0  0  0  0  0  0  0
    8.7137   97.1743   13.0507 C   0  0  2  0  0  0  0  0  0  0  0  0
    9.4234   96.0008   13.4469 O   0  0  0  0  0  0  0  0  0  0  0  0
    7.3637   97.1788   13.7695 C   0  0  2  0  0  0  0  0  0  0  0  0
    6.5841   98.2978   13.3195 O   0  0  0  0  0  0  0  0  0  0  0  0
    7.5967   97.2339   15.2816 C   0  0  0  0  0  0  0  0  0  0  0  0
    6.6219   98.1220   15.9323 N   0  0  0  0  0  0  0  0  0  0  0  0
    1.7410   98.7176   11.8881 C   0  0  2  0  0  0  0  0  0  0  0  0
    0.3072   98.9995   12.0540 N   0  0  0  0  0  0  0  0  0  0  0  0
    1.9815   97.8184   10.6739 C   0  0  0  0  0  0  0  0  0  0  0  0
    3.4935   97.6704   10.4760 C   0  0  2  0  0  0  0  0  0  0  0  0
    3.7491   96.7395    9.3673 N   0  0  0  0  0  0  0  0  0  0  0  0
    4.1945   97.1184   11.7207 C   0  0  2  0  0  0  0  0  0  0  0  0
    3.8194   97.8150   13.0239 C   0  0  2  0  0  0  0  0  0  0  0  0
    4.2526   96.9321   14.0713 O   0  0  0  0  0  0  0  0  0  0  0  0
    2.3052   98.0363   13.1373 C   0  0  1  0  0  0  0  0  0  0  0  0
    1.9939   98.8603   14.2639 O   0  0  0  0  0  0  0  0  0  0  0  0
    3.2604   96.0187   14.5667 C   0  0  1  0  0  0  0  0  0  0  0  0
    3.9924   94.9006   15.3106 C   0  0  2  0  0  0  0  0  0  0  0  0
    4.4337   93.9112   14.3779 O   0  0  0  0  0  0  0  0  0  0  0  0
    2.8211   94.3518   16.1201 C   0  0  1  0  0  0  0  0  0  0  0  0
    2.2048   95.6473   16.6241 C   0  0  2  0  0  0  0  0  0  0  0  0
    2.3885   96.6008   15.5574 O   0  0  0  0  0  0  0  0  0  0  0  0
    2.9254   96.0793   17.9064 C   0  0  0  0  0  0  0  0  0  0  0  0
    4.0522   96.9042   17.5958 O   0  0  0  0  0  0  0  0  0  0  0  0
    1.4274   92.4803   15.8883 C   0  0  2  0  0  0  0  0  0  0  0  0
    1.9013   93.6751   15.2486 O   0  0  0  0  0  0  0  0  0  0  0  0
    2.3108   91.2965   15.4816 C   0  0  1  0  0  0  0  0  0  0  0  0
   -2.2288   91.3857   14.4234 N   0  0  0  0  0  0  0  0  0  0  0  0
    1.7626   89.9928   16.0718 C   0  0  1  0  0  0  0  0  0  0  0  0
    1.9066   89.9935   17.4957 O   0  0  0  0  0  0  0  0  0  0  0  0
    0.2861   89.8351   15.6985 C   0  0  2  0  0  0  0  0  0  0  0  0
    0.1892   89.6759   14.2791 O   0  0  0  0  0  0  0  0  0  0  0  0
   -0.4911   91.0791   16.1421 C   0  0  1  0  0  0  0  0  0  0  0  0
    0.0583   92.2510   15.5115 O   0  0  0  0  0  0  0  0  0  0  0  0
   -1.9809   90.9610   15.8090 C   0  0  0  0  0  0  0  0  0  0  0  0
    2.3013   91.1826   14.0153 N   0  0  0  0  0  0  0  0  0  0  0  0
  1  2  1  6  0  0  0
  1  3  1  0  0  0  0
  1 10  1  0  0  0  0
  3  4  1  6  0  0  0
  3  5  1  0  0  0  0
  5  6  1  6  0  0  0
  5  7  1  0  0  0  0
  7  8  1  1  0  0  0
  7  9  1  0  0  0  0
  9 10  1  0  0  0  0
  9 11  1  1  0  0  0
 11 12  1  0  0  0  0
 13 14  1  1  0  0  0
 13 15  1  0  0  0  0
 13 21  1  0  0  0  0
 16 15  1  0  0  0  0
 16 17  1  6  0  0  0
 18  2  1  6  0  0  0
 18 16  1  0  0  0  0
 19 18  1  0  0  0  0
 19 20  1  1  0  0  0
 21 19  1  0  0  0  0
 21 22  1  1  0  0  0
 23 20  1  1  0  0  0
 23 24  1  0  0  0  0
 23 28  1  0  0  0  0
 24 25  1  6  0  0  0
 24 26  1  0  0  0  0
 26 27  1  0  0  0  0
 26 32  1  6  0  0  0
 27 28  1  0  0  0  0
 27 29  1  1  0  0  0
 29 30  1  0  0  0  0
 31 32  1  6  0  0  0
 31 40  1  0  0  0  0
 33 31  1  0  0  0  0
 33 42  1  6  0  0  0
 35 33  1  0  0  0  0
 35 36  1  1  0  0  0
 37 35  1  0  0  0  0
 37 38  1  6  0  0  0
 37 39  1  0  0  0  0
 39 40  1  0  0  0  0
 39 41  1  6  0  0  0
 41 34  1  0  0  0  0
M  END
>  <CHROM.1>
-161.14853726,140.15814389,92.86561548,-93.82477425,162.04522479,139.65396348
89.04901437,-92.86446681,-84.71636377,3.64871165,95.39991607,13.97942921
0.85637240,-0.14362649,-0.63595432

>  <Name>
2fcy_lig

>  <RI>
9.29634e+06

>  <Rbt.Current_Directory>
/home/itssahil/PROJECTS/Mol_Feturizer/New_Systems/rnas/2fcy

>  <Rbt.Executable>
rbdock ($Id: //depot/dev/client3/rdock/2013.1/src/exe/rbdock.cxx#4 $)

>  <Rbt.Library>
libRbt.so (2013.1, Build901 2013/11/27)

>  <Rbt.Parameter_File>
/export/apps/rDock/src/rDock_2013.1_src/data/scripts/dock_solv.prm

>  <Rbt.Receptor>
prm/blind_docking_100.prm

>  <SCORE>
1.07196

>  <SCORE.INTER>
-12.9096

>  <SCORE.INTER.CONST>
1

>  <SCORE.INTER.POLAR>
-1.6509

>  <SCORE.INTER.ROT>
9

>  <SCORE.INTER.SOLV>
32.8521

>  <SCORE.INTER.VDW>
-23.6541

>  <SCORE.INTER.norm>
-0.30737

>  <SCORE.INTRA>
11.4201

>  <SCORE.INTRA.DIHEDRAL>
11.995

>  <SCORE.INTRA.DIHEDRAL.0>
17.3446

>  <SCORE.INTRA.POLAR>
0

>  <SCORE.INTRA.POLAR.0>
0

>  <SCORE.INTRA.REPUL>
0.0382776

>  <SCORE.INTRA.REPUL.0>
0

>  <SCORE.INTRA.SOLV>
1.00427

>  <SCORE.INTRA.SOLV.lig_0>
-112.452

>  <SCORE.INTRA.VDW>
4.72907

>  <SCORE.INTRA.VDW.0>
-5.95059

>  <SCORE.INTRA.norm>
0.271907

>  <SCORE.RESTR>
2.56143

>  <SCORE.RESTR.CAVITY>
2.56143

>  <SCORE.RESTR.norm>
0.0609864

>  <SCORE.SYSTEM>
0

>  <SCORE.SYSTEM.CONST>
0

>  <SCORE.SYSTEM.DIHEDRAL>
0

>  <SCORE.SYSTEM.SOLV>
0

>  <SCORE.SYSTEM.norm>
0

>  <SCORE.heavy>
42

>  <SCORE.norm>
0.0255228

>  <RMSD>
9.048

$$$$
2fcy_lig
 OpenBabel11021811433D
libRbt.so/2013.1/901 2013/11/27
 42 45  0  0  0  0  0  0  0  0999 V2000
   -3.9855   91.6929    8.3430 C   0  0  2  0  0  0  0  0  0  0  0  0
   -3.4137   92.6354    7.4200 O   0  0  0  0  0  0  0  0  0  0  0  0
   -4.5780   90.5814    7.4754 C   0  0  2  0  0  0  0  0  0  0  0  0
   -3.5266   90.0649    6.5885 N   0  0  0  0  0  0  0  0  0  0  0  0
   -5.7235   91.1460    6.6314 C   0  0  1  0  0  0  0  0  0  0  0  0
   -6.2972   90.1225    5.8135 O   0  0  0  0  0  0  0  0  0  0  0  0
   -6.7823   91.7509    7.5539 C   0  0  2  0  0  0  0  0  0  0  0  0
   -7.8015   92.3619    6.7630 O   0  0  0  0  0  0  0  0  0  0  0  0
   -6.1282   92.8377    8.4085 C   0  0  2  0  0  0  0  0  0  0  0  0
   -5.0330   92.2736    9.1466 O   0  0  0  0  0  0  0  0  0  0  0  0
   -7.1772   93.4443    9.3441 C   0  0  0  0  0  0  0  0  0  0  0  0
   -7.5761   92.4819   10.3820 N   0  0  0  0  0  0  0  0  0  0  0  0
   -0.2063   95.2551    8.1245 C   0  0  2  0  0  0  0  0  0  0  0  0
    0.7279   96.3185    8.5238 N   0  0  0  0  0  0  0  0  0  0  0  0
   -1.4184   95.8409    7.3975 C   0  0  0  0  0  0  0  0  0  0  0  0
   -2.2837   94.6818    6.8926 C   0  0  2  0  0  0  0  0  0  0  0  0
   -3.4996   95.2208    6.2665 N   0  0  0  0  0  0  0  0  0  0  0  0
   -2.7167   93.7411    8.0208 C   0  0  2  0  0  0  0  0  0  0  0  0
   -1.5899   93.2972    8.9470 C   0  0  2  0  0  0  0  0  0  0  0  0
   -2.2373   92.7718   10.1170 O   0  0  0  0  0  0  0  0  0  0  0  0
   -0.6854   94.4701    9.3481 C   0  0  1  0  0  0  0  0  0  0  0  0
    0.4704   94.0050   10.0502 O   0  0  0  0  0  0  0  0  0  0  0  0
   -1.4304   91.9200   10.9463 C   0  0  1  0  0  0  0  0  0  0  0  0
   -2.2781   91.5124   12.1525 C   0  0  2  0  0  0  0  0  0  0  0  0
   -2.2189   92.5351   13.1495 O   0  0  0  0  0  0  0  0  0  0  0  0
   -1.4664   90.3047   12.6119 C   0  0  1  0  0  0  0  0  0  0  0  0
   -1.2290   89.6107   11.2799 C   0  0  2  0  0  0  0  0  0  0  0  0
   -1.0772   90.6722   10.3151 O   0  0  0  0  0  0  0  0  0  0  0  0
   -2.4320   88.7161   10.9597 C   0  0  0  0  0  0  0  0  0  0  0  0
   -3.6018   89.5084   10.7354 O   0  0  0  0  0  0  0  0  0  0  0  0
   -0.1337   90.3258   14.5412 C   0  0  2  0  0  0  0  0  0  0  0  0
   -0.2166   90.7414   13.1693 O   0  0  0  0  0  0  0  0  0  0  0  0
   -0.6271   91.4564   15.4498 C   0  0  1  0  0  0  0  0  0  0  0  0
    2.9490   88.4655   17.7834 N   0  0  0  0  0  0  0  0  0  0  0  0
   -0.4522   91.0729   16.9232 C   0  0  1  0  0  0  0  0  0  0  0  0
   -1.3428   90.0069   17.2677 O   0  0  0  0  0  0  0  0  0  0  0  0
    0.9953   90.6444   17.1792 C   0  0  2  0  0  0  0  0  0  0  0  0
    1.8479   91.7773   16.9812 O   0  0  0  0  0  0  0  0  0  0  0  0
    1.3779   89.5226   16.2080 C   0  0  1  0  0  0  0  0  0  0  0  0
    1.2271   89.9771   14.8502 O   0  0  0  0  0  0  0  0  0  0  0  0
    2.8138   89.0435   16.4383 C   0  0  0  0  0  0  0  0  0  0  0  0
    0.1762   92.6594   15.1844 N   0  0  0  0  0  0  0  0  0  0  0  0
  1  2  1  6  0  0  0
  1  3  1  0  0  0  0
  1 10  1  0  0  0  0
  3  4  1  6  0  0  0
  3  5  1  0  0  0  0
  5  6  1  1  0  0  0
  5  7  1  0  0  0  0
  7  8  1  6  0  0  0
  7  9  1  0  0  0  0
  9 10  1  0  0  0  0
  9 11  1  1  0  0  0
 11 12  1  0  0  0  0
 13 14  1  1  0  0  0
 13 15  1  0  0  0  0
 13 21  1  0  0  0  0
 16 15  1  0  0  0  0
 16 17  1  1  0  0  0
 18  2  1  6  0  0  0
 18 16  1  0  0  0  0
 19 18  1  0  0  0  0
 19 20  1  1  0  0  0
 21 19  1  0  0  0  0
 21 22  1  6  0  0  0
 23 20  1  6  0  0  0
 23 24  1  0  0  0  0
 23 28  1  0  0  0  0
 24 25  1  1  0  0  0
 24 26  1  0  0  0  0
 26 27  1  0  0  0  0
 26 32  1  6  0  0  0
 27 28  1  0  0  0  0
 27 29  1  6  0  0  0
 29 30  1  0  0  0  0
 31 32  1  6  0  0  0
 31 40  1  0  0  0  0
 33 31  1  0  0  0  0
 33 42  1  6  0  0  0
 35 33  1  0  0  0  0
 35 36  1  6  0  0  0
 37 35  1  0  0  0  0
 37 38  1  6  0  0  0
 37 39  1  0  0  0  0
 39 40  1  0  0  0  0
 39 41  1  1  0  0  0
 41 34  1  0  0  0  0
M  END
>  <CHROM.1>
-176.29686115,69.77761203,-175.51329725,161.25723845,177.94251256,119.33095814
66.14241155,-94.06104662,62.94328791,-2.11692604,91.82782846,11.00512858
2.25062669,-0.54431468,-0.90963040

>  <Name>
2fcy_lig

>  <RI>
4.13508e+07

>  <Rbt.Current_Directory>
/home/itssahil/PROJECTS/Mol_Feturizer/New_Systems/rnas/2fcy

>  <Rbt.Executable>
rbdock ($Id: //depot/dev/client3/rdock/2013.1/src/exe/rbdock.cxx#4 $)

>  <Rbt.Library>
libRbt.so (2013.1, Build901 2013/11/27)

>  <Rbt.Parameter_File>
/export/apps/rDock/src/rDock_2013.1_src/data/scripts/dock_solv.prm

>  <Rbt.Receptor>
prm/pocket_docking_3.prm

>  <SCORE>
-15.7644

>  <SCORE.INTER>
-14.9734

>  <SCORE.INTER.CONST>
1

>  <SCORE.INTER.POLAR>
-1.89267

>  <SCORE.INTER.ROT>
9

>  <SCORE.INTER.SOLV>
15.9054

>  <SCORE.INTER.VDW>
-18.5751

>  <SCORE.INTER.norm>
-0.356509

>  <SCORE.INTRA>
-1.35788

>  <SCORE.INTRA.DIHEDRAL>
-3.54314

>  <SCORE.INTRA.DIHEDRAL.0>
17.3446

>  <SCORE.INTRA.POLAR>
0

>  <SCORE.INTRA.POLAR.0>
0

>  <SCORE.INTRA.REPUL>
0

>  <SCORE.INTRA.REPUL.0>
0

>  <SCORE.INTRA.SOLV>
-2.1627

>  <SCORE.INTRA.SOLV.lig_0>
-112.452

>  <SCORE.INTRA.VDW>
1.49504

>  <SCORE.INTRA.VDW.0>
-5.95059

>  <SCORE.INTRA.norm>
-0.0323305

>  <SCORE.RESTR>
0.566825

>  <SCORE.RESTR.CAVITY>
0.566825

>  <SCORE.RESTR.norm>
0.0134958

>  <SCORE.SYSTEM>
0

>  <SCORE.SYSTEM.CONST>
0

>  <SCORE.SYSTEM.DIHEDRAL>
0

>  <SCORE.SYSTEM.SOLV>
0

>  <SCORE.SYSTEM.norm>
0

>  <SCORE.heavy>
42

>  <SCORE.norm>
-0.375343

>  <RMSD>
9.048

$$$$
2fcy_lig
 OpenBabel11021811433D
libRbt.so/2013.1/901 2013/11/27
 42 45  0  0  0  0  0  0  0  0999 V2000
    6.8386   96.6433   14.3272 C   0  0  2  0  0  0  0  0  0  0  0  0
    5.9268   97.4487   13.5608 O   0  0  0  0  0  0  0  0  0  0  0  0
    7.3805   97.5679   15.4183 C   0  0  2  0  0  0  0  0  0  0  0  0
    6.2465   98.1431   16.1545 N   0  0  0  0  0  0  0  0  0  0  0  0
    8.1949   98.6944   14.7771 C   0  0  1  0  0  0  0  0  0  0  0  0
    8.7165   99.5711   15.7797 O   0  0  0  0  0  0  0  0  0  0  0  0
    9.3303   98.0913   13.9496 C   0  0  2  0  0  0  0  0  0  0  0  0
   10.0285   99.1381   13.2756 O   0  0  0  0  0  0  0  0  0  0  0  0
    8.7302   97.1629   12.8926 C   0  0  2  0  0  0  0  0  0  0  0  0
    7.9394   96.1512   13.5357 O   0  0  0  0  0  0  0  0  0  0  0  0
    9.8590   96.5448   12.0636 C   0  0  0  0  0  0  0  0  0  0  0  0
   10.3495   97.4934   11.0525 N   0  0  0  0  0  0  0  0  0  0  0  0
    3.1385   96.6823   10.5138 C   0  0  2  0  0  0  0  0  0  0  0  0
    2.3709   96.2601    9.3325 N   0  0  0  0  0  0  0  0  0  0  0  0
    4.4206   97.4068   10.0987 C   0  0  0  0  0  0  0  0  0  0  0  0
    5.1057   97.9358   11.3628 C   0  0  2  0  0  0  0  0  0  0  0  0
    6.3851   98.5602   10.9963 N   0  0  0  0  0  0  0  0  0  0  0  0
    5.4008   96.8257   12.3757 C   0  0  2  0  0  0  0  0  0  0  0  0
    4.2245   95.9002   12.6662 C   0  0  2  0  0  0  0  0  0  0  0  0
    4.7924   94.7428   13.3004 O   0  0  0  0  0  0  0  0  0  0  0  0
    3.5023   95.4746   11.3810 C   0  0  1  0  0  0  0  0  0  0  0  0
    2.2935   94.7734   11.6845 O   0  0  0  0  0  0  0  0  0  0  0  0
    3.9571   94.0908   14.2706 C   0  0  1  0  0  0  0  0  0  0  0  0
    2.7261   94.9726   14.4872 C   0  0  2  0  0  0  0  0  0  0  0  0
    3.0289   95.9955   15.4390 O   0  0  0  0  0  0  0  0  0  0  0  0
    1.8058   93.9371   15.1269 C   0  0  1  0  0  0  0  0  0  0  0  0
    2.0346   92.7554   14.1978 C   0  0  2  0  0  0  0  0  0  0  0  0
    3.4229   92.8313   13.8139 O   0  0  0  0  0  0  0  0  0  0  0  0
    1.1004   92.8805   12.9887 C   0  0  0  0  0  0  0  0  0  0  0  0
    1.1800   91.7107   12.1692 O   0  0  0  0  0  0  0  0  0  0  0  0
    1.3031   92.7957   17.1126 C   0  0  2  0  0  0  0  0  0  0  0  0
    2.2717   93.6218   16.4487 O   0  0  0  0  0  0  0  0  0  0  0  0
    1.9401   91.4508   17.4766 C   0  0  1  0  0  0  0  0  0  0  0  0
   -3.2727   91.3390   16.7249 N   0  0  0  0  0  0  0  0  0  0  0  0
    0.8961   90.5147   18.0950 C   0  0  1  0  0  0  0  0  0  0  0  0
    0.4874   91.0045   19.3762 O   0  0  0  0  0  0  0  0  0  0  0  0
   -0.3178   90.4071   17.1681 C   0  0  2  0  0  0  0  0  0  0  0  0
    0.0906   89.7665   15.9547 O   0  0  0  0  0  0  0  0  0  0  0  0
   -0.8587   91.8087   16.8660 C   0  0  1  0  0  0  0  0  0  0  0  0
    0.1678   92.6080   16.2495 O   0  0  0  0  0  0  0  0  0  0  0  0
   -2.0894   91.7536   15.9569 C   0  0  0  0  0  0  0  0  0  0  0  0
    2.4555   90.8254   16.2492 N   0  0  0  0  0  0  0  0  0  0  0  0
  1  2  1  6  0  0  0
  1  3  1  0  0  0  0
  1 10  1  0  0  0  0
  3  4  1  6  0  0  0
  3  5  1  0  0  0  0
  5  6  1  1  0  0  0
  5  7  1  0  0  0  0
  7  8  1  6  0  0  0
  7  9  1  0  0  0  0
  9 10  1  0  0  0  0
  9 11  1  1  0  0  0
 11 12  1  0  0  0  0
 13 14  1  6  0  0  0
 13 15  1  0  0  0  0
 13 21  1  0  0  0  0
 16 15  1  0  0  0  0
 16 17  1  6  0  0  0
 18  2  1  1  0  0  0
 18 16  1  0  0  0  0
 19 18  1  0  0  0  0
 19 20  1  6  0  0  0
 21 19  1  0  0  0  0
 21 22  1  1  0  0  0
 23 20  1  6  0  0  0
 23 24  1  0  0  0  0
 23 28  1  0  0  0  0
 24 25  1  1  0  0  0
 24 26  1  0  0  0  0
 26 27  1  0  0  0  0
 26 32  1  1  0  0  0
 27 28  1  0  0  0  0
 27 29  1  6  0  0  0
 29 30  1  0  0  0  0
 31 32  1  6  0  0  0
 31 40  1  0  0  0  0
 33 31  1  0  0  0  0
 33 42  1  6  0  0  0
 35 33  1  0  0  0  0
 35 36  1  1  0  0  0
 37 35  1  0  0  0  0
 37 38  1  6  0  0  0
 37 39  1  0  0  0  0
 39 40  1  0  0  0  0
 39 41  1  6  0  0  0
 41 34  1  0  0  0  0
M  END
>  <CHROM.1>
173.32342561,-79.18888655,-150.73796171,148.03593053,-7.82597045,171.92537449
-173.49074438,119.29080877,76.44763756,3.88974304,94.84872645,14.21847809
-0.51929328,0.56446722,1.88658810

>  <Name>
2fcy_lig

>  <RI>
9.29634e+06

>  <Rbt.Current_Directory>
/home/itssahil/PROJECTS/Mol_Feturizer/New_Systems/rnas/2fcy

>  <Rbt.Executable>
rbdock ($Id: //depot/dev/client3/rdock/2013.1/src/exe/rbdock.cxx#4 $)

>  <Rbt.Library>
libRbt.so (2013.1, Build901 2013/11/27)

>  <Rbt.Parameter_File>
/export/apps/rDock/src/rDock_2013.1_src/data/scripts/dock_solv.prm

>  <Rbt.Receptor>
prm/blind_docking_100.prm

>  <SCORE>
7.28871

>  <SCORE.INTER>
-13.1368

>  <SCORE.INTER.CONST>
1

>  <SCORE.INTER.POLAR>
-0.706436

>  <SCORE.INTER.ROT>
9

>  <SCORE.INTER.SOLV>
33.1247

>  <SCORE.INTER.VDW>
-27.0446

>  <SCORE.INTER.norm>
-0.31278

>  <SCORE.INTRA>
15.4315

>  <SCORE.INTRA.DIHEDRAL>
7.27758

>  <SCORE.INTRA.DIHEDRAL.0>
17.3446

>  <SCORE.INTRA.POLAR>
0

>  <SCORE.INTRA.POLAR.0>
0

>  <SCORE.INTRA.REPUL>
0

>  <SCORE.INTRA.REPUL.0>
0

>  <SCORE.INTRA.SOLV>
1.11597

>  <SCORE.INTRA.SOLV.lig_0>
-112.452

>  <SCORE.INTRA.VDW>
11.2347

>  <SCORE.INTRA.VDW.0>
-5.95059

>  <SCORE.INTRA.norm>
0.367417

>  <SCORE.RESTR>
4.99397

>  <SCORE.RESTR.CAVITY>
4.99397

>  <SCORE.RESTR.norm>
0.118904

>  <SCORE.SYSTEM>
0

>  <SCORE.SYSTEM.CONST>
0

>  <SCORE.SYSTEM.DIHEDRAL>
0

>  <SCORE.SYSTEM.SOLV>
0

>  <SCORE.SYSTEM.norm>
0

>  <SCORE.heavy>
42

>  <SCORE.norm>
0.173541

>  <RMSD>
9.053

$$$$
2fcy_lig
 OpenBabel11021811433D
libRbt.so/2013.1/901 2013/11/27
 42 45  0  0  0  0  0  0  0  0999 V2000
   -0.7672   93.5904    7.8626 C   0  0  2  0  0  0  0  0  0  0  0  0
   -0.4483   93.2454    9.2214 O   0  0  0  0  0  0  0  0  0  0  0  0
    0.1194   94.7909    7.5284 C   0  0  2  0  0  0  0  0  0  0  0  0
    1.5189   94.4319    7.7953 N   0  0  0  0  0  0  0  0  0  0  0  0
   -0.2769   95.9806    8.4064 C   0  0  1  0  0  0  0  0  0  0  0  0
    0.5369   97.1185    8.1085 O   0  0  0  0  0  0  0  0  0  0  0  0
   -1.7543   96.3054    8.1830 C   0  0  2  0  0  0  0  0  0  0  0  0
   -2.1456   97.3510    9.0725 O   0  0  0  0  0  0  0  0  0  0  0  0
   -2.5865   95.0651    8.5120 C   0  0  2  0  0  0  0  0  0  0  0  0
   -2.1505   93.9649    7.6984 O   0  0  0  0  0  0  0  0  0  0  0  0
   -4.0680   95.3753    8.2823 C   0  0  0  0  0  0  0  0  0  0  0  0
   -4.9011   94.1940    8.5525 N   0  0  0  0  0  0  0  0  0  0  0  0
   -2.7877   89.7596    9.0688 C   0  0  2  0  0  0  0  0  0  0  0  0
   -3.4667   88.4679    9.2511 N   0  0  0  0  0  0  0  0  0  0  0  0
   -1.2726   89.5689    8.9737 C   0  0  0  0  0  0  0  0  0  0  0  0
   -0.6357   90.9249    8.6530 C   0  0  2  0  0  0  0  0  0  0  0  0
    0.8275   90.7836    8.6431 N   0  0  0  0  0  0  0  0  0  0  0  0
   -0.9946   91.9979    9.6850 C   0  0  2  0  0  0  0  0  0  0  0  0
   -2.4797   92.0897   10.0175 C   0  0  2  0  0  0  0  0  0  0  0  0
   -2.5551   92.8409   11.2399 O   0  0  0  0  0  0  0  0  0  0  0  0
   -3.1032   90.7040   10.2313 C   0  0  1  0  0  0  0  0  0  0  0  0
   -4.5256   90.7978   10.3457 O   0  0  0  0  0  0  0  0  0  0  0  0
   -2.0057   92.1981   12.4014 C   0  0  1  0  0  0  0  0  0  0  0  0
   -1.7663   93.2785   13.4573 C   0  0  2  0  0  0  0  0  0  0  0  0
   -0.5087   93.9147   13.2177 O   0  0  0  0  0  0  0  0  0  0  0  0
   -1.6585   92.3832   14.6883 C   0  0  1  0  0  0  0  0  0  0  0  0
   -2.8434   91.4581   14.4595 C   0  0  2  0  0  0  0  0  0  0  0  0
   -2.9170   91.2740   13.0307 O   0  0  0  0  0  0  0  0  0  0  0  0
   -4.1098   92.1189   15.0159 C   0  0  0  0  0  0  0  0  0  0  0  0
   -3.9828   92.3429   16.4230 O   0  0  0  0  0  0  0  0  0  0  0  0
    0.6208   92.4055   15.2384 C   0  0  2  0  0  0  0  0  0  0  0  0
   -0.4331   91.6352   14.6407 O   0  0  0  0  0  0  0  0  0  0  0  0
    1.9511   92.0692   14.5570 C   0  0  1  0  0  0  0  0  0  0  0  0
    0.2454   92.7837   19.3015 N   0  0  0  0  0  0  0  0  0  0  0  0
    3.1057   92.8040   15.2465 C   0  0  1  0  0  0  0  0  0  0  0  0
    3.0044   94.2132   15.0176 O   0  0  0  0  0  0  0  0  0  0  0  0
    3.0778   92.5183   16.7505 C   0  0  2  0  0  0  0  0  0  0  0  0
    3.3419   91.1262   16.9549 O   0  0  0  0  0  0  0  0  0  0  0  0
    1.7004   92.8805   17.3162 C   0  0  1  0  0  0  0  0  0  0  0  0
    0.6794   92.1177   16.6465 O   0  0  0  0  0  0  0  0  0  0  0  0
    1.6281   92.6316   18.8252 C   0  0  0  0  0  0  0  0  0  0  0  0
    2.1872   90.6221   14.6716 N   0  0  0  0  0  0  0  0  0  0  0  0
  1  2  1  1  0  0  0
  1  3  1  0  0  0  0
  1 10  1  0  0  0  0
  3  4  1  1  0  0  0
  3  5  1  0  0  0  0
  5  6  1  6  0  0  0
  5  7  1  0  0  0  0
  7  8  1  1  0  0  0
  7  9  1  0  0  0  0
  9 10  1  0  0  0  0
  9 11  1  6  0  0  0
 11 12  1  0  0  0  0
 13 14  1  1  0  0  0
 13 15  1  0  0  0  0
 13 21  1  0  0  0  0
 16 15  1  0  0  0  0
 16 17  1  1  0  0  0
 18  2  1  6  0  0  0
 18 16  1  0  0  0  0
 19 18  1  0  0  0  0
 19 20  1  1  0  0  0
 21 19  1  0  0  0  0
 21 22  1  6  0  0  0
 23 20  1  6  0  0  0
 23 24  1  0  0  0  0
 23 28  1  0  0  0  0
 24 25  1  6  0  0  0
 24 26  1  0  0  0  0
 26 27  1  0  0  0  0
 26 32  1  6  0  0  0
 27 28  1  0  0  0  0
 27 29  1  6  0  0  0
 29 30  1  0  0  0  0
 31 32  1  6  0  0  0
 31 40  1  0  0  0  0
 33 31  1  0  0  0  0
 33 42  1  1  0  0  0
 35 33  1  0  0  0  0
 35 36  1  1  0  0  0
 37 35  1  0  0  0  0
 37 38  1  6  0  0  0
 37 39  1  0  0  0  0
 39 40  1  0  0  0  0
 39 41  1  1  0  0  0
 41 34  1  0  0  0  0
M  END
>  <CHROM.1>
-169.79095847,178.43344860,50.68396513,-66.98107402,162.12100852,87.41415486
-61.12710541,-148.58867561,-171.11078056,-0.87993187,92.78377878,12.00944111
-1.99218900,0.60245990,1.99772674

>  <Name>
2fcy_lig

>  <RI>
1.56845e+07

>  <Rbt.Current_Directory>
/home/itssahil/PROJECTS/Mol_Feturizer/New_Systems/rnas/2fcy

>  <Rbt.Executable>
rbdock ($Id: //depot/dev/client3/rdock/2013.1/src/exe/rbdock.cxx#4 $)

>  <Rbt.Library>
libRbt.so (2013.1, Build901 2013/11/27)

>  <Rbt.Parameter_File>
/export/apps/rDock/src/rDock_2013.1_src/data/scripts/dock_solv.prm

>  <Rbt.Receptor>
prm/pocket_docking_4.prm

>  <SCORE>
-20.4649

>  <SCORE.INTER>
-19.1741

>  <SCORE.INTER.CONST>
1

>  <SCORE.INTER.POLAR>
-3.53687

>  <SCORE.INTER.ROT>
9

>  <SCORE.INTER.SOLV>
22.9895

>  <SCORE.INTER.VDW>
-18.2563

>  <SCORE.INTER.norm>
-0.456525

>  <SCORE.INTRA>
-1.2908

>  <SCORE.INTRA.DIHEDRAL>
-7.14555

>  <SCORE.INTRA.DIHEDRAL.0>
17.3446

>  <SCORE.INTRA.POLAR>
0

>  <SCORE.INTRA.POLAR.0>
0

>  <SCORE.INTRA.REPUL>
0

>  <SCORE.INTRA.REPUL.0>
0

>  <SCORE.INTRA.SOLV>
-2.53248

>  <SCORE.INTRA.SOLV.lig_0>
-112.452

>  <SCORE.INTRA.VDW>
3.54821

>  <SCORE.INTRA.VDW.0>
-5.95059

>  <SCORE.INTRA.norm>
-0.0307334

>  <SCORE.RESTR>
0

>  <SCORE.RESTR.CAVITY>
0

>  <SCORE.RESTR.norm>
0

>  <SCORE.SYSTEM>
0

>  <SCORE.SYSTEM.CONST>
0

>  <SCORE.SYSTEM.DIHEDRAL>
0

>  <SCORE.SYSTEM.SOLV>
0

>  <SCORE.SYSTEM.norm>
0

>  <SCORE.heavy>
42

>  <SCORE.norm>
-0.487259

>  <RMSD>
9.065

$$$$
2fcy_lig
 OpenBabel11021811433D
libRbt.so/2013.1/901 2013/11/27
 42 45  0  0  0  0  0  0  0  0999 V2000
    3.5892   94.9033   14.2762 C   0  0  2  0  0  0  0  0  0  0  0  0
    2.4791   95.7567   14.6028 O   0  0  0  0  0  0  0  0  0  0  0  0
    4.1973   95.4950   13.0038 C   0  0  2  0  0  0  0  0  0  0  0  0
    4.5152   96.9088   13.2469 N   0  0  0  0  0  0  0  0  0  0  0  0
    3.1884   95.3903   11.8573 C   0  0  1  0  0  0  0  0  0  0  0  0
    3.7370   95.9344   10.6536 O   0  0  0  0  0  0  0  0  0  0  0  0
    2.8013   93.9250   11.6551 C   0  0  2  0  0  0  0  0  0  0  0  0
    1.7894   93.8400   10.6518 O   0  0  0  0  0  0  0  0  0  0  0  0
    2.2209   93.3839   12.9626 C   0  0  2  0  0  0  0  0  0  0  0  0
    3.1826   93.5439   14.0172 O   0  0  0  0  0  0  0  0  0  0  0  0
    1.8385   91.9134   12.7753 C   0  0  0  0  0  0  0  0  0  0  0  0
    0.6477   91.7839   11.9222 N   0  0  0  0  0  0  0  0  0  0  0  0
    3.3732   95.8559   18.7061 C   0  0  2  0  0  0  0  0  0  0  0  0
    3.4249   95.9968   20.1691 N   0  0  0  0  0  0  0  0  0  0  0  0
    3.0739   97.2006   18.0406 C   0  0  0  0  0  0  0  0  0  0  0  0
    3.1644   97.0173   16.5222 C   0  0  2  0  0  0  0  0  0  0  0  0
    2.7947   98.2758   15.8585 N   0  0  0  0  0  0  0  0  0  0  0  0
    2.2230   95.9240   16.0085 C   0  0  2  0  0  0  0  0  0  0  0  0
    2.2892   94.6120   16.7821 C   0  0  2  0  0  0  0  0  0  0  0  0
    1.1021   93.8894   16.4177 O   0  0  0  0  0  0  0  0  0  0  0  0
    2.2995   94.8438   18.2989 C   0  0  1  0  0  0  0  0  0  0  0  0
    2.5595   93.6241   18.9988 O   0  0  0  0  0  0  0  0  0  0  0  0
    1.0322   92.5312   16.8810 C   0  0  1  0  0  0  0  0  0  0  0  0
   -0.1687   92.4257   17.8224 C   0  0  2  0  0  0  0  0  0  0  0  0
    0.2096   92.8509   19.1338 O   0  0  0  0  0  0  0  0  0  0  0  0
   -0.3446   90.9100   17.8087 C   0  0  1  0  0  0  0  0  0  0  0  0
   -0.2183   90.6325   16.3191 C   0  0  2  0  0  0  0  0  0  0  0  0
    0.7534   91.5810   15.8323 O   0  0  0  0  0  0  0  0  0  0  0  0
   -1.5867   90.8258   15.6556 C   0  0  0  0  0  0  0  0  0  0  0  0
   -1.9300   92.2137   15.6073 O   0  0  0  0  0  0  0  0  0  0  0  0
    1.9395   90.3843   17.7398 C   0  0  2  0  0  0  0  0  0  0  0  0
    0.7376   90.2876   18.5192 O   0  0  0  0  0  0  0  0  0  0  0  0
    1.9690   89.2580   16.7017 C   0  0  1  0  0  0  0  0  0  0  0  0
    5.5085   89.2441   19.7057 N   0  0  0  0  0  0  0  0  0  0  0  0
    3.2905   89.2804   15.9259 C   0  0  1  0  0  0  0  0  0  0  0  0
    3.3609   90.4463   15.0990 O   0  0  0  0  0  0  0  0  0  0  0  0
    4.4671   89.2659   16.9055 C   0  0  2  0  0  0  0  0  0  0  0  0
    4.4624   88.0170   17.6053 O   0  0  0  0  0  0  0  0  0  0  0  0
    4.3232   90.4248   17.8978 C   0  0  1  0  0  0  0  0  0  0  0  0
    3.0796   90.3057   18.6133 O   0  0  0  0  0  0  0  0  0  0  0  0
    5.4898   90.4662   18.8885 C   0  0  0  0  0  0  0  0  0  0  0  0
    1.8630   87.9687   17.4013 N   0  0  0  0  0  0  0  0  0  0  0  0
  1  2  1  6  0  0  0
  1  3  1  0  0  0  0
  1 10  1  0  0  0  0
  3  4  1  1  0  0  0
  3  5  1  0  0  0  0
  5  6  1  6  0  0  0
  5  7  1  0  0  0  0
  7  8  1  6  0  0  0
  7  9  1  0  0  0  0
  9 10  1  0  0  0  0
  9 11  1  6  0  0  0
 11 12  1  0  0  0  0
 13 14  1  1  0  0  0
 13 15  1  0  0  0  0
 13 21  1  0  0  0  0
 16 15  1  0  0  0  0
 16 17  1  6  0  0  0
 18  2  1  6  0  0  0
 18 16  1  0  0  0  0
 19 18  1  0  0  0  0
 19 20  1  1  0  0  0
 21 19  1  0  0  0  0
 21 22  1  1  0  0  0
 23 20  1  6  0  0  0
 23 24  1  0  0  0  0
 23 28  1  0  0  0  0
 24 25  1  1  0  0  0
 24 26  1  0  0  0  0
 26 27  1  0  0  0  0
 26 32  1  1  0  0  0
 27 28  1  0  0  0  0
 27 29  1  6  0  0  0
 29 30  1  0  0  0  0
 31 32  1  1  0  0  0
 31 40  1  0  0  0  0
 33 31  1  0  0  0  0
 33 42  1  1  0  0  0
 35 33  1  0  0  0  0
 35 36  1  1  0  0  0
 37 35  1  0  0  0  0
 37 38  1  1  0  0  0
 37 39  1  0  0  0  0
 39 40  1  0  0  0  0
 39 41  1  1  0  0  0
 41 34  1  0  0  0  0
M  END
>  <CHROM.1>
-146.30606921,-71.78196526,83.08042716,171.61747156,117.47603500,-72.18236495
71.63980972,-82.66313564,-62.88686238,2.33220967,92.82168540,16.02746152
-1.25782625,1.36263623,2.16167561

>  <Name>
2fcy_lig

>  <RI>
9.29634e+06

>  <Rbt.Current_Directory>
/home/itssahil/PROJECTS/Mol_Feturizer/New_Systems/rnas/2fcy

>  <Rbt.Executable>
rbdock ($Id: //depot/dev/client3/rdock/2013.1/src/exe/rbdock.cxx#4 $)

>  <Rbt.Library>
libRbt.so (2013.1, Build901 2013/11/27)

>  <Rbt.Parameter_File>
/export/apps/rDock/src/rDock_2013.1_src/data/scripts/dock_solv.prm

>  <Rbt.Receptor>
prm/blind_docking_100.prm

>  <SCORE>
16.0268

>  <SCORE.INTER>
-11.0546

>  <SCORE.INTER.CONST>
1

>  <SCORE.INTER.POLAR>
-0.609584

>  <SCORE.INTER.ROT>
9

>  <SCORE.INTER.SOLV>
25.4974

>  <SCORE.INTER.VDW>
-23.4369

>  <SCORE.INTER.norm>
-0.263204

>  <SCORE.INTRA>
24.5859

>  <SCORE.INTRA.DIHEDRAL>
1.02324

>  <SCORE.INTRA.DIHEDRAL.0>
17.3446

>  <SCORE.INTRA.POLAR>
0

>  <SCORE.INTRA.POLAR.0>
0

>  <SCORE.INTRA.REPUL>
1

>  <SCORE.INTRA.REPUL.0>
0

>  <SCORE.INTRA.SOLV>
3.67189

>  <SCORE.INTRA.SOLV.lig_0>
-112.452

>  <SCORE.INTRA.VDW>
17.2384

>  <SCORE.INTRA.VDW.0>
-5.95059

>  <SCORE.INTRA.norm>
0.585379

>  <SCORE.RESTR>
2.49545

>  <SCORE.RESTR.CAVITY>
2.49545

>  <SCORE.RESTR.norm>
0.0594154

>  <SCORE.SYSTEM>
0

>  <SCORE.SYSTEM.CONST>
0

>  <SCORE.SYSTEM.DIHEDRAL>
0

>  <SCORE.SYSTEM.SOLV>
0

>  <SCORE.SYSTEM.norm>
0

>  <SCORE.heavy>
42

>  <SCORE.norm>
0.38159

>  <RMSD>
9.066

$$$$
2fcy_lig
 OpenBabel11021811433D
libRbt.so/2013.1/901 2013/11/27
 42 45  0  0  0  0  0  0  0  0999 V2000
   -1.8412   93.5159   10.2055 C   0  0  2  0  0  0  0  0  0  0  0  0
   -1.9956   92.6565    9.0632 O   0  0  0  0  0  0  0  0  0  0  0  0
   -3.2610   93.9171   10.6082 C   0  0  2  0  0  0  0  0  0  0  0  0
   -4.0542   92.6979   10.8159 N   0  0  0  0  0  0  0  0  0  0  0  0
   -3.8936   94.7516    9.4916 C   0  0  1  0  0  0  0  0  0  0  0  0
   -5.2225   95.1429    9.8476 O   0  0  0  0  0  0  0  0  0  0  0  0
   -3.0261   95.9821    9.2248 C   0  0  2  0  0  0  0  0  0  0  0  0
   -3.5651   96.7069    8.1195 O   0  0  0  0  0  0  0  0  0  0  0  0
   -1.6176   95.5197    8.8487 C   0  0  2  0  0  0  0  0  0  0  0  0
   -1.0824   94.7047    9.9031 O   0  0  0  0  0  0  0  0  0  0  0  0
   -0.7364   96.7444    8.5889 C   0  0  0  0  0  0  0  0  0  0  0  0
    0.6447   96.3434    8.2821 N   0  0  0  0  0  0  0  0  0  0  0  0
    0.2804   89.3569    7.8067 C   0  0  2  0  0  0  0  0  0  0  0  0
    1.2852   88.3917    7.3357 N   0  0  0  0  0  0  0  0  0  0  0  0
    0.0817   90.4775    6.7841 C   0  0  0  0  0  0  0  0  0  0  0  0
   -1.0644   91.3723    7.2669 C   0  0  2  0  0  0  0  0  0  0  0  0
   -1.2161   92.5067    6.3443 N   0  0  0  0  0  0  0  0  0  0  0  0
   -0.8131   91.9392    8.6672 C   0  0  2  0  0  0  0  0  0  0  0  0
   -0.3720   90.9092    9.7011 C   0  0  2  0  0  0  0  0  0  0  0  0
    0.1750   91.6679   10.7916 O   0  0  0  0  0  0  0  0  0  0  0  0
    0.7041   89.9672    9.1449 C   0  0  1  0  0  0  0  0  0  0  0  0
    0.9605   88.8937   10.0543 O   0  0  0  0  0  0  0  0  0  0  0  0
    0.1614   91.0169   12.0724 C   0  0  1  0  0  0  0  0  0  0  0  0
    0.7638   91.9871   13.0900 C   0  0  2  0  0  0  0  0  0  0  0  0
    2.1899   91.8917   13.0594 O   0  0  0  0  0  0  0  0  0  0  0  0
    0.2369   91.3424   14.3687 C   0  0  1  0  0  0  0  0  0  0  0  0
   -1.2080   91.0849   13.9711 C   0  0  2  0  0  0  0  0  0  0  0  0
   -1.1672   90.7532   12.5679 O   0  0  0  0  0  0  0  0  0  0  0  0
   -2.0332   92.3497   14.2348 C   0  0  0  0  0  0  0  0  0  0  0  0
   -3.4279   92.0855   14.0575 O   0  0  0  0  0  0  0  0  0  0  0  0
    2.0852   90.3299   15.3969 C   0  0  2  0  0  0  0  0  0  0  0  0
    0.9135   90.0966   14.6006 O   0  0  0  0  0  0  0  0  0  0  0  0
    2.4127   89.0717   16.2074 C   0  0  1  0  0  0  0  0  0  0  0  0
    2.5960   94.1884   16.9752 N   0  0  0  0  0  0  0  0  0  0  0  0
    3.5998   89.3313   17.1411 C   0  0  1  0  0  0  0  0  0  0  0  0
    4.7987   89.5135   16.3810 O   0  0  0  0  0  0  0  0  0  0  0  0
    3.3287   90.5758   17.9909 C   0  0  2  0  0  0  0  0  0  0  0  0
    2.2212   90.3045   18.8564 O   0  0  0  0  0  0  0  0  0  0  0  0
    3.0026   91.7610   17.0758 C   0  0  1  0  0  0  0  0  0  0  0  0
    1.8532   91.4527   16.2655 O   0  0  0  0  0  0  0  0  0  0  0  0
    2.7433   93.0383   17.8793 C   0  0  0  0  0  0  0  0  0  0  0  0
    1.2438   88.7219   17.0285 N   0  0  0  0  0  0  0  0  0  0  0  0
  1  2  1  6  0  0  0
  1  3  1  0  0  0  0
  1 10  1  0  0  0  0
  3  4  1  6  0  0  0
  3  5  1  0  0  0  0
  5  6  1  1  0  0  0
  5  7  1  0  0  0  0
  7  8  1  6  0  0  0
  7  9  1  0  0  0  0
  9 10  1  0  0  0  0
  9 11  1  1  0  0  0
 11 12  1  0  0  0  0
 13 14  1  6  0  0  0
 13 15  1  0  0  0  0
 13 21  1  0  0  0  0
 16 15  1  0  0  0  0
 16 17  1  6  0  0  0
 18  2  1  1  0  0  0
 18 16  1  0  0  0  0
 19 18  1  0  0  0  0
 19 20  1  1  0  0  0
 21 19  1  0  0  0  0
 21 22  1  1  0  0  0
 23 20  1  6  0  0  0
 23 24  1  0  0  0  0
 23 28  1  0  0  0  0
 24 25  1  1  0  0  0
 24 26  1  0  0  0  0
 26 27  1  0  0  0  0
 26 32  1  6  0  0  0
 27 28  1  0  0  0  0
 27 29  1  6  0  0  0
 29 30  1  0  0  0  0
 31 32  1  1  0  0  0
 31 40  1  0  0  0  0
 33 31  1  0  0  0  0
 33 42  1  1  0  0  0
 35 33  1  0  0  0  0
 35 36  1  6  0  0  0
 37 35  1  0  0  0  0
 37 38  1  1  0  0  0
 37 39  1  0  0  0  0
 39 40  1  0  0  0  0
 39 41  1  1  0  0  0
 41 34  1  0  0  0  0
M  END
>  <CHROM.1>
-168.11547044,177.47008689,-166.06480622,155.77069494,-179.30649372,90.09256369
-171.57486918,152.32311467,173.11568515,-0.08832142,92.03178760,12.07461931
2.42547287,0.92733669,-1.94085602

>  <Name>
2fcy_lig

>  <RI>
224

>  <Rbt.Current_Directory>
/home/itssahil/PROJECTS/Mol_Feturizer/New_Systems/rnas/2fcy

>  <Rbt.Executable>
rbdock ($Id: //depot/dev/client3/rdock/2013.1/src/exe/rbdock.cxx#4 $)

>  <Rbt.Library>
libRbt.so (2013.1, Build901 2013/11/27)

>  <Rbt.Parameter_File>
/export/apps/rDock/src/rDock_2013.1_src/data/scripts/dock_solv.prm

>  <Rbt.Receptor>
prm/pocket_docking_6.prm

>  <SCORE>
-19.8592

>  <SCORE.INTER>
-18.0051

>  <SCORE.INTER.CONST>
1

>  <SCORE.INTER.POLAR>
-2.84559

>  <SCORE.INTER.ROT>
9

>  <SCORE.INTER.SOLV>
19.0973

>  <SCORE.INTER.VDW>
-18.4839

>  <SCORE.INTER.norm>
-0.428692

>  <SCORE.INTRA>
-1.85415

>  <SCORE.INTRA.DIHEDRAL>
-5.74004

>  <SCORE.INTRA.DIHEDRAL.0>
17.3446

>  <SCORE.INTRA.POLAR>
0

>  <SCORE.INTRA.POLAR.0>
0

>  <SCORE.INTRA.REPUL>
0

>  <SCORE.INTRA.REPUL.0>
0

>  <SCORE.INTRA.SOLV>
-4.01298

>  <SCORE.INTRA.SOLV.lig_0>
-112.452

>  <SCORE.INTRA.VDW>
3.02236

>  <SCORE.INTRA.VDW.0>
-5.95059

>  <SCORE.INTRA.norm>
-0.0441464

>  <SCORE.RESTR>
0

>  <SCORE.RESTR.CAVITY>
0

>  <SCORE.RESTR.norm>
0

>  <SCORE.SYSTEM>
0

>  <SCORE.SYSTEM.CONST>
0

>  <SCORE.SYSTEM.DIHEDRAL>
0

>  <SCORE.SYSTEM.SOLV>
0

>  <SCORE.SYSTEM.norm>
0

>  <SCORE.heavy>
42

>  <SCORE.norm>
-0.472839

>  <RMSD>
9.079

$$$$
2fcy_lig
 OpenBabel11021811433D
libRbt.so/2013.1/901 2013/11/27
 42 45  0  0  0  0  0  0  0  0999 V2000
   -0.8003   94.1394    6.3001 C   0  0  2  0  0  0  0  0  0  0  0  0
   -0.9541   93.1275    7.3099 O   0  0  0  0  0  0  0  0  0  0  0  0
    0.0035   95.2584    6.9640 C   0  0  2  0  0  0  0  0  0  0  0  0
    1.2447   94.6890    7.5063 N   0  0  0  0  0  0  0  0  0  0  0  0
   -0.8154   95.8711    8.1029 C   0  0  1  0  0  0  0  0  0  0  0  0
   -0.0848   96.9245    8.7373 O   0  0  0  0  0  0  0  0  0  0  0  0
   -2.1403   96.3961    7.5491 C   0  0  2  0  0  0  0  0  0  0  0  0
   -2.9423   96.8789    8.6268 O   0  0  0  0  0  0  0  0  0  0  0  0
   -2.8874   95.2407    6.8811 C   0  0  2  0  0  0  0  0  0  0  0  0
   -2.0651   94.6686    5.8520 O   0  0  0  0  0  0  0  0  0  0  0  0
   -4.2122   95.7568    6.3135 C   0  0  0  0  0  0  0  0  0  0  0  0
   -5.1683   96.0494    7.3918 N   0  0  0  0  0  0  0  0  0  0  0  0
    0.3479   89.1338    7.3391 C   0  0  2  0  0  0  0  0  0  0  0  0
    1.0534   87.8451    7.2721 N   0  0  0  0  0  0  0  0  0  0  0  0
    0.4261   89.8668    5.9985 C   0  0  0  0  0  0  0  0  0  0  0  0
   -0.4339   91.1314    6.0901 C   0  0  2  0  0  0  0  0  0  0  0  0
   -0.3045   91.8979    4.8424 N   0  0  0  0  0  0  0  0  0  0  0  0
   -0.0104   92.0437    7.2450 C   0  0  2  0  0  0  0  0  0  0  0  0
    0.1693   91.3349    8.5829 C   0  0  2  0  0  0  0  0  0  0  0  0
    0.9211   92.2442    9.4026 O   0  0  0  0  0  0  0  0  0  0  0  0
    0.9477   90.0211    8.4326 C   0  0  1  0  0  0  0  0  0  0  0  0
    0.9350   89.2790    9.6549 O   0  0  0  0  0  0  0  0  0  0  0  0
    0.8140   92.0393   10.8207 C   0  0  1  0  0  0  0  0  0  0  0  0
    1.3141   93.3098   11.5100 C   0  0  2  0  0  0  0  0  0  0  0  0
    2.7393   93.2709   11.6146 O   0  0  0  0  0  0  0  0  0  0  0  0
    0.6955   93.0881   12.8872 C   0  0  1  0  0  0  0  0  0  0  0  0
   -0.7073   92.6548   12.4915 C   0  0  2  0  0  0  0  0  0  0  0  0
   -0.5460   91.8919   11.2779 O   0  0  0  0  0  0  0  0  0  0  0  0
   -1.5732   93.9006   12.2717 C   0  0  0  0  0  0  0  0  0  0  0  0
   -1.2608   94.9067   13.2394 O   0  0  0  0  0  0  0  0  0  0  0  0
    0.9859   91.9935   14.9405 C   0  0  2  0  0  0  0  0  0  0  0  0
    1.3723   92.0131   13.5578 O   0  0  0  0  0  0  0  0  0  0  0  0
    1.9460   91.0963   15.7282 C   0  0  1  0  0  0  0  0  0  0  0  0
   -3.1130   92.0778   15.6914 N   0  0  0  0  0  0  0  0  0  0  0  0
    1.4926   90.9794   17.1874 C   0  0  1  0  0  0  0  0  0  0  0  0
    1.6455   92.2352   17.8567 O   0  0  0  0  0  0  0  0  0  0  0  0
    0.0280   90.5363   17.2415 C   0  0  2  0  0  0  0  0  0  0  0  0
   -0.0670   89.2103   16.7103 O   0  0  0  0  0  0  0  0  0  0  0  0
   -0.8300   91.4975   16.4118 C   0  0  1  0  0  0  0  0  0  0  0  0
   -0.3666   91.5161   15.0489 O   0  0  0  0  0  0  0  0  0  0  0  0
   -2.3103   91.1082   16.4512 C   0  0  0  0  0  0  0  0  0  0  0  0
    1.9347   89.7531   15.1293 N   0  0  0  0  0  0  0  0  0  0  0  0
  1  2  1  1  0  0  0
  1  3  1  0  0  0  0
  1 10  1  0  0  0  0
  3  4  1  1  0  0  0
  3  5  1  0  0  0  0
  5  6  1  6  0  0  0
  5  7  1  0  0  0  0
  7  8  1  1  0  0  0
  7  9  1  0  0  0  0
  9 10  1  0  0  0  0
  9 11  1  6  0  0  0
 11 12  1  0  0  0  0
 13 14  1  6  0  0  0
 13 15  1  0  0  0  0
 13 21  1  0  0  0  0
 16 15  1  0  0  0  0
 16 17  1  6  0  0  0
 18  2  1  1  0  0  0
 18 16  1  0  0  0  0
 19 18  1  0  0  0  0
 19 20  1  1  0  0  0
 21 19  1  0  0  0  0
 21 22  1  1  0  0  0
 23 20  1  6  0  0  0
 23 24  1  0  0  0  0
 23 28  1  0  0  0  0
 24 25  1  1  0  0  0
 24 26  1  0  0  0  0
 26 27  1  0  0  0  0
 26 32  1  6  0  0  0
 27 28  1  0  0  0  0
 27 29  1  6  0  0  0
 29 30  1  0  0  0  0
 31 32  1  6  0  0  0
 31 40  1  0  0  0  0
 33 31  1  0  0  0  0
 33 42  1  6  0  0  0
 35 33  1  0  0  0  0
 35 36  1  6  0  0  0
 37 35  1  0  0  0  0
 37 38  1  6  0  0  0
 37 39  1  0  0  0  0
 39 40  1  0  0  0  0
 39 41  1  6  0  0  0
 41 34  1  0  0  0  0
M  END
>  <CHROM.1>
-97.38484433,-72.09182411,-75.89672314,158.43882016,-163.36487627,167.88080432
-38.47503489,-165.98506821,177.76159127,-0.29851967,92.60974648,10.75869314
-1.92314960,-1.04652655,1.55650092

>  <Name>
2fcy_lig

>  <RI>
1.56845e+07

>  <Rbt.Current_Directory>
/home/itssahil/PROJECTS/Mol_Feturizer/New_Systems/rnas/2fcy

>  <Rbt.Executable>
rbdock ($Id: //depot/dev/client3/rdock/2013.1/src/exe/rbdock.cxx#4 $)

>  <Rbt.Library>
libRbt.so (2013.1, Build901 2013/11/27)

>  <Rbt.Parameter_File>
/export/apps/rDock/src/rDock_2013.1_src/data/scripts/dock_solv.prm

>  <Rbt.Receptor>
prm/pocket_docking_4.prm

>  <SCORE>
-22.3813

>  <SCORE.INTER>
-23.9688

>  <SCORE.INTER.CONST>
1

>  <SCORE.INTER.POLAR>
-3.30081

>  <SCORE.INTER.ROT>
9

>  <SCORE.INTER.SOLV>
21.9062

>  <SCORE.INTER.VDW>
-21.8785

>  <SCORE.INTER.norm>
-0.570685

>  <SCORE.INTRA>
0.917866

>  <SCORE.INTRA.DIHEDRAL>
-3.7437

>  <SCORE.INTRA.DIHEDRAL.0>
17.3446

>  <SCORE.INTRA.POLAR>
0

>  <SCORE.INTRA.POLAR.0>
0

>  <SCORE.INTRA.REPUL>
0

>  <SCORE.INTRA.REPUL.0>
0

>  <SCORE.INTRA.SOLV>
-0.179077

>  <SCORE.INTRA.SOLV.lig_0>
-112.452

>  <SCORE.INTRA.VDW>
2.87925

>  <SCORE.INTRA.VDW.0>
-5.95059

>  <SCORE.INTRA.norm>
0.0218539

>  <SCORE.RESTR>
0.669667

>  <SCORE.RESTR.CAVITY>
0.669667

>  <SCORE.RESTR.norm>
0.0159444

>  <SCORE.SYSTEM>
0

>  <SCORE.SYSTEM.CONST>
0

>  <SCORE.SYSTEM.DIHEDRAL>
0

>  <SCORE.SYSTEM.SOLV>
0

>  <SCORE.SYSTEM.norm>
0

>  <SCORE.heavy>
42

>  <SCORE.norm>
-0.532887

>  <RMSD>
9.082

$$$$
2fcy_lig
 OpenBabel11021811433D
libRbt.so/2013.1/901 2013/11/27
 42 45  0  0  0  0  0  0  0  0999 V2000
   -1.1965   91.8550    7.9412 C   0  0  2  0  0  0  0  0  0  0  0  0
   -0.7200   91.0324    6.8625 O   0  0  0  0  0  0  0  0  0  0  0  0
   -2.5619   92.3724    7.4864 C   0  0  2  0  0  0  0  0  0  0  0  0
   -3.4044   91.2243    7.1249 N   0  0  0  0  0  0  0  0  0  0  0  0
   -2.3855   93.2785    6.2652 C   0  0  1  0  0  0  0  0  0  0  0  0
   -3.6505   93.7788    5.8234 O   0  0  0  0  0  0  0  0  0  0  0  0
   -1.4478   94.4324    6.6215 C   0  0  2  0  0  0  0  0  0  0  0  0
   -1.2082   95.2208    5.4559 O   0  0  0  0  0  0  0  0  0  0  0  0
   -0.1107   93.8546    7.0878 C   0  0  2  0  0  0  0  0  0  0  0  0
   -0.3297   92.9776    8.2037 O   0  0  0  0  0  0  0  0  0  0  0  0
    0.8339   95.0014    7.4572 C   0  0  0  0  0  0  0  0  0  0  0  0
    0.3152   95.7617    8.6041 N   0  0  0  0  0  0  0  0  0  0  0  0
    1.7039   87.6748    7.5679 C   0  0  2  0  0  0  0  0  0  0  0  0
    2.7667   86.6832    7.7914 N   0  0  0  0  0  0  0  0  0  0  0  0
    1.8964   88.3853    6.2267 C   0  0  0  0  0  0  0  0  0  0  0  0
    0.6934   89.3043    5.9914 C   0  0  2  0  0  0  0  0  0  0  0  0
    0.8982   90.0636    4.7495 N   0  0  0  0  0  0  0  0  0  0  0  0
    0.4964   90.3117    7.1279 C   0  0  2  0  0  0  0  0  0  0  0  0
    0.5327   89.7075    8.5273 C   0  0  2  0  0  0  0  0  0  0  0  0
    0.7240   90.8163    9.4207 O   0  0  0  0  0  0  0  0  0  0  0  0
    1.6917   88.7153    8.6905 C   0  0  1  0  0  0  0  0  0  0  0  0
    1.5926   88.0165    9.9343 O   0  0  0  0  0  0  0  0  0  0  0  0
    0.4787   90.5463   10.8104 C   0  0  1  0  0  0  0  0  0  0  0  0
    0.2165   91.8854   11.5017 C   0  0  2  0  0  0  0  0  0  0  0  0
    1.4603   92.5017   11.8435 O   0  0  0  0  0  0  0  0  0  0  0  0
   -0.4605   91.3671   12.7672 C   0  0  1  0  0  0  0  0  0  0  0  0
   -1.4190   90.3496   12.1687 C   0  0  2  0  0  0  0  0  0  0  0  0
   -0.7203   89.7792   11.0430 O   0  0  0  0  0  0  0  0  0  0  0  0
   -2.7051   91.0649   11.7393 C   0  0  0  0  0  0  0  0  0  0  0  0
   -3.3606   91.6428   12.8719 O   0  0  0  0  0  0  0  0  0  0  0  0
   -0.0716   90.4489   14.8895 C   0  0  2  0  0  0  0  0  0  0  0  0
    0.5047   90.7044   13.5995 O   0  0  0  0  0  0  0  0  0  0  0  0
   -0.5255   91.7699   15.5188 C   0  0  1  0  0  0  0  0  0  0  0  0
    0.8673   88.3054   19.1358 N   0  0  0  0  0  0  0  0  0  0  0  0
   -1.0510   91.5329   16.9387 C   0  0  1  0  0  0  0  0  0  0  0  0
   -2.2733   90.7896   16.8980 O   0  0  0  0  0  0  0  0  0  0  0  0
   -0.0059   90.7705   17.7579 C   0  0  2  0  0  0  0  0  0  0  0  0
    1.1461   91.6053   17.9171 O   0  0  0  0  0  0  0  0  0  0  0  0
    0.3775   89.4796   17.0265 C   0  0  1  0  0  0  0  0  0  0  0  0
    0.9002   89.7921   15.7220 O   0  0  0  0  0  0  0  0  0  0  0  0
    1.4077   88.6688   17.8176 C   0  0  0  0  0  0  0  0  0  0  0  0
    0.6297   92.6769   15.5964 N   0  0  0  0  0  0  0  0  0  0  0  0
  1  2  1  6  0  0  0
  1  3  1  0  0  0  0
  1 10  1  0  0  0  0
  3  4  1  6  0  0  0
  3  5  1  0  0  0  0
  5  6  1  1  0  0  0
  5  7  1  0  0  0  0
  7  8  1  6  0  0  0
  7  9  1  0  0  0  0
  9 10  1  0  0  0  0
  9 11  1  1  0  0  0
 11 12  1  0  0  0  0
 13 14  1  1  0  0  0
 13 15  1  0  0  0  0
 13 21  1  0  0  0  0
 16 15  1  0  0  0  0
 16 17  1  6  0  0  0
 18  2  1  6  0  0  0
 18 16  1  0  0  0  0
 19 18  1  0  0  0  0
 19 20  1  1  0  0  0
 21 19  1  0  0  0  0
 21 22  1  1  0  0  0
 23 20  1  6  0  0  0
 23 24  1  0  0  0  0
 23 28  1  0  0  0  0
 24 25  1  1  0  0  0
 24 26  1  0  0  0  0
 26 27  1  0  0  0  0
 26 32  1  1  0  0  0
 27 28  1  0  0  0  0
 27 29  1  6  0  0  0
 29 30  1  0  0  0  0
 31 32  1  6  0  0  0
 31 40  1  0  0  0  0
 33 31  1  0  0  0  0
 33 42  1  1  0  0  0
 35 33  1  0  0  0  0
 35 36  1  6  0  0  0
 37 35  1  0  0  0  0
 37 38  1  6  0  0  0
 37 39  1  0  0  0  0
 39 40  1  0  0  0  0
 39 41  1  1  0  0  0
 41 34  1  0  0  0  0
M  END
>  <CHROM.1>
-173.40804293,64.17549659,169.30997236,165.89075404,-159.16962239,168.99089789
-62.54847664,-58.05267664,59.76020023,-0.18724806,91.11542276,10.84331036
1.69442817,1.03397006,-1.51966657

>  <Name>
2fcy_lig

>  <RI>
2.32494e+07

>  <Rbt.Current_Directory>
/home/itssahil/PROJECTS/Mol_Feturizer/New_Systems/rnas/2fcy

>  <Rbt.Executable>
rbdock ($Id: //depot/dev/client3/rdock/2013.1/src/exe/rbdock.cxx#4 $)

>  <Rbt.Library>
libRbt.so (2013.1, Build901 2013/11/27)

>  <Rbt.Parameter_File>
/export/apps/rDock/src/rDock_2013.1_src/data/scripts/dock_solv.prm

>  <Rbt.Receptor>
prm/pocket_docking_8.prm

>  <SCORE>
-28.8394

>  <SCORE.INTER>
-25.0904

>  <SCORE.INTER.CONST>
1

>  <SCORE.INTER.POLAR>
-2.57641

>  <SCORE.INTER.ROT>
9

>  <SCORE.INTER.SOLV>
21.1457

>  <SCORE.INTER.VDW>
-24.7875

>  <SCORE.INTER.norm>
-0.59739

>  <SCORE.INTRA>
-3.74902

>  <SCORE.INTRA.DIHEDRAL>
-12.4743

>  <SCORE.INTRA.DIHEDRAL.0>
17.3446

>  <SCORE.INTRA.POLAR>
0

>  <SCORE.INTRA.POLAR.0>
0

>  <SCORE.INTRA.REPUL>
0

>  <SCORE.INTRA.REPUL.0>
0

>  <SCORE.INTRA.SOLV>
-3.31734

>  <SCORE.INTRA.SOLV.lig_0>
-112.452

>  <SCORE.INTRA.VDW>
4.14679

>  <SCORE.INTRA.VDW.0>
-5.95059

>  <SCORE.INTRA.norm>
-0.0892624

>  <SCORE.RESTR>
0

>  <SCORE.RESTR.CAVITY>
0

>  <SCORE.RESTR.norm>
0

>  <SCORE.SYSTEM>
0

>  <SCORE.SYSTEM.CONST>
0

>  <SCORE.SYSTEM.DIHEDRAL>
0

>  <SCORE.SYSTEM.SOLV>
0

>  <SCORE.SYSTEM.norm>
0

>  <SCORE.heavy>
42

>  <SCORE.norm>
-0.686653

>  <RMSD>
9.082

$$$$
2fcy_lig
 OpenBabel11021811433D
libRbt.so/2013.1/901 2013/11/27
 42 45  0  0  0  0  0  0  0  0999 V2000
   -1.1454   92.9680    8.8211 C   0  0  2  0  0  0  0  0  0  0  0  0
   -1.1074   92.0400    7.7237 O   0  0  0  0  0  0  0  0  0  0  0  0
   -2.6246   93.1113    9.1824 C   0  0  2  0  0  0  0  0  0  0  0  0
   -3.1774   91.7751    9.4431 N   0  0  0  0  0  0  0  0  0  0  0  0
   -3.3771   93.7543    8.0148 C   0  0  1  0  0  0  0  0  0  0  0  0
   -4.7640   93.9027    8.3313 O   0  0  0  0  0  0  0  0  0  0  0  0
   -2.7521   95.1127    7.6957 C   0  0  2  0  0  0  0  0  0  0  0  0
   -3.3923   95.6666    6.5463 O   0  0  0  0  0  0  0  0  0  0  0  0
   -1.2731   94.9088    7.3640 C   0  0  2  0  0  0  0  0  0  0  0  0
   -0.6183   94.2632    8.4671 O   0  0  0  0  0  0  0  0  0  0  0  0
   -0.6337   96.2644    7.0522 C   0  0  0  0  0  0  0  0  0  0  0  0
    0.4335   96.5767    8.0146 N   0  0  0  0  0  0  0  0  0  0  0  0
    1.1513   88.5152    7.3769 C   0  0  2  0  0  0  0  0  0  0  0  0
    2.1624   87.4574    7.2291 N   0  0  0  0  0  0  0  0  0  0  0  0
    1.1741   89.4609    6.1744 C   0  0  0  0  0  0  0  0  0  0  0  0
    0.0180   90.4553    6.3218 C   0  0  2  0  0  0  0  0  0  0  0  0
    0.0725   91.4294    5.2222 N   0  0  0  0  0  0  0  0  0  0  0  0
    0.0810   91.2337    7.6392 C   0  0  2  0  0  0  0  0  0  0  0  0
    0.3005   90.3720    8.8776 C   0  0  2  0  0  0  0  0  0  0  0  0
    0.7135   91.2807    9.9110 O   0  0  0  0  0  0  0  0  0  0  0  0
    1.3964   89.3213    8.6548 C   0  0  1  0  0  0  0  0  0  0  0  0
    1.4505   88.4020    9.7489 O   0  0  0  0  0  0  0  0  0  0  0  0
    0.5658   90.8020   11.2576 C   0  0  1  0  0  0  0  0  0  0  0  0
    0.3765   92.0204   12.1627 C   0  0  2  0  0  0  0  0  0  0  0  0
    1.6518   92.5709   12.5009 O   0  0  0  0  0  0  0  0  0  0  0  0
   -0.2149   91.3175   13.3811 C   0  0  1  0  0  0  0  0  0  0  0  0
   -1.2308   90.4086   12.7074 C   0  0  2  0  0  0  0  0  0  0  0  0
   -0.6255   90.0142   11.4589 O   0  0  0  0  0  0  0  0  0  0  0  0
   -2.5330   91.1877   12.4894 C   0  0  0  0  0  0  0  0  0  0  0  0
   -3.0971   91.5843   13.7427 O   0  0  0  0  0  0  0  0  0  0  0  0
    1.4099   91.3031   15.0719 C   0  0  2  0  0  0  0  0  0  0  0  0
    0.7975   90.5302   14.0283 O   0  0  0  0  0  0  0  0  0  0  0  0
    2.7701   90.6952   15.4289 C   0  0  1  0  0  0  0  0  0  0  0  0
    0.6194   92.9715   19.5574 N   0  0  0  0  0  0  0  0  0  0  0  0
    3.3965   91.4436   16.6104 C   0  0  1  0  0  0  0  0  0  0  0  0
    3.7597   92.7718   16.2203 O   0  0  0  0  0  0  0  0  0  0  0  0
    2.4043   91.4968   17.7754 C   0  0  2  0  0  0  0  0  0  0  0  0
    2.1844   90.1635   18.2481 O   0  0  0  0  0  0  0  0  0  0  0  0
    1.0836   92.1094   17.2971 C   0  0  1  0  0  0  0  0  0  0  0  0
    0.5416   91.3249   16.2184 O   0  0  0  0  0  0  0  0  0  0  0  0
    0.0623   92.2039   18.4339 C   0  0  0  0  0  0  0  0  0  0  0  0
    2.5712   89.2917   15.8209 N   0  0  0  0  0  0  0  0  0  0  0  0
  1  2  1  6  0  0  0
  1  3  1  0  0  0  0
  1 10  1  0  0  0  0
  3  4  1  6  0  0  0
  3  5  1  0  0  0  0
  5  6  1  1  0  0  0
  5  7  1  0  0  0  0
  7  8  1  6  0  0  0
  7  9  1  0  0  0  0
  9 10  1  0  0  0  0
  9 11  1  1  0  0  0
 11 12  1  0  0  0  0
 13 14  1  6  0  0  0
 13 15  1  0  0  0  0
 13 21  1  0  0  0  0
 16 15  1  0  0  0  0
 16 17  1  6  0  0  0
 18  2  1  1  0  0  0
 18 16  1  0  0  0  0
 19 18  1  0  0  0  0
 19 20  1  1  0  0  0
 21 19  1  0  0  0  0
 21 22  1  1  0  0  0
 23 20  1  6  0  0  0
 23 24  1  0  0  0  0
 23 28  1  0  0  0  0
 24 25  1  1  0  0  0
 24 26  1  0  0  0  0
 26 27  1  0  0  0  0
 26 32  1  6  0  0  0
 27 28  1  0  0  0  0
 27 29  1  6  0  0  0
 29 30  1  0  0  0  0
 31 32  1  6  0  0  0
 31 40  1  0  0  0  0
 33 31  1  0  0  0  0
 33 42  1  1  0  0  0
 35 33  1  0  0  0  0
 35 36  1  6  0  0  0
 37 35  1  0  0  0  0
 37 38  1  6  0  0  0
 37 39  1  0  0  0  0
 39 40  1  0  0  0  0
 39 41  1  1  0  0  0
 41 34  1  0  0  0  0
M  END
>  <CHROM.1>
-149.60375412,117.97106766,-172.65076599,160.55861245,-152.64468036,93.50264798
-62.74398602,-160.33101137,56.29892266,0.00135078,91.78225252,11.31709385
2.05167850,0.92513810,-1.81521178

>  <Name>
2fcy_lig

>  <RI>
2.89127e+07

>  <Rbt.Current_Directory>
/home/itssahil/PROJECTS/Mol_Feturizer/New_Systems/rnas/2fcy

>  <Rbt.Executable>
rbdock ($Id: //depot/dev/client3/rdock/2013.1/src/exe/rbdock.cxx#4 $)

>  <Rbt.Library>
libRbt.so (2013.1, Build901 2013/11/27)

>  <Rbt.Parameter_File>
/export/apps/rDock/src/rDock_2013.1_src/data/scripts/dock_solv.prm

>  <Rbt.Receptor>
prm/pocket_docking_7.prm

>  <SCORE>
-18.4928

>  <SCORE.INTER>
-20.8307

>  <SCORE.INTER.CONST>
1

>  <SCORE.INTER.POLAR>
-3.61608

>  <SCORE.INTER.ROT>
9

>  <SCORE.INTER.SOLV>
19.546

>  <SCORE.INTER.VDW>
-17.9489

>  <SCORE.INTER.norm>
-0.495969

>  <SCORE.INTRA>
2.3379

>  <SCORE.INTRA.DIHEDRAL>
2.91872

>  <SCORE.INTRA.DIHEDRAL.0>
17.3446

>  <SCORE.INTRA.POLAR>
0

>  <SCORE.INTRA.POLAR.0>
0

>  <SCORE.INTRA.REPUL>
0

>  <SCORE.INTRA.REPUL.0>
0

>  <SCORE.INTRA.SOLV>
-2.43807

>  <SCORE.INTRA.SOLV.lig_0>
-112.452

>  <SCORE.INTRA.VDW>
2.09758

>  <SCORE.INTRA.VDW.0>
-5.95059

>  <SCORE.INTRA.norm>
0.0556644

>  <SCORE.RESTR>
0

>  <SCORE.RESTR.CAVITY>
0

>  <SCORE.RESTR.norm>
0

>  <SCORE.SYSTEM>
0

>  <SCORE.SYSTEM.CONST>
0

>  <SCORE.SYSTEM.DIHEDRAL>
0

>  <SCORE.SYSTEM.SOLV>
0

>  <SCORE.SYSTEM.norm>
0

>  <SCORE.heavy>
42

>  <SCORE.norm>
-0.440304

>  <RMSD>
9.104

$$$$
2fcy_lig
 OpenBabel11021811433D
libRbt.so/2013.1/901 2013/11/27
 42 45  0  0  0  0  0  0  0  0999 V2000
   -4.2196   91.8467    9.0707 C   0  0  2  0  0  0  0  0  0  0  0  0
   -3.3568   92.1981    7.9756 O   0  0  0  0  0  0  0  0  0  0  0  0
   -4.8288   90.4959    8.6922 C   0  0  2  0  0  0  0  0  0  0  0  0
   -3.7402   89.5546    8.3958 N   0  0  0  0  0  0  0  0  0  0  0  0
   -5.7102   90.6611    7.4516 C   0  0  1  0  0  0  0  0  0  0  0  0
   -6.2953   89.4099    7.0803 O   0  0  0  0  0  0  0  0  0  0  0  0
   -6.7978   91.6973    7.7370 C   0  0  2  0  0  0  0  0  0  0  0  0
   -7.5579   91.9205    6.5495 O   0  0  0  0  0  0  0  0  0  0  0  0
   -6.1306   93.0164    8.1294 C   0  0  2  0  0  0  0  0  0  0  0  0
   -5.2802   92.8044    9.2670 O   0  0  0  0  0  0  0  0  0  0  0  0
   -7.2106   94.0597    8.4274 C   0  0  0  0  0  0  0  0  0  0  0  0
   -6.6088   95.3582    8.7657 N   0  0  0  0  0  0  0  0  0  0  0  0
    0.2222   94.3968    7.9277 C   0  0  2  0  0  0  0  0  0  0  0  0
    1.3121   95.3819    7.9964 N   0  0  0  0  0  0  0  0  0  0  0  0
   -0.8850   94.8756    6.9866 C   0  0  0  0  0  0  0  0  0  0  0  0
   -1.9220   93.7557    6.8539 C   0  0  2  0  0  0  0  0  0  0  0  0
   -3.0402   94.2255    6.0233 N   0  0  0  0  0  0  0  0  0  0  0  0
   -2.4942   93.3256    8.2079 C   0  0  2  0  0  0  0  0  0  0  0  0
   -1.4486   93.0585    9.2848 C   0  0  2  0  0  0  0  0  0  0  0  0
   -2.1675   93.0603   10.5287 O   0  0  0  0  0  0  0  0  0  0  0  0
   -0.3709   94.1504    9.3171 C   0  0  1  0  0  0  0  0  0  0  0  0
    0.6995   93.7838   10.1916 O   0  0  0  0  0  0  0  0  0  0  0  0
   -1.4612   92.5207   11.6575 C   0  0  1  0  0  0  0  0  0  0  0  0
   -1.5463   93.5465   12.7889 C   0  0  2  0  0  0  0  0  0  0  0  0
   -0.5234   94.5313   12.6230 O   0  0  0  0  0  0  0  0  0  0  0  0
   -1.1909   92.6343   13.9594 C   0  0  1  0  0  0  0  0  0  0  0  0
   -2.0593   91.4276   13.6405 C   0  0  2  0  0  0  0  0  0  0  0  0
   -2.0714   91.3322   12.2012 O   0  0  0  0  0  0  0  0  0  0  0  0
   -3.4644   91.6571   14.2091 C   0  0  0  0  0  0  0  0  0  0  0  0
   -3.4202   91.7476   15.6361 O   0  0  0  0  0  0  0  0  0  0  0  0
    0.7749   92.3436   15.2043 C   0  0  2  0  0  0  0  0  0  0  0  0
    0.1979   92.2735   13.8915 O   0  0  0  0  0  0  0  0  0  0  0  0
    2.2906   92.1421   15.1094 C   0  0  1  0  0  0  0  0  0  0  0  0
    0.1276   89.0024   17.7614 N   0  0  0  0  0  0  0  0  0  0  0  0
    2.9146   92.1116   16.5087 C   0  0  1  0  0  0  0  0  0  0  0  0
    2.8259   93.4027   17.1200 O   0  0  0  0  0  0  0  0  0  0  0  0
    2.1938   91.0754   17.3754 C   0  0  2  0  0  0  0  0  0  0  0  0
    2.4353   89.7752   16.8271 O   0  0  0  0  0  0  0  0  0  0  0  0
    0.6902   91.3708   17.3849 C   0  0  1  0  0  0  0  0  0  0  0  0
    0.1758   91.3382   16.0406 O   0  0  0  0  0  0  0  0  0  0  0  0
   -0.0746   90.3717   18.2573 C   0  0  0  0  0  0  0  0  0  0  0  0
    2.5548   90.8518   14.4548 N   0  0  0  0  0  0  0  0  0  0  0  0
  1  2  1  6  0  0  0
  1  3  1  0  0  0  0
  1 10  1  0  0  0  0
  3  4  1  6  0  0  0
  3  5  1  0  0  0  0
  5  6  1  1  0  0  0
  5  7  1  0  0  0  0
  7  8  1  6  0  0  0
  7  9  1  0  0  0  0
  9 10  1  0  0  0  0
  9 11  1  1  0  0  0
 11 12  1  0  0  0  0
 13 14  1  1  0  0  0
 13 15  1  0  0  0  0
 13 21  1  0  0  0  0
 16 15  1  0  0  0  0
 16 17  1  6  0  0  0
 18  2  1  6  0  0  0
 18 16  1  0  0  0  0
 19 18  1  0  0  0  0
 19 20  1  1  0  0  0
 21 19  1  0  0  0  0
 21 22  1  1  0  0  0
 23 20  1  6  0  0  0
 23 24  1  0  0  0  0
 23 28  1  0  0  0  0
 24 25  1  6  0  0  0
 24 26  1  0  0  0  0
 26 27  1  0  0  0  0
 26 32  1  6  0  0  0
 27 28  1  0  0  0  0
 27 29  1  6  0  0  0
 29 30  1  0  0  0  0
 31 32  1  6  0  0  0
 31 40  1  0  0  0  0
 33 31  1  0  0  0  0
 33 42  1  1  0  0  0
 35 33  1  0  0  0  0
 35 36  1  1  0  0  0
 37 35  1  0  0  0  0
 37 38  1  6  0  0  0
 37 39  1  0  0  0  0
 39 40  1  0  0  0  0
 39 41  1  1  0  0  0
 41 34  1  0  0  0  0
M  END
>  <CHROM.1>
-169.72532694,-178.09509482,-166.30837327,165.82169697,128.78923455,137.39134115
-63.71609188,-172.54041005,-59.38779728,-1.82870053,92.33369300,11.53726330
2.23526110,-0.41218995,-1.13186088

>  <Name>
2fcy_lig

>  <RI>
0

>  <Rbt.Current_Directory>
/home/itssahil/PROJECTS/Mol_Feturizer/New_Systems/rnas/2fcy

>  <Rbt.Executable>
rbdock ($Id: //depot/dev/client3/rdock/2013.1/src/exe/rbdock.cxx#4 $)

>  <Rbt.Library>
libRbt.so (2013.1, Build901 2013/11/27)

>  <Rbt.Parameter_File>
/export/apps/rDock/src/rDock_2013.1_src/data/scripts/dock_solv.prm

>  <Rbt.Receptor>
prm/pocket_docking_5.prm

>  <SCORE>
-9.86186

>  <SCORE.INTER>
-8.88097

>  <SCORE.INTER.CONST>
1

>  <SCORE.INTER.POLAR>
-1.60293

>  <SCORE.INTER.ROT>
9

>  <SCORE.INTER.SOLV>
19.4049

>  <SCORE.INTER.VDW>
-16.6458

>  <SCORE.INTER.norm>
-0.211452

>  <SCORE.INTRA>
-0.98089

>  <SCORE.INTRA.DIHEDRAL>
-2.11684

>  <SCORE.INTRA.DIHEDRAL.0>
17.3446

>  <SCORE.INTRA.POLAR>
0

>  <SCORE.INTRA.POLAR.0>
0

>  <SCORE.INTRA.REPUL>
0.0356781

>  <SCORE.INTRA.REPUL.0>
0

>  <SCORE.INTRA.SOLV>
-3.36019

>  <SCORE.INTRA.SOLV.lig_0>
-112.452

>  <SCORE.INTRA.VDW>
1.57923

>  <SCORE.INTRA.VDW.0>
-5.95059

>  <SCORE.INTRA.norm>
-0.0233545

>  <SCORE.RESTR>
0

>  <SCORE.RESTR.CAVITY>
0

>  <SCORE.RESTR.norm>
0

>  <SCORE.SYSTEM>
0

>  <SCORE.SYSTEM.CONST>
0

>  <SCORE.SYSTEM.DIHEDRAL>
0

>  <SCORE.SYSTEM.SOLV>
0

>  <SCORE.SYSTEM.norm>
0

>  <SCORE.heavy>
42

>  <SCORE.norm>
-0.234806

>  <RMSD>
9.107

$$$$
2fcy_lig
 OpenBabel11021811433D
libRbt.so/2013.1/901 2013/11/27
 42 45  0  0  0  0  0  0  0  0999 V2000
   -3.9281   91.8283    8.2803 C   0  0  2  0  0  0  0  0  0  0  0  0
   -3.1420   92.5602    7.3245 O   0  0  0  0  0  0  0  0  0  0  0  0
   -4.5013   90.6378    7.5100 C   0  0  2  0  0  0  0  0  0  0  0  0
   -3.3930   89.9043    6.8836 N   0  0  0  0  0  0  0  0  0  0  0  0
   -5.4557   91.1418    6.4245 C   0  0  1  0  0  0  0  0  0  0  0  0
   -6.0086   90.0445    5.6923 O   0  0  0  0  0  0  0  0  0  0  0  0
   -6.5675   91.9687    7.0712 C   0  0  2  0  0  0  0  0  0  0  0  0
   -7.4003   92.5173    6.0499 O   0  0  0  0  0  0  0  0  0  0  0  0
   -5.9343   93.1280    7.8421 C   0  0  2  0  0  0  0  0  0  0  0  0
   -5.0146   92.6110    8.8164 O   0  0  0  0  0  0  0  0  0  0  0  0
   -7.0381   93.9580    8.5027 C   0  0  0  0  0  0  0  0  0  0  0  0
   -6.4694   95.0876    9.2532 N   0  0  0  0  0  0  0  0  0  0  0  0
    0.3742   94.6899    8.1891 C   0  0  2  0  0  0  0  0  0  0  0  0
    1.4282   95.6355    8.5863 N   0  0  0  0  0  0  0  0  0  0  0  0
   -0.5837   95.3338    7.1847 C   0  0  0  0  0  0  0  0  0  0  0  0
   -1.5741   94.2654    6.7105 C   0  0  2  0  0  0  0  0  0  0  0  0
   -2.5593   94.8820    5.8106 N   0  0  0  0  0  0  0  0  0  0  0  0
   -2.3392   93.6218    7.8706 C   0  0  2  0  0  0  0  0  0  0  0  0
   -1.4656   93.1646    9.0334 C   0  0  2  0  0  0  0  0  0  0  0  0
   -2.3647   92.9671   10.1364 O   0  0  0  0  0  0  0  0  0  0  0  0
   -0.4195   94.2218    9.4113 C   0  0  1  0  0  0  0  0  0  0  0  0
    0.5106   93.7001   10.3640 O   0  0  0  0  0  0  0  0  0  0  0  0
   -1.8926   92.0964   11.1772 C   0  0  1  0  0  0  0  0  0  0  0  0
   -2.1914   92.7728   12.5161 C   0  0  2  0  0  0  0  0  0  0  0  0
   -1.1520   93.7038   12.8270 O   0  0  0  0  0  0  0  0  0  0  0  0
   -2.0728   91.5537   13.4261 C   0  0  1  0  0  0  0  0  0  0  0  0
   -2.8675   90.5347   12.6248 C   0  0  2  0  0  0  0  0  0  0  0  0
   -2.6009   90.8415   11.2407 O   0  0  0  0  0  0  0  0  0  0  0  0
   -4.3553   90.6796   12.9652 C   0  0  0  0  0  0  0  0  0  0  0  0
   -5.1381   89.7609   12.1973 O   0  0  0  0  0  0  0  0  0  0  0  0
   -0.4595   90.5542   14.8034 C   0  0  2  0  0  0  0  0  0  0  0  0
   -0.6986   91.1454   13.5170 O   0  0  0  0  0  0  0  0  0  0  0  0
   -0.5894   91.6248   15.8915 C   0  0  1  0  0  0  0  0  0  0  0  0
    2.8580   88.0381   17.2930 N   0  0  0  0  0  0  0  0  0  0  0  0
   -0.2384   91.0383   17.2631 C   0  0  1  0  0  0  0  0  0  0  0  0
   -1.2295   90.0871   17.6646 O   0  0  0  0  0  0  0  0  0  0  0  0
    1.1350   90.3642   17.2027 C   0  0  2  0  0  0  0  0  0  0  0  0
    2.1254   91.3685   16.9579 O   0  0  0  0  0  0  0  0  0  0  0  0
    1.1484   89.3269   16.0748 C   0  0  1  0  0  0  0  0  0  0  0  0
    0.8526   89.9649   14.8186 O   0  0  0  0  0  0  0  0  0  0  0  0
    2.4975   88.6082   15.9866 C   0  0  0  0  0  0  0  0  0  0  0  0
    0.3540   92.7139   15.5968 N   0  0  0  0  0  0  0  0  0  0  0  0
  1  2  1  6  0  0  0
  1  3  1  0  0  0  0
  1 10  1  0  0  0  0
  3  4  1  6  0  0  0
  3  5  1  0  0  0  0
  5  6  1  1  0  0  0
  5  7  1  0  0  0  0
  7  8  1  6  0  0  0
  7  9  1  0  0  0  0
  9 10  1  0  0  0  0
  9 11  1  1  0  0  0
 11 12  1  0  0  0  0
 13 14  1  1  0  0  0
 13 15  1  0  0  0  0
 13 21  1  0  0  0  0
 16 15  1  0  0  0  0
 16 17  1  6  0  0  0
 18  2  1  6  0  0  0
 18 16  1  0  0  0  0
 19 18  1  0  0  0  0
 19 20  1  1  0  0  0
 21 19  1  0  0  0  0
 21 22  1  1  0  0  0
 23 20  1  6  0  0  0
 23 24  1  0  0  0  0
 23 28  1  0  0  0  0
 24 25  1  1  0  0  0
 24 26  1  0  0  0  0
 26 27  1  0  0  0  0
 26 32  1  6  0  0  0
 27 28  1  0  0  0  0
 27 29  1  6  0  0  0
 29 30  1  0  0  0  0
 31 32  1  6  0  0  0
 31 40  1  0  0  0  0
 33 31  1  0  0  0  0
 33 42  1  6  0  0  0
 35 33  1  0  0  0  0
 35 36  1  6  0  0  0
 37 35  1  0  0  0  0
 37 38  1  6  0  0  0
 37 39  1  0  0  0  0
 39 40  1  0  0  0  0
 39 41  1  6  0  0  0
 41 34  1  0  0  0  0
M  END
>  <CHROM.1>
-171.15662359,-179.86204144,179.45858640,158.24860747,134.54342098,149.37294794
178.26668033,-67.07065214,53.64134620,-2.11717902,91.99853692,11.08527864
2.14979911,-0.44599775,-1.03023211

>  <Name>
2fcy_lig

>  <RI>
4.13508e+07

>  <Rbt.Current_Directory>
/home/itssahil/PROJECTS/Mol_Feturizer/New_Systems/rnas/2fcy

>  <Rbt.Executable>
rbdock ($Id: //depot/dev/client3/rdock/2013.1/src/exe/rbdock.cxx#4 $)

>  <Rbt.Library>
libRbt.so (2013.1, Build901 2013/11/27)

>  <Rbt.Parameter_File>
/export/apps/rDock/src/rDock_2013.1_src/data/scripts/dock_solv.prm

>  <Rbt.Receptor>
prm/pocket_docking_3.prm

>  <SCORE>
-15.6279

>  <SCORE.INTER>
-14.167

>  <SCORE.INTER.CONST>
1

>  <SCORE.INTER.POLAR>
-2.02027

>  <SCORE.INTER.ROT>
9

>  <SCORE.INTER.SOLV>
18.612

>  <SCORE.INTER.VDW>
-18.5145

>  <SCORE.INTER.norm>
-0.33731

>  <SCORE.INTRA>
-1.77455

>  <SCORE.INTRA.DIHEDRAL>
-4.36975

>  <SCORE.INTRA.DIHEDRAL.0>
17.3446

>  <SCORE.INTRA.POLAR>
0

>  <SCORE.INTRA.POLAR.0>
0

>  <SCORE.INTRA.REPUL>
0.0101363

>  <SCORE.INTRA.REPUL.0>
0

>  <SCORE.INTRA.SOLV>
-4.00192

>  <SCORE.INTRA.SOLV.lig_0>
-112.452

>  <SCORE.INTRA.VDW>
2.3606

>  <SCORE.INTRA.VDW.0>
-5.95059

>  <SCORE.INTRA.norm>
-0.0422513

>  <SCORE.RESTR>
0.313701

>  <SCORE.RESTR.CAVITY>
0.313701

>  <SCORE.RESTR.norm>
0.00746907

>  <SCORE.SYSTEM>
0

>  <SCORE.SYSTEM.CONST>
0

>  <SCORE.SYSTEM.DIHEDRAL>
0

>  <SCORE.SYSTEM.SOLV>
0

>  <SCORE.SYSTEM.norm>
0

>  <SCORE.heavy>
42

>  <SCORE.norm>
-0.372093

>  <RMSD>
9.129

$$$$
2fcy_lig
 OpenBabel11021811433D
libRbt.so/2013.1/901 2013/11/27
 42 45  0  0  0  0  0  0  0  0999 V2000
   -3.7774   90.6766    7.5657 C   0  0  2  0  0  0  0  0  0  0  0  0
   -3.7374   89.2751    7.8840 O   0  0  0  0  0  0  0  0  0  0  0  0
   -5.2398   91.0911    7.7346 C   0  0  2  0  0  0  0  0  0  0  0  0
   -5.6817   90.7197    9.0858 N   0  0  0  0  0  0  0  0  0  0  0  0
   -6.1013   90.3632    6.6996 C   0  0  1  0  0  0  0  0  0  0  0  0
   -7.4748   90.7385    6.8353 O   0  0  0  0  0  0  0  0  0  0  0  0
   -5.5925   90.6915    5.2956 C   0  0  2  0  0  0  0  0  0  0  0  0
   -6.3348   89.9368    4.3379 O   0  0  0  0  0  0  0  0  0  0  0  0
   -4.1243   90.2755    5.1940 C   0  0  2  0  0  0  0  0  0  0  0  0
   -3.3637   90.9467    6.2105 O   0  0  0  0  0  0  0  0  0  0  0  0
   -3.6005   90.6087    3.7946 C   0  0  0  0  0  0  0  0  0  0  0  0
   -2.2571   90.0473    3.5879 N   0  0  0  0  0  0  0  0  0  0  0  0
   -0.4128   87.0031    9.0806 C   0  0  2  0  0  0  0  0  0  0  0  0
    0.8317   86.2336    9.2291 N   0  0  0  0  0  0  0  0  0  0  0  0
   -1.3075   86.3874    8.0030 C   0  0  0  0  0  0  0  0  0  0  0  0
   -2.6369   87.1488    7.9879 C   0  0  2  0  0  0  0  0  0  0  0  0
   -3.4802   86.6314    6.9007 N   0  0  0  0  0  0  0  0  0  0  0  0
   -2.4474   88.6510    7.7578 C   0  0  2  0  0  0  0  0  0  0  0  0
   -1.3869   89.3011    8.6394 C   0  0  2  0  0  0  0  0  0  0  0  0
   -1.0920   90.5634    8.0201 O   0  0  0  0  0  0  0  0  0  0  0  0
   -0.1077   88.4566    8.7101 C   0  0  1  0  0  0  0  0  0  0  0  0
    0.7936   88.9784    9.6901 O   0  0  0  0  0  0  0  0  0  0  0  0
   -0.5029   91.5553    8.8765 C   0  0  1  0  0  0  0  0  0  0  0  0
   -0.3964   92.8534    8.0745 C   0  0  2  0  0  0  0  0  0  0  0  0
    0.7940   92.8334    7.2831 O   0  0  0  0  0  0  0  0  0  0  0  0
   -0.2220   93.8310    9.2331 C   0  0  1  0  0  0  0  0  0  0  0  0
   -1.3011   93.3297   10.1799 C   0  0  2  0  0  0  0  0  0  0  0  0
   -1.3271   91.8976   10.0095 O   0  0  0  0  0  0  0  0  0  0  0  0
   -2.6394   93.9741    9.8004 C   0  0  0  0  0  0  0  0  0  0  0  0
   -2.5283   95.4003    9.8004 O   0  0  0  0  0  0  0  0  0  0  0  0
    1.2689   94.6450   10.8496 C   0  0  2  0  0  0  0  0  0  0  0  0
    1.0742   93.6562    9.8270 O   0  0  0  0  0  0  0  0  0  0  0  0
    1.1901   96.0444   10.2310 C   0  0  1  0  0  0  0  0  0  0  0  0
    4.2602   95.8418   14.4608 N   0  0  0  0  0  0  0  0  0  0  0  0
    1.4960   97.1132   11.2857 C   0  0  1  0  0  0  0  0  0  0  0  0
    0.4497   97.1619   12.2610 O   0  0  0  0  0  0  0  0  0  0  0  0
    2.8299   96.8003   11.9694 C   0  0  2  0  0  0  0  0  0  0  0  0
    3.8772   96.9168   11.0003 O   0  0  0  0  0  0  0  0  0  0  0  0
    2.7945   95.3770   12.5363 C   0  0  1  0  0  0  0  0  0  0  0  0
    2.5456   94.4337   11.4776 O   0  0  0  0  0  0  0  0  0  0  0  0
    4.1018   95.0225   13.2502 C   0  0  0  0  0  0  0  0  0  0  0  0
    2.1956   96.1451    9.1624 N   0  0  0  0  0  0  0  0  0  0  0  0
  1  2  1  6  0  0  0
  1  3  1  0  0  0  0
  1 10  1  0  0  0  0
  3  4  1  1  0  0  0
  3  5  1  0  0  0  0
  5  6  1  6  0  0  0
  5  7  1  0  0  0  0
  7  8  1  6  0  0  0
  7  9  1  0  0  0  0
  9 10  1  0  0  0  0
  9 11  1  6  0  0  0
 11 12  1  0  0  0  0
 13 14  1  6  0  0  0
 13 15  1  0  0  0  0
 13 21  1  0  0  0  0
 16 15  1  0  0  0  0
 16 17  1  6  0  0  0
 18  2  1  1  0  0  0
 18 16  1  0  0  0  0
 19 18  1  0  0  0  0
 19 20  1  6  0  0  0
 21 19  1  0  0  0  0
 21 22  1  1  0  0  0
 23 20  1  6  0  0  0
 23 24  1  0  0  0  0
 23 28  1  0  0  0  0
 24 25  1  6  0  0  0
 24 26  1  0  0  0  0
 26 27  1  0  0  0  0
 26 32  1  1  0  0  0
 27 28  1  0  0  0  0
 27 29  1  6  0  0  0
 29 30  1  0  0  0  0
 31 32  1  6  0  0  0
 31 40  1  0  0  0  0
 33 31  1  0  0  0  0
 33 42  1  6  0  0  0
 35 33  1  0  0  0  0
 35 36  1  1  0  0  0
 37 35  1  0  0  0  0
 37 38  1  6  0  0  0
 37 39  1  0  0  0  0
 39 40  1  0  0  0  0
 39 41  1  6  0  0  0
 41 34  1  0  0  0  0
M  END
>  <CHROM.1>
178.42265709,-171.62124461,-173.99467554,158.55266271,-174.51721682,175.72494081
-55.70829029,-60.62725058,66.84094072,-1.15625828,91.92264203,8.80462301
2.37113424,0.54978908,-2.96770865

>  <Name>
2fcy_lig

>  <RI>
224

>  <Rbt.Current_Directory>
/home/itssahil/PROJECTS/Mol_Feturizer/New_Systems/rnas/2fcy

>  <Rbt.Executable>
rbdock ($Id: //depot/dev/client3/rdock/2013.1/src/exe/rbdock.cxx#4 $)

>  <Rbt.Library>
libRbt.so (2013.1, Build901 2013/11/27)

>  <Rbt.Parameter_File>
/export/apps/rDock/src/rDock_2013.1_src/data/scripts/dock_solv.prm

>  <Rbt.Receptor>
prm/pocket_docking_6.prm

>  <SCORE>
-16.5011

>  <SCORE.INTER>
-10.1379

>  <SCORE.INTER.CONST>
1

>  <SCORE.INTER.POLAR>
-2.84945

>  <SCORE.INTER.ROT>
9

>  <SCORE.INTER.SOLV>
16.5919

>  <SCORE.INTER.VDW>
-12.391

>  <SCORE.INTER.norm>
-0.241378

>  <SCORE.INTRA>
-6.43389

>  <SCORE.INTRA.DIHEDRAL>
-13.7529

>  <SCORE.INTRA.DIHEDRAL.0>
17.3446

>  <SCORE.INTRA.POLAR>
0

>  <SCORE.INTRA.POLAR.0>
0

>  <SCORE.INTRA.REPUL>
0

>  <SCORE.INTRA.REPUL.0>
0

>  <SCORE.INTRA.SOLV>
-4.75548

>  <SCORE.INTRA.SOLV.lig_0>
-112.452

>  <SCORE.INTRA.VDW>
2.8203

>  <SCORE.INTRA.VDW.0>
-5.95059

>  <SCORE.INTRA.norm>
-0.153188

>  <SCORE.RESTR>
0.0706282

>  <SCORE.RESTR.CAVITY>
0.0706282

>  <SCORE.RESTR.norm>
0.00168162

>  <SCORE.SYSTEM>
0

>  <SCORE.SYSTEM.CONST>
0

>  <SCORE.SYSTEM.DIHEDRAL>
0

>  <SCORE.SYSTEM.SOLV>
0

>  <SCORE.SYSTEM.norm>
0

>  <SCORE.heavy>
42

>  <SCORE.norm>
-0.392884

>  <RMSD>
9.139

$$$$
2fcy_lig
 OpenBabel11021811433D
libRbt.so/2013.1/901 2013/11/27
 42 45  0  0  0  0  0  0  0  0999 V2000
   -4.2460   91.2943    9.2852 C   0  0  2  0  0  0  0  0  0  0  0  0
   -3.2818   91.4991    8.2384 O   0  0  0  0  0  0  0  0  0  0  0  0
   -5.0604   90.0731    8.8556 C   0  0  2  0  0  0  0  0  0  0  0  0
   -4.1380   88.9593    8.5960 N   0  0  0  0  0  0  0  0  0  0  0  0
   -5.8368   90.3991    7.5773 C   0  0  1  0  0  0  0  0  0  0  0  0
   -6.6106   89.2717    7.1578 O   0  0  0  0  0  0  0  0  0  0  0  0
   -6.7412   91.6063    7.8276 C   0  0  2  0  0  0  0  0  0  0  0  0
   -7.3910   91.9679    6.6091 O   0  0  0  0  0  0  0  0  0  0  0  0
   -5.8759   92.7861    8.2732 C   0  0  2  0  0  0  0  0  0  0  0  0
   -5.1330   92.4203    9.4465 O   0  0  0  0  0  0  0  0  0  0  0  0
   -6.7723   93.9989    8.5366 C   0  0  0  0  0  0  0  0  0  0  0  0
   -7.7106   93.7308    9.6368 N   0  0  0  0  0  0  0  0  0  0  0  0
    0.3197   93.6583    8.1228 C   0  0  2  0  0  0  0  0  0  0  0  0
    1.4178   94.6363    8.1496 N   0  0  0  0  0  0  0  0  0  0  0  0
   -0.7623   94.0828    7.1278 C   0  0  0  0  0  0  0  0  0  0  0  0
   -1.8076   92.9656    7.0473 C   0  0  2  0  0  0  0  0  0  0  0  0
   -2.9028   93.3886    6.1627 N   0  0  0  0  0  0  0  0  0  0  0  0
   -2.4129   92.6321    8.4139 C   0  0  2  0  0  0  0  0  0  0  0  0
   -1.3933   92.4286    9.5290 C   0  0  2  0  0  0  0  0  0  0  0  0
   -2.1386   92.5198   10.7539 O   0  0  0  0  0  0  0  0  0  0  0  0
   -0.3055   93.5107    9.5121 C   0  0  1  0  0  0  0  0  0  0  0  0
    0.7422   93.1941   10.4325 O   0  0  0  0  0  0  0  0  0  0  0  0
   -1.4250   92.1551   11.9464 C   0  0  1  0  0  0  0  0  0  0  0  0
   -1.5032   93.3390   12.9117 C   0  0  2  0  0  0  0  0  0  0  0  0
   -0.4818   94.2872   12.5934 O   0  0  0  0  0  0  0  0  0  0  0  0
   -1.1400   92.6125   14.2034 C   0  0  1  0  0  0  0  0  0  0  0  0
   -2.0099   91.3721   14.0746 C   0  0  2  0  0  0  0  0  0  0  0  0
   -2.0311   91.0620   12.6660 O   0  0  0  0  0  0  0  0  0  0  0  0
   -3.4114   91.6850   14.6113 C   0  0  0  0  0  0  0  0  0  0  0  0
   -3.3734   91.8890   16.0267 O   0  0  0  0  0  0  0  0  0  0  0  0
    0.7131   92.0513   15.5262 C   0  0  2  0  0  0  0  0  0  0  0  0
    0.2485   92.2448   14.1815 O   0  0  0  0  0  0  0  0  0  0  0  0
    2.2233   91.7942   15.5145 C   0  0  1  0  0  0  0  0  0  0  0  0
   -0.1272   89.4291   19.5147 N   0  0  0  0  0  0  0  0  0  0  0  0
    2.7238   91.4840   16.9294 C   0  0  1  0  0  0  0  0  0  0  0  0
    2.6286   92.6485   17.7559 O   0  0  0  0  0  0  0  0  0  0  0  0
    1.8954   90.3475   17.5349 C   0  0  2  0  0  0  0  0  0  0  0  0
    2.1369   89.1552   16.7803 O   0  0  0  0  0  0  0  0  0  0  0  0
    0.4078   90.7115   17.4808 C   0  0  1  0  0  0  0  0  0  0  0  0
    0.0096   90.9444   16.1170 O   0  0  0  0  0  0  0  0  0  0  0  0
   -0.4636   89.6127   18.0952 C   0  0  0  0  0  0  0  0  0  0  0  0
    2.4969   90.6293   14.6594 N   0  0  0  0  0  0  0  0  0  0  0  0
  1  2  1  6  0  0  0
  1  3  1  0  0  0  0
  1 10  1  0  0  0  0
  3  4  1  6  0  0  0
  3  5  1  0  0  0  0
  5  6  1  1  0  0  0
  5  7  1  0  0  0  0
  7  8  1  6  0  0  0
  7  9  1  0  0  0  0
  9 10  1  0  0  0  0
  9 11  1  1  0  0  0
 11 12  1  0  0  0  0
 13 14  1  1  0  0  0
 13 15  1  0  0  0  0
 13 21  1  0  0  0  0
 16 15  1  0  0  0  0
 16 17  1  6  0  0  0
 18  2  1  6  0  0  0
 18 16  1  0  0  0  0
 19 18  1  0  0  0  0
 19 20  1  1  0  0  0
 21 19  1  0  0  0  0
 21 22  1  1  0  0  0
 23 20  1  6  0  0  0
 23 24  1  0  0  0  0
 23 28  1  0  0  0  0
 24 25  1  6  0  0  0
 24 26  1  0  0  0  0
 26 27  1  0  0  0  0
 26 32  1  6  0  0  0
 27 28  1  0  0  0  0
 27 29  1  6  0  0  0
 29 30  1  0  0  0  0
 31 32  1  6  0  0  0
 31 40  1  0  0  0  0
 33 31  1  0  0  0  0
 33 42  1  6  0  0  0
 35 33  1  0  0  0  0
 35 36  1  1  0  0  0
 37 35  1  0  0  0  0
 37 38  1  6  0  0  0
 37 39  1  0  0  0  0
 39 40  1  0  0  0  0
 39 41  1  6  0  0  0
 41 34  1  0  0  0  0
M  END
>  <CHROM.1>
178.53341515,62.88750577,-161.41326718,170.77201560,124.19913580,157.76549609
-68.09256603,-174.49369515,61.69841952,-1.87770127,91.90880628,11.79613077
2.18290078,-0.32087465,-1.23457901

>  <Name>
2fcy_lig

>  <RI>
2.89127e+07

>  <Rbt.Current_Directory>
/home/itssahil/PROJECTS/Mol_Feturizer/New_Systems/rnas/2fcy

>  <Rbt.Executable>
rbdock ($Id: //depot/dev/client3/rdock/2013.1/src/exe/rbdock.cxx#4 $)

>  <Rbt.Library>
libRbt.so (2013.1, Build901 2013/11/27)

>  <Rbt.Parameter_File>
/export/apps/rDock/src/rDock_2013.1_src/data/scripts/dock_solv.prm

>  <Rbt.Receptor>
prm/pocket_docking_7.prm

>  <SCORE>
-13.1958

>  <SCORE.INTER>
-11.1692

>  <SCORE.INTER.CONST>
1

>  <SCORE.INTER.POLAR>
-1.56042

>  <SCORE.INTER.ROT>
9

>  <SCORE.INTER.SOLV>
18.9276

>  <SCORE.INTER.VDW>
-18.154

>  <SCORE.INTER.norm>
-0.265934

>  <SCORE.INTRA>
-2.02654

>  <SCORE.INTRA.DIHEDRAL>
-5.40696

>  <SCORE.INTRA.DIHEDRAL.0>
17.3446

>  <SCORE.INTRA.POLAR>
0

>  <SCORE.INTRA.POLAR.0>
0

>  <SCORE.INTRA.REPUL>
0.0959041

>  <SCORE.INTRA.REPUL.0>
0

>  <SCORE.INTRA.SOLV>
-2.92861

>  <SCORE.INTRA.SOLV.lig_0>
-112.452

>  <SCORE.INTRA.VDW>
1.66172

>  <SCORE.INTRA.VDW.0>
-5.95059

>  <SCORE.INTRA.norm>
-0.048251

>  <SCORE.RESTR>
0

>  <SCORE.RESTR.CAVITY>
0

>  <SCORE.RESTR.norm>
0

>  <SCORE.SYSTEM>
0

>  <SCORE.SYSTEM.CONST>
0

>  <SCORE.SYSTEM.DIHEDRAL>
0

>  <SCORE.SYSTEM.SOLV>
0

>  <SCORE.SYSTEM.norm>
0

>  <SCORE.heavy>
42

>  <SCORE.norm>
-0.314185

>  <RMSD>
9.147

$$$$
2fcy_lig
 OpenBabel11021811433D
libRbt.so/2013.1/901 2013/11/27
 42 45  0  0  0  0  0  0  0  0999 V2000
   -1.5438   94.2386   10.1928 C   0  0  2  0  0  0  0  0  0  0  0  0
   -1.2661   93.1617    9.2816 O   0  0  0  0  0  0  0  0  0  0  0  0
   -2.3645   95.2495    9.3906 C   0  0  2  0  0  0  0  0  0  0  0  0
   -3.5326   94.5629    8.8222 N   0  0  0  0  0  0  0  0  0  0  0  0
   -1.5084   95.8200    8.2571 C   0  0  1  0  0  0  0  0  0  0  0  0
   -2.2543   96.7726    7.4942 O   0  0  0  0  0  0  0  0  0  0  0  0
   -0.2551   96.4686    8.8458 C   0  0  2  0  0  0  0  0  0  0  0  0
    0.5875   96.9137    7.7830 O   0  0  0  0  0  0  0  0  0  0  0  0
    0.5108   95.4183    9.6516 C   0  0  2  0  0  0  0  0  0  0  0  0
   -0.3437   94.8792   10.6722 O   0  0  0  0  0  0  0  0  0  0  0  0
    1.7637   96.0590   10.2547 C   0  0  0  0  0  0  0  0  0  0  0  0
    1.4051   97.0845   11.2459 N   0  0  0  0  0  0  0  0  0  0  0  0
   -1.3038   88.9997    9.8505 C   0  0  2  0  0  0  0  0  0  0  0  0
   -1.1091   87.5937   10.2352 N   0  0  0  0  0  0  0  0  0  0  0  0
   -0.0019   89.6040    9.3208 C   0  0  0  0  0  0  0  0  0  0  0  0
   -0.2984   91.0194    8.8152 C   0  0  2  0  0  0  0  0  0  0  0  0
    0.9553   91.6526    8.3815 N   0  0  0  0  0  0  0  0  0  0  0  0
   -0.9209   91.9077    9.8964 C   0  0  2  0  0  0  0  0  0  0  0  0
   -2.0883   91.2750   10.6455 C   0  0  2  0  0  0  0  0  0  0  0  0
   -2.2626   92.0700   11.8295 O   0  0  0  0  0  0  0  0  0  0  0  0
   -1.7905   89.8237   11.0451 C   0  0  1  0  0  0  0  0  0  0  0  0
   -2.9607   89.1889   11.5674 O   0  0  0  0  0  0  0  0  0  0  0  0
   -1.4445   91.7036   12.9523 C   0  0  1  0  0  0  0  0  0  0  0  0
   -1.1902   92.9702   13.7713 C   0  0  2  0  0  0  0  0  0  0  0  0
   -0.0920   93.6932   13.2102 O   0  0  0  0  0  0  0  0  0  0  0  0
   -0.7561   92.3189   15.0812 C   0  0  1  0  0  0  0  0  0  0  0  0
   -1.8194   91.2405   15.2172 C   0  0  2  0  0  0  0  0  0  0  0  0
   -2.0999   90.8053   13.8709 O   0  0  0  0  0  0  0  0  0  0  0  0
   -3.0578   91.8404   15.8929 C   0  0  0  0  0  0  0  0  0  0  0  0
   -3.7438   92.7186   14.9959 O   0  0  0  0  0  0  0  0  0  0  0  0
    0.9449   91.1191   16.1607 C   0  0  2  0  0  0  0  0  0  0  0  0
    0.5382   91.7169   14.9203 O   0  0  0  0  0  0  0  0  0  0  0  0
    1.2365   92.2178   17.1878 C   0  0  1  0  0  0  0  0  0  0  0  0
    4.0646   87.9018   17.9952 N   0  0  0  0  0  0  0  0  0  0  0  0
    1.7700   91.6063   18.4878 C   0  0  1  0  0  0  0  0  0  0  0  0
    0.7419   90.8557   19.1418 O   0  0  0  0  0  0  0  0  0  0  0  0
    2.9631   90.6968   18.1817 C   0  0  2  0  0  0  0  0  0  0  0  0
    4.0334   91.5030   17.6777 O   0  0  0  0  0  0  0  0  0  0  0  0
    2.5566   89.6509   17.1381 C   0  0  1  0  0  0  0  0  0  0  0  0
    2.1098   90.3056   15.9362 O   0  0  0  0  0  0  0  0  0  0  0  0
    3.7127   88.7013   16.8124 C   0  0  0  0  0  0  0  0  0  0  0  0
    2.2652   93.1148   16.6400 N   0  0  0  0  0  0  0  0  0  0  0  0
  1  2  1  6  0  0  0
  1  3  1  0  0  0  0
  1 10  1  0  0  0  0
  3  4  1  6  0  0  0
  3  5  1  0  0  0  0
  5  6  1  1  0  0  0
  5  7  1  0  0  0  0
  7  8  1  6  0  0  0
  7  9  1  0  0  0  0
  9 10  1  0  0  0  0
  9 11  1  1  0  0  0
 11 12  1  0  0  0  0
 13 14  1  1  0  0  0
 13 15  1  0  0  0  0
 13 21  1  0  0  0  0
 16 15  1  0  0  0  0
 16 17  1  1  0  0  0
 18  2  1  6  0  0  0
 18 16  1  0  0  0  0
 19 18  1  0  0  0  0
 19 20  1  1  0  0  0
 21 19  1  0  0  0  0
 21 22  1  6  0  0  0
 23 20  1  6  0  0  0
 23 24  1  0  0  0  0
 23 28  1  0  0  0  0
 24 25  1  6  0  0  0
 24 26  1  0  0  0  0
 26 27  1  0  0  0  0
 26 32  1  6  0  0  0
 27 28  1  0  0  0  0
 27 29  1  6  0  0  0
 29 30  1  0  0  0  0
 31 32  1  6  0  0  0
 31 40  1  0  0  0  0
 33 31  1  0  0  0  0
 33 42  1  6  0  0  0
 35 33  1  0  0  0  0
 35 36  1  6  0  0  0
 37 35  1  0  0  0  0
 37 38  1  6  0  0  0
 37 39  1  0  0  0  0
 39 40  1  0  0  0  0
 39 41  1  6  0  0  0
 41 34  1  0  0  0  0
M  END
>  <CHROM.1>
-159.34819009,65.61508644,-164.75135187,-85.87127565,150.59594040,179.40004617
72.16820877,-69.20044643,65.06116174,-0.19588753,92.31182656,12.74367201
-2.16931262,0.99412619,2.54194426

>  <Name>
2fcy_lig

>  <RI>
0

>  <Rbt.Current_Directory>
/home/itssahil/PROJECTS/Mol_Feturizer/New_Systems/rnas/2fcy

>  <Rbt.Executable>
rbdock ($Id: //depot/dev/client3/rdock/2013.1/src/exe/rbdock.cxx#4 $)

>  <Rbt.Library>
libRbt.so (2013.1, Build901 2013/11/27)

>  <Rbt.Parameter_File>
/export/apps/rDock/src/rDock_2013.1_src/data/scripts/dock_solv.prm

>  <Rbt.Receptor>
prm/pocket_docking_5.prm

>  <SCORE>
-15.9773

>  <SCORE.INTER>
-15.7023

>  <SCORE.INTER.CONST>
1

>  <SCORE.INTER.POLAR>
-1.83251

>  <SCORE.INTER.ROT>
9

>  <SCORE.INTER.SOLV>
16.5137

>  <SCORE.INTER.VDW>
-19.4644

>  <SCORE.INTER.norm>
-0.373865

>  <SCORE.INTRA>
-0.274933

>  <SCORE.INTRA.DIHEDRAL>
-6.38933

>  <SCORE.INTRA.DIHEDRAL.0>
17.3446

>  <SCORE.INTRA.POLAR>
0

>  <SCORE.INTRA.POLAR.0>
0

>  <SCORE.INTRA.REPUL>
0

>  <SCORE.INTRA.REPUL.0>
0

>  <SCORE.INTRA.SOLV>
-2.05343

>  <SCORE.INTRA.SOLV.lig_0>
-112.452

>  <SCORE.INTRA.VDW>
3.94645

>  <SCORE.INTRA.VDW.0>
-5.95059

>  <SCORE.INTRA.norm>
-0.00654602

>  <SCORE.RESTR>
0

>  <SCORE.RESTR.CAVITY>
0

>  <SCORE.RESTR.norm>
0

>  <SCORE.SYSTEM>
0

>  <SCORE.SYSTEM.CONST>
0

>  <SCORE.SYSTEM.DIHEDRAL>
0

>  <SCORE.SYSTEM.SOLV>
0

>  <SCORE.SYSTEM.norm>
0

>  <SCORE.heavy>
42

>  <SCORE.norm>
-0.380411

>  <RMSD>
9.148

$$$$
2fcy_lig
 OpenBabel11021811433D
libRbt.so/2013.1/901 2013/11/27
 42 45  0  0  0  0  0  0  0  0999 V2000
    6.2606   98.2926   12.0572 C   0  0  2  0  0  0  0  0  0  0  0  0
    5.6416   97.1629   11.4185 O   0  0  0  0  0  0  0  0  0  0  0  0
    7.6353   98.4288   11.4008 C   0  0  2  0  0  0  0  0  0  0  0  0
    7.4551   98.5244    9.9457 N   0  0  0  0  0  0  0  0  0  0  0  0
    8.4838   97.1976   11.7286 C   0  0  1  0  0  0  0  0  0  0  0  0
    9.7775   97.3042   11.1281 O   0  0  0  0  0  0  0  0  0  0  0  0
    8.6075   97.0568   13.2461 C   0  0  2  0  0  0  0  0  0  0  0  0
    9.3165   95.8559   13.5508 O   0  0  0  0  0  0  0  0  0  0  0  0
    7.2051   96.9463   13.8465 C   0  0  2  0  0  0  0  0  0  0  0  0
    6.4322   98.0986   13.4762 O   0  0  0  0  0  0  0  0  0  0  0  0
    7.3159   96.8147   15.3678 C   0  0  0  0  0  0  0  0  0  0  0  0
    6.1475   97.4095   16.0338 N   0  0  0  0  0  0  0  0  0  0  0  0
    1.6752   98.5317   11.6205 C   0  0  2  0  0  0  0  0  0  0  0  0
    0.2209   98.7355   11.7002 N   0  0  0  0  0  0  0  0  0  0  0  0
    2.0378   97.6678   10.4110 C   0  0  0  0  0  0  0  0  0  0  0  0
    3.5649   97.6024   10.3062 C   0  0  2  0  0  0  0  0  0  0  0  0
    3.9377   96.7058    9.2026 N   0  0  0  0  0  0  0  0  0  0  0  0
    4.2159   97.0660   11.5844 C   0  0  2  0  0  0  0  0  0  0  0  0
    3.7244   97.7191   12.8714 C   0  0  2  0  0  0  0  0  0  0  0  0
    4.1383   96.8417   13.9311 O   0  0  0  0  0  0  0  0  0  0  0  0
    2.1964   97.8590   12.8928 C   0  0  1  0  0  0  0  0  0  0  0  0
    1.7727   98.6457   14.0093 O   0  0  0  0  0  0  0  0  0  0  0  0
    3.1477   95.9074   14.3896 C   0  0  1  0  0  0  0  0  0  0  0  0
    3.8848   94.7302   15.0303 C   0  0  2  0  0  0  0  0  0  0  0  0
    4.2851   93.8046   14.0170 O   0  0  0  0  0  0  0  0  0  0  0  0
    2.7294   94.1393   15.8330 C   0  0  1  0  0  0  0  0  0  0  0  0
    2.1462   95.4029   16.4456 C   0  0  2  0  0  0  0  0  0  0  0  0
    2.3130   96.4279   15.4444 O   0  0  0  0  0  0  0  0  0  0  0  0
    2.9093   95.7336   17.7335 C   0  0  0  0  0  0  0  0  0  0  0  0
    2.3045   96.8425   18.4051 O   0  0  0  0  0  0  0  0  0  0  0  0
    1.6214   92.1494   15.2749 C   0  0  2  0  0  0  0  0  0  0  0  0
    1.7755   93.5378   14.9431 O   0  0  0  0  0  0  0  0  0  0  0  0
    0.3171   91.6198   14.6703 C   0  0  1  0  0  0  0  0  0  0  0  0
    0.4753   91.1335   19.2923 N   0  0  0  0  0  0  0  0  0  0  0  0
    0.0815   90.1669   15.0969 C   0  0  1  0  0  0  0  0  0  0  0  0
    1.0560   89.3086   14.4953 O   0  0  0  0  0  0  0  0  0  0  0  0
    0.1606   90.0549   16.6218 C   0  0  2  0  0  0  0  0  0  0  0  0
   -0.9249   90.7950   17.1903 O   0  0  0  0  0  0  0  0  0  0  0  0
    1.4972   90.6241   17.1096 C   0  0  1  0  0  0  0  0  0  0  0  0
    1.6205   92.0004   16.7055 O   0  0  0  0  0  0  0  0  0  0  0  0
    1.6340   90.5158   18.6307 C   0  0  0  0  0  0  0  0  0  0  0  0
   -0.7996   92.4371   15.1682 N   0  0  0  0  0  0  0  0  0  0  0  0
  1  2  1  6  0  0  0
  1  3  1  0  0  0  0
  1 10  1  0  0  0  0
  3  4  1  6  0  0  0
  3  5  1  0  0  0  0
  5  6  1  6  0  0  0
  5  7  1  0  0  0  0
  7  8  1  6  0  0  0
  7  9  1  0  0  0  0
  9 10  1  0  0  0  0
  9 11  1  1  0  0  0
 11 12  1  0  0  0  0
 13 14  1  1  0  0  0
 13 15  1  0  0  0  0
 13 21  1  0  0  0  0
 16 15  1  0  0  0  0
 16 17  1  6  0  0  0
 18  2  1  6  0  0  0
 18 16  1  0  0  0  0
 19 18  1  0  0  0  0
 19 20  1  1  0  0  0
 21 19  1  0  0  0  0
 21 22  1  1  0  0  0
 23 20  1  1  0  0  0
 23 24  1  0  0  0  0
 23 28  1  0  0  0  0
 24 25  1  6  0  0  0
 24 26  1  0  0  0  0
 26 27  1  0  0  0  0
 26 32  1  6  0  0  0
 27 28  1  0  0  0  0
 27 29  1  1  0  0  0
 29 30  1  0  0  0  0
 31 32  1  1  0  0  0
 31 40  1  0  0  0  0
 33 31  1  0  0  0  0
 33 42  1  1  0  0  0
 35 33  1  0  0  0  0
 35 36  1  6  0  0  0
 37 35  1  0  0  0  0
 37 38  1  1  0  0  0
 37 39  1  0  0  0  0
 39 40  1  0  0  0  0
 39 41  1  1  0  0  0
 41 34  1  0  0  0  0
M  END
>  <CHROM.1>
-162.83623340,149.43377652,99.99045767,-96.40001216,156.35138071,121.56519325
-174.40776771,161.59130911,-53.75378338,3.57950517,95.31925257,14.17573467
-0.92211196,0.17066037,2.36764280

>  <Name>
2fcy_lig

>  <RI>
9.29634e+06

>  <Rbt.Current_Directory>
/home/itssahil/PROJECTS/Mol_Feturizer/New_Systems/rnas/2fcy

>  <Rbt.Executable>
rbdock ($Id: //depot/dev/client3/rdock/2013.1/src/exe/rbdock.cxx#4 $)

>  <Rbt.Library>
libRbt.so (2013.1, Build901 2013/11/27)

>  <Rbt.Parameter_File>
/export/apps/rDock/src/rDock_2013.1_src/data/scripts/dock_solv.prm

>  <Rbt.Receptor>
prm/blind_docking_100.prm

>  <SCORE>
1.6098

>  <SCORE.INTER>
-12.491

>  <SCORE.INTER.CONST>
1

>  <SCORE.INTER.POLAR>
-1.51939

>  <SCORE.INTER.ROT>
9

>  <SCORE.INTER.SOLV>
29.2603

>  <SCORE.INTER.VDW>
-22.6161

>  <SCORE.INTER.norm>
-0.297404

>  <SCORE.INTRA>
11.09

>  <SCORE.INTRA.DIHEDRAL>
7.95056

>  <SCORE.INTRA.DIHEDRAL.0>
17.3446

>  <SCORE.INTRA.POLAR>
0

>  <SCORE.INTRA.POLAR.0>
0

>  <SCORE.INTRA.REPUL>
0

>  <SCORE.INTRA.REPUL.0>
0

>  <SCORE.INTRA.SOLV>
0.617429

>  <SCORE.INTRA.SOLV.lig_0>
-112.452

>  <SCORE.INTRA.VDW>
6.80605

>  <SCORE.INTRA.VDW.0>
-5.95059

>  <SCORE.INTRA.norm>
0.264049

>  <SCORE.RESTR>
3.01073

>  <SCORE.RESTR.CAVITY>
3.01073

>  <SCORE.RESTR.norm>
0.0716841

>  <SCORE.SYSTEM>
0

>  <SCORE.SYSTEM.CONST>
0

>  <SCORE.SYSTEM.DIHEDRAL>
0

>  <SCORE.SYSTEM.SOLV>
0

>  <SCORE.SYSTEM.norm>
0

>  <SCORE.heavy>
42

>  <SCORE.norm>
0.0383287

>  <RMSD>
9.156

$$$$
2fcy_lig
 OpenBabel11021811433D
libRbt.so/2013.1/901 2013/11/27
 42 45  0  0  0  0  0  0  0  0999 V2000
    5.4319   98.2747   11.6249 C   0  0  2  0  0  0  0  0  0  0  0  0
    4.8326   97.0036   11.9286 O   0  0  0  0  0  0  0  0  0  0  0  0
    6.8721   97.9593   11.2182 C   0  0  2  0  0  0  0  0  0  0  0  0
    6.8489   96.9757   10.1270 N   0  0  0  0  0  0  0  0  0  0  0  0
    7.6258   97.3738   12.4150 C   0  0  1  0  0  0  0  0  0  0  0  0
    8.9785   97.0743   12.0597 O   0  0  0  0  0  0  0  0  0  0  0  0
    7.5844   98.3682   13.5757 C   0  0  2  0  0  0  0  0  0  0  0  0
    8.2033   97.7811   14.7203 O   0  0  0  0  0  0  0  0  0  0  0  0
    6.1237   98.6602   13.9225 C   0  0  2  0  0  0  0  0  0  0  0  0
    5.4460   99.1636   12.7607 O   0  0  0  0  0  0  0  0  0  0  0  0
    6.0695   99.6632   15.0778 C   0  0  0  0  0  0  0  0  0  0  0  0
    6.5519  100.9850   14.6503 N   0  0  0  0  0  0  0  0  0  0  0  0
    0.9634   98.6371   12.0122 C   0  0  2  0  0  0  0  0  0  0  0  0
   -0.4716   98.9451   12.1061 N   0  0  0  0  0  0  0  0  0  0  0  0
    1.2169   97.5366   10.9800 C   0  0  0  0  0  0  0  0  0  0  0  0
    2.7309   97.3546   10.8320 C   0  0  2  0  0  0  0  0  0  0  0  0
    2.9981   96.2416    9.9096 N   0  0  0  0  0  0  0  0  0  0  0  0
    3.4138   97.0317   12.1642 C   0  0  2  0  0  0  0  0  0  0  0  0
    3.0238   97.9487   13.3180 C   0  0  2  0  0  0  0  0  0  0  0  0
    3.4404   97.2653   14.5111 O   0  0  0  0  0  0  0  0  0  0  0  0
    1.5089   98.1878   13.3699 C   0  0  1  0  0  0  0  0  0  0  0  0
    1.1854   99.1989   14.3282 O   0  0  0  0  0  0  0  0  0  0  0  0
    2.6943   96.0839   14.8454 C   0  0  1  0  0  0  0  0  0  0  0  0
    3.7005   94.9830   15.1852 C   0  0  2  0  0  0  0  0  0  0  0  0
    4.1508   94.3553   13.9823 O   0  0  0  0  0  0  0  0  0  0  0  0
    2.7680   94.0369   15.9359 C   0  0  1  0  0  0  0  0  0  0  0  0
    2.0333   95.0257   16.8274 C   0  0  2  0  0  0  0  0  0  0  0  0
    1.8986   96.2267   16.0399 O   0  0  0  0  0  0  0  0  0  0  0  0
    2.8587   95.2651   18.0968 C   0  0  0  0  0  0  0  0  0  0  0  0
    3.0361   94.0429   18.8187 O   0  0  0  0  0  0  0  0  0  0  0  0
    1.5199   92.1063   15.4738 C   0  0  2  0  0  0  0  0  0  0  0  0
    1.8493   93.4265   15.0156 O   0  0  0  0  0  0  0  0  0  0  0  0
    0.3966   91.5285   14.6070 C   0  0  1  0  0  0  0  0  0  0  0  0
    0.3728   89.6443   19.4813 N   0  0  0  0  0  0  0  0  0  0  0  0
   -0.0412   90.1605   15.1413 C   0  0  1  0  0  0  0  0  0  0  0  0
    1.0013   89.1979   14.9543 O   0  0  0  0  0  0  0  0  0  0  0  0
   -0.3861   90.2710   16.6289 C   0  0  2  0  0  0  0  0  0  0  0  0
   -1.5339   91.1149   16.7693 O   0  0  0  0  0  0  0  0  0  0  0  0
    0.8026   90.8700   17.3883 C   0  0  1  0  0  0  0  0  0  0  0  0
    1.1212   92.1685   16.8544 O   0  0  0  0  0  0  0  0  0  0  0  0
    0.5143   90.9821   18.8878 C   0  0  0  0  0  0  0  0  0  0  0  0
   -0.7571   92.4391   14.6612 N   0  0  0  0  0  0  0  0  0  0  0  0
  1  2  1  1  0  0  0
  1  3  1  0  0  0  0
  1 10  1  0  0  0  0
  3  4  1  6  0  0  0
  3  5  1  0  0  0  0
  5  6  1  6  0  0  0
  5  7  1  0  0  0  0
  7  8  1  1  0  0  0
  7  9  1  0  0  0  0
  9 10  1  0  0  0  0
  9 11  1  1  0  0  0
 11 12  1  0  0  0  0
 13 14  1  1  0  0  0
 13 15  1  0  0  0  0
 13 21  1  0  0  0  0
 16 15  1  0  0  0  0
 16 17  1  6  0  0  0
 18  2  1  6  0  0  0
 18 16  1  0  0  0  0
 19 18  1  0  0  0  0
 19 20  1  1  0  0  0
 21 19  1  0  0  0  0
 21 22  1  1  0  0  0
 23 20  1  1  0  0  0
 23 24  1  0  0  0  0
 23 28  1  0  0  0  0
 24 25  1  6  0  0  0
 24 26  1  0  0  0  0
 26 27  1  0  0  0  0
 26 32  1  6  0  0  0
 27 28  1  0  0  0  0
 27 29  1  1  0  0  0
 29 30  1  0  0  0  0
 31 32  1  6  0  0  0
 31 40  1  0  0  0  0
 33 31  1  0  0  0  0
 33 42  1  1  0  0  0
 35 33  1  0  0  0  0
 35 36  1  1  0  0  0
 37 35  1  0  0  0  0
 37 38  1  6  0  0  0
 37 39  1  0  0  0  0
 39 40  1  0  0  0  0
 39 41  1  1  0  0  0
 41 34  1  0  0  0  0
M  END
>  <CHROM.1>
-171.90203548,68.31685330,68.66330497,-69.63717340,133.07073418,148.26474782
-60.59621468,172.14863344,65.77732037,3.07309916,95.50095219,14.39305833
0.95941596,-0.37018848,-0.78776506

>  <Name>
2fcy_lig

>  <RI>
2.32494e+07

>  <Rbt.Current_Directory>
/home/itssahil/PROJECTS/Mol_Feturizer/New_Systems/rnas/2fcy

>  <Rbt.Executable>
rbdock ($Id: //depot/dev/client3/rdock/2013.1/src/exe/rbdock.cxx#4 $)

>  <Rbt.Library>
libRbt.so (2013.1, Build901 2013/11/27)

>  <Rbt.Parameter_File>
/export/apps/rDock/src/rDock_2013.1_src/data/scripts/dock_solv.prm

>  <Rbt.Receptor>
prm/pocket_docking_8.prm

>  <SCORE>
-11.1223

>  <SCORE.INTER>
-10.3407

>  <SCORE.INTER.CONST>
1

>  <SCORE.INTER.POLAR>
-0.529559

>  <SCORE.INTER.ROT>
9

>  <SCORE.INTER.SOLV>
23.8862

>  <SCORE.INTER.VDW>
-22.6907

>  <SCORE.INTER.norm>
-0.246208

>  <SCORE.INTRA>
-0.781526

>  <SCORE.INTRA.DIHEDRAL>
-5.10086

>  <SCORE.INTRA.DIHEDRAL.0>
17.3446

>  <SCORE.INTRA.POLAR>
0

>  <SCORE.INTRA.POLAR.0>
0

>  <SCORE.INTRA.REPUL>
0

>  <SCORE.INTRA.REPUL.0>
0

>  <SCORE.INTRA.SOLV>
-2.59236

>  <SCORE.INTRA.SOLV.lig_0>
-112.452

>  <SCORE.INTRA.VDW>
3.06508

>  <SCORE.INTRA.VDW.0>
-5.95059

>  <SCORE.INTRA.norm>
-0.0186078

>  <SCORE.RESTR>
0

>  <SCORE.RESTR.CAVITY>
0

>  <SCORE.RESTR.norm>
0

>  <SCORE.SYSTEM>
0

>  <SCORE.SYSTEM.CONST>
0

>  <SCORE.SYSTEM.DIHEDRAL>
0

>  <SCORE.SYSTEM.SOLV>
0

>  <SCORE.SYSTEM.norm>
0

>  <SCORE.heavy>
42

>  <SCORE.norm>
-0.264816

>  <RMSD>
9.158

$$$$
2fcy_lig
 OpenBabel11021811433D
libRbt.so/2013.1/901 2013/11/27
 42 45  0  0  0  0  0  0  0  0999 V2000
   -2.4580   95.0265   13.0364 C   0  0  2  0  0  0  0  0  0  0  0  0
   -2.5181   94.4978   11.7007 O   0  0  0  0  0  0  0  0  0  0  0  0
   -3.8158   95.6892   13.2736 C   0  0  2  0  0  0  0  0  0  0  0  0
   -4.8733   94.7031   13.0130 N   0  0  0  0  0  0  0  0  0  0  0  0
   -3.9802   96.8755   12.3202 C   0  0  1  0  0  0  0  0  0  0  0  0
   -5.2429   97.5150   12.5265 O   0  0  0  0  0  0  0  0  0  0  0  0
   -2.8360   97.8654   12.5408 C   0  0  2  0  0  0  0  0  0  0  0  0
   -2.9372   98.9216   11.5860 O   0  0  0  0  0  0  0  0  0  0  0  0
   -1.5080   97.1424   12.3110 C   0  0  2  0  0  0  0  0  0  0  0  0
   -1.4174   96.0129   13.1932 O   0  0  0  0  0  0  0  0  0  0  0  0
   -0.3536   98.1218   12.5390 C   0  0  0  0  0  0  0  0  0  0  0  0
   -0.2010   99.0312   11.3934 N   0  0  0  0  0  0  0  0  0  0  0  0
   -0.1093   91.7480    9.6312 C   0  0  2  0  0  0  0  0  0  0  0  0
    0.9443   90.9653    8.9675 N   0  0  0  0  0  0  0  0  0  0  0  0
   -0.1839   93.1616    9.0506 C   0  0  0  0  0  0  0  0  0  0  0  0
   -1.3792   93.8802    9.6847 C   0  0  2  0  0  0  0  0  0  0  0  0
   -1.4192   95.2699    9.2071 N   0  0  0  0  0  0  0  0  0  0  0  0
   -1.2970   93.9137   11.2136 C   0  0  2  0  0  0  0  0  0  0  0  0
   -0.9830   92.5709   11.8636 C   0  0  2  0  0  0  0  0  0  0  0  0
   -0.5701   92.8792   13.2047 O   0  0  0  0  0  0  0  0  0  0  0  0
    0.1515   91.8365   11.1369 C   0  0  1  0  0  0  0  0  0  0  0  0
    0.2971   90.5040   11.6352 O   0  0  0  0  0  0  0  0  0  0  0  0
   -0.4988   91.7634   14.1070 C   0  0  1  0  0  0  0  0  0  0  0  0
    0.0165   92.2867   15.4487 C   0  0  2  0  0  0  0  0  0  0  0  0
    1.4443   92.3535   15.4225 O   0  0  0  0  0  0  0  0  0  0  0  0
   -0.4235   91.1267   16.3372 C   0  0  1  0  0  0  0  0  0  0  0  0
   -1.8403   90.9131   15.8281 C   0  0  2  0  0  0  0  0  0  0  0  0
   -1.7864   91.1902   14.4135 O   0  0  0  0  0  0  0  0  0  0  0  0
   -2.7860   91.8710   16.5617 C   0  0  0  0  0  0  0  0  0  0  0  0
   -4.1457   91.6060   16.2046 O   0  0  0  0  0  0  0  0  0  0  0  0
    1.5278   89.9649   16.9212 C   0  0  2  0  0  0  0  0  0  0  0  0
    0.3796   89.9685   16.0593 O   0  0  0  0  0  0  0  0  0  0  0  0
    2.7132   89.3233   16.1930 C   0  0  1  0  0  0  0  0  0  0  0  0
    2.9530   88.6683   21.3651 N   0  0  0  0  0  0  0  0  0  0  0  0
    3.9216   89.2164   17.1294 C   0  0  1  0  0  0  0  0  0  0  0  0
    4.4311   90.5189   17.4328 O   0  0  0  0  0  0  0  0  0  0  0  0
    3.5147   88.5032   18.4217 C   0  0  2  0  0  0  0  0  0  0  0  0
    3.1627   87.1521   18.1054 O   0  0  0  0  0  0  0  0  0  0  0  0
    2.3179   89.2244   19.0510 C   0  0  1  0  0  0  0  0  0  0  0  0
    1.2151   89.2433   18.1256 O   0  0  0  0  0  0  0  0  0  0  0  0
    1.8848   88.5599   20.3606 C   0  0  0  0  0  0  0  0  0  0  0  0
    2.3303   87.9670   15.7722 N   0  0  0  0  0  0  0  0  0  0  0  0
  1  2  1  6  0  0  0
  1  3  1  0  0  0  0
  1 10  1  0  0  0  0
  3  4  1  6  0  0  0
  3  5  1  0  0  0  0
  5  6  1  1  0  0  0
  5  7  1  0  0  0  0
  7  8  1  6  0  0  0
  7  9  1  0  0  0  0
  9 10  1  0  0  0  0
  9 11  1  1  0  0  0
 11 12  1  0  0  0  0
 13 14  1  6  0  0  0
 13 15  1  0  0  0  0
 13 21  1  0  0  0  0
 16 15  1  0  0  0  0
 16 17  1  6  0  0  0
 18  2  1  1  0  0  0
 18 16  1  0  0  0  0
 19 18  1  0  0  0  0
 19 20  1  1  0  0  0
 21 19  1  0  0  0  0
 21 22  1  1  0  0  0
 23 20  1  6  0  0  0
 23 24  1  0  0  0  0
 23 28  1  0  0  0  0
 24 25  1  6  0  0  0
 24 26  1  0  0  0  0
 26 27  1  0  0  0  0
 26 32  1  6  0  0  0
 27 28  1  0  0  0  0
 27 29  1  1  0  0  0
 29 30  1  0  0  0  0
 31 32  1  6  0  0  0
 31 40  1  0  0  0  0
 33 31  1  0  0  0  0
 33 42  1  1  0  0  0
 35 33  1  0  0  0  0
 35 36  1  1  0  0  0
 37 35  1  0  0  0  0
 37 38  1  6  0  0  0
 37 39  1  0  0  0  0
 39 40  1  0  0  0  0
 39 41  1  1  0  0  0
 41 34  1  0  0  0  0
M  END
>  <CHROM.1>
175.22222623,-76.66886856,-159.80637123,166.98245029,177.42597481,90.51302334
-174.23978612,-147.65914674,64.18870219,-0.39898053,92.60440125,14.17274767
2.31539847,0.87183387,-1.34612887

>  <Name>
2fcy_lig

>  <RI>
2.32494e+07

>  <Rbt.Current_Directory>
/home/itssahil/PROJECTS/Mol_Feturizer/New_Systems/rnas/2fcy

>  <Rbt.Executable>
rbdock ($Id: //depot/dev/client3/rdock/2013.1/src/exe/rbdock.cxx#4 $)

>  <Rbt.Library>
libRbt.so (2013.1, Build901 2013/11/27)

>  <Rbt.Parameter_File>
/export/apps/rDock/src/rDock_2013.1_src/data/scripts/dock_solv.prm

>  <Rbt.Receptor>
prm/pocket_docking_8.prm

>  <SCORE>
-16.412

>  <SCORE.INTER>
-13.3326

>  <SCORE.INTER.CONST>
1

>  <SCORE.INTER.POLAR>
-0.868676

>  <SCORE.INTER.ROT>
9

>  <SCORE.INTER.SOLV>
21.7949

>  <SCORE.INTER.VDW>
-22.8578

>  <SCORE.INTER.norm>
-0.317444

>  <SCORE.INTRA>
-3.07938

>  <SCORE.INTRA.DIHEDRAL>
-5.50838

>  <SCORE.INTRA.DIHEDRAL.0>
17.3446

>  <SCORE.INTRA.POLAR>
0

>  <SCORE.INTRA.POLAR.0>
0

>  <SCORE.INTRA.REPUL>
0

>  <SCORE.INTRA.REPUL.0>
0

>  <SCORE.INTRA.SOLV>
-4.0085

>  <SCORE.INTRA.SOLV.lig_0>
-112.452

>  <SCORE.INTRA.VDW>
1.67906

>  <SCORE.INTRA.VDW.0>
-5.95059

>  <SCORE.INTRA.norm>
-0.0733185

>  <SCORE.RESTR>
0

>  <SCORE.RESTR.CAVITY>
0

>  <SCORE.RESTR.norm>
0

>  <SCORE.SYSTEM>
0

>  <SCORE.SYSTEM.CONST>
0

>  <SCORE.SYSTEM.DIHEDRAL>
0

>  <SCORE.SYSTEM.SOLV>
0

>  <SCORE.SYSTEM.norm>
0

>  <SCORE.heavy>
42

>  <SCORE.norm>
-0.390762

>  <RMSD>
9.213

$$$$
2fcy_lig
 OpenBabel11021811433D
libRbt.so/2013.1/901 2013/11/27
 42 45  0  0  0  0  0  0  0  0999 V2000
   -1.7331   96.8294    8.3050 C   0  0  2  0  0  0  0  0  0  0  0  0
   -1.2748   95.5528    8.7822 O   0  0  0  0  0  0  0  0  0  0  0  0
   -0.6450   97.8276    8.7034 C   0  0  2  0  0  0  0  0  0  0  0  0
    0.6418   97.3595    8.1706 N   0  0  0  0  0  0  0  0  0  0  0  0
   -0.5627   97.9135   10.2296 C   0  0  1  0  0  0  0  0  0  0  0  0
    0.4468   98.8457   10.6269 O   0  0  0  0  0  0  0  0  0  0  0  0
   -1.9243   98.3281   10.7880 C   0  0  2  0  0  0  0  0  0  0  0  0
   -1.8718   98.3137   12.2145 O   0  0  0  0  0  0  0  0  0  0  0  0
   -2.9718   97.3075   10.3405 C   0  0  2  0  0  0  0  0  0  0  0  0
   -2.9821   97.2274    8.9067 O   0  0  0  0  0  0  0  0  0  0  0  0
   -4.3422   97.7178   10.8858 C   0  0  0  0  0  0  0  0  0  0  0  0
   -5.3789   96.7565   10.4811 N   0  0  0  0  0  0  0  0  0  0  0  0
    0.1025   92.3079    6.4974 C   0  0  2  0  0  0  0  0  0  0  0  0
    0.7720   91.3584    5.5957 N   0  0  0  0  0  0  0  0  0  0  0  0
   -0.4336   93.5112    5.7193 C   0  0  0  0  0  0  0  0  0  0  0  0
   -1.2311   94.3931    6.6854 C   0  0  2  0  0  0  0  0  0  0  0  0
   -1.6828   95.6010    5.9797 N   0  0  0  0  0  0  0  0  0  0  0  0
   -0.3989   94.8400    7.8910 C   0  0  2  0  0  0  0  0  0  0  0  0
    0.3677   93.7199    8.5855 C   0  0  2  0  0  0  0  0  0  0  0  0
    1.3535   94.3752    9.3997 O   0  0  0  0  0  0  0  0  0  0  0  0
    1.0687   92.7986    7.5783 C   0  0  1  0  0  0  0  0  0  0  0  0
    1.6139   91.6499    8.2328 O   0  0  0  0  0  0  0  0  0  0  0  0
    1.3869   93.9766   10.7797 C   0  0  1  0  0  0  0  0  0  0  0  0
    2.7482   94.3849   11.3454 C   0  0  2  0  0  0  0  0  0  0  0  0
    3.7184   93.3819   11.0348 O   0  0  0  0  0  0  0  0  0  0  0  0
    2.4112   94.3253   12.8325 C   0  0  1  0  0  0  0  0  0  0  0  0
    1.0721   95.0454   12.8395 C   0  0  2  0  0  0  0  0  0  0  0  0
    0.4300   94.6754   11.6020 O   0  0  0  0  0  0  0  0  0  0  0  0
    1.3162   96.5564   12.9264 C   0  0  0  0  0  0  0  0  0  0  0  0
    2.0557   97.0120   11.7897 O   0  0  0  0  0  0  0  0  0  0  0  0
    2.6312   92.8133   14.6112 C   0  0  2  0  0  0  0  0  0  0  0  0
    2.2375   92.9583   13.2381 O   0  0  0  0  0  0  0  0  0  0  0  0
    2.0710   91.5010   15.1691 C   0  0  1  0  0  0  0  0  0  0  0  0
    2.5815   95.1413   18.8613 N   0  0  0  0  0  0  0  0  0  0  0  0
    2.3929   91.3741   16.6620 C   0  0  1  0  0  0  0  0  0  0  0  0
    3.8005   91.1995   16.8531 O   0  0  0  0  0  0  0  0  0  0  0  0
    1.9191   92.6275   17.4030 C   0  0  2  0  0  0  0  0  0  0  0  0
    0.4907   92.6878   17.3297 O   0  0  0  0  0  0  0  0  0  0  0  0
    2.5319   93.8716   16.7510 C   0  0  1  0  0  0  0  0  0  0  0  0
    2.1471   93.9385   15.3653 O   0  0  0  0  0  0  0  0  0  0  0  0
    2.1038   95.1534   17.4707 C   0  0  0  0  0  0  0  0  0  0  0  0
    0.6091   91.5059   15.0080 N   0  0  0  0  0  0  0  0  0  0  0  0
  1  2  1  1  0  0  0
  1  3  1  0  0  0  0
  1 10  1  0  0  0  0
  3  4  1  1  0  0  0
  3  5  1  0  0  0  0
  5  6  1  6  0  0  0
  5  7  1  0  0  0  0
  7  8  1  1  0  0  0
  7  9  1  0  0  0  0
  9 10  1  0  0  0  0
  9 11  1  6  0  0  0
 11 12  1  0  0  0  0
 13 14  1  6  0  0  0
 13 15  1  0  0  0  0
 13 21  1  0  0  0  0
 16 15  1  0  0  0  0
 16 17  1  6  0  0  0
 18  2  1  1  0  0  0
 18 16  1  0  0  0  0
 19 18  1  0  0  0  0
 19 20  1  1  0  0  0
 21 19  1  0  0  0  0
 21 22  1  1  0  0  0
 23 20  1  6  0  0  0
 23 24  1  0  0  0  0
 23 28  1  0  0  0  0
 24 25  1  1  0  0  0
 24 26  1  0  0  0  0
 26 27  1  0  0  0  0
 26 32  1  6  0  0  0
 27 28  1  0  0  0  0
 27 29  1  6  0  0  0
 29 30  1  0  0  0  0
 31 32  1  6  0  0  0
 31 40  1  0  0  0  0
 33 31  1  0  0  0  0
 33 42  1  1  0  0  0
 35 33  1  0  0  0  0
 35 36  1  6  0  0  0
 37 35  1  0  0  0  0
 37 38  1  6  0  0  0
 37 39  1  0  0  0  0
 39 40  1  0  0  0  0
 39 41  1  1  0  0  0
 41 34  1  0  0  0  0
M  END
>  <CHROM.1>
-85.88622227,-179.77360098,-69.30625817,128.19068687,160.76322505,149.26851872
61.44530449,163.22820746,62.19852316,0.48276502,94.73745212,11.46769911,2.25129066
0.93767884,-1.85150665

>  <Name>
2fcy_lig

>  <RI>
2.89127e+07

>  <Rbt.Current_Directory>
/home/itssahil/PROJECTS/Mol_Feturizer/New_Systems/rnas/2fcy

>  <Rbt.Executable>
rbdock ($Id: //depot/dev/client3/rdock/2013.1/src/exe/rbdock.cxx#4 $)

>  <Rbt.Library>
libRbt.so (2013.1, Build901 2013/11/27)

>  <Rbt.Parameter_File>
/export/apps/rDock/src/rDock_2013.1_src/data/scripts/dock_solv.prm

>  <Rbt.Receptor>
prm/pocket_docking_7.prm

>  <SCORE>
-16.0634

>  <SCORE.INTER>
-20.7001

>  <SCORE.INTER.CONST>
1

>  <SCORE.INTER.POLAR>
-2.78475

>  <SCORE.INTER.ROT>
9

>  <SCORE.INTER.SOLV>
19.3244

>  <SCORE.INTER.VDW>
-20.559

>  <SCORE.INTER.norm>
-0.492859

>  <SCORE.INTRA>
4.63668

>  <SCORE.INTRA.DIHEDRAL>
-0.240242

>  <SCORE.INTRA.DIHEDRAL.0>
17.3446

>  <SCORE.INTRA.POLAR>
0

>  <SCORE.INTRA.POLAR.0>
0

>  <SCORE.INTRA.REPUL>
0.260497

>  <SCORE.INTRA.REPUL.0>
0

>  <SCORE.INTRA.SOLV>
0.954497

>  <SCORE.INTRA.SOLV.lig_0>
-112.452

>  <SCORE.INTRA.VDW>
2.97707

>  <SCORE.INTRA.VDW.0>
-5.95059

>  <SCORE.INTRA.norm>
0.110397

>  <SCORE.RESTR>
0

>  <SCORE.RESTR.CAVITY>
0

>  <SCORE.RESTR.norm>
0

>  <SCORE.SYSTEM>
0

>  <SCORE.SYSTEM.CONST>
0

>  <SCORE.SYSTEM.DIHEDRAL>
0

>  <SCORE.SYSTEM.SOLV>
0

>  <SCORE.SYSTEM.norm>
0

>  <SCORE.heavy>
42

>  <SCORE.norm>
-0.382462

>  <RMSD>
9.225

$$$$
2fcy_lig
 OpenBabel11021811433D
libRbt.so/2013.1/901 2013/11/27
 42 45  0  0  0  0  0  0  0  0999 V2000
   -4.6952   91.6913   11.2960 C   0  0  2  0  0  0  0  0  0  0  0  0
   -4.6436   90.6109   10.3488 O   0  0  0  0  0  0  0  0  0  0  0  0
   -6.1340   91.7106   11.8139 C   0  0  2  0  0  0  0  0  0  0  0  0
   -6.4660   90.3765   12.3325 N   0  0  0  0  0  0  0  0  0  0  0  0
   -7.0862   92.0624   10.6681 C   0  0  1  0  0  0  0  0  0  0  0  0
   -8.4396   92.0908   11.1298 O   0  0  0  0  0  0  0  0  0  0  0  0
   -6.6923   93.4177   10.0799 C   0  0  2  0  0  0  0  0  0  0  0  0
   -7.5195   93.6987    8.9510 O   0  0  0  0  0  0  0  0  0  0  0  0
   -5.2421   93.3436    9.5999 C   0  0  2  0  0  0  0  0  0  0  0  0
   -4.3926   92.9671   10.6949 O   0  0  0  0  0  0  0  0  0  0  0  0
   -4.8329   94.6990    9.0175 C   0  0  0  0  0  0  0  0  0  0  0  0
   -4.9286   95.7586   10.0328 N   0  0  0  0  0  0  0  0  0  0  0  0
   -1.2545   88.5681    8.9389 C   0  0  2  0  0  0  0  0  0  0  0  0
   -0.0160   88.0929    8.3039 N   0  0  0  0  0  0  0  0  0  0  0  0
   -2.2696   89.0143    7.8846 C   0  0  0  0  0  0  0  0  0  0  0  0
   -3.5785   89.3704    8.5966 C   0  0  2  0  0  0  0  0  0  0  0  0
   -4.5417   89.8855    7.6128 N   0  0  0  0  0  0  0  0  0  0  0  0
   -3.3862   90.4461    9.6696 C   0  0  2  0  0  0  0  0  0  0  0  0
   -2.2264   90.1911   10.6258 C   0  0  2  0  0  0  0  0  0  0  0  0
   -1.9749   91.4499   11.2708 O   0  0  0  0  0  0  0  0  0  0  0  0
   -0.9630   89.7377    9.8822 C   0  0  1  0  0  0  0  0  0  0  0  0
    0.0465   89.3163   10.8034 O   0  0  0  0  0  0  0  0  0  0  0  0
   -1.1884   91.3888   12.4717 C   0  0  1  0  0  0  0  0  0  0  0  0
   -0.9159   92.8259   12.9189 C   0  0  2  0  0  0  0  0  0  0  0  0
    0.2118   93.3446   12.2098 O   0  0  0  0  0  0  0  0  0  0  0  0
   -0.5244   92.5502   14.3677 C   0  0  1  0  0  0  0  0  0  0  0  0
   -1.6186   91.5725   14.7664 C   0  0  2  0  0  0  0  0  0  0  0  0
   -1.8851   90.7906   13.5839 O   0  0  0  0  0  0  0  0  0  0  0  0
   -2.8532   92.3600   15.2201 C   0  0  0  0  0  0  0  0  0  0  0  0
   -3.8359   91.4792   15.7725 O   0  0  0  0  0  0  0  0  0  0  0  0
    1.1495   91.7101   15.7787 C   0  0  2  0  0  0  0  0  0  0  0  0
    0.7561   91.9007   14.4111 O   0  0  0  0  0  0  0  0  0  0  0  0
    2.6000   91.2197   15.8311 C   0  0  1  0  0  0  0  0  0  0  0  0
   -0.2586   89.5540   19.8778 N   0  0  0  0  0  0  0  0  0  0  0  0
    3.0085   90.9122   17.2758 C   0  0  1  0  0  0  0  0  0  0  0  0
    3.0772   92.1204   18.0399 O   0  0  0  0  0  0  0  0  0  0  0  0
    1.9956   89.9539   17.9083 C   0  0  2  0  0  0  0  0  0  0  0  0
    2.0651   88.6993   17.2222 O   0  0  0  0  0  0  0  0  0  0  0  0
    0.5861   90.5425   17.7856 C   0  0  1  0  0  0  0  0  0  0  0  0
    0.2650   90.7606   16.3993 O   0  0  0  0  0  0  0  0  0  0  0  0
   -0.4635   89.6286   18.4237 C   0  0  0  0  0  0  0  0  0  0  0  0
    2.7081   89.9817   15.0444 N   0  0  0  0  0  0  0  0  0  0  0  0
  1  2  1  6  0  0  0
  1  3  1  0  0  0  0
  1 10  1  0  0  0  0
  3  4  1  6  0  0  0
  3  5  1  0  0  0  0
  5  6  1  1  0  0  0
  5  7  1  0  0  0  0
  7  8  1  6  0  0  0
  7  9  1  0  0  0  0
  9 10  1  0  0  0  0
  9 11  1  1  0  0  0
 11 12  1  0  0  0  0
 13 14  1  6  0  0  0
 13 15  1  0  0  0  0
 13 21  1  0  0  0  0
 16 15  1  0  0  0  0
 16 17  1  6  0  0  0
 18  2  1  1  0  0  0
 18 16  1  0  0  0  0
 19 18  1  0  0  0  0
 19 20  1  6  0  0  0
 21 19  1  0  0  0  0
 21 22  1  1  0  0  0
 23 20  1  6  0  0  0
 23 24  1  0  0  0  0
 23 28  1  0  0  0  0
 24 25  1  6  0  0  0
 24 26  1  0  0  0  0
 26 27  1  0  0  0  0
 26 32  1  6  0  0  0
 27 28  1  0  0  0  0
 27 29  1  6  0  0  0
 29 30  1  0  0  0  0
 31 32  1  6  0  0  0
 31 40  1  0  0  0  0
 33 31  1  0  0  0  0
 33 42  1  6  0  0  0
 35 33  1  0  0  0  0
 35 36  1  1  0  0  0
 37 35  1  0  0  0  0
 37 38  1  6  0  0  0
 37 39  1  0  0  0  0
 39 40  1  0  0  0  0
 39 41  1  6  0  0  0
 41 34  1  0  0  0  0
M  END
>  <CHROM.1>
176.78876515,60.70217557,-173.34879681,163.29490502,174.32917507,176.91441485
-172.16949235,-171.28944600,66.02090331,-2.05947380,91.24430472,12.75529780
2.41401090,0.46335436,-1.85674187

>  <Name>
2fcy_lig

>  <RI>
1.56845e+07

>  <Rbt.Current_Directory>
/home/itssahil/PROJECTS/Mol_Feturizer/New_Systems/rnas/2fcy

>  <Rbt.Executable>
rbdock ($Id: //depot/dev/client3/rdock/2013.1/src/exe/rbdock.cxx#4 $)

>  <Rbt.Library>
libRbt.so (2013.1, Build901 2013/11/27)

>  <Rbt.Parameter_File>
/export/apps/rDock/src/rDock_2013.1_src/data/scripts/dock_solv.prm

>  <Rbt.Receptor>
prm/pocket_docking_4.prm

>  <SCORE>
-15.3994

>  <SCORE.INTER>
-9.08029

>  <SCORE.INTER.CONST>
1

>  <SCORE.INTER.POLAR>
-1.12977

>  <SCORE.INTER.ROT>
9

>  <SCORE.INTER.SOLV>
21.562

>  <SCORE.INTER.VDW>
-19.075

>  <SCORE.INTER.norm>
-0.216197

>  <SCORE.INTRA>
-6.41369

>  <SCORE.INTRA.DIHEDRAL>
-14.2311

>  <SCORE.INTRA.DIHEDRAL.0>
17.3446

>  <SCORE.INTRA.POLAR>
0

>  <SCORE.INTRA.POLAR.0>
0

>  <SCORE.INTRA.REPUL>
0

>  <SCORE.INTRA.REPUL.0>
0

>  <SCORE.INTRA.SOLV>
-4.33616

>  <SCORE.INTRA.SOLV.lig_0>
-112.452

>  <SCORE.INTRA.VDW>
2.86994

>  <SCORE.INTRA.VDW.0>
-5.95059

>  <SCORE.INTRA.norm>
-0.152707

>  <SCORE.RESTR>
0.0945716

>  <SCORE.RESTR.CAVITY>
0.0945716

>  <SCORE.RESTR.norm>
0.0022517

>  <SCORE.SYSTEM>
0

>  <SCORE.SYSTEM.CONST>
0

>  <SCORE.SYSTEM.DIHEDRAL>
0

>  <SCORE.SYSTEM.SOLV>
0

>  <SCORE.SYSTEM.norm>
0

>  <SCORE.heavy>
42

>  <SCORE.norm>
-0.366653

>  <RMSD>
9.241

$$$$
2fcy_lig
 OpenBabel11021811433D
libRbt.so/2013.1/901 2013/11/27
 42 45  0  0  0  0  0  0  0  0999 V2000
   -2.9985   94.3085    9.3879 C   0  0  2  0  0  0  0  0  0  0  0  0
   -3.2247   92.8902    9.3216 O   0  0  0  0  0  0  0  0  0  0  0  0
   -3.9492   94.8225   10.4700 C   0  0  2  0  0  0  0  0  0  0  0  0
   -3.7066   94.0682   11.7073 N   0  0  0  0  0  0  0  0  0  0  0  0
   -5.3976   94.6118   10.0215 C   0  0  1  0  0  0  0  0  0  0  0  0
   -6.3067   95.0894   11.0170 O   0  0  0  0  0  0  0  0  0  0  0  0
   -5.6276   95.3357    8.6945 C   0  0  2  0  0  0  0  0  0  0  0  0
   -6.9487   95.0582    8.2302 O   0  0  0  0  0  0  0  0  0  0  0  0
   -4.6375   94.7963    7.6611 C   0  0  2  0  0  0  0  0  0  0  0  0
   -3.2963   94.9736    8.1431 O   0  0  0  0  0  0  0  0  0  0  0  0
   -4.8517   95.5213    6.3298 C   0  0  0  0  0  0  0  0  0  0  0  0
   -4.5810   96.9605    6.4648 N   0  0  0  0  0  0  0  0  0  0  0  0
   -0.5470   89.6641    9.5840 C   0  0  2  0  0  0  0  0  0  0  0  0
    0.4956   88.6755    9.8980 N   0  0  0  0  0  0  0  0  0  0  0  0
    0.0681   91.0423    9.3335 C   0  0  0  0  0  0  0  0  0  0  0  0
   -1.0463   91.9926    8.8836 C   0  0  2  0  0  0  0  0  0  0  0  0
   -0.4944   93.3453    8.7210 N   0  0  0  0  0  0  0  0  0  0  0  0
   -2.1904   92.0735    9.8985 C   0  0  2  0  0  0  0  0  0  0  0  0
   -2.7052   90.7239   10.3861 C   0  0  2  0  0  0  0  0  0  0  0  0
   -3.4626   91.0067   11.5737 O   0  0  0  0  0  0  0  0  0  0  0  0
   -1.5571   89.7655   10.7296 C   0  0  1  0  0  0  0  0  0  0  0  0
   -2.0532   88.4505   10.9938 O   0  0  0  0  0  0  0  0  0  0  0  0
   -2.7386   90.9147   12.8113 C   0  0  1  0  0  0  0  0  0  0  0  0
   -1.8666   92.1657   12.9303 C   0  0  2  0  0  0  0  0  0  0  0  0
   -0.6488   91.9735   12.2066 O   0  0  0  0  0  0  0  0  0  0  0  0
   -1.5831   92.1120   14.4287 C   0  0  1  0  0  0  0  0  0  0  0  0
   -2.9758   91.8132   14.9610 C   0  0  2  0  0  0  0  0  0  0  0  0
   -3.5874   90.9541   13.9768 O   0  0  0  0  0  0  0  0  0  0  0  0
   -3.7429   93.1304   15.1245 C   0  0  0  0  0  0  0  0  0  0  0  0
   -4.8938   92.9420   15.9529 O   0  0  0  0  0  0  0  0  0  0  0  0
   -0.0273   91.2615   15.9632 C   0  0  2  0  0  0  0  0  0  0  0  0
   -0.6997   91.0169   14.7184 O   0  0  0  0  0  0  0  0  0  0  0  0
    1.4796   91.3854   15.7160 C   0  0  1  0  0  0  0  0  0  0  0  0
    0.5372   88.0102   18.7872 N   0  0  0  0  0  0  0  0  0  0  0  0
    2.2278   91.5452   17.0437 C   0  0  1  0  0  0  0  0  0  0  0  0
    1.9207   92.8108   17.6373 O   0  0  0  0  0  0  0  0  0  0  0  0
    1.8365   90.4143   17.9989 C   0  0  2  0  0  0  0  0  0  0  0  0
    2.3001   89.1750   17.4522 O   0  0  0  0  0  0  0  0  0  0  0  0
    0.3128   90.3812   18.1582 C   0  0  1  0  0  0  0  0  0  0  0  0
   -0.3100   90.1855   16.8750 O   0  0  0  0  0  0  0  0  0  0  0  0
   -0.1289   89.2772   19.1229 C   0  0  0  0  0  0  0  0  0  0  0  0
    1.9528   90.1564   15.0612 N   0  0  0  0  0  0  0  0  0  0  0  0
  1  2  1  6  0  0  0
  1  3  1  0  0  0  0
  1 10  1  0  0  0  0
  3  4  1  1  0  0  0
  3  5  1  0  0  0  0
  5  6  1  1  0  0  0
  5  7  1  0  0  0  0
  7  8  1  6  0  0  0
  7  9  1  0  0  0  0
  9 10  1  0  0  0  0
  9 11  1  6  0  0  0
 11 12  1  0  0  0  0
 13 14  1  1  0  0  0
 13 15  1  0  0  0  0
 13 21  1  0  0  0  0
 16 15  1  0  0  0  0
 16 17  1  1  0  0  0
 18  2  1  6  0  0  0
 18 16  1  0  0  0  0
 19 18  1  0  0  0  0
 19 20  1  1  0  0  0
 21 19  1  0  0  0  0
 21 22  1  6  0  0  0
 23 20  1  6  0  0  0
 23 24  1  0  0  0  0
 23 28  1  0  0  0  0
 24 25  1  6  0  0  0
 24 26  1  0  0  0  0
 26 27  1  0  0  0  0
 26 32  1  6  0  0  0
 27 28  1  0  0  0  0
 27 29  1  6  0  0  0
 29 30  1  0  0  0  0
 31 32  1  6  0  0  0
 31 40  1  0  0  0  0
 33 31  1  0  0  0  0
 33 42  1  1  0  0  0
 35 33  1  0  0  0  0
 35 36  1  1  0  0  0
 37 35  1  0  0  0  0
 37 38  1  6  0  0  0
 37 39  1  0  0  0  0
 39 40  1  0  0  0  0
 39 41  1  1  0  0  0
 41 34  1  0  0  0  0
M  END
>  <CHROM.1>
-105.98951242,62.57297347,-79.02848289,-93.01738928,76.10859472,157.48289744
-164.01746648,-116.70050069,-48.04051473,-1.92189569,92.06422303,12.50702690
-2.22744538,-0.69607717,1.56990969

>  <Name>
2fcy_lig

>  <RI>
1.56845e+07

>  <Rbt.Current_Directory>
/home/itssahil/PROJECTS/Mol_Feturizer/New_Systems/rnas/2fcy

>  <Rbt.Executable>
rbdock ($Id: //depot/dev/client3/rdock/2013.1/src/exe/rbdock.cxx#4 $)

>  <Rbt.Library>
libRbt.so (2013.1, Build901 2013/11/27)

>  <Rbt.Parameter_File>
/export/apps/rDock/src/rDock_2013.1_src/data/scripts/dock_solv.prm

>  <Rbt.Receptor>
prm/pocket_docking_4.prm

>  <SCORE>
-0.85895

>  <SCORE.INTER>
-11.9895

>  <SCORE.INTER.CONST>
1

>  <SCORE.INTER.POLAR>
-1.90782

>  <SCORE.INTER.ROT>
9

>  <SCORE.INTER.SOLV>
20.9066

>  <SCORE.INTER.VDW>
-18.2025

>  <SCORE.INTER.norm>
-0.285464

>  <SCORE.INTRA>
10.8275

>  <SCORE.INTRA.DIHEDRAL>
6.99609

>  <SCORE.INTRA.DIHEDRAL.0>
17.3446

>  <SCORE.INTRA.POLAR>
0

>  <SCORE.INTRA.POLAR.0>
0

>  <SCORE.INTRA.REPUL>
0

>  <SCORE.INTRA.REPUL.0>
0

>  <SCORE.INTRA.SOLV>
4.68306

>  <SCORE.INTRA.SOLV.lig_0>
-112.452

>  <SCORE.INTRA.VDW>
4.98792

>  <SCORE.INTRA.VDW.0>
-5.95059

>  <SCORE.INTRA.norm>
0.257798

>  <SCORE.RESTR>
0.303043

>  <SCORE.RESTR.CAVITY>
0.303043

>  <SCORE.RESTR.norm>
0.0072153

>  <SCORE.SYSTEM>
0

>  <SCORE.SYSTEM.CONST>
0

>  <SCORE.SYSTEM.DIHEDRAL>
0

>  <SCORE.SYSTEM.SOLV>
0

>  <SCORE.SYSTEM.norm>
0

>  <SCORE.heavy>
42

>  <SCORE.norm>
-0.0204512

>  <RMSD>
9.251

$$$$
2fcy_lig
 OpenBabel11021811433D
libRbt.so/2013.1/901 2013/11/27
 42 45  0  0  0  0  0  0  0  0999 V2000
    4.0772   98.1548   10.9543 C   0  0  2  0  0  0  0  0  0  0  0  0
    4.8658   97.0300   11.3787 O   0  0  0  0  0  0  0  0  0  0  0  0
    3.4993   98.7544   12.2372 C   0  0  2  0  0  0  0  0  0  0  0  0
    4.6047   99.0479   13.1596 N   0  0  0  0  0  0  0  0  0  0  0  0
    2.5465   97.7489   12.8886 C   0  0  1  0  0  0  0  0  0  0  0  0
    1.9894   98.2896   14.0898 O   0  0  0  0  0  0  0  0  0  0  0  0
    1.4381   97.3869   11.8996 C   0  0  2  0  0  0  0  0  0  0  0  0
    0.6071   96.3779   12.4731 O   0  0  0  0  0  0  0  0  0  0  0  0
    2.0758   96.8142   10.6329 C   0  0  2  0  0  0  0  0  0  0  0  0
    2.9938   97.7718   10.0826 O   0  0  0  0  0  0  0  0  0  0  0  0
    0.9753   96.4571    9.6304 C   0  0  0  0  0  0  0  0  0  0  0  0
    1.5381   95.7913    8.4461 N   0  0  0  0  0  0  0  0  0  0  0  0
    8.7824   96.6679   12.8536 C   0  0  2  0  0  0  0  0  0  0  0  0
   10.0959   96.7833   13.5050 N   0  0  0  0  0  0  0  0  0  0  0  0
    8.4838   97.9077   12.0083 C   0  0  0  0  0  0  0  0  0  0  0  0
    7.1713   97.6718   11.2541 C   0  0  2  0  0  0  0  0  0  0  0  0
    6.8187   98.8848   10.5023 N   0  0  0  0  0  0  0  0  0  0  0  0
    6.0065   97.3499   12.1948 C   0  0  2  0  0  0  0  0  0  0  0  0
    6.3074   96.2784   13.2369 C   0  0  2  0  0  0  0  0  0  0  0  0
    5.2748   96.4039   14.2278 O   0  0  0  0  0  0  0  0  0  0  0  0
    7.6761   96.4927   13.8968 C   0  0  1  0  0  0  0  0  0  0  0  0
    8.0242   95.3773   14.7213 O   0  0  0  0  0  0  0  0  0  0  0  0
    4.7043   95.1702   14.6932 C   0  0  1  0  0  0  0  0  0  0  0  0
    3.2625   95.4581   15.1150 C   0  0  2  0  0  0  0  0  0  0  0  0
    3.2448   95.9673   16.4507 O   0  0  0  0  0  0  0  0  0  0  0  0
    2.7262   94.0296   15.1066 C   0  0  1  0  0  0  0  0  0  0  0  0
    3.2987   93.5291   13.7898 C   0  0  2  0  0  0  0  0  0  0  0  0
    4.5857   94.1681   13.6626 O   0  0  0  0  0  0  0  0  0  0  0  0
    2.3514   93.9217   12.6502 C   0  0  0  0  0  0  0  0  0  0  0  0
    2.8600   93.4640   11.3939 O   0  0  0  0  0  0  0  0  0  0  0  0
    2.9852   91.8967   16.0460 C   0  0  2  0  0  0  0  0  0  0  0  0
    3.2909   93.2909   16.2016 O   0  0  0  0  0  0  0  0  0  0  0  0
    1.5002   91.6617   16.3404 C   0  0  1  0  0  0  0  0  0  0  0  0
    4.4821   89.3924   19.0803 N   0  0  0  0  0  0  0  0  0  0  0  0
    1.1734   90.1658   16.2797 C   0  0  1  0  0  0  0  0  0  0  0  0
    1.2875   89.6869   14.9359 O   0  0  0  0  0  0  0  0  0  0  0  0
    2.1274   89.3891   17.1913 C   0  0  2  0  0  0  0  0  0  0  0  0
    1.8773   89.7745   18.5471 O   0  0  0  0  0  0  0  0  0  0  0  0
    3.5766   89.7122   16.8119 C   0  0  1  0  0  0  0  0  0  0  0  0
    3.8120   91.1271   16.9365 O   0  0  0  0  0  0  0  0  0  0  0  0
    4.5721   88.9419   17.6836 C   0  0  0  0  0  0  0  0  0  0  0  0
    1.2058   92.1468   17.6973 N   0  0  0  0  0  0  0  0  0  0  0  0
  1  2  1  1  0  0  0
  1  3  1  0  0  0  0
  1 10  1  0  0  0  0
  3  4  1  1  0  0  0
  3  5  1  0  0  0  0
  5  6  1  1  0  0  0
  5  7  1  0  0  0  0
  7  8  1  1  0  0  0
  7  9  1  0  0  0  0
  9 10  1  0  0  0  0
  9 11  1  6  0  0  0
 11 12  1  0  0  0  0
 13 14  1  1  0  0  0
 13 15  1  0  0  0  0
 13 21  1  0  0  0  0
 16 15  1  0  0  0  0
 16 17  1  1  0  0  0
 18  2  1  6  0  0  0
 18 16  1  0  0  0  0
 19 18  1  0  0  0  0
 19 20  1  1  0  0  0
 21 19  1  0  0  0  0
 21 22  1  6  0  0  0
 23 20  1  6  0  0  0
 23 24  1  0  0  0  0
 23 28  1  0  0  0  0
 24 25  1  1  0  0  0
 24 26  1  0  0  0  0
 26 27  1  0  0  0  0
 26 32  1  1  0  0  0
 27 28  1  0  0  0  0
 27 29  1  6  0  0  0
 29 30  1  0  0  0  0
 31 32  1  1  0  0  0
 31 40  1  0  0  0  0
 33 31  1  0  0  0  0
 33 42  1  1  0  0  0
 35 33  1  0  0  0  0
 35 36  1  6  0  0  0
 37 35  1  0  0  0  0
 37 38  1  1  0  0  0
 37 39  1  0  0  0  0
 39 40  1  0  0  0  0
 39 41  1  1  0  0  0
 41 34  1  0  0  0  0
M  END
>  <CHROM.1>
-64.31575918,-174.91153023,-86.15940302,136.55420237,-151.26562505,-169.28073479
-179.93685385,-72.50990919,-65.90342094,3.90156977,94.79977559,13.89426587
1.30394903,-0.27530358,-0.72497324

>  <Name>
2fcy_lig

>  <RI>
9.29634e+06

>  <Rbt.Current_Directory>
/home/itssahil/PROJECTS/Mol_Feturizer/New_Systems/rnas/2fcy

>  <Rbt.Executable>
rbdock ($Id: //depot/dev/client3/rdock/2013.1/src/exe/rbdock.cxx#4 $)

>  <Rbt.Library>
libRbt.so (2013.1, Build901 2013/11/27)

>  <Rbt.Parameter_File>
/export/apps/rDock/src/rDock_2013.1_src/data/scripts/dock_solv.prm

>  <Rbt.Receptor>
prm/blind_docking_100.prm

>  <SCORE>
-4.77215

>  <SCORE.INTER>
-15.2921

>  <SCORE.INTER.CONST>
1

>  <SCORE.INTER.POLAR>
-2.60716

>  <SCORE.INTER.ROT>
9

>  <SCORE.INTER.SOLV>
23.9636

>  <SCORE.INTER.VDW>
-19.0921

>  <SCORE.INTER.norm>
-0.364098

>  <SCORE.INTRA>
4.98818

>  <SCORE.INTRA.DIHEDRAL>
-3.16625

>  <SCORE.INTRA.DIHEDRAL.0>
17.3446

>  <SCORE.INTRA.POLAR>
0

>  <SCORE.INTRA.POLAR.0>
0

>  <SCORE.INTRA.REPUL>
0

>  <SCORE.INTRA.REPUL.0>
0

>  <SCORE.INTRA.SOLV>
3.49428

>  <SCORE.INTRA.SOLV.lig_0>
-112.452

>  <SCORE.INTRA.VDW>
4.82417

>  <SCORE.INTRA.VDW.0>
-5.95059

>  <SCORE.INTRA.norm>
0.118766

>  <SCORE.RESTR>
5.53179

>  <SCORE.RESTR.CAVITY>
5.53179

>  <SCORE.RESTR.norm>
0.131709

>  <SCORE.SYSTEM>
0

>  <SCORE.SYSTEM.CONST>
0

>  <SCORE.SYSTEM.DIHEDRAL>
0

>  <SCORE.SYSTEM.SOLV>
0

>  <SCORE.SYSTEM.norm>
0

>  <SCORE.heavy>
42

>  <SCORE.norm>
-0.113623

>  <RMSD>
9.258

$$$$
2fcy_lig
 OpenBabel11021811433D
libRbt.so/2013.1/901 2013/11/27
 42 45  0  0  0  0  0  0  0  0999 V2000
   -2.0759   96.7270   12.4846 C   0  0  2  0  0  0  0  0  0  0  0  0
   -2.3206   95.5435   13.2635 O   0  0  0  0  0  0  0  0  0  0  0  0
   -2.8826   97.8351   13.1630 C   0  0  2  0  0  0  0  0  0  0  0  0
   -2.4968   97.8992   14.5792 N   0  0  0  0  0  0  0  0  0  0  0  0
   -4.3767   97.5196   13.0565 C   0  0  1  0  0  0  0  0  0  0  0  0
   -5.1531   98.5456   13.6811 O   0  0  0  0  0  0  0  0  0  0  0  0
   -4.7612   97.3787   11.5833 C   0  0  2  0  0  0  0  0  0  0  0  0
   -6.1315   96.9897   11.4900 O   0  0  0  0  0  0  0  0  0  0  0  0
   -3.9097   96.2743   10.9553 C   0  0  2  0  0  0  0  0  0  0  0  0
   -2.5182   96.5898   11.1185 O   0  0  0  0  0  0  0  0  0  0  0  0
   -4.2790   96.1308    9.4766 C   0  0  0  0  0  0  0  0  0  0  0  0
   -3.5987   94.9746    8.8741 N   0  0  0  0  0  0  0  0  0  0  0  0
    0.3339   92.3379   13.8331 C   0  0  2  0  0  0  0  0  0  0  0  0
    1.1876   91.1421   13.7695 N   0  0  0  0  0  0  0  0  0  0  0  0
   -1.1309   91.9742   13.5823 C   0  0  0  0  0  0  0  0  0  0  0  0
   -1.9820   93.2307   13.7920 C   0  0  2  0  0  0  0  0  0  0  0  0
   -3.3839   92.9266   13.4713 N   0  0  0  0  0  0  0  0  0  0  0  0
   -1.5394   94.3923   12.8975 C   0  0  2  0  0  0  0  0  0  0  0  0
   -0.0398   94.6676   12.9074 C   0  0  2  0  0  0  0  0  0  0  0  0
    0.2087   95.4887   11.7549 O   0  0  0  0  0  0  0  0  0  0  0  0
    0.7785   93.3742   12.7980 C   0  0  1  0  0  0  0  0  0  0  0  0
    2.1695   93.6325   13.0065 O   0  0  0  0  0  0  0  0  0  0  0  0
    1.4740   96.1692   11.7356 C   0  0  1  0  0  0  0  0  0  0  0  0
    1.6378   96.8004   10.3520 C   0  0  2  0  0  0  0  0  0  0  0  0
    2.1497   95.8280    9.4375 O   0  0  0  0  0  0  0  0  0  0  0  0
    2.7301   97.8127   10.6842 C   0  0  1  0  0  0  0  0  0  0  0  0
    2.1870   98.3862   11.9835 C   0  0  2  0  0  0  0  0  0  0  0  0
    1.5407   97.2824   12.6503 O   0  0  0  0  0  0  0  0  0  0  0  0
    1.2005   99.5141   11.6597 C   0  0  0  0  0  0  0  0  0  0  0  0
    0.7508  100.1483   12.8605 O   0  0  0  0  0  0  0  0  0  0  0  0
    5.0490   98.0763   10.9121 C   0  0  2  0  0  0  0  0  0  0  0  0
    3.9699   97.1293   10.9276 O   0  0  0  0  0  0  0  0  0  0  0  0
    6.3437   97.3852   11.3514 C   0  0  1  0  0  0  0  0  0  0  0  0
    5.0096  100.9464   14.0139 N   0  0  0  0  0  0  0  0  0  0  0  0
    7.4881   98.4005   11.4402 C   0  0  1  0  0  0  0  0  0  0  0  0
    7.8342   98.8738   10.1346 O   0  0  0  0  0  0  0  0  0  0  0  0
    7.0698   99.5774   12.3258 C   0  0  2  0  0  0  0  0  0  0  0  0
    6.8862   99.0992   13.6626 O   0  0  0  0  0  0  0  0  0  0  0  0
    5.7622  100.1774   11.7981 C   0  0  1  0  0  0  0  0  0  0  0  0
    4.7311   99.1727   11.7872 O   0  0  0  0  0  0  0  0  0  0  0  0
    5.3115  101.3743   12.6400 C   0  0  0  0  0  0  0  0  0  0  0  0
    6.1372   96.8004   12.6850 N   0  0  0  0  0  0  0  0  0  0  0  0
  1  2  1  1  0  0  0
  1  3  1  0  0  0  0
  1 10  1  0  0  0  0
  3  4  1  1  0  0  0
  3  5  1  0  0  0  0
  5  6  1  6  0  0  0
  5  7  1  0  0  0  0
  7  8  1  1  0  0  0
  7  9  1  0  0  0  0
  9 10  1  0  0  0  0
  9 11  1  6  0  0  0
 11 12  1  0  0  0  0
 13 14  1  6  0  0  0
 13 15  1  0  0  0  0
 13 21  1  0  0  0  0
 16 15  1  0  0  0  0
 16 17  1  6  0  0  0
 18  2  1  1  0  0  0
 18 16  1  0  0  0  0
 19 18  1  0  0  0  0
 19 20  1  6  0  0  0
 21 19  1  0  0  0  0
 21 22  1  1  0  0  0
 23 20  1  6  0  0  0
 23 24  1  0  0  0  0
 23 28  1  0  0  0  0
 24 25  1  6  0  0  0
 24 26  1  0  0  0  0
 26 27  1  0  0  0  0
 26 32  1  1  0  0  0
 27 28  1  0  0  0  0
 27 29  1  6  0  0  0
 29 30  1  0  0  0  0
 31 32  1  1  0  0  0
 31 40  1  0  0  0  0
 33 31  1  0  0  0  0
 33 42  1  1  0  0  0
 35 33  1  0  0  0  0
 35 36  1  6  0  0  0
 37 35  1  0  0  0  0
 37 38  1  1  0  0  0
 37 39  1  0  0  0  0
 39 40  1  0  0  0  0
 39 41  1  1  0  0  0
 41 34  1  0  0  0  0
M  END
>  <CHROM.1>
-173.31654064,-173.28346112,-177.63962085,164.20373197,171.26363100,165.89656793
-175.36809842,172.62892889,-63.57531609,0.89405407,96.79914033,12.15058228
2.79704029,-0.00320059,3.02988582

>  <Name>
2fcy_lig

>  <RI>
2.32494e+07

>  <Rbt.Current_Directory>
/home/itssahil/PROJECTS/Mol_Feturizer/New_Systems/rnas/2fcy

>  <Rbt.Executable>
rbdock ($Id: //depot/dev/client3/rdock/2013.1/src/exe/rbdock.cxx#4 $)

>  <Rbt.Library>
libRbt.so (2013.1, Build901 2013/11/27)

>  <Rbt.Parameter_File>
/export/apps/rDock/src/rDock_2013.1_src/data/scripts/dock_solv.prm

>  <Rbt.Receptor>
prm/pocket_docking_8.prm

>  <SCORE>
-20.1654

>  <SCORE.INTER>
-14.6261

>  <SCORE.INTER.CONST>
1

>  <SCORE.INTER.POLAR>
-2.82271

>  <SCORE.INTER.ROT>
9

>  <SCORE.INTER.SOLV>
16.7333

>  <SCORE.INTER.VDW>
-15.5195

>  <SCORE.INTER.norm>
-0.348241

>  <SCORE.INTRA>
-5.53927

>  <SCORE.INTRA.DIHEDRAL>
-13.5129

>  <SCORE.INTRA.DIHEDRAL.0>
17.3446

>  <SCORE.INTRA.POLAR>
0

>  <SCORE.INTRA.POLAR.0>
0

>  <SCORE.INTRA.REPUL>
0

>  <SCORE.INTRA.REPUL.0>
0

>  <SCORE.INTRA.SOLV>
-3.7664

>  <SCORE.INTRA.SOLV.lig_0>
-112.452

>  <SCORE.INTRA.VDW>
3.10038

>  <SCORE.INTRA.VDW.0>
-5.95059

>  <SCORE.INTRA.norm>
-0.131887

>  <SCORE.RESTR>
0

>  <SCORE.RESTR.CAVITY>
0

>  <SCORE.RESTR.norm>
0

>  <SCORE.SYSTEM>
0

>  <SCORE.SYSTEM.CONST>
0

>  <SCORE.SYSTEM.DIHEDRAL>
0

>  <SCORE.SYSTEM.SOLV>
0

>  <SCORE.SYSTEM.norm>
0

>  <SCORE.heavy>
42

>  <SCORE.norm>
-0.480129

>  <RMSD>
9.261

$$$$
2fcy_lig
 OpenBabel11021811433D
libRbt.so/2013.1/901 2013/11/27
 42 45  0  0  0  0  0  0  0  0999 V2000
   -2.9800   91.2422    7.0642 C   0  0  2  0  0  0  0  0  0  0  0  0
   -2.2924   92.1851    6.2244 O   0  0  0  0  0  0  0  0  0  0  0  0
   -3.2687   90.0354    6.1702 C   0  0  2  0  0  0  0  0  0  0  0  0
   -2.0055   89.5755    5.5772 N   0  0  0  0  0  0  0  0  0  0  0  0
   -4.2352   90.4432    5.0555 C   0  0  1  0  0  0  0  0  0  0  0  0
   -4.5240   89.3282    4.2075 O   0  0  0  0  0  0  0  0  0  0  0  0
   -5.5208   90.9921    5.6750 C   0  0  2  0  0  0  0  0  0  0  0  0
   -6.3806   91.4609    4.6364 O   0  0  0  0  0  0  0  0  0  0  0  0
   -5.1675   92.1796    6.5718 C   0  0  2  0  0  0  0  0  0  0  0  0
   -4.2258   91.7620    7.5725 O   0  0  0  0  0  0  0  0  0  0  0  0
   -6.4467   92.7319    7.2061 C   0  0  0  0  0  0  0  0  0  0  0  0
   -7.3072   93.3611    6.1930 N   0  0  0  0  0  0  0  0  0  0  0  0
    0.0724   95.4514    7.4016 C   0  0  2  0  0  0  0  0  0  0  0  0
    0.6533   96.7116    7.8886 N   0  0  0  0  0  0  0  0  0  0  0  0
   -0.9583   95.7166    6.3025 C   0  0  0  0  0  0  0  0  0  0  0  0
   -1.4272   94.3683    5.7464 C   0  0  2  0  0  0  0  0  0  0  0  0
   -2.4828   94.5953    4.7488 N   0  0  0  0  0  0  0  0  0  0  0  0
   -2.0006   93.4551    6.8339 C   0  0  2  0  0  0  0  0  0  0  0  0
   -1.1324   93.3273    8.0806 C   0  0  2  0  0  0  0  0  0  0  0  0
   -1.9911   92.7791    9.0936 O   0  0  0  0  0  0  0  0  0  0  0  0
   -0.5988   94.6886    8.5464 C   0  0  1  0  0  0  0  0  0  0  0  0
    0.3654   94.5276    9.5902 O   0  0  0  0  0  0  0  0  0  0  0  0
   -1.3546   92.4494   10.3388 C   0  0  1  0  0  0  0  0  0  0  0  0
   -2.3576   91.6508   11.1729 C   0  0  2  0  0  0  0  0  0  0  0  0
   -3.2329   92.5476   11.8608 O   0  0  0  0  0  0  0  0  0  0  0  0
   -1.3866   91.0222   12.1682 C   0  0  1  0  0  0  0  0  0  0  0  0
   -0.2855   90.5636   11.2252 C   0  0  2  0  0  0  0  0  0  0  0  0
   -0.2247   91.5654   10.1891 O   0  0  0  0  0  0  0  0  0  0  0  0
   -0.6484   89.1838   10.6644 C   0  0  0  0  0  0  0  0  0  0  0  0
    0.5309   88.4039   10.4466 O   0  0  0  0  0  0  0  0  0  0  0  0
    0.1605   91.4706   13.8723 C   0  0  2  0  0  0  0  0  0  0  0  0
   -0.8834   92.0294   13.0602 O   0  0  0  0  0  0  0  0  0  0  0  0
   -0.4454   90.4935   14.8848 C   0  0  1  0  0  0  0  0  0  0  0  0
    1.8521   94.0666   16.7579 N   0  0  0  0  0  0  0  0  0  0  0  0
    0.6381   89.9619   15.8291 C   0  0  1  0  0  0  0  0  0  0  0  0
    1.5494   89.1204   15.1153 O   0  0  0  0  0  0  0  0  0  0  0  0
    1.3968   91.1331   16.4594 C   0  0  2  0  0  0  0  0  0  0  0  0
    0.4937   91.8639   17.2959 O   0  0  0  0  0  0  0  0  0  0  0  0
    1.9440   92.0438   15.3551 C   0  0  1  0  0  0  0  0  0  0  0  0
    0.8613   92.5332   14.5421 O   0  0  0  0  0  0  0  0  0  0  0  0
    2.7308   93.2222   15.9353 C   0  0  0  0  0  0  0  0  0  0  0  0
   -1.4505   91.2078   15.6864 N   0  0  0  0  0  0  0  0  0  0  0  0
  1  2  1  6  0  0  0
  1  3  1  0  0  0  0
  1 10  1  0  0  0  0
  3  4  1  6  0  0  0
  3  5  1  0  0  0  0
  5  6  1  1  0  0  0
  5  7  1  0  0  0  0
  7  8  1  6  0  0  0
  7  9  1  0  0  0  0
  9 10  1  0  0  0  0
  9 11  1  1  0  0  0
 11 12  1  0  0  0  0
 13 14  1  1  0  0  0
 13 15  1  0  0  0  0
 13 21  1  0  0  0  0
 16 15  1  0  0  0  0
 16 17  1  6  0  0  0
 18  2  1  6  0  0  0
 18 16  1  0  0  0  0
 19 18  1  0  0  0  0
 19 20  1  1  0  0  0
 21 19  1  0  0  0  0
 21 22  1  1  0  0  0
 23 20  1  6  0  0  0
 23 24  1  0  0  0  0
 23 28  1  0  0  0  0
 24 25  1  1  0  0  0
 24 26  1  0  0  0  0
 26 27  1  0  0  0  0
 26 32  1  1  0  0  0
 27 28  1  0  0  0  0
 27 29  1  6  0  0  0
 29 30  1  0  0  0  0
 31 32  1  1  0  0  0
 31 40  1  0  0  0  0
 33 31  1  0  0  0  0
 33 42  1  1  0  0  0
 35 33  1  0  0  0  0
 35 36  1  6  0  0  0
 37 35  1  0  0  0  0
 37 38  1  1  0  0  0
 37 39  1  0  0  0  0
 39 40  1  0  0  0  0
 39 41  1  1  0  0  0
 41 34  1  0  0  0  0
M  END
>  <CHROM.1>
175.69256053,-68.36980909,-173.35406016,174.40329841,-169.54699673,-172.24638182
-146.87076912,-71.17328105,-62.48790298,-1.52514252,92.06325252,9.99767760
2.36331100,-0.88335648,-0.84053727

>  <Name>
2fcy_lig

>  <RI>
1.56845e+07

>  <Rbt.Current_Directory>
/home/itssahil/PROJECTS/Mol_Feturizer/New_Systems/rnas/2fcy

>  <Rbt.Executable>
rbdock ($Id: //depot/dev/client3/rdock/2013.1/src/exe/rbdock.cxx#4 $)

>  <Rbt.Library>
libRbt.so (2013.1, Build901 2013/11/27)

>  <Rbt.Parameter_File>
/export/apps/rDock/src/rDock_2013.1_src/data/scripts/dock_solv.prm

>  <Rbt.Receptor>
prm/pocket_docking_4.prm

>  <SCORE>
-18.9821

>  <SCORE.INTER>
-15.8126

>  <SCORE.INTER.CONST>
1

>  <SCORE.INTER.POLAR>
-2.74368

>  <SCORE.INTER.ROT>
9

>  <SCORE.INTER.SOLV>
17.6845

>  <SCORE.INTER.VDW>
-16.891

>  <SCORE.INTER.norm>
-0.376491

>  <SCORE.INTRA>
-3.16946

>  <SCORE.INTRA.DIHEDRAL>
-11.5726

>  <SCORE.INTRA.DIHEDRAL.0>
17.3446

>  <SCORE.INTRA.POLAR>
0

>  <SCORE.INTRA.POLAR.0>
0

>  <SCORE.INTRA.REPUL>
0

>  <SCORE.INTRA.REPUL.0>
0

>  <SCORE.INTRA.SOLV>
-2.86153

>  <SCORE.INTRA.SOLV.lig_0>
-112.452

>  <SCORE.INTRA.VDW>
4.04759

>  <SCORE.INTRA.VDW.0>
-5.95059

>  <SCORE.INTRA.norm>
-0.0754634

>  <SCORE.RESTR>
0

>  <SCORE.RESTR.CAVITY>
0

>  <SCORE.RESTR.norm>
0

>  <SCORE.SYSTEM>
0

>  <SCORE.SYSTEM.CONST>
0

>  <SCORE.SYSTEM.DIHEDRAL>
0

>  <SCORE.SYSTEM.SOLV>
0

>  <SCORE.SYSTEM.norm>
0

>  <SCORE.heavy>
42

>  <SCORE.norm>
-0.451955

>  <RMSD>
9.264

$$$$
2fcy_lig
 OpenBabel11021811433D
libRbt.so/2013.1/901 2013/11/27
 42 45  0  0  0  0  0  0  0  0999 V2000
    6.6324   96.5744   13.5751 C   0  0  2  0  0  0  0  0  0  0  0  0
    6.4194   97.7837   14.3231 O   0  0  0  0  0  0  0  0  0  0  0  0
    7.9976   96.7440   12.9068 C   0  0  2  0  0  0  0  0  0  0  0  0
    8.9941   97.0507   13.9421 N   0  0  0  0  0  0  0  0  0  0  0  0
    7.9363   97.8973   11.9022 C   0  0  1  0  0  0  0  0  0  0  0  0
    9.2024   98.0727   11.2603 O   0  0  0  0  0  0  0  0  0  0  0  0
    6.8466   97.6116   10.8684 C   0  0  2  0  0  0  0  0  0  0  0  0
    6.7256   98.7310    9.9909 O   0  0  0  0  0  0  0  0  0  0  0  0
    5.5131   97.4310   11.5953 C   0  0  2  0  0  0  0  0  0  0  0  0
    5.6306   96.3713   12.5575 O   0  0  0  0  0  0  0  0  0  0  0  0
    4.4153   97.1342   10.5705 C   0  0  0  0  0  0  0  0  0  0  0  0
    4.0359   98.3517    9.8381 N   0  0  0  0  0  0  0  0  0  0  0  0
    3.7526   97.6077   17.5641 C   0  0  2  0  0  0  0  0  0  0  0  0
    2.6333   97.6588   18.5167 N   0  0  0  0  0  0  0  0  0  0  0  0
    4.0522   98.9989   17.0021 C   0  0  0  0  0  0  0  0  0  0  0  0
    5.3041   98.9043   16.1241 C   0  0  2  0  0  0  0  0  0  0  0  0
    5.5611  100.2115   15.5027 N   0  0  0  0  0  0  0  0  0  0  0  0
    5.1536   97.8744   15.0007 C   0  0  2  0  0  0  0  0  0  0  0  0
    4.6239   96.5167   15.4487 C   0  0  2  0  0  0  0  0  0  0  0  0
    4.1938   95.8556   14.2479 O   0  0  0  0  0  0  0  0  0  0  0  0
    3.4342   96.6566   16.4078 C   0  0  1  0  0  0  0  0  0  0  0  0
    3.0799   95.3894   16.9679 O   0  0  0  0  0  0  0  0  0  0  0  0
    3.2404   94.7958   14.4271 C   0  0  1  0  0  0  0  0  0  0  0  0
    1.9329   95.2340   13.7654 C   0  0  2  0  0  0  0  0  0  0  0  0
    1.1878   96.0537   14.6692 O   0  0  0  0  0  0  0  0  0  0  0  0
    1.2624   93.8687   13.6444 C   0  0  1  0  0  0  0  0  0  0  0  0
    2.4208   93.0404   13.1112 C   0  0  2  0  0  0  0  0  0  0  0  0
    3.6008   93.5782   13.7430 O   0  0  0  0  0  0  0  0  0  0  0  0
    2.4762   93.1801   11.5856 C   0  0  0  0  0  0  0  0  0  0  0  0
    3.5344   94.0620   11.1999 O   0  0  0  0  0  0  0  0  0  0  0  0
    1.3148   92.0399   15.1111 C   0  0  2  0  0  0  0  0  0  0  0  0
    0.8781   93.3976   14.9459 O   0  0  0  0  0  0  0  0  0  0  0  0
    0.1144   91.1546   15.4613 C   0  0  1  0  0  0  0  0  0  0  0  0
    3.5268   91.3335   18.6038 N   0  0  0  0  0  0  0  0  0  0  0  0
    0.5726   89.7194   15.7421 C   0  0  1  0  0  0  0  0  0  0  0  0
    1.0509   89.1069   14.5403 O   0  0  0  0  0  0  0  0  0  0  0  0
    1.6805   89.7262   16.7988 C   0  0  2  0  0  0  0  0  0  0  0  0
    1.1292   90.1940   18.0344 O   0  0  0  0  0  0  0  0  0  0  0  0
    2.8158   90.6507   16.3463 C   0  0  1  0  0  0  0  0  0  0  0  0
    2.3116   91.9844   16.1467 O   0  0  0  0  0  0  0  0  0  0  0  0
    3.9608   90.6757   17.3625 C   0  0  0  0  0  0  0  0  0  0  0  0
   -0.5241   91.6843   16.6756 N   0  0  0  0  0  0  0  0  0  0  0  0
  1  2  1  6  0  0  0
  1  3  1  0  0  0  0
  1 10  1  0  0  0  0
  3  4  1  1  0  0  0
  3  5  1  0  0  0  0
  5  6  1  6  0  0  0
  5  7  1  0  0  0  0
  7  8  1  6  0  0  0
  7  9  1  0  0  0  0
  9 10  1  0  0  0  0
  9 11  1  6  0  0  0
 11 12  1  0  0  0  0
 13 14  1  1  0  0  0
 13 15  1  0  0  0  0
 13 21  1  0  0  0  0
 16 15  1  0  0  0  0
 16 17  1  6  0  0  0
 18  2  1  1  0  0  0
 18 16  1  0  0  0  0
 19 18  1  0  0  0  0
 19 20  1  6  0  0  0
 21 19  1  0  0  0  0
 21 22  1  1  0  0  0
 23 20  1  6  0  0  0
 23 24  1  0  0  0  0
 23 28  1  0  0  0  0
 24 25  1  1  0  0  0
 24 26  1  0  0  0  0
 26 27  1  0  0  0  0
 26 32  1  1  0  0  0
 27 28  1  0  0  0  0
 27 29  1  6  0  0  0
 29 30  1  0  0  0  0
 31 32  1  1  0  0  0
 31 40  1  0  0  0  0
 33 31  1  0  0  0  0
 33 42  1  1  0  0  0
 35 33  1  0  0  0  0
 35 36  1  6  0  0  0
 37 35  1  0  0  0  0
 37 38  1  1  0  0  0
 37 39  1  0  0  0  0
 39 40  1  0  0  0  0
 39 41  1  1  0  0  0
 41 34  1  0  0  0  0
M  END
>  <CHROM.1>
177.49999818,-75.03417665,158.85669471,-158.52356884,114.38457198,-131.73380284
103.56117212,-123.83387001,-68.07595570,3.82199389,95.00814022,14.45691667
0.05605837,-0.98677818,-1.98620350

>  <Name>
2fcy_lig

>  <RI>
9.29634e+06

>  <Rbt.Current_Directory>
/home/itssahil/PROJECTS/Mol_Feturizer/New_Systems/rnas/2fcy

>  <Rbt.Executable>
rbdock ($Id: //depot/dev/client3/rdock/2013.1/src/exe/rbdock.cxx#4 $)

>  <Rbt.Library>
libRbt.so (2013.1, Build901 2013/11/27)

>  <Rbt.Parameter_File>
/export/apps/rDock/src/rDock_2013.1_src/data/scripts/dock_solv.prm

>  <Rbt.Receptor>
prm/blind_docking_100.prm

>  <SCORE>
20.9015

>  <SCORE.INTER>
-10.6514

>  <SCORE.INTER.CONST>
1

>  <SCORE.INTER.POLAR>
-1.47095

>  <SCORE.INTER.ROT>
9

>  <SCORE.INTER.SOLV>
26.1827

>  <SCORE.INTER.VDW>
-20.5254

>  <SCORE.INTER.norm>
-0.253605

>  <SCORE.INTRA>
26.4833

>  <SCORE.INTRA.DIHEDRAL>
12.4976

>  <SCORE.INTRA.DIHEDRAL.0>
17.3446

>  <SCORE.INTRA.POLAR>
0

>  <SCORE.INTRA.POLAR.0>
0

>  <SCORE.INTRA.REPUL>
1.46721

>  <SCORE.INTRA.REPUL.0>
0

>  <SCORE.INTRA.SOLV>
-1.32142

>  <SCORE.INTRA.SOLV.lig_0>
-112.452

>  <SCORE.INTRA.VDW>
13.5592

>  <SCORE.INTRA.VDW.0>
-5.95059

>  <SCORE.INTRA.norm>
0.630555

>  <SCORE.RESTR>
5.06963

>  <SCORE.RESTR.CAVITY>
5.06963

>  <SCORE.RESTR.norm>
0.120705

>  <SCORE.SYSTEM>
0

>  <SCORE.SYSTEM.CONST>
0

>  <SCORE.SYSTEM.DIHEDRAL>
0

>  <SCORE.SYSTEM.SOLV>
0

>  <SCORE.SYSTEM.norm>
0

>  <SCORE.heavy>
42

>  <SCORE.norm>
0.497655

>  <RMSD>
9.269

$$$$
2fcy_lig
 OpenBabel11021811433D
libRbt.so/2013.1/901 2013/11/27
 42 45  0  0  0  0  0  0  0  0999 V2000
    6.2332   98.2665   11.9265 C   0  0  2  0  0  0  0  0  0  0  0  0
    5.5450   97.0651   11.5389 O   0  0  0  0  0  0  0  0  0  0  0  0
    7.5365   98.2656   11.1263 C   0  0  2  0  0  0  0  0  0  0  0  0
    7.2130   98.1348    9.6991 N   0  0  0  0  0  0  0  0  0  0  0  0
    8.4041   97.0819   11.5618 C   0  0  1  0  0  0  0  0  0  0  0  0
    9.6323   97.0624   10.8291 O   0  0  0  0  0  0  0  0  0  0  0  0
    8.6774   97.1791   13.0630 C   0  0  2  0  0  0  0  0  0  0  0  0
    9.4041   96.0250   13.4844 O   0  0  0  0  0  0  0  0  0  0  0  0
    7.3411   97.1973   13.8068 C   0  0  2  0  0  0  0  0  0  0  0  0
    6.5439   98.2946   13.3348 O   0  0  0  0  0  0  0  0  0  0  0  0
    7.6019   97.3046   15.3115 C   0  0  0  0  0  0  0  0  0  0  0  0
    6.3431   97.4709   16.0533 N   0  0  0  0  0  0  0  0  0  0  0  0
    1.7078   98.6793   12.1016 C   0  0  2  0  0  0  0  0  0  0  0  0
    0.2802   98.9739   12.2969 N   0  0  0  0  0  0  0  0  0  0  0  0
    1.9256   97.8680   10.8230 C   0  0  0  0  0  0  0  0  0  0  0  0
    3.4336   97.7079   10.6051 C   0  0  2  0  0  0  0  0  0  0  0  0
    3.6665   96.8568    9.4293 N   0  0  0  0  0  0  0  0  0  0  0  0
    4.1306   97.0531   11.8013 C   0  0  2  0  0  0  0  0  0  0  0  0
    3.7748   97.6584   13.1547 C   0  0  2  0  0  0  0  0  0  0  0  0
    4.1970   96.6930   14.1314 O   0  0  0  0  0  0  0  0  0  0  0  0
    2.2656   97.8978   13.2937 C   0  0  1  0  0  0  0  0  0  0  0  0
    1.9751   98.6420   14.4798 O   0  0  0  0  0  0  0  0  0  0  0  0
    3.1835   95.7816   14.5855 C   0  0  1  0  0  0  0  0  0  0  0  0
    3.8903   94.5951   15.2429 C   0  0  2  0  0  0  0  0  0  0  0  0
    4.2838   93.6544   14.2409 O   0  0  0  0  0  0  0  0  0  0  0  0
    2.7149   94.0327   16.0369 C   0  0  1  0  0  0  0  0  0  0  0  0
    2.1497   95.3119   16.6338 C   0  0  2  0  0  0  0  0  0  0  0  0
    2.3474   96.3260   15.6271 O   0  0  0  0  0  0  0  0  0  0  0  0
    2.9048   95.6373   17.9277 C   0  0  0  0  0  0  0  0  0  0  0  0
    2.2115   96.6410   18.6751 O   0  0  0  0  0  0  0  0  0  0  0  0
    1.6414   92.0404   15.4230 C   0  0  2  0  0  0  0  0  0  0  0  0
    1.7593   93.4432   15.1408 O   0  0  0  0  0  0  0  0  0  0  0  0
    0.3088   91.5181   14.8766 C   0  0  1  0  0  0  0  0  0  0  0  0
    2.1216   88.8574   19.0238 N   0  0  0  0  0  0  0  0  0  0  0  0
    0.1159   90.0458   15.2556 C   0  0  1  0  0  0  0  0  0  0  0  0
    1.0616   89.2264   14.5609 O   0  0  0  0  0  0  0  0  0  0  0  0
    0.2891   89.8724   16.7670 C   0  0  2  0  0  0  0  0  0  0  0  0
   -0.7681   90.5736   17.4304 O   0  0  0  0  0  0  0  0  0  0  0  0
    1.6464   90.4395   17.1965 C   0  0  1  0  0  0  0  0  0  0  0  0
    1.7293   91.8328   16.8436 O   0  0  0  0  0  0  0  0  0  0  0  0
    1.8768   90.2708   18.7008 C   0  0  0  0  0  0  0  0  0  0  0  0
   -0.7847   92.2988   15.4748 N   0  0  0  0  0  0  0  0  0  0  0  0
  1  2  1  1  0  0  0
  1  3  1  0  0  0  0
  1 10  1  0  0  0  0
  3  4  1  6  0  0  0
  3  5  1  0  0  0  0
  5  6  1  6  0  0  0
  5  7  1  0  0  0  0
  7  8  1  1  0  0  0
  7  9  1  0  0  0  0
  9 10  1  0  0  0  0
  9 11  1  1  0  0  0
 11 12  1  0  0  0  0
 13 14  1  1  0  0  0
 13 15  1  0  0  0  0
 13 21  1  0  0  0  0
 16 15  1  0  0  0  0
 16 17  1  6  0  0  0
 18  2  1  6  0  0  0
 18 16  1  0  0  0  0
 19 18  1  0  0  0  0
 19 20  1  1  0  0  0
 21 19  1  0  0  0  0
 21 22  1  1  0  0  0
 23 20  1  1  0  0  0
 23 24  1  0  0  0  0
 23 28  1  0  0  0  0
 24 25  1  6  0  0  0
 24 26  1  0  0  0  0
 26 27  1  0  0  0  0
 26 32  1  6  0  0  0
 27 28  1  0  0  0  0
 27 29  1  1  0  0  0
 29 30  1  0  0  0  0
 31 32  1  1  0  0  0
 31 40  1  0  0  0  0
 33 31  1  0  0  0  0
 33 42  1  1  0  0  0
 35 33  1  0  0  0  0
 35 36  1  6  0  0  0
 37 35  1  0  0  0  0
 37 38  1  1  0  0  0
 37 39  1  0  0  0  0
 39 40  1  0  0  0  0
 39 41  1  1  0  0  0
 41 34  1  0  0  0  0
M  END
>  <CHROM.1>
-160.15043309,173.89504544,86.14364602,-95.08799616,162.28403573,117.72736213
-166.55873114,158.99604705,71.67056106,3.63964444,95.22228158,14.30149689
-0.98019889,0.03745257,2.48960236

>  <Name>
2fcy_lig

>  <RI>
9.29634e+06

>  <Rbt.Current_Directory>
/home/itssahil/PROJECTS/Mol_Feturizer/New_Systems/rnas/2fcy

>  <Rbt.Executable>
rbdock ($Id: //depot/dev/client3/rdock/2013.1/src/exe/rbdock.cxx#4 $)

>  <Rbt.Library>
libRbt.so (2013.1, Build901 2013/11/27)

>  <Rbt.Parameter_File>
/export/apps/rDock/src/rDock_2013.1_src/data/scripts/dock_solv.prm

>  <Rbt.Receptor>
prm/blind_docking_100.prm

>  <SCORE>
-2.69113

>  <SCORE.INTER>
-12.0167

>  <SCORE.INTER.CONST>
1

>  <SCORE.INTER.POLAR>
-1.15254

>  <SCORE.INTER.ROT>
9

>  <SCORE.INTER.SOLV>
29.256

>  <SCORE.INTER.VDW>
-23.5214

>  <SCORE.INTER.norm>
-0.286113

>  <SCORE.INTRA>
6.89973

>  <SCORE.INTRA.DIHEDRAL>
3.43741

>  <SCORE.INTRA.DIHEDRAL.0>
17.3446

>  <SCORE.INTRA.POLAR>
0

>  <SCORE.INTRA.POLAR.0>
0

>  <SCORE.INTRA.REPUL>
0

>  <SCORE.INTRA.REPUL.0>
0

>  <SCORE.INTRA.SOLV>
-1.46277

>  <SCORE.INTRA.SOLV.lig_0>
-112.452

>  <SCORE.INTRA.VDW>
5.91241

>  <SCORE.INTRA.VDW.0>
-5.95059

>  <SCORE.INTRA.norm>
0.164279

>  <SCORE.RESTR>
2.42588

>  <SCORE.RESTR.CAVITY>
2.42588

>  <SCORE.RESTR.norm>
0.057759

>  <SCORE.SYSTEM>
0

>  <SCORE.SYSTEM.CONST>
0

>  <SCORE.SYSTEM.DIHEDRAL>
0

>  <SCORE.SYSTEM.SOLV>
0

>  <SCORE.SYSTEM.norm>
0

>  <SCORE.heavy>
42

>  <SCORE.norm>
-0.0640745

>  <RMSD>
9.290

$$$$
2fcy_lig
 OpenBabel11021811433D
libRbt.so/2013.1/901 2013/11/27
 42 45  0  0  0  0  0  0  0  0999 V2000
   -0.8270   93.8379    5.9762 C   0  0  2  0  0  0  0  0  0  0  0  0
   -0.9415   92.8874    7.0488 O   0  0  0  0  0  0  0  0  0  0  0  0
   -1.2480   95.1807    6.5752 C   0  0  2  0  0  0  0  0  0  0  0  0
   -0.4277   95.4435    7.7654 N   0  0  0  0  0  0  0  0  0  0  0  0
   -2.7238   95.1220    6.9773 C   0  0  1  0  0  0  0  0  0  0  0  0
   -3.1424   96.3698    7.5371 O   0  0  0  0  0  0  0  0  0  0  0  0
   -3.5696   94.7740    5.7520 C   0  0  2  0  0  0  0  0  0  0  0  0
   -4.9328   94.6248    6.1484 O   0  0  0  0  0  0  0  0  0  0  0  0
   -3.0899   93.4365    5.1861 C   0  0  2  0  0  0  0  0  0  0  0  0
   -1.6927   93.5241    4.8659 O   0  0  0  0  0  0  0  0  0  0  0  0
   -3.9235   93.0821    3.9518 C   0  0  0  0  0  0  0  0  0  0  0  0
   -3.6576   94.0195    2.8504 N   0  0  0  0  0  0  0  0  0  0  0  0
    0.5309   88.9589    7.2630 C   0  0  2  0  0  0  0  0  0  0  0  0
    1.2939   87.7017    7.2670 N   0  0  0  0  0  0  0  0  0  0  0  0
    0.6314   89.6517    5.9026 C   0  0  0  0  0  0  0  0  0  0  0  0
   -0.2858   90.8788    5.9180 C   0  0  2  0  0  0  0  0  0  0  0  0
   -0.1394   91.6102    4.6514 N   0  0  0  0  0  0  0  0  0  0  0  0
    0.0503   91.8454    7.0574 C   0  0  2  0  0  0  0  0  0  0  0  0
    0.2062   91.1884    8.4243 C   0  0  2  0  0  0  0  0  0  0  0  0
    0.8839   92.1561    9.2418 O   0  0  0  0  0  0  0  0  0  0  0  0
    1.0466   89.9067    8.3488 C   0  0  1  0  0  0  0  0  0  0  0  0
    1.0165   89.2039    9.5939 O   0  0  0  0  0  0  0  0  0  0  0  0
    0.7006   92.0120   10.6596 C   0  0  1  0  0  0  0  0  0  0  0  0
    1.2277   93.2844   11.3250 C   0  0  2  0  0  0  0  0  0  0  0  0
    2.6430   93.1843   11.5004 O   0  0  0  0  0  0  0  0  0  0  0  0
    0.5353   93.1454   12.6776 C   0  0  1  0  0  0  0  0  0  0  0  0
   -0.8664   92.7617   12.2303 C   0  0  2  0  0  0  0  0  0  0  0  0
   -0.6848   91.9452   11.0551 O   0  0  0  0  0  0  0  0  0  0  0  0
   -1.6607   94.0363   11.9226 C   0  0  0  0  0  0  0  0  0  0  0  0
   -3.0119   93.7156   11.5792 O   0  0  0  0  0  0  0  0  0  0  0  0
    0.7347   92.1629   14.7974 C   0  0  2  0  0  0  0  0  0  0  0  0
    1.1278   92.0677   13.4198 O   0  0  0  0  0  0  0  0  0  0  0  0
    1.6384   91.2678   15.6513 C   0  0  1  0  0  0  0  0  0  0  0  0
   -3.3468   92.4698   15.4350 N   0  0  0  0  0  0  0  0  0  0  0  0
    1.1725   91.2750   17.1112 C   0  0  1  0  0  0  0  0  0  0  0  0
    1.3936   92.5622   17.6964 O   0  0  0  0  0  0  0  0  0  0  0  0
   -0.3152   90.9201   17.1825 C   0  0  2  0  0  0  0  0  0  0  0  0
   -0.4832   89.5689   16.7403 O   0  0  0  0  0  0  0  0  0  0  0  0
   -1.1133   91.8703   16.2833 C   0  0  1  0  0  0  0  0  0  0  0  0
   -0.6434   91.7711   14.9261 O   0  0  0  0  0  0  0  0  0  0  0  0
   -2.6135   91.5689   16.3363 C   0  0  0  0  0  0  0  0  0  0  0  0
    1.5534   89.8901   15.1434 N   0  0  0  0  0  0  0  0  0  0  0  0
  1  2  1  1  0  0  0
  1  3  1  0  0  0  0
  1 10  1  0  0  0  0
  3  4  1  1  0  0  0
  3  5  1  0  0  0  0
  5  6  1  6  0  0  0
  5  7  1  0  0  0  0
  7  8  1  1  0  0  0
  7  9  1  0  0  0  0
  9 10  1  0  0  0  0
  9 11  1  6  0  0  0
 11 12  1  0  0  0  0
 13 14  1  6  0  0  0
 13 15  1  0  0  0  0
 13 21  1  0  0  0  0
 16 15  1  0  0  0  0
 16 17  1  6  0  0  0
 18  2  1  1  0  0  0
 18 16  1  0  0  0  0
 19 18  1  0  0  0  0
 19 20  1  1  0  0  0
 21 19  1  0  0  0  0
 21 22  1  1  0  0  0
 23 20  1  6  0  0  0
 23 24  1  0  0  0  0
 23 28  1  0  0  0  0
 24 25  1  1  0  0  0
 24 26  1  0  0  0  0
 26 27  1  0  0  0  0
 26 32  1  1  0  0  0
 27 28  1  0  0  0  0
 27 29  1  6  0  0  0
 29 30  1  0  0  0  0
 31 32  1  6  0  0  0
 31 40  1  0  0  0  0
 33 31  1  0  0  0  0
 33 42  1  6  0  0  0
 35 33  1  0  0  0  0
 35 36  1  6  0  0  0
 37 35  1  0  0  0  0
 37 38  1  6  0  0  0
 37 39  1  0  0  0  0
 39 40  1  0  0  0  0
 39 41  1  6  0  0  0
 41 34  1  0  0  0  0
M  END
>  <CHROM.1>
-144.52527418,67.19313788,-73.17539079,156.91852136,-167.76576038,164.75070007
-176.35526851,-164.98321187,-178.35386336,-0.65230247,92.31875165,10.21657096
1.87193575,0.83969053,-1.63066514

>  <Name>
2fcy_lig

>  <RI>
1.56845e+07

>  <Rbt.Current_Directory>
/home/itssahil/PROJECTS/Mol_Feturizer/New_Systems/rnas/2fcy

>  <Rbt.Executable>
rbdock ($Id: //depot/dev/client3/rdock/2013.1/src/exe/rbdock.cxx#4 $)

>  <Rbt.Library>
libRbt.so (2013.1, Build901 2013/11/27)

>  <Rbt.Parameter_File>
/export/apps/rDock/src/rDock_2013.1_src/data/scripts/dock_solv.prm

>  <Rbt.Receptor>
prm/pocket_docking_4.prm

>  <SCORE>
-19.9607

>  <SCORE.INTER>
-20.3015

>  <SCORE.INTER.CONST>
1

>  <SCORE.INTER.POLAR>
-2.39398

>  <SCORE.INTER.ROT>
9

>  <SCORE.INTER.SOLV>
20.1347

>  <SCORE.INTER.VDW>
-21.866

>  <SCORE.INTER.norm>
-0.483368

>  <SCORE.INTRA>
-0.52209

>  <SCORE.INTRA.DIHEDRAL>
-5.98415

>  <SCORE.INTRA.DIHEDRAL.0>
17.3446

>  <SCORE.INTRA.POLAR>
0

>  <SCORE.INTRA.POLAR.0>
0

>  <SCORE.INTRA.REPUL>
0

>  <SCORE.INTRA.REPUL.0>
0

>  <SCORE.INTRA.SOLV>
-0.762622

>  <SCORE.INTRA.SOLV.lig_0>
-112.452

>  <SCORE.INTRA.VDW>
2.85129

>  <SCORE.INTRA.VDW.0>
-5.95059

>  <SCORE.INTRA.norm>
-0.0124307

>  <SCORE.RESTR>
0.862827

>  <SCORE.RESTR.CAVITY>
0.862827

>  <SCORE.RESTR.norm>
0.0205435

>  <SCORE.SYSTEM>
0

>  <SCORE.SYSTEM.CONST>
0

>  <SCORE.SYSTEM.DIHEDRAL>
0

>  <SCORE.SYSTEM.SOLV>
0

>  <SCORE.SYSTEM.norm>
0

>  <SCORE.heavy>
42

>  <SCORE.norm>
-0.475256

>  <RMSD>
9.293

$$$$
2fcy_lig
 OpenBabel11021811433D
libRbt.so/2013.1/901 2013/11/27
 42 45  0  0  0  0  0  0  0  0999 V2000
   -4.3602   91.1917    7.9974 C   0  0  2  0  0  0  0  0  0  0  0  0
   -3.5782   90.6020    6.9449 O   0  0  0  0  0  0  0  0  0  0  0  0
   -5.6687   90.4005    8.0250 C   0  0  2  0  0  0  0  0  0  0  0  0
   -5.3532   88.9731    8.1728 N   0  0  0  0  0  0  0  0  0  0  0  0
   -6.4281   90.6206    6.7142 C   0  0  1  0  0  0  0  0  0  0  0  0
   -7.6594   89.8928    6.7181 O   0  0  0  0  0  0  0  0  0  0  0  0
   -6.6898   92.1151    6.5249 C   0  0  2  0  0  0  0  0  0  0  0  0
   -7.3115   92.3269    5.2575 O   0  0  0  0  0  0  0  0  0  0  0  0
   -5.3506   92.8538    6.5268 C   0  0  2  0  0  0  0  0  0  0  0  0
   -4.6545   92.5825    7.7534 O   0  0  0  0  0  0  0  0  0  0  0  0
   -5.6007   94.3536    6.3479 C   0  0  0  0  0  0  0  0  0  0  0  0
   -6.3160   94.9097    7.5062 N   0  0  0  0  0  0  0  0  0  0  0  0
    0.5177   90.9216    6.0686 C   0  0  2  0  0  0  0  0  0  0  0  0
    1.8933   91.3076    5.7198 N   0  0  0  0  0  0  0  0  0  0  0  0
   -0.4513   91.2849    4.9416 C   0  0  0  0  0  0  0  0  0  0  0  0
   -1.8371   90.7415    5.3041 C   0  0  2  0  0  0  0  0  0  0  0  0
   -2.8042   91.1542    4.2768 N   0  0  0  0  0  0  0  0  0  0  0  0
   -2.3360   91.2665    6.6535 C   0  0  2  0  0  0  0  0  0  0  0  0
   -1.3266   91.1589    7.7909 C   0  0  2  0  0  0  0  0  0  0  0  0
   -1.8154   92.0299    8.8236 O   0  0  0  0  0  0  0  0  0  0  0  0
    0.0724   91.6167    7.3575 C   0  0  1  0  0  0  0  0  0  0  0  0
    1.0400   91.3248    8.3693 O   0  0  0  0  0  0  0  0  0  0  0  0
   -1.2450   91.8324   10.1274 C   0  0  1  0  0  0  0  0  0  0  0  0
   -1.7506   92.9603   11.0284 C   0  0  2  0  0  0  0  0  0  0  0  0
   -0.9347   94.1205   10.8501 O   0  0  0  0  0  0  0  0  0  0  0  0
   -1.4500   92.3292   12.3848 C   0  0  1  0  0  0  0  0  0  0  0  0
   -1.9797   90.9223   12.1563 C   0  0  2  0  0  0  0  0  0  0  0  0
   -1.6958   90.6244   10.7738 O   0  0  0  0  0  0  0  0  0  0  0  0
   -3.4847   90.9000   12.4476 C   0  0  0  0  0  0  0  0  0  0  0  0
   -3.7390   91.2689   13.8062 O   0  0  0  0  0  0  0  0  0  0  0  0
    0.2427   92.4111   14.0054 C   0  0  2  0  0  0  0  0  0  0  0  0
   -0.0304   92.2919   12.6009 O   0  0  0  0  0  0  0  0  0  0  0  0
    1.7576   92.4435   14.2319 C   0  0  1  0  0  0  0  0  0  0  0  0
   -0.5819   90.2162   18.2523 N   0  0  0  0  0  0  0  0  0  0  0  0
    2.0735   92.4680   15.7312 C   0  0  1  0  0  0  0  0  0  0  0  0
    1.6623   93.7130   16.3049 O   0  0  0  0  0  0  0  0  0  0  0  0
    1.3560   91.3106   16.4313 C   0  0  2  0  0  0  0  0  0  0  0  0
    1.9031   90.0779   15.9512 O   0  0  0  0  0  0  0  0  0  0  0  0
   -0.1438   91.3752   16.1234 C   0  0  1  0  0  0  0  0  0  0  0  0
   -0.3557   91.3035   14.7011 O   0  0  0  0  0  0  0  0  0  0  0  0
   -0.9108   90.2477   16.8196 C   0  0  0  0  0  0  0  0  0  0  0  0
    2.3473   91.2270   13.6527 N   0  0  0  0  0  0  0  0  0  0  0  0
  1  2  1  6  0  0  0
  1  3  1  0  0  0  0
  1 10  1  0  0  0  0
  3  4  1  6  0  0  0
  3  5  1  0  0  0  0
  5  6  1  1  0  0  0
  5  7  1  0  0  0  0
  7  8  1  6  0  0  0
  7  9  1  0  0  0  0
  9 10  1  0  0  0  0
  9 11  1  1  0  0  0
 11 12  1  0  0  0  0
 13 14  1  6  0  0  0
 13 15  1  0  0  0  0
 13 21  1  0  0  0  0
 16 15  1  0  0  0  0
 16 17  1  6  0  0  0
 18  2  1  1  0  0  0
 18 16  1  0  0  0  0
 19 18  1  0  0  0  0
 19 20  1  1  0  0  0
 21 19  1  0  0  0  0
 21 22  1  1  0  0  0
 23 20  1  6  0  0  0
 23 24  1  0  0  0  0
 23 28  1  0  0  0  0
 24 25  1  6  0  0  0
 24 26  1  0  0  0  0
 26 27  1  0  0  0  0
 26 32  1  6  0  0  0
 27 28  1  0  0  0  0
 27 29  1  6  0  0  0
 29 30  1  0  0  0  0
 31 32  1  6  0  0  0
 31 40  1  0  0  0  0
 33 31  1  0  0  0  0
 33 42  1  1  0  0  0
 35 33  1  0  0  0  0
 35 36  1  1  0  0  0
 37 35  1  0  0  0  0
 37 38  1  6  0  0  0
 37 39  1  0  0  0  0
 39 40  1  0  0  0  0
 39 41  1  1  0  0  0
 41 34  1  0  0  0  0
M  END
>  <CHROM.1>
174.76438696,65.87538421,-165.39579794,163.73531556,172.68773470,148.92284514
-60.61922156,-177.13471401,51.47316634,-1.98567726,91.61478173,10.21997908
2.08723921,-0.00718594,-1.55891124

>  <Name>
2fcy_lig

>  <RI>
1.56845e+07

>  <Rbt.Current_Directory>
/home/itssahil/PROJECTS/Mol_Feturizer/New_Systems/rnas/2fcy

>  <Rbt.Executable>
rbdock ($Id: //depot/dev/client3/rdock/2013.1/src/exe/rbdock.cxx#4 $)

>  <Rbt.Library>
libRbt.so (2013.1, Build901 2013/11/27)

>  <Rbt.Parameter_File>
/export/apps/rDock/src/rDock_2013.1_src/data/scripts/dock_solv.prm

>  <Rbt.Receptor>
prm/pocket_docking_4.prm

>  <SCORE>
-11.121

>  <SCORE.INTER>
-5.93915

>  <SCORE.INTER.CONST>
1

>  <SCORE.INTER.POLAR>
-1.19595

>  <SCORE.INTER.ROT>
9

>  <SCORE.INTER.SOLV>
20.4934

>  <SCORE.INTER.VDW>
-16.4041

>  <SCORE.INTER.norm>
-0.141408

>  <SCORE.INTRA>
-5.18182

>  <SCORE.INTRA.DIHEDRAL>
-10.2371

>  <SCORE.INTRA.DIHEDRAL.0>
17.3446

>  <SCORE.INTRA.POLAR>
0

>  <SCORE.INTRA.POLAR.0>
0

>  <SCORE.INTRA.REPUL>
0

>  <SCORE.INTRA.REPUL.0>
0

>  <SCORE.INTRA.SOLV>
-3.54104

>  <SCORE.INTRA.SOLV.lig_0>
-112.452

>  <SCORE.INTRA.VDW>
1.70727

>  <SCORE.INTRA.VDW.0>
-5.95059

>  <SCORE.INTRA.norm>
-0.123377

>  <SCORE.RESTR>
0

>  <SCORE.RESTR.CAVITY>
0

>  <SCORE.RESTR.norm>
0

>  <SCORE.SYSTEM>
0

>  <SCORE.SYSTEM.CONST>
0

>  <SCORE.SYSTEM.DIHEDRAL>
0

>  <SCORE.SYSTEM.SOLV>
0

>  <SCORE.SYSTEM.norm>
0

>  <SCORE.heavy>
42

>  <SCORE.norm>
-0.264785

>  <RMSD>
9.303

$$$$
2fcy_lig
 OpenBabel11021811433D
libRbt.so/2013.1/901 2013/11/27
 42 45  0  0  0  0  0  0  0  0999 V2000
    6.3392   98.1753   11.9794 C   0  0  2  0  0  0  0  0  0  0  0  0
    5.7145   96.9297   11.6254 O   0  0  0  0  0  0  0  0  0  0  0  0
    7.6085   98.2505   11.1296 C   0  0  2  0  0  0  0  0  0  0  0  0
    7.2398   98.0880    9.7166 N   0  0  0  0  0  0  0  0  0  0  0  0
    8.5656   97.1278   11.5380 C   0  0  1  0  0  0  0  0  0  0  0  0
    9.7637   97.1802   10.7587 O   0  0  0  0  0  0  0  0  0  0  0  0
    8.8891   97.2542   13.0271 C   0  0  2  0  0  0  0  0  0  0  0  0
    9.7032   96.1519   13.4267 O   0  0  0  0  0  0  0  0  0  0  0  0
    7.5836   97.1937   13.8216 C   0  0  2  0  0  0  0  0  0  0  0  0
    6.7008   98.2344   13.3745 O   0  0  0  0  0  0  0  0  0  0  0  0
    7.8942   97.3294   15.3146 C   0  0  0  0  0  0  0  0  0  0  0  0
    6.6564   97.3809   16.1070 N   0  0  0  0  0  0  0  0  0  0  0  0
    1.8290   98.4861   11.9812 C   0  0  2  0  0  0  0  0  0  0  0  0
    0.3875   98.7608   12.0797 N   0  0  0  0  0  0  0  0  0  0  0  0
    2.1563   97.7612   10.6742 C   0  0  0  0  0  0  0  0  0  0  0  0
    3.6784   97.6225   10.5684 C   0  0  2  0  0  0  0  0  0  0  0  0
    4.0129   96.8513    9.3625 N   0  0  0  0  0  0  0  0  0  0  0  0
    4.2839   96.8941   11.7718 C   0  0  2  0  0  0  0  0  0  0  0  0
    3.8151   97.4078   13.1286 C   0  0  2  0  0  0  0  0  0  0  0  0
    4.1673   96.3826   14.0714 O   0  0  0  0  0  0  0  0  0  0  0  0
    2.2973   97.6308   13.1610 C   0  0  1  0  0  0  0  0  0  0  0  0
    1.9057   98.2944   14.3657 O   0  0  0  0  0  0  0  0  0  0  0  0
    3.0651   95.6992   14.6898 C   0  0  1  0  0  0  0  0  0  0  0  0
    3.6255   94.4636   15.3961 C   0  0  2  0  0  0  0  0  0  0  0  0
    3.7597   93.3931   14.4583 O   0  0  0  0  0  0  0  0  0  0  0  0
    2.4547   94.1777   16.3321 C   0  0  1  0  0  0  0  0  0  0  0  0
    2.1691   95.5785   16.8502 C   0  0  2  0  0  0  0  0  0  0  0  0
    2.4345   96.4605   15.7401 O   0  0  0  0  0  0  0  0  0  0  0  0
    3.0881   95.8689   18.0423 C   0  0  0  0  0  0  0  0  0  0  0  0
    2.8500   94.9350   19.0995 O   0  0  0  0  0  0  0  0  0  0  0  0
    1.3259   92.2585   15.5966 C   0  0  2  0  0  0  0  0  0  0  0  0
    1.3333   93.6941   15.5758 O   0  0  0  0  0  0  0  0  0  0  0  0
   -0.0234   91.7455   15.0834 C   0  0  1  0  0  0  0  0  0  0  0  0
    3.3578   90.4052   18.7572 N   0  0  0  0  0  0  0  0  0  0  0  0
   -0.0913   90.2185   15.1925 C   0  0  1  0  0  0  0  0  0  0  0  0
    0.8238   89.6140   14.2730 O   0  0  0  0  0  0  0  0  0  0  0  0
    0.2456   89.7852   16.6219 C   0  0  2  0  0  0  0  0  0  0  0  0
   -0.7767   90.2712   17.4984 O   0  0  0  0  0  0  0  0  0  0  0  0
    1.6048   90.3653   17.0272 C   0  0  1  0  0  0  0  0  0  0  0  0
    1.5707   91.8019   16.9385 O   0  0  0  0  0  0  0  0  0  0  0  0
    1.9976   89.9423   18.4453 C   0  0  0  0  0  0  0  0  0  0  0  0
   -1.0930   92.3186   15.9145 N   0  0  0  0  0  0  0  0  0  0  0  0
  1  2  1  1  0  0  0
  1  3  1  0  0  0  0
  1 10  1  0  0  0  0
  3  4  1  6  0  0  0
  3  5  1  0  0  0  0
  5  6  1  6  0  0  0
  5  7  1  0  0  0  0
  7  8  1  1  0  0  0
  7  9  1  0  0  0  0
  9 10  1  0  0  0  0
  9 11  1  1  0  0  0
 11 12  1  0  0  0  0
 13 14  1  1  0  0  0
 13 15  1  0  0  0  0
 13 21  1  0  0  0  0
 16 15  1  0  0  0  0
 16 17  1  6  0  0  0
 18  2  1  1  0  0  0
 18 16  1  0  0  0  0
 19 18  1  0  0  0  0
 19 20  1  1  0  0  0
 21 19  1  0  0  0  0
 21 22  1  1  0  0  0
 23 20  1  1  0  0  0
 23 24  1  0  0  0  0
 23 28  1  0  0  0  0
 24 25  1  6  0  0  0
 24 26  1  0  0  0  0
 26 27  1  0  0  0  0
 26 32  1  6  0  0  0
 27 28  1  0  0  0  0
 27 29  1  1  0  0  0
 29 30  1  0  0  0  0
 31 32  1  1  0  0  0
 31 40  1  0  0  0  0
 33 31  1  0  0  0  0
 33 42  1  1  0  0  0
 35 33  1  0  0  0  0
 35 36  1  6  0  0  0
 37 35  1  0  0  0  0
 37 38  1  1  0  0  0
 37 39  1  0  0  0  0
 39 40  1  0  0  0  0
 39 41  1  1  0  0  0
 41 34  1  0  0  0  0
M  END
>  <CHROM.1>
-152.01261548,175.59897571,78.21386031,-113.22151594,167.42135899,95.64638523
-60.69586704,166.83825022,174.59948523,3.69648911,95.18284614,14.32725390
0.92659361,-0.18702833,-0.79043027

>  <Name>
2fcy_lig

>  <RI>
9.29634e+06

>  <Rbt.Current_Directory>
/home/itssahil/PROJECTS/Mol_Feturizer/New_Systems/rnas/2fcy

>  <Rbt.Executable>
rbdock ($Id: //depot/dev/client3/rdock/2013.1/src/exe/rbdock.cxx#4 $)

>  <Rbt.Library>
libRbt.so (2013.1, Build901 2013/11/27)

>  <Rbt.Parameter_File>
/export/apps/rDock/src/rDock_2013.1_src/data/scripts/dock_solv.prm

>  <Rbt.Receptor>
prm/blind_docking_100.prm

>  <SCORE>
-3.63831

>  <SCORE.INTER>
-12.9474

>  <SCORE.INTER.CONST>
1

>  <SCORE.INTER.POLAR>
-1.26371

>  <SCORE.INTER.ROT>
9

>  <SCORE.INTER.SOLV>
30.7921

>  <SCORE.INTER.VDW>
-24.2833

>  <SCORE.INTER.norm>
-0.308271

>  <SCORE.INTRA>
7.75148

>  <SCORE.INTRA.DIHEDRAL>
0.893109

>  <SCORE.INTRA.DIHEDRAL.0>
17.3446

>  <SCORE.INTRA.POLAR>
0

>  <SCORE.INTRA.POLAR.0>
0

>  <SCORE.INTRA.REPUL>
0

>  <SCORE.INTRA.REPUL.0>
0

>  <SCORE.INTRA.SOLV>
-1.93731

>  <SCORE.INTRA.SOLV.lig_0>
-112.452

>  <SCORE.INTRA.VDW>
8.27358

>  <SCORE.INTRA.VDW.0>
-5.95059

>  <SCORE.INTRA.norm>
0.184559

>  <SCORE.RESTR>
1.55758

>  <SCORE.RESTR.CAVITY>
1.55758

>  <SCORE.RESTR.norm>
0.0370853

>  <SCORE.SYSTEM>
0

>  <SCORE.SYSTEM.CONST>
0

>  <SCORE.SYSTEM.DIHEDRAL>
0

>  <SCORE.SYSTEM.SOLV>
0

>  <SCORE.SYSTEM.norm>
0

>  <SCORE.heavy>
42

>  <SCORE.norm>
-0.0866265

>  <RMSD>
9.318

$$$$
2fcy_lig
 OpenBabel11021811433D
libRbt.so/2013.1/901 2013/11/27
 42 45  0  0  0  0  0  0  0  0999 V2000
   -1.0156   94.6012   12.5975 C   0  0  2  0  0  0  0  0  0  0  0  0
   -1.4036   94.3675   11.2329 O   0  0  0  0  0  0  0  0  0  0  0  0
   -1.0144   93.2238   13.2622 C   0  0  2  0  0  0  0  0  0  0  0  0
   -0.1478   92.3267   12.4857 N   0  0  0  0  0  0  0  0  0  0  0  0
   -2.4388   92.6635   13.2823 C   0  0  1  0  0  0  0  0  0  0  0  0
   -2.4638   91.3757   13.9041 O   0  0  0  0  0  0  0  0  0  0  0  0
   -3.3552   93.6354   14.0263 C   0  0  2  0  0  0  0  0  0  0  0  0
   -4.6992   93.1587   13.9602 O   0  0  0  0  0  0  0  0  0  0  0  0
   -3.2988   94.9963   13.3305 C   0  0  2  0  0  0  0  0  0  0  0  0
   -1.9404   95.4610   13.2946 O   0  0  0  0  0  0  0  0  0  0  0  0
   -4.2055   95.9813   14.0730 C   0  0  0  0  0  0  0  0  0  0  0  0
   -5.6233   95.6899   13.8132 N   0  0  0  0  0  0  0  0  0  0  0  0
   -0.8492   96.7166    7.7947 C   0  0  2  0  0  0  0  0  0  0  0  0
   -0.8216   97.7252    6.7247 N   0  0  0  0  0  0  0  0  0  0  0  0
   -2.2865   96.2972    8.1097 C   0  0  0  0  0  0  0  0  0  0  0  0
   -2.2423   95.1560    9.1310 C   0  0  2  0  0  0  0  0  0  0  0  0
   -3.6146   94.7950    9.5150 N   0  0  0  0  0  0  0  0  0  0  0  0
   -1.4865   95.5417   10.4059 C   0  0  2  0  0  0  0  0  0  0  0  0
   -0.1295   96.1949   10.1684 C   0  0  2  0  0  0  0  0  0  0  0  0
    0.2220   96.8171   11.4147 O   0  0  0  0  0  0  0  0  0  0  0  0
   -0.1945   97.2611    9.0667 C   0  0  1  0  0  0  0  0  0  0  0  0
    1.1160   97.7190    8.7232 O   0  0  0  0  0  0  0  0  0  0  0  0
    1.5682   97.3108   11.5070 C   0  0  1  0  0  0  0  0  0  0  0  0
    1.7993   97.7542   12.9525 C   0  0  2  0  0  0  0  0  0  0  0  0
    1.3025   99.0824   13.1333 O   0  0  0  0  0  0  0  0  0  0  0  0
    3.3251   97.7766   12.9495 C   0  0  1  0  0  0  0  0  0  0  0  0
    3.6175   96.4571   12.2526 C   0  0  2  0  0  0  0  0  0  0  0  0
    2.5681   96.2973   11.2760 O   0  0  0  0  0  0  0  0  0  0  0  0
    3.6077   95.3292   13.2908 C   0  0  0  0  0  0  0  0  0  0  0  0
    4.6723   95.5021   14.2306 O   0  0  0  0  0  0  0  0  0  0  0  0
    5.1441   99.1923   12.5188 C   0  0  2  0  0  0  0  0  0  0  0  0
    3.7946   98.8719   12.1475 O   0  0  0  0  0  0  0  0  0  0  0  0
    5.5201  100.5642   11.9499 C   0  0  1  0  0  0  0  0  0  0  0  0
    9.6664   97.4523   12.3540 N   0  0  0  0  0  0  0  0  0  0  0  0
    6.9894  100.8818   12.2475 C   0  0  1  0  0  0  0  0  0  0  0  0
    7.1794  101.0821   13.6518 O   0  0  0  0  0  0  0  0  0  0  0  0
    7.8771   99.7329   11.7613 C   0  0  2  0  0  0  0  0  0  0  0  0
    7.7889   99.6611   10.3342 O   0  0  0  0  0  0  0  0  0  0  0  0
    7.3999   98.4166   12.3842 C   0  0  1  0  0  0  0  0  0  0  0  0
    6.0281   98.1720   12.0222 O   0  0  0  0  0  0  0  0  0  0  0  0
    8.2709   97.2368   11.9441 C   0  0  0  0  0  0  0  0  0  0  0  0
    5.3372  100.5361   10.4908 N   0  0  0  0  0  0  0  0  0  0  0  0
  1  2  1  6  0  0  0
  1  3  1  0  0  0  0
  1 10  1  0  0  0  0
  3  4  1  6  0  0  0
  3  5  1  0  0  0  0
  5  6  1  1  0  0  0
  5  7  1  0  0  0  0
  7  8  1  6  0  0  0
  7  9  1  0  0  0  0
  9 10  1  0  0  0  0
  9 11  1  1  0  0  0
 11 12  1  0  0  0  0
 13 14  1  6  0  0  0
 13 15  1  0  0  0  0
 13 21  1  0  0  0  0
 16 15  1  0  0  0  0
 16 17  1  1  0  0  0
 18  2  1  1  0  0  0
 18 16  1  0  0  0  0
 19 18  1  0  0  0  0
 19 20  1  1  0  0  0
 21 19  1  0  0  0  0
 21 22  1  6  0  0  0
 23 20  1  1  0  0  0
 23 24  1  0  0  0  0
 23 28  1  0  0  0  0
 24 25  1  6  0  0  0
 24 26  1  0  0  0  0
 26 27  1  0  0  0  0
 26 32  1  6  0  0  0
 27 28  1  0  0  0  0
 27 29  1  1  0  0  0
 29 30  1  0  0  0  0
 31 32  1  6  0  0  0
 31 40  1  0  0  0  0
 33 31  1  0  0  0  0
 33 42  1  6  0  0  0
 35 33  1  0  0  0  0
 35 36  1  1  0  0  0
 37 35  1  0  0  0  0
 37 38  1  6  0  0  0
 37 39  1  0  0  0  0
 39 40  1  0  0  0  0
 39 41  1  6  0  0  0
 41 34  1  0  0  0  0
M  END
>  <CHROM.1>
179.43064453,-73.54952120,-165.75639652,169.98009358,-172.39066592,159.26562820
-64.73893733,-165.15806306,60.02299758,1.48393589,96.64410388,11.82356103
-2.89390715,-0.38547778,-1.00939053

>  <Name>
2fcy_lig

>  <RI>
2.89127e+07

>  <Rbt.Current_Directory>
/home/itssahil/PROJECTS/Mol_Feturizer/New_Systems/rnas/2fcy

>  <Rbt.Executable>
rbdock ($Id: //depot/dev/client3/rdock/2013.1/src/exe/rbdock.cxx#4 $)

>  <Rbt.Library>
libRbt.so (2013.1, Build901 2013/11/27)

>  <Rbt.Parameter_File>
/export/apps/rDock/src/rDock_2013.1_src/data/scripts/dock_solv.prm

>  <Rbt.Receptor>
prm/pocket_docking_7.prm

>  <SCORE>
-14.6484

>  <SCORE.INTER>
-8.7597

>  <SCORE.INTER.CONST>
1

>  <SCORE.INTER.POLAR>
-1.83251

>  <SCORE.INTER.ROT>
9

>  <SCORE.INTER.SOLV>
16.9098

>  <SCORE.INTER.VDW>
-14.968

>  <SCORE.INTER.norm>
-0.208564

>  <SCORE.INTRA>
-5.88874

>  <SCORE.INTRA.DIHEDRAL>
-11.5221

>  <SCORE.INTRA.DIHEDRAL.0>
17.3446

>  <SCORE.INTRA.POLAR>
0

>  <SCORE.INTRA.POLAR.0>
0

>  <SCORE.INTRA.REPUL>
0

>  <SCORE.INTRA.REPUL.0>
0

>  <SCORE.INTRA.SOLV>
-4.20952

>  <SCORE.INTRA.SOLV.lig_0>
-112.452

>  <SCORE.INTRA.VDW>
1.97705

>  <SCORE.INTRA.VDW.0>
-5.95059

>  <SCORE.INTRA.norm>
-0.140208

>  <SCORE.RESTR>
0

>  <SCORE.RESTR.CAVITY>
0

>  <SCORE.RESTR.norm>
0

>  <SCORE.SYSTEM>
0

>  <SCORE.SYSTEM.CONST>
0

>  <SCORE.SYSTEM.DIHEDRAL>
0

>  <SCORE.SYSTEM.SOLV>
0

>  <SCORE.SYSTEM.norm>
0

>  <SCORE.heavy>
42

>  <SCORE.norm>
-0.348772

>  <RMSD>
9.322

$$$$
2fcy_lig
 OpenBabel11021811433D
libRbt.so/2013.1/901 2013/11/27
 42 45  0  0  0  0  0  0  0  0999 V2000
   -3.7773   90.9137   11.5097 C   0  0  2  0  0  0  0  0  0  0  0  0
   -3.8727   89.8159   10.5861 O   0  0  0  0  0  0  0  0  0  0  0  0
   -5.1104   90.9324   12.2592 C   0  0  2  0  0  0  0  0  0  0  0  0
   -5.3379   89.6061   12.8490 N   0  0  0  0  0  0  0  0  0  0  0  0
   -6.2431   91.2556   11.2816 C   0  0  1  0  0  0  0  0  0  0  0  0
   -7.5013   91.2829   11.9613 O   0  0  0  0  0  0  0  0  0  0  0  0
   -5.9664   92.6022   10.6124 C   0  0  2  0  0  0  0  0  0  0  0  0
   -6.9725   92.8558    9.6320 O   0  0  0  0  0  0  0  0  0  0  0  0
   -4.6153   92.5295    9.8994 C   0  0  2  0  0  0  0  0  0  0  0  0
   -3.5920   92.1800   10.8444 O   0  0  0  0  0  0  0  0  0  0  0  0
   -4.3225   93.8766    9.2334 C   0  0  0  0  0  0  0  0  0  0  0  0
   -5.2521   94.1271    8.1217 N   0  0  0  0  0  0  0  0  0  0  0  0
   -0.8214   87.8396    8.4813 C   0  0  2  0  0  0  0  0  0  0  0  0
    0.2713   87.3927    7.6042 N   0  0  0  0  0  0  0  0  0  0  0  0
   -2.0187   88.3179    7.6576 C   0  0  0  0  0  0  0  0  0  0  0  0
   -3.1661   88.6428    8.6195 C   0  0  2  0  0  0  0  0  0  0  0  0
   -4.2989   89.1877    7.8574 N   0  0  0  0  0  0  0  0  0  0  0  0
   -2.7692   89.6810    9.6731 C   0  0  2  0  0  0  0  0  0  0  0  0
   -1.4481   89.3977   10.3796 C   0  0  2  0  0  0  0  0  0  0  0  0
   -1.0748   90.6343   11.0086 O   0  0  0  0  0  0  0  0  0  0  0  0
   -0.3518   88.9766    9.3921 C   0  0  1  0  0  0  0  0  0  0  0  0
    0.8146   88.5277   10.0871 O   0  0  0  0  0  0  0  0  0  0  0  0
   -0.4705   90.5156   12.3067 C   0  0  1  0  0  0  0  0  0  0  0  0
    0.0935   91.8874   12.6807 C   0  0  2  0  0  0  0  0  0  0  0  0
    1.3878   92.0507   12.0959 O   0  0  0  0  0  0  0  0  0  0  0  0
    0.2365   91.6796   14.1856 C   0  0  1  0  0  0  0  0  0  0  0  0
   -1.1027   91.0324   14.5017 C   0  0  2  0  0  0  0  0  0  0  0  0
   -1.4156   90.2162   13.3543 O   0  0  0  0  0  0  0  0  0  0  0  0
   -2.1496   92.1300   14.7240 C   0  0  0  0  0  0  0  0  0  0  0  0
   -3.3801   91.5647   15.1851 O   0  0  0  0  0  0  0  0  0  0  0  0
    1.4842   90.6273   15.8692 C   0  0  2  0  0  0  0  0  0  0  0  0
    1.3045   90.7562   14.4505 O   0  0  0  0  0  0  0  0  0  0  0  0
    1.8026   91.9993   16.4721 C   0  0  1  0  0  0  0  0  0  0  0  0
    3.1570   87.0886   17.8898 N   0  0  0  0  0  0  0  0  0  0  0  0
    2.0986   91.8692   17.9701 C   0  0  1  0  0  0  0  0  0  0  0  0
    0.9116   91.5025   18.6806 O   0  0  0  0  0  0  0  0  0  0  0  0
    3.1856   90.8144   18.1942 C   0  0  2  0  0  0  0  0  0  0  0  0
    4.4046   91.2844   17.6089 O   0  0  0  0  0  0  0  0  0  0  0  0
    2.7630   89.4948   17.5397 C   0  0  1  0  0  0  0  0  0  0  0  0
    2.5470   89.6939   16.1303 O   0  0  0  0  0  0  0  0  0  0  0  0
    3.8103   88.3988   17.7543 C   0  0  0  0  0  0  0  0  0  0  0  0
    2.9979   92.5406   15.8077 N   0  0  0  0  0  0  0  0  0  0  0  0
  1  2  1  6  0  0  0
  1  3  1  0  0  0  0
  1 10  1  0  0  0  0
  3  4  1  6  0  0  0
  3  5  1  0  0  0  0
  5  6  1  1  0  0  0
  5  7  1  0  0  0  0
  7  8  1  6  0  0  0
  7  9  1  0  0  0  0
  9 10  1  0  0  0  0
  9 11  1  1  0  0  0
 11 12  1  0  0  0  0
 13 14  1  6  0  0  0
 13 15  1  0  0  0  0
 13 21  1  0  0  0  0
 16 15  1  0  0  0  0
 16 17  1  6  0  0  0
 18  2  1  1  0  0  0
 18 16  1  0  0  0  0
 19 18  1  0  0  0  0
 19 20  1  6  0  0  0
 21 19  1  0  0  0  0
 21 22  1  1  0  0  0
 23 20  1  6  0  0  0
 23 24  1  0  0  0  0
 23 28  1  0  0  0  0
 24 25  1  6  0  0  0
 24 26  1  0  0  0  0
 26 27  1  0  0  0  0
 26 32  1  6  0  0  0
 27 28  1  0  0  0  0
 27 29  1  6  0  0  0
 29 30  1  0  0  0  0
 31 32  1  6  0  0  0
 31 40  1  0  0  0  0
 33 31  1  0  0  0  0
 33 42  1  6  0  0  0
 35 33  1  0  0  0  0
 35 36  1  1  0  0  0
 37 35  1  0  0  0  0
 37 38  1  6  0  0  0
 37 39  1  0  0  0  0
 39 40  1  0  0  0  0
 39 41  1  6  0  0  0
 41 34  1  0  0  0  0
M  END
>  <CHROM.1>
174.31374613,-67.86380207,-169.65946365,141.79657611,169.20077336,176.60879234
-172.85013149,-58.83263902,145.98582197,-1.27955314,90.67247784,12.71038406
2.45972958,0.46992363,-2.00606839

>  <Name>
2fcy_lig

>  <RI>
0

>  <Rbt.Current_Directory>
/home/itssahil/PROJECTS/Mol_Feturizer/New_Systems/rnas/2fcy

>  <Rbt.Executable>
rbdock ($Id: //depot/dev/client3/rdock/2013.1/src/exe/rbdock.cxx#4 $)

>  <Rbt.Library>
libRbt.so (2013.1, Build901 2013/11/27)

>  <Rbt.Parameter_File>
/export/apps/rDock/src/rDock_2013.1_src/data/scripts/dock_solv.prm

>  <Rbt.Receptor>
prm/pocket_docking_5.prm

>  <SCORE>
-19.4294

>  <SCORE.INTER>
-16.5081

>  <SCORE.INTER.CONST>
1

>  <SCORE.INTER.POLAR>
-1.91833

>  <SCORE.INTER.ROT>
9

>  <SCORE.INTER.SOLV>
20.8378

>  <SCORE.INTER.VDW>
-21.1569

>  <SCORE.INTER.norm>
-0.393051

>  <SCORE.INTRA>
-2.92859

>  <SCORE.INTRA.DIHEDRAL>
-6.74489

>  <SCORE.INTRA.DIHEDRAL.0>
17.3446

>  <SCORE.INTRA.POLAR>
0

>  <SCORE.INTRA.POLAR.0>
0

>  <SCORE.INTRA.REPUL>
0

>  <SCORE.INTRA.REPUL.0>
0

>  <SCORE.INTRA.SOLV>
-3.38801

>  <SCORE.INTRA.SOLV.lig_0>
-112.452

>  <SCORE.INTRA.VDW>
2.13786

>  <SCORE.INTRA.VDW.0>
-5.95059

>  <SCORE.INTRA.norm>
-0.0697283

>  <SCORE.RESTR>
0.00728805

>  <SCORE.RESTR.CAVITY>
0.00728805

>  <SCORE.RESTR.norm>
0.000173525

>  <SCORE.SYSTEM>
0

>  <SCORE.SYSTEM.CONST>
0

>  <SCORE.SYSTEM.DIHEDRAL>
0

>  <SCORE.SYSTEM.SOLV>
0

>  <SCORE.SYSTEM.norm>
0

>  <SCORE.heavy>
42

>  <SCORE.norm>
-0.462605

>  <RMSD>
9.326

$$$$
2fcy_lig
 OpenBabel11021811433D
libRbt.so/2013.1/901 2013/11/27
 42 45  0  0  0  0  0  0  0  0999 V2000
   -2.4585   92.1612    7.2581 C   0  0  2  0  0  0  0  0  0  0  0  0
   -2.1250   90.9033    6.6467 O   0  0  0  0  0  0  0  0  0  0  0  0
   -3.9549   92.3522    7.0068 C   0  0  2  0  0  0  0  0  0  0  0  0
   -4.6719   91.1741    7.5136 N   0  0  0  0  0  0  0  0  0  0  0  0
   -4.2079   92.4940    5.5038 C   0  0  1  0  0  0  0  0  0  0  0  0
   -5.6022   92.6783    5.2438 O   0  0  0  0  0  0  0  0  0  0  0  0
   -3.4015   93.6754    4.9634 C   0  0  2  0  0  0  0  0  0  0  0  0
   -3.5629   93.7463    3.5468 O   0  0  0  0  0  0  0  0  0  0  0  0
   -1.9203   93.4384    5.2618 C   0  0  2  0  0  0  0  0  0  0  0  0
   -1.7371   93.2662    6.6758 O   0  0  0  0  0  0  0  0  0  0  0  0
   -1.1032   94.6205    4.7338 C   0  0  0  0  0  0  0  0  0  0  0  0
    0.3196   94.4705    5.0741 N   0  0  0  0  0  0  0  0  0  0  0  0
    0.9714   88.2633    7.6902 C   0  0  2  0  0  0  0  0  0  0  0  0
    2.2247   87.5361    7.9423 N   0  0  0  0  0  0  0  0  0  0  0  0
    0.8137   88.5748    6.2006 C   0  0  0  0  0  0  0  0  0  0  0  0
   -0.5635   89.2103    5.9846 C   0  0  2  0  0  0  0  0  0  0  0  0
   -0.7031   89.5984    4.5737 N   0  0  0  0  0  0  0  0  0  0  0  0
   -0.7678   90.4661    6.8371 C   0  0  2  0  0  0  0  0  0  0  0  0
   -0.3993   90.3039    8.3076 C   0  0  2  0  0  0  0  0  0  0  0  0
   -0.2844   91.6391    8.8255 O   0  0  0  0  0  0  0  0  0  0  0  0
    0.9378   89.5719    8.4834 C   0  0  1  0  0  0  0  0  0  0  0  0
    1.1687   89.2564    9.8590 O   0  0  0  0  0  0  0  0  0  0  0  0
   -0.7579   91.8295   10.1686 C   0  0  1  0  0  0  0  0  0  0  0  0
    0.3805   92.4565   10.9750 C   0  0  2  0  0  0  0  0  0  0  0  0
    1.2651   91.4319   11.4349 O   0  0  0  0  0  0  0  0  0  0  0  0
   -0.4324   92.9933   12.1495 C   0  0  1  0  0  0  0  0  0  0  0  0
   -1.5976   93.6301   11.4086 C   0  0  2  0  0  0  0  0  0  0  0  0
   -1.8369   92.7817   10.2668 O   0  0  0  0  0  0  0  0  0  0  0  0
   -1.2083   95.0528   10.9909 C   0  0  0  0  0  0  0  0  0  0  0  0
   -0.2032   95.0205    9.9735 O   0  0  0  0  0  0  0  0  0  0  0  0
    0.1295   91.5147   13.8806 C   0  0  2  0  0  0  0  0  0  0  0  0
   -0.9000   91.9017   12.9576 O   0  0  0  0  0  0  0  0  0  0  0  0
   -0.4053   90.4277   14.8184 C   0  0  1  0  0  0  0  0  0  0  0  0
    2.7057   94.5380   15.2146 N   0  0  0  0  0  0  0  0  0  0  0  0
    0.6438   90.0717   15.8773 C   0  0  1  0  0  0  0  0  0  0  0  0
    1.7599   89.4142   15.2688 O   0  0  0  0  0  0  0  0  0  0  0  0
    1.1142   91.3431   16.5891 C   0  0  2  0  0  0  0  0  0  0  0  0
    0.0119   91.8905   17.3204 O   0  0  0  0  0  0  0  0  0  0  0  0
    1.6131   92.3565   15.5535 C   0  0  1  0  0  0  0  0  0  0  0  0
    0.5578   92.6684   14.6252 O   0  0  0  0  0  0  0  0  0  0  0  0
    2.1153   93.6408   16.2187 C   0  0  0  0  0  0  0  0  0  0  0  0
   -1.6007   90.9420   15.5036 N   0  0  0  0  0  0  0  0  0  0  0  0
  1  2  1  6  0  0  0
  1  3  1  0  0  0  0
  1 10  1  0  0  0  0
  3  4  1  6  0  0  0
  3  5  1  0  0  0  0
  5  6  1  1  0  0  0
  5  7  1  0  0  0  0
  7  8  1  6  0  0  0
  7  9  1  0  0  0  0
  9 10  1  0  0  0  0
  9 11  1  1  0  0  0
 11 12  1  0  0  0  0
 13 14  1  6  0  0  0
 13 15  1  0  0  0  0
 13 21  1  0  0  0  0
 16 15  1  0  0  0  0
 16 17  1  6  0  0  0
 18  2  1  1  0  0  0
 18 16  1  0  0  0  0
 19 18  1  0  0  0  0
 19 20  1  6  0  0  0
 21 19  1  0  0  0  0
 21 22  1  1  0  0  0
 23 20  1  6  0  0  0
 23 24  1  0  0  0  0
 23 28  1  0  0  0  0
 24 25  1  1  0  0  0
 24 26  1  0  0  0  0
 26 27  1  0  0  0  0
 26 32  1  1  0  0  0
 27 28  1  0  0  0  0
 27 29  1  6  0  0  0
 29 30  1  0  0  0  0
 31 32  1  6  0  0  0
 31 40  1  0  0  0  0
 33 31  1  0  0  0  0
 33 42  1  1  0  0  0
 35 33  1  0  0  0  0
 35 36  1  6  0  0  0
 37 35  1  0  0  0  0
 37 38  1  6  0  0  0
 37 39  1  0  0  0  0
 39 40  1  0  0  0  0
 39 41  1  1  0  0  0
 41 34  1  0  0  0  0
M  END
>  <CHROM.1>
-175.93475492,176.52689567,-173.41494487,142.81243348,125.56058838,83.85451299
69.07074930,175.47003775,174.52987836,-0.66431383,91.81330762,9.90102754
2.14670474,0.98306641,-2.03400829

>  <Name>
2fcy_lig

>  <RI>
0

>  <Rbt.Current_Directory>
/home/itssahil/PROJECTS/Mol_Feturizer/New_Systems/rnas/2fcy

>  <Rbt.Executable>
rbdock ($Id: //depot/dev/client3/rdock/2013.1/src/exe/rbdock.cxx#4 $)

>  <Rbt.Library>
libRbt.so (2013.1, Build901 2013/11/27)

>  <Rbt.Parameter_File>
/export/apps/rDock/src/rDock_2013.1_src/data/scripts/dock_solv.prm

>  <Rbt.Receptor>
prm/pocket_docking_5.prm

>  <SCORE>
-13.4646

>  <SCORE.INTER>
-12.7075

>  <SCORE.INTER.CONST>
1

>  <SCORE.INTER.POLAR>
-1.90773

>  <SCORE.INTER.ROT>
9

>  <SCORE.INTER.SOLV>
18.2692

>  <SCORE.INTER.VDW>
-17.8023

>  <SCORE.INTER.norm>
-0.302559

>  <SCORE.INTRA>
-0.757129

>  <SCORE.INTRA.DIHEDRAL>
-1.82353

>  <SCORE.INTRA.DIHEDRAL.0>
17.3446

>  <SCORE.INTRA.POLAR>
0

>  <SCORE.INTRA.POLAR.0>
0

>  <SCORE.INTRA.REPUL>
0

>  <SCORE.INTRA.REPUL.0>
0

>  <SCORE.INTRA.SOLV>
-4.5929

>  <SCORE.INTRA.SOLV.lig_0>
-112.452

>  <SCORE.INTRA.VDW>
2.45108

>  <SCORE.INTRA.VDW.0>
-5.95059

>  <SCORE.INTRA.norm>
-0.0180269

>  <SCORE.RESTR>
0

>  <SCORE.RESTR.CAVITY>
0

>  <SCORE.RESTR.norm>
0

>  <SCORE.SYSTEM>
0

>  <SCORE.SYSTEM.CONST>
0

>  <SCORE.SYSTEM.DIHEDRAL>
0

>  <SCORE.SYSTEM.SOLV>
0

>  <SCORE.SYSTEM.norm>
0

>  <SCORE.heavy>
42

>  <SCORE.norm>
-0.320586

>  <RMSD>
9.330

$$$$
2fcy_lig
 OpenBabel11021811433D
libRbt.so/2013.1/901 2013/11/27
 42 45  0  0  0  0  0  0  0  0999 V2000
   -2.8308   91.5775    7.5699 C   0  0  2  0  0  0  0  0  0  0  0  0
   -1.7498   91.1064    8.3926 O   0  0  0  0  0  0  0  0  0  0  0  0
   -2.3542   91.3962    6.1281 C   0  0  2  0  0  0  0  0  0  0  0  0
   -1.9558   89.9950    5.9363 N   0  0  0  0  0  0  0  0  0  0  0  0
   -1.1519   92.3071    5.8676 C   0  0  1  0  0  0  0  0  0  0  0  0
   -0.6903   92.1580    4.5220 O   0  0  0  0  0  0  0  0  0  0  0  0
   -1.5473   93.7587    6.1405 C   0  0  2  0  0  0  0  0  0  0  0  0
   -0.4000   94.5948    5.9908 O   0  0  0  0  0  0  0  0  0  0  0  0
   -2.0337   93.8733    7.5860 C   0  0  2  0  0  0  0  0  0  0  0  0
   -3.1303   92.9702    7.7965 O   0  0  0  0  0  0  0  0  0  0  0  0
   -2.4422   95.3215    7.8682 C   0  0  0  0  0  0  0  0  0  0  0  0
   -2.9710   95.4626    9.2332 N   0  0  0  0  0  0  0  0  0  0  0  0
   -4.1712   91.0411   11.8248 C   0  0  2  0  0  0  0  0  0  0  0  0
   -4.7910   90.9056   13.1515 N   0  0  0  0  0  0  0  0  0  0  0  0
   -3.6695   89.6874   11.3181 C   0  0  0  0  0  0  0  0  0  0  0  0
   -3.1580   89.8688    9.8854 C   0  0  2  0  0  0  0  0  0  0  0  0
   -2.5902   88.5996    9.4084 N   0  0  0  0  0  0  0  0  0  0  0  0
   -2.0646   90.9365    9.7861 C   0  0  2  0  0  0  0  0  0  0  0  0
   -2.3944   92.2519   10.4827 C   0  0  2  0  0  0  0  0  0  0  0  0
   -1.1418   92.9432   10.6137 O   0  0  0  0  0  0  0  0  0  0  0  0
   -2.9993   92.0246   11.8744 C   0  0  1  0  0  0  0  0  0  0  0  0
   -3.4811   93.2524   12.4271 O   0  0  0  0  0  0  0  0  0  0  0  0
   -0.3256   92.5484   11.7282 C   0  0  1  0  0  0  0  0  0  0  0  0
    0.8333   91.7145   11.1795 C   0  0  2  0  0  0  0  0  0  0  0  0
    0.4124   90.3587   11.0108 O   0  0  0  0  0  0  0  0  0  0  0  0
    1.7773   91.8104   12.3746 C   0  0  1  0  0  0  0  0  0  0  0  0
    1.6772   93.2955   12.6850 C   0  0  2  0  0  0  0  0  0  0  0  0
    0.3116   93.6579   12.3941 O   0  0  0  0  0  0  0  0  0  0  0  0
    2.6708   94.0599   11.8026 C   0  0  0  0  0  0  0  0  0  0  0  0
    2.7239   95.4379   12.1832 O   0  0  0  0  0  0  0  0  0  0  0  0
    2.0443   91.2872   14.6447 C   0  0  2  0  0  0  0  0  0  0  0  0
    1.2555   91.0419   13.4703 O   0  0  0  0  0  0  0  0  0  0  0  0
    1.8148   90.1632   15.6601 C   0  0  1  0  0  0  0  0  0  0  0  0
    2.9822   94.6850   17.9702 N   0  0  0  0  0  0  0  0  0  0  0  0
    2.5682   90.4567   16.9619 C   0  0  1  0  0  0  0  0  0  0  0  0
    3.9808   90.3766   16.7467 O   0  0  0  0  0  0  0  0  0  0  0  0
    2.1982   91.8522   17.4718 C   0  0  2  0  0  0  0  0  0  0  0  0
    0.8122   91.8539   17.8303 O   0  0  0  0  0  0  0  0  0  0  0  0
    2.4576   92.8863   16.3711 C   0  0  1  0  0  0  0  0  0  0  0  0
    1.6821   92.5628   15.2020 O   0  0  0  0  0  0  0  0  0  0  0  0
    2.1219   94.3046   16.8402 C   0  0  0  0  0  0  0  0  0  0  0  0
    0.3775   90.0868   15.9624 N   0  0  0  0  0  0  0  0  0  0  0  0
  1  2  1  1  0  0  0
  1  3  1  0  0  0  0
  1 10  1  0  0  0  0
  3  4  1  1  0  0  0
  3  5  1  0  0  0  0
  5  6  1  6  0  0  0
  5  7  1  0  0  0  0
  7  8  1  1  0  0  0
  7  9  1  0  0  0  0
  9 10  1  0  0  0  0
  9 11  1  6  0  0  0
 11 12  1  0  0  0  0
 13 14  1  1  0  0  0
 13 15  1  0  0  0  0
 13 21  1  0  0  0  0
 16 15  1  0  0  0  0
 16 17  1  1  0  0  0
 18  2  1  6  0  0  0
 18 16  1  0  0  0  0
 19 18  1  0  0  0  0
 19 20  1  1  0  0  0
 21 19  1  0  0  0  0
 21 22  1  6  0  0  0
 23 20  1  6  0  0  0
 23 24  1  0  0  0  0
 23 28  1  0  0  0  0
 24 25  1  1  0  0  0
 24 26  1  0  0  0  0
 26 27  1  0  0  0  0
 26 32  1  1  0  0  0
 27 28  1  0  0  0  0
 27 29  1  6  0  0  0
 29 30  1  0  0  0  0
 31 32  1  6  0  0  0
 31 40  1  0  0  0  0
 33 31  1  0  0  0  0
 33 42  1  1  0  0  0
 35 33  1  0  0  0  0
 35 36  1  6  0  0  0
 37 35  1  0  0  0  0
 37 38  1  6  0  0  0
 37 39  1  0  0  0  0
 39 40  1  0  0  0  0
 39 41  1  1  0  0  0
 41 34  1  0  0  0  0
M  END
>  <CHROM.1>
-168.43045704,177.57243442,62.31308409,-81.93092592,105.85071445,-171.91590884
-172.80392691,-161.17645214,62.25542373,-0.43701488,92.17845401,11.53118926
2.17261102,-0.69739594,-1.13211318

>  <Name>
2fcy_lig

>  <RI>
4.13508e+07

>  <Rbt.Current_Directory>
/home/itssahil/PROJECTS/Mol_Feturizer/New_Systems/rnas/2fcy

>  <Rbt.Executable>
rbdock ($Id: //depot/dev/client3/rdock/2013.1/src/exe/rbdock.cxx#4 $)

>  <Rbt.Library>
libRbt.so (2013.1, Build901 2013/11/27)

>  <Rbt.Parameter_File>
/export/apps/rDock/src/rDock_2013.1_src/data/scripts/dock_solv.prm

>  <Rbt.Receptor>
prm/pocket_docking_3.prm

>  <SCORE>
-4.093

>  <SCORE.INTER>
-5.37975

>  <SCORE.INTER.CONST>
1

>  <SCORE.INTER.POLAR>
-0.518923

>  <SCORE.INTER.ROT>
9

>  <SCORE.INTER.SOLV>
15.8877

>  <SCORE.INTER.VDW>
-16.7527

>  <SCORE.INTER.norm>
-0.128089

>  <SCORE.INTRA>
0.83194

>  <SCORE.INTRA.DIHEDRAL>
-5.66452

>  <SCORE.INTRA.DIHEDRAL.0>
17.3446

>  <SCORE.INTRA.POLAR>
0

>  <SCORE.INTRA.POLAR.0>
0

>  <SCORE.INTRA.REPUL>
0

>  <SCORE.INTRA.REPUL.0>
0

>  <SCORE.INTRA.SOLV>
-1.55456

>  <SCORE.INTRA.SOLV.lig_0>
-112.452

>  <SCORE.INTRA.VDW>
4.44148

>  <SCORE.INTRA.VDW.0>
-5.95059

>  <SCORE.INTRA.norm>
0.0198081

>  <SCORE.RESTR>
0.454808

>  <SCORE.RESTR.CAVITY>
0.454808

>  <SCORE.RESTR.norm>
0.0108288

>  <SCORE.SYSTEM>
0

>  <SCORE.SYSTEM.CONST>
0

>  <SCORE.SYSTEM.DIHEDRAL>
0

>  <SCORE.SYSTEM.SOLV>
0

>  <SCORE.SYSTEM.norm>
0

>  <SCORE.heavy>
42

>  <SCORE.norm>
-0.0974524

>  <RMSD>
9.353

$$$$
2fcy_lig
 OpenBabel11021811433D
libRbt.so/2013.1/901 2013/11/27
 42 45  0  0  0  0  0  0  0  0999 V2000
   -2.8704   93.7313    4.7157 C   0  0  2  0  0  0  0  0  0  0  0  0
   -3.6277   93.3860    5.8881 O   0  0  0  0  0  0  0  0  0  0  0  0
   -3.5116   92.9459    3.5707 C   0  0  2  0  0  0  0  0  0  0  0  0
   -4.9468   93.2577    3.5312 N   0  0  0  0  0  0  0  0  0  0  0  0
   -3.3232   91.4457    3.8101 C   0  0  1  0  0  0  0  0  0  0  0  0
   -3.9119   90.6894    2.7484 O   0  0  0  0  0  0  0  0  0  0  0  0
   -1.8308   91.1344    3.9261 C   0  0  2  0  0  0  0  0  0  0  0  0
   -1.6618   89.7534    4.2452 O   0  0  0  0  0  0  0  0  0  0  0  0
   -1.2424   91.9620    5.0698 C   0  0  2  0  0  0  0  0  0  0  0  0
   -1.4818   93.3569    4.8256 O   0  0  0  0  0  0  0  0  0  0  0  0
    0.2549   91.6660    5.1892 C   0  0  0  0  0  0  0  0  0  0  0  0
    0.8571   92.4344    6.2891 N   0  0  0  0  0  0  0  0  0  0  0  0
   -1.9395   96.5183    8.1208 C   0  0  2  0  0  0  0  0  0  0  0  0
   -1.5655   97.5695    9.0790 N   0  0  0  0  0  0  0  0  0  0  0  0
   -3.3562   96.7457    7.5896 C   0  0  0  0  0  0  0  0  0  0  0  0
   -3.6369   95.7019    6.5039 C   0  0  2  0  0  0  0  0  0  0  0  0
   -5.0242   95.8454    6.0396 N   0  0  0  0  0  0  0  0  0  0  0  0
   -3.4601   94.2681    7.0120 C   0  0  2  0  0  0  0  0  0  0  0  0
   -2.1624   94.0177    7.7722 C   0  0  2  0  0  0  0  0  0  0  0  0
   -2.3617   92.7825    8.4784 O   0  0  0  0  0  0  0  0  0  0  0  0
   -1.8650   95.1378    8.7779 C   0  0  1  0  0  0  0  0  0  0  0  0
   -0.5564   94.9880    9.3348 O   0  0  0  0  0  0  0  0  0  0  0  0
   -1.4940   92.5597    9.6016 C   0  0  1  0  0  0  0  0  0  0  0  0
   -2.1063   91.4387   10.4430 C   0  0  2  0  0  0  0  0  0  0  0  0
   -3.0970   91.9814   11.3192 O   0  0  0  0  0  0  0  0  0  0  0  0
   -0.8707   91.0492   11.2492 C   0  0  1  0  0  0  0  0  0  0  0  0
    0.1755   91.0103   10.1465 C   0  0  2  0  0  0  0  0  0  0  0  0
   -0.1918   92.0626    9.2308 O   0  0  0  0  0  0  0  0  0  0  0  0
    0.1445   89.6326    9.4749 C   0  0  0  0  0  0  0  0  0  0  0  0
   -1.0975   89.4336    8.7935 O   0  0  0  0  0  0  0  0  0  0  0  0
    0.3257   91.5689   13.1978 C   0  0  2  0  0  0  0  0  0  0  0  0
   -0.5559   92.0878   12.1904 O   0  0  0  0  0  0  0  0  0  0  0  0
   -0.4638   90.6731   14.1576 C   0  0  1  0  0  0  0  0  0  0  0  0
    3.5988   92.9626   16.4874 N   0  0  0  0  0  0  0  0  0  0  0  0
    0.4361   90.1898   15.3000 C   0  0  1  0  0  0  0  0  0  0  0  0
    1.4287   89.2869   14.8021 O   0  0  0  0  0  0  0  0  0  0  0  0
    1.1130   91.3888   15.9697 C   0  0  2  0  0  0  0  0  0  0  0  0
    0.1055   92.1895   16.5969 O   0  0  0  0  0  0  0  0  0  0  0  0
    1.8578   92.2132   14.9142 C   0  0  1  0  0  0  0  0  0  0  0  0
    0.9362   92.6634   13.9038 O   0  0  0  0  0  0  0  0  0  0  0  0
    2.5709   93.4156   15.5387 C   0  0  0  0  0  0  0  0  0  0  0  0
   -1.5666   91.4565   14.7347 N   0  0  0  0  0  0  0  0  0  0  0  0
  1  2  1  1  0  0  0
  1  3  1  0  0  0  0
  1 10  1  0  0  0  0
  3  4  1  1  0  0  0
  3  5  1  0  0  0  0
  5  6  1  6  0  0  0
  5  7  1  0  0  0  0
  7  8  1  1  0  0  0
  7  9  1  0  0  0  0
  9 10  1  0  0  0  0
  9 11  1  6  0  0  0
 11 12  1  0  0  0  0
 13 14  1  1  0  0  0
 13 15  1  0  0  0  0
 13 21  1  0  0  0  0
 16 15  1  0  0  0  0
 16 17  1  1  0  0  0
 18  2  1  6  0  0  0
 18 16  1  0  0  0  0
 19 18  1  0  0  0  0
 19 20  1  1  0  0  0
 21 19  1  0  0  0  0
 21 22  1  6  0  0  0
 23 20  1  6  0  0  0
 23 24  1  0  0  0  0
 23 28  1  0  0  0  0
 24 25  1  1  0  0  0
 24 26  1  0  0  0  0
 26 27  1  0  0  0  0
 26 32  1  1  0  0  0
 27 28  1  0  0  0  0
 27 29  1  6  0  0  0
 29 30  1  0  0  0  0
 31 32  1  6  0  0  0
 31 40  1  0  0  0  0
 33 31  1  0  0  0  0
 33 42  1  1  0  0  0
 35 33  1  0  0  0  0
 35 36  1  6  0  0  0
 37 35  1  0  0  0  0
 37 38  1  6  0  0  0
 37 39  1  0  0  0  0
 39 40  1  0  0  0  0
 39 41  1  1  0  0  0
 41 34  1  0  0  0  0
M  END
>  <CHROM.1>
-163.38729535,-179.44783273,49.12801205,-159.48829413,163.84764614,162.77681855
65.76661996,-74.55658390,62.84978498,-1.23173353,92.55613286,9.30822506,2.58410254
1.13737160,-2.40274841

>  <Name>
2fcy_lig

>  <RI>
1.56845e+07

>  <Rbt.Current_Directory>
/home/itssahil/PROJECTS/Mol_Feturizer/New_Systems/rnas/2fcy

>  <Rbt.Executable>
rbdock ($Id: //depot/dev/client3/rdock/2013.1/src/exe/rbdock.cxx#4 $)

>  <Rbt.Library>
libRbt.so (2013.1, Build901 2013/11/27)

>  <Rbt.Parameter_File>
/export/apps/rDock/src/rDock_2013.1_src/data/scripts/dock_solv.prm

>  <Rbt.Receptor>
prm/pocket_docking_4.prm

>  <SCORE>
-9.03819

>  <SCORE.INTER>
-9.22035

>  <SCORE.INTER.CONST>
1

>  <SCORE.INTER.POLAR>
-0.959166

>  <SCORE.INTER.ROT>
9

>  <SCORE.INTER.SOLV>
15.0853

>  <SCORE.INTER.VDW>
-17.5781

>  <SCORE.INTER.norm>
-0.219532

>  <SCORE.INTRA>
0.182157

>  <SCORE.INTRA.DIHEDRAL>
-9.42178

>  <SCORE.INTRA.DIHEDRAL.0>
17.3446

>  <SCORE.INTRA.POLAR>
0

>  <SCORE.INTRA.POLAR.0>
0

>  <SCORE.INTRA.REPUL>
0.00257377

>  <SCORE.INTRA.REPUL.0>
0

>  <SCORE.INTRA.SOLV>
0.25614

>  <SCORE.INTRA.SOLV.lig_0>
-112.452

>  <SCORE.INTRA.VDW>
4.75211

>  <SCORE.INTRA.VDW.0>
-5.95059

>  <SCORE.INTRA.norm>
0.00433706

>  <SCORE.RESTR>
0

>  <SCORE.RESTR.CAVITY>
0

>  <SCORE.RESTR.norm>
0

>  <SCORE.SYSTEM>
0

>  <SCORE.SYSTEM.CONST>
0

>  <SCORE.SYSTEM.DIHEDRAL>
0

>  <SCORE.SYSTEM.SOLV>
0

>  <SCORE.SYSTEM.norm>
0

>  <SCORE.heavy>
42

>  <SCORE.norm>
-0.215195

>  <RMSD>
9.368

$$$$
2fcy_lig
 OpenBabel11021811433D
libRbt.so/2013.1/901 2013/11/27
 42 45  0  0  0  0  0  0  0  0999 V2000
   -0.1575   92.8318    6.0002 C   0  0  2  0  0  0  0  0  0  0  0  0
   -0.4256   91.7850    6.9485 O   0  0  0  0  0  0  0  0  0  0  0  0
    0.1506   94.0727    6.8395 C   0  0  2  0  0  0  0  0  0  0  0  0
    1.2369   93.7508    7.7750 N   0  0  0  0  0  0  0  0  0  0  0  0
   -1.0963   94.4800    7.6284 C   0  0  1  0  0  0  0  0  0  0  0  0
   -0.8335   95.6426    8.4190 O   0  0  0  0  0  0  0  0  0  0  0  0
   -2.2476   94.7418    6.6570 C   0  0  2  0  0  0  0  0  0  0  0  0
   -3.4334   95.0269    7.3988 O   0  0  0  0  0  0  0  0  0  0  0  0
   -2.4946   93.4769    5.8335 C   0  0  2  0  0  0  0  0  0  0  0  0
   -1.2881   93.1072    5.1479 O   0  0  0  0  0  0  0  0  0  0  0  0
   -3.6397   93.7303    4.8494 C   0  0  0  0  0  0  0  0  0  0  0  0
   -3.1684   94.4806    3.6757 N   0  0  0  0  0  0  0  0  0  0  0  0
    1.4006   88.0323    7.4272 C   0  0  2  0  0  0  0  0  0  0  0  0
    2.2820   86.8653    7.5824 N   0  0  0  0  0  0  0  0  0  0  0  0
    1.7179   88.7852    6.1336 C   0  0  0  0  0  0  0  0  0  0  0  0
    0.6863   89.9049    5.9626 C   0  0  2  0  0  0  0  0  0  0  0  0
    1.0232   90.6974    4.7712 N   0  0  0  0  0  0  0  0  0  0  0  0
    0.6520   90.8562    7.1623 C   0  0  2  0  0  0  0  0  0  0  0  0
    0.5777   90.1661    8.5198 C   0  0  2  0  0  0  0  0  0  0  0  0
    0.9448   91.1680    9.4819 O   0  0  0  0  0  0  0  0  0  0  0  0
    1.5542   88.9863    8.6143 C   0  0  1  0  0  0  0  0  0  0  0  0
    1.3316   88.2356    9.8110 O   0  0  0  0  0  0  0  0  0  0  0  0
    0.7044   90.8291   10.8572 C   0  0  1  0  0  0  0  0  0  0  0  0
    0.4683   92.1339   11.6198 C   0  0  2  0  0  0  0  0  0  0  0  0
    1.7241   92.7117   11.9844 O   0  0  0  0  0  0  0  0  0  0  0  0
   -0.2087   91.5604   12.8613 C   0  0  1  0  0  0  0  0  0  0  0  0
   -1.1873   90.5911   12.2172 C   0  0  2  0  0  0  0  0  0  0  0  0
   -0.5054   90.0698   11.0580 O   0  0  0  0  0  0  0  0  0  0  0  0
   -2.4646   91.3481   11.8356 C   0  0  0  0  0  0  0  0  0  0  0  0
   -3.3697   90.4871   11.1387 O   0  0  0  0  0  0  0  0  0  0  0  0
    0.1587   90.4721   14.9056 C   0  0  2  0  0  0  0  0  0  0  0  0
    0.7511   90.8397   13.6505 O   0  0  0  0  0  0  0  0  0  0  0  0
   -0.3363   91.7301   15.6265 C   0  0  1  0  0  0  0  0  0  0  0  0
    2.9015   89.2292   17.8208 N   0  0  0  0  0  0  0  0  0  0  0  0
   -0.8806   91.3721   17.0136 C   0  0  1  0  0  0  0  0  0  0  0  0
   -2.0846   90.6079   16.8923 O   0  0  0  0  0  0  0  0  0  0  0  0
    0.1674   90.5711   17.7910 C   0  0  2  0  0  0  0  0  0  0  0  0
    1.2970   91.4157   18.0363 O   0  0  0  0  0  0  0  0  0  0  0  0
    0.5931   89.3496   16.9695 C   0  0  1  0  0  0  0  0  0  0  0  0
    1.1309   89.7738   15.7031 O   0  0  0  0  0  0  0  0  0  0  0  0
    1.6279   88.5022   17.7148 C   0  0  0  0  0  0  0  0  0  0  0  0
    0.7961   92.6531   15.7960 N   0  0  0  0  0  0  0  0  0  0  0  0
  1  2  1  1  0  0  0
  1  3  1  0  0  0  0
  1 10  1  0  0  0  0
  3  4  1  1  0  0  0
  3  5  1  0  0  0  0
  5  6  1  6  0  0  0
  5  7  1  0  0  0  0
  7  8  1  1  0  0  0
  7  9  1  0  0  0  0
  9 10  1  0  0  0  0
  9 11  1  6  0  0  0
 11 12  1  0  0  0  0
 13 14  1  1  0  0  0
 13 15  1  0  0  0  0
 13 21  1  0  0  0  0
 16 15  1  0  0  0  0
 16 17  1  6  0  0  0
 18  2  1  6  0  0  0
 18 16  1  0  0  0  0
 19 18  1  0  0  0  0
 19 20  1  1  0  0  0
 21 19  1  0  0  0  0
 21 22  1  1  0  0  0
 23 20  1  6  0  0  0
 23 24  1  0  0  0  0
 23 28  1  0  0  0  0
 24 25  1  1  0  0  0
 24 26  1  0  0  0  0
 26 27  1  0  0  0  0
 26 32  1  1  0  0  0
 27 28  1  0  0  0  0
 27 29  1  6  0  0  0
 29 30  1  0  0  0  0
 31 32  1  6  0  0  0
 31 40  1  0  0  0  0
 33 31  1  0  0  0  0
 33 42  1  1  0  0  0
 35 33  1  0  0  0  0
 35 36  1  6  0  0  0
 37 35  1  0  0  0  0
 37 38  1  6  0  0  0
 37 39  1  0  0  0  0
 39 40  1  0  0  0  0
 39 41  1  1  0  0  0
 41 34  1  0  0  0  0
M  END
>  <CHROM.1>
-101.74219053,79.40806048,-76.73175083,168.60910618,-151.98078664,171.61738874
175.79586534,-57.24885979,-68.49445020,-0.10630859,91.36890908,10.60262448
1.81715032,0.95898539,-1.55916388

>  <Name>
2fcy_lig

>  <RI>
2.32494e+07

>  <Rbt.Current_Directory>
/home/itssahil/PROJECTS/Mol_Feturizer/New_Systems/rnas/2fcy

>  <Rbt.Executable>
rbdock ($Id: //depot/dev/client3/rdock/2013.1/src/exe/rbdock.cxx#4 $)

>  <Rbt.Library>
libRbt.so (2013.1, Build901 2013/11/27)

>  <Rbt.Parameter_File>
/export/apps/rDock/src/rDock_2013.1_src/data/scripts/dock_solv.prm

>  <Rbt.Receptor>
prm/pocket_docking_8.prm

>  <SCORE>
-28.1502

>  <SCORE.INTER>
-30.7502

>  <SCORE.INTER.CONST>
1

>  <SCORE.INTER.POLAR>
-3.52852

>  <SCORE.INTER.ROT>
9

>  <SCORE.INTER.SOLV>
22.3756

>  <SCORE.INTER.VDW>
-25.7969

>  <SCORE.INTER.norm>
-0.732148

>  <SCORE.INTRA>
2.6

>  <SCORE.INTRA.DIHEDRAL>
-4.07004

>  <SCORE.INTRA.DIHEDRAL.0>
17.3446

>  <SCORE.INTRA.POLAR>
0

>  <SCORE.INTRA.POLAR.0>
0

>  <SCORE.INTRA.REPUL>
0

>  <SCORE.INTRA.REPUL.0>
0

>  <SCORE.INTRA.SOLV>
1.3102

>  <SCORE.INTRA.SOLV.lig_0>
-112.452

>  <SCORE.INTRA.VDW>
3.97993

>  <SCORE.INTRA.VDW.0>
-5.95059

>  <SCORE.INTRA.norm>
0.0619048

>  <SCORE.RESTR>
0

>  <SCORE.RESTR.CAVITY>
0

>  <SCORE.RESTR.norm>
0

>  <SCORE.SYSTEM>
0

>  <SCORE.SYSTEM.CONST>
0

>  <SCORE.SYSTEM.DIHEDRAL>
0

>  <SCORE.SYSTEM.SOLV>
0

>  <SCORE.SYSTEM.norm>
0

>  <SCORE.heavy>
42

>  <SCORE.norm>
-0.670243

>  <RMSD>
9.376

$$$$
2fcy_lig
 OpenBabel11021811433D
libRbt.so/2013.1/901 2013/11/27
 42 45  0  0  0  0  0  0  0  0999 V2000
   -1.3591   95.0890   12.3299 C   0  0  2  0  0  0  0  0  0  0  0  0
   -1.9077   94.8320   11.0260 O   0  0  0  0  0  0  0  0  0  0  0  0
   -1.8798   93.9602   13.2207 C   0  0  2  0  0  0  0  0  0  0  0  0
   -1.5219   92.6735   12.6083 N   0  0  0  0  0  0  0  0  0  0  0  0
   -3.4027   94.0615   13.3383 C   0  0  1  0  0  0  0  0  0  0  0  0
   -3.9132   93.0171   14.1715 O   0  0  0  0  0  0  0  0  0  0  0  0
   -3.7772   95.4310   13.9060 C   0  0  2  0  0  0  0  0  0  0  0  0
   -5.1987   95.5598   13.9242 O   0  0  0  0  0  0  0  0  0  0  0  0
   -3.2132   96.5160   12.9873 C   0  0  2  0  0  0  0  0  0  0  0  0
   -1.7910   96.3545   12.8707 O   0  0  0  0  0  0  0  0  0  0  0  0
   -3.5735   97.8929   13.5513 C   0  0  0  0  0  0  0  0  0  0  0  0
   -2.8850   98.1352   14.8280 N   0  0  0  0  0  0  0  0  0  0  0  0
   -1.0892   96.8586    7.4387 C   0  0  2  0  0  0  0  0  0  0  0  0
   -0.9547   97.7774    6.2982 N   0  0  0  0  0  0  0  0  0  0  0  0
   -2.5629   96.5880    7.7482 C   0  0  0  0  0  0  0  0  0  0  0  0
   -2.6365   95.5278    8.8517 C   0  0  2  0  0  0  0  0  0  0  0  0
   -4.0416   95.3149    9.2273 N   0  0  0  0  0  0  0  0  0  0  0  0
   -1.8734   95.9431   10.1129 C   0  0  2  0  0  0  0  0  0  0  0  0
   -0.4608   96.4586    9.8614 C   0  0  2  0  0  0  0  0  0  0  0  0
   -0.0794   97.1411   11.0667 O   0  0  0  0  0  0  0  0  0  0  0  0
   -0.4131   97.4400    8.6828 C   0  0  1  0  0  0  0  0  0  0  0  0
    0.9382   97.7575    8.3389 O   0  0  0  0  0  0  0  0  0  0  0  0
    1.2775   97.6111   11.1141 C   0  0  1  0  0  0  0  0  0  0  0  0
    1.5170   98.1906   12.5093 C   0  0  2  0  0  0  0  0  0  0  0  0
    1.0502   99.5410   12.5557 O   0  0  0  0  0  0  0  0  0  0  0  0
    3.0428   98.1782   12.5093 C   0  0  1  0  0  0  0  0  0  0  0  0
    3.3061   96.7899   11.9478 C   0  0  2  0  0  0  0  0  0  0  0  0
    2.2544   96.5575   10.9883 O   0  0  0  0  0  0  0  0  0  0  0  0
    3.2695   95.7711   13.0927 C   0  0  0  0  0  0  0  0  0  0  0  0
    1.9216   95.5273   13.5054 O   0  0  0  0  0  0  0  0  0  0  0  0
    4.8137   99.6494   12.0642 C   0  0  2  0  0  0  0  0  0  0  0  0
    3.5381   99.1777   11.6041 O   0  0  0  0  0  0  0  0  0  0  0  0
    5.3257  100.7434   11.1217 C   0  0  1  0  0  0  0  0  0  0  0  0
    7.4651   96.8904   13.8882 N   0  0  0  0  0  0  0  0  0  0  0  0
    6.7320  101.1903   11.5355 C   0  0  1  0  0  0  0  0  0  0  0  0
    6.6852  101.8786   12.7895 O   0  0  0  0  0  0  0  0  0  0  0  0
    7.6521   99.9714   11.6455 C   0  0  2  0  0  0  0  0  0  0  0  0
    7.8072   99.3983   10.3428 O   0  0  0  0  0  0  0  0  0  0  0  0
    7.0329   98.9454   12.6007 C   0  0  1  0  0  0  0  0  0  0  0  0
    5.7361   98.5471   12.1185 O   0  0  0  0  0  0  0  0  0  0  0  0
    7.9277   97.7134   12.7610 C   0  0  0  0  0  0  0  0  0  0  0  0
    5.3945  100.1970    9.7580 N   0  0  0  0  0  0  0  0  0  0  0  0
  1  2  1  6  0  0  0
  1  3  1  0  0  0  0
  1 10  1  0  0  0  0
  3  4  1  6  0  0  0
  3  5  1  0  0  0  0
  5  6  1  1  0  0  0
  5  7  1  0  0  0  0
  7  8  1  6  0  0  0
  7  9  1  0  0  0  0
  9 10  1  0  0  0  0
  9 11  1  1  0  0  0
 11 12  1  0  0  0  0
 13 14  1  6  0  0  0
 13 15  1  0  0  0  0
 13 21  1  0  0  0  0
 16 15  1  0  0  0  0
 16 17  1  1  0  0  0
 18  2  1  1  0  0  0
 18 16  1  0  0  0  0
 19 18  1  0  0  0  0
 19 20  1  1  0  0  0
 21 19  1  0  0  0  0
 21 22  1  6  0  0  0
 23 20  1  1  0  0  0
 23 24  1  0  0  0  0
 23 28  1  0  0  0  0
 24 25  1  6  0  0  0
 24 26  1  0  0  0  0
 26 27  1  0  0  0  0
 26 32  1  6  0  0  0
 27 28  1  0  0  0  0
 27 29  1  1  0  0  0
 29 30  1  0  0  0  0
 31 32  1  6  0  0  0
 31 40  1  0  0  0  0
 33 31  1  0  0  0  0
 33 42  1  6  0  0  0
 35 33  1  0  0  0  0
 35 36  1  1  0  0  0
 37 35  1  0  0  0  0
 37 38  1  6  0  0  0
 37 39  1  0  0  0  0
 39 40  1  0  0  0  0
 39 41  1  6  0  0  0
 41 34  1  0  0  0  0
M  END
>  <CHROM.1>
163.21052944,66.60926826,-173.68408352,174.39102335,-175.08134427,150.60469841
75.01389992,-178.42891080,167.69635767,1.10859011,97.21208967,11.61100654
-3.01800447,-0.39204255,-1.27204599

>  <Name>
2fcy_lig

>  <RI>
2.32494e+07

>  <Rbt.Current_Directory>
/home/itssahil/PROJECTS/Mol_Feturizer/New_Systems/rnas/2fcy

>  <Rbt.Executable>
rbdock ($Id: //depot/dev/client3/rdock/2013.1/src/exe/rbdock.cxx#4 $)

>  <Rbt.Library>
libRbt.so (2013.1, Build901 2013/11/27)

>  <Rbt.Parameter_File>
/export/apps/rDock/src/rDock_2013.1_src/data/scripts/dock_solv.prm

>  <Rbt.Receptor>
prm/pocket_docking_8.prm

>  <SCORE>
-15.8368

>  <SCORE.INTER>
-11.3485

>  <SCORE.INTER.CONST>
1

>  <SCORE.INTER.POLAR>
-2.67443

>  <SCORE.INTER.ROT>
9

>  <SCORE.INTER.SOLV>
25.5819

>  <SCORE.INTER.VDW>
-16.7782

>  <SCORE.INTER.norm>
-0.270203

>  <SCORE.INTRA>
-4.48825

>  <SCORE.INTRA.DIHEDRAL>
-10.3133

>  <SCORE.INTRA.DIHEDRAL.0>
17.3446

>  <SCORE.INTRA.POLAR>
0

>  <SCORE.INTRA.POLAR.0>
0

>  <SCORE.INTRA.REPUL>
0.0117319

>  <SCORE.INTRA.REPUL.0>
0

>  <SCORE.INTRA.SOLV>
-3.58838

>  <SCORE.INTRA.SOLV.lig_0>
-112.452

>  <SCORE.INTRA.VDW>
2.40395

>  <SCORE.INTRA.VDW.0>
-5.95059

>  <SCORE.INTRA.norm>
-0.106863

>  <SCORE.RESTR>
0

>  <SCORE.RESTR.CAVITY>
0

>  <SCORE.RESTR.norm>
0

>  <SCORE.SYSTEM>
0

>  <SCORE.SYSTEM.CONST>
0

>  <SCORE.SYSTEM.DIHEDRAL>
0

>  <SCORE.SYSTEM.SOLV>
0

>  <SCORE.SYSTEM.norm>
0

>  <SCORE.heavy>
42

>  <SCORE.norm>
-0.377066

>  <RMSD>
9.391

$$$$
2fcy_lig
 OpenBabel11021811433D
libRbt.so/2013.1/901 2013/11/27
 42 45  0  0  0  0  0  0  0  0999 V2000
   -4.7314   91.4001    6.6689 C   0  0  2  0  0  0  0  0  0  0  0  0
   -3.6179   91.9408    5.9375 O   0  0  0  0  0  0  0  0  0  0  0  0
   -5.3543   90.3515    5.7462 C   0  0  2  0  0  0  0  0  0  0  0  0
   -4.3123   89.3945    5.3495 N   0  0  0  0  0  0  0  0  0  0  0  0
   -5.9173   91.0367    4.4985 C   0  0  1  0  0  0  0  0  0  0  0  0
   -6.5098   90.0752    3.6209 O   0  0  0  0  0  0  0  0  0  0  0  0
   -6.9477   92.0857    4.9178 C   0  0  2  0  0  0  0  0  0  0  0  0
   -7.3999   92.7895    3.7611 O   0  0  0  0  0  0  0  0  0  0  0  0
   -6.2743   93.0913    5.8530 C   0  0  2  0  0  0  0  0  0  0  0  0
   -5.7223   92.3997    6.9842 O   0  0  0  0  0  0  0  0  0  0  0  0
   -7.2996   94.1418    6.2879 C   0  0  0  0  0  0  0  0  0  0  0  0
   -8.3165   93.5508    7.1705 N   0  0  0  0  0  0  0  0  0  0  0  0
   -0.0238   93.3661    7.5799 C   0  0  2  0  0  0  0  0  0  0  0  0
    1.0812   94.0936    8.2222 N   0  0  0  0  0  0  0  0  0  0  0  0
   -0.6257   94.1886    6.4388 C   0  0  0  0  0  0  0  0  0  0  0  0
   -1.6760   93.3293    5.7276 C   0  0  2  0  0  0  0  0  0  0  0  0
   -2.3303   94.1291    4.6821 N   0  0  0  0  0  0  0  0  0  0  0  0
   -2.7639   92.8276    6.6817 C   0  0  2  0  0  0  0  0  0  0  0  0
   -2.2414   92.2026    7.9704 C   0  0  2  0  0  0  0  0  0  0  0  0
   -3.3660   92.1646    8.8637 O   0  0  0  0  0  0  0  0  0  0  0  0
   -1.1200   93.0414    8.5976 C   0  0  1  0  0  0  0  0  0  0  0  0
   -0.5122   92.3446    9.6886 O   0  0  0  0  0  0  0  0  0  0  0  0
   -3.2043   91.3483   10.0349 C   0  0  1  0  0  0  0  0  0  0  0  0
   -3.4483   92.2378   11.2551 C   0  0  2  0  0  0  0  0  0  0  0  0
   -2.2488   92.9426   11.5839 O   0  0  0  0  0  0  0  0  0  0  0  0
   -3.7002   91.1479   12.2930 C   0  0  1  0  0  0  0  0  0  0  0  0
   -4.6416   90.2412   11.5159 C   0  0  2  0  0  0  0  0  0  0  0  0
   -4.1922   90.3033   10.1467 O   0  0  0  0  0  0  0  0  0  0  0  0
   -6.0764   90.7589   11.6698 C   0  0  0  0  0  0  0  0  0  0  0  0
   -6.2140   92.0461   11.0611 O   0  0  0  0  0  0  0  0  0  0  0  0
   -1.6447   91.2782   13.4139 C   0  0  2  0  0  0  0  0  0  0  0  0
   -2.4745   90.4556   12.5795 O   0  0  0  0  0  0  0  0  0  0  0  0
   -0.2884   91.4932   12.7347 C   0  0  1  0  0  0  0  0  0  0  0  0
    0.0277   89.4688   16.9046 N   0  0  0  0  0  0  0  0  0  0  0  0
    0.6500   92.2838   13.6529 C   0  0  1  0  0  0  0  0  0  0  0  0
    0.1797   93.6268   13.8055 O   0  0  0  0  0  0  0  0  0  0  0  0
    0.7313   91.6026   15.0217 C   0  0  2  0  0  0  0  0  0  0  0  0
    1.3537   90.3237   14.8583 O   0  0  0  0  0  0  0  0  0  0  0  0
   -0.6798   91.4310   15.5943 C   0  0  1  0  0  0  0  0  0  0  0  0
   -1.4815   90.6435   14.6943 O   0  0  0  0  0  0  0  0  0  0  0  0
   -0.6507   90.7713   16.9756 C   0  0  0  0  0  0  0  0  0  0  0  0
    0.3193   90.1806   12.4686 N   0  0  0  0  0  0  0  0  0  0  0  0
  1  2  1  6  0  0  0
  1  3  1  0  0  0  0
  1 10  1  0  0  0  0
  3  4  1  6  0  0  0
  3  5  1  0  0  0  0
  5  6  1  6  0  0  0
  5  7  1  0  0  0  0
  7  8  1  6  0  0  0
  7  9  1  0  0  0  0
  9 10  1  0  0  0  0
  9 11  1  1  0  0  0
 11 12  1  0  0  0  0
 13 14  1  1  0  0  0
 13 15  1  0  0  0  0
 13 21  1  0  0  0  0
 16 15  1  0  0  0  0
 16 17  1  6  0  0  0
 18  2  1  6  0  0  0
 18 16  1  0  0  0  0
 19 18  1  0  0  0  0
 19 20  1  1  0  0  0
 21 19  1  0  0  0  0
 21 22  1  1  0  0  0
 23 20  1  6  0  0  0
 23 24  1  0  0  0  0
 23 28  1  0  0  0  0
 24 25  1  1  0  0  0
 24 26  1  0  0  0  0
 26 27  1  0  0  0  0
 26 32  1  6  0  0  0
 27 28  1  0  0  0  0
 27 29  1  6  0  0  0
 29 30  1  0  0  0  0
 31 32  1  6  0  0  0
 31 40  1  0  0  0  0
 33 31  1  0  0  0  0
 33 42  1  1  0  0  0
 35 33  1  0  0  0  0
 35 36  1  1  0  0  0
 37 35  1  0  0  0  0
 37 38  1  6  0  0  0
 37 39  1  0  0  0  0
 39 40  1  0  0  0  0
 39 41  1  1  0  0  0
 41 34  1  0  0  0  0
M  END
>  <CHROM.1>
-171.97928522,68.73059454,-178.16796090,166.55147214,123.53774808,75.48912379
64.97674379,-123.30068432,-57.28703032,-2.96208201,91.86186284,9.62116241
2.10642585,-0.27702527,-1.29707808

>  <Name>
2fcy_lig

>  <RI>
0

>  <Rbt.Current_Directory>
/home/itssahil/PROJECTS/Mol_Feturizer/New_Systems/rnas/2fcy

>  <Rbt.Executable>
rbdock ($Id: //depot/dev/client3/rdock/2013.1/src/exe/rbdock.cxx#4 $)

>  <Rbt.Library>
libRbt.so (2013.1, Build901 2013/11/27)

>  <Rbt.Parameter_File>
/export/apps/rDock/src/rDock_2013.1_src/data/scripts/dock_solv.prm

>  <Rbt.Receptor>
prm/pocket_docking_5.prm

>  <SCORE>
-7.05545

>  <SCORE.INTER>
-11.4657

>  <SCORE.INTER.CONST>
1

>  <SCORE.INTER.POLAR>
-2.08496

>  <SCORE.INTER.ROT>
9

>  <SCORE.INTER.SOLV>
19.6158

>  <SCORE.INTER.VDW>
-16.8325

>  <SCORE.INTER.norm>
-0.272992

>  <SCORE.INTRA>
4.41021

>  <SCORE.INTRA.DIHEDRAL>
0.00999209

>  <SCORE.INTRA.DIHEDRAL.0>
17.3446

>  <SCORE.INTRA.POLAR>
0

>  <SCORE.INTRA.POLAR.0>
0

>  <SCORE.INTRA.REPUL>
0

>  <SCORE.INTRA.REPUL.0>
0

>  <SCORE.INTRA.SOLV>
-0.0816844

>  <SCORE.INTRA.SOLV.lig_0>
-112.452

>  <SCORE.INTRA.VDW>
4.44605

>  <SCORE.INTRA.VDW.0>
-5.95059

>  <SCORE.INTRA.norm>
0.105005

>  <SCORE.RESTR>
0

>  <SCORE.RESTR.CAVITY>
0

>  <SCORE.RESTR.norm>
0

>  <SCORE.SYSTEM>
0

>  <SCORE.SYSTEM.CONST>
0

>  <SCORE.SYSTEM.DIHEDRAL>
0

>  <SCORE.SYSTEM.SOLV>
0

>  <SCORE.SYSTEM.norm>
0

>  <SCORE.heavy>
42

>  <SCORE.norm>
-0.167987

>  <RMSD>
9.398

$$$$
2fcy_lig
 OpenBabel11021811433D
libRbt.so/2013.1/901 2013/11/27
 42 45  0  0  0  0  0  0  0  0999 V2000
   -2.5204   93.2369    6.8576 C   0  0  2  0  0  0  0  0  0  0  0  0
   -1.7756   92.1264    7.3859 O   0  0  0  0  0  0  0  0  0  0  0  0
   -1.7716   93.6658    5.5949 C   0  0  2  0  0  0  0  0  0  0  0  0
   -1.6309   92.4999    4.7118 N   0  0  0  0  0  0  0  0  0  0  0  0
   -0.3833   94.1868    5.9747 C   0  0  1  0  0  0  0  0  0  0  0  0
    0.3355   94.5985    4.8087 O   0  0  0  0  0  0  0  0  0  0  0  0
   -0.5297   95.3526    6.9531 C   0  0  2  0  0  0  0  0  0  0  0  0
    0.7657   95.7735    7.3803 O   0  0  0  0  0  0  0  0  0  0  0  0
   -1.3020   94.8703    8.1820 C   0  0  2  0  0  0  0  0  0  0  0  0
   -2.5767   94.3495    7.7738 O   0  0  0  0  0  0  0  0  0  0  0  0
   -1.4637   96.0325    9.1653 C   0  0  0  0  0  0  0  0  0  0  0  0
   -2.3330   95.6538   10.2893 N   0  0  0  0  0  0  0  0  0  0  0  0
   -4.6294   91.3946   10.3803 C   0  0  2  0  0  0  0  0  0  0  0  0
   -5.5055   90.8837   11.4455 N   0  0  0  0  0  0  0  0  0  0  0  0
   -4.6848   90.4879    9.1491 C   0  0  0  0  0  0  0  0  0  0  0  0
   -3.8611   91.1395    8.0337 C   0  0  2  0  0  0  0  0  0  0  0  0
   -3.8275   90.2438    6.8686 N   0  0  0  0  0  0  0  0  0  0  0  0
   -2.4143   91.4097    8.4573 C   0  0  2  0  0  0  0  0  0  0  0  0
   -2.2653   92.1053    9.8058 C   0  0  2  0  0  0  0  0  0  0  0  0
   -0.8938   91.9141   10.1884 O   0  0  0  0  0  0  0  0  0  0  0  0
   -3.1824   91.4886   10.8703 C   0  0  1  0  0  0  0  0  0  0  0  0
   -3.1749   92.2736   12.0656 O   0  0  0  0  0  0  0  0  0  0  0  0
   -0.5185   92.4675   11.4601 C   0  0  1  0  0  0  0  0  0  0  0  0
    0.7562   91.7552   11.9156 C   0  0  2  0  0  0  0  0  0  0  0  0
    0.4160   90.5228   12.5551 O   0  0  0  0  0  0  0  0  0  0  0  0
    1.2248   92.7609   12.9632 C   0  0  1  0  0  0  0  0  0  0  0  0
    1.0278   94.0623   12.2018 C   0  0  2  0  0  0  0  0  0  0  0  0
   -0.1496   93.8602   11.3934 O   0  0  0  0  0  0  0  0  0  0  0  0
    2.2692   94.3340   11.3444 C   0  0  0  0  0  0  0  0  0  0  0  0
    3.4403   94.4021   12.1632 O   0  0  0  0  0  0  0  0  0  0  0  0
    0.9011   91.8399   15.0952 C   0  0  2  0  0  0  0  0  0  0  0  0
    0.3513   92.7199   14.1029 O   0  0  0  0  0  0  0  0  0  0  0  0
    0.0806   90.5471   15.1448 C   0  0  1  0  0  0  0  0  0  0  0  0
    2.2860   93.7339   18.4971 N   0  0  0  0  0  0  0  0  0  0  0  0
    0.5872   89.6351   16.2673 C   0  0  1  0  0  0  0  0  0  0  0  0
    1.8947   89.1435   15.9554 O   0  0  0  0  0  0  0  0  0  0  0  0
    0.6241   90.4093   17.5877 C   0  0  2  0  0  0  0  0  0  0  0  0
   -0.7173   90.7487   17.9548 O   0  0  0  0  0  0  0  0  0  0  0  0
    1.4592   91.6823   17.4130 C   0  0  1  0  0  0  0  0  0  0  0  0
    0.8931   92.5009   16.3727 O   0  0  0  0  0  0  0  0  0  0  0  0
    1.5441   92.4834   18.7151 C   0  0  0  0  0  0  0  0  0  0  0  0
   -1.3226   90.8893   15.4220 N   0  0  0  0  0  0  0  0  0  0  0  0
  1  2  1  1  0  0  0
  1  3  1  0  0  0  0
  1 10  1  0  0  0  0
  3  4  1  6  0  0  0
  3  5  1  0  0  0  0
  5  6  1  6  0  0  0
  5  7  1  0  0  0  0
  7  8  1  1  0  0  0
  7  9  1  0  0  0  0
  9 10  1  0  0  0  0
  9 11  1  1  0  0  0
 11 12  1  0  0  0  0
 13 14  1  1  0  0  0
 13 15  1  0  0  0  0
 13 21  1  0  0  0  0
 16 15  1  0  0  0  0
 16 17  1  6  0  0  0
 18  2  1  6  0  0  0
 18 16  1  0  0  0  0
 19 18  1  0  0  0  0
 19 20  1  1  0  0  0
 21 19  1  0  0  0  0
 21 22  1  1  0  0  0
 23 20  1  6  0  0  0
 23 24  1  0  0  0  0
 23 28  1  0  0  0  0
 24 25  1  1  0  0  0
 24 26  1  0  0  0  0
 26 27  1  0  0  0  0
 26 32  1  1  0  0  0
 27 28  1  0  0  0  0
 27 29  1  6  0  0  0
 29 30  1  0  0  0  0
 31 32  1  6  0  0  0
 31 40  1  0  0  0  0
 33 31  1  0  0  0  0
 33 42  1  1  0  0  0
 35 33  1  0  0  0  0
 35 36  1  6  0  0  0
 37 35  1  0  0  0  0
 37 38  1  6  0  0  0
 37 39  1  0  0  0  0
 39 40  1  0  0  0  0
 39 41  1  1  0  0  0
 41 34  1  0  0  0  0
M  END
>  <CHROM.1>
-170.05848446,173.47745666,47.33663828,-178.72017364,159.74958121,94.86835573
-58.16779280,-107.28454475,-176.81682477,-0.74257698,92.54193444,11.37001084
1.92133142,-0.62894131,-1.16603293

>  <Name>
2fcy_lig

>  <RI>
1.56845e+07

>  <Rbt.Current_Directory>
/home/itssahil/PROJECTS/Mol_Feturizer/New_Systems/rnas/2fcy

>  <Rbt.Executable>
rbdock ($Id: //depot/dev/client3/rdock/2013.1/src/exe/rbdock.cxx#4 $)

>  <Rbt.Library>
libRbt.so (2013.1, Build901 2013/11/27)

>  <Rbt.Parameter_File>
/export/apps/rDock/src/rDock_2013.1_src/data/scripts/dock_solv.prm

>  <Rbt.Receptor>
prm/pocket_docking_4.prm

>  <SCORE>
-5.85237

>  <SCORE.INTER>
-7.70082

>  <SCORE.INTER.CONST>
1

>  <SCORE.INTER.POLAR>
-0.552554

>  <SCORE.INTER.ROT>
9

>  <SCORE.INTER.SOLV>
14.1727

>  <SCORE.INTER.VDW>
-17.6163

>  <SCORE.INTER.norm>
-0.183353

>  <SCORE.INTRA>
1.84845

>  <SCORE.INTRA.DIHEDRAL>
-2.98272

>  <SCORE.INTRA.DIHEDRAL.0>
17.3446

>  <SCORE.INTRA.POLAR>
0

>  <SCORE.INTRA.POLAR.0>
0

>  <SCORE.INTRA.REPUL>
0

>  <SCORE.INTRA.REPUL.0>
0

>  <SCORE.INTRA.SOLV>
0.158708

>  <SCORE.INTRA.SOLV.lig_0>
-112.452

>  <SCORE.INTRA.VDW>
3.26045

>  <SCORE.INTRA.VDW.0>
-5.95059

>  <SCORE.INTRA.norm>
0.0440107

>  <SCORE.RESTR>
0

>  <SCORE.RESTR.CAVITY>
0

>  <SCORE.RESTR.norm>
0

>  <SCORE.SYSTEM>
0

>  <SCORE.SYSTEM.CONST>
0

>  <SCORE.SYSTEM.DIHEDRAL>
0

>  <SCORE.SYSTEM.SOLV>
0

>  <SCORE.SYSTEM.norm>
0

>  <SCORE.heavy>
42

>  <SCORE.norm>
-0.139342

>  <RMSD>
9.407

$$$$
2fcy_lig
 OpenBabel11021811433D
libRbt.so/2013.1/901 2013/11/27
 42 45  0  0  0  0  0  0  0  0999 V2000
    6.9598   96.9072   14.0015 C   0  0  2  0  0  0  0  0  0  0  0  0
    6.2638   97.9095   13.2410 O   0  0  0  0  0  0  0  0  0  0  0  0
    7.5359   97.6420   15.2127 C   0  0  2  0  0  0  0  0  0  0  0  0
    6.4431   98.3389   15.9046 N   0  0  0  0  0  0  0  0  0  0  0  0
    8.5755   98.6637   14.7452 C   0  0  1  0  0  0  0  0  0  0  0  0
    9.1324   99.3616   15.8626 O   0  0  0  0  0  0  0  0  0  0  0  0
    9.6740   97.9461   13.9602 C   0  0  2  0  0  0  0  0  0  0  0  0
   10.5899   98.9114   13.4434 O   0  0  0  0  0  0  0  0  0  0  0  0
    9.0368   97.2146   12.7777 C   0  0  2  0  0  0  0  0  0  0  0  0
    8.0384   96.3017   13.2596 O   0  0  0  0  0  0  0  0  0  0  0  0
   10.1266   96.4836   11.9893 C   0  0  0  0  0  0  0  0  0  0  0  0
   10.4529   97.2046   10.7499 N   0  0  0  0  0  0  0  0  0  0  0  0
    3.0623   97.9299   10.5214 C   0  0  2  0  0  0  0  0  0  0  0  0
    2.0656   97.7054    9.4635 N   0  0  0  0  0  0  0  0  0  0  0  0
    4.4641   98.0752    9.9258 C   0  0  0  0  0  0  0  0  0  0  0  0
    5.4325   98.4376   11.0563 C   0  0  2  0  0  0  0  0  0  0  0  0
    6.8010   98.4967   10.5228 N   0  0  0  0  0  0  0  0  0  0  0  0
    5.4173   97.4091   12.1909 C   0  0  2  0  0  0  0  0  0  0  0  0
    4.0265   97.0262   12.6842 C   0  0  2  0  0  0  0  0  0  0  0  0
    4.2038   95.8129   13.4329 O   0  0  0  0  0  0  0  0  0  0  0  0
    3.0588   96.7708   11.5210 C   0  0  1  0  0  0  0  0  0  0  0  0
    1.7206   96.6080   11.9982 O   0  0  0  0  0  0  0  0  0  0  0  0
    3.0653   95.3781   14.1939 C   0  0  1  0  0  0  0  0  0  0  0  0
    3.5411   94.2867   15.1541 C   0  0  2  0  0  0  0  0  0  0  0  0
    3.5661   93.0279   14.4769 O   0  0  0  0  0  0  0  0  0  0  0  0
    2.3740   94.3140   16.1367 C   0  0  1  0  0  0  0  0  0  0  0  0
    2.2147   95.8135   16.3320 C   0  0  2  0  0  0  0  0  0  0  0  0
    2.5235   96.4029   15.0522 O   0  0  0  0  0  0  0  0  0  0  0  0
    3.1826   96.2821   17.4246 C   0  0  0  0  0  0  0  0  0  0  0  0
    2.9568   95.5605   18.6390 O   0  0  0  0  0  0  0  0  0  0  0  0
    1.2830   92.3377   15.5023 C   0  0  2  0  0  0  0  0  0  0  0  0
    1.1994   93.7710   15.5131 O   0  0  0  0  0  0  0  0  0  0  0  0
   -0.0954   91.7464   15.1902 C   0  0  1  0  0  0  0  0  0  0  0  0
    2.9979   88.6415   18.0898 N   0  0  0  0  0  0  0  0  0  0  0  0
   -0.0523   90.2168   15.2738 C   0  0  1  0  0  0  0  0  0  0  0  0
    0.7452   89.6839   14.2116 O   0  0  0  0  0  0  0  0  0  0  0  0
    0.5268   89.7874   16.6246 C   0  0  2  0  0  0  0  0  0  0  0  0
   -0.3757   90.1957   17.6581 O   0  0  0  0  0  0  0  0  0  0  0  0
    1.8943   90.4478   16.8300 C   0  0  1  0  0  0  0  0  0  0  0  0
    1.7593   91.8803   16.7801 O   0  0  0  0  0  0  0  0  0  0  0  0
    2.5262   90.0323   18.1613 C   0  0  0  0  0  0  0  0  0  0  0  0
   -1.0570   92.2391   16.1880 N   0  0  0  0  0  0  0  0  0  0  0  0
  1  2  1  6  0  0  0
  1  3  1  0  0  0  0
  1 10  1  0  0  0  0
  3  4  1  6  0  0  0
  3  5  1  0  0  0  0
  5  6  1  1  0  0  0
  5  7  1  0  0  0  0
  7  8  1  6  0  0  0
  7  9  1  0  0  0  0
  9 10  1  0  0  0  0
  9 11  1  1  0  0  0
 11 12  1  0  0  0  0
 13 14  1  6  0  0  0
 13 15  1  0  0  0  0
 13 21  1  0  0  0  0
 16 15  1  0  0  0  0
 16 17  1  6  0  0  0
 18  2  1  1  0  0  0
 18 16  1  0  0  0  0
 19 18  1  0  0  0  0
 19 20  1  6  0  0  0
 21 19  1  0  0  0  0
 21 22  1  1  0  0  0
 23 20  1  1  0  0  0
 23 24  1  0  0  0  0
 23 28  1  0  0  0  0
 24 25  1  6  0  0  0
 24 26  1  0  0  0  0
 26 27  1  0  0  0  0
 26 32  1  6  0  0  0
 27 28  1  0  0  0  0
 27 29  1  1  0  0  0
 29 30  1  0  0  0  0
 31 32  1  1  0  0  0
 31 40  1  0  0  0  0
 33 31  1  0  0  0  0
 33 42  1  1  0  0  0
 35 33  1  0  0  0  0
 35 36  1  6  0  0  0
 37 35  1  0  0  0  0
 37 38  1  1  0  0  0
 37 39  1  0  0  0  0
 39 40  1  0  0  0  0
 39 41  1  1  0  0  0
 41 34  1  0  0  0  0
M  END
>  <CHROM.1>
-168.27564946,-103.55440692,-147.43186202,169.66552257,-167.06195021,78.28028350
-56.63559355,165.08360731,72.96993737,4.23054327,95.20914152,14.35915477
-0.75252498,0.43051144,2.21935696

>  <Name>
2fcy_lig

>  <RI>
9.29634e+06

>  <Rbt.Current_Directory>
/home/itssahil/PROJECTS/Mol_Feturizer/New_Systems/rnas/2fcy

>  <Rbt.Executable>
rbdock ($Id: //depot/dev/client3/rdock/2013.1/src/exe/rbdock.cxx#4 $)

>  <Rbt.Library>
libRbt.so (2013.1, Build901 2013/11/27)

>  <Rbt.Parameter_File>
/export/apps/rDock/src/rDock_2013.1_src/data/scripts/dock_solv.prm

>  <Rbt.Receptor>
prm/blind_docking_100.prm

>  <SCORE>
-11.5675

>  <SCORE.INTER>
-16.8631

>  <SCORE.INTER.CONST>
1

>  <SCORE.INTER.POLAR>
-1.74919

>  <SCORE.INTER.ROT>
9

>  <SCORE.INTER.SOLV>
28.4792

>  <SCORE.INTER.VDW>
-24.5045

>  <SCORE.INTER.norm>
-0.401501

>  <SCORE.INTRA>
0.625959

>  <SCORE.INTRA.DIHEDRAL>
-3.46785

>  <SCORE.INTRA.DIHEDRAL.0>
17.3446

>  <SCORE.INTRA.POLAR>
0

>  <SCORE.INTRA.POLAR.0>
0

>  <SCORE.INTRA.REPUL>
0

>  <SCORE.INTRA.REPUL.0>
0

>  <SCORE.INTRA.SOLV>
-2.65709

>  <SCORE.INTRA.SOLV.lig_0>
-112.452

>  <SCORE.INTRA.VDW>
3.68843

>  <SCORE.INTRA.VDW.0>
-5.95059

>  <SCORE.INTRA.norm>
0.0149038

>  <SCORE.RESTR>
4.6696

>  <SCORE.RESTR.CAVITY>
4.6696

>  <SCORE.RESTR.norm>
0.111181

>  <SCORE.SYSTEM>
0

>  <SCORE.SYSTEM.CONST>
0

>  <SCORE.SYSTEM.DIHEDRAL>
0

>  <SCORE.SYSTEM.SOLV>
0

>  <SCORE.SYSTEM.norm>
0

>  <SCORE.heavy>
42

>  <SCORE.norm>
-0.275417

>  <RMSD>
9.420

$$$$
2fcy_lig
 OpenBabel11021811433D
libRbt.so/2013.1/901 2013/11/27
 42 45  0  0  0  0  0  0  0  0999 V2000
   -0.9350   90.4001   11.8891 C   0  0  2  0  0  0  0  0  0  0  0  0
   -0.5252   91.5231   11.0901 O   0  0  0  0  0  0  0  0  0  0  0  0
   -0.9878   89.2129   10.9264 C   0  0  2  0  0  0  0  0  0  0  0  0
    0.3140   89.0917   10.2559 N   0  0  0  0  0  0  0  0  0  0  0  0
   -2.0791   89.4506    9.8795 C   0  0  1  0  0  0  0  0  0  0  0  0
   -2.1505   88.3499    8.9689 O   0  0  0  0  0  0  0  0  0  0  0  0
   -3.4215   89.6515   10.5833 C   0  0  2  0  0  0  0  0  0  0  0  0
   -4.4188   89.9685    9.6125 O   0  0  0  0  0  0  0  0  0  0  0  0
   -3.3012   90.8347   11.5450 C   0  0  2  0  0  0  0  0  0  0  0  0
   -2.2379   90.5883   12.4784 O   0  0  0  0  0  0  0  0  0  0  0  0
   -4.6374   91.0395   12.2636 C   0  0  0  0  0  0  0  0  0  0  0  0
   -4.5975   92.2356   13.1181 N   0  0  0  0  0  0  0  0  0  0  0  0
    1.2828   95.1195   12.2916 C   0  0  2  0  0  0  0  0  0  0  0  0
    1.6659   96.4313   12.8351 N   0  0  0  0  0  0  0  0  0  0  0  0
    0.0522   95.2424   11.3909 C   0  0  0  0  0  0  0  0  0  0  0  0
   -0.2164   93.8755   10.7531 C   0  0  2  0  0  0  0  0  0  0  0  0
   -1.4463   93.9473    9.9512 N   0  0  0  0  0  0  0  0  0  0  0  0
   -0.4027   92.7702   11.7966 C   0  0  2  0  0  0  0  0  0  0  0  0
    0.6674   92.7326   12.8819 C   0  0  2  0  0  0  0  0  0  0  0  0
    0.1188   91.9253   13.9361 O   0  0  0  0  0  0  0  0  0  0  0  0
    0.9807   94.1339   13.4231 C   0  0  1  0  0  0  0  0  0  0  0  0
    2.1167   94.1023   14.2913 O   0  0  0  0  0  0  0  0  0  0  0  0
    0.8888   91.8755   15.1481 C   0  0  1  0  0  0  0  0  0  0  0  0
    0.0646   91.1147   16.1879 C   0  0  2  0  0  0  0  0  0  0  0  0
   -0.8600   92.0067   16.8150 O   0  0  0  0  0  0  0  0  0  0  0  0
    1.1832   90.7691   17.1665 C   0  0  1  0  0  0  0  0  0  0  0  0
    2.2553   90.2909   16.2000 C   0  0  2  0  0  0  0  0  0  0  0  0
    2.1061   91.1119   15.0234 O   0  0  0  0  0  0  0  0  0  0  0  0
    2.0268   88.8064   15.8928 C   0  0  0  0  0  0  0  0  0  0  0  0
    2.2493   88.0116   17.0612 O   0  0  0  0  0  0  0  0  0  0  0  0
    0.8406   92.1511   19.0296 C   0  0  2  0  0  0  0  0  0  0  0  0
    1.6239   91.9578   17.8420 O   0  0  0  0  0  0  0  0  0  0  0  0
    1.2742   93.4458   19.7244 C   0  0  1  0  0  0  0  0  0  0  0  0
   -0.6051   89.8672   23.0440 N   0  0  0  0  0  0  0  0  0  0  0  0
    0.5218   93.6200   21.0481 C   0  0  1  0  0  0  0  0  0  0  0  0
   -0.8660   93.8676   20.8013 O   0  0  0  0  0  0  0  0  0  0  0  0
    0.6810   92.3610   21.9047 C   0  0  2  0  0  0  0  0  0  0  0  0
    2.0591   92.2290   22.2694 O   0  0  0  0  0  0  0  0  0  0  0  0
    0.2296   91.1349   21.1039 C   0  0  1  0  0  0  0  0  0  0  0  0
    1.0124   91.0197   19.9011 O   0  0  0  0  0  0  0  0  0  0  0  0
    0.3503   89.8492   21.9265 C   0  0  0  0  0  0  0  0  0  0  0  0
    2.7136   93.3657   20.0155 N   0  0  0  0  0  0  0  0  0  0  0  0
  1  2  1  6  0  0  0
  1  3  1  0  0  0  0
  1 10  1  0  0  0  0
  3  4  1  6  0  0  0
  3  5  1  0  0  0  0
  5  6  1  6  0  0  0
  5  7  1  0  0  0  0
  7  8  1  6  0  0  0
  7  9  1  0  0  0  0
  9 10  1  0  0  0  0
  9 11  1  1  0  0  0
 11 12  1  0  0  0  0
 13 14  1  1  0  0  0
 13 15  1  0  0  0  0
 13 21  1  0  0  0  0
 16 15  1  0  0  0  0
 16 17  1  1  0  0  0
 18  2  1  6  0  0  0
 18 16  1  0  0  0  0
 19 18  1  0  0  0  0
 19 20  1  1  0  0  0
 21 19  1  0  0  0  0
 21 22  1  1  0  0  0
 23 20  1  6  0  0  0
 23 24  1  0  0  0  0
 23 28  1  0  0  0  0
 24 25  1  1  0  0  0
 24 26  1  0  0  0  0
 26 27  1  0  0  0  0
 26 32  1  6  0  0  0
 27 28  1  0  0  0  0
 27 29  1  6  0  0  0
 29 30  1  0  0  0  0
 31 32  1  6  0  0  0
 31 40  1  0  0  0  0
 33 31  1  0  0  0  0
 33 42  1  1  0  0  0
 35 33  1  0  0  0  0
 35 36  1  6  0  0  0
 37 35  1  0  0  0  0
 37 38  1  6  0  0  0
 37 39  1  0  0  0  0
 39 40  1  0  0  0  0
 39 41  1  1  0  0  0
 41 34  1  0  0  0  0
M  END
>  <CHROM.1>
-179.87814970,-175.41638840,-169.77730215,-172.80459546,173.33652828,89.16359763
-66.73365146,-177.93645037,66.82787476,-0.10223076,91.67928582,15.11997096
2.14576373,-1.05634202,-1.11759541

>  <Name>
2fcy_lig

>  <RI>
2.89127e+07

>  <Rbt.Current_Directory>
/home/itssahil/PROJECTS/Mol_Feturizer/New_Systems/rnas/2fcy

>  <Rbt.Executable>
rbdock ($Id: //depot/dev/client3/rdock/2013.1/src/exe/rbdock.cxx#4 $)

>  <Rbt.Library>
libRbt.so (2013.1, Build901 2013/11/27)

>  <Rbt.Parameter_File>
/export/apps/rDock/src/rDock_2013.1_src/data/scripts/dock_solv.prm

>  <Rbt.Receptor>
prm/pocket_docking_7.prm

>  <SCORE>
-16.115

>  <SCORE.INTER>
-11.0988

>  <SCORE.INTER.CONST>
1

>  <SCORE.INTER.POLAR>
-0.895064

>  <SCORE.INTER.ROT>
9

>  <SCORE.INTER.SOLV>
12.8365

>  <SCORE.INTER.VDW>
-18.2945

>  <SCORE.INTER.norm>
-0.264258

>  <SCORE.INTRA>
-5.01616

>  <SCORE.INTRA.DIHEDRAL>
-12.1932

>  <SCORE.INTRA.DIHEDRAL.0>
17.3446

>  <SCORE.INTRA.POLAR>
0

>  <SCORE.INTRA.POLAR.0>
0

>  <SCORE.INTRA.REPUL>
0

>  <SCORE.INTRA.REPUL.0>
0

>  <SCORE.INTRA.SOLV>
-5.35174

>  <SCORE.INTRA.SOLV.lig_0>
-112.452

>  <SCORE.INTRA.VDW>
3.7563

>  <SCORE.INTRA.VDW.0>
-5.95059

>  <SCORE.INTRA.norm>
-0.119432

>  <SCORE.RESTR>
0

>  <SCORE.RESTR.CAVITY>
0

>  <SCORE.RESTR.norm>
0

>  <SCORE.SYSTEM>
0

>  <SCORE.SYSTEM.CONST>
0

>  <SCORE.SYSTEM.DIHEDRAL>
0

>  <SCORE.SYSTEM.SOLV>
0

>  <SCORE.SYSTEM.norm>
0

>  <SCORE.heavy>
42

>  <SCORE.norm>
-0.38369

>  <RMSD>
9.438

$$$$
2fcy_lig
 OpenBabel11021811433D
libRbt.so/2013.1/901 2013/11/27
 42 45  0  0  0  0  0  0  0  0999 V2000
   -2.9145   90.9103    6.4632 C   0  0  2  0  0  0  0  0  0  0  0  0
   -2.8940   89.5322    6.8725 O   0  0  0  0  0  0  0  0  0  0  0  0
   -4.3911   91.3085    6.4468 C   0  0  2  0  0  0  0  0  0  0  0  0
   -4.9731   91.0138    7.7633 N   0  0  0  0  0  0  0  0  0  0  0  0
   -5.1270   90.5026    5.3733 C   0  0  1  0  0  0  0  0  0  0  0  0
   -6.5111   90.8612    5.3360 O   0  0  0  0  0  0  0  0  0  0  0  0
   -4.4721   90.7522    4.0143 C   0  0  2  0  0  0  0  0  0  0  0  0
   -5.0977   89.9266    3.0321 O   0  0  0  0  0  0  0  0  0  0  0  0
   -2.9971   90.3568    4.0982 C   0  0  2  0  0  0  0  0  0  0  0  0
   -2.3589   91.1032    5.1461 O   0  0  0  0  0  0  0  0  0  0  0  0
   -2.3280   90.6119    2.7451 C   0  0  0  0  0  0  0  0  0  0  0  0
   -2.7385   89.6035    1.7566 N   0  0  0  0  0  0  0  0  0  0  0  0
    0.0600   87.1689    8.6987 C   0  0  2  0  0  0  0  0  0  0  0  0
    1.2515   86.4133    9.1136 N   0  0  0  0  0  0  0  0  0  0  0  0
   -0.4152   86.7187    7.3159 C   0  0  0  0  0  0  0  0  0  0  0  0
   -1.7275   87.4426    6.9982 C   0  0  2  0  0  0  0  0  0  0  0  0
   -2.1581   87.0920    5.6371 N   0  0  0  0  0  0  0  0  0  0  0  0
   -1.5857   88.9660    7.0656 C   0  0  2  0  0  0  0  0  0  0  0  0
   -0.8957   89.4860    8.3218 C   0  0  2  0  0  0  0  0  0  0  0  0
   -0.5174   90.8390    8.0215 O   0  0  0  0  0  0  0  0  0  0  0  0
    0.3580   88.6699    8.6635 C   0  0  1  0  0  0  0  0  0  0  0  0
    0.8760   89.0437    9.9429 O   0  0  0  0  0  0  0  0  0  0  0  0
   -0.2303   91.6724    9.1561 C   0  0  1  0  0  0  0  0  0  0  0  0
    0.3063   93.0036    8.6273 C   0  0  2  0  0  0  0  0  0  0  0  0
    1.7062   92.8865    8.3622 O   0  0  0  0  0  0  0  0  0  0  0  0
    0.0932   93.8546    9.8759 C   0  0  1  0  0  0  0  0  0  0  0  0
   -1.3151   93.4296   10.2606 C   0  0  2  0  0  0  0  0  0  0  0  0
   -1.4027   92.0318    9.9154 O   0  0  0  0  0  0  0  0  0  0  0  0
   -2.3254   94.2755    9.4771 C   0  0  0  0  0  0  0  0  0  0  0  0
   -2.2408   93.9908    8.0777 O   0  0  0  0  0  0  0  0  0  0  0  0
    1.6176   94.6316   11.4793 C   0  0  2  0  0  0  0  0  0  0  0  0
    1.0229   93.4613   10.8979 O   0  0  0  0  0  0  0  0  0  0  0  0
    2.7936   94.2199   12.3707 C   0  0  1  0  0  0  0  0  0  0  0  0
    0.4951   98.6466   13.9387 N   0  0  0  0  0  0  0  0  0  0  0  0
    3.3798   95.4443   13.0818 C   0  0  1  0  0  0  0  0  0  0  0  0
    4.0150   96.3106   12.1361 O   0  0  0  0  0  0  0  0  0  0  0  0
    2.2679   96.2002   13.8143 C   0  0  2  0  0  0  0  0  0  0  0  0
    1.7608   95.3643   14.8601 O   0  0  0  0  0  0  0  0  0  0  0  0
    1.1471   96.5466   12.8283 C   0  0  1  0  0  0  0  0  0  0  0  0
    0.6236   95.3421   12.2384 O   0  0  0  0  0  0  0  0  0  0  0  0
    0.0175   97.3237   13.5099 C   0  0  0  0  0  0  0  0  0  0  0  0
    2.3056   93.2797   13.3909 N   0  0  0  0  0  0  0  0  0  0  0  0
  1  2  1  6  0  0  0
  1  3  1  0  0  0  0
  1 10  1  0  0  0  0
  3  4  1  1  0  0  0
  3  5  1  0  0  0  0
  5  6  1  6  0  0  0
  5  7  1  0  0  0  0
  7  8  1  6  0  0  0
  7  9  1  0  0  0  0
  9 10  1  0  0  0  0
  9 11  1  6  0  0  0
 11 12  1  0  0  0  0
 13 14  1  6  0  0  0
 13 15  1  0  0  0  0
 13 21  1  0  0  0  0
 16 15  1  0  0  0  0
 16 17  1  6  0  0  0
 18  2  1  1  0  0  0
 18 16  1  0  0  0  0
 19 18  1  0  0  0  0
 19 20  1  6  0  0  0
 21 19  1  0  0  0  0
 21 22  1  1  0  0  0
 23 20  1  6  0  0  0
 23 24  1  0  0  0  0
 23 28  1  0  0  0  0
 24 25  1  1  0  0  0
 24 26  1  0  0  0  0
 26 27  1  0  0  0  0
 26 32  1  1  0  0  0
 27 28  1  0  0  0  0
 27 29  1  6  0  0  0
 29 30  1  0  0  0  0
 31 32  1  1  0  0  0
 31 40  1  0  0  0  0
 33 31  1  0  0  0  0
 33 42  1  1  0  0  0
 35 33  1  0  0  0  0
 35 36  1  6  0  0  0
 37 35  1  0  0  0  0
 37 38  1  1  0  0  0
 37 39  1  0  0  0  0
 39 40  1  0  0  0  0
 39 41  1  1  0  0  0
 41 34  1  0  0  0  0
M  END
>  <CHROM.1>
-175.14515662,-73.73178155,-160.17578772,161.38768329,173.42285561,133.90522595
65.89114893,-169.22577241,66.38234328,-0.84987878,91.93295949,8.74245568
2.21425268,0.73158286,-2.70737018

>  <Name>
2fcy_lig

>  <RI>
2.32494e+07

>  <Rbt.Current_Directory>
/home/itssahil/PROJECTS/Mol_Feturizer/New_Systems/rnas/2fcy

>  <Rbt.Executable>
rbdock ($Id: //depot/dev/client3/rdock/2013.1/src/exe/rbdock.cxx#4 $)

>  <Rbt.Library>
libRbt.so (2013.1, Build901 2013/11/27)

>  <Rbt.Parameter_File>
/export/apps/rDock/src/rDock_2013.1_src/data/scripts/dock_solv.prm

>  <Rbt.Receptor>
prm/pocket_docking_8.prm

>  <SCORE>
-14.392

>  <SCORE.INTER>
-11.1205

>  <SCORE.INTER.CONST>
1

>  <SCORE.INTER.POLAR>
-2.96187

>  <SCORE.INTER.ROT>
9

>  <SCORE.INTER.SOLV>
13.2404

>  <SCORE.INTER.VDW>
-11.5543

>  <SCORE.INTER.norm>
-0.264774

>  <SCORE.INTRA>
-3.28695

>  <SCORE.INTRA.DIHEDRAL>
-5.94797

>  <SCORE.INTRA.DIHEDRAL.0>
17.3446

>  <SCORE.INTRA.POLAR>
0

>  <SCORE.INTRA.POLAR.0>
0

>  <SCORE.INTRA.REPUL>
0

>  <SCORE.INTRA.REPUL.0>
0

>  <SCORE.INTRA.SOLV>
-3.19405

>  <SCORE.INTRA.SOLV.lig_0>
-112.452

>  <SCORE.INTRA.VDW>
1.28405

>  <SCORE.INTRA.VDW.0>
-5.95059

>  <SCORE.INTRA.norm>
-0.0782608

>  <SCORE.RESTR>
0.0154578

>  <SCORE.RESTR.CAVITY>
0.0154578

>  <SCORE.RESTR.norm>
0.000368043

>  <SCORE.SYSTEM>
0

>  <SCORE.SYSTEM.CONST>
0

>  <SCORE.SYSTEM.DIHEDRAL>
0

>  <SCORE.SYSTEM.SOLV>
0

>  <SCORE.SYSTEM.norm>
0

>  <SCORE.heavy>
42

>  <SCORE.norm>
-0.342667

>  <RMSD>
9.456

$$$$
2fcy_lig
 OpenBabel11021811433D
libRbt.so/2013.1/901 2013/11/27
 42 45  0  0  0  0  0  0  0  0999 V2000
   -3.0815   94.2826    8.6609 C   0  0  2  0  0  0  0  0  0  0  0  0
   -3.2946   92.8825    8.9089 O   0  0  0  0  0  0  0  0  0  0  0  0
   -4.4717   94.9190    8.6982 C   0  0  2  0  0  0  0  0  0  0  0  0
   -5.1125   94.5764    9.9752 N   0  0  0  0  0  0  0  0  0  0  0  0
   -5.3156   94.3742    7.5431 C   0  0  1  0  0  0  0  0  0  0  0  0
   -6.6209   94.9590    7.5547 O   0  0  0  0  0  0  0  0  0  0  0  0
   -4.6099   94.6655    6.2184 C   0  0  2  0  0  0  0  0  0  0  0  0
   -5.3495   94.0726    5.1511 O   0  0  0  0  0  0  0  0  0  0  0  0
   -3.2217   94.0242    6.2484 C   0  0  2  0  0  0  0  0  0  0  0  0
   -2.4835   94.5300    7.3718 O   0  0  0  0  0  0  0  0  0  0  0  0
   -2.5010   94.3179    4.9301 C   0  0  0  0  0  0  0  0  0  0  0  0
   -1.1821   93.6682    4.8953 N   0  0  0  0  0  0  0  0  0  0  0  0
   -0.5062   89.9465   10.0276 C   0  0  2  0  0  0  0  0  0  0  0  0
    0.5716   88.9543   10.1573 N   0  0  0  0  0  0  0  0  0  0  0  0
   -1.4213   89.6046    8.8502 C   0  0  0  0  0  0  0  0  0  0  0  0
   -2.5928   90.5919    8.8481 C   0  0  2  0  0  0  0  0  0  0  0  0
   -3.4397   90.3378    7.6737 N   0  0  0  0  0  0  0  0  0  0  0  0
   -2.1283   92.0498    8.7826 C   0  0  2  0  0  0  0  0  0  0  0  0
   -1.0313   92.4134    9.7770 C   0  0  2  0  0  0  0  0  0  0  0  0
   -0.4794   93.6532    9.3054 O   0  0  0  0  0  0  0  0  0  0  0  0
    0.0727   91.3487    9.8234 C   0  0  1  0  0  0  0  0  0  0  0  0
    0.9842   91.6065   10.8946 O   0  0  0  0  0  0  0  0  0  0  0  0
    0.4259   94.3143   10.2041 C   0  0  1  0  0  0  0  0  0  0  0  0
    0.6434   95.7343    9.6788 C   0  0  2  0  0  0  0  0  0  0  0  0
    1.6563   95.7239    8.6700 O   0  0  0  0  0  0  0  0  0  0  0  0
    1.1962   96.3723   10.9499 C   0  0  1  0  0  0  0  0  0  0  0  0
    0.2166   95.8288   11.9781 C   0  0  2  0  0  0  0  0  0  0  0  0
   -0.1133   94.4983   11.5292 O   0  0  0  0  0  0  0  0  0  0  0  0
   -1.0170   96.7379   12.0244 C   0  0  0  0  0  0  0  0  0  0  0  0
   -0.6505   98.0622   12.4220 O   0  0  0  0  0  0  0  0  0  0  0  0
    3.1282   96.6530   12.2488 C   0  0  2  0  0  0  0  0  0  0  0  0
    2.5158   95.8695   11.2131 O   0  0  0  0  0  0  0  0  0  0  0  0
    3.3956   98.0694   11.7297 C   0  0  1  0  0  0  0  0  0  0  0  0
    6.9081   96.6843   15.2876 N   0  0  0  0  0  0  0  0  0  0  0  0
    4.1413   98.8935   12.7847 C   0  0  1  0  0  0  0  0  0  0  0  0
    3.2920   99.1461   13.9086 O   0  0  0  0  0  0  0  0  0  0  0  0
    5.3952   98.1414   13.2392 C   0  0  2  0  0  0  0  0  0  0  0  0
    6.2959   98.0452   12.1307 O   0  0  0  0  0  0  0  0  0  0  0  0
    5.0061   96.7404   13.7233 C   0  0  1  0  0  0  0  0  0  0  0  0
    4.3515   96.0197   12.6627 O   0  0  0  0  0  0  0  0  0  0  0  0
    6.2262   95.9534   14.2093 C   0  0  0  0  0  0  0  0  0  0  0  0
    4.2394   97.9800   10.5284 N   0  0  0  0  0  0  0  0  0  0  0  0
  1  2  1  6  0  0  0
  1  3  1  0  0  0  0
  1 10  1  0  0  0  0
  3  4  1  1  0  0  0
  3  5  1  0  0  0  0
  5  6  1  6  0  0  0
  5  7  1  0  0  0  0
  7  8  1  6  0  0  0
  7  9  1  0  0  0  0
  9 10  1  0  0  0  0
  9 11  1  6  0  0  0
 11 12  1  0  0  0  0
 13 14  1  6  0  0  0
 13 15  1  0  0  0  0
 13 21  1  0  0  0  0
 16 15  1  0  0  0  0
 16 17  1  6  0  0  0
 18  2  1  1  0  0  0
 18 16  1  0  0  0  0
 19 18  1  0  0  0  0
 19 20  1  6  0  0  0
 21 19  1  0  0  0  0
 21 22  1  1  0  0  0
 23 20  1  6  0  0  0
 23 24  1  0  0  0  0
 23 28  1  0  0  0  0
 24 25  1  6  0  0  0
 24 26  1  0  0  0  0
 26 27  1  0  0  0  0
 26 32  1  1  0  0  0
 27 28  1  0  0  0  0
 27 29  1  6  0  0  0
 29 30  1  0  0  0  0
 31 32  1  6  0  0  0
 31 40  1  0  0  0  0
 33 31  1  0  0  0  0
 33 42  1  6  0  0  0
 35 33  1  0  0  0  0
 35 36  1  1  0  0  0
 37 35  1  0  0  0  0
 37 38  1  6  0  0  0
 37 39  1  0  0  0  0
 39 40  1  0  0  0  0
 39 41  1  6  0  0  0
 41 34  1  0  0  0  0
M  END
>  <CHROM.1>
173.78470060,-177.54795928,-170.67796995,169.97910462,-167.16402905,168.96052404
-61.45975962,-67.73715958,57.53905262,0.00681690,94.72288834,10.03720233
2.69261196,0.56471515,-3.06541493

>  <Name>
2fcy_lig

>  <RI>
2.32494e+07

>  <Rbt.Current_Directory>
/home/itssahil/PROJECTS/Mol_Feturizer/New_Systems/rnas/2fcy

>  <Rbt.Executable>
rbdock ($Id: //depot/dev/client3/rdock/2013.1/src/exe/rbdock.cxx#4 $)

>  <Rbt.Library>
libRbt.so (2013.1, Build901 2013/11/27)

>  <Rbt.Parameter_File>
/export/apps/rDock/src/rDock_2013.1_src/data/scripts/dock_solv.prm

>  <Rbt.Receptor>
prm/pocket_docking_8.prm

>  <SCORE>
-12.1138

>  <SCORE.INTER>
-5.66723

>  <SCORE.INTER.CONST>
1

>  <SCORE.INTER.POLAR>
-2.42667

>  <SCORE.INTER.ROT>
9

>  <SCORE.INTER.SOLV>
14.4898

>  <SCORE.INTER.VDW>
-10.1192

>  <SCORE.INTER.norm>
-0.134934

>  <SCORE.INTRA>
-6.44662

>  <SCORE.INTRA.DIHEDRAL>
-13.9634

>  <SCORE.INTRA.DIHEDRAL.0>
17.3446

>  <SCORE.INTRA.POLAR>
0

>  <SCORE.INTRA.POLAR.0>
0

>  <SCORE.INTRA.REPUL>
0

>  <SCORE.INTRA.REPUL.0>
0

>  <SCORE.INTRA.SOLV>
-4.42492

>  <SCORE.INTRA.SOLV.lig_0>
-112.452

>  <SCORE.INTRA.VDW>
2.74756

>  <SCORE.INTRA.VDW.0>
-5.95059

>  <SCORE.INTRA.norm>
-0.153491

>  <SCORE.RESTR>
0

>  <SCORE.RESTR.CAVITY>
0

>  <SCORE.RESTR.norm>
0

>  <SCORE.SYSTEM>
0

>  <SCORE.SYSTEM.CONST>
0

>  <SCORE.SYSTEM.DIHEDRAL>
0

>  <SCORE.SYSTEM.SOLV>
0

>  <SCORE.SYSTEM.norm>
0

>  <SCORE.heavy>
42

>  <SCORE.norm>
-0.288425

>  <RMSD>
9.483

$$$$
2fcy_lig
 OpenBabel11021811433D
libRbt.so/2013.1/901 2013/11/27
 42 45  0  0  0  0  0  0  0  0999 V2000
   -2.1890   91.6280    7.1915 C   0  0  2  0  0  0  0  0  0  0  0  0
   -1.6833   90.4829    6.4843 O   0  0  0  0  0  0  0  0  0  0  0  0
   -3.6961   91.6347    6.9311 C   0  0  2  0  0  0  0  0  0  0  0  0
   -4.2483   90.3319    7.3266 N   0  0  0  0  0  0  0  0  0  0  0  0
   -3.9573   91.8668    5.4408 C   0  0  1  0  0  0  0  0  0  0  0  0
   -5.3622   91.8814    5.1729 O   0  0  0  0  0  0  0  0  0  0  0  0
   -3.3168   93.1879    5.0137 C   0  0  2  0  0  0  0  0  0  0  0  0
   -3.4781   93.3551    3.6052 O   0  0  0  0  0  0  0  0  0  0  0  0
   -1.8189   93.1298    5.3170 C   0  0  2  0  0  0  0  0  0  0  0  0
   -1.6221   92.8657    6.7149 O   0  0  0  0  0  0  0  0  0  0  0  0
   -1.1679   94.4520    4.9025 C   0  0  0  0  0  0  0  0  0  0  0  0
    0.2904   94.4006    5.0851 N   0  0  0  0  0  0  0  0  0  0  0  0
    1.6389   88.0158    7.2073 C   0  0  2  0  0  0  0  0  0  0  0  0
    2.9517   87.3904    7.4275 N   0  0  0  0  0  0  0  0  0  0  0  0
    1.5896   88.7117    5.8456 C   0  0  0  0  0  0  0  0  0  0  0  0
    0.1643   89.2259    5.6188 C   0  0  2  0  0  0  0  0  0  0  0  0
    0.1139   89.9748    4.3549 N   0  0  0  0  0  0  0  0  0  0  0  0
   -0.3036   90.1628    6.7362 C   0  0  2  0  0  0  0  0  0  0  0  0
   -0.0663   89.6380    8.1479 C   0  0  2  0  0  0  0  0  0  0  0  0
   -0.1976   90.7795    9.0104 O   0  0  0  0  0  0  0  0  0  0  0  0
    1.3374   89.0387    8.3054 C   0  0  1  0  0  0  0  0  0  0  0  0
    1.4709   88.3789    9.5671 O   0  0  0  0  0  0  0  0  0  0  0  0
   -0.1082   90.5101   10.4188 C   0  0  1  0  0  0  0  0  0  0  0  0
   -0.4642   91.8003   11.1593 C   0  0  2  0  0  0  0  0  0  0  0  0
    0.6910   92.6377   11.2488 O   0  0  0  0  0  0  0  0  0  0  0  0
   -0.7707   91.2061   12.5310 C   0  0  1  0  0  0  0  0  0  0  0  0
   -1.6300   90.0176   12.1295 C   0  0  2  0  0  0  0  0  0  0  0  0
   -1.0786   89.5487   10.8817 O   0  0  0  0  0  0  0  0  0  0  0  0
   -3.0833   90.4799   11.9735 C   0  0  0  0  0  0  0  0  0  0  0  0
   -3.5851   90.9868   13.2135 O   0  0  0  0  0  0  0  0  0  0  0  0
    0.1784   90.3710   14.5059 C   0  0  2  0  0  0  0  0  0  0  0  0
    0.4442   90.7499   13.1468 O   0  0  0  0  0  0  0  0  0  0  0  0
   -0.3845   91.5724   15.2720 C   0  0  1  0  0  0  0  0  0  0  0  0
    3.0304   87.8843   16.0722 N   0  0  0  0  0  0  0  0  0  0  0  0
   -0.5802   91.2196   16.7504 C   0  0  1  0  0  0  0  0  0  0  0  0
   -1.6300   90.2578   16.8964 O   0  0  0  0  0  0  0  0  0  0  0  0
    0.7227   90.6586   17.3266 C   0  0  2  0  0  0  0  0  0  0  0  0
    1.7101   91.6951   17.3144 O   0  0  0  0  0  0  0  0  0  0  0  0
    1.1929   89.4748   16.4746 C   0  0  1  0  0  0  0  0  0  0  0  0
    1.3938   89.8996   15.1138 O   0  0  0  0  0  0  0  0  0  0  0  0
    2.4851   88.8639   17.0235 C   0  0  0  0  0  0  0  0  0  0  0  0
    0.5772   92.6815   15.1826 N   0  0  0  0  0  0  0  0  0  0  0  0
  1  2  1  6  0  0  0
  1  3  1  0  0  0  0
  1 10  1  0  0  0  0
  3  4  1  6  0  0  0
  3  5  1  0  0  0  0
  5  6  1  1  0  0  0
  5  7  1  0  0  0  0
  7  8  1  6  0  0  0
  7  9  1  0  0  0  0
  9 10  1  0  0  0  0
  9 11  1  1  0  0  0
 11 12  1  0  0  0  0
 13 14  1  1  0  0  0
 13 15  1  0  0  0  0
 13 21  1  0  0  0  0
 16 15  1  0  0  0  0
 16 17  1  6  0  0  0
 18  2  1  6  0  0  0
 18 16  1  0  0  0  0
 19 18  1  0  0  0  0
 19 20  1  1  0  0  0
 21 19  1  0  0  0  0
 21 22  1  1  0  0  0
 23 20  1  6  0  0  0
 23 24  1  0  0  0  0
 23 28  1  0  0  0  0
 24 25  1  1  0  0  0
 24 26  1  0  0  0  0
 26 27  1  0  0  0  0
 26 32  1  6  0  0  0
 27 28  1  0  0  0  0
 27 29  1  6  0  0  0
 29 30  1  0  0  0  0
 31 32  1  6  0  0  0
 31 40  1  0  0  0  0
 33 31  1  0  0  0  0
 33 42  1  1  0  0  0
 35 33  1  0  0  0  0
 35 36  1  6  0  0  0
 37 35  1  0  0  0  0
 37 38  1  6  0  0  0
 37 39  1  0  0  0  0
 39 40  1  0  0  0  0
 39 41  1  1  0  0  0
 41 34  1  0  0  0  0
M  END
>  <CHROM.1>
-171.66628624,-175.78034049,-163.13421740,175.69696098,-172.23566953,171.78133835
-61.48810473,-59.06547873,-170.65000483,-0.59479405,90.79885355,10.16601276
1.86755607,0.64249394,-1.62101097

>  <Name>
2fcy_lig

>  <RI>
0

>  <Rbt.Current_Directory>
/home/itssahil/PROJECTS/Mol_Feturizer/New_Systems/rnas/2fcy

>  <Rbt.Executable>
rbdock ($Id: //depot/dev/client3/rdock/2013.1/src/exe/rbdock.cxx#4 $)

>  <Rbt.Library>
libRbt.so (2013.1, Build901 2013/11/27)

>  <Rbt.Parameter_File>
/export/apps/rDock/src/rDock_2013.1_src/data/scripts/dock_solv.prm

>  <Rbt.Receptor>
prm/pocket_docking_5.prm

>  <SCORE>
-25.5812

>  <SCORE.INTER>
-19.997

>  <SCORE.INTER.CONST>
1

>  <SCORE.INTER.POLAR>
-2.35446

>  <SCORE.INTER.ROT>
9

>  <SCORE.INTER.SOLV>
26.6519

>  <SCORE.INTER.VDW>
-23.9671

>  <SCORE.INTER.norm>
-0.476119

>  <SCORE.INTRA>
-6.01935

>  <SCORE.INTRA.DIHEDRAL>
-14.0333

>  <SCORE.INTRA.DIHEDRAL.0>
17.3446

>  <SCORE.INTRA.POLAR>
0

>  <SCORE.INTRA.POLAR.0>
0

>  <SCORE.INTRA.REPUL>
0

>  <SCORE.INTRA.REPUL.0>
0

>  <SCORE.INTRA.SOLV>
-4.65616

>  <SCORE.INTRA.SOLV.lig_0>
-112.452

>  <SCORE.INTRA.VDW>
3.32539

>  <SCORE.INTRA.VDW.0>
-5.95059

>  <SCORE.INTRA.norm>
-0.143318

>  <SCORE.RESTR>
0.435145

>  <SCORE.RESTR.CAVITY>
0.435145

>  <SCORE.RESTR.norm>
0.0103606

>  <SCORE.SYSTEM>
0

>  <SCORE.SYSTEM.CONST>
0

>  <SCORE.SYSTEM.DIHEDRAL>
0

>  <SCORE.SYSTEM.SOLV>
0

>  <SCORE.SYSTEM.norm>
0

>  <SCORE.heavy>
42

>  <SCORE.norm>
-0.609076

>  <RMSD>
9.493

$$$$
2fcy_lig
 OpenBabel11021811433D
libRbt.so/2013.1/901 2013/11/27
 42 45  0  0  0  0  0  0  0  0999 V2000
   -3.3941   88.6441    6.3974 C   0  0  2  0  0  0  0  0  0  0  0  0
   -2.2031   89.4490    6.4289 O   0  0  0  0  0  0  0  0  0  0  0  0
   -4.3127   89.3159    5.3757 C   0  0  2  0  0  0  0  0  0  0  0  0
   -3.5864   89.4501    4.1056 N   0  0  0  0  0  0  0  0  0  0  0  0
   -4.7133   90.7039    5.8818 C   0  0  1  0  0  0  0  0  0  0  0  0
   -5.5773   91.3511    4.9435 O   0  0  0  0  0  0  0  0  0  0  0  0
   -5.4025   90.5688    7.2399 C   0  0  2  0  0  0  0  0  0  0  0  0
   -5.6881   91.8695    7.7539 O   0  0  0  0  0  0  0  0  0  0  0  0
   -4.4466   89.8734    8.2104 C   0  0  2  0  0  0  0  0  0  0  0  0
   -4.0627   88.5975    7.6746 O   0  0  0  0  0  0  0  0  0  0  0  0
   -5.1299   89.7234    9.5721 C   0  0  0  0  0  0  0  0  0  0  0  0
   -5.4768   91.0372   10.1345 N   0  0  0  0  0  0  0  0  0  0  0  0
    0.0378   86.3594    8.1838 C   0  0  2  0  0  0  0  0  0  0  0  0
    1.0454   85.4401    8.7337 N   0  0  0  0  0  0  0  0  0  0  0  0
    0.3127   86.6471    6.7065 C   0  0  0  0  0  0  0  0  0  0  0  0
   -0.8377   87.4981    6.1593 C   0  0  2  0  0  0  0  0  0  0  0  0
   -0.5521   87.8606    4.7636 N   0  0  0  0  0  0  0  0  0  0  0  0
   -1.0315   88.7959    6.9489 C   0  0  2  0  0  0  0  0  0  0  0  0
   -1.0753   88.6194    8.4626 C   0  0  2  0  0  0  0  0  0  0  0  0
   -0.8677   89.9315    9.0097 O   0  0  0  0  0  0  0  0  0  0  0  0
    0.0305   87.6789    8.9597 C   0  0  1  0  0  0  0  0  0  0  0  0
   -0.1469   87.3714   10.3450 O   0  0  0  0  0  0  0  0  0  0  0  0
   -0.6323   89.9863   10.4260 C   0  0  1  0  0  0  0  0  0  0  0  0
   -0.3349   91.4421   10.7887 C   0  0  2  0  0  0  0  0  0  0  0  0
    1.0463   91.7244   10.5508 O   0  0  0  0  0  0  0  0  0  0  0  0
   -0.5882   91.3656   12.2915 C   0  0  1  0  0  0  0  0  0  0  0  0
   -1.8895   90.5793   12.3108 C   0  0  2  0  0  0  0  0  0  0  0  0
   -1.7921   89.6477   11.2138 O   0  0  0  0  0  0  0  0  0  0  0  0
   -3.0635   91.5490   12.1336 C   0  0  0  0  0  0  0  0  0  0  0  0
   -4.2812   90.9523   12.5891 O   0  0  0  0  0  0  0  0  0  0  0  0
    0.1727   90.4806   14.3254 C   0  0  2  0  0  0  0  0  0  0  0  0
    0.4552   90.6068   12.9233 O   0  0  0  0  0  0  0  0  0  0  0  0
    0.0374   91.8737   14.9483 C   0  0  1  0  0  0  0  0  0  0  0  0
    1.8544   88.4466   18.3944 N   0  0  0  0  0  0  0  0  0  0  0  0
   -0.1633   91.7646   16.4636 C   0  0  1  0  0  0  0  0  0  0  0  0
   -1.4393   91.1856   16.7548 O   0  0  0  0  0  0  0  0  0  0  0  0
    0.9485   90.9065   17.0735 C   0  0  2  0  0  0  0  0  0  0  0  0
    2.1953   91.5901   16.9071 O   0  0  0  0  0  0  0  0  0  0  0  0
    0.9953   89.5482   16.3655 C   0  0  1  0  0  0  0  0  0  0  0  0
    1.2293   89.7371   14.9576 O   0  0  0  0  0  0  0  0  0  0  0  0
    2.0805   88.6430   16.9549 C   0  0  0  0  0  0  0  0  0  0  0  0
    1.2764   92.6252   14.6968 N   0  0  0  0  0  0  0  0  0  0  0  0
  1  2  1  1  0  0  0
  1  3  1  0  0  0  0
  1 10  1  0  0  0  0
  3  4  1  6  0  0  0
  3  5  1  0  0  0  0
  5  6  1  6  0  0  0
  5  7  1  0  0  0  0
  7  8  1  1  0  0  0
  7  9  1  0  0  0  0
  9 10  1  0  0  0  0
  9 11  1  1  0  0  0
 11 12  1  0  0  0  0
 13 14  1  1  0  0  0
 13 15  1  0  0  0  0
 13 21  1  0  0  0  0
 16 15  1  0  0  0  0
 16 17  1  6  0  0  0
 18  2  1  6  0  0  0
 18 16  1  0  0  0  0
 19 18  1  0  0  0  0
 19 20  1  1  0  0  0
 21 19  1  0  0  0  0
 21 22  1  1  0  0  0
 23 20  1  6  0  0  0
 23 24  1  0  0  0  0
 23 28  1  0  0  0  0
 24 25  1  1  0  0  0
 24 26  1  0  0  0  0
 26 27  1  0  0  0  0
 26 32  1  1  0  0  0
 27 28  1  0  0  0  0
 27 29  1  6  0  0  0
 29 30  1  0  0  0  0
 31 32  1  6  0  0  0
 31 40  1  0  0  0  0
 33 31  1  0  0  0  0
 33 42  1  1  0  0  0
 35 33  1  0  0  0  0
 35 36  1  6  0  0  0
 37 35  1  0  0  0  0
 37 38  1  6  0  0  0
 37 39  1  0  0  0  0
 39 40  1  0  0  0  0
 39 41  1  1  0  0  0
 41 34  1  0  0  0  0
M  END
>  <CHROM.1>
-159.52877849,-60.87517975,53.70084477,-169.42613414,175.86874046,-177.02227451
-160.37248798,-57.53461835,57.68384267,-1.41385181,89.81862678,10.61866078
-2.05744672,-0.58194482,1.15643753

>  <Name>
2fcy_lig

>  <RI>
2.32494e+07

>  <Rbt.Current_Directory>
/home/itssahil/PROJECTS/Mol_Feturizer/New_Systems/rnas/2fcy

>  <Rbt.Executable>
rbdock ($Id: //depot/dev/client3/rdock/2013.1/src/exe/rbdock.cxx#4 $)

>  <Rbt.Library>
libRbt.so (2013.1, Build901 2013/11/27)

>  <Rbt.Parameter_File>
/export/apps/rDock/src/rDock_2013.1_src/data/scripts/dock_solv.prm

>  <Rbt.Receptor>
prm/pocket_docking_8.prm

>  <SCORE>
-19.8263

>  <SCORE.INTER>
-19.4189

>  <SCORE.INTER.CONST>
1

>  <SCORE.INTER.POLAR>
-2.7486

>  <SCORE.INTER.ROT>
9

>  <SCORE.INTER.SOLV>
14.2101

>  <SCORE.INTER.VDW>
-18.1207

>  <SCORE.INTER.norm>
-0.462355

>  <SCORE.INTRA>
-0.407366

>  <SCORE.INTRA.DIHEDRAL>
-12.665

>  <SCORE.INTRA.DIHEDRAL.0>
17.3446

>  <SCORE.INTRA.POLAR>
0

>  <SCORE.INTRA.POLAR.0>
0

>  <SCORE.INTRA.REPUL>
0

>  <SCORE.INTRA.REPUL.0>
0

>  <SCORE.INTRA.SOLV>
1.11849

>  <SCORE.INTRA.SOLV.lig_0>
-112.452

>  <SCORE.INTRA.VDW>
5.36591

>  <SCORE.INTRA.VDW.0>
-5.95059

>  <SCORE.INTRA.norm>
-0.00969919

>  <SCORE.RESTR>
0

>  <SCORE.RESTR.CAVITY>
0

>  <SCORE.RESTR.norm>
0

>  <SCORE.SYSTEM>
0

>  <SCORE.SYSTEM.CONST>
0

>  <SCORE.SYSTEM.DIHEDRAL>
0

>  <SCORE.SYSTEM.SOLV>
0

>  <SCORE.SYSTEM.norm>
0

>  <SCORE.heavy>
42

>  <SCORE.norm>
-0.472054

>  <RMSD>
9.499

$$$$
2fcy_lig
 OpenBabel11021811433D
libRbt.so/2013.1/901 2013/11/27
 42 45  0  0  0  0  0  0  0  0999 V2000
   -0.3531   91.9900    8.4152 C   0  0  2  0  0  0  0  0  0  0  0  0
   -1.5773   92.3894    9.0547 O   0  0  0  0  0  0  0  0  0  0  0  0
    0.1225   93.2204    7.6412 C   0  0  2  0  0  0  0  0  0  0  0  0
    0.2159   94.3545    8.5706 N   0  0  0  0  0  0  0  0  0  0  0  0
   -0.8835   93.5503    6.5356 C   0  0  1  0  0  0  0  0  0  0  0  0
   -0.4575   94.6968    5.7940 O   0  0  0  0  0  0  0  0  0  0  0  0
   -1.0361   92.3414    5.6120 C   0  0  2  0  0  0  0  0  0  0  0  0
   -2.0447   92.6164    4.6400 O   0  0  0  0  0  0  0  0  0  0  0  0
   -1.4914   91.1409    6.4431 C   0  0  2  0  0  0  0  0  0  0  0  0
   -0.5431   90.8969    7.4935 O   0  0  0  0  0  0  0  0  0  0  0  0
   -1.6382   89.9209    5.5300 C   0  0  0  0  0  0  0  0  0  0  0  0
   -2.7602   90.0949    4.5955 N   0  0  0  0  0  0  0  0  0  0  0  0
   -4.1085   90.7778   11.9944 C   0  0  2  0  0  0  0  0  0  0  0  0
   -4.7631   90.0735   13.1073 N   0  0  0  0  0  0  0  0  0  0  0  0
   -3.4788   89.7834   11.0169 C   0  0  0  0  0  0  0  0  0  0  0  0
   -2.9320   90.5663    9.8189 C   0  0  2  0  0  0  0  0  0  0  0  0
   -2.2444   89.6407    8.9071 N   0  0  0  0  0  0  0  0  0  0  0  0
   -1.9275   91.6449   10.2348 C   0  0  2  0  0  0  0  0  0  0  0  0
   -2.3899   92.5370   11.3815 C   0  0  2  0  0  0  0  0  0  0  0  0
   -1.2042   93.1882   11.8653 O   0  0  0  0  0  0  0  0  0  0  0  0
   -3.0244   91.7234   12.5173 C   0  0  1  0  0  0  0  0  0  0  0  0
   -3.6256   92.5855   13.4870 O   0  0  0  0  0  0  0  0  0  0  0  0
   -0.5105   92.5119   12.9262 C   0  0  1  0  0  0  0  0  0  0  0  0
    0.7268   91.8481   12.3194 C   0  0  2  0  0  0  0  0  0  0  0  0
    0.3664   90.5856   11.7537 O   0  0  0  0  0  0  0  0  0  0  0  0
    1.5244   91.6236   13.6008 C   0  0  1  0  0  0  0  0  0  0  0  0
    1.3475   92.9753   14.2745 C   0  0  2  0  0  0  0  0  0  0  0  0
    0.0146   93.4054   13.9294 O   0  0  0  0  0  0  0  0  0  0  0  0
    2.4139   93.9417   13.7463 C   0  0  0  0  0  0  0  0  0  0  0  0
    2.1765   94.2479   12.3692 O   0  0  0  0  0  0  0  0  0  0  0  0
    1.4347   90.6263   15.7211 C   0  0  2  0  0  0  0  0  0  0  0  0
    0.9022   90.5957   14.3881 O   0  0  0  0  0  0  0  0  0  0  0  0
    2.7092   89.7784   15.7835 C   0  0  1  0  0  0  0  0  0  0  0  0
    0.1660   89.9452   20.3439 N   0  0  0  0  0  0  0  0  0  0  0  0
    3.2385   89.7138   17.2202 C   0  0  1  0  0  0  0  0  0  0  0  0
    3.7177   90.9983   17.6308 O   0  0  0  0  0  0  0  0  0  0  0  0
    2.1250   89.2486   18.1626 C   0  0  2  0  0  0  0  0  0  0  0  0
    1.7782   87.9005   17.8281 O   0  0  0  0  0  0  0  0  0  0  0  0
    0.9037   90.1604   18.0035 C   0  0  1  0  0  0  0  0  0  0  0  0
    0.4444   90.1310   16.6393 O   0  0  0  0  0  0  0  0  0  0  0  0
   -0.2332   89.7480   18.9426 C   0  0  0  0  0  0  0  0  0  0  0  0
    2.3885   88.4118   15.3447 N   0  0  0  0  0  0  0  0  0  0  0  0
  1  2  1  6  0  0  0
  1  3  1  0  0  0  0
  1 10  1  0  0  0  0
  3  4  1  1  0  0  0
  3  5  1  0  0  0  0
  5  6  1  6  0  0  0
  5  7  1  0  0  0  0
  7  8  1  6  0  0  0
  7  9  1  0  0  0  0
  9 10  1  0  0  0  0
  9 11  1  6  0  0  0
 11 12  1  0  0  0  0
 13 14  1  1  0  0  0
 13 15  1  0  0  0  0
 13 21  1  0  0  0  0
 16 15  1  0  0  0  0
 16 17  1  6  0  0  0
 18  2  1  6  0  0  0
 18 16  1  0  0  0  0
 19 18  1  0  0  0  0
 19 20  1  1  0  0  0
 21 19  1  0  0  0  0
 21 22  1  1  0  0  0
 23 20  1  6  0  0  0
 23 24  1  0  0  0  0
 23 28  1  0  0  0  0
 24 25  1  1  0  0  0
 24 26  1  0  0  0  0
 26 27  1  0  0  0  0
 26 32  1  1  0  0  0
 27 28  1  0  0  0  0
 27 29  1  6  0  0  0
 29 30  1  0  0  0  0
 31 32  1  6  0  0  0
 31 40  1  0  0  0  0
 33 31  1  0  0  0  0
 33 42  1  1  0  0  0
 35 33  1  0  0  0  0
 35 36  1  1  0  0  0
 37 35  1  0  0  0  0
 37 38  1  6  0  0  0
 37 39  1  0  0  0  0
 39 40  1  0  0  0  0
 39 41  1  1  0  0  0
 41 34  1  0  0  0  0
M  END
>  <CHROM.1>
-155.58685473,-68.07774920,-97.52784842,-91.13387849,103.89879238,-165.14907804
67.98344104,-86.55756069,65.39560897,-0.33406352,91.40210790,12.03920773
-1.88772029,0.48070179,1.90338363

>  <Name>
2fcy_lig

>  <RI>
4.13508e+07

>  <Rbt.Current_Directory>
/home/itssahil/PROJECTS/Mol_Feturizer/New_Systems/rnas/2fcy

>  <Rbt.Executable>
rbdock ($Id: //depot/dev/client3/rdock/2013.1/src/exe/rbdock.cxx#4 $)

>  <Rbt.Library>
libRbt.so (2013.1, Build901 2013/11/27)

>  <Rbt.Parameter_File>
/export/apps/rDock/src/rDock_2013.1_src/data/scripts/dock_solv.prm

>  <Rbt.Receptor>
prm/pocket_docking_3.prm

>  <SCORE>
4.84676

>  <SCORE.INTER>
-3.00016

>  <SCORE.INTER.CONST>
1

>  <SCORE.INTER.POLAR>
-0.666574

>  <SCORE.INTER.ROT>
9

>  <SCORE.INTER.SOLV>
20.1142

>  <SCORE.INTER.VDW>
-16.0829

>  <SCORE.INTER.norm>
-0.0714323

>  <SCORE.INTRA>
7.82532

>  <SCORE.INTRA.DIHEDRAL>
4.71713

>  <SCORE.INTRA.DIHEDRAL.0>
17.3446

>  <SCORE.INTRA.POLAR>
0

>  <SCORE.INTRA.POLAR.0>
0

>  <SCORE.INTRA.REPUL>
0.0332987

>  <SCORE.INTRA.REPUL.0>
0

>  <SCORE.INTRA.SOLV>
0.588101

>  <SCORE.INTRA.SOLV.lig_0>
-112.452

>  <SCORE.INTRA.VDW>
5.00621

>  <SCORE.INTRA.VDW.0>
-5.95059

>  <SCORE.INTRA.norm>
0.186317

>  <SCORE.RESTR>
0.0215916

>  <SCORE.RESTR.CAVITY>
0.0215916

>  <SCORE.RESTR.norm>
0.000514085

>  <SCORE.SYSTEM>
0

>  <SCORE.SYSTEM.CONST>
0

>  <SCORE.SYSTEM.DIHEDRAL>
0

>  <SCORE.SYSTEM.SOLV>
0

>  <SCORE.SYSTEM.norm>
0

>  <SCORE.heavy>
42

>  <SCORE.norm>
0.115399

>  <RMSD>
9.568

$$$$
2fcy_lig
 OpenBabel11021811433D
libRbt.so/2013.1/901 2013/11/27
 42 45  0  0  0  0  0  0  0  0999 V2000
   -1.4981   94.0272    7.2828 C   0  0  2  0  0  0  0  0  0  0  0  0
   -1.8215   92.9455    8.1731 O   0  0  0  0  0  0  0  0  0  0  0  0
   -2.2302   95.2479    7.8422 C   0  0  2  0  0  0  0  0  0  0  0  0
   -1.8423   95.4266    9.2480 N   0  0  0  0  0  0  0  0  0  0  0  0
   -3.7418   95.0225    7.7562 C   0  0  1  0  0  0  0  0  0  0  0  0
   -4.4490   96.1544    8.2704 O   0  0  0  0  0  0  0  0  0  0  0  0
   -4.1334   94.7619    6.3013 C   0  0  2  0  0  0  0  0  0  0  0  0
   -5.5264   94.4566    6.2367 O   0  0  0  0  0  0  0  0  0  0  0  0
   -3.3564   93.5469    5.7921 C   0  0  2  0  0  0  0  0  0  0  0  0
   -1.9472   93.7846    5.9338 O   0  0  0  0  0  0  0  0  0  0  0  0
   -3.7331   93.2820    4.3321 C   0  0  0  0  0  0  0  0  0  0  0  0
   -3.4366   94.4518    3.4916 N   0  0  0  0  0  0  0  0  0  0  0  0
    0.1445   89.2494    8.5199 C   0  0  2  0  0  0  0  0  0  0  0  0
    1.0623   88.1134    8.6929 N   0  0  0  0  0  0  0  0  0  0  0  0
    0.6371   90.1827    7.4121 C   0  0  0  0  0  0  0  0  0  0  0  0
   -0.4219   91.2672    7.1896 C   0  0  2  0  0  0  0  0  0  0  0  0
    0.0687   92.2268    6.1899 N   0  0  0  0  0  0  0  0  0  0  0  0
   -0.7383   92.0464    8.4695 C   0  0  2  0  0  0  0  0  0  0  0  0
   -1.0085   91.1778    9.6930 C   0  0  2  0  0  0  0  0  0  0  0  0
   -0.8916   92.0572   10.8232 O   0  0  0  0  0  0  0  0  0  0  0  0
    0.0145   90.0415    9.8232 C   0  0  1  0  0  0  0  0  0  0  0  0
   -0.3678   89.1278   10.8548 O   0  0  0  0  0  0  0  0  0  0  0  0
   -1.1264   91.4566   12.1071 C   0  0  1  0  0  0  0  0  0  0  0  0
   -0.7459   92.4843   13.1741 C   0  0  2  0  0  0  0  0  0  0  0  0
    0.6631   92.4329   13.4105 O   0  0  0  0  0  0  0  0  0  0  0  0
   -1.4847   91.8738   14.3615 C   0  0  1  0  0  0  0  0  0  0  0  0
   -2.8245   91.5554   13.7168 C   0  0  2  0  0  0  0  0  0  0  0  0
   -2.5171   91.1706   12.3611 O   0  0  0  0  0  0  0  0  0  0  0  0
   -3.7143   92.8028   13.7682 C   0  0  0  0  0  0  0  0  0  0  0  0
   -4.0072   93.1554   15.1233 O   0  0  0  0  0  0  0  0  0  0  0  0
   -0.1652   90.8730   16.0216 C   0  0  2  0  0  0  0  0  0  0  0  0
   -0.8332   90.6600   14.7687 O   0  0  0  0  0  0  0  0  0  0  0  0
    1.2839   91.2981   15.7639 C   0  0  1  0  0  0  0  0  0  0  0  0
    0.7799   88.7170   20.2583 N   0  0  0  0  0  0  0  0  0  0  0  0
    2.0450   91.4324   17.0872 C   0  0  1  0  0  0  0  0  0  0  0  0
    1.5411   92.5408   17.8393 O   0  0  0  0  0  0  0  0  0  0  0  0
    1.9014   90.1435   17.9011 C   0  0  2  0  0  0  0  0  0  0  0  0
    2.5563   89.0836   17.1958 O   0  0  0  0  0  0  0  0  0  0  0  0
    0.4159   89.8143   18.0831 C   0  0  1  0  0  0  0  0  0  0  0  0
   -0.2137   89.6626   16.7973 O   0  0  0  0  0  0  0  0  0  0  0  0
    0.2183   88.5414   18.9108 C   0  0  0  0  0  0  0  0  0  0  0  0
    1.9420   90.2630   14.9525 N   0  0  0  0  0  0  0  0  0  0  0  0
  1  2  1  1  0  0  0
  1  3  1  0  0  0  0
  1 10  1  0  0  0  0
  3  4  1  1  0  0  0
  3  5  1  0  0  0  0
  5  6  1  6  0  0  0
  5  7  1  0  0  0  0
  7  8  1  1  0  0  0
  7  9  1  0  0  0  0
  9 10  1  0  0  0  0
  9 11  1  6  0  0  0
 11 12  1  0  0  0  0
 13 14  1  1  0  0  0
 13 15  1  0  0  0  0
 13 21  1  0  0  0  0
 16 15  1  0  0  0  0
 16 17  1  6  0  0  0
 18  2  1  6  0  0  0
 18 16  1  0  0  0  0
 19 18  1  0  0  0  0
 19 20  1  1  0  0  0
 21 19  1  0  0  0  0
 21 22  1  1  0  0  0
 23 20  1  6  0  0  0
 23 24  1  0  0  0  0
 23 28  1  0  0  0  0
 24 25  1  1  0  0  0
 24 26  1  0  0  0  0
 26 27  1  0  0  0  0
 26 32  1  6  0  0  0
 27 28  1  0  0  0  0
 27 29  1  6  0  0  0
 29 30  1  0  0  0  0
 31 32  1  6  0  0  0
 31 40  1  0  0  0  0
 33 31  1  0  0  0  0
 33 42  1  6  0  0  0
 35 33  1  0  0  0  0
 35 36  1  1  0  0  0
 37 35  1  0  0  0  0
 37 38  1  6  0  0  0
 37 39  1  0  0  0  0
 39 40  1  0  0  0  0
 39 41  1  1  0  0  0
 41 34  1  0  0  0  0
M  END
>  <CHROM.1>
-140.27409902,58.75253517,-68.88661456,179.18173520,171.37957640,108.49983418
-64.02718477,-92.28130011,61.61341286,-1.05373312,91.87717765,11.50520619
-2.00229279,-0.80396642,1.56090251

>  <Name>
2fcy_lig

>  <RI>
1.56845e+07

>  <Rbt.Current_Directory>
/home/itssahil/PROJECTS/Mol_Feturizer/New_Systems/rnas/2fcy

>  <Rbt.Executable>
rbdock ($Id: //depot/dev/client3/rdock/2013.1/src/exe/rbdock.cxx#4 $)

>  <Rbt.Library>
libRbt.so (2013.1, Build901 2013/11/27)

>  <Rbt.Parameter_File>
/export/apps/rDock/src/rDock_2013.1_src/data/scripts/dock_solv.prm

>  <Rbt.Receptor>
prm/pocket_docking_4.prm

>  <SCORE>
-5.85905

>  <SCORE.INTER>
-10.2656

>  <SCORE.INTER.CONST>
1

>  <SCORE.INTER.POLAR>
-0.944128

>  <SCORE.INTER.ROT>
9

>  <SCORE.INTER.SOLV>
14.8265

>  <SCORE.INTER.VDW>
-18.2388

>  <SCORE.INTER.norm>
-0.244419

>  <SCORE.INTRA>
4.40657

>  <SCORE.INTRA.DIHEDRAL>
-0.576962

>  <SCORE.INTRA.DIHEDRAL.0>
17.3446

>  <SCORE.INTRA.POLAR>
0

>  <SCORE.INTRA.POLAR.0>
0

>  <SCORE.INTRA.REPUL>
0

>  <SCORE.INTRA.REPUL.0>
0

>  <SCORE.INTRA.SOLV>
0.310343

>  <SCORE.INTRA.SOLV.lig_0>
-112.452

>  <SCORE.INTRA.VDW>
4.53988

>  <SCORE.INTRA.VDW.0>
-5.95059

>  <SCORE.INTRA.norm>
0.104918

>  <SCORE.RESTR>
0

>  <SCORE.RESTR.CAVITY>
0

>  <SCORE.RESTR.norm>
0

>  <SCORE.SYSTEM>
0

>  <SCORE.SYSTEM.CONST>
0

>  <SCORE.SYSTEM.DIHEDRAL>
0

>  <SCORE.SYSTEM.SOLV>
0

>  <SCORE.SYSTEM.norm>
0

>  <SCORE.heavy>
42

>  <SCORE.norm>
-0.139501

>  <RMSD>
9.584

$$$$
2fcy_lig
 OpenBabel11021811433D
libRbt.so/2013.1/901 2013/11/27
 42 45  0  0  0  0  0  0  0  0999 V2000
   -0.1565   91.5911    5.9143 C   0  0  2  0  0  0  0  0  0  0  0  0
   -1.0213   91.0421    6.9232 O   0  0  0  0  0  0  0  0  0  0  0  0
    0.8719   92.4315    6.6728 C   0  0  2  0  0  0  0  0  0  0  0  0
    1.5144   91.5862    7.6883 N   0  0  0  0  0  0  0  0  0  0  0  0
    0.1684   93.6053    7.3589 C   0  0  1  0  0  0  0  0  0  0  0  0
    1.1119   94.4095    8.0722 O   0  0  0  0  0  0  0  0  0  0  0  0
   -0.5627   94.4420    6.3085 C   0  0  2  0  0  0  0  0  0  0  0  0
   -1.2964   95.4786    6.9603 O   0  0  0  0  0  0  0  0  0  0  0  0
   -1.5589   93.5460    5.5710 C   0  0  2  0  0  0  0  0  0  0  0  0
   -0.8623   92.4364    4.9828 O   0  0  0  0  0  0  0  0  0  0  0  0
   -2.2905   94.3711    4.5091 C   0  0  0  0  0  0  0  0  0  0  0  0
   -3.3824   93.5964    3.9007 N   0  0  0  0  0  0  0  0  0  0  0  0
   -3.4539   87.6173    6.9368 C   0  0  2  0  0  0  0  0  0  0  0  0
   -4.0814   86.2922    6.8227 N   0  0  0  0  0  0  0  0  0  0  0  0
   -2.9902   88.1191    5.5679 C   0  0  0  0  0  0  0  0  0  0  0  0
   -2.4693   89.5507    5.7307 C   0  0  2  0  0  0  0  0  0  0  0  0
   -1.9371   90.0229    4.4443 N   0  0  0  0  0  0  0  0  0  0  0  0
   -1.3451   89.6493    6.7660 C   0  0  2  0  0  0  0  0  0  0  0  0
   -1.6387   88.9569    8.0922 C   0  0  2  0  0  0  0  0  0  0  0  0
   -0.3669   88.8237    8.7471 O   0  0  0  0  0  0  0  0  0  0  0  0
   -2.2542   87.5664    7.8860 C   0  0  1  0  0  0  0  0  0  0  0  0
   -2.7018   87.0182    9.1287 O   0  0  0  0  0  0  0  0  0  0  0  0
   -0.3561   89.1185   10.1533 C   0  0  1  0  0  0  0  0  0  0  0  0
   -0.4642   90.6364   10.3077 C   0  0  2  0  0  0  0  0  0  0  0  0
    0.8313   91.2265   10.1765 O   0  0  0  0  0  0  0  0  0  0  0  0
   -0.9046   90.6926   11.7676 C   0  0  1  0  0  0  0  0  0  0  0  0
   -1.9737   89.6114   11.7735 C   0  0  2  0  0  0  0  0  0  0  0  0
   -1.5042   88.6015   10.8568 O   0  0  0  0  0  0  0  0  0  0  0  0
   -3.3050   90.2205   11.3188 C   0  0  0  0  0  0  0  0  0  0  0  0
   -3.7178   91.2539   12.2178 O   0  0  0  0  0  0  0  0  0  0  0  0
   -0.2248   90.4038   13.9931 C   0  0  2  0  0  0  0  0  0  0  0  0
    0.1864   90.3113   12.6206 O   0  0  0  0  0  0  0  0  0  0  0  0
   -0.4756   91.8712   14.3550 C   0  0  1  0  0  0  0  0  0  0  0  0
    1.1225   89.1461   18.4783 N   0  0  0  0  0  0  0  0  0  0  0  0
   -0.8171   92.0039   15.8431 C   0  0  1  0  0  0  0  0  0  0  0  0
   -2.0909   91.4107   16.1148 O   0  0  0  0  0  0  0  0  0  0  0  0
    0.2643   91.3226   16.6861 C   0  0  2  0  0  0  0  0  0  0  0  0
    1.4927   92.0379   16.5164 O   0  0  0  0  0  0  0  0  0  0  0  0
    0.4340   89.8704   16.2269 C   0  0  1  0  0  0  0  0  0  0  0  0
    0.7950   89.8360   14.8336 O   0  0  0  0  0  0  0  0  0  0  0  0
    1.4927   89.1377   17.0554 C   0  0  0  0  0  0  0  0  0  0  0  0
    0.7506   92.6387   14.0897 N   0  0  0  0  0  0  0  0  0  0  0  0
  1  2  1  1  0  0  0
  1  3  1  0  0  0  0
  1 10  1  0  0  0  0
  3  4  1  1  0  0  0
  3  5  1  0  0  0  0
  5  6  1  6  0  0  0
  5  7  1  0  0  0  0
  7  8  1  1  0  0  0
  7  9  1  0  0  0  0
  9 10  1  0  0  0  0
  9 11  1  6  0  0  0
 11 12  1  0  0  0  0
 13 14  1  6  0  0  0
 13 15  1  0  0  0  0
 13 21  1  0  0  0  0
 16 15  1  0  0  0  0
 16 17  1  6  0  0  0
 18  2  1  1  0  0  0
 18 16  1  0  0  0  0
 19 18  1  0  0  0  0
 19 20  1  6  0  0  0
 21 19  1  0  0  0  0
 21 22  1  1  0  0  0
 23 20  1  6  0  0  0
 23 24  1  0  0  0  0
 23 28  1  0  0  0  0
 24 25  1  1  0  0  0
 24 26  1  0  0  0  0
 26 27  1  0  0  0  0
 26 32  1  1  0  0  0
 27 28  1  0  0  0  0
 27 29  1  6  0  0  0
 29 30  1  0  0  0  0
 31 32  1  6  0  0  0
 31 40  1  0  0  0  0
 33 31  1  0  0  0  0
 33 42  1  1  0  0  0
 35 33  1  0  0  0  0
 35 36  1  6  0  0  0
 37 35  1  0  0  0  0
 37 38  1  6  0  0  0
 37 39  1  0  0  0  0
 39 40  1  0  0  0  0
 39 41  1  1  0  0  0
 41 34  1  0  0  0  0
M  END
>  <CHROM.1>
-135.71253438,-172.37026225,-80.82891835,137.53690347,-73.80987015,178.35927866
-61.43105826,-66.82482555,58.87006607,-0.92403608,90.81055639,10.03866514
-2.01259157,1.13967111,2.06404458

>  <Name>
2fcy_lig

>  <RI>
2.32494e+07

>  <Rbt.Current_Directory>
/home/itssahil/PROJECTS/Mol_Feturizer/New_Systems/rnas/2fcy

>  <Rbt.Executable>
rbdock ($Id: //depot/dev/client3/rdock/2013.1/src/exe/rbdock.cxx#4 $)

>  <Rbt.Library>
libRbt.so (2013.1, Build901 2013/11/27)

>  <Rbt.Parameter_File>
/export/apps/rDock/src/rDock_2013.1_src/data/scripts/dock_solv.prm

>  <Rbt.Receptor>
prm/pocket_docking_8.prm

>  <SCORE>
-25.794

>  <SCORE.INTER>
-27.8359

>  <SCORE.INTER.CONST>
1

>  <SCORE.INTER.POLAR>
-3.65815

>  <SCORE.INTER.ROT>
9

>  <SCORE.INTER.SOLV>
18.5464

>  <SCORE.INTER.VDW>
-22.1456

>  <SCORE.INTER.norm>
-0.662759

>  <SCORE.INTRA>
2.04189

>  <SCORE.INTRA.DIHEDRAL>
-1.66576

>  <SCORE.INTRA.DIHEDRAL.0>
17.3446

>  <SCORE.INTRA.POLAR>
0

>  <SCORE.INTRA.POLAR.0>
0

>  <SCORE.INTRA.REPUL>
0

>  <SCORE.INTRA.REPUL.0>
0

>  <SCORE.INTRA.SOLV>
1.53009

>  <SCORE.INTRA.SOLV.lig_0>
-112.452

>  <SCORE.INTRA.VDW>
2.10973

>  <SCORE.INTRA.VDW.0>
-5.95059

>  <SCORE.INTRA.norm>
0.0486165

>  <SCORE.RESTR>
0

>  <SCORE.RESTR.CAVITY>
0

>  <SCORE.RESTR.norm>
0

>  <SCORE.SYSTEM>
0

>  <SCORE.SYSTEM.CONST>
0

>  <SCORE.SYSTEM.DIHEDRAL>
0

>  <SCORE.SYSTEM.SOLV>
0

>  <SCORE.SYSTEM.norm>
0

>  <SCORE.heavy>
42

>  <SCORE.norm>
-0.614143

>  <RMSD>
9.596

$$$$
2fcy_lig
 OpenBabel11021811433D
libRbt.so/2013.1/901 2013/11/27
 42 45  0  0  0  0  0  0  0  0999 V2000
   -1.6484   91.9099    4.6973 C   0  0  2  0  0  0  0  0  0  0  0  0
   -1.9523   90.8568    5.6279 O   0  0  0  0  0  0  0  0  0  0  0  0
   -2.9755   92.2466    4.0157 C   0  0  2  0  0  0  0  0  0  0  0  0
   -3.9699   92.5619    5.0504 N   0  0  0  0  0  0  0  0  0  0  0  0
   -3.4532   91.0416    3.2014 C   0  0  1  0  0  0  0  0  0  0  0  0
   -4.6926   91.3344    2.5502 O   0  0  0  0  0  0  0  0  0  0  0  0
   -2.3838   90.6677    2.1746 C   0  0  2  0  0  0  0  0  0  0  0  0
   -2.7886   89.4865    1.4828 O   0  0  0  0  0  0  0  0  0  0  0  0
   -1.0785   90.3634    2.9113 C   0  0  2  0  0  0  0  0  0  0  0  0
   -0.6933   91.5029    3.6960 O   0  0  0  0  0  0  0  0  0  0  0  0
    0.0034   89.9971    1.8920 C   0  0  0  0  0  0  0  0  0  0  0  0
   -0.2461   88.6679    1.3144 N   0  0  0  0  0  0  0  0  0  0  0  0
   -0.2774   89.5297    9.2446 C   0  0  2  0  0  0  0  0  0  0  0  0
    0.5555   89.0855   10.3724 N   0  0  0  0  0  0  0  0  0  0  0  0
   -0.0629   88.6326    8.0239 C   0  0  0  0  0  0  0  0  0  0  0  0
   -1.0490   89.0608    6.9323 C   0  0  2  0  0  0  0  0  0  0  0  0
   -0.8023   88.2700    5.7180 N   0  0  0  0  0  0  0  0  0  0  0  0
   -0.9063   90.5403    6.5635 C   0  0  2  0  0  0  0  0  0  0  0  0
   -0.8694   91.4922    7.7539 C   0  0  2  0  0  0  0  0  0  0  0  0
   -0.3510   92.7302    7.2413 O   0  0  0  0  0  0  0  0  0  0  0  0
    0.0507   90.9767    8.8684 C   0  0  1  0  0  0  0  0  0  0  0  0
   -0.0799   91.7760   10.0471 O   0  0  0  0  0  0  0  0  0  0  0  0
   -0.4540   93.8611    8.1214 C   0  0  1  0  0  0  0  0  0  0  0  0
    0.0471   95.0879    7.3576 C   0  0  2  0  0  0  0  0  0  0  0  0
    1.4726   95.1566    7.4402 O   0  0  0  0  0  0  0  0  0  0  0  0
   -0.5674   96.1762    8.2332 C   0  0  1  0  0  0  0  0  0  0  0  0
   -1.9710   95.6207    8.4167 C   0  0  2  0  0  0  0  0  0  0  0  0
   -1.8125   94.1883    8.4786 O   0  0  0  0  0  0  0  0  0  0  0  0
   -2.8385   96.0482    7.2272 C   0  0  0  0  0  0  0  0  0  0  0  0
   -4.1935   95.6312    7.4182 O   0  0  0  0  0  0  0  0  0  0  0  0
   -0.1797   97.4712   10.1492 C   0  0  2  0  0  0  0  0  0  0  0  0
    0.1121   96.2254    9.4978 O   0  0  0  0  0  0  0  0  0  0  0  0
    0.2795   98.6330    9.2623 C   0  0  1  0  0  0  0  0  0  0  0  0
    0.3749   97.4361   14.2416 N   0  0  0  0  0  0  0  0  0  0  0  0
    0.0707   99.9698    9.9819 C   0  0  1  0  0  0  0  0  0  0  0  0
   -1.3268  100.2427   10.1264 O   0  0  0  0  0  0  0  0  0  0  0  0
    0.7372   99.9267   11.3597 C   0  0  2  0  0  0  0  0  0  0  0  0
    2.1527   99.8140   11.1780 O   0  0  0  0  0  0  0  0  0  0  0  0
    0.2108   98.7220   12.1470 C   0  0  1  0  0  0  0  0  0  0  0  0
    0.4842   97.5070   11.4247 O   0  0  0  0  0  0  0  0  0  0  0  0
    0.8333   98.6464   13.5438 C   0  0  0  0  0  0  0  0  0  0  0  0
    1.7148   98.4749    8.9834 N   0  0  0  0  0  0  0  0  0  0  0  0
  1  2  1  1  0  0  0
  1  3  1  0  0  0  0
  1 10  1  0  0  0  0
  3  4  1  1  0  0  0
  3  5  1  0  0  0  0
  5  6  1  6  0  0  0
  5  7  1  0  0  0  0
  7  8  1  1  0  0  0
  7  9  1  0  0  0  0
  9 10  1  0  0  0  0
  9 11  1  6  0  0  0
 11 12  1  0  0  0  0
 13 14  1  1  0  0  0
 13 15  1  0  0  0  0
 13 21  1  0  0  0  0
 16 15  1  0  0  0  0
 16 17  1  6  0  0  0
 18  2  1  6  0  0  0
 18 16  1  0  0  0  0
 19 18  1  0  0  0  0
 19 20  1  6  0  0  0
 21 19  1  0  0  0  0
 21 22  1  1  0  0  0
 23 20  1  6  0  0  0
 23 24  1  0  0  0  0
 23 28  1  0  0  0  0
 24 25  1  1  0  0  0
 24 26  1  0  0  0  0
 26 27  1  0  0  0  0
 26 32  1  1  0  0  0
 27 28  1  0  0  0  0
 27 29  1  6  0  0  0
 29 30  1  0  0  0  0
 31 32  1  6  0  0  0
 31 40  1  0  0  0  0
 33 31  1  0  0  0  0
 33 42  1  1  0  0  0
 35 33  1  0  0  0  0
 35 36  1  1  0  0  0
 37 35  1  0  0  0  0
 37 38  1  6  0  0  0
 37 39  1  0  0  0  0
 39 40  1  0  0  0  0
 39 41  1  1  0  0  0
 41 34  1  0  0  0  0
M  END
>  <CHROM.1>
-169.04134146,-72.01131667,-151.06302182,168.87650907,-175.69269290,162.93973109
-175.47231491,-59.33210988,-176.42072130,-0.83062470,93.77397379,7.47326928
2.02100551,1.12912182,-2.84741047

>  <Name>
2fcy_lig

>  <RI>
2.89127e+07

>  <Rbt.Current_Directory>
/home/itssahil/PROJECTS/Mol_Feturizer/New_Systems/rnas/2fcy

>  <Rbt.Executable>
rbdock ($Id: //depot/dev/client3/rdock/2013.1/src/exe/rbdock.cxx#4 $)

>  <Rbt.Library>
libRbt.so (2013.1, Build901 2013/11/27)

>  <Rbt.Parameter_File>
/export/apps/rDock/src/rDock_2013.1_src/data/scripts/dock_solv.prm

>  <Rbt.Receptor>
prm/pocket_docking_7.prm

>  <SCORE>
-21.4657

>  <SCORE.INTER>
-17.6539

>  <SCORE.INTER.CONST>
1

>  <SCORE.INTER.POLAR>
-2.71105

>  <SCORE.INTER.ROT>
9

>  <SCORE.INTER.SOLV>
21.4449

>  <SCORE.INTER.VDW>
-19.4808

>  <SCORE.INTER.norm>
-0.420332

>  <SCORE.INTRA>
-3.81175

>  <SCORE.INTRA.DIHEDRAL>
-10.3603

>  <SCORE.INTRA.DIHEDRAL.0>
17.3446

>  <SCORE.INTRA.POLAR>
0

>  <SCORE.INTRA.POLAR.0>
0

>  <SCORE.INTRA.REPUL>
0

>  <SCORE.INTRA.REPUL.0>
0

>  <SCORE.INTRA.SOLV>
-2.4113

>  <SCORE.INTRA.SOLV.lig_0>
-112.452

>  <SCORE.INTRA.VDW>
2.57407

>  <SCORE.INTRA.VDW.0>
-5.95059

>  <SCORE.INTRA.norm>
-0.0907559

>  <SCORE.RESTR>
0

>  <SCORE.RESTR.CAVITY>
0

>  <SCORE.RESTR.norm>
0

>  <SCORE.SYSTEM>
0

>  <SCORE.SYSTEM.CONST>
0

>  <SCORE.SYSTEM.DIHEDRAL>
0

>  <SCORE.SYSTEM.SOLV>
0

>  <SCORE.SYSTEM.norm>
0

>  <SCORE.heavy>
42

>  <SCORE.norm>
-0.511088

>  <RMSD>
9.612

$$$$
2fcy_lig
 OpenBabel11021811433D
libRbt.so/2013.1/901 2013/11/27
 42 45  0  0  0  0  0  0  0  0999 V2000
   -3.7503   92.8504    7.7934 C   0  0  2  0  0  0  0  0  0  0  0  0
   -3.4027   91.9436    8.8536 O   0  0  0  0  0  0  0  0  0  0  0  0
   -4.5639   93.9617    8.4583 C   0  0  2  0  0  0  0  0  0  0  0  0
   -3.7762   94.5260    9.5627 N   0  0  0  0  0  0  0  0  0  0  0  0
   -5.8692   93.3816    9.0088 C   0  0  1  0  0  0  0  0  0  0  0  0
   -6.6504   94.4045    9.6325 O   0  0  0  0  0  0  0  0  0  0  0  0
   -6.6532   92.7280    7.8704 C   0  0  2  0  0  0  0  0  0  0  0  0
   -7.8220   92.1041    8.4018 O   0  0  0  0  0  0  0  0  0  0  0  0
   -5.7837   91.6434    7.2326 C   0  0  2  0  0  0  0  0  0  0  0  0
   -4.5533   92.2237    6.7722 O   0  0  0  0  0  0  0  0  0  0  0  0
   -6.5550   90.9881    6.0839 C   0  0  0  0  0  0  0  0  0  0  0  0
   -6.7871   91.9456    4.9921 N   0  0  0  0  0  0  0  0  0  0  0  0
    0.2093   89.8314    9.2259 C   0  0  2  0  0  0  0  0  0  0  0  0
    1.5918   89.3493    9.3642 N   0  0  0  0  0  0  0  0  0  0  0  0
    0.0660   90.7254    7.9926 C   0  0  0  0  0  0  0  0  0  0  0  0
   -1.4141   91.0855    7.8281 C   0  0  2  0  0  0  0  0  0  0  0  0
   -1.5648   92.0157    6.6998 N   0  0  0  0  0  0  0  0  0  0  0  0
   -1.9925   91.7637    9.0734 C   0  0  2  0  0  0  0  0  0  0  0  0
   -1.6843   91.0528   10.3864 C   0  0  2  0  0  0  0  0  0  0  0  0
   -1.9558   92.0148   11.4184 O   0  0  0  0  0  0  0  0  0  0  0  0
   -0.2150   90.6178   10.4686 C   0  0  1  0  0  0  0  0  0  0  0  0
    0.0066   89.7857   11.6103 O   0  0  0  0  0  0  0  0  0  0  0  0
   -1.2718   91.8025   12.6639 C   0  0  1  0  0  0  0  0  0  0  0  0
   -1.4246   93.0759   13.4974 C   0  0  2  0  0  0  0  0  0  0  0  0
   -0.4262   94.0244   13.1137 O   0  0  0  0  0  0  0  0  0  0  0  0
   -1.0815   92.5009   14.8686 C   0  0  1  0  0  0  0  0  0  0  0  0
   -1.9029   91.2216   14.8431 C   0  0  2  0  0  0  0  0  0  0  0  0
   -1.8644   90.7672   13.4747 O   0  0  0  0  0  0  0  0  0  0  0  0
   -3.3322   91.5346   15.3006 C   0  0  0  0  0  0  0  0  0  0  0  0
   -3.3390   91.9749   16.6617 O   0  0  0  0  0  0  0  0  0  0  0  0
    0.5947   91.4603   16.1359 C   0  0  2  0  0  0  0  0  0  0  0  0
    0.3188   92.1861   14.9282 O   0  0  0  0  0  0  0  0  0  0  0  0
    0.6808   92.4375   17.3127 C   0  0  1  0  0  0  0  0  0  0  0  0
    3.7095   88.2773   18.0527 N   0  0  0  0  0  0  0  0  0  0  0  0
    1.0752   91.6967   18.5950 C   0  0  1  0  0  0  0  0  0  0  0  0
    0.0178   90.8262   19.0105 O   0  0  0  0  0  0  0  0  0  0  0  0
    2.3515   90.8860   18.3539 C   0  0  2  0  0  0  0  0  0  0  0  0
    3.4275   91.7951   18.0982 O   0  0  0  0  0  0  0  0  0  0  0  0
    2.1506   89.9579   17.1511 C   0  0  1  0  0  0  0  0  0  0  0  0
    1.8264   90.7336   15.9823 O   0  0  0  0  0  0  0  0  0  0  0  0
    3.3954   89.1083   16.8811 C   0  0  0  0  0  0  0  0  0  0  0  0
    1.7159   93.4400   17.0185 N   0  0  0  0  0  0  0  0  0  0  0  0
  1  2  1  1  0  0  0
  1  3  1  0  0  0  0
  1 10  1  0  0  0  0
  3  4  1  1  0  0  0
  3  5  1  0  0  0  0
  5  6  1  6  0  0  0
  5  7  1  0  0  0  0
  7  8  1  1  0  0  0
  7  9  1  0  0  0  0
  9 10  1  0  0  0  0
  9 11  1  6  0  0  0
 11 12  1  0  0  0  0
 13 14  1  1  0  0  0
 13 15  1  0  0  0  0
 13 21  1  0  0  0  0
 16 15  1  0  0  0  0
 16 17  1  6  0  0  0
 18  2  1  6  0  0  0
 18 16  1  0  0  0  0
 19 18  1  0  0  0  0
 19 20  1  1  0  0  0
 21 19  1  0  0  0  0
 21 22  1  1  0  0  0
 23 20  1  6  0  0  0
 23 24  1  0  0  0  0
 23 28  1  0  0  0  0
 24 25  1  6  0  0  0
 24 26  1  0  0  0  0
 26 27  1  0  0  0  0
 26 32  1  6  0  0  0
 27 28  1  0  0  0  0
 27 29  1  6  0  0  0
 29 30  1  0  0  0  0
 31 32  1  6  0  0  0
 31 40  1  0  0  0  0
 33 31  1  0  0  0  0
 33 42  1  6  0  0  0
 35 33  1  0  0  0  0
 35 36  1  6  0  0  0
 37 35  1  0  0  0  0
 37 38  1  6  0  0  0
 37 39  1  0  0  0  0
 39 40  1  0  0  0  0
 39 41  1  6  0  0  0
 41 34  1  0  0  0  0
M  END
>  <CHROM.1>
-119.72826254,65.90393808,-65.43775280,-156.39572136,166.94446148,-171.19802564
-64.06029801,-79.33362902,59.79750983,-1.59535641,91.68844025,12.19234326
-2.22768663,-0.43297498,1.39026306

>  <Name>
2fcy_lig

>  <RI>
4.13508e+07

>  <Rbt.Current_Directory>
/home/itssahil/PROJECTS/Mol_Feturizer/New_Systems/rnas/2fcy

>  <Rbt.Executable>
rbdock ($Id: //depot/dev/client3/rdock/2013.1/src/exe/rbdock.cxx#4 $)

>  <Rbt.Library>
libRbt.so (2013.1, Build901 2013/11/27)

>  <Rbt.Parameter_File>
/export/apps/rDock/src/rDock_2013.1_src/data/scripts/dock_solv.prm

>  <Rbt.Receptor>
prm/pocket_docking_3.prm

>  <SCORE>
-1.47446

>  <SCORE.INTER>
-6.17674

>  <SCORE.INTER.CONST>
1

>  <SCORE.INTER.POLAR>
-0.82449

>  <SCORE.INTER.ROT>
9

>  <SCORE.INTER.SOLV>
15.5306

>  <SCORE.INTER.VDW>
-16.1464

>  <SCORE.INTER.norm>
-0.147065

>  <SCORE.INTRA>
4.62387

>  <SCORE.INTRA.DIHEDRAL>
-3.92201

>  <SCORE.INTRA.DIHEDRAL.0>
17.3446

>  <SCORE.INTRA.POLAR>
0

>  <SCORE.INTRA.POLAR.0>
0

>  <SCORE.INTRA.REPUL>
0

>  <SCORE.INTRA.REPUL.0>
0

>  <SCORE.INTRA.SOLV>
-1.01903

>  <SCORE.INTRA.SOLV.lig_0>
-112.452

>  <SCORE.INTRA.VDW>
7.09439

>  <SCORE.INTRA.VDW.0>
-5.95059

>  <SCORE.INTRA.norm>
0.110092

>  <SCORE.RESTR>
0.0784148

>  <SCORE.RESTR.CAVITY>
0.0784148

>  <SCORE.RESTR.norm>
0.00186702

>  <SCORE.SYSTEM>
0

>  <SCORE.SYSTEM.CONST>
0

>  <SCORE.SYSTEM.DIHEDRAL>
0

>  <SCORE.SYSTEM.SOLV>
0

>  <SCORE.SYSTEM.norm>
0

>  <SCORE.heavy>
42

>  <SCORE.norm>
-0.0351062

>  <RMSD>
9.614

$$$$
2fcy_lig
 OpenBabel11021811433D
libRbt.so/2013.1/901 2013/11/27
 42 45  0  0  0  0  0  0  0  0999 V2000
   -6.1719   91.2541    7.2373 C   0  0  2  0  0  0  0  0  0  0  0  0
   -5.0797   91.5883    8.1105 O   0  0  0  0  0  0  0  0  0  0  0  0
   -5.7373   89.9806    6.5104 C   0  0  2  0  0  0  0  0  0  0  0  0
   -5.3732   88.9680    7.5109 N   0  0  0  0  0  0  0  0  0  0  0  0
   -4.5237   90.2833    5.6279 C   0  0  1  0  0  0  0  0  0  0  0  0
   -4.1009   89.1064    4.9336 O   0  0  0  0  0  0  0  0  0  0  0  0
   -4.8817   91.3907    4.6363 C   0  0  2  0  0  0  0  0  0  0  0  0
   -3.7218   91.7382    3.8804 O   0  0  0  0  0  0  0  0  0  0  0  0
   -5.3274   92.6271    5.4186 C   0  0  2  0  0  0  0  0  0  0  0  0
   -6.4365   92.2858    6.2646 O   0  0  0  0  0  0  0  0  0  0  0  0
   -5.6983   93.7404    4.4353 C   0  0  0  0  0  0  0  0  0  0  0  0
   -6.1468   94.9453    5.1493 N   0  0  0  0  0  0  0  0  0  0  0  0
   -7.3757   94.4434   10.1655 C   0  0  2  0  0  0  0  0  0  0  0  0
   -7.9495   95.4704   11.0481 N   0  0  0  0  0  0  0  0  0  0  0  0
   -6.9191   93.2263   10.9724 C   0  0  0  0  0  0  0  0  0  0  0  0
   -6.4565   92.1442    9.9915 C   0  0  2  0  0  0  0  0  0  0  0  0
   -5.9311   90.9974   10.7464 N   0  0  0  0  0  0  0  0  0  0  0  0
   -5.3469   92.6371    9.0581 C   0  0  2  0  0  0  0  0  0  0  0  0
   -5.6257   93.9797    8.3916 C   0  0  2  0  0  0  0  0  0  0  0  0
   -4.3559   94.4356    7.8977 O   0  0  0  0  0  0  0  0  0  0  0  0
   -6.1840   95.0057    9.3867 C   0  0  1  0  0  0  0  0  0  0  0  0
   -6.6215   96.1866    8.7090 O   0  0  0  0  0  0  0  0  0  0  0  0
   -3.3181   94.5750    8.8814 C   0  0  1  0  0  0  0  0  0  0  0  0
   -2.0302   94.0134    8.2768 C   0  0  2  0  0  0  0  0  0  0  0  0
   -1.9979   92.5944    8.4473 O   0  0  0  0  0  0  0  0  0  0  0  0
   -1.0245   94.6637    9.2223 C   0  0  1  0  0  0  0  0  0  0  0  0
   -1.5683   96.0830    9.2676 C   0  0  2  0  0  0  0  0  0  0  0  0
   -3.0024   95.9477    9.1919 O   0  0  0  0  0  0  0  0  0  0  0  0
   -1.0060   96.8732    8.0803 C   0  0  0  0  0  0  0  0  0  0  0  0
    0.4224   96.9223    8.1408 O   0  0  0  0  0  0  0  0  0  0  0  0
    0.1884   93.6370   10.9466 C   0  0  2  0  0  0  0  0  0  0  0  0
   -1.1166   94.0592   10.5221 O   0  0  0  0  0  0  0  0  0  0  0  0
    0.0567   92.6949   12.1475 C   0  0  1  0  0  0  0  0  0  0  0  0
    3.3608   96.4030   10.6370 N   0  0  0  0  0  0  0  0  0  0  0  0
    1.4414   92.3122   12.6811 C   0  0  1  0  0  0  0  0  0  0  0  0
    2.1283   91.4887   11.7334 O   0  0  0  0  0  0  0  0  0  0  0  0
    2.2580   93.5773   12.9588 C   0  0  2  0  0  0  0  0  0  0  0  0
    1.6307   94.3002   14.0234 O   0  0  0  0  0  0  0  0  0  0  0  0
    2.3096   94.4425   11.6950 C   0  0  1  0  0  0  0  0  0  0  0  0
    0.9744   94.7929   11.2860 O   0  0  0  0  0  0  0  0  0  0  0  0
    3.1347   95.7133   11.9157 C   0  0  0  0  0  0  0  0  0  0  0  0
   -0.6763   93.3915   13.2154 N   0  0  0  0  0  0  0  0  0  0  0  0
  1  2  1  1  0  0  0
  1  3  1  0  0  0  0
  1 10  1  0  0  0  0
  3  4  1  1  0  0  0
  3  5  1  0  0  0  0
  5  6  1  6  0  0  0
  5  7  1  0  0  0  0
  7  8  1  1  0  0  0
  7  9  1  0  0  0  0
  9 10  1  0  0  0  0
  9 11  1  6  0  0  0
 11 12  1  0  0  0  0
 13 14  1  1  0  0  0
 13 15  1  0  0  0  0
 13 21  1  0  0  0  0
 16 15  1  0  0  0  0
 16 17  1  1  0  0  0
 18  2  1  6  0  0  0
 18 16  1  0  0  0  0
 19 18  1  0  0  0  0
 19 20  1  1  0  0  0
 21 19  1  0  0  0  0
 21 22  1  6  0  0  0
 23 20  1  6  0  0  0
 23 24  1  0  0  0  0
 23 28  1  0  0  0  0
 24 25  1  1  0  0  0
 24 26  1  0  0  0  0
 26 27  1  0  0  0  0
 26 32  1  1  0  0  0
 27 28  1  0  0  0  0
 27 29  1  6  0  0  0
 29 30  1  0  0  0  0
 31 32  1  1  0  0  0
 31 40  1  0  0  0  0
 33 31  1  0  0  0  0
 33 42  1  1  0  0  0
 35 33  1  0  0  0  0
 35 36  1  6  0  0  0
 37 35  1  0  0  0  0
 37 38  1  1  0  0  0
 37 39  1  0  0  0  0
 39 40  1  0  0  0  0
 39 41  1  1  0  0  0
 41 34  1  0  0  0  0
M  END
>  <CHROM.1>
-170.44159502,179.40586540,63.51525304,-57.81849624,137.42667363,127.82710473
-60.28748968,-165.99918695,170.27783952,-2.91851691,93.46229372,9.01638925
-2.54989817,-0.24233741,0.81035341

>  <Name>
2fcy_lig

>  <RI>
0

>  <Rbt.Current_Directory>
/home/itssahil/PROJECTS/Mol_Feturizer/New_Systems/rnas/2fcy

>  <Rbt.Executable>
rbdock ($Id: //depot/dev/client3/rdock/2013.1/src/exe/rbdock.cxx#4 $)

>  <Rbt.Library>
libRbt.so (2013.1, Build901 2013/11/27)

>  <Rbt.Parameter_File>
/export/apps/rDock/src/rDock_2013.1_src/data/scripts/dock_solv.prm

>  <Rbt.Receptor>
prm/pocket_docking_5.prm

>  <SCORE>
-1.10992

>  <SCORE.INTER>
-0.642882

>  <SCORE.INTER.CONST>
1

>  <SCORE.INTER.POLAR>
-0.944591

>  <SCORE.INTER.ROT>
9

>  <SCORE.INTER.SOLV>
11.9973

>  <SCORE.INTER.VDW>
-10.8791

>  <SCORE.INTER.norm>
-0.0153067

>  <SCORE.INTRA>
-0.467037

>  <SCORE.INTRA.DIHEDRAL>
-2.97733

>  <SCORE.INTRA.DIHEDRAL.0>
17.3446

>  <SCORE.INTRA.POLAR>
0

>  <SCORE.INTRA.POLAR.0>
0

>  <SCORE.INTRA.REPUL>
0.00459805

>  <SCORE.INTRA.REPUL.0>
0

>  <SCORE.INTRA.SOLV>
-2.26846

>  <SCORE.INTRA.SOLV.lig_0>
-112.452

>  <SCORE.INTRA.VDW>
2.13287

>  <SCORE.INTRA.VDW.0>
-5.95059

>  <SCORE.INTRA.norm>
-0.0111199

>  <SCORE.RESTR>
0

>  <SCORE.RESTR.CAVITY>
0

>  <SCORE.RESTR.norm>
0

>  <SCORE.SYSTEM>
0

>  <SCORE.SYSTEM.CONST>
0

>  <SCORE.SYSTEM.DIHEDRAL>
0

>  <SCORE.SYSTEM.SOLV>
0

>  <SCORE.SYSTEM.norm>
0

>  <SCORE.heavy>
42

>  <SCORE.norm>
-0.0264266

>  <RMSD>
9.642

$$$$
2fcy_lig
 OpenBabel11021811433D
libRbt.so/2013.1/901 2013/11/27
 42 45  0  0  0  0  0  0  0  0999 V2000
   -3.9615   91.1169    6.5405 C   0  0  2  0  0  0  0  0  0  0  0  0
   -3.7987   91.7715    7.8102 O   0  0  0  0  0  0  0  0  0  0  0  0
   -2.5499   90.9836    5.9671 C   0  0  2  0  0  0  0  0  0  0  0  0
   -1.7054   90.2917    6.9503 N   0  0  0  0  0  0  0  0  0  0  0  0
   -1.9750   92.3754    5.6925 C   0  0  1  0  0  0  0  0  0  0  0  0
   -0.6550   92.2763    5.1509 O   0  0  0  0  0  0  0  0  0  0  0  0
   -2.8955   93.1226    4.7269 C   0  0  2  0  0  0  0  0  0  0  0  0
   -2.4096   94.4528    4.5482 O   0  0  0  0  0  0  0  0  0  0  0  0
   -4.2928   93.2056    5.3432 C   0  0  2  0  0  0  0  0  0  0  0  0
   -4.7725   91.8817    5.6252 O   0  0  0  0  0  0  0  0  0  0  0  0
   -5.2266   93.9435    4.3802 C   0  0  0  0  0  0  0  0  0  0  0  0
   -4.8959   95.3752    4.3199 N   0  0  0  0  0  0  0  0  0  0  0  0
   -4.9718   90.5733   11.6618 C   0  0  2  0  0  0  0  0  0  0  0  0
   -5.2650   89.9060   12.9392 N   0  0  0  0  0  0  0  0  0  0  0  0
   -5.5815   89.7992   10.4914 C   0  0  0  0  0  0  0  0  0  0  0  0
   -5.3580   90.6086    9.2100 C   0  0  2  0  0  0  0  0  0  0  0  0
   -5.8584   89.8433    8.0589 N   0  0  0  0  0  0  0  0  0  0  0  0
   -3.8777   90.9123    8.9613 C   0  0  2  0  0  0  0  0  0  0  0  0
   -3.1309   91.4697   10.1679 C   0  0  2  0  0  0  0  0  0  0  0  0
   -1.7355   91.3154    9.8624 O   0  0  0  0  0  0  0  0  0  0  0  0
   -3.4607   90.6951   11.4508 C   0  0  1  0  0  0  0  0  0  0  0  0
   -2.9098   91.3496   12.5968 O   0  0  0  0  0  0  0  0  0  0  0  0
   -0.8256   91.9890   10.7471 C   0  0  1  0  0  0  0  0  0  0  0  0
    0.5892   91.7697   10.2088 C   0  0  2  0  0  0  0  0  0  0  0  0
    1.0860   90.5083   10.6624 O   0  0  0  0  0  0  0  0  0  0  0  0
    1.3005   92.8955   10.9538 C   0  0  1  0  0  0  0  0  0  0  0  0
    0.3161   94.0338   10.7355 C   0  0  2  0  0  0  0  0  0  0  0  0
   -0.9900   93.4220   10.7568 O   0  0  0  0  0  0  0  0  0  0  0  0
    0.6122   94.7005    9.3871 C   0  0  0  0  0  0  0  0  0  0  0  0
   -0.2954   95.7808    9.1509 O   0  0  0  0  0  0  0  0  0  0  0  0
    2.2546   93.5147   13.0044 C   0  0  2  0  0  0  0  0  0  0  0  0
    1.3837   92.5778   12.3522 O   0  0  0  0  0  0  0  0  0  0  0  0
    2.9136   92.8451   14.2145 C   0  0  1  0  0  0  0  0  0  0  0  0
    0.9609   97.4804   13.0783 N   0  0  0  0  0  0  0  0  0  0  0  0
    3.7690   93.8565   14.9851 C   0  0  1  0  0  0  0  0  0  0  0  0
    4.9055   94.2417   14.2051 O   0  0  0  0  0  0  0  0  0  0  0  0
    2.9304   95.0912   15.3268 C   0  0  2  0  0  0  0  0  0  0  0  0
    1.8960   94.7021   16.2368 O   0  0  0  0  0  0  0  0  0  0  0  0
    2.3150   95.6642   14.0457 C   0  0  1  0  0  0  0  0  0  0  0  0
    1.4949   94.6677   13.4075 O   0  0  0  0  0  0  0  0  0  0  0  0
    1.4814   96.9161   14.3323 C   0  0  0  0  0  0  0  0  0  0  0  0
    1.8590   92.3496   15.1119 N   0  0  0  0  0  0  0  0  0  0  0  0
  1  2  1  1  0  0  0
  1  3  1  0  0  0  0
  1 10  1  0  0  0  0
  3  4  1  1  0  0  0
  3  5  1  0  0  0  0
  5  6  1  6  0  0  0
  5  7  1  0  0  0  0
  7  8  1  1  0  0  0
  7  9  1  0  0  0  0
  9 10  1  0  0  0  0
  9 11  1  6  0  0  0
 11 12  1  0  0  0  0
 13 14  1  1  0  0  0
 13 15  1  0  0  0  0
 13 21  1  0  0  0  0
 16 15  1  0  0  0  0
 16 17  1  6  0  0  0
 18  2  1  6  0  0  0
 18 16  1  0  0  0  0
 19 18  1  0  0  0  0
 19 20  1  6  0  0  0
 21 19  1  0  0  0  0
 21 22  1  1  0  0  0
 23 20  1  6  0  0  0
 23 24  1  0  0  0  0
 23 28  1  0  0  0  0
 24 25  1  1  0  0  0
 24 26  1  0  0  0  0
 26 27  1  0  0  0  0
 26 32  1  1  0  0  0
 27 28  1  0  0  0  0
 27 29  1  6  0  0  0
 29 30  1  0  0  0  0
 31 32  1  1  0  0  0
 31 40  1  0  0  0  0
 33 31  1  0  0  0  0
 33 42  1  1  0  0  0
 35 33  1  0  0  0  0
 35 36  1  6  0  0  0
 37 35  1  0  0  0  0
 37 38  1  1  0  0  0
 37 39  1  0  0  0  0
 39 40  1  0  0  0  0
 39 41  1  1  0  0  0
 41 34  1  0  0  0  0
M  END
>  <CHROM.1>
-102.22764241,-70.98667887,-77.57216369,169.19182909,-176.79554459,169.78734963
-179.84314423,-151.26542677,177.16291344,-1.19569868,92.78827728,10.12736566
2.48673485,-0.67155755,-1.17609211

>  <Name>
2fcy_lig

>  <RI>
1.56845e+07

>  <Rbt.Current_Directory>
/home/itssahil/PROJECTS/Mol_Feturizer/New_Systems/rnas/2fcy

>  <Rbt.Executable>
rbdock ($Id: //depot/dev/client3/rdock/2013.1/src/exe/rbdock.cxx#4 $)

>  <Rbt.Library>
libRbt.so (2013.1, Build901 2013/11/27)

>  <Rbt.Parameter_File>
/export/apps/rDock/src/rDock_2013.1_src/data/scripts/dock_solv.prm

>  <Rbt.Receptor>
prm/pocket_docking_4.prm

>  <SCORE>
-3.62079

>  <SCORE.INTER>
-2.98733

>  <SCORE.INTER.CONST>
1

>  <SCORE.INTER.POLAR>
-0.377753

>  <SCORE.INTER.ROT>
9

>  <SCORE.INTER.SOLV>
16.9661

>  <SCORE.INTER.VDW>
-15.9878

>  <SCORE.INTER.norm>
-0.071127

>  <SCORE.INTRA>
-0.633455

>  <SCORE.INTRA.DIHEDRAL>
-4.71491

>  <SCORE.INTRA.DIHEDRAL.0>
17.3446

>  <SCORE.INTRA.POLAR>
0

>  <SCORE.INTRA.POLAR.0>
0

>  <SCORE.INTRA.REPUL>
0

>  <SCORE.INTRA.REPUL.0>
0

>  <SCORE.INTRA.SOLV>
-1.40812

>  <SCORE.INTRA.SOLV.lig_0>
-112.452

>  <SCORE.INTRA.VDW>
2.42806

>  <SCORE.INTRA.VDW.0>
-5.95059

>  <SCORE.INTRA.norm>
-0.0150823

>  <SCORE.RESTR>
0

>  <SCORE.RESTR.CAVITY>
0

>  <SCORE.RESTR.norm>
0

>  <SCORE.SYSTEM>
0

>  <SCORE.SYSTEM.CONST>
0

>  <SCORE.SYSTEM.DIHEDRAL>
0

>  <SCORE.SYSTEM.SOLV>
0

>  <SCORE.SYSTEM.norm>
0

>  <SCORE.heavy>
42

>  <SCORE.norm>
-0.0862093

>  <RMSD>
9.667

$$$$
2fcy_lig
 OpenBabel11021811433D
libRbt.so/2013.1/901 2013/11/27
 42 45  0  0  0  0  0  0  0  0999 V2000
   -3.3332   92.6760    7.9357 C   0  0  2  0  0  0  0  0  0  0  0  0
   -4.6706   93.2028    7.9672 O   0  0  0  0  0  0  0  0  0  0  0  0
   -2.5524   93.6023    7.0023 C   0  0  2  0  0  0  0  0  0  0  0  0
   -2.6945   94.9837    7.4823 N   0  0  0  0  0  0  0  0  0  0  0  0
   -3.1183   93.4958    5.5840 C   0  0  1  0  0  0  0  0  0  0  0  0
   -2.4002   94.3514    4.6906 O   0  0  0  0  0  0  0  0  0  0  0  0
   -3.0386   92.0429    5.1143 C   0  0  2  0  0  0  0  0  0  0  0  0
   -3.6543   91.9289    3.8315 O   0  0  0  0  0  0  0  0  0  0  0  0
   -3.8172   91.1648    6.0950 C   0  0  2  0  0  0  0  0  0  0  0  0
   -3.2819   91.3310    7.4173 O   0  0  0  0  0  0  0  0  0  0  0  0
   -3.7361   89.7052    5.6402 C   0  0  0  0  0  0  0  0  0  0  0  0
   -4.4731   88.8257    6.5600 N   0  0  0  0  0  0  0  0  0  0  0  0
   -7.2732   92.9439   11.2544 C   0  0  2  0  0  0  0  0  0  0  0  0
   -8.2342   92.5911   12.3104 N   0  0  0  0  0  0  0  0  0  0  0  0
   -7.9058   92.7900    9.8699 C   0  0  0  0  0  0  0  0  0  0  0  0
   -6.9064   93.2961    8.8248 C   0  0  2  0  0  0  0  0  0  0  0  0
   -7.4579   93.0770    7.4798 N   0  0  0  0  0  0  0  0  0  0  0  0
   -5.5610   92.5686    8.9024 C   0  0  2  0  0  0  0  0  0  0  0  0
   -4.9719   92.4679   10.3049 C   0  0  2  0  0  0  0  0  0  0  0  0
   -3.9605   91.4506   10.2259 O   0  0  0  0  0  0  0  0  0  0  0  0
   -6.0283   92.0574   11.3394 C   0  0  1  0  0  0  0  0  0  0  0  0
   -5.5075   92.1598   12.6673 O   0  0  0  0  0  0  0  0  0  0  0  0
   -2.9819   91.4615   11.2778 C   0  0  1  0  0  0  0  0  0  0  0  0
   -2.0012   90.3191   11.0081 C   0  0  2  0  0  0  0  0  0  0  0  0
   -2.5350   89.0961   11.5209 O   0  0  0  0  0  0  0  0  0  0  0  0
   -0.8499   90.7844   11.8948 C   0  0  1  0  0  0  0  0  0  0  0  0
   -0.7925   92.2570   11.5199 C   0  0  2  0  0  0  0  0  0  0  0  0
   -2.1611   92.6476   11.2854 O   0  0  0  0  0  0  0  0  0  0  0  0
    0.0710   92.4209   10.2638 C   0  0  0  0  0  0  0  0  0  0  0  0
    1.3472   91.8010   10.4471 O   0  0  0  0  0  0  0  0  0  0  0  0
   -0.0280   90.6892   14.0889 C   0  0  2  0  0  0  0  0  0  0  0  0
   -1.2117   90.6420   13.2776 O   0  0  0  0  0  0  0  0  0  0  0  0
   -0.3621   90.2251   15.5102 C   0  0  1  0  0  0  0  0  0  0  0  0
    2.4927   93.8843   13.3192 N   0  0  0  0  0  0  0  0  0  0  0  0
    0.8634   90.3639   16.4198 C   0  0  1  0  0  0  0  0  0  0  0  0
    1.8762   89.4292   16.0341 O   0  0  0  0  0  0  0  0  0  0  0  0
    1.4130   91.7905   16.3352 C   0  0  2  0  0  0  0  0  0  0  0  0
    0.4380   92.6876   16.8775 O   0  0  0  0  0  0  0  0  0  0  0  0
    1.6970   92.1452   14.8717 C   0  0  1  0  0  0  0  0  0  0  0  0
    0.4891   92.0314   14.0965 O   0  0  0  0  0  0  0  0  0  0  0  0
    2.2695   93.5587   14.7356 C   0  0  0  0  0  0  0  0  0  0  0  0
   -1.4358   91.0765   16.0443 N   0  0  0  0  0  0  0  0  0  0  0  0
  1  2  1  6  0  0  0
  1  3  1  0  0  0  0
  1 10  1  0  0  0  0
  3  4  1  1  0  0  0
  3  5  1  0  0  0  0
  5  6  1  6  0  0  0
  5  7  1  0  0  0  0
  7  8  1  6  0  0  0
  7  9  1  0  0  0  0
  9 10  1  0  0  0  0
  9 11  1  6  0  0  0
 11 12  1  0  0  0  0
 13 14  1  1  0  0  0
 13 15  1  0  0  0  0
 13 21  1  0  0  0  0
 16 15  1  0  0  0  0
 16 17  1  6  0  0  0
 18  2  1  6  0  0  0
 18 16  1  0  0  0  0
 19 18  1  0  0  0  0
 19 20  1  6  0  0  0
 21 19  1  0  0  0  0
 21 22  1  1  0  0  0
 23 20  1  6  0  0  0
 23 24  1  0  0  0  0
 23 28  1  0  0  0  0
 24 25  1  1  0  0  0
 24 26  1  0  0  0  0
 26 27  1  0  0  0  0
 26 32  1  1  0  0  0
 27 28  1  0  0  0  0
 27 29  1  6  0  0  0
 29 30  1  0  0  0  0
 31 32  1  6  0  0  0
 31 40  1  0  0  0  0
 33 31  1  0  0  0  0
 33 42  1  1  0  0  0
 35 33  1  0  0  0  0
 35 36  1  6  0  0  0
 37 35  1  0  0  0  0
 37 38  1  6  0  0  0
 37 39  1  0  0  0  0
 39 40  1  0  0  0  0
 39 41  1  1  0  0  0
 41 34  1  0  0  0  0
M  END
>  <CHROM.1>
-173.67881513,179.94332458,177.95105166,160.82910468,-179.65360706,162.82212722
-53.01532068,-167.23953518,-178.28275716,-2.49513448,91.94542269,10.69908624
-2.15644149,-0.01764896,1.67204350

>  <Name>
2fcy_lig

>  <RI>
0

>  <Rbt.Current_Directory>
/home/itssahil/PROJECTS/Mol_Feturizer/New_Systems/rnas/2fcy

>  <Rbt.Executable>
rbdock ($Id: //depot/dev/client3/rdock/2013.1/src/exe/rbdock.cxx#4 $)

>  <Rbt.Library>
libRbt.so (2013.1, Build901 2013/11/27)

>  <Rbt.Parameter_File>
/export/apps/rDock/src/rDock_2013.1_src/data/scripts/dock_solv.prm

>  <Rbt.Receptor>
prm/pocket_docking_5.prm

>  <SCORE>
-12.2005

>  <SCORE.INTER>
-5.59593

>  <SCORE.INTER.CONST>
1

>  <SCORE.INTER.POLAR>
-0.594583

>  <SCORE.INTER.ROT>
9

>  <SCORE.INTER.SOLV>
14.7464

>  <SCORE.INTER.VDW>
-16.2641

>  <SCORE.INTER.norm>
-0.133236

>  <SCORE.INTRA>
-6.60454

>  <SCORE.INTRA.DIHEDRAL>
-12.619

>  <SCORE.INTRA.DIHEDRAL.0>
17.3446

>  <SCORE.INTRA.POLAR>
0

>  <SCORE.INTRA.POLAR.0>
0

>  <SCORE.INTRA.REPUL>
0

>  <SCORE.INTRA.REPUL.0>
0

>  <SCORE.INTRA.SOLV>
-4.72378

>  <SCORE.INTRA.SOLV.lig_0>
-112.452

>  <SCORE.INTRA.VDW>
2.06686

>  <SCORE.INTRA.VDW.0>
-5.95059

>  <SCORE.INTRA.norm>
-0.157251

>  <SCORE.RESTR>
0

>  <SCORE.RESTR.CAVITY>
0

>  <SCORE.RESTR.norm>
0

>  <SCORE.SYSTEM>
0

>  <SCORE.SYSTEM.CONST>
0

>  <SCORE.SYSTEM.DIHEDRAL>
0

>  <SCORE.SYSTEM.SOLV>
0

>  <SCORE.SYSTEM.norm>
0

>  <SCORE.heavy>
42

>  <SCORE.norm>
-0.290487

>  <RMSD>
9.669

$$$$
2fcy_lig
 OpenBabel11021811433D
libRbt.so/2013.1/901 2013/11/27
 42 45  0  0  0  0  0  0  0  0999 V2000
   -2.4358   93.9504    6.5324 C   0  0  2  0  0  0  0  0  0  0  0  0
   -3.0106   93.2601    7.6551 O   0  0  0  0  0  0  0  0  0  0  0  0
   -2.7255   95.4326    6.7737 C   0  0  2  0  0  0  0  0  0  0  0  0
   -2.2085   95.8042    8.0979 N   0  0  0  0  0  0  0  0  0  0  0  0
   -4.2367   95.6725    6.7320 C   0  0  1  0  0  0  0  0  0  0  0  0
   -4.5326   97.0546    6.9512 O   0  0  0  0  0  0  0  0  0  0  0  0
   -4.7854   95.2151    5.3801 C   0  0  2  0  0  0  0  0  0  0  0  0
   -6.2065   95.3497    5.3793 O   0  0  0  0  0  0  0  0  0  0  0  0
   -4.4479   93.7360    5.1864 C   0  0  2  0  0  0  0  0  0  0  0  0
   -3.0265   93.5520    5.2783 O   0  0  0  0  0  0  0  0  0  0  0  0
   -4.9839   93.2689    3.8306 C   0  0  0  0  0  0  0  0  0  0  0  0
   -4.0326   93.5798    2.7531 N   0  0  0  0  0  0  0  0  0  0  0  0
   -2.9594   89.2990    9.0527 C   0  0  2  0  0  0  0  0  0  0  0  0
   -2.6884   87.8997    9.4152 N   0  0  0  0  0  0  0  0  0  0  0  0
   -2.9069   89.4876    7.5353 C   0  0  0  0  0  0  0  0  0  0  0  0
   -3.3258   90.9258    7.2140 C   0  0  2  0  0  0  0  0  0  0  0  0
   -3.1989   91.1567    5.7677 N   0  0  0  0  0  0  0  0  0  0  0  0
   -2.4551   91.9620    7.9307 C   0  0  2  0  0  0  0  0  0  0  0  0
   -2.2588   91.7069    9.4209 C   0  0  2  0  0  0  0  0  0  0  0  0
   -1.1399   92.5212    9.8071 O   0  0  0  0  0  0  0  0  0  0  0  0
   -1.9414   90.2338    9.7106 C   0  0  1  0  0  0  0  0  0  0  0  0
   -1.9560   89.9768   11.1173 O   0  0  0  0  0  0  0  0  0  0  0  0
   -0.6940   92.3648   11.1639 C   0  0  1  0  0  0  0  0  0  0  0  0
    0.0510   93.6420   11.5553 C   0  0  2  0  0  0  0  0  0  0  0  0
    1.4054   93.5661   11.1041 O   0  0  0  0  0  0  0  0  0  0  0  0
    0.0092   93.4821   13.0722 C   0  0  1  0  0  0  0  0  0  0  0  0
   -1.4434   93.0763   13.2655 C   0  0  2  0  0  0  0  0  0  0  0  0
   -1.7738   92.2708   12.1154 O   0  0  0  0  0  0  0  0  0  0  0  0
   -2.3098   94.3385   13.3462 C   0  0  0  0  0  0  0  0  0  0  0  0
   -1.8565   95.3197   12.4090 O   0  0  0  0  0  0  0  0  0  0  0  0
    0.8165   92.2534   14.8990 C   0  0  2  0  0  0  0  0  0  0  0  0
    0.8775   92.4103   13.4732 O   0  0  0  0  0  0  0  0  0  0  0  0
    1.9926   91.3924   15.3707 C   0  0  1  0  0  0  0  0  0  0  0  0
   -3.0026   91.8477   16.4358 N   0  0  0  0  0  0  0  0  0  0  0  0
    1.8909   91.1271   16.8766 C   0  0  1  0  0  0  0  0  0  0  0  0
    2.0992   92.3388   17.6092 O   0  0  0  0  0  0  0  0  0  0  0  0
    0.5128   90.5487   17.2093 C   0  0  2  0  0  0  0  0  0  0  0  0
    0.3970   89.2624   16.5917 O   0  0  0  0  0  0  0  0  0  0  0  0
   -0.5784   91.4857   16.6805 C   0  0  1  0  0  0  0  0  0  0  0  0
   -0.4380   91.6473   15.2567 O   0  0  0  0  0  0  0  0  0  0  0  0
   -1.9789   90.9604   17.0073 C   0  0  0  0  0  0  0  0  0  0  0  0
    1.9442   90.1016   14.6673 N   0  0  0  0  0  0  0  0  0  0  0  0
  1  2  1  1  0  0  0
  1  3  1  0  0  0  0
  1 10  1  0  0  0  0
  3  4  1  1  0  0  0
  3  5  1  0  0  0  0
  5  6  1  6  0  0  0
  5  7  1  0  0  0  0
  7  8  1  1  0  0  0
  7  9  1  0  0  0  0
  9 10  1  0  0  0  0
  9 11  1  6  0  0  0
 11 12  1  0  0  0  0
 13 14  1  6  0  0  0
 13 15  1  0  0  0  0
 13 21  1  0  0  0  0
 16 15  1  0  0  0  0
 16 17  1  6  0  0  0
 18  2  1  1  0  0  0
 18 16  1  0  0  0  0
 19 18  1  0  0  0  0
 19 20  1  6  0  0  0
 21 19  1  0  0  0  0
 21 22  1  1  0  0  0
 23 20  1  6  0  0  0
 23 24  1  0  0  0  0
 23 28  1  0  0  0  0
 24 25  1  6  0  0  0
 24 26  1  0  0  0  0
 26 27  1  0  0  0  0
 26 32  1  6  0  0  0
 27 28  1  0  0  0  0
 27 29  1  6  0  0  0
 29 30  1  0  0  0  0
 31 32  1  6  0  0  0
 31 40  1  0  0  0  0
 33 31  1  0  0  0  0
 33 42  1  6  0  0  0
 35 33  1  0  0  0  0
 35 36  1  1  0  0  0
 37 35  1  0  0  0  0
 37 38  1  6  0  0  0
 37 39  1  0  0  0  0
 39 40  1  0  0  0  0
 39 41  1  6  0  0  0
 41 34  1  0  0  0  0
M  END
>  <CHROM.1>
-157.27134853,84.33231141,-93.82667803,-175.17732964,-156.95696112,-179.12468589
39.40340406,-164.89989129,-177.46335721,-1.74617730,92.50790868,10.67603411
-3.05945093,1.17406493,-2.99569469

>  <Name>
2fcy_lig

>  <RI>
4.13508e+07

>  <Rbt.Current_Directory>
/home/itssahil/PROJECTS/Mol_Feturizer/New_Systems/rnas/2fcy

>  <Rbt.Executable>
rbdock ($Id: //depot/dev/client3/rdock/2013.1/src/exe/rbdock.cxx#4 $)

>  <Rbt.Library>
libRbt.so (2013.1, Build901 2013/11/27)

>  <Rbt.Parameter_File>
/export/apps/rDock/src/rDock_2013.1_src/data/scripts/dock_solv.prm

>  <Rbt.Receptor>
prm/pocket_docking_3.prm

>  <SCORE>
1.34278

>  <SCORE.INTER>
-4.93972

>  <SCORE.INTER.CONST>
1

>  <SCORE.INTER.POLAR>
-0.942178

>  <SCORE.INTER.ROT>
9

>  <SCORE.INTER.SOLV>
19.2685

>  <SCORE.INTER.VDW>
-16.1754

>  <SCORE.INTER.norm>
-0.117612

>  <SCORE.INTRA>
5.07118

>  <SCORE.INTRA.DIHEDRAL>
-3.57927

>  <SCORE.INTRA.DIHEDRAL.0>
17.3446

>  <SCORE.INTRA.POLAR>
0

>  <SCORE.INTRA.POLAR.0>
0

>  <SCORE.INTRA.REPUL>
0.0550385

>  <SCORE.INTRA.REPUL.0>
0

>  <SCORE.INTRA.SOLV>
1.1634

>  <SCORE.INTRA.SOLV.lig_0>
-112.452

>  <SCORE.INTRA.VDW>
6.00393

>  <SCORE.INTRA.VDW.0>
-5.95059

>  <SCORE.INTRA.norm>
0.120742

>  <SCORE.RESTR>
1.21132

>  <SCORE.RESTR.CAVITY>
1.21132

>  <SCORE.RESTR.norm>
0.028841

>  <SCORE.SYSTEM>
0

>  <SCORE.SYSTEM.CONST>
0

>  <SCORE.SYSTEM.DIHEDRAL>
0

>  <SCORE.SYSTEM.SOLV>
0

>  <SCORE.SYSTEM.norm>
0

>  <SCORE.heavy>
42

>  <SCORE.norm>
0.031971

>  <RMSD>
9.719

$$$$
2fcy_lig
 OpenBabel11021811433D
libRbt.so/2013.1/901 2013/11/27
 42 45  0  0  0  0  0  0  0  0999 V2000
   -3.4729   95.8736    8.3651 C   0  0  2  0  0  0  0  0  0  0  0  0
   -4.3327   95.0901    9.2102 O   0  0  0  0  0  0  0  0  0  0  0  0
   -4.3991   96.8417    7.6275 C   0  0  2  0  0  0  0  0  0  0  0  0
   -5.1884   97.5858    8.6184 N   0  0  0  0  0  0  0  0  0  0  0  0
   -5.3415   96.0535    6.7143 C   0  0  1  0  0  0  0  0  0  0  0  0
   -6.2159   96.9391    6.0095 O   0  0  0  0  0  0  0  0  0  0  0  0
   -4.5168   95.2210    5.7322 C   0  0  2  0  0  0  0  0  0  0  0  0
   -5.3944   94.4142    4.9469 O   0  0  0  0  0  0  0  0  0  0  0  0
   -3.5980   94.2905    6.5254 C   0  0  2  0  0  0  0  0  0  0  0  0
   -2.7656   95.0687    7.3995 O   0  0  0  0  0  0  0  0  0  0  0  0
   -2.7594   93.4583    5.5519 C   0  0  0  0  0  0  0  0  0  0  0  0
   -1.8081   94.3067    4.8185 N   0  0  0  0  0  0  0  0  0  0  0  0
   -3.1885   93.2329   12.8002 C   0  0  2  0  0  0  0  0  0  0  0  0
   -2.6763   92.3852   13.8874 N   0  0  0  0  0  0  0  0  0  0  0  0
   -4.1374   92.4435   11.8962 C   0  0  0  0  0  0  0  0  0  0  0  0
   -4.7378   93.4083   10.8687 C   0  0  2  0  0  0  0  0  0  0  0  0
   -5.5862   92.6554    9.9337 N   0  0  0  0  0  0  0  0  0  0  0  0
   -3.6649   94.1304   10.0484 C   0  0  2  0  0  0  0  0  0  0  0  0
   -2.5405   94.7466   10.8733 C   0  0  2  0  0  0  0  0  0  0  0  0
   -1.4803   95.0132    9.9411 O   0  0  0  0  0  0  0  0  0  0  0  0
   -2.0361   93.7857   11.9581 C   0  0  1  0  0  0  0  0  0  0  0  0
   -1.1263   94.4470   12.8413 O   0  0  0  0  0  0  0  0  0  0  0  0
   -0.3697   95.7639   10.4583 C   0  0  1  0  0  0  0  0  0  0  0  0
    0.6198   95.9741    9.3110 C   0  0  2  0  0  0  0  0  0  0  0  0
    1.4597   94.8243    9.1836 O   0  0  0  0  0  0  0  0  0  0  0  0
    1.4227   97.1289    9.9028 C   0  0  1  0  0  0  0  0  0  0  0  0
    0.2963   98.0088   10.4217 C   0  0  2  0  0  0  0  0  0  0  0  0
   -0.7244   97.0974   10.8780 O   0  0  0  0  0  0  0  0  0  0  0  0
   -0.2055   98.9040    9.2828 C   0  0  0  0  0  0  0  0  0  0  0  0
   -0.8104   98.1158    8.2536 O   0  0  0  0  0  0  0  0  0  0  0  0
    3.1797   97.6617   11.3615 C   0  0  2  0  0  0  0  0  0  0  0  0
    2.2222   96.6553   10.9982 O   0  0  0  0  0  0  0  0  0  0  0  0
    4.1941   97.8372   10.2269 C   0  0  1  0  0  0  0  0  0  0  0  0
    4.2848   97.7629   15.3788 N   0  0  0  0  0  0  0  0  0  0  0  0
    5.2848   98.8336   10.6344 C   0  0  1  0  0  0  0  0  0  0  0  0
    4.7367  100.1508   10.7472 O   0  0  0  0  0  0  0  0  0  0  0  0
    5.9006   98.4104   11.9708 C   0  0  2  0  0  0  0  0  0  0  0  0
    6.5796   97.1638   11.7855 O   0  0  0  0  0  0  0  0  0  0  0  0
    4.7941   98.2554   13.0196 C   0  0  1  0  0  0  0  0  0  0  0  0
    3.8369   97.2737   12.5807 O   0  0  0  0  0  0  0  0  0  0  0  0
    5.3627   97.8523   14.3829 C   0  0  0  0  0  0  0  0  0  0  0  0
    4.8289   96.5384    9.9566 N   0  0  0  0  0  0  0  0  0  0  0  0
  1  2  1  1  0  0  0
  1  3  1  0  0  0  0
  1 10  1  0  0  0  0
  3  4  1  1  0  0  0
  3  5  1  0  0  0  0
  5  6  1  6  0  0  0
  5  7  1  0  0  0  0
  7  8  1  6  0  0  0
  7  9  1  0  0  0  0
  9 10  1  0  0  0  0
  9 11  1  6  0  0  0
 11 12  1  0  0  0  0
 13 14  1  1  0  0  0
 13 15  1  0  0  0  0
 13 21  1  0  0  0  0
 16 15  1  0  0  0  0
 16 17  1  6  0  0  0
 18  2  1  1  0  0  0
 18 16  1  0  0  0  0
 19 18  1  0  0  0  0
 19 20  1  6  0  0  0
 21 19  1  0  0  0  0
 21 22  1  1  0  0  0
 23 20  1  6  0  0  0
 23 24  1  0  0  0  0
 23 28  1  0  0  0  0
 24 25  1  1  0  0  0
 24 26  1  0  0  0  0
 26 27  1  0  0  0  0
 26 32  1  1  0  0  0
 27 28  1  0  0  0  0
 27 29  1  6  0  0  0
 29 30  1  0  0  0  0
 31 32  1  6  0  0  0
 31 40  1  0  0  0  0
 33 31  1  0  0  0  0
 33 42  1  1  0  0  0
 35 33  1  0  0  0  0
 35 36  1  1  0  0  0
 37 35  1  0  0  0  0
 37 38  1  6  0  0  0
 37 39  1  0  0  0  0
 39 40  1  0  0  0  0
 39 41  1  1  0  0  0
 41 34  1  0  0  0  0
M  END
>  <CHROM.1>
-177.78310550,67.37342755,179.73425008,172.03756503,-178.36273657,167.65034688
65.57745436,-67.12859854,177.79230113,-0.55952321,96.00245693,9.92107637
-2.89595465,0.47041447,1.99628305

>  <Name>
2fcy_lig

>  <RI>
2.32494e+07

>  <Rbt.Current_Directory>
/home/itssahil/PROJECTS/Mol_Feturizer/New_Systems/rnas/2fcy

>  <Rbt.Executable>
rbdock ($Id: //depot/dev/client3/rdock/2013.1/src/exe/rbdock.cxx#4 $)

>  <Rbt.Library>
libRbt.so (2013.1, Build901 2013/11/27)

>  <Rbt.Parameter_File>
/export/apps/rDock/src/rDock_2013.1_src/data/scripts/dock_solv.prm

>  <Rbt.Receptor>
prm/pocket_docking_8.prm

>  <SCORE>
-10.0362

>  <SCORE.INTER>
-4.14063

>  <SCORE.INTER.CONST>
1

>  <SCORE.INTER.POLAR>
-1.02748

>  <SCORE.INTER.ROT>
9

>  <SCORE.INTER.SOLV>
15.0832

>  <SCORE.INTER.VDW>
-13.9632

>  <SCORE.INTER.norm>
-0.0985863

>  <SCORE.INTRA>
-5.89557

>  <SCORE.INTRA.DIHEDRAL>
-15.1066

>  <SCORE.INTRA.DIHEDRAL.0>
17.3446

>  <SCORE.INTRA.POLAR>
0

>  <SCORE.INTRA.POLAR.0>
0

>  <SCORE.INTRA.REPUL>
0

>  <SCORE.INTRA.REPUL.0>
0

>  <SCORE.INTRA.SOLV>
-3.32385

>  <SCORE.INTRA.SOLV.lig_0>
-112.452

>  <SCORE.INTRA.VDW>
3.31964

>  <SCORE.INTRA.VDW.0>
-5.95059

>  <SCORE.INTRA.norm>
-0.140371

>  <SCORE.RESTR>
0

>  <SCORE.RESTR.CAVITY>
0

>  <SCORE.RESTR.norm>
0

>  <SCORE.SYSTEM>
0

>  <SCORE.SYSTEM.CONST>
0

>  <SCORE.SYSTEM.DIHEDRAL>
0

>  <SCORE.SYSTEM.SOLV>
0

>  <SCORE.SYSTEM.norm>
0

>  <SCORE.heavy>
42

>  <SCORE.norm>
-0.238957

>  <RMSD>
9.766

$$$$
2fcy_lig
 OpenBabel11021811433D
libRbt.so/2013.1/901 2013/11/27
 42 45  0  0  0  0  0  0  0  0999 V2000
   -2.3677   91.0274    4.6278 C   0  0  2  0  0  0  0  0  0  0  0  0
   -2.8556   90.5850    5.9059 O   0  0  0  0  0  0  0  0  0  0  0  0
   -1.0453   91.7377    4.9202 C   0  0  2  0  0  0  0  0  0  0  0  0
   -0.1726   90.8204    5.6658 N   0  0  0  0  0  0  0  0  0  0  0  0
   -1.3105   92.9867    5.7646 C   0  0  1  0  0  0  0  0  0  0  0  0
   -0.0870   93.6712    6.0478 O   0  0  0  0  0  0  0  0  0  0  0  0
   -2.2787   93.9060    5.0195 C   0  0  2  0  0  0  0  0  0  0  0  0
   -2.5997   95.0225    5.8490 O   0  0  0  0  0  0  0  0  0  0  0  0
   -3.5700   93.1366    4.7372 C   0  0  2  0  0  0  0  0  0  0  0  0
   -3.2679   91.9520    3.9834 O   0  0  0  0  0  0  0  0  0  0  0  0
   -4.5442   94.0445    3.9819 C   0  0  0  0  0  0  0  0  0  0  0  0
   -5.2243   94.9678    4.9025 N   0  0  0  0  0  0  0  0  0  0  0  0
   -2.8153   86.8664    7.8595 C   0  0  2  0  0  0  0  0  0  0  0  0
   -2.5436   85.5377    8.4285 N   0  0  0  0  0  0  0  0  0  0  0  0
   -2.7099   86.8363    6.3335 C   0  0  0  0  0  0  0  0  0  0  0  0
   -3.1312   88.2071    5.7944 C   0  0  2  0  0  0  0  0  0  0  0  0
   -2.9544   88.2301    4.3353 N   0  0  0  0  0  0  0  0  0  0  0  0
   -2.2975   89.3484    6.3842 C   0  0  2  0  0  0  0  0  0  0  0  0
   -2.1527   89.3124    7.9015 C   0  0  2  0  0  0  0  0  0  0  0  0
   -1.0567   90.1905    8.2048 O   0  0  0  0  0  0  0  0  0  0  0  0
   -1.8313   87.9011    8.4108 C   0  0  1  0  0  0  0  0  0  0  0  0
   -1.8942   87.8482    9.8385 O   0  0  0  0  0  0  0  0  0  0  0  0
   -0.9913   90.6602    9.5610 C   0  0  1  0  0  0  0  0  0  0  0  0
    0.4799   90.6593    9.9796 C   0  0  2  0  0  0  0  0  0  0  0  0
    0.8545   89.3510   10.4173 O   0  0  0  0  0  0  0  0  0  0  0  0
    0.3814   91.5912   11.1839 C   0  0  1  0  0  0  0  0  0  0  0  0
   -0.4900   92.6953   10.6061 C   0  0  2  0  0  0  0  0  0  0  0  0
   -1.4092   92.0322    9.7138 O   0  0  0  0  0  0  0  0  0  0  0  0
    0.3999   93.7001    9.8654 C   0  0  0  0  0  0  0  0  0  0  0  0
    1.4745   93.0269    9.2034 O   0  0  0  0  0  0  0  0  0  0  0  0
   -0.2417   91.7406   13.4395 C   0  0  2  0  0  0  0  0  0  0  0  0
   -0.3083   90.9298   12.2564 O   0  0  0  0  0  0  0  0  0  0  0  0
    1.1178   91.5457   14.1185 C   0  0  1  0  0  0  0  0  0  0  0  0
   -3.7776   91.9553   15.5534 N   0  0  0  0  0  0  0  0  0  0  0  0
    1.1727   92.3232   15.4379 C   0  0  1  0  0  0  0  0  0  0  0  0
    1.1682   93.7318   15.1845 O   0  0  0  0  0  0  0  0  0  0  0  0
   -0.0277   91.9482   16.3112 C   0  0  2  0  0  0  0  0  0  0  0  0
    0.0904   90.5702   16.6810 O   0  0  0  0  0  0  0  0  0  0  0  0
   -1.3240   92.1722   15.5254 C   0  0  1  0  0  0  0  0  0  0  0  0
   -1.3141   91.3757   14.3261 O   0  0  0  0  0  0  0  0  0  0  0  0
   -2.5579   91.8303   16.3649 C   0  0  0  0  0  0  0  0  0  0  0  0
    1.2968   90.1161   14.4140 N   0  0  0  0  0  0  0  0  0  0  0  0
  1  2  1  1  0  0  0
  1  3  1  0  0  0  0
  1 10  1  0  0  0  0
  3  4  1  1  0  0  0
  3  5  1  0  0  0  0
  5  6  1  6  0  0  0
  5  7  1  0  0  0  0
  7  8  1  1  0  0  0
  7  9  1  0  0  0  0
  9 10  1  0  0  0  0
  9 11  1  6  0  0  0
 11 12  1  0  0  0  0
 13 14  1  1  0  0  0
 13 15  1  0  0  0  0
 13 21  1  0  0  0  0
 16 15  1  0  0  0  0
 16 17  1  6  0  0  0
 18  2  1  1  0  0  0
 18 16  1  0  0  0  0
 19 18  1  0  0  0  0
 19 20  1  6  0  0  0
 21 19  1  0  0  0  0
 21 22  1  1  0  0  0
 23 20  1  6  0  0  0
 23 24  1  0  0  0  0
 23 28  1  0  0  0  0
 24 25  1  1  0  0  0
 24 26  1  0  0  0  0
 26 27  1  0  0  0  0
 26 32  1  1  0  0  0
 27 28  1  0  0  0  0
 27 29  1  6  0  0  0
 29 30  1  0  0  0  0
 31 32  1  6  0  0  0
 31 40  1  0  0  0  0
 33 31  1  0  0  0  0
 33 42  1  1  0  0  0
 35 33  1  0  0  0  0
 35 36  1  6  0  0  0
 37 35  1  0  0  0  0
 37 38  1  6  0  0  0
 37 39  1  0  0  0  0
 39 40  1  0  0  0  0
 39 41  1  1  0  0  0
 41 34  1  0  0  0  0
M  END
>  <CHROM.1>
-82.48851877,-79.60906027,-86.17383648,160.79929092,140.22155216,172.39951664
36.51943797,-80.41564567,-175.64576858,-1.33413262,91.16647057,9.42539862
-2.86456504,1.30936140,2.82599398

>  <Name>
2fcy_lig

>  <RI>
224

>  <Rbt.Current_Directory>
/home/itssahil/PROJECTS/Mol_Feturizer/New_Systems/rnas/2fcy

>  <Rbt.Executable>
rbdock ($Id: //depot/dev/client3/rdock/2013.1/src/exe/rbdock.cxx#4 $)

>  <Rbt.Library>
libRbt.so (2013.1, Build901 2013/11/27)

>  <Rbt.Parameter_File>
/export/apps/rDock/src/rDock_2013.1_src/data/scripts/dock_solv.prm

>  <Rbt.Receptor>
prm/pocket_docking_6.prm

>  <SCORE>
-14.528

>  <SCORE.INTER>
-18.4715

>  <SCORE.INTER.CONST>
1

>  <SCORE.INTER.POLAR>
-3.25745

>  <SCORE.INTER.ROT>
9

>  <SCORE.INTER.SOLV>
22.2097

>  <SCORE.INTER.VDW>
-18.4594

>  <SCORE.INTER.norm>
-0.439799

>  <SCORE.INTRA>
3.90207

>  <SCORE.INTRA.DIHEDRAL>
0.400186

>  <SCORE.INTRA.DIHEDRAL.0>
17.3446

>  <SCORE.INTRA.POLAR>
0

>  <SCORE.INTRA.POLAR.0>
0

>  <SCORE.INTRA.REPUL>
0.012207

>  <SCORE.INTRA.REPUL.0>
0

>  <SCORE.INTRA.SOLV>
0.773892

>  <SCORE.INTRA.SOLV.lig_0>
-112.452

>  <SCORE.INTRA.VDW>
3.25399

>  <SCORE.INTRA.VDW.0>
-5.95059

>  <SCORE.INTRA.norm>
0.0929064

>  <SCORE.RESTR>
0.0414827

>  <SCORE.RESTR.CAVITY>
0.0414827

>  <SCORE.RESTR.norm>
0.000987683

>  <SCORE.SYSTEM>
0

>  <SCORE.SYSTEM.CONST>
0

>  <SCORE.SYSTEM.DIHEDRAL>
0

>  <SCORE.SYSTEM.SOLV>
0

>  <SCORE.SYSTEM.norm>
0

>  <SCORE.heavy>
42

>  <SCORE.norm>
-0.345905

>  <RMSD>
9.804

$$$$
2fcy_lig
 OpenBabel11021811433D
libRbt.so/2013.1/901 2013/11/27
 42 45  0  0  0  0  0  0  0  0999 V2000
   -3.3687   89.9539    4.5802 C   0  0  2  0  0  0  0  0  0  0  0  0
   -3.7988   89.1649    5.7027 O   0  0  0  0  0  0  0  0  0  0  0  0
   -4.6373   90.6112    4.0345 C   0  0  2  0  0  0  0  0  0  0  0  0
   -5.2968   91.3409    5.1260 N   0  0  0  0  0  0  0  0  0  0  0  0
   -5.5830   89.5332    3.4990 C   0  0  1  0  0  0  0  0  0  0  0  0
   -6.7766   90.1249    2.9785 O   0  0  0  0  0  0  0  0  0  0  0  0
   -4.8688   88.7255    2.4148 C   0  0  2  0  0  0  0  0  0  0  0  0
   -5.7174   87.6609    1.9856 O   0  0  0  0  0  0  0  0  0  0  0  0
   -3.6015   88.1119    3.0121 C   0  0  2  0  0  0  0  0  0  0  0  0
   -2.7672   89.1540    3.5416 O   0  0  0  0  0  0  0  0  0  0  0  0
   -2.8720   87.3084    1.9323 C   0  0  0  0  0  0  0  0  0  0  0  0
   -2.3716   88.1907    0.8676 N   0  0  0  0  0  0  0  0  0  0  0  0
   -1.9192   87.8738    9.2307 C   0  0  2  0  0  0  0  0  0  0  0  0
   -1.0593   87.3270   10.2911 N   0  0  0  0  0  0  0  0  0  0  0  0
   -2.2957   86.7872    8.2215 C   0  0  0  0  0  0  0  0  0  0  0  0
   -3.2933   87.3824    7.2226 C   0  0  2  0  0  0  0  0  0  0  0  0
   -3.6028   86.3819    6.1911 N   0  0  0  0  0  0  0  0  0  0  0  0
   -2.7430   88.6256    6.5175 C   0  0  2  0  0  0  0  0  0  0  0  0
   -2.1247   89.6634    7.4476 C   0  0  2  0  0  0  0  0  0  0  0  0
   -1.3442   90.5229    6.6013 O   0  0  0  0  0  0  0  0  0  0  0  0
   -1.2120   89.0166    8.4980 C   0  0  1  0  0  0  0  0  0  0  0  0
   -0.8012   89.9759    9.4757 O   0  0  0  0  0  0  0  0  0  0  0  0
   -0.9942   91.7987    7.1616 C   0  0  1  0  0  0  0  0  0  0  0  0
    0.5127   91.9860    6.9778 C   0  0  2  0  0  0  0  0  0  0  0  0
    1.2117   91.3310    8.0390 O   0  0  0  0  0  0  0  0  0  0  0  0
    0.5867   93.4973    7.1751 C   0  0  1  0  0  0  0  0  0  0  0  0
   -0.5855   93.9440    6.3158 C   0  0  2  0  0  0  0  0  0  0  0  0
   -1.5844   92.9138    6.4627 O   0  0  0  0  0  0  0  0  0  0  0  0
   -0.1175   94.0821    4.8625 C   0  0  0  0  0  0  0  0  0  0  0  0
    0.2812   92.8115    4.3401 O   0  0  0  0  0  0  0  0  0  0  0  0
    0.6732   95.1981    8.7870 C   0  0  2  0  0  0  0  0  0  0  0  0
    0.3394   93.8215    8.5525 O   0  0  0  0  0  0  0  0  0  0  0  0
    0.7499   95.4569   10.2951 C   0  0  1  0  0  0  0  0  0  0  0  0
   -0.9718   97.9582    6.1298 N   0  0  0  0  0  0  0  0  0  0  0  0
    1.0048   96.9428   10.5702 C   0  0  1  0  0  0  0  0  0  0  0  0
    2.3199   97.3088   10.1402 O   0  0  0  0  0  0  0  0  0  0  0  0
   -0.0371   97.7921    9.8369 C   0  0  2  0  0  0  0  0  0  0  0  0
   -1.3249   97.5203   10.4000 O   0  0  0  0  0  0  0  0  0  0  0  0
   -0.0303   97.4383    8.3459 C   0  0  1  0  0  0  0  0  0  0  0  0
   -0.3194   96.0386    8.1728 O   0  0  0  0  0  0  0  0  0  0  0  0
   -1.0436   98.2779    7.5631 C   0  0  0  0  0  0  0  0  0  0  0  0
   -0.5367   95.0859   10.9035 N   0  0  0  0  0  0  0  0  0  0  0  0
  1  2  1  1  0  0  0
  1  3  1  0  0  0  0
  1 10  1  0  0  0  0
  3  4  1  1  0  0  0
  3  5  1  0  0  0  0
  5  6  1  6  0  0  0
  5  7  1  0  0  0  0
  7  8  1  1  0  0  0
  7  9  1  0  0  0  0
  9 10  1  0  0  0  0
  9 11  1  6  0  0  0
 11 12  1  0  0  0  0
 13 14  1  1  0  0  0
 13 15  1  0  0  0  0
 13 21  1  0  0  0  0
 16 15  1  0  0  0  0
 16 17  1  6  0  0  0
 18  2  1  1  0  0  0
 18 16  1  0  0  0  0
 19 18  1  0  0  0  0
 19 20  1  6  0  0  0
 21 19  1  0  0  0  0
 21 22  1  1  0  0  0
 23 20  1  6  0  0  0
 23 24  1  0  0  0  0
 23 28  1  0  0  0  0
 24 25  1  1  0  0  0
 24 26  1  0  0  0  0
 26 27  1  0  0  0  0
 26 32  1  1  0  0  0
 27 28  1  0  0  0  0
 27 29  1  6  0  0  0
 29 30  1  0  0  0  0
 31 32  1  1  0  0  0
 31 40  1  0  0  0  0
 33 31  1  0  0  0  0
 33 42  1  1  0  0  0
 35 33  1  0  0  0  0
 35 36  1  6  0  0  0
 37 35  1  0  0  0  0
 37 38  1  1  0  0  0
 37 39  1  0  0  0  0
 39 40  1  0  0  0  0
 39 41  1  6  0  0  0
 41 34  1  0  0  0  0
M  END
>  <CHROM.1>
-170.05586403,65.92810217,-155.37352725,161.86478324,129.66283160,168.44250315
64.26298272,-165.94012350,177.51606434,-1.70752233,91.79505315,6.66638484
2.54424423,1.05871923,2.78560611

>  <Name>
2fcy_lig

>  <RI>
2.89127e+07

>  <Rbt.Current_Directory>
/home/itssahil/PROJECTS/Mol_Feturizer/New_Systems/rnas/2fcy

>  <Rbt.Executable>
rbdock ($Id: //depot/dev/client3/rdock/2013.1/src/exe/rbdock.cxx#4 $)

>  <Rbt.Library>
libRbt.so (2013.1, Build901 2013/11/27)

>  <Rbt.Parameter_File>
/export/apps/rDock/src/rDock_2013.1_src/data/scripts/dock_solv.prm

>  <Rbt.Receptor>
prm/pocket_docking_7.prm

>  <SCORE>
-9.21113

>  <SCORE.INTER>
-7.80153

>  <SCORE.INTER.CONST>
1

>  <SCORE.INTER.POLAR>
-0.885383

>  <SCORE.INTER.ROT>
9

>  <SCORE.INTER.SOLV>
20.6023

>  <SCORE.INTER.VDW>
-18.7172

>  <SCORE.INTER.norm>
-0.185751

>  <SCORE.INTRA>
-1.4096

>  <SCORE.INTRA.DIHEDRAL>
-3.90687

>  <SCORE.INTRA.DIHEDRAL.0>
17.3446

>  <SCORE.INTRA.POLAR>
0

>  <SCORE.INTRA.POLAR.0>
0

>  <SCORE.INTRA.REPUL>
0.036603

>  <SCORE.INTRA.REPUL.0>
0

>  <SCORE.INTRA.SOLV>
-2.10647

>  <SCORE.INTRA.SOLV.lig_0>
-112.452

>  <SCORE.INTRA.VDW>
1.41406

>  <SCORE.INTRA.VDW.0>
-5.95059

>  <SCORE.INTRA.norm>
-0.0335618

>  <SCORE.RESTR>
0

>  <SCORE.RESTR.CAVITY>
0

>  <SCORE.RESTR.norm>
0

>  <SCORE.SYSTEM>
0

>  <SCORE.SYSTEM.CONST>
0

>  <SCORE.SYSTEM.DIHEDRAL>
0

>  <SCORE.SYSTEM.SOLV>
0

>  <SCORE.SYSTEM.norm>
0

>  <SCORE.heavy>
42

>  <SCORE.norm>
-0.219313

>  <RMSD>
9.809

$$$$
2fcy_lig
 OpenBabel11021811433D
libRbt.so/2013.1/901 2013/11/27
 42 45  0  0  0  0  0  0  0  0999 V2000
   -3.3691   96.0977    8.5088 C   0  0  2  0  0  0  0  0  0  0  0  0
   -4.1132   95.2482    9.3988 O   0  0  0  0  0  0  0  0  0  0  0  0
   -4.4124   96.9768    7.8177 C   0  0  2  0  0  0  0  0  0  0  0  0
   -5.2118   97.6564    8.8462 N   0  0  0  0  0  0  0  0  0  0  0  0
   -5.3282   96.1037    6.9560 C   0  0  1  0  0  0  0  0  0  0  0  0
   -6.3112   96.9055    6.2952 O   0  0  0  0  0  0  0  0  0  0  0  0
   -4.4855   95.3393    5.9346 C   0  0  2  0  0  0  0  0  0  0  0  0
   -5.3286   94.4542    5.1974 O   0  0  0  0  0  0  0  0  0  0  0  0
   -3.4499   94.4974    6.6816 C   0  0  2  0  0  0  0  0  0  0  0  0
   -2.6448   95.3507    7.5099 O   0  0  0  0  0  0  0  0  0  0  0  0
   -2.5930   93.7345    5.6680 C   0  0  0  0  0  0  0  0  0  0  0  0
   -1.7534   94.6568    4.8888 N   0  0  0  0  0  0  0  0  0  0  0  0
   -2.6002   93.2881   12.7922 C   0  0  2  0  0  0  0  0  0  0  0  0
   -1.9608   92.4202   13.7926 N   0  0  0  0  0  0  0  0  0  0  0  0
   -3.5676   92.4885   11.9174 C   0  0  0  0  0  0  0  0  0  0  0  0
   -4.2970   93.4649   10.9891 C   0  0  2  0  0  0  0  0  0  0  0  0
   -5.1688   92.7093   10.0781 N   0  0  0  0  0  0  0  0  0  0  0  0
   -3.3312   94.2904   10.1340 C   0  0  2  0  0  0  0  0  0  0  0  0
   -2.1850   94.9319   10.9082 C   0  0  2  0  0  0  0  0  0  0  0  0
   -1.2143   95.3081    9.9180 O   0  0  0  0  0  0  0  0  0  0  0  0
   -1.5471   93.9507   11.9006 C   0  0  1  0  0  0  0  0  0  0  0  0
   -0.6129   94.6214   12.7506 O   0  0  0  0  0  0  0  0  0  0  0  0
   -0.0626   96.0121   10.4102 C   0  0  1  0  0  0  0  0  0  0  0  0
    0.7860   96.4111    9.2018 C   0  0  2  0  0  0  0  0  0  0  0  0
    1.6219   95.3164    8.8188 O   0  0  0  0  0  0  0  0  0  0  0  0
    1.6349   97.4952    9.8594 C   0  0  1  0  0  0  0  0  0  0  0  0
    0.5630   98.2591   10.6207 C   0  0  2  0  0  0  0  0  0  0  0  0
   -0.3857   97.2622   11.0529 O   0  0  0  0  0  0  0  0  0  0  0  0
   -0.0785   99.2895    9.6843 C   0  0  0  0  0  0  0  0  0  0  0  0
   -1.0048  100.1113   10.4007 O   0  0  0  0  0  0  0  0  0  0  0  0
    3.6533   97.7994   11.0136 C   0  0  2  0  0  0  0  0  0  0  0  0
    2.5612   96.8970   10.7800 O   0  0  0  0  0  0  0  0  0  0  0  0
    4.7348   97.0928   11.8370 C   0  0  1  0  0  0  0  0  0  0  0  0
    2.8934  100.8760   13.7979 N   0  0  0  0  0  0  0  0  0  0  0  0
    5.8644   98.0681   12.1850 C   0  0  1  0  0  0  0  0  0  0  0  0
    6.5847   98.4351   11.0039 O   0  0  0  0  0  0  0  0  0  0  0  0
    5.2831   99.3192   12.8492 C   0  0  2  0  0  0  0  0  0  0  0  0
    4.7096   98.9434   14.1059 O   0  0  0  0  0  0  0  0  0  0  0  0
    4.2087   99.9294   11.9427 C   0  0  1  0  0  0  0  0  0  0  0  0
    3.1667   98.9658   11.7005 O   0  0  0  0  0  0  0  0  0  0  0  0
    3.6095  101.1985   12.5549 C   0  0  0  0  0  0  0  0  0  0  0  0
    4.1343   96.6114   13.0903 N   0  0  0  0  0  0  0  0  0  0  0  0
  1  2  1  1  0  0  0
  1  3  1  0  0  0  0
  1 10  1  0  0  0  0
  3  4  1  1  0  0  0
  3  5  1  0  0  0  0
  5  6  1  6  0  0  0
  5  7  1  0  0  0  0
  7  8  1  1  0  0  0
  7  9  1  0  0  0  0
  9 10  1  0  0  0  0
  9 11  1  6  0  0  0
 11 12  1  0  0  0  0
 13 14  1  1  0  0  0
 13 15  1  0  0  0  0
 13 21  1  0  0  0  0
 16 15  1  0  0  0  0
 16 17  1  6  0  0  0
 18  2  1  1  0  0  0
 18 16  1  0  0  0  0
 19 18  1  0  0  0  0
 19 20  1  6  0  0  0
 21 19  1  0  0  0  0
 21 22  1  1  0  0  0
 23 20  1  6  0  0  0
 23 24  1  0  0  0  0
 23 28  1  0  0  0  0
 24 25  1  1  0  0  0
 24 26  1  0  0  0  0
 26 27  1  0  0  0  0
 26 32  1  1  0  0  0
 27 28  1  0  0  0  0
 27 29  1  6  0  0  0
 29 30  1  0  0  0  0
 31 32  1  1  0  0  0
 31 40  1  0  0  0  0
 33 31  1  0  0  0  0
 33 42  1  1  0  0  0
 35 33  1  0  0  0  0
 35 36  1  6  0  0  0
 37 35  1  0  0  0  0
 37 38  1  1  0  0  0
 37 39  1  0  0  0  0
 39 40  1  0  0  0  0
 39 41  1  1  0  0  0
 41 34  1  0  0  0  0
M  END
>  <CHROM.1>
177.98960809,67.62371346,-178.55311703,176.50189338,-175.78793722,158.77450473
-174.61123613,-172.19958249,-64.64631994,-0.49031745,96.41898036,10.12846767
-3.04257876,0.59678723,2.23062845

>  <Name>
2fcy_lig

>  <RI>
224

>  <Rbt.Current_Directory>
/home/itssahil/PROJECTS/Mol_Feturizer/New_Systems/rnas/2fcy

>  <Rbt.Executable>
rbdock ($Id: //depot/dev/client3/rdock/2013.1/src/exe/rbdock.cxx#4 $)

>  <Rbt.Library>
libRbt.so (2013.1, Build901 2013/11/27)

>  <Rbt.Parameter_File>
/export/apps/rDock/src/rDock_2013.1_src/data/scripts/dock_solv.prm

>  <Rbt.Receptor>
prm/pocket_docking_6.prm

>  <SCORE>
-10.625

>  <SCORE.INTER>
-5.18529

>  <SCORE.INTER.CONST>
1

>  <SCORE.INTER.POLAR>
-0.959166

>  <SCORE.INTER.ROT>
9

>  <SCORE.INTER.SOLV>
12.3759

>  <SCORE.INTER.VDW>
-13.9849

>  <SCORE.INTER.norm>
-0.123459

>  <SCORE.INTRA>
-5.45515

>  <SCORE.INTRA.DIHEDRAL>
-14.007

>  <SCORE.INTRA.DIHEDRAL.0>
17.3446

>  <SCORE.INTRA.POLAR>
0

>  <SCORE.INTRA.POLAR.0>
0

>  <SCORE.INTRA.REPUL>
0

>  <SCORE.INTRA.REPUL.0>
0

>  <SCORE.INTRA.SOLV>
-2.9875

>  <SCORE.INTRA.SOLV.lig_0>
-112.452

>  <SCORE.INTRA.VDW>
3.0421

>  <SCORE.INTRA.VDW.0>
-5.95059

>  <SCORE.INTRA.norm>
-0.129885

>  <SCORE.RESTR>
0.0154223

>  <SCORE.RESTR.CAVITY>
0.0154223

>  <SCORE.RESTR.norm>
0.000367199

>  <SCORE.SYSTEM>
0

>  <SCORE.SYSTEM.CONST>
0

>  <SCORE.SYSTEM.DIHEDRAL>
0

>  <SCORE.SYSTEM.SOLV>
0

>  <SCORE.SYSTEM.norm>
0

>  <SCORE.heavy>
42

>  <SCORE.norm>
-0.252976

>  <RMSD>
9.810

$$$$
2fcy_lig
 OpenBabel11021811433D
libRbt.so/2013.1/901 2013/11/27
 42 45  0  0  0  0  0  0  0  0999 V2000
    1.7767   96.1210   13.5683 C   0  0  2  0  0  0  0  0  0  0  0  0
    2.7782   95.9044   14.5769 O   0  0  0  0  0  0  0  0  0  0  0  0
    1.9269   94.9564   12.5884 C   0  0  2  0  0  0  0  0  0  0  0  0
    1.8320   93.6956   13.3369 N   0  0  0  0  0  0  0  0  0  0  0  0
    3.2922   95.0382   11.9009 C   0  0  1  0  0  0  0  0  0  0  0  0
    3.4544   93.9601   10.9752 O   0  0  0  0  0  0  0  0  0  0  0  0
    3.4191   96.3831   11.1846 C   0  0  2  0  0  0  0  0  0  0  0  0
    4.7279   96.4970   10.6263 O   0  0  0  0  0  0  0  0  0  0  0  0
    3.2395   97.5053   12.2081 C   0  0  2  0  0  0  0  0  0  0  0  0
    1.9673   97.3623   12.8589 O   0  0  0  0  0  0  0  0  0  0  0  0
    3.3546   98.8578   11.5002 C   0  0  0  0  0  0  0  0  0  0  0  0
    2.2793   99.0276   10.5116 N   0  0  0  0  0  0  0  0  0  0  0  0
    3.3023   96.6864   18.6708 C   0  0  2  0  0  0  0  0  0  0  0  0
    3.2159   97.0455   20.0944 N   0  0  0  0  0  0  0  0  0  0  0  0
    2.9606   97.8865   17.7855 C   0  0  0  0  0  0  0  0  0  0  0  0
    3.1963   97.4899   16.3246 C   0  0  2  0  0  0  0  0  0  0  0  0
    2.7912   98.5991   15.4491 N   0  0  0  0  0  0  0  0  0  0  0  0
    2.3890   96.2540   15.9170 C   0  0  2  0  0  0  0  0  0  0  0  0
    2.4873   95.0814   16.8865 C   0  0  2  0  0  0  0  0  0  0  0  0
    1.3947   94.2111   16.5505 O   0  0  0  0  0  0  0  0  0  0  0  0
    2.3481   95.5345   18.3459 C   0  0  1  0  0  0  0  0  0  0  0  0
    2.6382   94.4592   19.2428 O   0  0  0  0  0  0  0  0  0  0  0  0
    1.7588   92.8822   16.1434 C   0  0  1  0  0  0  0  0  0  0  0  0
    2.0743   92.0819   17.4081 C   0  0  2  0  0  0  0  0  0  0  0  0
    3.4249   92.3269   17.8077 O   0  0  0  0  0  0  0  0  0  0  0  0
    1.9611   90.6747   16.8292 C   0  0  1  0  0  0  0  0  0  0  0  0
    0.6747   90.8094   16.0297 C   0  0  2  0  0  0  0  0  0  0  0  0
    0.6798   92.1580   15.5177 O   0  0  0  0  0  0  0  0  0  0  0  0
   -0.5200   90.5551   16.9562 C   0  0  0  0  0  0  0  0  0  0  0  0
   -0.7993   91.7150   17.7456 O   0  0  0  0  0  0  0  0  0  0  0  0
    4.0459   89.6209   16.6247 C   0  0  2  0  0  0  0  0  0  0  0  0
    3.0654   90.4208   15.9463 O   0  0  0  0  0  0  0  0  0  0  0  0
    3.7228   88.1366   16.4260 C   0  0  1  0  0  0  0  0  0  0  0  0
    5.4523   91.1334   20.2466 N   0  0  0  0  0  0  0  0  0  0  0  0
    4.6975   87.2656   17.2258 C   0  0  1  0  0  0  0  0  0  0  0  0
    6.0142   87.3580   16.6727 O   0  0  0  0  0  0  0  0  0  0  0  0
    4.7154   87.7166   18.6889 C   0  0  2  0  0  0  0  0  0  0  0  0
    3.4275   87.4623   19.2601 O   0  0  0  0  0  0  0  0  0  0  0  0
    5.0358   89.2134   18.7607 C   0  0  1  0  0  0  0  0  0  0  0  0
    4.0519   89.9613   18.0222 O   0  0  0  0  0  0  0  0  0  0  0  0
    5.0860   89.7100   20.2082 C   0  0  0  0  0  0  0  0  0  0  0  0
    2.3604   87.8805   16.9175 N   0  0  0  0  0  0  0  0  0  0  0  0
  1  2  1  1  0  0  0
  1  3  1  0  0  0  0
  1 10  1  0  0  0  0
  3  4  1  1  0  0  0
  3  5  1  0  0  0  0
  5  6  1  6  0  0  0
  5  7  1  0  0  0  0
  7  8  1  1  0  0  0
  7  9  1  0  0  0  0
  9 10  1  0  0  0  0
  9 11  1  6  0  0  0
 11 12  1  0  0  0  0
 13 14  1  1  0  0  0
 13 15  1  0  0  0  0
 13 21  1  0  0  0  0
 16 15  1  0  0  0  0
 16 17  1  6  0  0  0
 18  2  1  6  0  0  0
 18 16  1  0  0  0  0
 19 18  1  0  0  0  0
 19 20  1  6  0  0  0
 21 19  1  0  0  0  0
 21 22  1  1  0  0  0
 23 20  1  1  0  0  0
 23 24  1  0  0  0  0
 23 28  1  0  0  0  0
 24 25  1  6  0  0  0
 24 26  1  0  0  0  0
 26 27  1  0  0  0  0
 26 32  1  6  0  0  0
 27 28  1  0  0  0  0
 27 29  1  1  0  0  0
 29 30  1  0  0  0  0
 31 32  1  6  0  0  0
 31 40  1  0  0  0  0
 33 31  1  0  0  0  0
 33 42  1  1  0  0  0
 35 33  1  0  0  0  0
 35 36  1  6  0  0  0
 37 35  1  0  0  0  0
 37 38  1  6  0  0  0
 37 39  1  0  0  0  0
 39 40  1  0  0  0  0
 39 41  1  1  0  0  0
 41 34  1  0  0  0  0
M  END
>  <CHROM.1>
-142.86716371,63.20339732,-110.60530133,119.78468389,78.97595197,101.11182422
79.06582143,88.53982664,177.54913383,2.89312800,93.25245223,15.96216381,-2.50513628
-1.45578105,1.65763919

>  <Name>
2fcy_lig

>  <RI>
9.29634e+06

>  <Rbt.Current_Directory>
/home/itssahil/PROJECTS/Mol_Feturizer/New_Systems/rnas/2fcy

>  <Rbt.Executable>
rbdock ($Id: //depot/dev/client3/rdock/2013.1/src/exe/rbdock.cxx#4 $)

>  <Rbt.Library>
libRbt.so (2013.1, Build901 2013/11/27)

>  <Rbt.Parameter_File>
/export/apps/rDock/src/rDock_2013.1_src/data/scripts/dock_solv.prm

>  <Rbt.Receptor>
prm/blind_docking_100.prm

>  <SCORE>
7.64279

>  <SCORE.INTER>
-10.8107

>  <SCORE.INTER.CONST>
1

>  <SCORE.INTER.POLAR>
-0.838835

>  <SCORE.INTER.ROT>
9

>  <SCORE.INTER.SOLV>
25.0291

>  <SCORE.INTER.VDW>
-22.354

>  <SCORE.INTER.norm>
-0.257397

>  <SCORE.INTRA>
12.0605

>  <SCORE.INTRA.DIHEDRAL>
13.0581

>  <SCORE.INTRA.DIHEDRAL.0>
17.3446

>  <SCORE.INTRA.POLAR>
0

>  <SCORE.INTRA.POLAR.0>
0

>  <SCORE.INTRA.REPUL>
0.0733994

>  <SCORE.INTRA.REPUL.0>
0

>  <SCORE.INTRA.SOLV>
4.56296

>  <SCORE.INTRA.SOLV.lig_0>
-112.452

>  <SCORE.INTRA.VDW>
2.88296

>  <SCORE.INTRA.VDW.0>
-5.95059

>  <SCORE.INTRA.norm>
0.287154

>  <SCORE.RESTR>
6.39301

>  <SCORE.RESTR.CAVITY>
6.39301

>  <SCORE.RESTR.norm>
0.152214

>  <SCORE.SYSTEM>
0

>  <SCORE.SYSTEM.CONST>
0

>  <SCORE.SYSTEM.DIHEDRAL>
0

>  <SCORE.SYSTEM.SOLV>
0

>  <SCORE.SYSTEM.norm>
0

>  <SCORE.heavy>
42

>  <SCORE.norm>
0.181971

>  <RMSD>
9.834

$$$$
2fcy_lig
 OpenBabel11021811433D
libRbt.so/2013.1/901 2013/11/27
 42 45  0  0  0  0  0  0  0  0999 V2000
   -0.9876   89.9465    4.4186 C   0  0  2  0  0  0  0  0  0  0  0  0
   -1.1632   88.7395    5.1799 O   0  0  0  0  0  0  0  0  0  0  0  0
   -2.3997   90.4070    4.0539 C   0  0  2  0  0  0  0  0  0  0  0  0
   -3.1895   90.5267    5.2870 N   0  0  0  0  0  0  0  0  0  0  0  0
   -3.0521   89.3756    3.1299 C   0  0  1  0  0  0  0  0  0  0  0  0
   -4.3741   89.7871    2.7711 O   0  0  0  0  0  0  0  0  0  0  0  0
   -2.1891   89.1967    1.8805 C   0  0  2  0  0  0  0  0  0  0  0  0
   -2.7478   88.1657    1.0666 O   0  0  0  0  0  0  0  0  0  0  0  0
   -0.7879   88.7578    2.3083 C   0  0  2  0  0  0  0  0  0  0  0  0
   -0.2339   89.7306    3.2079 O   0  0  0  0  0  0  0  0  0  0  0  0
    0.0890   88.5851    1.0653 C   0  0  0  0  0  0  0  0  0  0  0  0
    0.0929   89.8088    0.2499 N   0  0  0  0  0  0  0  0  0  0  0  0
    1.0106   86.7839    8.1960 C   0  0  2  0  0  0  0  0  0  0  0  0
    1.9958   86.1527    9.0870 N   0  0  0  0  0  0  0  0  0  0  0  0
    1.0474   86.1459    6.8059 C   0  0  0  0  0  0  0  0  0  0  0  0
   -0.0843   86.7502    5.9685 C   0  0  2  0  0  0  0  0  0  0  0  0
   -0.0145   86.2161    4.6007 N   0  0  0  0  0  0  0  0  0  0  0  0
    0.0056   88.2764    5.8793 C   0  0  2  0  0  0  0  0  0  0  0  0
    0.2133   88.9809    7.2154 C   0  0  2  0  0  0  0  0  0  0  0  0
    0.6541   90.3081    6.8867 O   0  0  0  0  0  0  0  0  0  0  0  0
    1.2828   88.2846    8.0673 C   0  0  1  0  0  0  0  0  0  0  0  0
    1.3229   88.8371    9.3857 O   0  0  0  0  0  0  0  0  0  0  0  0
    0.0732   91.3681    7.6634 C   0  0  1  0  0  0  0  0  0  0  0  0
    0.8597   92.6452    7.3631 C   0  0  2  0  0  0  0  0  0  0  0  0
    2.0315   92.6917    8.1806 O   0  0  0  0  0  0  0  0  0  0  0  0
   -0.1542   93.6685    7.8663 C   0  0  1  0  0  0  0  0  0  0  0  0
   -1.4303   93.1158    7.2515 C   0  0  2  0  0  0  0  0  0  0  0  0
   -1.2825   91.6813    7.2833 O   0  0  0  0  0  0  0  0  0  0  0  0
   -1.5658   93.6440    5.8187 C   0  0  0  0  0  0  0  0  0  0  0  0
   -2.8730   93.3729    5.3048 O   0  0  0  0  0  0  0  0  0  0  0  0
    0.9124   94.2644    9.8678 C   0  0  2  0  0  0  0  0  0  0  0  0
   -0.2332   93.6117    9.2995 O   0  0  0  0  0  0  0  0  0  0  0  0
    1.1635   93.7226   11.2787 C   0  0  1  0  0  0  0  0  0  0  0  0
    1.3786   98.2931    8.9084 N   0  0  0  0  0  0  0  0  0  0  0  0
    2.3197   94.4774   11.9433 C   0  0  1  0  0  0  0  0  0  0  0  0
    3.5541   94.1731   11.2859 O   0  0  0  0  0  0  0  0  0  0  0  0
    2.0570   95.9847   11.8842 C   0  0  2  0  0  0  0  0  0  0  0  0
    0.9065   96.2786   12.6839 O   0  0  0  0  0  0  0  0  0  0  0  0
    1.8091   96.4059   10.4318 C   0  0  1  0  0  0  0  0  0  0  0  0
    0.6838   95.6842    9.8974 O   0  0  0  0  0  0  0  0  0  0  0  0
    1.5612   97.9125   10.3168 C   0  0  0  0  0  0  0  0  0  0  0  0
   -0.0493   93.9272   12.0852 N   0  0  0  0  0  0  0  0  0  0  0  0
  1  2  1  6  0  0  0
  1  3  1  0  0  0  0
  1 10  1  0  0  0  0
  3  4  1  1  0  0  0
  3  5  1  0  0  0  0
  5  6  1  6  0  0  0
  5  7  1  0  0  0  0
  7  8  1  6  0  0  0
  7  9  1  0  0  0  0
  9 10  1  0  0  0  0
  9 11  1  6  0  0  0
 11 12  1  0  0  0  0
 13 14  1  1  0  0  0
 13 15  1  0  0  0  0
 13 21  1  0  0  0  0
 16 15  1  0  0  0  0
 16 17  1  6  0  0  0
 18  2  1  1  0  0  0
 18 16  1  0  0  0  0
 19 18  1  0  0  0  0
 19 20  1  6  0  0  0
 21 19  1  0  0  0  0
 21 22  1  1  0  0  0
 23 20  1  6  0  0  0
 23 24  1  0  0  0  0
 23 28  1  0  0  0  0
 24 25  1  1  0  0  0
 24 26  1  0  0  0  0
 26 27  1  0  0  0  0
 26 32  1  1  0  0  0
 27 28  1  0  0  0  0
 27 29  1  6  0  0  0
 29 30  1  0  0  0  0
 31 32  1  1  0  0  0
 31 40  1  0  0  0  0
 33 31  1  0  0  0  0
 33 42  1  1  0  0  0
 35 33  1  0  0  0  0
 35 36  1  6  0  0  0
 37 35  1  0  0  0  0
 37 38  1  1  0  0  0
 37 39  1  0  0  0  0
 39 40  1  0  0  0  0
 39 41  1  1  0  0  0
 41 34  1  0  0  0  0
M  END
>  <CHROM.1>
-167.07206683,54.68734403,-149.91582998,137.81901251,168.95646166,76.46138477
-168.23588617,-156.09436549,177.81869952,-0.05559160,91.37350995,6.98271920
2.08990176,1.04073203,-2.77833145

>  <Name>
2fcy_lig

>  <RI>
2.32494e+07

>  <Rbt.Current_Directory>
/home/itssahil/PROJECTS/Mol_Feturizer/New_Systems/rnas/2fcy

>  <Rbt.Executable>
rbdock ($Id: //depot/dev/client3/rdock/2013.1/src/exe/rbdock.cxx#4 $)

>  <Rbt.Library>
libRbt.so (2013.1, Build901 2013/11/27)

>  <Rbt.Parameter_File>
/export/apps/rDock/src/rDock_2013.1_src/data/scripts/dock_solv.prm

>  <Rbt.Receptor>
prm/pocket_docking_8.prm

>  <SCORE>
-17.1671

>  <SCORE.INTER>
-17.5776

>  <SCORE.INTER.CONST>
1

>  <SCORE.INTER.POLAR>
-3.63256

>  <SCORE.INTER.ROT>
9

>  <SCORE.INTER.SOLV>
21.8906

>  <SCORE.INTER.VDW>
-16.5067

>  <SCORE.INTER.norm>
-0.418515

>  <SCORE.INTRA>
0.410587

>  <SCORE.INTRA.DIHEDRAL>
-1.95002

>  <SCORE.INTRA.DIHEDRAL.0>
17.3446

>  <SCORE.INTRA.POLAR>
0

>  <SCORE.INTRA.POLAR.0>
0

>  <SCORE.INTRA.REPUL>
0

>  <SCORE.INTRA.REPUL.0>
0

>  <SCORE.INTRA.SOLV>
0.241476

>  <SCORE.INTRA.SOLV.lig_0>
-112.452

>  <SCORE.INTRA.VDW>
1.26486

>  <SCORE.INTRA.VDW.0>
-5.95059

>  <SCORE.INTRA.norm>
0.00977588

>  <SCORE.RESTR>
0

>  <SCORE.RESTR.CAVITY>
0

>  <SCORE.RESTR.norm>
0

>  <SCORE.SYSTEM>
0

>  <SCORE.SYSTEM.CONST>
0

>  <SCORE.SYSTEM.DIHEDRAL>
0

>  <SCORE.SYSTEM.SOLV>
0

>  <SCORE.SYSTEM.norm>
0

>  <SCORE.heavy>
42

>  <SCORE.norm>
-0.408739

>  <RMSD>
9.858

$$$$
2fcy_lig
 OpenBabel11021811433D
libRbt.so/2013.1/901 2013/11/27
 42 45  0  0  0  0  0  0  0  0999 V2000
    0.0805   91.6513   12.6310 C   0  0  2  0  0  0  0  0  0  0  0  0
    0.8872   92.8064   12.3444 O   0  0  0  0  0  0  0  0  0  0  0  0
   -0.1328   90.9590   11.2841 C   0  0  2  0  0  0  0  0  0  0  0  0
    1.1787   90.6996   10.6747 N   0  0  0  0  0  0  0  0  0  0  0  0
   -0.9501   91.8695   10.3641 C   0  0  1  0  0  0  0  0  0  0  0  0
   -1.1666   91.2408    9.0977 O   0  0  0  0  0  0  0  0  0  0  0  0
   -2.2847   92.1998   11.0332 C   0  0  2  0  0  0  0  0  0  0  0  0
   -3.0033   93.1252   10.2178 O   0  0  0  0  0  0  0  0  0  0  0  0
   -2.0079   92.8685   12.3806 C   0  0  2  0  0  0  0  0  0  0  0  0
   -1.2022   91.9992   13.1914 O   0  0  0  0  0  0  0  0  0  0  0  0
   -3.3378   93.1952   13.0650 C   0  0  0  0  0  0  0  0  0  0  0  0
   -3.1175   93.9310   14.3190 N   0  0  0  0  0  0  0  0  0  0  0  0
    2.8349   95.2892   15.1173 C   0  0  2  0  0  0  0  0  0  0  0  0
    3.2567   96.2581   16.1401 N   0  0  0  0  0  0  0  0  0  0  0  0
    2.0937   95.9901   13.9770 C   0  0  0  0  0  0  0  0  0  0  0  0
    1.7988   94.9554   12.8863 C   0  0  2  0  0  0  0  0  0  0  0  0
    1.0099   95.5869   11.8188 N   0  0  0  0  0  0  0  0  0  0  0  0
    0.9988   93.7612   13.4147 C   0  0  2  0  0  0  0  0  0  0  0  0
    1.5441   93.1482   14.6997 C   0  0  2  0  0  0  0  0  0  0  0  0
    0.4780   92.3404   15.2239 O   0  0  0  0  0  0  0  0  0  0  0  0
    1.9232   94.2221   15.7281 C   0  0  1  0  0  0  0  0  0  0  0  0
    2.6111   93.6425   16.8398 O   0  0  0  0  0  0  0  0  0  0  0  0
    0.7391   91.7066   16.4866 C   0  0  1  0  0  0  0  0  0  0  0  0
   -0.2483   90.5479   16.6347 C   0  0  2  0  0  0  0  0  0  0  0  0
   -1.4923   91.0379   17.1408 O   0  0  0  0  0  0  0  0  0  0  0  0
    0.4730   89.7634   17.7268 C   0  0  1  0  0  0  0  0  0  0  0  0
    1.8970   89.7979   17.1945 C   0  0  2  0  0  0  0  0  0  0  0  0
    2.0386   91.0848   16.5586 O   0  0  0  0  0  0  0  0  0  0  0  0
    2.0886   88.6461   16.2011 C   0  0  0  0  0  0  0  0  0  0  0  0
    1.6589   89.0342   14.8930 O   0  0  0  0  0  0  0  0  0  0  0  0
    1.0578   89.7221   19.9972 C   0  0  2  0  0  0  0  0  0  0  0  0
    0.3950   90.4767   18.9713 O   0  0  0  0  0  0  0  0  0  0  0  0
    0.0735   88.7250   20.6169 C   0  0  1  0  0  0  0  0  0  0  0  0
    3.8224   91.8352   22.2695 N   0  0  0  0  0  0  0  0  0  0  0  0
    0.7309   87.9795   21.7833 C   0  0  1  0  0  0  0  0  0  0  0  0
    1.7634   87.1141   21.3003 O   0  0  0  0  0  0  0  0  0  0  0  0
    1.3183   88.9857   22.7767 C   0  0  2  0  0  0  0  0  0  0  0  0
    0.2437   89.7284   23.3624 O   0  0  0  0  0  0  0  0  0  0  0  0
    2.2736   89.9332   22.0432 C   0  0  1  0  0  0  0  0  0  0  0  0
    1.5694   90.6238   20.9943 O   0  0  0  0  0  0  0  0  0  0  0  0
    2.9048   90.9484   22.9999 C   0  0  0  0  0  0  0  0  0  0  0  0
   -1.0862   89.4668   21.1345 N   0  0  0  0  0  0  0  0  0  0  0  0
  1  2  1  6  0  0  0
  1  3  1  0  0  0  0
  1 10  1  0  0  0  0
  3  4  1  6  0  0  0
  3  5  1  0  0  0  0
  5  6  1  6  0  0  0
  5  7  1  0  0  0  0
  7  8  1  6  0  0  0
  7  9  1  0  0  0  0
  9 10  1  0  0  0  0
  9 11  1  1  0  0  0
 11 12  1  0  0  0  0
 13 14  1  1  0  0  0
 13 15  1  0  0  0  0
 13 21  1  0  0  0  0
 16 15  1  0  0  0  0
 16 17  1  6  0  0  0
 18  2  1  6  0  0  0
 18 16  1  0  0  0  0
 19 18  1  0  0  0  0
 19 20  1  1  0  0  0
 21 19  1  0  0  0  0
 21 22  1  1  0  0  0
 23 20  1  6  0  0  0
 23 24  1  0  0  0  0
 23 28  1  0  0  0  0
 24 25  1  1  0  0  0
 24 26  1  0  0  0  0
 26 27  1  0  0  0  0
 26 32  1  1  0  0  0
 27 28  1  0  0  0  0
 27 29  1  6  0  0  0
 29 30  1  0  0  0  0
 31 32  1  6  0  0  0
 31 40  1  0  0  0  0
 33 31  1  0  0  0  0
 33 42  1  1  0  0  0
 35 33  1  0  0  0  0
 35 36  1  6  0  0  0
 37 35  1  0  0  0  0
 37 38  1  6  0  0  0
 37 39  1  0  0  0  0
 39 40  1  0  0  0  0
 39 41  1  1  0  0  0
 41 34  1  0  0  0  0
M  END
>  <CHROM.1>
168.14213900,-175.74257304,-175.79777953,-176.96422658,-160.43750329,179.10901506
85.47401236,-86.82405308,179.56818443,0.60083802,91.62193253,16.13607352
1.87301170,-0.90229737,-0.99630415

>  <Name>
2fcy_lig

>  <RI>
2.32494e+07

>  <Rbt.Current_Directory>
/home/itssahil/PROJECTS/Mol_Feturizer/New_Systems/rnas/2fcy

>  <Rbt.Executable>
rbdock ($Id: //depot/dev/client3/rdock/2013.1/src/exe/rbdock.cxx#4 $)

>  <Rbt.Library>
libRbt.so (2013.1, Build901 2013/11/27)

>  <Rbt.Parameter_File>
/export/apps/rDock/src/rDock_2013.1_src/data/scripts/dock_solv.prm

>  <Rbt.Receptor>
prm/pocket_docking_8.prm

>  <SCORE>
-14.4209

>  <SCORE.INTER>
-11.1504

>  <SCORE.INTER.CONST>
1

>  <SCORE.INTER.POLAR>
-1.78093

>  <SCORE.INTER.ROT>
9

>  <SCORE.INTER.SOLV>
18.7723

>  <SCORE.INTER.VDW>
-17.3546

>  <SCORE.INTER.norm>
-0.265485

>  <SCORE.INTRA>
-3.2705

>  <SCORE.INTRA.DIHEDRAL>
-9.14712

>  <SCORE.INTRA.DIHEDRAL.0>
17.3446

>  <SCORE.INTRA.POLAR>
0

>  <SCORE.INTRA.POLAR.0>
0

>  <SCORE.INTRA.REPUL>
0

>  <SCORE.INTRA.REPUL.0>
0

>  <SCORE.INTRA.SOLV>
-4.54639

>  <SCORE.INTRA.SOLV.lig_0>
-112.452

>  <SCORE.INTRA.VDW>
3.57625

>  <SCORE.INTRA.VDW.0>
-5.95059

>  <SCORE.INTRA.norm>
-0.0778692

>  <SCORE.RESTR>
0

>  <SCORE.RESTR.CAVITY>
0

>  <SCORE.RESTR.norm>
0

>  <SCORE.SYSTEM>
0

>  <SCORE.SYSTEM.CONST>
0

>  <SCORE.SYSTEM.DIHEDRAL>
0

>  <SCORE.SYSTEM.SOLV>
0

>  <SCORE.SYSTEM.norm>
0

>  <SCORE.heavy>
42

>  <SCORE.norm>
-0.343354

>  <RMSD>
9.937

$$$$
2fcy_lig
 OpenBabel11021811433D
libRbt.so/2013.1/901 2013/11/27
 42 45  0  0  0  0  0  0  0  0999 V2000
    0.9713   94.8023    9.8003 C   0  0  2  0  0  0  0  0  0  0  0  0
   -0.2511   94.3310   10.3928 O   0  0  0  0  0  0  0  0  0  0  0  0
    0.9226   96.3259    9.9234 C   0  0  2  0  0  0  0  0  0  0  0  0
    0.7072   96.6780   11.3335 N   0  0  0  0  0  0  0  0  0  0  0  0
   -0.2329   96.8713    9.0805 C   0  0  1  0  0  0  0  0  0  0  0  0
   -0.2961   98.2970    9.1765 O   0  0  0  0  0  0  0  0  0  0  0  0
   -0.0466   96.4401    7.6255 C   0  0  2  0  0  0  0  0  0  0  0  0
   -1.1735   96.8670    6.8604 O   0  0  0  0  0  0  0  0  0  0  0  0
    0.0159   94.9130    7.5684 C   0  0  2  0  0  0  0  0  0  0  0  0
    1.0832   94.4445    8.4074 O   0  0  0  0  0  0  0  0  0  0  0  0
    0.2125   94.4693    6.1164 C   0  0  0  0  0  0  0  0  0  0  0  0
    0.1792   93.0034    6.0050 N   0  0  0  0  0  0  0  0  0  0  0  0
   -1.9805   90.6867   11.5650 C   0  0  2  0  0  0  0  0  0  0  0  0
   -2.3674   89.2943   11.8379 N   0  0  0  0  0  0  0  0  0  0  0  0
   -1.8657   90.9341   10.0596 C   0  0  0  0  0  0  0  0  0  0  0  0
   -1.5926   92.4250    9.8359 C   0  0  2  0  0  0  0  0  0  0  0  0
   -1.3915   92.6716    8.4008 N   0  0  0  0  0  0  0  0  0  0  0  0
   -0.3395   92.9065   10.5730 C   0  0  2  0  0  0  0  0  0  0  0  0
   -0.2628   92.4896   12.0375 C   0  0  2  0  0  0  0  0  0  0  0  0
    1.1076   92.6843   12.4222 O   0  0  0  0  0  0  0  0  0  0  0  0
   -0.6425   91.0156   12.2317 C   0  0  1  0  0  0  0  0  0  0  0  0
   -0.7558   90.6978   13.6214 O   0  0  0  0  0  0  0  0  0  0  0  0
    1.3494   92.7904   13.8345 C   0  0  1  0  0  0  0  0  0  0  0  0
    2.7674   92.2818   14.0997 C   0  0  2  0  0  0  0  0  0  0  0  0
    2.7540   90.8567   14.2117 O   0  0  0  0  0  0  0  0  0  0  0  0
    2.9838   92.8995   15.4782 C   0  0  1  0  0  0  0  0  0  0  0  0
    2.4583   94.3054   15.2345 C   0  0  2  0  0  0  0  0  0  0  0  0
    1.3581   94.1505   14.3145 O   0  0  0  0  0  0  0  0  0  0  0  0
    3.5813   95.1644   14.6419 C   0  0  0  0  0  0  0  0  0  0  0  0
    3.1555   96.5233   14.5051 O   0  0  0  0  0  0  0  0  0  0  0  0
    2.5620   92.6243   17.7683 C   0  0  2  0  0  0  0  0  0  0  0  0
    2.1632   92.2280   16.4472 O   0  0  0  0  0  0  0  0  0  0  0  0
    1.9608   91.6600   18.7959 C   0  0  1  0  0  0  0  0  0  0  0  0
    2.7760   96.7217   18.4101 N   0  0  0  0  0  0  0  0  0  0  0  0
    2.2895   92.1227   20.2194 C   0  0  1  0  0  0  0  0  0  0  0  0
    3.6915   91.9889   20.4735 O   0  0  0  0  0  0  0  0  0  0  0  0
    1.8652   93.5826   20.4011 C   0  0  2  0  0  0  0  0  0  0  0  0
    0.4391   93.6588   20.3002 O   0  0  0  0  0  0  0  0  0  0  0  0
    2.5157   94.4453   19.3143 C   0  0  1  0  0  0  0  0  0  0  0  0
    2.1231   93.9721   18.0125 O   0  0  0  0  0  0  0  0  0  0  0  0
    2.1379   95.9213   19.4655 C   0  0  0  0  0  0  0  0  0  0  0  0
    0.4988   91.6518   18.6361 N   0  0  0  0  0  0  0  0  0  0  0  0
  1  2  1  6  0  0  0
  1  3  1  0  0  0  0
  1 10  1  0  0  0  0
  3  4  1  1  0  0  0
  3  5  1  0  0  0  0
  5  6  1  6  0  0  0
  5  7  1  0  0  0  0
  7  8  1  6  0  0  0
  7  9  1  0  0  0  0
  9 10  1  0  0  0  0
  9 11  1  6  0  0  0
 11 12  1  0  0  0  0
 13 14  1  6  0  0  0
 13 15  1  0  0  0  0
 13 21  1  0  0  0  0
 16 15  1  0  0  0  0
 16 17  1  6  0  0  0
 18  2  1  1  0  0  0
 18 16  1  0  0  0  0
 19 18  1  0  0  0  0
 19 20  1  6  0  0  0
 21 19  1  0  0  0  0
 21 22  1  1  0  0  0
 23 20  1  6  0  0  0
 23 24  1  0  0  0  0
 23 28  1  0  0  0  0
 24 25  1  1  0  0  0
 24 26  1  0  0  0  0
 26 27  1  0  0  0  0
 26 32  1  1  0  0  0
 27 28  1  0  0  0  0
 27 29  1  6  0  0  0
 29 30  1  0  0  0  0
 31 32  1  6  0  0  0
 31 40  1  0  0  0  0
 33 31  1  0  0  0  0
 33 42  1  1  0  0  0
 35 33  1  0  0  0  0
 35 36  1  6  0  0  0
 37 35  1  0  0  0  0
 37 38  1  6  0  0  0
 37 39  1  0  0  0  0
 39 40  1  0  0  0  0
 39 41  1  1  0  0  0
 41 34  1  0  0  0  0
M  END
>  <CHROM.1>
-171.06155760,-175.84347778,-123.15829329,160.09503169,151.47392665,168.54876604
-175.10449422,-165.29286800,-179.98503434,0.90295268,93.65537714,13.33608895
-2.18321152,1.13771167,2.25831116

>  <Name>
2fcy_lig

>  <RI>
2.89127e+07

>  <Rbt.Current_Directory>
/home/itssahil/PROJECTS/Mol_Feturizer/New_Systems/rnas/2fcy

>  <Rbt.Executable>
rbdock ($Id: //depot/dev/client3/rdock/2013.1/src/exe/rbdock.cxx#4 $)

>  <Rbt.Library>
libRbt.so (2013.1, Build901 2013/11/27)

>  <Rbt.Parameter_File>
/export/apps/rDock/src/rDock_2013.1_src/data/scripts/dock_solv.prm

>  <Rbt.Receptor>
prm/pocket_docking_7.prm

>  <SCORE>
-14.4499

>  <SCORE.INTER>
-14.4148

>  <SCORE.INTER.CONST>
1

>  <SCORE.INTER.POLAR>
-1.22292

>  <SCORE.INTER.ROT>
9

>  <SCORE.INTER.SOLV>
17.2853

>  <SCORE.INTER.VDW>
-20.8952

>  <SCORE.INTER.norm>
-0.343209

>  <SCORE.INTRA>
-0.0350697

>  <SCORE.INTRA.DIHEDRAL>
-2.74022

>  <SCORE.INTRA.DIHEDRAL.0>
17.3446

>  <SCORE.INTRA.POLAR>
0

>  <SCORE.INTRA.POLAR.0>
0

>  <SCORE.INTRA.REPUL>
0.0376732

>  <SCORE.INTRA.REPUL.0>
0

>  <SCORE.INTRA.SOLV>
0.484345

>  <SCORE.INTRA.SOLV.lig_0>
-112.452

>  <SCORE.INTRA.VDW>
0.904504

>  <SCORE.INTRA.VDW.0>
-5.95059

>  <SCORE.INTRA.norm>
-0.000834992

>  <SCORE.RESTR>
0

>  <SCORE.RESTR.CAVITY>
0

>  <SCORE.RESTR.norm>
0

>  <SCORE.SYSTEM>
0

>  <SCORE.SYSTEM.CONST>
0

>  <SCORE.SYSTEM.DIHEDRAL>
0

>  <SCORE.SYSTEM.SOLV>
0

>  <SCORE.SYSTEM.norm>
0

>  <SCORE.heavy>
42

>  <SCORE.norm>
-0.344044

>  <RMSD>
9.965

$$$$
2fcy_lig
 OpenBabel11021811433D
libRbt.so/2013.1/901 2013/11/27
 42 45  0  0  0  0  0  0  0  0999 V2000
   -8.7682   93.2388    7.8188 C   0  0  2  0  0  0  0  0  0  0  0  0
   -9.0763   94.3998    7.0287 O   0  0  0  0  0  0  0  0  0  0  0  0
  -10.0335   92.3800    7.7915 C   0  0  2  0  0  0  0  0  0  0  0  0
  -10.4047   92.1324    6.3917 N   0  0  0  0  0  0  0  0  0  0  0  0
  -11.1718   93.1225    8.4960 C   0  0  1  0  0  0  0  0  0  0  0  0
  -12.3664   92.3361    8.4870 O   0  0  0  0  0  0  0  0  0  0  0  0
  -10.7543   93.4461    9.9309 C   0  0  2  0  0  0  0  0  0  0  0  0
  -11.7772   94.2220   10.5547 O   0  0  0  0  0  0  0  0  0  0  0  0
   -9.4763   94.2855    9.8947 C   0  0  2  0  0  0  0  0  0  0  0  0
   -8.4520   93.5701    9.1865 O   0  0  0  0  0  0  0  0  0  0  0  0
   -9.0426   94.6075   11.3271 C   0  0  0  0  0  0  0  0  0  0  0  0
   -9.9405   95.5988   11.9386 N   0  0  0  0  0  0  0  0  0  0  0  0
   -6.4817   97.1521    5.2013 C   0  0  2  0  0  0  0  0  0  0  0  0
   -5.5080   98.1889    4.8273 N   0  0  0  0  0  0  0  0  0  0  0  0
   -7.5907   97.7382    6.0773 C   0  0  0  0  0  0  0  0  0  0  0  0
   -8.6383   96.6474    6.3221 C   0  0  2  0  0  0  0  0  0  0  0  0
   -9.6703   97.1615    7.2340 N   0  0  0  0  0  0  0  0  0  0  0  0
   -8.0363   95.3912    6.9584 C   0  0  2  0  0  0  0  0  0  0  0  0
   -6.7730   94.8760    6.2779 C   0  0  2  0  0  0  0  0  0  0  0  0
   -6.1677   93.9758    7.2198 O   0  0  0  0  0  0  0  0  0  0  0  0
   -5.7935   96.0129    5.9572 C   0  0  1  0  0  0  0  0  0  0  0  0
   -4.7125   95.5409    5.1487 O   0  0  0  0  0  0  0  0  0  0  0  0
   -4.9536   93.3425    6.7850 C   0  0  1  0  0  0  0  0  0  0  0  0
   -4.5848   92.2858    7.8277 C   0  0  2  0  0  0  0  0  0  0  0  0
   -3.8751   92.9010    8.9054 O   0  0  0  0  0  0  0  0  0  0  0  0
   -3.6180   91.4558    6.9883 C   0  0  1  0  0  0  0  0  0  0  0  0
   -4.4051   91.3451    5.6921 C   0  0  2  0  0  0  0  0  0  0  0  0
   -5.1012   92.6012    5.5566 O   0  0  0  0  0  0  0  0  0  0  0  0
   -5.3757   90.1629    5.7946 C   0  0  0  0  0  0  0  0  0  0  0  0
   -6.1562   90.0487    4.6012 O   0  0  0  0  0  0  0  0  0  0  0  0
   -1.4200   91.3324    6.1807 C   0  0  2  0  0  0  0  0  0  0  0  0
   -2.4064   92.1952    6.7672 O   0  0  0  0  0  0  0  0  0  0  0  0
   -0.0217   91.9023    6.4398 C   0  0  1  0  0  0  0  0  0  0  0  0
   -2.4324   89.4762    2.5596 N   0  0  0  0  0  0  0  0  0  0  0  0
    1.0411   91.0519    5.7357 C   0  0  1  0  0  0  0  0  0  0  0  0
    1.1298   89.7614    6.3480 O   0  0  0  0  0  0  0  0  0  0  0  0
    0.6863   90.9010    4.2539 C   0  0  2  0  0  0  0  0  0  0  0  0
    0.7628   92.1888    3.6334 O   0  0  0  0  0  0  0  0  0  0  0  0
   -0.7322   90.3368    4.1206 C   0  0  1  0  0  0  0  0  0  0  0  0
   -1.6715   91.2140    4.7695 O   0  0  0  0  0  0  0  0  0  0  0  0
   -1.1275   90.1473    2.6536 C   0  0  0  0  0  0  0  0  0  0  0  0
    0.0399   93.2671    5.8951 N   0  0  0  0  0  0  0  0  0  0  0  0
  1  2  1  6  0  0  0
  1  3  1  0  0  0  0
  1 10  1  0  0  0  0
  3  4  1  6  0  0  0
  3  5  1  0  0  0  0
  5  6  1  1  0  0  0
  5  7  1  0  0  0  0
  7  8  1  6  0  0  0
  7  9  1  0  0  0  0
  9 10  1  0  0  0  0
  9 11  1  1  0  0  0
 11 12  1  0  0  0  0
 13 14  1  1  0  0  0
 13 15  1  0  0  0  0
 13 21  1  0  0  0  0
 16 15  1  0  0  0  0
 16 17  1  1  0  0  0
 18  2  1  6  0  0  0
 18 16  1  0  0  0  0
 19 18  1  0  0  0  0
 19 20  1  1  0  0  0
 21 19  1  0  0  0  0
 21 22  1  6  0  0  0
 23 20  1  1  0  0  0
 23 24  1  0  0  0  0
 23 28  1  0  0  0  0
 24 25  1  1  0  0  0
 24 26  1  0  0  0  0
 26 27  1  0  0  0  0
 26 32  1  6  0  0  0
 27 28  1  0  0  0  0
 27 29  1  1  0  0  0
 29 30  1  0  0  0  0
 31 32  1  6  0  0  0
 31 40  1  0  0  0  0
 33 31  1  0  0  0  0
 33 42  1  6  0  0  0
 35 33  1  0  0  0  0
 35 36  1  1  0  0  0
 37 35  1  0  0  0  0
 37 38  1  6  0  0  0
 37 39  1  0  0  0  0
 39 40  1  0  0  0  0
 39 41  1  6  0  0  0
 41 34  1  0  0  0  0
M  END
>  <CHROM.1>
177.45461541,-72.28870763,-169.02976378,179.15337472,-171.89796232,170.15723396
178.64532499,-157.99141464,174.08590466,-5.58624593,93.16746474,6.70558264
2.89807654,0.44320084,-0.20484999

>  <Name>
2fcy_lig

>  <RI>
2.32494e+07

>  <Rbt.Current_Directory>
/home/itssahil/PROJECTS/Mol_Feturizer/New_Systems/rnas/2fcy

>  <Rbt.Executable>
rbdock ($Id: //depot/dev/client3/rdock/2013.1/src/exe/rbdock.cxx#4 $)

>  <Rbt.Library>
libRbt.so (2013.1, Build901 2013/11/27)

>  <Rbt.Parameter_File>
/export/apps/rDock/src/rDock_2013.1_src/data/scripts/dock_solv.prm

>  <Rbt.Receptor>
prm/pocket_docking_8.prm

>  <SCORE>
-5.96687

>  <SCORE.INTER>
-0.252053

>  <SCORE.INTER.CONST>
1

>  <SCORE.INTER.POLAR>
0

>  <SCORE.INTER.ROT>
9

>  <SCORE.INTER.SOLV>
12.0457

>  <SCORE.INTER.VDW>
-13.7833

>  <SCORE.INTER.norm>
-0.00600127

>  <SCORE.INTRA>
-5.71481

>  <SCORE.INTRA.DIHEDRAL>
-12.5647

>  <SCORE.INTRA.DIHEDRAL.0>
17.3446

>  <SCORE.INTRA.POLAR>
0

>  <SCORE.INTRA.POLAR.0>
0

>  <SCORE.INTRA.REPUL>
0

>  <SCORE.INTRA.REPUL.0>
0

>  <SCORE.INTRA.SOLV>
-4.41266

>  <SCORE.INTRA.SOLV.lig_0>
-112.452

>  <SCORE.INTRA.VDW>
2.77387

>  <SCORE.INTRA.VDW.0>
-5.95059

>  <SCORE.INTRA.norm>
-0.136067

>  <SCORE.RESTR>
0

>  <SCORE.RESTR.CAVITY>
0

>  <SCORE.RESTR.norm>
0

>  <SCORE.SYSTEM>
0

>  <SCORE.SYSTEM.CONST>
0

>  <SCORE.SYSTEM.DIHEDRAL>
0

>  <SCORE.SYSTEM.SOLV>
0

>  <SCORE.SYSTEM.norm>
0

>  <SCORE.heavy>
42

>  <SCORE.norm>
-0.142068

>  <RMSD>
10.035

$$$$
2fcy_lig
 OpenBabel11021811433D
libRbt.so/2013.1/901 2013/11/27
 42 45  0  0  0  0  0  0  0  0999 V2000
   -3.9663   95.7839    8.2194 C   0  0  2  0  0  0  0  0  0  0  0  0
   -3.6442   94.3977    8.0144 O   0  0  0  0  0  0  0  0  0  0  0  0
   -5.1487   95.7881    9.1894 C   0  0  2  0  0  0  0  0  0  0  0  0
   -4.7775   95.0239   10.3882 N   0  0  0  0  0  0  0  0  0  0  0  0
   -6.3604   95.1318    8.5228 C   0  0  1  0  0  0  0  0  0  0  0  0
   -7.4818   95.1278    9.4105 O   0  0  0  0  0  0  0  0  0  0  0  0
   -6.6993   95.8833    7.2350 C   0  0  2  0  0  0  0  0  0  0  0  0
   -7.7671   95.2125    6.5661 O   0  0  0  0  0  0  0  0  0  0  0  0
   -5.4763   95.8636    6.3169 C   0  0  2  0  0  0  0  0  0  0  0  0
   -4.3548   96.4466    6.9986 O   0  0  0  0  0  0  0  0  0  0  0  0
   -5.8005   96.6223    5.0273 C   0  0  0  0  0  0  0  0  0  0  0  0
   -6.2235   98.0001    5.3195 N   0  0  0  0  0  0  0  0  0  0  0  0
   -0.1203   92.4579    6.8038 C   0  0  2  0  0  0  0  0  0  0  0  0
    1.0933   91.9442    6.1509 N   0  0  0  0  0  0  0  0  0  0  0  0
   -1.3406   92.2837    5.8975 C   0  0  0  0  0  0  0  0  0  0  0  0
   -2.5864   92.7117    6.6796 C   0  0  2  0  0  0  0  0  0  0  0  0
   -3.7617   92.6357    5.7999 N   0  0  0  0  0  0  0  0  0  0  0  0
   -2.4846   94.1483    7.2003 C   0  0  2  0  0  0  0  0  0  0  0  0
   -1.1784   94.4749    7.9156 C   0  0  2  0  0  0  0  0  0  0  0  0
   -1.1164   95.9093    7.9688 O   0  0  0  0  0  0  0  0  0  0  0  0
    0.0399   93.9399    7.1513 C   0  0  1  0  0  0  0  0  0  0  0  0
    1.2315   94.0810    7.9294 O   0  0  0  0  0  0  0  0  0  0  0  0
   -0.5873   96.4657    9.1832 C   0  0  1  0  0  0  0  0  0  0  0  0
   -0.4417   97.9740    8.9751 C   0  0  2  0  0  0  0  0  0  0  0  0
    0.7944   98.2509    8.3126 O   0  0  0  0  0  0  0  0  0  0  0  0
   -0.3447   98.4038   10.4360 C   0  0  1  0  0  0  0  0  0  0  0  0
   -1.4756   97.5852   11.0386 C   0  0  2  0  0  0  0  0  0  0  0  0
   -1.4810   96.3412   10.3084 O   0  0  0  0  0  0  0  0  0  0  0  0
   -2.7930   98.3511   10.8712 C   0  0  0  0  0  0  0  0  0  0  0  0
   -3.8620   97.6608   11.5248 O   0  0  0  0  0  0  0  0  0  0  0  0
    1.1338   98.6452   12.2399 C   0  0  2  0  0  0  0  0  0  0  0  0
    0.9144   97.9834   10.9848 O   0  0  0  0  0  0  0  0  0  0  0  0
    1.6342  100.0709   11.9868 C   0  0  1  0  0  0  0  0  0  0  0  0
    4.5242   97.3649   14.4109 N   0  0  0  0  0  0  0  0  0  0  0  0
    1.9720  100.7621   13.3122 C   0  0  1  0  0  0  0  0  0  0  0  0
    0.7792  100.9973   14.0674 O   0  0  0  0  0  0  0  0  0  0  0  0
    2.9360   99.8898   14.1210 C   0  0  2  0  0  0  0  0  0  0  0  0
    4.1775   99.8054   13.4133 O   0  0  0  0  0  0  0  0  0  0  0  0
    2.3362   98.4909   14.2988 C   0  0  1  0  0  0  0  0  0  0  0  0
    2.0894   97.8962   13.0110 O   0  0  0  0  0  0  0  0  0  0  0  0
    3.2557   97.5842   15.1213 C   0  0  0  0  0  0  0  0  0  0  0  0
    2.8574  100.0040   11.1730 N   0  0  0  0  0  0  0  0  0  0  0  0
  1  2  1  6  0  0  0
  1  3  1  0  0  0  0
  1 10  1  0  0  0  0
  3  4  1  1  0  0  0
  3  5  1  0  0  0  0
  5  6  1  1  0  0  0
  5  7  1  0  0  0  0
  7  8  1  6  0  0  0
  7  9  1  0  0  0  0
  9 10  1  0  0  0  0
  9 11  1  6  0  0  0
 11 12  1  0  0  0  0
 13 14  1  6  0  0  0
 13 15  1  0  0  0  0
 13 21  1  0  0  0  0
 16 15  1  0  0  0  0
 16 17  1  6  0  0  0
 18  2  1  1  0  0  0
 18 16  1  0  0  0  0
 19 18  1  0  0  0  0
 19 20  1  6  0  0  0
 21 19  1  0  0  0  0
 21 22  1  1  0  0  0
 23 20  1  6  0  0  0
 23 24  1  0  0  0  0
 23 28  1  0  0  0  0
 24 25  1  6  0  0  0
 24 26  1  0  0  0  0
 26 27  1  0  0  0  0
 26 32  1  1  0  0  0
 27 28  1  0  0  0  0
 27 29  1  6  0  0  0
 29 30  1  0  0  0  0
 31 32  1  6  0  0  0
 31 40  1  0  0  0  0
 33 31  1  0  0  0  0
 33 42  1  6  0  0  0
 35 33  1  0  0  0  0
 35 36  1  1  0  0  0
 37 35  1  0  0  0  0
 37 38  1  6  0  0  0
 37 39  1  0  0  0  0
 39 40  1  0  0  0  0
 39 41  1  1  0  0  0
 41 34  1  0  0  0  0
M  END
>  <CHROM.1>
-175.67962938,57.05239412,-159.85456133,141.43384234,173.02966402,166.78188435
-175.22640022,-79.59093314,-63.79428708,-1.42134358,96.54994556,9.52784118
2.35856876,0.22442235,-2.38892574

>  <Name>
2fcy_lig

>  <RI>
2.89127e+07

>  <Rbt.Current_Directory>
/home/itssahil/PROJECTS/Mol_Feturizer/New_Systems/rnas/2fcy

>  <Rbt.Executable>
rbdock ($Id: //depot/dev/client3/rdock/2013.1/src/exe/rbdock.cxx#4 $)

>  <Rbt.Library>
libRbt.so (2013.1, Build901 2013/11/27)

>  <Rbt.Parameter_File>
/export/apps/rDock/src/rDock_2013.1_src/data/scripts/dock_solv.prm

>  <Rbt.Receptor>
prm/pocket_docking_7.prm

>  <SCORE>
-14.0008

>  <SCORE.INTER>
-11.4248

>  <SCORE.INTER.CONST>
1

>  <SCORE.INTER.POLAR>
-1.88744

>  <SCORE.INTER.ROT>
9

>  <SCORE.INTER.SOLV>
12.4089

>  <SCORE.INTER.VDW>
-15.0614

>  <SCORE.INTER.norm>
-0.272018

>  <SCORE.INTRA>
-2.57603

>  <SCORE.INTRA.DIHEDRAL>
-6.82212

>  <SCORE.INTRA.DIHEDRAL.0>
17.3446

>  <SCORE.INTRA.POLAR>
0

>  <SCORE.INTRA.POLAR.0>
0

>  <SCORE.INTRA.REPUL>
0

>  <SCORE.INTRA.REPUL.0>
0

>  <SCORE.INTRA.SOLV>
0.557115

>  <SCORE.INTRA.SOLV.lig_0>
-112.452

>  <SCORE.INTRA.VDW>
0.556467

>  <SCORE.INTRA.VDW.0>
-5.95059

>  <SCORE.INTRA.norm>
-0.0613342

>  <SCORE.RESTR>
0

>  <SCORE.RESTR.CAVITY>
0

>  <SCORE.RESTR.norm>
0

>  <SCORE.SYSTEM>
0

>  <SCORE.SYSTEM.CONST>
0

>  <SCORE.SYSTEM.DIHEDRAL>
0

>  <SCORE.SYSTEM.SOLV>
0

>  <SCORE.SYSTEM.norm>
0

>  <SCORE.heavy>
42

>  <SCORE.norm>
-0.333352

>  <RMSD>
10.053

$$$$
2fcy_lig
 OpenBabel11021811433D
libRbt.so/2013.1/901 2013/11/27
 42 45  0  0  0  0  0  0  0  0999 V2000
   -4.1646   94.5504    6.2477 C   0  0  2  0  0  0  0  0  0  0  0  0
   -5.1091   93.5798    6.7304 O   0  0  0  0  0  0  0  0  0  0  0  0
   -4.8514   95.9064    6.4175 C   0  0  2  0  0  0  0  0  0  0  0  0
   -5.2708   96.0500    7.8183 N   0  0  0  0  0  0  0  0  0  0  0  0
   -6.0812   95.9751    5.5086 C   0  0  1  0  0  0  0  0  0  0  0  0
   -6.7387   97.2377    5.6469 O   0  0  0  0  0  0  0  0  0  0  0  0
   -5.6526   95.7503    4.0582 C   0  0  2  0  0  0  0  0  0  0  0  0
   -6.8113   95.7185    3.2250 O   0  0  0  0  0  0  0  0  0  0  0  0
   -4.9555   94.3929    3.9552 C   0  0  2  0  0  0  0  0  0  0  0  0
   -3.8377   94.3578    4.8561 O   0  0  0  0  0  0  0  0  0  0  0  0
   -4.5127   94.1610    2.5082 C   0  0  0  0  0  0  0  0  0  0  0  0
   -4.0033   92.7934    2.3265 N   0  0  0  0  0  0  0  0  0  0  0  0
   -4.5356   89.6708    8.1578 C   0  0  2  0  0  0  0  0  0  0  0  0
   -4.2411   88.2496    8.3954 N   0  0  0  0  0  0  0  0  0  0  0  0
   -5.5188   89.8357    6.9971 C   0  0  0  0  0  0  0  0  0  0  0  0
   -5.8874   91.3185    6.8852 C   0  0  2  0  0  0  0  0  0  0  0  0
   -6.7636   91.5143    5.7212 N   0  0  0  0  0  0  0  0  0  0  0  0
   -4.6587   92.2139    6.7009 C   0  0  2  0  0  0  0  0  0  0  0  0
   -3.5222   91.9445    7.6809 C   0  0  2  0  0  0  0  0  0  0  0  0
   -2.3652   92.5793    7.1130 O   0  0  0  0  0  0  0  0  0  0  0  0
   -3.2520   90.4426    7.8424 C   0  0  1  0  0  0  0  0  0  0  0  0
   -2.3249   90.2033    8.9046 O   0  0  0  0  0  0  0  0  0  0  0  0
   -1.3994   93.0726    8.0554 C   0  0  1  0  0  0  0  0  0  0  0  0
   -0.1615   93.5019    7.2661 C   0  0  2  0  0  0  0  0  0  0  0  0
    0.6675   92.3644    7.0158 O   0  0  0  0  0  0  0  0  0  0  0  0
    0.4937   94.3880    8.3216 C   0  0  1  0  0  0  0  0  0  0  0  0
   -0.7110   95.1846    8.7974 C   0  0  2  0  0  0  0  0  0  0  0  0
   -1.8244   94.2694    8.7392 O   0  0  0  0  0  0  0  0  0  0  0  0
   -0.9130   96.3890    7.8708 C   0  0  0  0  0  0  0  0  0  0  0  0
    0.3118   97.1105    7.7103 O   0  0  0  0  0  0  0  0  0  0  0  0
    1.5046   94.4226   10.4371 C   0  0  2  0  0  0  0  0  0  0  0  0
    1.0014   93.5760    9.3923 O   0  0  0  0  0  0  0  0  0  0  0  0
    2.4444   93.6179   11.3407 C   0  0  1  0  0  0  0  0  0  0  0  0
   -1.1672   97.2436   11.9441 N   0  0  0  0  0  0  0  0  0  0  0  0
    2.9136   94.4743   12.5217 C   0  0  1  0  0  0  0  0  0  0  0  0
    3.7714   95.5243   12.0636 O   0  0  0  0  0  0  0  0  0  0  0  0
    1.7020   95.0704   13.2437 C   0  0  2  0  0  0  0  0  0  0  0  0
    0.9490   94.0025   13.8286 O   0  0  0  0  0  0  0  0  0  0  0  0
    0.8337   95.8381   12.2412 C   0  0  1  0  0  0  0  0  0  0  0  0
    0.4006   94.9544   11.1904 O   0  0  0  0  0  0  0  0  0  0  0  0
   -0.3832   96.4725   12.9200 C   0  0  0  0  0  0  0  0  0  0  0  0
    1.7111   92.4581   11.8702 N   0  0  0  0  0  0  0  0  0  0  0  0
  1  2  1  6  0  0  0
  1  3  1  0  0  0  0
  1 10  1  0  0  0  0
  3  4  1  1  0  0  0
  3  5  1  0  0  0  0
  5  6  1  6  0  0  0
  5  7  1  0  0  0  0
  7  8  1  6  0  0  0
  7  9  1  0  0  0  0
  9 10  1  0  0  0  0
  9 11  1  6  0  0  0
 11 12  1  0  0  0  0
 13 14  1  6  0  0  0
 13 15  1  0  0  0  0
 13 21  1  0  0  0  0
 16 15  1  0  0  0  0
 16 17  1  6  0  0  0
 18  2  1  1  0  0  0
 18 16  1  0  0  0  0
 19 18  1  0  0  0  0
 19 20  1  6  0  0  0
 21 19  1  0  0  0  0
 21 22  1  1  0  0  0
 23 20  1  6  0  0  0
 23 24  1  0  0  0  0
 23 28  1  0  0  0  0
 24 25  1  1  0  0  0
 24 26  1  0  0  0  0
 26 27  1  0  0  0  0
 26 32  1  1  0  0  0
 27 28  1  0  0  0  0
 27 29  1  6  0  0  0
 29 30  1  0  0  0  0
 31 32  1  6  0  0  0
 31 40  1  0  0  0  0
 33 31  1  0  0  0  0
 33 42  1  1  0  0  0
 35 33  1  0  0  0  0
 35 36  1  6  0  0  0
 37 35  1  0  0  0  0
 37 38  1  6  0  0  0
 37 39  1  0  0  0  0
 39 40  1  0  0  0  0
 39 41  1  1  0  0  0
 41 34  1  0  0  0  0
M  END
>  <CHROM.1>
-178.38148432,-172.26326934,-165.20668890,149.21221844,171.14653843,-174.70927699
-50.40575210,-161.34379876,177.83087896,-2.19285842,93.88656551,8.10699881
-3.12601067,0.77204139,2.95554702

>  <Name>
2fcy_lig

>  <RI>
0

>  <Rbt.Current_Directory>
/home/itssahil/PROJECTS/Mol_Feturizer/New_Systems/rnas/2fcy

>  <Rbt.Executable>
rbdock ($Id: //depot/dev/client3/rdock/2013.1/src/exe/rbdock.cxx#4 $)

>  <Rbt.Library>
libRbt.so (2013.1, Build901 2013/11/27)

>  <Rbt.Parameter_File>
/export/apps/rDock/src/rDock_2013.1_src/data/scripts/dock_solv.prm

>  <Rbt.Receptor>
prm/pocket_docking_5.prm

>  <SCORE>
-12.0285

>  <SCORE.INTER>
-7.35581

>  <SCORE.INTER.CONST>
1

>  <SCORE.INTER.POLAR>
-0.914754

>  <SCORE.INTER.ROT>
9

>  <SCORE.INTER.SOLV>
11.2368

>  <SCORE.INTER.VDW>
-15.2003

>  <SCORE.INTER.norm>
-0.175138

>  <SCORE.INTRA>
-4.67268

>  <SCORE.INTRA.DIHEDRAL>
-9.31756

>  <SCORE.INTRA.DIHEDRAL.0>
17.3446

>  <SCORE.INTRA.POLAR>
0

>  <SCORE.INTRA.POLAR.0>
0

>  <SCORE.INTRA.REPUL>
0

>  <SCORE.INTRA.REPUL.0>
0

>  <SCORE.INTRA.SOLV>
-4.17026

>  <SCORE.INTRA.SOLV.lig_0>
-112.452

>  <SCORE.INTRA.VDW>
2.07123

>  <SCORE.INTRA.VDW.0>
-5.95059

>  <SCORE.INTRA.norm>
-0.111254

>  <SCORE.RESTR>
0

>  <SCORE.RESTR.CAVITY>
0

>  <SCORE.RESTR.norm>
0

>  <SCORE.SYSTEM>
0

>  <SCORE.SYSTEM.CONST>
0

>  <SCORE.SYSTEM.DIHEDRAL>
0

>  <SCORE.SYSTEM.SOLV>
0

>  <SCORE.SYSTEM.norm>
0

>  <SCORE.heavy>
42

>  <SCORE.norm>
-0.286393

>  <RMSD>
10.057

$$$$
2fcy_lig
 OpenBabel11021811433D
libRbt.so/2013.1/901 2013/11/27
 42 45  0  0  0  0  0  0  0  0999 V2000
   -1.7855   90.7293    4.4137 C   0  0  2  0  0  0  0  0  0  0  0  0
   -2.2402   91.9974    3.9113 O   0  0  0  0  0  0  0  0  0  0  0  0
   -0.4851   90.4366    3.6638 C   0  0  2  0  0  0  0  0  0  0  0  0
    0.4293   91.5722    3.8455 N   0  0  0  0  0  0  0  0  0  0  0  0
   -0.7829   90.2566    2.1731 C   0  0  1  0  0  0  0  0  0  0  0  0
    0.4194   89.9772    1.4505 O   0  0  0  0  0  0  0  0  0  0  0  0
   -1.7928   89.1231    1.9913 C   0  0  2  0  0  0  0  0  0  0  0  0
   -2.1419   89.0211    0.6110 O   0  0  0  0  0  0  0  0  0  0  0  0
   -3.0598   89.4613    2.7784 C   0  0  2  0  0  0  0  0  0  0  0  0
   -2.7263   89.6658    4.1602 O   0  0  0  0  0  0  0  0  0  0  0  0
   -4.0755   88.3280    2.6119 C   0  0  0  0  0  0  0  0  0  0  0  0
   -3.6092   87.1016    3.2760 N   0  0  0  0  0  0  0  0  0  0  0  0
   -4.5689   94.8577    5.9218 C   0  0  2  0  0  0  0  0  0  0  0  0
   -5.5962   95.6757    6.5840 N   0  0  0  0  0  0  0  0  0  0  0  0
   -4.9713   94.5419    4.4799 C   0  0  0  0  0  0  0  0  0  0  0  0
   -3.8091   93.8057    3.8056 C   0  0  2  0  0  0  0  0  0  0  0  0
   -4.2062   93.4146    2.4454 N   0  0  0  0  0  0  0  0  0  0  0  0
   -3.4071   92.5344    4.5589 C   0  0  2  0  0  0  0  0  0  0  0  0
   -3.2187   92.7172    6.0608 C   0  0  2  0  0  0  0  0  0  0  0  0
   -3.2384   91.3921    6.6156 O   0  0  0  0  0  0  0  0  0  0  0  0
   -4.3509   93.5466    6.6811 C   0  0  1  0  0  0  0  0  0  0  0  0
   -4.0567   93.8725    8.0421 O   0  0  0  0  0  0  0  0  0  0  0  0
   -2.6180   91.2462    7.9033 C   0  0  1  0  0  0  0  0  0  0  0  0
   -2.7786   89.7863    8.3305 C   0  0  2  0  0  0  0  0  0  0  0  0
   -4.0625   89.5995    8.9309 O   0  0  0  0  0  0  0  0  0  0  0  0
   -1.6997   89.7377    9.4085 C   0  0  1  0  0  0  0  0  0  0  0  0
   -0.5623   90.4470    8.6907 C   0  0  2  0  0  0  0  0  0  0  0  0
   -1.1919   91.4609    7.8805 O   0  0  0  0  0  0  0  0  0  0  0  0
    0.2040   89.4293    7.8379 C   0  0  0  0  0  0  0  0  0  0  0  0
    1.1895   90.0866    7.0359 O   0  0  0  0  0  0  0  0  0  0  0  0
   -0.9747   90.8031   11.3676 C   0  0  2  0  0  0  0  0  0  0  0  0
   -2.1163   90.5046   10.5495 O   0  0  0  0  0  0  0  0  0  0  0  0
   -1.4170   90.9630   12.8257 C   0  0  1  0  0  0  0  0  0  0  0  0
    1.7811   93.3031    9.5884 N   0  0  0  0  0  0  0  0  0  0  0  0
   -0.2311   91.3821   13.7012 C   0  0  1  0  0  0  0  0  0  0  0  0
    0.7178   90.3149   13.7955 O   0  0  0  0  0  0  0  0  0  0  0  0
    0.4397   92.6232   13.1061 C   0  0  2  0  0  0  0  0  0  0  0  0
   -0.4825   93.7161   13.1729 O   0  0  0  0  0  0  0  0  0  0  0  0
    0.8251   92.3491   11.6484 C   0  0  1  0  0  0  0  0  0  0  0  0
   -0.3479   92.0054   10.8876 O   0  0  0  0  0  0  0  0  0  0  0  0
    1.5202   93.5564   11.0130 C   0  0  0  0  0  0  0  0  0  0  0  0
   -2.4409   92.0165   12.8952 N   0  0  0  0  0  0  0  0  0  0  0  0
  1  2  1  6  0  0  0
  1  3  1  0  0  0  0
  1 10  1  0  0  0  0
  3  4  1  6  0  0  0
  3  5  1  0  0  0  0
  5  6  1  6  0  0  0
  5  7  1  0  0  0  0
  7  8  1  6  0  0  0
  7  9  1  0  0  0  0
  9 10  1  0  0  0  0
  9 11  1  1  0  0  0
 11 12  1  0  0  0  0
 13 14  1  1  0  0  0
 13 15  1  0  0  0  0
 13 21  1  0  0  0  0
 16 15  1  0  0  0  0
 16 17  1  6  0  0  0
 18  2  1  6  0  0  0
 18 16  1  0  0  0  0
 19 18  1  0  0  0  0
 19 20  1  1  0  0  0
 21 19  1  0  0  0  0
 21 22  1  1  0  0  0
 23 20  1  6  0  0  0
 23 24  1  0  0  0  0
 23 28  1  0  0  0  0
 24 25  1  1  0  0  0
 24 26  1  0  0  0  0
 26 27  1  0  0  0  0
 26 32  1  1  0  0  0
 27 28  1  0  0  0  0
 27 29  1  6  0  0  0
 29 30  1  0  0  0  0
 31 32  1  6  0  0  0
 31 40  1  0  0  0  0
 33 31  1  0  0  0  0
 33 42  1  6  0  0  0
 35 33  1  0  0  0  0
 35 36  1  6  0  0  0
 37 35  1  0  0  0  0
 37 38  1  6  0  0  0
 37 39  1  0  0  0  0
 39 40  1  0  0  0  0
 39 41  1  6  0  0  0
 41 34  1  0  0  0  0
M  END
>  <CHROM.1>
-175.11591792,67.81774836,-174.75503368,158.51621295,178.43933129,-162.31466487
173.69596665,-151.91714325,-175.52109268,-1.83126639,91.39747017,7.16659516
-1.90758932,-0.80353351,1.19304381

>  <Name>
2fcy_lig

>  <RI>
2.89127e+07

>  <Rbt.Current_Directory>
/home/itssahil/PROJECTS/Mol_Feturizer/New_Systems/rnas/2fcy

>  <Rbt.Executable>
rbdock ($Id: //depot/dev/client3/rdock/2013.1/src/exe/rbdock.cxx#4 $)

>  <Rbt.Library>
libRbt.so (2013.1, Build901 2013/11/27)

>  <Rbt.Parameter_File>
/export/apps/rDock/src/rDock_2013.1_src/data/scripts/dock_solv.prm

>  <Rbt.Receptor>
prm/pocket_docking_7.prm

>  <SCORE>
-12.194

>  <SCORE.INTER>
-9.12975

>  <SCORE.INTER.CONST>
1

>  <SCORE.INTER.POLAR>
-1.61611

>  <SCORE.INTER.ROT>
9

>  <SCORE.INTER.SOLV>
18.0216

>  <SCORE.INTER.VDW>
-16.3066

>  <SCORE.INTER.norm>
-0.217375

>  <SCORE.INTRA>
-3.06422

>  <SCORE.INTRA.DIHEDRAL>
-9.40475

>  <SCORE.INTRA.DIHEDRAL.0>
17.3446

>  <SCORE.INTRA.POLAR>
0

>  <SCORE.INTRA.POLAR.0>
0

>  <SCORE.INTRA.REPUL>
0

>  <SCORE.INTRA.REPUL.0>
0

>  <SCORE.INTRA.SOLV>
-2.71836

>  <SCORE.INTRA.SOLV.lig_0>
-112.452

>  <SCORE.INTRA.VDW>
2.99734

>  <SCORE.INTRA.VDW.0>
-5.95059

>  <SCORE.INTRA.norm>
-0.0729576

>  <SCORE.RESTR>
0

>  <SCORE.RESTR.CAVITY>
0

>  <SCORE.RESTR.norm>
0

>  <SCORE.SYSTEM>
0

>  <SCORE.SYSTEM.CONST>
0

>  <SCORE.SYSTEM.DIHEDRAL>
0

>  <SCORE.SYSTEM.SOLV>
0

>  <SCORE.SYSTEM.norm>
0

>  <SCORE.heavy>
42

>  <SCORE.norm>
-0.290333

>  <RMSD>
10.095

$$$$
2fcy_lig
 OpenBabel11021811433D
libRbt.so/2013.1/901 2013/11/27
 42 45  0  0  0  0  0  0  0  0999 V2000
    2.2079   93.5773   12.2916 C   0  0  2  0  0  0  0  0  0  0  0  0
    1.0178   93.9251   13.0195 O   0  0  0  0  0  0  0  0  0  0  0  0
    3.3417   93.6274   13.3168 C   0  0  2  0  0  0  0  0  0  0  0  0
    2.9941   92.7550   14.4468 N   0  0  0  0  0  0  0  0  0  0  0  0
    3.5164   95.0633   13.8176 C   0  0  1  0  0  0  0  0  0  0  0  0
    4.5757   95.1362   14.7759 O   0  0  0  0  0  0  0  0  0  0  0  0
    3.8039   95.9828   12.6303 C   0  0  2  0  0  0  0  0  0  0  0  0
    3.8703   97.3337   13.0868 O   0  0  0  0  0  0  0  0  0  0  0  0
    2.6498   95.8744   11.6325 C   0  0  2  0  0  0  0  0  0  0  0  0
    2.4940   94.5059   11.2256 O   0  0  0  0  0  0  0  0  0  0  0  0
    2.9314   96.7838   10.4336 C   0  0  0  0  0  0  0  0  0  0  0  0
    1.8647   96.6734    9.4273 N   0  0  0  0  0  0  0  0  0  0  0  0
   -2.9782   92.6433   13.2065 C   0  0  2  0  0  0  0  0  0  0  0  0
   -4.2842   91.9721   13.1232 N   0  0  0  0  0  0  0  0  0  0  0  0
   -2.4094   92.9013   11.8099 C   0  0  0  0  0  0  0  0  0  0  0  0
   -1.1204   93.7161   11.9578 C   0  0  2  0  0  0  0  0  0  0  0  0
   -0.5088   93.9016   10.6340 N   0  0  0  0  0  0  0  0  0  0  0  0
   -0.0908   93.0232   12.8552 C   0  0  2  0  0  0  0  0  0  0  0  0
   -0.6427   92.5161   14.1829 C   0  0  2  0  0  0  0  0  0  0  0  0
    0.3360   91.5879   14.6775 O   0  0  0  0  0  0  0  0  0  0  0  0
   -1.9852   91.7947   14.0045 C   0  0  1  0  0  0  0  0  0  0  0  0
   -2.5787   91.5025   15.2724 O   0  0  0  0  0  0  0  0  0  0  0  0
    0.2499   91.2786   16.0780 C   0  0  1  0  0  0  0  0  0  0  0  0
    1.4547   90.4058   16.4332 C   0  0  2  0  0  0  0  0  0  0  0  0
    1.1698   89.0411   16.1168 O   0  0  0  0  0  0  0  0  0  0  0  0
    1.4405   90.5919   17.9476 C   0  0  1  0  0  0  0  0  0  0  0  0
    1.2381   92.0963   18.0374 C   0  0  2  0  0  0  0  0  0  0  0  0
    0.3784   92.4353   16.9299 O   0  0  0  0  0  0  0  0  0  0  0  0
    2.6005   92.7920   17.9362 C   0  0  0  0  0  0  0  0  0  0  0  0
    2.4469   94.2119   18.0193 O   0  0  0  0  0  0  0  0  0  0  0  0
    0.7368   88.6537   19.0642 C   0  0  2  0  0  0  0  0  0  0  0  0
    0.3100   89.9084   18.5118 O   0  0  0  0  0  0  0  0  0  0  0  0
   -0.4316   87.9965   19.8059 C   0  0  1  0  0  0  0  0  0  0  0  0
    4.6596   88.4938   20.4952 N   0  0  0  0  0  0  0  0  0  0  0  0
    0.0285   86.7046   20.4900 C   0  0  1  0  0  0  0  0  0  0  0  0
    0.3524   85.7126   19.5107 O   0  0  0  0  0  0  0  0  0  0  0  0
    1.2514   86.9890   21.3663 C   0  0  2  0  0  0  0  0  0  0  0  0
    0.8562   87.8594   22.4320 O   0  0  0  0  0  0  0  0  0  0  0  0
    2.3440   87.6542   20.5224 C   0  0  1  0  0  0  0  0  0  0  0  0
    1.8457   88.8787   19.9523 O   0  0  0  0  0  0  0  0  0  0  0  0
    3.5994   87.9407   21.3507 C   0  0  0  0  0  0  0  0  0  0  0  0
   -0.9147   88.9233   20.8405 N   0  0  0  0  0  0  0  0  0  0  0  0
  1  2  1  1  0  0  0
  1  3  1  0  0  0  0
  1 10  1  0  0  0  0
  3  4  1  1  0  0  0
  3  5  1  0  0  0  0
  5  6  1  1  0  0  0
  5  7  1  0  0  0  0
  7  8  1  1  0  0  0
  7  9  1  0  0  0  0
  9 10  1  0  0  0  0
  9 11  1  6  0  0  0
 11 12  1  0  0  0  0
 13 14  1  6  0  0  0
 13 15  1  0  0  0  0
 13 21  1  0  0  0  0
 16 15  1  0  0  0  0
 16 17  1  6  0  0  0
 18  2  1  1  0  0  0
 18 16  1  0  0  0  0
 19 18  1  0  0  0  0
 19 20  1  6  0  0  0
 21 19  1  0  0  0  0
 21 22  1  1  0  0  0
 23 20  1  6  0  0  0
 23 24  1  0  0  0  0
 23 28  1  0  0  0  0
 24 25  1  1  0  0  0
 24 26  1  0  0  0  0
 26 27  1  0  0  0  0
 26 32  1  1  0  0  0
 27 28  1  0  0  0  0
 27 29  1  6  0  0  0
 29 30  1  0  0  0  0
 31 32  1  1  0  0  0
 31 40  1  0  0  0  0
 33 31  1  0  0  0  0
 33 42  1  1  0  0  0
 35 33  1  0  0  0  0
 35 36  1  6  0  0  0
 37 35  1  0  0  0  0
 37 38  1  1  0  0  0
 37 39  1  0  0  0  0
 39 40  1  0  0  0  0
 39 41  1  1  0  0  0
 41 34  1  0  0  0  0
M  END
>  <CHROM.1>
-129.53004718,178.06427675,-106.18085723,162.05678982,-173.98104853,100.36816240
-179.91476219,173.58357814,176.18011581,1.07868968,91.79667019,15.82969159
-1.53407770,0.41529378,2.24737260

>  <Name>
2fcy_lig

>  <RI>
224

>  <Rbt.Current_Directory>
/home/itssahil/PROJECTS/Mol_Feturizer/New_Systems/rnas/2fcy

>  <Rbt.Executable>
rbdock ($Id: //depot/dev/client3/rdock/2013.1/src/exe/rbdock.cxx#4 $)

>  <Rbt.Library>
libRbt.so (2013.1, Build901 2013/11/27)

>  <Rbt.Parameter_File>
/export/apps/rDock/src/rDock_2013.1_src/data/scripts/dock_solv.prm

>  <Rbt.Receptor>
prm/pocket_docking_6.prm

>  <SCORE>
-9.76033

>  <SCORE.INTER>
-12.2765

>  <SCORE.INTER.CONST>
1

>  <SCORE.INTER.POLAR>
-1.66032

>  <SCORE.INTER.ROT>
9

>  <SCORE.INTER.SOLV>
17.4055

>  <SCORE.INTER.VDW>
-18.0517

>  <SCORE.INTER.norm>
-0.292297

>  <SCORE.INTRA>
2.51613

>  <SCORE.INTRA.DIHEDRAL>
2.91133

>  <SCORE.INTRA.DIHEDRAL.0>
17.3446

>  <SCORE.INTRA.POLAR>
0

>  <SCORE.INTRA.POLAR.0>
0

>  <SCORE.INTRA.REPUL>
0.00149755

>  <SCORE.INTRA.REPUL.0>
0

>  <SCORE.INTRA.SOLV>
0.17183

>  <SCORE.INTRA.SOLV.lig_0>
-112.452

>  <SCORE.INTRA.VDW>
0.967063

>  <SCORE.INTRA.VDW.0>
-5.95059

>  <SCORE.INTRA.norm>
0.0599079

>  <SCORE.RESTR>
0

>  <SCORE.RESTR.CAVITY>
0

>  <SCORE.RESTR.norm>
0

>  <SCORE.SYSTEM>
0

>  <SCORE.SYSTEM.CONST>
0

>  <SCORE.SYSTEM.DIHEDRAL>
0

>  <SCORE.SYSTEM.SOLV>
0

>  <SCORE.SYSTEM.norm>
0

>  <SCORE.heavy>
42

>  <SCORE.norm>
-0.232389

>  <RMSD>
10.200

$$$$
2fcy_lig
 OpenBabel11021811433D
libRbt.so/2013.1/901 2013/11/27
 42 45  0  0  0  0  0  0  0  0999 V2000
   -3.9216   92.4645    3.6020 C   0  0  2  0  0  0  0  0  0  0  0  0
   -5.1839   91.9034    4.0006 O   0  0  0  0  0  0  0  0  0  0  0  0
   -3.8416   92.2535    2.0893 C   0  0  2  0  0  0  0  0  0  0  0  0
   -5.0373   92.8392    1.4680 N   0  0  0  0  0  0  0  0  0  0  0  0
   -3.7917   90.7545    1.7832 C   0  0  1  0  0  0  0  0  0  0  0  0
   -3.7122   90.5318    0.3726 O   0  0  0  0  0  0  0  0  0  0  0  0
   -2.5885   90.1322    2.4925 C   0  0  2  0  0  0  0  0  0  0  0  0
   -2.5990   88.7199    2.2850 O   0  0  0  0  0  0  0  0  0  0  0  0
   -2.7130   90.3930    3.9944 C   0  0  2  0  0  0  0  0  0  0  0  0
   -2.8022   91.8068    4.2303 O   0  0  0  0  0  0  0  0  0  0  0  0
   -1.5078   89.7827    4.7146 C   0  0  0  0  0  0  0  0  0  0  0  0
   -0.2632   90.4637    4.3277 N   0  0  0  0  0  0  0  0  0  0  0  0
   -7.9899   93.2008    6.8449 C   0  0  2  0  0  0  0  0  0  0  0  0
   -8.7631   93.6111    8.0267 N   0  0  0  0  0  0  0  0  0  0  0  0
   -7.4627   91.7739    7.0086 C   0  0  0  0  0  0  0  0  0  0  0  0
   -6.7837   91.3582    5.6996 C   0  0  2  0  0  0  0  0  0  0  0  0
   -6.1924   90.0222    5.8626 N   0  0  0  0  0  0  0  0  0  0  0  0
   -5.6628   92.3188    5.2920 C   0  0  2  0  0  0  0  0  0  0  0  0
   -6.0424   93.7948    5.3354 C   0  0  2  0  0  0  0  0  0  0  0  0
   -4.7985   94.5134    5.3105 O   0  0  0  0  0  0  0  0  0  0  0  0
   -6.8104   94.1490    6.6158 C   0  0  1  0  0  0  0  0  0  0  0  0
   -7.3260   95.4812    6.5483 O   0  0  0  0  0  0  0  0  0  0  0  0
   -3.8913   94.2265    6.3870 C   0  0  1  0  0  0  0  0  0  0  0  0
   -2.6443   95.0882    6.1821 C   0  0  2  0  0  0  0  0  0  0  0  0
   -1.7579   94.4411    5.2660 O   0  0  0  0  0  0  0  0  0  0  0  0
   -2.0685   95.0063    7.5928 C   0  0  1  0  0  0  0  0  0  0  0  0
   -3.3237   95.2489    8.4161 C   0  0  2  0  0  0  0  0  0  0  0  0
   -4.3934   94.6200    7.6807 O   0  0  0  0  0  0  0  0  0  0  0  0
   -3.5426   96.7592    8.5625 C   0  0  0  0  0  0  0  0  0  0  0  0
   -3.9372   97.3331    7.3130 O   0  0  0  0  0  0  0  0  0  0  0  0
   -1.2142   93.5543    9.2240 C   0  0  2  0  0  0  0  0  0  0  0  0
   -1.5668   93.6828    7.8381 O   0  0  0  0  0  0  0  0  0  0  0  0
    0.0799   94.3274    9.4973 C   0  0  1  0  0  0  0  0  0  0  0  0
    0.3491   89.7928   10.4652 N   0  0  0  0  0  0  0  0  0  0  0  0
    0.5301   94.1205   10.9474 C   0  0  1  0  0  0  0  0  0  0  0  0
   -0.3868   94.7519   11.8467 O   0  0  0  0  0  0  0  0  0  0  0  0
    0.6130   92.6230   11.2560 C   0  0  2  0  0  0  0  0  0  0  0  0
    1.6508   92.0491   10.4540 O   0  0  0  0  0  0  0  0  0  0  0  0
   -0.7291   91.9575   10.9337 C   0  0  1  0  0  0  0  0  0  0  0  0
   -1.0568   92.1615    9.5467 O   0  0  0  0  0  0  0  0  0  0  0  0
   -0.7040   90.4587   11.2458 C   0  0  0  0  0  0  0  0  0  0  0  0
    1.1323   93.8152    8.6066 N   0  0  0  0  0  0  0  0  0  0  0  0
  1  2  1  1  0  0  0
  1  3  1  0  0  0  0
  1 10  1  0  0  0  0
  3  4  1  6  0  0  0
  3  5  1  0  0  0  0
  5  6  1  6  0  0  0
  5  7  1  0  0  0  0
  7  8  1  1  0  0  0
  7  9  1  0  0  0  0
  9 10  1  0  0  0  0
  9 11  1  1  0  0  0
 11 12  1  0  0  0  0
 13 14  1  1  0  0  0
 13 15  1  0  0  0  0
 13 21  1  0  0  0  0
 16 15  1  0  0  0  0
 16 17  1  1  0  0  0
 18  2  1  6  0  0  0
 18 16  1  0  0  0  0
 19 18  1  0  0  0  0
 19 20  1  1  0  0  0
 21 19  1  0  0  0  0
 21 22  1  6  0  0  0
 23 20  1  6  0  0  0
 23 24  1  0  0  0  0
 23 28  1  0  0  0  0
 24 25  1  6  0  0  0
 24 26  1  0  0  0  0
 26 27  1  0  0  0  0
 26 32  1  1  0  0  0
 27 28  1  0  0  0  0
 27 29  1  6  0  0  0
 29 30  1  0  0  0  0
 31 32  1  6  0  0  0
 31 40  1  0  0  0  0
 33 31  1  0  0  0  0
 33 42  1  6  0  0  0
 35 33  1  0  0  0  0
 35 36  1  1  0  0  0
 37 35  1  0  0  0  0
 37 38  1  6  0  0  0
 37 39  1  0  0  0  0
 39 40  1  0  0  0  0
 39 41  1  6  0  0  0
 41 34  1  0  0  0  0
M  END
>  <CHROM.1>
-162.58132040,65.44064371,-164.96765677,-59.11837873,-179.77174591,-171.33115807
70.45729618,-73.60626514,-59.20178090,-3.14318600,92.82853749,6.59099071
-2.24885609,-0.47619638,0.99588150

>  <Name>
2fcy_lig

>  <RI>
0

>  <Rbt.Current_Directory>
/home/itssahil/PROJECTS/Mol_Feturizer/New_Systems/rnas/2fcy

>  <Rbt.Executable>
rbdock ($Id: //depot/dev/client3/rdock/2013.1/src/exe/rbdock.cxx#4 $)

>  <Rbt.Library>
libRbt.so (2013.1, Build901 2013/11/27)

>  <Rbt.Parameter_File>
/export/apps/rDock/src/rDock_2013.1_src/data/scripts/dock_solv.prm

>  <Rbt.Receptor>
prm/pocket_docking_5.prm

>  <SCORE>
-6.18368

>  <SCORE.INTER>
-4.51804

>  <SCORE.INTER.CONST>
1

>  <SCORE.INTER.POLAR>
-2.13225

>  <SCORE.INTER.ROT>
9

>  <SCORE.INTER.SOLV>
13.4014

>  <SCORE.INTER.VDW>
-9.97167

>  <SCORE.INTER.norm>
-0.107572

>  <SCORE.INTRA>
-1.69304

>  <SCORE.INTRA.DIHEDRAL>
-12.5899

>  <SCORE.INTRA.DIHEDRAL.0>
17.3446

>  <SCORE.INTRA.POLAR>
0

>  <SCORE.INTRA.POLAR.0>
0

>  <SCORE.INTRA.REPUL>
0.17654

>  <SCORE.INTRA.REPUL.0>
0

>  <SCORE.INTRA.SOLV>
-0.755863

>  <SCORE.INTRA.SOLV.lig_0>
-112.452

>  <SCORE.INTRA.VDW>
4.09714

>  <SCORE.INTRA.VDW.0>
-5.95059

>  <SCORE.INTRA.norm>
-0.0403104

>  <SCORE.RESTR>
0.0273906

>  <SCORE.RESTR.CAVITY>
0.0273906

>  <SCORE.RESTR.norm>
0.000652157

>  <SCORE.SYSTEM>
0

>  <SCORE.SYSTEM.CONST>
0

>  <SCORE.SYSTEM.DIHEDRAL>
0

>  <SCORE.SYSTEM.SOLV>
0

>  <SCORE.SYSTEM.norm>
0

>  <SCORE.heavy>
42

>  <SCORE.norm>
-0.147231

>  <RMSD>
10.335

$$$$
2fcy_lig
 OpenBabel11021811433D
libRbt.so/2013.1/901 2013/11/27
 42 45  0  0  0  0  0  0  0  0999 V2000
   -2.3318   89.9585    3.9359 C   0  0  2  0  0  0  0  0  0  0  0  0
   -3.2149   88.8294    4.0476 O   0  0  0  0  0  0  0  0  0  0  0  0
   -3.1984   91.1027    3.4079 C   0  0  2  0  0  0  0  0  0  0  0  0
   -4.3542   91.2687    4.2997 N   0  0  0  0  0  0  0  0  0  0  0  0
   -3.6885   90.7654    1.9975 C   0  0  1  0  0  0  0  0  0  0  0  0
   -4.4989   91.8243    1.4801 O   0  0  0  0  0  0  0  0  0  0  0  0
   -2.4843   90.5189    1.0880 C   0  0  2  0  0  0  0  0  0  0  0  0
   -2.9438   90.1104   -0.2003 O   0  0  0  0  0  0  0  0  0  0  0  0
   -1.6470   89.3824    1.6764 C   0  0  2  0  0  0  0  0  0  0  0  0
   -1.2483   89.7225    3.0135 O   0  0  0  0  0  0  0  0  0  0  0  0
   -0.4320   89.1330    0.7789 C   0  0  0  0  0  0  0  0  0  0  0  0
    0.3233   87.9551    1.2311 N   0  0  0  0  0  0  0  0  0  0  0  0
   -3.0681   85.4939    6.5969 C   0  0  2  0  0  0  0  0  0  0  0  0
   -2.7761   84.2662    7.3523 N   0  0  0  0  0  0  0  0  0  0  0  0
   -3.1502   85.2029    5.0971 C   0  0  0  0  0  0  0  0  0  0  0  0
   -3.5855   86.4854    4.3809 C   0  0  2  0  0  0  0  0  0  0  0  0
   -3.5868   86.2540    2.9292 N   0  0  0  0  0  0  0  0  0  0  0  0
   -2.6467   87.6613    4.6657 C   0  0  2  0  0  0  0  0  0  0  0  0
   -2.3197   87.8719    6.1399 C   0  0  2  0  0  0  0  0  0  0  0  0
   -1.1648   88.7263    6.1601 O   0  0  0  0  0  0  0  0  0  0  0  0
   -1.9885   86.5501    6.8454 C   0  0  1  0  0  0  0  0  0  0  0  0
   -1.8791   86.7406    8.2585 O   0  0  0  0  0  0  0  0  0  0  0  0
   -0.9741   89.4882    7.3632 C   0  0  1  0  0  0  0  0  0  0  0  0
    0.5255   89.7515    7.5102 C   0  0  2  0  0  0  0  0  0  0  0  0
    1.1532   88.6250    8.1271 O   0  0  0  0  0  0  0  0  0  0  0  0
    0.4639   90.9082    8.5035 C   0  0  1  0  0  0  0  0  0  0  0  0
   -0.6392   91.7480    7.8789 C   0  0  2  0  0  0  0  0  0  0  0  0
   -1.5677   90.8016    7.3106 O   0  0  0  0  0  0  0  0  0  0  0  0
   -0.0289   92.6614    6.8095 C   0  0  0  0  0  0  0  0  0  0  0  0
   -1.0383   93.4819    6.2142 O   0  0  0  0  0  0  0  0  0  0  0  0
    0.4082   91.3775   10.8003 C   0  0  2  0  0  0  0  0  0  0  0  0
    0.0459   90.4241    9.7897 O   0  0  0  0  0  0  0  0  0  0  0  0
   -0.0250   90.8570   12.1746 C   0  0  1  0  0  0  0  0  0  0  0  0
    0.0339   96.0751   11.9106 N   0  0  0  0  0  0  0  0  0  0  0  0
    0.2601   91.9039   13.2568 C   0  0  1  0  0  0  0  0  0  0  0  0
    1.6714   92.0642   13.4329 O   0  0  0  0  0  0  0  0  0  0  0  0
   -0.3699   93.2425   12.8623 C   0  0  2  0  0  0  0  0  0  0  0  0
   -1.7934   93.0906   12.8510 O   0  0  0  0  0  0  0  0  0  0  0  0
    0.1258   93.6530   11.4716 C   0  0  1  0  0  0  0  0  0  0  0  0
   -0.2187   92.6390   10.5094 O   0  0  0  0  0  0  0  0  0  0  0  0
   -0.4612   94.9994   11.0391 C   0  0  0  0  0  0  0  0  0  0  0  0
   -1.4728   90.6001   12.1468 N   0  0  0  0  0  0  0  0  0  0  0  0
  1  2  1  6  0  0  0
  1  3  1  0  0  0  0
  1 10  1  0  0  0  0
  3  4  1  1  0  0  0
  3  5  1  0  0  0  0
  5  6  1  6  0  0  0
  5  7  1  0  0  0  0
  7  8  1  6  0  0  0
  7  9  1  0  0  0  0
  9 10  1  0  0  0  0
  9 11  1  6  0  0  0
 11 12  1  0  0  0  0
 13 14  1  1  0  0  0
 13 15  1  0  0  0  0
 13 21  1  0  0  0  0
 16 15  1  0  0  0  0
 16 17  1  6  0  0  0
 18  2  1  1  0  0  0
 18 16  1  0  0  0  0
 19 18  1  0  0  0  0
 19 20  1  6  0  0  0
 21 19  1  0  0  0  0
 21 22  1  1  0  0  0
 23 20  1  6  0  0  0
 23 24  1  0  0  0  0
 23 28  1  0  0  0  0
 24 25  1  1  0  0  0
 24 26  1  0  0  0  0
 26 27  1  0  0  0  0
 26 32  1  1  0  0  0
 27 28  1  0  0  0  0
 27 29  1  6  0  0  0
 29 30  1  0  0  0  0
 31 32  1  6  0  0  0
 31 40  1  0  0  0  0
 33 31  1  0  0  0  0
 33 42  1  6  0  0  0
 35 33  1  0  0  0  0
 35 36  1  6  0  0  0
 37 35  1  0  0  0  0
 37 38  1  6  0  0  0
 37 39  1  0  0  0  0
 39 40  1  0  0  0  0
 39 41  1  6  0  0  0
 41 34  1  0  0  0  0
M  END
>  <CHROM.1>
-173.63470819,-174.01843299,-165.99370247,156.34176030,152.34282702,160.94336330
-179.11832218,-179.47239654,65.58152289,-1.41712990,90.12505200,6.83933735
-3.06020455,1.31586849,2.64897626

>  <Name>
2fcy_lig

>  <RI>
2.32494e+07

>  <Rbt.Current_Directory>
/home/itssahil/PROJECTS/Mol_Feturizer/New_Systems/rnas/2fcy

>  <Rbt.Executable>
rbdock ($Id: //depot/dev/client3/rdock/2013.1/src/exe/rbdock.cxx#4 $)

>  <Rbt.Library>
libRbt.so (2013.1, Build901 2013/11/27)

>  <Rbt.Parameter_File>
/export/apps/rDock/src/rDock_2013.1_src/data/scripts/dock_solv.prm

>  <Rbt.Receptor>
prm/pocket_docking_8.prm

>  <SCORE>
-10.8319

>  <SCORE.INTER>
-5.59461

>  <SCORE.INTER.CONST>
1

>  <SCORE.INTER.POLAR>
-0.959166

>  <SCORE.INTER.ROT>
9

>  <SCORE.INTER.SOLV>
16.1917

>  <SCORE.INTER.VDW>
-15.5297

>  <SCORE.INTER.norm>
-0.133205

>  <SCORE.INTRA>
-5.25914

>  <SCORE.INTRA.DIHEDRAL>
-8.3528

>  <SCORE.INTRA.DIHEDRAL.0>
17.3446

>  <SCORE.INTRA.POLAR>
0

>  <SCORE.INTRA.POLAR.0>
0

>  <SCORE.INTRA.REPUL>
0

>  <SCORE.INTRA.REPUL.0>
0

>  <SCORE.INTRA.SOLV>
-5.16224

>  <SCORE.INTRA.SOLV.lig_0>
-112.452

>  <SCORE.INTRA.VDW>
1.49837

>  <SCORE.INTRA.VDW.0>
-5.95059

>  <SCORE.INTRA.norm>
-0.125218

>  <SCORE.RESTR>
0.0218675

>  <SCORE.RESTR.CAVITY>
0.0218675

>  <SCORE.RESTR.norm>
0.000520655

>  <SCORE.SYSTEM>
0

>  <SCORE.SYSTEM.CONST>
0

>  <SCORE.SYSTEM.DIHEDRAL>
0

>  <SCORE.SYSTEM.SOLV>
0

>  <SCORE.SYSTEM.norm>
0

>  <SCORE.heavy>
42

>  <SCORE.norm>
-0.257902

>  <RMSD>
10.699

$$$$
2fcy_lig
 OpenBabel11021811433D
libRbt.so/2013.1/901 2013/11/27
 42 45  0  0  0  0  0  0  0  0999 V2000
   -2.4127   90.1084    4.0412 C   0  0  2  0  0  0  0  0  0  0  0  0
   -3.2631   88.9507    4.1021 O   0  0  0  0  0  0  0  0  0  0  0  0
   -3.3195   91.2571    3.5973 C   0  0  2  0  0  0  0  0  0  0  0  0
   -4.4615   91.3387    4.5181 N   0  0  0  0  0  0  0  0  0  0  0  0
   -3.8281   90.9893    2.1785 C   0  0  1  0  0  0  0  0  0  0  0  0
   -4.6763   92.0539    1.7392 O   0  0  0  0  0  0  0  0  0  0  0  0
   -2.6359   90.8298    1.2345 C   0  0  2  0  0  0  0  0  0  0  0  0
   -3.1096   90.4848   -0.0672 O   0  0  0  0  0  0  0  0  0  0  0  0
   -1.7573   89.6845    1.7397 C   0  0  2  0  0  0  0  0  0  0  0  0
   -1.3416   89.9567    3.0871 O   0  0  0  0  0  0  0  0  0  0  0  0
   -0.5540   89.5216    0.8072 C   0  0  0  0  0  0  0  0  0  0  0  0
    0.2498   88.3496    1.1852 N   0  0  0  0  0  0  0  0  0  0  0  0
   -3.0766   85.5249    6.5261 C   0  0  2  0  0  0  0  0  0  0  0  0
   -2.7636   84.2806    7.2448 N   0  0  0  0  0  0  0  0  0  0  0  0
   -3.0912   85.2907    5.0142 C   0  0  0  0  0  0  0  0  0  0  0  0
   -3.5510   86.5827    4.3311 C   0  0  2  0  0  0  0  0  0  0  0  0
   -3.4891   86.4091    2.8726 N   0  0  0  0  0  0  0  0  0  0  0  0
   -2.6716   87.7819    4.6967 C   0  0  2  0  0  0  0  0  0  0  0  0
   -2.4082   87.9465    6.1894 C   0  0  2  0  0  0  0  0  0  0  0  0
   -1.2903   88.8436    6.2868 O   0  0  0  0  0  0  0  0  0  0  0  0
   -2.0505   86.6116    6.8562 C   0  0  1  0  0  0  0  0  0  0  0  0
   -2.0014   86.7500    8.2787 O   0  0  0  0  0  0  0  0  0  0  0  0
   -1.1197   89.4912    7.5579 C   0  0  1  0  0  0  0  0  0  0  0  0
    0.3074   89.2104    8.0314 C   0  0  2  0  0  0  0  0  0  0  0  0
    0.3579   87.9358    8.6768 O   0  0  0  0  0  0  0  0  0  0  0  0
    0.4295   90.3161    9.0759 C   0  0  1  0  0  0  0  0  0  0  0  0
   -0.1518   91.4894    8.3028 C   0  0  2  0  0  0  0  0  0  0  0  0
   -1.1992   90.9294    7.4843 O   0  0  0  0  0  0  0  0  0  0  0  0
    0.9545   92.1286    7.4556 C   0  0  0  0  0  0  0  0  0  0  0  0
    0.4401   93.2357    6.7100 O   0  0  0  0  0  0  0  0  0  0  0  0
    0.1378   90.6397   11.3800 C   0  0  2  0  0  0  0  0  0  0  0  0
   -0.4018   90.0114   10.2071 O   0  0  0  0  0  0  0  0  0  0  0  0
   -0.8031   90.4047   12.5660 C   0  0  1  0  0  0  0  0  0  0  0  0
   -0.0805   94.8409   11.4055 N   0  0  0  0  0  0  0  0  0  0  0  0
   -0.2985   91.1523   13.8049 C   0  0  1  0  0  0  0  0  0  0  0  0
    0.9208   90.5684   14.2747 O   0  0  0  0  0  0  0  0  0  0  0  0
   -0.0707   92.6274   13.4635 C   0  0  2  0  0  0  0  0  0  0  0  0
   -1.3345   93.2238   13.1526 O   0  0  0  0  0  0  0  0  0  0  0  0
    0.8719   92.7361   12.2602 C   0  0  1  0  0  0  0  0  0  0  0  0
    0.3059   92.0463   11.1303 O   0  0  0  0  0  0  0  0  0  0  0  0
    1.1484   94.1962   11.8913 C   0  0  0  0  0  0  0  0  0  0  0  0
   -2.1354   90.9233   12.2212 N   0  0  0  0  0  0  0  0  0  0  0  0
  1  2  1  6  0  0  0
  1  3  1  0  0  0  0
  1 10  1  0  0  0  0
  3  4  1  1  0  0  0
  3  5  1  0  0  0  0
  5  6  1  6  0  0  0
  5  7  1  0  0  0  0
  7  8  1  6  0  0  0
  7  9  1  0  0  0  0
  9 10  1  0  0  0  0
  9 11  1  6  0  0  0
 11 12  1  0  0  0  0
 13 14  1  1  0  0  0
 13 15  1  0  0  0  0
 13 21  1  0  0  0  0
 16 15  1  0  0  0  0
 16 17  1  6  0  0  0
 18  2  1  1  0  0  0
 18 16  1  0  0  0  0
 19 18  1  0  0  0  0
 19 20  1  6  0  0  0
 21 19  1  0  0  0  0
 21 22  1  1  0  0  0
 23 20  1  6  0  0  0
 23 24  1  0  0  0  0
 23 28  1  0  0  0  0
 24 25  1  1  0  0  0
 24 26  1  0  0  0  0
 26 27  1  0  0  0  0
 26 32  1  1  0  0  0
 27 28  1  0  0  0  0
 27 29  1  6  0  0  0
 29 30  1  0  0  0  0
 31 32  1  6  0  0  0
 31 40  1  0  0  0  0
 33 31  1  0  0  0  0
 33 42  1  6  0  0  0
 35 33  1  0  0  0  0
 35 36  1  6  0  0  0
 37 35  1  0  0  0  0
 37 38  1  6  0  0  0
 37 39  1  0  0  0  0
 39 40  1  0  0  0  0
 39 41  1  6  0  0  0
 41 34  1  0  0  0  0
M  END
>  <CHROM.1>
-170.87912697,-174.68435467,-164.68712839,160.65825288,125.71585768,153.43375367
179.80523536,175.75210249,-66.25742929,-1.40146681,89.96921977,7.08807100
-2.72928699,1.27858737,2.42173739

>  <Name>
2fcy_lig

>  <RI>
2.32494e+07

>  <Rbt.Current_Directory>
/home/itssahil/PROJECTS/Mol_Feturizer/New_Systems/rnas/2fcy

>  <Rbt.Executable>
rbdock ($Id: //depot/dev/client3/rdock/2013.1/src/exe/rbdock.cxx#4 $)

>  <Rbt.Library>
libRbt.so (2013.1, Build901 2013/11/27)

>  <Rbt.Parameter_File>
/export/apps/rDock/src/rDock_2013.1_src/data/scripts/dock_solv.prm

>  <Rbt.Receptor>
prm/pocket_docking_8.prm

>  <SCORE>
-15.1411

>  <SCORE.INTER>
-13.5632

>  <SCORE.INTER.CONST>
1

>  <SCORE.INTER.POLAR>
-1.91833

>  <SCORE.INTER.ROT>
9

>  <SCORE.INTER.SOLV>
16.645

>  <SCORE.INTER.VDW>
-17.796

>  <SCORE.INTER.norm>
-0.322934

>  <SCORE.INTRA>
-1.58747

>  <SCORE.INTRA.DIHEDRAL>
-3.64695

>  <SCORE.INTRA.DIHEDRAL.0>
17.3446

>  <SCORE.INTRA.POLAR>
0

>  <SCORE.INTRA.POLAR.0>
0

>  <SCORE.INTRA.REPUL>
0.0303576

>  <SCORE.INTRA.REPUL.0>
0

>  <SCORE.INTRA.SOLV>
-3.33431

>  <SCORE.INTRA.SOLV.lig_0>
-112.452

>  <SCORE.INTRA.VDW>
1.75137

>  <SCORE.INTRA.VDW.0>
-5.95059

>  <SCORE.INTRA.norm>
-0.0377968

>  <SCORE.RESTR>
0.00959192

>  <SCORE.RESTR.CAVITY>
0.00959192

>  <SCORE.RESTR.norm>
0.000228379

>  <SCORE.SYSTEM>
0

>  <SCORE.SYSTEM.CONST>
0

>  <SCORE.SYSTEM.DIHEDRAL>
0

>  <SCORE.SYSTEM.SOLV>
0

>  <SCORE.SYSTEM.norm>
0

>  <SCORE.heavy>
42

>  <SCORE.norm>
-0.360502

>  <RMSD>
10.740

$$$$
2fcy_lig
 OpenBabel11021811433D
libRbt.so/2013.1/901 2013/11/27
 42 45  0  0  0  0  0  0  0  0999 V2000
   -6.0627   90.6824    3.6648 C   0  0  2  0  0  0  0  0  0  0  0  0
   -5.2577   91.8533    3.4455 O   0  0  0  0  0  0  0  0  0  0  0  0
   -6.9890   91.0371    4.8290 C   0  0  2  0  0  0  0  0  0  0  0  0
   -7.7147   92.2702    4.4948 N   0  0  0  0  0  0  0  0  0  0  0  0
   -6.1578   91.2631    6.0944 C   0  0  1  0  0  0  0  0  0  0  0  0
   -7.0039   91.5925    7.1995 O   0  0  0  0  0  0  0  0  0  0  0  0
   -5.3452   90.0041    6.3985 C   0  0  2  0  0  0  0  0  0  0  0  0
   -4.4991   90.2503    7.5215 O   0  0  0  0  0  0  0  0  0  0  0  0
   -4.4568   89.6883    5.1942 C   0  0  2  0  0  0  0  0  0  0  0  0
   -5.2737   89.5295    4.0237 O   0  0  0  0  0  0  0  0  0  0  0  0
   -3.6451   88.4229    5.4832 C   0  0  0  0  0  0  0  0  0  0  0  0
   -2.9147   87.9812    4.2857 N   0  0  0  0  0  0  0  0  0  0  0  0
   -3.3046   90.0970    0.1672 C   0  0  2  0  0  0  0  0  0  0  0  0
   -2.5224   89.7437   -1.0271 N   0  0  0  0  0  0  0  0  0  0  0  0
   -4.3170   91.1988   -0.1523 C   0  0  0  0  0  0  0  0  0  0  0  0
   -5.1865   91.4283    1.0881 C   0  0  2  0  0  0  0  0  0  0  0  0
   -6.1097   92.5437    0.8340 N   0  0  0  0  0  0  0  0  0  0  0  0
   -4.3569   91.7812    2.3261 C   0  0  2  0  0  0  0  0  0  0  0  0
   -3.1697   90.8591    2.5807 C   0  0  2  0  0  0  0  0  0  0  0  0
   -2.3272   91.5628    3.5075 O   0  0  0  0  0  0  0  0  0  0  0  0
   -2.3842   90.5718    1.2942 C   0  0  1  0  0  0  0  0  0  0  0  0
   -1.4010   89.5568    1.5138 O   0  0  0  0  0  0  0  0  0  0  0  0
   -1.3840   90.7547    4.2298 C   0  0  1  0  0  0  0  0  0  0  0  0
    0.0114   91.3191    3.9578 C   0  0  2  0  0  0  0  0  0  0  0  0
    0.5102   90.7949    2.7249 O   0  0  0  0  0  0  0  0  0  0  0  0
    0.7558   90.6755    5.1240 C   0  0  1  0  0  0  0  0  0  0  0  0
   -0.2241   90.9419    6.2557 C   0  0  2  0  0  0  0  0  0  0  0  0
   -1.5346   90.8388    5.6618 O   0  0  0  0  0  0  0  0  0  0  0  0
    0.0362   92.3413    6.8249 C   0  0  0  0  0  0  0  0  0  0  0  0
   -0.7537   92.5618    7.9971 O   0  0  0  0  0  0  0  0  0  0  0  0
    1.5530   88.6596    6.0180 C   0  0  2  0  0  0  0  0  0  0  0  0
    0.8795   89.2617    4.9020 O   0  0  0  0  0  0  0  0  0  0  0  0
    2.1701   87.3258    5.5853 C   0  0  1  0  0  0  0  0  0  0  0  0
    0.4909   88.8932   10.3806 N   0  0  0  0  0  0  0  0  0  0  0  0
    2.8070   86.6171    6.7856 C   0  0  1  0  0  0  0  0  0  0  0  0
    3.9557   87.3414    7.2375 O   0  0  0  0  0  0  0  0  0  0  0  0
    1.7860   86.5007    7.9207 C   0  0  2  0  0  0  0  0  0  0  0  0
    0.7258   85.6388    7.4935 O   0  0  0  0  0  0  0  0  0  0  0  0
    1.2315   87.8892    8.2567 C   0  0  1  0  0  0  0  0  0  0  0  0
    0.6145   88.4658    7.0907 O   0  0  0  0  0  0  0  0  0  0  0  0
    0.2188   87.8289    9.4034 C   0  0  0  0  0  0  0  0  0  0  0  0
    1.1049   86.4650    5.0493 N   0  0  0  0  0  0  0  0  0  0  0  0
  1  2  1  1  0  0  0
  1  3  1  0  0  0  0
  1 10  1  0  0  0  0
  3  4  1  6  0  0  0
  3  5  1  0  0  0  0
  5  6  1  1  0  0  0
  5  7  1  0  0  0  0
  7  8  1  1  0  0  0
  7  9  1  0  0  0  0
  9 10  1  0  0  0  0
  9 11  1  1  0  0  0
 11 12  1  0  0  0  0
 13 14  1  6  0  0  0
 13 15  1  0  0  0  0
 13 21  1  0  0  0  0
 16 15  1  0  0  0  0
 16 17  1  6  0  0  0
 18  2  1  1  0  0  0
 18 16  1  0  0  0  0
 19 18  1  0  0  0  0
 19 20  1  1  0  0  0
 21 19  1  0  0  0  0
 21 22  1  1  0  0  0
 23 20  1  6  0  0  0
 23 24  1  0  0  0  0
 23 28  1  0  0  0  0
 24 25  1  6  0  0  0
 24 26  1  0  0  0  0
 26 27  1  0  0  0  0
 26 32  1  6  0  0  0
 27 28  1  0  0  0  0
 27 29  1  6  0  0  0
 29 30  1  0  0  0  0
 31 32  1  6  0  0  0
 31 40  1  0  0  0  0
 33 31  1  0  0  0  0
 33 42  1  1  0  0  0
 35 33  1  0  0  0  0
 35 36  1  1  0  0  0
 37 35  1  0  0  0  0
 37 38  1  6  0  0  0
 37 39  1  0  0  0  0
 39 40  1  0  0  0  0
 39 41  1  1  0  0  0
 41 34  1  0  0  0  0
M  END
>  <CHROM.1>
-176.19804882,172.33702093,54.79461479,160.64467391,123.17836071,-178.65506998
-172.80380513,-157.98479770,134.10987561,-2.01728830,89.88381445,4.88087120
2.55866853,0.38391447,-1.45199642

>  <Name>
2fcy_lig

>  <RI>
2.32494e+07

>  <Rbt.Current_Directory>
/home/itssahil/PROJECTS/Mol_Feturizer/New_Systems/rnas/2fcy

>  <Rbt.Executable>
rbdock ($Id: //depot/dev/client3/rdock/2013.1/src/exe/rbdock.cxx#4 $)

>  <Rbt.Library>
libRbt.so (2013.1, Build901 2013/11/27)

>  <Rbt.Parameter_File>
/export/apps/rDock/src/rDock_2013.1_src/data/scripts/dock_solv.prm

>  <Rbt.Receptor>
prm/pocket_docking_8.prm

>  <SCORE>
-11.4285

>  <SCORE.INTER>
-11.9955

>  <SCORE.INTER.CONST>
1

>  <SCORE.INTER.POLAR>
-0.935612

>  <SCORE.INTER.ROT>
9

>  <SCORE.INTER.SOLV>
15.4983

>  <SCORE.INTER.VDW>
-19.6444

>  <SCORE.INTER.norm>
-0.285608

>  <SCORE.INTRA>
0.567036

>  <SCORE.INTRA.DIHEDRAL>
-0.688634

>  <SCORE.INTRA.DIHEDRAL.0>
17.3446

>  <SCORE.INTRA.POLAR>
0

>  <SCORE.INTRA.POLAR.0>
0

>  <SCORE.INTRA.REPUL>
0.0407696

>  <SCORE.INTRA.REPUL.0>
0

>  <SCORE.INTRA.SOLV>
-0.55967

>  <SCORE.INTRA.SOLV.lig_0>
-112.452

>  <SCORE.INTRA.VDW>
0.98734

>  <SCORE.INTRA.VDW.0>
-5.95059

>  <SCORE.INTRA.norm>
0.0135009

>  <SCORE.RESTR>
0

>  <SCORE.RESTR.CAVITY>
0

>  <SCORE.RESTR.norm>
0

>  <SCORE.SYSTEM>
0

>  <SCORE.SYSTEM.CONST>
0

>  <SCORE.SYSTEM.DIHEDRAL>
0

>  <SCORE.SYSTEM.SOLV>
0

>  <SCORE.SYSTEM.norm>
0

>  <SCORE.heavy>
42

>  <SCORE.norm>
-0.272107

>  <RMSD>
10.766

$$$$
2fcy_lig
 OpenBabel11021811433D
libRbt.so/2013.1/901 2013/11/27
 42 45  0  0  0  0  0  0  0  0999 V2000
   -6.9545   91.3181    7.2289 C   0  0  2  0  0  0  0  0  0  0  0  0
   -8.1293   90.7799    6.5985 O   0  0  0  0  0  0  0  0  0  0  0  0
   -6.2118   92.0755    6.1273 C   0  0  2  0  0  0  0  0  0  0  0  0
   -7.1302   93.0518    5.5253 N   0  0  0  0  0  0  0  0  0  0  0  0
   -5.7429   91.0895    5.0544 C   0  0  1  0  0  0  0  0  0  0  0  0
   -5.0408   91.7751    4.0138 O   0  0  0  0  0  0  0  0  0  0  0  0
   -4.8473   90.0297    5.6967 C   0  0  2  0  0  0  0  0  0  0  0  0
   -4.4902   89.0575    4.7143 O   0  0  0  0  0  0  0  0  0  0  0  0
   -5.6347   89.3228    6.8009 C   0  0  2  0  0  0  0  0  0  0  0  0
   -6.0924   90.2901    7.7587 O   0  0  0  0  0  0  0  0  0  0  0  0
   -4.7443   88.2653    7.4586 C   0  0  0  0  0  0  0  0  0  0  0  0
   -5.4786   87.5341    8.5020 N   0  0  0  0  0  0  0  0  0  0  0  0
  -10.5366   94.1618    5.9549 C   0  0  2  0  0  0  0  0  0  0  0  0
  -11.5850   95.1870    5.8426 N   0  0  0  0  0  0  0  0  0  0  0  0
  -10.9444   92.8842    5.2185 C   0  0  0  0  0  0  0  0  0  0  0  0
   -9.7642   91.9080    5.2579 C   0  0  2  0  0  0  0  0  0  0  0  0
  -10.1629   90.6390    4.6321 N   0  0  0  0  0  0  0  0  0  0  0  0
   -9.3072   91.6010    6.6870 C   0  0  2  0  0  0  0  0  0  0  0  0
   -9.1077   92.8286    7.5689 C   0  0  2  0  0  0  0  0  0  0  0  0
   -9.0725   92.3329    8.9169 O   0  0  0  0  0  0  0  0  0  0  0  0
  -10.2619   93.8292    7.4235 C   0  0  1  0  0  0  0  0  0  0  0  0
   -9.9636   95.0527    8.1012 O   0  0  0  0  0  0  0  0  0  0  0  0
   -8.1372   92.9801    9.7947 C   0  0  1  0  0  0  0  0  0  0  0  0
   -8.5540   92.6594   11.2311 C   0  0  2  0  0  0  0  0  0  0  0  0
   -9.5736   93.5695   11.6505 O   0  0  0  0  0  0  0  0  0  0  0  0
   -7.2446   93.0001   11.9366 C   0  0  1  0  0  0  0  0  0  0  0  0
   -6.2489   92.3181   11.0116 C   0  0  2  0  0  0  0  0  0  0  0  0
   -6.7951   92.4635    9.6845 O   0  0  0  0  0  0  0  0  0  0  0  0
   -6.1167   90.8454   11.4162 C   0  0  0  0  0  0  0  0  0  0  0  0
   -5.1170   90.1951   10.6261 O   0  0  0  0  0  0  0  0  0  0  0  0
   -5.7439   94.7230   12.4641 C   0  0  2  0  0  0  0  0  0  0  0  0
   -7.0382   94.4216   11.9204 O   0  0  0  0  0  0  0  0  0  0  0  0
   -5.8144   94.7066   13.9944 C   0  0  1  0  0  0  0  0  0  0  0  0
   -3.4364   97.5144   10.3686 N   0  0  0  0  0  0  0  0  0  0  0  0
   -4.4687   95.1254   14.5960 C   0  0  1  0  0  0  0  0  0  0  0  0
   -3.4763   94.1277   14.3353 O   0  0  0  0  0  0  0  0  0  0  0  0
   -4.0284   96.4651   13.9995 C   0  0  2  0  0  0  0  0  0  0  0  0
   -4.9558   97.4746   14.4120 O   0  0  0  0  0  0  0  0  0  0  0  0
   -4.0074   96.3639   12.4706 C   0  0  1  0  0  0  0  0  0  0  0  0
   -5.3155   96.0097   11.9847 O   0  0  0  0  0  0  0  0  0  0  0  0
   -3.5520   97.6757   11.8255 C   0  0  0  0  0  0  0  0  0  0  0  0
   -6.8376   95.6692   14.4298 N   0  0  0  0  0  0  0  0  0  0  0  0
  1  2  1  6  0  0  0
  1  3  1  0  0  0  0
  1 10  1  0  0  0  0
  3  4  1  6  0  0  0
  3  5  1  0  0  0  0
  5  6  1  6  0  0  0
  5  7  1  0  0  0  0
  7  8  1  6  0  0  0
  7  9  1  0  0  0  0
  9 10  1  0  0  0  0
  9 11  1  1  0  0  0
 11 12  1  0  0  0  0
 13 14  1  1  0  0  0
 13 15  1  0  0  0  0
 13 21  1  0  0  0  0
 16 15  1  0  0  0  0
 16 17  1  1  0  0  0
 18  2  1  6  0  0  0
 18 16  1  0  0  0  0
 19 18  1  0  0  0  0
 19 20  1  1  0  0  0
 21 19  1  0  0  0  0
 21 22  1  1  0  0  0
 23 20  1  6  0  0  0
 23 24  1  0  0  0  0
 23 28  1  0  0  0  0
 24 25  1  1  0  0  0
 24 26  1  0  0  0  0
 26 27  1  0  0  0  0
 26 32  1  6  0  0  0
 27 28  1  0  0  0  0
 27 29  1  1  0  0  0
 29 30  1  0  0  0  0
 31 32  1  6  0  0  0
 31 40  1  0  0  0  0
 33 31  1  0  0  0  0
 33 42  1  6  0  0  0
 35 33  1  0  0  0  0
 35 36  1  6  0  0  0
 37 35  1  0  0  0  0
 37 38  1  6  0  0  0
 37 39  1  0  0  0  0
 39 40  1  0  0  0  0
 39 41  1  6  0  0  0
 41 34  1  0  0  0  0
M  END
>  <CHROM.1>
-92.96852367,-178.33842120,121.39691766,142.10280061,161.75262775,-174.21809373
-175.94123688,-80.94700572,175.38028149,-6.83165472,92.93290547,9.18886538
-1.92475039,-0.56229364,0.83245943

>  <Name>
2fcy_lig

>  <RI>
2.89127e+07

>  <Rbt.Current_Directory>
/home/itssahil/PROJECTS/Mol_Feturizer/New_Systems/rnas/2fcy

>  <Rbt.Executable>
rbdock ($Id: //depot/dev/client3/rdock/2013.1/src/exe/rbdock.cxx#4 $)

>  <Rbt.Library>
libRbt.so (2013.1, Build901 2013/11/27)

>  <Rbt.Parameter_File>
/export/apps/rDock/src/rDock_2013.1_src/data/scripts/dock_solv.prm

>  <Rbt.Receptor>
prm/pocket_docking_7.prm

>  <SCORE>
0.62338

>  <SCORE.INTER>
-5.45913

>  <SCORE.INTER.CONST>
1

>  <SCORE.INTER.POLAR>
0

>  <SCORE.INTER.ROT>
9

>  <SCORE.INTER.SOLV>
16.144

>  <SCORE.INTER.VDW>
-18.6207

>  <SCORE.INTER.norm>
-0.129979

>  <SCORE.INTRA>
6.08251

>  <SCORE.INTRA.DIHEDRAL>
3.08361

>  <SCORE.INTRA.DIHEDRAL.0>
17.3446

>  <SCORE.INTRA.POLAR>
0

>  <SCORE.INTRA.POLAR.0>
0

>  <SCORE.INTRA.REPUL>
0.0586545

>  <SCORE.INTRA.REPUL.0>
0

>  <SCORE.INTRA.SOLV>
-0.0185292

>  <SCORE.INTRA.SOLV.lig_0>
-112.452

>  <SCORE.INTRA.VDW>
4.2567

>  <SCORE.INTRA.VDW.0>
-5.95059

>  <SCORE.INTRA.norm>
0.144822

>  <SCORE.RESTR>
0

>  <SCORE.RESTR.CAVITY>
0

>  <SCORE.RESTR.norm>
0

>  <SCORE.SYSTEM>
0

>  <SCORE.SYSTEM.CONST>
0

>  <SCORE.SYSTEM.DIHEDRAL>
0

>  <SCORE.SYSTEM.SOLV>
0

>  <SCORE.SYSTEM.norm>
0

>  <SCORE.heavy>
42

>  <SCORE.norm>
0.0148424

>  <RMSD>
11.011

$$$$
2fcy_lig
 OpenBabel11021811433D
libRbt.so/2013.1/901 2013/11/27
 42 45  0  0  0  0  0  0  0  0999 V2000
   -5.0748   92.5708    3.2423 C   0  0  2  0  0  0  0  0  0  0  0  0
   -5.7232   91.3459    2.8595 O   0  0  0  0  0  0  0  0  0  0  0  0
   -6.1941   93.4854    3.7417 C   0  0  2  0  0  0  0  0  0  0  0  0
   -6.9371   92.7865    4.7992 N   0  0  0  0  0  0  0  0  0  0  0  0
   -7.1422   93.8131    2.5854 C   0  0  1  0  0  0  0  0  0  0  0  0
   -8.1967   94.6722    3.0277 O   0  0  0  0  0  0  0  0  0  0  0  0
   -6.3527   94.4727    1.4542 C   0  0  2  0  0  0  0  0  0  0  0  0
   -7.2188   94.6891    0.3402 O   0  0  0  0  0  0  0  0  0  0  0  0
   -5.2382   93.5231    1.0124 C   0  0  2  0  0  0  0  0  0  0  0  0
   -4.4022   93.2080    2.1368 O   0  0  0  0  0  0  0  0  0  0  0  0
   -4.4340   94.1774   -0.1141 C   0  0  0  0  0  0  0  0  0  0  0  0
   -3.4557   93.2353   -0.6781 N   0  0  0  0  0  0  0  0  0  0  0  0
   -4.1464   87.4660    3.1855 C   0  0  2  0  0  0  0  0  0  0  0  0
   -3.4406   86.1807    3.0731 N   0  0  0  0  0  0  0  0  0  0  0  0
   -4.8895   87.7935    1.8888 C   0  0  0  0  0  0  0  0  0  0  0  0
   -5.7082   89.0691    2.1118 C   0  0  2  0  0  0  0  0  0  0  0  0
   -6.3625   89.4523    0.8525 N   0  0  0  0  0  0  0  0  0  0  0  0
   -4.8418   90.2476    2.5657 C   0  0  2  0  0  0  0  0  0  0  0  0
   -3.8879   89.9317    3.7123 C   0  0  2  0  0  0  0  0  0  0  0  0
   -2.9274   91.0002    3.7199 O   0  0  0  0  0  0  0  0  0  0  0  0
   -3.1630   88.5960    3.5000 C   0  0  1  0  0  0  0  0  0  0  0  0
   -2.4278   88.2241    4.6689 O   0  0  0  0  0  0  0  0  0  0  0  0
   -2.3960   91.3515    5.0078 C   0  0  1  0  0  0  0  0  0  0  0  0
   -1.2558   92.3455    4.7813 C   0  0  2  0  0  0  0  0  0  0  0  0
   -0.0517   91.6358    4.4809 O   0  0  0  0  0  0  0  0  0  0  0  0
   -1.1677   92.9259    6.1898 C   0  0  1  0  0  0  0  0  0  0  0  0
   -2.6420   93.1506    6.4867 C   0  0  2  0  0  0  0  0  0  0  0  0
   -3.3344   92.0623    5.8411 O   0  0  0  0  0  0  0  0  0  0  0  0
   -3.0650   94.5115    5.9218 C   0  0  0  0  0  0  0  0  0  0  0  0
   -4.4170   94.8074    6.2837 O   0  0  0  0  0  0  0  0  0  0  0  0
   -0.7780   92.4001    8.4415 C   0  0  2  0  0  0  0  0  0  0  0  0
   -0.6285   91.9435    7.0885 O   0  0  0  0  0  0  0  0  0  0  0  0
    0.2559   93.4930    8.7308 C   0  0  1  0  0  0  0  0  0  0  0  0
   -1.7780   89.4788   11.2299 N   0  0  0  0  0  0  0  0  0  0  0  0
    0.1820   93.9236   10.1997 C   0  0  1  0  0  0  0  0  0  0  0  0
   -1.0494   94.6067   10.4553 O   0  0  0  0  0  0  0  0  0  0  0  0
    0.2929   92.6949   11.1064 C   0  0  2  0  0  0  0  0  0  0  0  0
    1.5968   92.1261   10.9460 O   0  0  0  0  0  0  0  0  0  0  0  0
   -0.7786   91.6710   10.7168 C   0  0  1  0  0  0  0  0  0  0  0  0
   -0.6127   91.2881    9.3389 O   0  0  0  0  0  0  0  0  0  0  0  0
   -0.7226   90.4291   11.6106 C   0  0  0  0  0  0  0  0  0  0  0  0
    1.5989   92.9521    8.4724 N   0  0  0  0  0  0  0  0  0  0  0  0
  1  2  1  6  0  0  0
  1  3  1  0  0  0  0
  1 10  1  0  0  0  0
  3  4  1  1  0  0  0
  3  5  1  0  0  0  0
  5  6  1  1  0  0  0
  5  7  1  0  0  0  0
  7  8  1  6  0  0  0
  7  9  1  0  0  0  0
  9 10  1  0  0  0  0
  9 11  1  6  0  0  0
 11 12  1  0  0  0  0
 13 14  1  6  0  0  0
 13 15  1  0  0  0  0
 13 21  1  0  0  0  0
 16 15  1  0  0  0  0
 16 17  1  6  0  0  0
 18  2  1  1  0  0  0
 18 16  1  0  0  0  0
 19 18  1  0  0  0  0
 19 20  1  6  0  0  0
 21 19  1  0  0  0  0
 21 22  1  1  0  0  0
 23 20  1  6  0  0  0
 23 24  1  0  0  0  0
 23 28  1  0  0  0  0
 24 25  1  1  0  0  0
 24 26  1  0  0  0  0
 26 27  1  0  0  0  0
 26 32  1  1  0  0  0
 27 28  1  0  0  0  0
 27 29  1  6  0  0  0
 29 30  1  0  0  0  0
 31 32  1  6  0  0  0
 31 40  1  0  0  0  0
 33 31  1  0  0  0  0
 33 42  1  1  0  0  0
 35 33  1  0  0  0  0
 35 36  1  6  0  0  0
 37 35  1  0  0  0  0
 37 38  1  6  0  0  0
 37 39  1  0  0  0  0
 39 40  1  0  0  0  0
 39 41  1  1  0  0  0
 41 34  1  0  0  0  0
M  END
>  <CHROM.1>
-169.96638572,-173.17017457,-177.09000308,148.30236395,171.67496730,-169.37527813
-174.99679365,-75.14916429,178.88425676,-3.15898022,91.91993838,5.17944782
2.85261067,0.94508899,-2.81274937

>  <Name>
2fcy_lig

>  <RI>
2.89127e+07

>  <Rbt.Current_Directory>
/home/itssahil/PROJECTS/Mol_Feturizer/New_Systems/rnas/2fcy

>  <Rbt.Executable>
rbdock ($Id: //depot/dev/client3/rdock/2013.1/src/exe/rbdock.cxx#4 $)

>  <Rbt.Library>
libRbt.so (2013.1, Build901 2013/11/27)

>  <Rbt.Parameter_File>
/export/apps/rDock/src/rDock_2013.1_src/data/scripts/dock_solv.prm

>  <Rbt.Receptor>
prm/pocket_docking_7.prm

>  <SCORE>
-8.82889

>  <SCORE.INTER>
-3.65765

>  <SCORE.INTER.CONST>
1

>  <SCORE.INTER.POLAR>
-1.39126

>  <SCORE.INTER.ROT>
9

>  <SCORE.INTER.SOLV>
16.1722

>  <SCORE.INTER.VDW>
-12.7916

>  <SCORE.INTER.norm>
-0.0870868

>  <SCORE.INTRA>
-5.17512

>  <SCORE.INTRA.DIHEDRAL>
-10.0838

>  <SCORE.INTRA.DIHEDRAL.0>
17.3446

>  <SCORE.INTRA.POLAR>
0

>  <SCORE.INTRA.POLAR.0>
0

>  <SCORE.INTRA.REPUL>
0

>  <SCORE.INTRA.REPUL.0>
0

>  <SCORE.INTRA.SOLV>
-4.68125

>  <SCORE.INTRA.SOLV.lig_0>
-112.452

>  <SCORE.INTRA.VDW>
2.20738

>  <SCORE.INTRA.VDW.0>
-5.95059

>  <SCORE.INTRA.norm>
-0.123217

>  <SCORE.RESTR>
0.00388547

>  <SCORE.RESTR.CAVITY>
0.00388547

>  <SCORE.RESTR.norm>
9.25112e-05

>  <SCORE.SYSTEM>
0

>  <SCORE.SYSTEM.CONST>
0

>  <SCORE.SYSTEM.DIHEDRAL>
0

>  <SCORE.SYSTEM.SOLV>
0

>  <SCORE.SYSTEM.norm>
0

>  <SCORE.heavy>
42

>  <SCORE.norm>
-0.210212

>  <RMSD>
11.576

$$$$
2fcy_lig
 OpenBabel11021811433D
libRbt.so/2013.1/901 2013/11/27
 42 45  0  0  0  0  0  0  0  0999 V2000
   -1.5184   75.6867   11.9475 C   0  0  2  0  0  0  0  0  0  0  0  0
   -2.6791   76.1797   12.6381 O   0  0  0  0  0  0  0  0  0  0  0  0
   -1.5417   76.3645   10.5766 C   0  0  2  0  0  0  0  0  0  0  0  0
   -1.6118   77.8191   10.7713 N   0  0  0  0  0  0  0  0  0  0  0  0
   -2.7713   75.8960    9.7945 C   0  0  1  0  0  0  0  0  0  0  0  0
   -2.8126   76.5140    8.5053 O   0  0  0  0  0  0  0  0  0  0  0  0
   -2.7353   74.3735    9.6578 C   0  0  2  0  0  0  0  0  0  0  0  0
   -3.9297   73.9308    9.0135 O   0  0  0  0  0  0  0  0  0  0  0  0
   -2.6916   73.7543   11.0556 C   0  0  2  0  0  0  0  0  0  0  0  0
   -1.5496   74.2560   11.7674 O   0  0  0  0  0  0  0  0  0  0  0  0
   -2.6452   72.2292   10.9313 C   0  0  0  0  0  0  0  0  0  0  0  0
   -3.6487   71.7488    9.9696 N   0  0  0  0  0  0  0  0  0  0  0  0
   -2.9619   72.8416   15.1727 C   0  0  2  0  0  0  0  0  0  0  0  0
   -3.1683   71.8577   16.2461 N   0  0  0  0  0  0  0  0  0  0  0  0
   -2.0639   73.9853   15.6487 C   0  0  0  0  0  0  0  0  0  0  0  0
   -1.7788   74.9026   14.4551 C   0  0  2  0  0  0  0  0  0  0  0  0
   -0.9892   76.0569   14.9078 N   0  0  0  0  0  0  0  0  0  0  0  0
   -3.0606   75.4374   13.8098 C   0  0  2  0  0  0  0  0  0  0  0  0
   -4.1176   74.3774   13.5204 C   0  0  2  0  0  0  0  0  0  0  0  0
   -5.3389   75.1012   13.3003 O   0  0  0  0  0  0  0  0  0  0  0  0
   -4.3004   73.4162   14.7025 C   0  0  1  0  0  0  0  0  0  0  0  0
   -5.1450   72.3201   14.3416 O   0  0  0  0  0  0  0  0  0  0  0  0
   -6.3231   74.4327   12.4949 C   0  0  1  0  0  0  0  0  0  0  0  0
   -5.6336   73.9748   11.2086 C   0  0  2  0  0  0  0  0  0  0  0  0
   -5.6016   75.0528   10.2702 O   0  0  0  0  0  0  0  0  0  0  0  0
   -6.6525   72.9336   10.7545 C   0  0  1  0  0  0  0  0  0  0  0  0
   -6.9028   72.2047   12.0653 C   0  0  2  0  0  0  0  0  0  0  0  0
   -6.8216   73.2170   13.0897 O   0  0  0  0  0  0  0  0  0  0  0  0
   -5.8342   71.1208   12.2479 C   0  0  0  0  0  0  0  0  0  0  0  0
   -5.8050   70.2480   11.1148 O   0  0  0  0  0  0  0  0  0  0  0  0
   -8.5982   72.7004    9.4668 C   0  0  2  0  0  0  0  0  0  0  0  0
   -7.8546   73.5869   10.3169 O   0  0  0  0  0  0  0  0  0  0  0  0
   -9.8925   72.2809   10.1710 C   0  0  1  0  0  0  0  0  0  0  0  0
   -8.1606   68.6113    6.9032 N   0  0  0  0  0  0  0  0  0  0  0  0
  -10.6533   71.2548    9.3245 C   0  0  1  0  0  0  0  0  0  0  0  0
  -11.1516   71.8675    8.1309 O   0  0  0  0  0  0  0  0  0  0  0  0
   -9.7263   70.0909    8.9634 C   0  0  2  0  0  0  0  0  0  0  0  0
   -9.3732   69.3993   10.1661 O   0  0  0  0  0  0  0  0  0  0  0  0
   -8.4664   70.6316    8.2790 C   0  0  1  0  0  0  0  0  0  0  0  0
   -7.7897   71.5525    9.1547 O   0  0  0  0  0  0  0  0  0  0  0  0
   -7.5140   69.5016    7.8784 C   0  0  0  0  0  0  0  0  0  0  0  0
   -9.5487   71.6578   11.4581 N   0  0  0  0  0  0  0  0  0  0  0  0
  1  2  1  1  0  0  0
  1  3  1  0  0  0  0
  1 10  1  0  0  0  0
  3  4  1  1  0  0  0
  3  5  1  0  0  0  0
  5  6  1  6  0  0  0
  5  7  1  0  0  0  0
  7  8  1  1  0  0  0
  7  9  1  0  0  0  0
  9 10  1  0  0  0  0
  9 11  1  6  0  0  0
 11 12  1  0  0  0  0
 13 14  1  1  0  0  0
 13 15  1  0  0  0  0
 13 21  1  0  0  0  0
 16 15  1  0  0  0  0
 16 17  1  1  0  0  0
 18  2  1  6  0  0  0
 18 16  1  0  0  0  0
 19 18  1  0  0  0  0
 19 20  1  1  0  0  0
 21 19  1  0  0  0  0
 21 22  1  6  0  0  0
 23 20  1  1  0  0  0
 23 24  1  0  0  0  0
 23 28  1  0  0  0  0
 24 25  1  6  0  0  0
 24 26  1  0  0  0  0
 26 27  1  0  0  0  0
 26 32  1  1  0  0  0
 27 28  1  0  0  0  0
 27 29  1  1  0  0  0
 29 30  1  0  0  0  0
 31 32  1  1  0  0  0
 31 40  1  0  0  0  0
 33 31  1  0  0  0  0
 33 42  1  1  0  0  0
 35 33  1  0  0  0  0
 35 36  1  6  0  0  0
 37 35  1  0  0  0  0
 37 38  1  1  0  0  0
 37 39  1  0  0  0  0
 39 40  1  0  0  0  0
 39 41  1  1  0  0  0
 41 34  1  0  0  0  0
M  END
>  <CHROM.1>
164.82343768,-46.84289759,33.05237528,155.28130193,-51.37372748,159.41026495
-54.92510140,111.87104143,62.21255534,-5.29468650,73.21681962,11.31595315
-0.28930780,-0.64793555,-1.30569645

>  <Name>
2fcy_lig

>  <RI>
3.12105e+07

>  <Rbt.Current_Directory>
/home/afrankz/demos/rdock_decoys_rna/rnas/2fcy

>  <Rbt.Executable>
rbdock ($Id: //depot/dev/client3/rdock/2013.1/src/exe/rbdock.cxx#4 $)

>  <Rbt.Library>
libRbt.so (2013.1, Build901 2013/11/27)

>  <Rbt.Parameter_File>
/export/apps/rDock/src/rDock_2013.1_src/data/scripts/dock_solv.prm

>  <Rbt.Receptor>
prm/blind_docking_80.prm

>  <SCORE>
88.7857

>  <SCORE.INTER>
16.6373

>  <SCORE.INTER.CONST>
1

>  <SCORE.INTER.POLAR>
-1.89741

>  <SCORE.INTER.ROT>
9

>  <SCORE.INTER.SOLV>
23.3195

>  <SCORE.INTER.VDW>
0.0431166

>  <SCORE.INTER.norm>
0.396127

>  <SCORE.INTRA>
19.5009

>  <SCORE.INTRA.DIHEDRAL>
-0.470005

>  <SCORE.INTRA.DIHEDRAL.0>
17.3446

>  <SCORE.INTRA.POLAR>
0

>  <SCORE.INTRA.POLAR.0>
0

>  <SCORE.INTRA.REPUL>
0.212783

>  <SCORE.INTRA.REPUL.0>
0

>  <SCORE.INTRA.SOLV>
7.67685

>  <SCORE.INTRA.SOLV.lig_0>
-112.452

>  <SCORE.INTRA.VDW>
14.8336

>  <SCORE.INTRA.VDW.0>
-5.95059

>  <SCORE.INTRA.norm>
0.464308

>  <SCORE.RESTR>
52.6474

>  <SCORE.RESTR.CAVITY>
52.6474

>  <SCORE.RESTR.norm>
1.25351

>  <SCORE.SYSTEM>
0

>  <SCORE.SYSTEM.CONST>
0

>  <SCORE.SYSTEM.DIHEDRAL>
0

>  <SCORE.SYSTEM.SOLV>
0

>  <SCORE.SYSTEM.norm>
0

>  <SCORE.heavy>
42

>  <SCORE.norm>
2.11394

>  <RMSD>
20.379

$$$$
2fcy_lig
 OpenBabel11021811433D
libRbt.so/2013.1/901 2013/11/27
 42 45  0  0  0  0  0  0  0  0999 V2000
   -3.7878   75.0377   11.2623 C   0  0  2  0  0  0  0  0  0  0  0  0
   -3.0426   75.3237   12.4582 O   0  0  0  0  0  0  0  0  0  0  0  0
   -3.1795   73.7515   10.7013 C   0  0  2  0  0  0  0  0  0  0  0  0
   -3.2105   72.7202   11.7474 N   0  0  0  0  0  0  0  0  0  0  0  0
   -1.7294   74.0100   10.2845 C   0  0  1  0  0  0  0  0  0  0  0  0
   -1.1397   72.8208    9.7518 O   0  0  0  0  0  0  0  0  0  0  0  0
   -1.6923   75.1358    9.2505 C   0  0  2  0  0  0  0  0  0  0  0  0
   -0.3337   75.4406    8.9357 O   0  0  0  0  0  0  0  0  0  0  0  0
   -2.3309   76.3851    9.8594 C   0  0  2  0  0  0  0  0  0  0  0  0
   -3.6718   76.0840   10.2763 O   0  0  0  0  0  0  0  0  0  0  0  0
   -2.3085   77.5171    8.8290 C   0  0  0  0  0  0  0  0  0  0  0  0
   -0.9279   77.9052    8.5035 N   0  0  0  0  0  0  0  0  0  0  0  0
   -4.0514   72.6096   15.5016 C   0  0  2  0  0  0  0  0  0  0  0  0
   -4.5064   71.8881   16.6997 N   0  0  0  0  0  0  0  0  0  0  0  0
   -3.0671   73.7193   15.8762 C   0  0  0  0  0  0  0  0  0  0  0  0
   -2.5302   74.3433   14.5840 C   0  0  2  0  0  0  0  0  0  0  0  0
   -1.6485   75.4707   14.9193 N   0  0  0  0  0  0  0  0  0  0  0  0
   -3.6486   74.8764   13.6838 C   0  0  2  0  0  0  0  0  0  0  0  0
   -4.7991   73.9027   13.4539 C   0  0  2  0  0  0  0  0  0  0  0  0
   -5.8801   74.6980   12.9410 O   0  0  0  0  0  0  0  0  0  0  0  0
   -5.2399   73.2225   14.7568 C   0  0  1  0  0  0  0  0  0  0  0  0
   -6.1782   72.1761   14.4928 O   0  0  0  0  0  0  0  0  0  0  0  0
   -6.7986   74.0152   12.0724 C   0  0  1  0  0  0  0  0  0  0  0  0
   -5.9920   73.4430   10.9055 C   0  0  2  0  0  0  0  0  0  0  0  0
   -5.8044   74.4518    9.9101 O   0  0  0  0  0  0  0  0  0  0  0  0
   -7.0017   72.4143   10.4049 C   0  0  1  0  0  0  0  0  0  0  0  0
   -7.4312   71.7877   11.7222 C   0  0  2  0  0  0  0  0  0  0  0  0
   -7.4173   72.8640   12.6824 O   0  0  0  0  0  0  0  0  0  0  0  0
   -6.4420   70.6774   12.0949 C   0  0  0  0  0  0  0  0  0  0  0  0
   -6.4071   69.6730   11.0769 O   0  0  0  0  0  0  0  0  0  0  0  0
   -8.7704   72.1855    8.8825 C   0  0  2  0  0  0  0  0  0  0  0  0
   -8.1152   73.0831    9.7915 O   0  0  0  0  0  0  0  0  0  0  0  0
  -10.2467   72.0515    9.2695 C   0  0  1  0  0  0  0  0  0  0  0  0
   -6.4757   68.9607    7.6907 N   0  0  0  0  0  0  0  0  0  0  0  0
  -10.9423   71.0198    8.3750 C   0  0  1  0  0  0  0  0  0  0  0  0
  -11.0319   71.5071    7.0323 O   0  0  0  0  0  0  0  0  0  0  0  0
  -10.1621   69.7026    8.3991 C   0  0  2  0  0  0  0  0  0  0  0  0
  -10.2267   69.1586    9.7218 O   0  0  0  0  0  0  0  0  0  0  0  0
   -8.7033   69.9628    8.0085 C   0  0  1  0  0  0  0  0  0  0  0  0
   -8.1126   70.9069    8.9210 O   0  0  0  0  0  0  0  0  0  0  0  0
   -7.8838   68.6696    7.9975 C   0  0  0  0  0  0  0  0  0  0  0  0
  -10.3288   71.5885   10.6631 N   0  0  0  0  0  0  0  0  0  0  0  0
  1  2  1  1  0  0  0
  1  3  1  0  0  0  0
  1 10  1  0  0  0  0
  3  4  1  1  0  0  0
  3  5  1  0  0  0  0
  5  6  1  6  0  0  0
  5  7  1  0  0  0  0
  7  8  1  1  0  0  0
  7  9  1  0  0  0  0
  9 10  1  0  0  0  0
  9 11  1  6  0  0  0
 11 12  1  0  0  0  0
 13 14  1  1  0  0  0
 13 15  1  0  0  0  0
 13 21  1  0  0  0  0
 16 15  1  0  0  0  0
 16 17  1  1  0  0  0
 18  2  1  6  0  0  0
 18 16  1  0  0  0  0
 19 18  1  0  0  0  0
 19 20  1  1  0  0  0
 21 19  1  0  0  0  0
 21 22  1  6  0  0  0
 23 20  1  1  0  0  0
 23 24  1  0  0  0  0
 23 28  1  0  0  0  0
 24 25  1  6  0  0  0
 24 26  1  0  0  0  0
 26 27  1  0  0  0  0
 26 32  1  1  0  0  0
 27 28  1  0  0  0  0
 27 29  1  1  0  0  0
 29 30  1  0  0  0  0
 31 32  1  1  0  0  0
 31 40  1  0  0  0  0
 33 31  1  0  0  0  0
 33 42  1  1  0  0  0
 35 33  1  0  0  0  0
 35 36  1  6  0  0  0
 37 35  1  0  0  0  0
 37 38  1  1  0  0  0
 37 39  1  0  0  0  0
 39 40  1  0  0  0  0
 39 41  1  1  0  0  0
 41 34  1  0  0  0  0
M  END
>  <CHROM.1>
-96.89035989,-64.26778505,140.94319837,151.20618013,-57.42033217,157.28398752
-59.52107683,123.22701554,-176.95905796,-5.56370395,73.01980868,11.03556301
-0.26523749,-0.61469407,-1.43216658

>  <Name>
2fcy_lig

>  <RI>
3.12105e+07

>  <Rbt.Current_Directory>
/home/afrankz/demos/rdock_decoys_rna/rnas/2fcy

>  <Rbt.Executable>
rbdock ($Id: //depot/dev/client3/rdock/2013.1/src/exe/rbdock.cxx#4 $)

>  <Rbt.Library>
libRbt.so (2013.1, Build901 2013/11/27)

>  <Rbt.Parameter_File>
/export/apps/rDock/src/rDock_2013.1_src/data/scripts/dock_solv.prm

>  <Rbt.Receptor>
prm/blind_docking_80.prm

>  <SCORE>
100.428

>  <SCORE.INTER>
28.9653

>  <SCORE.INTER.CONST>
1

>  <SCORE.INTER.POLAR>
-1.65032

>  <SCORE.INTER.ROT>
9

>  <SCORE.INTER.SOLV>
21.1756

>  <SCORE.INTER.VDW>
8.15274

>  <SCORE.INTER.norm>
0.68965

>  <SCORE.INTRA>
21.1041

>  <SCORE.INTRA.DIHEDRAL>
5.84371

>  <SCORE.INTRA.DIHEDRAL.0>
17.3446

>  <SCORE.INTRA.POLAR>
0

>  <SCORE.INTRA.POLAR.0>
0

>  <SCORE.INTRA.REPUL>
0

>  <SCORE.INTRA.REPUL.0>
0

>  <SCORE.INTRA.SOLV>
5.93851

>  <SCORE.INTRA.SOLV.lig_0>
-112.452

>  <SCORE.INTRA.VDW>
15.213

>  <SCORE.INTRA.VDW.0>
-5.95059

>  <SCORE.INTRA.norm>
0.502478

>  <SCORE.RESTR>
50.3587

>  <SCORE.RESTR.CAVITY>
50.3587

>  <SCORE.RESTR.norm>
1.19902

>  <SCORE.SYSTEM>
0

>  <SCORE.SYSTEM.CONST>
0

>  <SCORE.SYSTEM.DIHEDRAL>
0

>  <SCORE.SYSTEM.SOLV>
0

>  <SCORE.SYSTEM.norm>
0

>  <SCORE.heavy>
42

>  <SCORE.norm>
2.39115

>  <RMSD>
20.737

$$$$
2fcy_lig
 OpenBabel11021811433D
libRbt.so/2013.1/901 2013/11/27
 42 45  0  0  0  0  0  0  0  0999 V2000
   -2.2675   75.6502   10.5772 C   0  0  2  0  0  0  0  0  0  0  0  0
   -3.5958   75.1519   10.3432 O   0  0  0  0  0  0  0  0  0  0  0  0
   -1.7534   76.0978    9.2081 C   0  0  2  0  0  0  0  0  0  0  0  0
   -2.7123   77.0512    8.6334 N   0  0  0  0  0  0  0  0  0  0  0  0
   -1.6290   74.8827    8.2854 C   0  0  1  0  0  0  0  0  0  0  0  0
   -1.1451   75.2762    6.9983 O   0  0  0  0  0  0  0  0  0  0  0  0
   -0.6889   73.8579    8.9208 C   0  0  2  0  0  0  0  0  0  0  0  0
   -0.6502   72.6864    8.1061 O   0  0  0  0  0  0  0  0  0  0  0  0
   -1.2420   73.4655   10.2917 C   0  0  2  0  0  0  0  0  0  0  0  0
   -1.3843   74.6399   11.1060 O   0  0  0  0  0  0  0  0  0  0  0  0
   -0.3030   72.4465   10.9425 C   0  0  0  0  0  0  0  0  0  0  0  0
   -1.0558   71.2972   11.4670 N   0  0  0  0  0  0  0  0  0  0  0  0
   -5.2723   73.6863   13.9052 C   0  0  2  0  0  0  0  0  0  0  0  0
   -5.9867   73.4259   15.1641 N   0  0  0  0  0  0  0  0  0  0  0  0
   -4.3899   74.9301   14.0280 C   0  0  0  0  0  0  0  0  0  0  0  0
   -3.5752   75.0719   12.7383 C   0  0  2  0  0  0  0  0  0  0  0  0
   -2.7841   76.3095   12.7975 N   0  0  0  0  0  0  0  0  0  0  0  0
   -4.4620   75.1435   11.4917 C   0  0  2  0  0  0  0  0  0  0  0  0
   -5.5378   74.0660   11.4133 C   0  0  2  0  0  0  0  0  0  0  0  0
   -6.4730   74.5265   10.4247 O   0  0  0  0  0  0  0  0  0  0  0  0
   -6.2616   73.8837   12.7540 C   0  0  1  0  0  0  0  0  0  0  0  0
   -7.1233   72.7431   12.7166 O   0  0  0  0  0  0  0  0  0  0  0  0
   -7.2973   73.5131    9.8266 C   0  0  1  0  0  0  0  0  0  0  0  0
   -6.9121   72.1734   10.4563 C   0  0  2  0  0  0  0  0  0  0  0  0
   -5.7698   71.6372    9.7845 O   0  0  0  0  0  0  0  0  0  0  0  0
   -8.1519   71.3700   10.0745 C   0  0  1  0  0  0  0  0  0  0  0  0
   -9.2448   72.3636   10.4356 C   0  0  2  0  0  0  0  0  0  0  0  0
   -8.7000   73.6632   10.1273 O   0  0  0  0  0  0  0  0  0  0  0  0
   -9.5775   72.2230   11.9255 C   0  0  0  0  0  0  0  0  0  0  0  0
  -10.5350   71.1801   12.1301 O   0  0  0  0  0  0  0  0  0  0  0  0
   -9.0013   70.0000    8.3715 C   0  0  2  0  0  0  0  0  0  0  0  0
   -8.1569   71.1251    8.6591 O   0  0  0  0  0  0  0  0  0  0  0  0
   -9.9352   70.3447    7.2070 C   0  0  1  0  0  0  0  0  0  0  0  0
  -12.1122   66.9256   10.4635 N   0  0  0  0  0  0  0  0  0  0  0  0
  -10.9149   69.1949    6.9491 C   0  0  1  0  0  0  0  0  0  0  0  0
  -10.2176   68.0532    6.4407 O   0  0  0  0  0  0  0  0  0  0  0  0
  -11.6366   68.8272    8.2485 C   0  0  2  0  0  0  0  0  0  0  0  0
  -12.4520   69.9347    8.6462 O   0  0  0  0  0  0  0  0  0  0  0  0
  -10.6050   68.5161    9.3382 C   0  0  1  0  0  0  0  0  0  0  0  0
   -9.7544   69.6585    9.5484 O   0  0  0  0  0  0  0  0  0  0  0  0
  -11.2786   68.1215   10.6553 C   0  0  0  0  0  0  0  0  0  0  0  0
  -10.7094   71.5437    7.5621 N   0  0  0  0  0  0  0  0  0  0  0  0
  1  2  1  6  0  0  0
  1  3  1  0  0  0  0
  1 10  1  0  0  0  0
  3  4  1  6  0  0  0
  3  5  1  0  0  0  0
  5  6  1  6  0  0  0
  5  7  1  0  0  0  0
  7  8  1  6  0  0  0
  7  9  1  0  0  0  0
  9 10  1  0  0  0  0
  9 11  1  1  0  0  0
 11 12  1  0  0  0  0
 13 14  1  1  0  0  0
 13 15  1  0  0  0  0
 13 21  1  0  0  0  0
 16 15  1  0  0  0  0
 16 17  1  1  0  0  0
 18  2  1  6  0  0  0
 18 16  1  0  0  0  0
 19 18  1  0  0  0  0
 19 20  1  6  0  0  0
 21 19  1  0  0  0  0
 21 22  1  6  0  0  0
 23 20  1  1  0  0  0
 23 24  1  0  0  0  0
 23 28  1  0  0  0  0
 24 25  1  6  0  0  0
 24 26  1  0  0  0  0
 26 27  1  0  0  0  0
 26 32  1  6  0  0  0
 27 28  1  0  0  0  0
 27 29  1  1  0  0  0
 29 30  1  0  0  0  0
 31 32  1  1  0  0  0
 31 40  1  0  0  0  0
 33 31  1  0  0  0  0
 33 42  1  1  0  0  0
 35 33  1  0  0  0  0
 35 36  1  1  0  0  0
 37 35  1  0  0  0  0
 37 38  1  1  0  0  0
 37 39  1  0  0  0  0
 39 40  1  0  0  0  0
 39 41  1  1  0  0  0
 41 34  1  0  0  0  0
M  END
>  <CHROM.1>
-157.51264298,-131.77095883,-25.08426331,158.64622626,0.02548475,158.90534845
-85.06211668,132.58964942,59.93508034,-6.28745982,72.52385015,10.19833940
-0.33155693,-0.45138561,-1.97308785

>  <Name>
2fcy_lig

>  <RI>
3.12105e+07

>  <Rbt.Current_Directory>
/home/afrankz/demos/rdock_decoys_rna/rnas/2fcy

>  <Rbt.Executable>
rbdock ($Id: //depot/dev/client3/rdock/2013.1/src/exe/rbdock.cxx#4 $)

>  <Rbt.Library>
libRbt.so (2013.1, Build901 2013/11/27)

>  <Rbt.Parameter_File>
/export/apps/rDock/src/rDock_2013.1_src/data/scripts/dock_solv.prm

>  <Rbt.Receptor>
prm/blind_docking_80.prm

>  <SCORE>
97.1213

>  <SCORE.INTER>
18.1856

>  <SCORE.INTER.CONST>
1

>  <SCORE.INTER.POLAR>
-1.77018

>  <SCORE.INTER.ROT>
9

>  <SCORE.INTER.SOLV>
28.1714

>  <SCORE.INTER.VDW>
-0.966173

>  <SCORE.INTER.norm>
0.43299

>  <SCORE.INTRA>
32.6364

>  <SCORE.INTRA.DIHEDRAL>
13.8723

>  <SCORE.INTRA.DIHEDRAL.0>
17.3446

>  <SCORE.INTRA.POLAR>
0

>  <SCORE.INTRA.POLAR.0>
0

>  <SCORE.INTRA.REPUL>
0

>  <SCORE.INTRA.REPUL.0>
0

>  <SCORE.INTRA.SOLV>
0.193831

>  <SCORE.INTRA.SOLV.lig_0>
-112.452

>  <SCORE.INTRA.VDW>
25.6033

>  <SCORE.INTRA.VDW.0>
-5.95059

>  <SCORE.INTRA.norm>
0.777056

>  <SCORE.RESTR>
46.2993

>  <SCORE.RESTR.CAVITY>
46.2993

>  <SCORE.RESTR.norm>
1.10237

>  <SCORE.SYSTEM>
0

>  <SCORE.SYSTEM.CONST>
0

>  <SCORE.SYSTEM.DIHEDRAL>
0

>  <SCORE.SYSTEM.SOLV>
0

>  <SCORE.SYSTEM.norm>
0

>  <SCORE.heavy>
42

>  <SCORE.norm>
2.31241

>  <RMSD>
21.392

$$$$
2fcy_lig
 OpenBabel11021811433D
libRbt.so/2013.1/901 2013/11/27
 42 45  0  0  0  0  0  0  0  0999 V2000
   -4.5873   74.7238   11.3730 C   0  0  2  0  0  0  0  0  0  0  0  0
   -4.5605   73.4416   12.0230 O   0  0  0  0  0  0  0  0  0  0  0  0
   -3.8004   74.5389   10.0747 C   0  0  2  0  0  0  0  0  0  0  0  0
   -4.3852   73.4190    9.3248 N   0  0  0  0  0  0  0  0  0  0  0  0
   -2.3387   74.2238   10.4021 C   0  0  1  0  0  0  0  0  0  0  0  0
   -1.5806   74.0506    9.2017 O   0  0  0  0  0  0  0  0  0  0  0  0
   -1.7531   75.3558   11.2468 C   0  0  2  0  0  0  0  0  0  0  0  0
   -0.4215   75.0149   11.6319 O   0  0  0  0  0  0  0  0  0  0  0  0
   -2.5913   75.5068   12.5172 C   0  0  2  0  0  0  0  0  0  0  0  0
   -3.9604   75.7557   12.1621 O   0  0  0  0  0  0  0  0  0  0  0  0
   -2.0201   76.6449   13.3670 C   0  0  0  0  0  0  0  0  0  0  0  0
   -2.6343   76.6635   14.7030 N   0  0  0  0  0  0  0  0  0  0  0  0
   -6.0705   71.6478   15.5084 C   0  0  2  0  0  0  0  0  0  0  0  0
   -6.6897   71.2809   16.7909 N   0  0  0  0  0  0  0  0  0  0  0  0
   -5.0211   72.7437   15.7050 C   0  0  0  0  0  0  0  0  0  0  0  0
   -4.3219   72.9872   14.3638 C   0  0  2  0  0  0  0  0  0  0  0  0
   -3.3693   74.0976   14.5076 N   0  0  0  0  0  0  0  0  0  0  0  0
   -5.3061   73.3570   13.2503 C   0  0  2  0  0  0  0  0  0  0  0  0
   -6.5197   72.4403   13.1432 C   0  0  2  0  0  0  0  0  0  0  0  0
   -7.4746   73.1571   12.3442 O   0  0  0  0  0  0  0  0  0  0  0  0
   -7.1298   72.1384   14.5184 C   0  0  1  0  0  0  0  0  0  0  0  0
   -8.1368   71.1280   14.4180 O   0  0  0  0  0  0  0  0  0  0  0  0
   -7.9068   72.4940   11.1451 C   0  0  1  0  0  0  0  0  0  0  0  0
   -6.9318   72.8748   10.0298 C   0  0  2  0  0  0  0  0  0  0  0  0
   -7.3117   74.1332    9.4678 O   0  0  0  0  0  0  0  0  0  0  0  0
   -7.2563   71.7569    9.0432 C   0  0  1  0  0  0  0  0  0  0  0  0
   -7.2796   70.5607    9.9817 C   0  0  2  0  0  0  0  0  0  0  0  0
   -7.8230   71.0562   11.2226 O   0  0  0  0  0  0  0  0  0  0  0  0
   -5.8511   70.0318   10.1548 C   0  0  0  0  0  0  0  0  0  0  0  0
   -5.2947   69.6642    8.8893 O   0  0  0  0  0  0  0  0  0  0  0  0
   -9.3463   70.7750    8.6353 C   0  0  2  0  0  0  0  0  0  0  0  0
   -8.5613   71.9672    8.4808 O   0  0  0  0  0  0  0  0  0  0  0  0
  -10.1727   70.5377    7.3673 C   0  0  1  0  0  0  0  0  0  0  0  0
  -13.2041   70.1478   11.0327 N   0  0  0  0  0  0  0  0  0  0  0  0
  -11.0947   69.3271    7.5489 C   0  0  1  0  0  0  0  0  0  0  0  0
  -10.3240   68.1239    7.6288 O   0  0  0  0  0  0  0  0  0  0  0  0
  -11.9281   69.4963    8.8221 C   0  0  2  0  0  0  0  0  0  0  0  0
  -12.8048   70.6145    8.6479 O   0  0  0  0  0  0  0  0  0  0  0  0
  -10.9981   69.7386   10.0158 C   0  0  1  0  0  0  0  0  0  0  0  0
  -10.2000   70.9143    9.7846 O   0  0  0  0  0  0  0  0  0  0  0  0
  -11.7847   69.8938   11.3202 C   0  0  0  0  0  0  0  0  0  0  0  0
  -11.0066   71.7235    7.1190 N   0  0  0  0  0  0  0  0  0  0  0  0
  1  2  1  1  0  0  0
  1  3  1  0  0  0  0
  1 10  1  0  0  0  0
  3  4  1  1  0  0  0
  3  5  1  0  0  0  0
  5  6  1  6  0  0  0
  5  7  1  0  0  0  0
  7  8  1  1  0  0  0
  7  9  1  0  0  0  0
  9 10  1  0  0  0  0
  9 11  1  1  0  0  0
 11 12  1  0  0  0  0
 13 14  1  1  0  0  0
 13 15  1  0  0  0  0
 13 21  1  0  0  0  0
 16 15  1  0  0  0  0
 16 17  1  1  0  0  0
 18  2  1  6  0  0  0
 18 16  1  0  0  0  0
 19 18  1  0  0  0  0
 19 20  1  6  0  0  0
 21 19  1  0  0  0  0
 21 22  1  6  0  0  0
 23 20  1  1  0  0  0
 23 24  1  0  0  0  0
 23 28  1  0  0  0  0
 24 25  1  6  0  0  0
 24 26  1  0  0  0  0
 26 27  1  0  0  0  0
 26 32  1  1  0  0  0
 27 28  1  0  0  0  0
 27 29  1  1  0  0  0
 29 30  1  0  0  0  0
 31 32  1  6  0  0  0
 31 40  1  0  0  0  0
 33 31  1  0  0  0  0
 33 42  1  1  0  0  0
 35 33  1  0  0  0  0
 35 36  1  1  0  0  0
 37 35  1  0  0  0  0
 37 38  1  6  0  0  0
 37 39  1  0  0  0  0
 39 40  1  0  0  0  0
 39 41  1  1  0  0  0
 41 34  1  0  0  0  0
M  END
>  <CHROM.1>
-176.98576751,-169.48426587,-119.70281669,121.94071909,-88.33446438,-127.67072844
-58.32974033,-139.92911884,-15.98199477,-6.71271212,72.37924425,11.13913245
-0.40106269,-0.51670161,-1.59754577

>  <Name>
2fcy_lig

>  <RI>
3.12105e+07

>  <Rbt.Current_Directory>
/home/afrankz/demos/rdock_decoys_rna/rnas/2fcy

>  <Rbt.Executable>
rbdock ($Id: //depot/dev/client3/rdock/2013.1/src/exe/rbdock.cxx#4 $)

>  <Rbt.Library>
libRbt.so (2013.1, Build901 2013/11/27)

>  <Rbt.Parameter_File>
/export/apps/rDock/src/rDock_2013.1_src/data/scripts/dock_solv.prm

>  <Rbt.Receptor>
prm/blind_docking_80.prm

>  <SCORE>
84.9636

>  <SCORE.INTER>
16.2071

>  <SCORE.INTER.CONST>
1

>  <SCORE.INTER.POLAR>
-0.312605

>  <SCORE.INTER.ROT>
9

>  <SCORE.INTER.SOLV>
33.2242

>  <SCORE.INTER.VDW>
-8.82796

>  <SCORE.INTER.norm>
0.385884

>  <SCORE.INTRA>
22.017

>  <SCORE.INTRA.DIHEDRAL>
17.0303

>  <SCORE.INTRA.DIHEDRAL.0>
17.3446

>  <SCORE.INTRA.POLAR>
0

>  <SCORE.INTRA.POLAR.0>
0

>  <SCORE.INTRA.REPUL>
0

>  <SCORE.INTRA.REPUL.0>
0

>  <SCORE.INTRA.SOLV>
6.62759

>  <SCORE.INTRA.SOLV.lig_0>
-112.452

>  <SCORE.INTRA.VDW>
10.188

>  <SCORE.INTRA.VDW.0>
-5.95059

>  <SCORE.INTRA.norm>
0.524214

>  <SCORE.RESTR>
46.7395

>  <SCORE.RESTR.CAVITY>
46.7395

>  <SCORE.RESTR.norm>
1.11285

>  <SCORE.SYSTEM>
0

>  <SCORE.SYSTEM.CONST>
0

>  <SCORE.SYSTEM.DIHEDRAL>
0

>  <SCORE.SYSTEM.SOLV>
0

>  <SCORE.SYSTEM.norm>
0

>  <SCORE.heavy>
42

>  <SCORE.norm>
2.02294

>  <RMSD>
21.567

$$$$
2fcy_lig
 OpenBabel11021811433D
libRbt.so/2013.1/901 2013/11/27
 42 45  0  0  0  0  0  0  0  0999 V2000
   -4.2614   74.9193   11.4564 C   0  0  2  0  0  0  0  0  0  0  0  0
   -4.2063   73.6504   12.1303 O   0  0  0  0  0  0  0  0  0  0  0  0
   -3.5986   74.6879   10.0976 C   0  0  2  0  0  0  0  0  0  0  0  0
   -4.2743   73.5679    9.4284 N   0  0  0  0  0  0  0  0  0  0  0  0
   -2.1212   74.3426   10.3005 C   0  0  1  0  0  0  0  0  0  0  0  0
   -1.4780   74.1257    9.0415 O   0  0  0  0  0  0  0  0  0  0  0  0
   -1.4359   75.4766   11.0638 C   0  0  2  0  0  0  0  0  0  0  0  0
   -0.0834   75.1101   11.3362 O   0  0  0  0  0  0  0  0  0  0  0  0
   -2.1531   75.6748   12.4000 C   0  0  2  0  0  0  0  0  0  0  0  0
   -3.5423   75.9510   12.1628 O   0  0  0  0  0  0  0  0  0  0  0  0
   -1.4815   76.8153   13.1695 C   0  0  0  0  0  0  0  0  0  0  0  0
   -1.6511   78.0958   12.4666 N   0  0  0  0  0  0  0  0  0  0  0  0
   -5.9681   71.8138   15.4724 C   0  0  2  0  0  0  0  0  0  0  0  0
   -6.6251   71.4363   16.7329 N   0  0  0  0  0  0  0  0  0  0  0  0
   -4.7326   72.6757   15.7400 C   0  0  0  0  0  0  0  0  0  0  0  0
   -4.0205   72.9240   14.4065 C   0  0  2  0  0  0  0  0  0  0  0  0
   -2.8784   73.8231   14.6261 N   0  0  0  0  0  0  0  0  0  0  0  0
   -4.9366   73.5775   13.3676 C   0  0  2  0  0  0  0  0  0  0  0  0
   -6.2992   72.9115   13.2120 C   0  0  2  0  0  0  0  0  0  0  0  0
   -7.1181   73.8670   12.5188 O   0  0  0  0  0  0  0  0  0  0  0  0
   -6.9339   72.5864   14.5707 C   0  0  1  0  0  0  0  0  0  0  0  0
   -8.1106   71.7906   14.4057 O   0  0  0  0  0  0  0  0  0  0  0  0
   -7.9331   73.3379   11.4605 C   0  0  1  0  0  0  0  0  0  0  0  0
   -7.9782   71.8182   11.6280 C   0  0  2  0  0  0  0  0  0  0  0  0
   -6.8209   71.2336   11.0257 O   0  0  0  0  0  0  0  0  0  0  0  0
   -9.2041   71.5240   10.7684 C   0  0  1  0  0  0  0  0  0  0  0  0
  -10.1497   72.6094   11.2582 C   0  0  2  0  0  0  0  0  0  0  0  0
   -9.3130   73.7506   11.5379 O   0  0  0  0  0  0  0  0  0  0  0  0
  -10.8755   72.1124   12.5138 C   0  0  0  0  0  0  0  0  0  0  0  0
  -11.6369   70.9371   12.2217 O   0  0  0  0  0  0  0  0  0  0  0  0
   -9.2003   70.5472    8.6366 C   0  0  2  0  0  0  0  0  0  0  0  0
   -8.8891   71.7338    9.3827 O   0  0  0  0  0  0  0  0  0  0  0  0
  -10.0798   70.9124    7.4365 C   0  0  1  0  0  0  0  0  0  0  0  0
  -10.1711   67.5543   11.1378 N   0  0  0  0  0  0  0  0  0  0  0  0
  -10.5084   69.6483    6.6835 C   0  0  1  0  0  0  0  0  0  0  0  0
   -9.3784   69.0419    6.0482 O   0  0  0  0  0  0  0  0  0  0  0  0
  -11.1510   68.6572    7.6577 C   0  0  2  0  0  0  0  0  0  0  0  0
  -12.3655   69.2293    8.1550 O   0  0  0  0  0  0  0  0  0  0  0  0
  -10.1880   68.3791    8.8168 C   0  0  1  0  0  0  0  0  0  0  0  0
   -9.8704   69.6083    9.4959 O   0  0  0  0  0  0  0  0  0  0  0  0
  -10.7778   67.3747    9.8106 C   0  0  0  0  0  0  0  0  0  0  0  0
  -11.2878   71.5931    7.9267 N   0  0  0  0  0  0  0  0  0  0  0  0
  1  2  1  1  0  0  0
  1  3  1  0  0  0  0
  1 10  1  0  0  0  0
  3  4  1  1  0  0  0
  3  5  1  0  0  0  0
  5  6  1  6  0  0  0
  5  7  1  0  0  0  0
  7  8  1  1  0  0  0
  7  9  1  0  0  0  0
  9 10  1  0  0  0  0
  9 11  1  6  0  0  0
 11 12  1  0  0  0  0
 13 14  1  1  0  0  0
 13 15  1  0  0  0  0
 13 21  1  0  0  0  0
 16 15  1  0  0  0  0
 16 17  1  1  0  0  0
 18  2  1  6  0  0  0
 18 16  1  0  0  0  0
 19 18  1  0  0  0  0
 19 20  1  1  0  0  0
 21 19  1  0  0  0  0
 21 22  1  6  0  0  0
 23 20  1  1  0  0  0
 23 24  1  0  0  0  0
 23 28  1  0  0  0  0
 24 25  1  6  0  0  0
 24 26  1  0  0  0  0
 26 27  1  0  0  0  0
 26 32  1  6  0  0  0
 27 28  1  0  0  0  0
 27 29  1  1  0  0  0
 29 30  1  0  0  0  0
 31 32  1  1  0  0  0
 31 40  1  0  0  0  0
 33 31  1  0  0  0  0
 33 42  1  1  0  0  0
 35 33  1  0  0  0  0
 35 36  1  1  0  0  0
 37 35  1  0  0  0  0
 37 38  1  1  0  0  0
 37 39  1  0  0  0  0
 39 40  1  0  0  0  0
 39 41  1  1  0  0  0
 41 34  1  0  0  0  0
M  END
>  <CHROM.1>
-171.94390021,65.27398749,-133.06401881,136.22047580,15.47833470,125.35444821
-60.47983965,128.50581401,-155.29609993,-6.81868033,72.40953971,11.26098888
-0.38235553,-0.56217389,-1.64514801

>  <Name>
2fcy_lig

>  <RI>
3.12105e+07

>  <Rbt.Current_Directory>
/home/afrankz/demos/rdock_decoys_rna/rnas/2fcy

>  <Rbt.Executable>
rbdock ($Id: //depot/dev/client3/rdock/2013.1/src/exe/rbdock.cxx#4 $)

>  <Rbt.Library>
libRbt.so (2013.1, Build901 2013/11/27)

>  <Rbt.Parameter_File>
/export/apps/rDock/src/rDock_2013.1_src/data/scripts/dock_solv.prm

>  <Rbt.Receptor>
prm/blind_docking_80.prm

>  <SCORE>
83.4467

>  <SCORE.INTER>
18.0887

>  <SCORE.INTER.CONST>
1

>  <SCORE.INTER.POLAR>
-0.888291

>  <SCORE.INTER.ROT>
9

>  <SCORE.INTER.SOLV>
29.993

>  <SCORE.INTER.VDW>
-4.57758

>  <SCORE.INTER.norm>
0.430682

>  <SCORE.INTRA>
17.9124

>  <SCORE.INTRA.DIHEDRAL>
16.8449

>  <SCORE.INTRA.DIHEDRAL.0>
17.3446

>  <SCORE.INTRA.POLAR>
0

>  <SCORE.INTRA.POLAR.0>
0

>  <SCORE.INTRA.REPUL>
0

>  <SCORE.INTRA.REPUL.0>
0

>  <SCORE.INTRA.SOLV>
1.65855

>  <SCORE.INTRA.SOLV.lig_0>
-112.452

>  <SCORE.INTRA.VDW>
8.66071

>  <SCORE.INTRA.VDW.0>
-5.95059

>  <SCORE.INTRA.norm>
0.426487

>  <SCORE.RESTR>
47.4456

>  <SCORE.RESTR.CAVITY>
47.4456

>  <SCORE.RESTR.norm>
1.12966

>  <SCORE.SYSTEM>
0

>  <SCORE.SYSTEM.CONST>
0

>  <SCORE.SYSTEM.DIHEDRAL>
0

>  <SCORE.SYSTEM.SOLV>
0

>  <SCORE.SYSTEM.norm>
0

>  <SCORE.heavy>
42

>  <SCORE.norm>
1.98683

>  <RMSD>
21.611

$$$$
2fcy_lig
 OpenBabel11021811433D
libRbt.so/2013.1/901 2013/11/27
 42 45  0  0  0  0  0  0  0  0999 V2000
   -6.6693   72.3225   15.9283 C   0  0  2  0  0  0  0  0  0  0  0  0
   -6.7566   73.5333   15.1579 O   0  0  0  0  0  0  0  0  0  0  0  0
   -7.7432   71.3967   15.3551 C   0  0  2  0  0  0  0  0  0  0  0  0
   -7.5259   71.2623   13.9082 N   0  0  0  0  0  0  0  0  0  0  0  0
   -9.1273   71.9995   15.6079 C   0  0  1  0  0  0  0  0  0  0  0  0
  -10.1500   71.1480   15.0836 O   0  0  0  0  0  0  0  0  0  0  0  0
   -9.3224   72.2088   17.1099 C   0  0  2  0  0  0  0  0  0  0  0  0
  -10.5728   72.8594   17.3356 O   0  0  0  0  0  0  0  0  0  0  0  0
   -8.2107   73.1223   17.6284 C   0  0  2  0  0  0  0  0  0  0  0  0
   -6.9324   72.5399   17.3297 O   0  0  0  0  0  0  0  0  0  0  0  0
   -8.3899   73.3312   19.1344 C   0  0  0  0  0  0  0  0  0  0  0  0
   -7.9906   72.1303   19.8835 N   0  0  0  0  0  0  0  0  0  0  0  0
   -3.7904   75.1484   12.6600 C   0  0  2  0  0  0  0  0  0  0  0  0
   -2.7715   75.4667   11.6484 N   0  0  0  0  0  0  0  0  0  0  0  0
   -3.4209   73.8741   13.4218 C   0  0  0  0  0  0  0  0  0  0  0  0
   -4.4443   73.6696   14.5434 C   0  0  2  0  0  0  0  0  0  0  0  0
   -4.1604   72.4036   15.2346 N   0  0  0  0  0  0  0  0  0  0  0  0
   -5.8814   73.6033   14.0183 C   0  0  2  0  0  0  0  0  0  0  0  0
   -6.2577   74.7201   13.0511 C   0  0  2  0  0  0  0  0  0  0  0  0
   -7.4544   74.2733   12.3935 O   0  0  0  0  0  0  0  0  0  0  0  0
   -5.1614   74.9627   12.0052 C   0  0  1  0  0  0  0  0  0  0  0  0
   -5.4419   76.1351   11.2360 O   0  0  0  0  0  0  0  0  0  0  0  0
   -7.3390   73.0459   11.6556 C   0  0  1  0  0  0  0  0  0  0  0  0
   -7.5951   73.3670   10.1822 C   0  0  2  0  0  0  0  0  0  0  0  0
   -9.0024   73.3826    9.9311 O   0  0  0  0  0  0  0  0  0  0  0  0
   -6.9799   72.1170    9.5597 C   0  0  1  0  0  0  0  0  0  0  0  0
   -5.6838   72.0265   10.3495 C   0  0  2  0  0  0  0  0  0  0  0  0
   -6.0098   72.4863   11.6773 O   0  0  0  0  0  0  0  0  0  0  0  0
   -4.6270   72.9138    9.6817 C   0  0  0  0  0  0  0  0  0  0  0  0
   -5.1308   74.2393    9.4923 O   0  0  0  0  0  0  0  0  0  0  0  0
   -8.8724   70.9119    8.8778 C   0  0  2  0  0  0  0  0  0  0  0  0
   -7.8073   70.9763    9.8385 O   0  0  0  0  0  0  0  0  0  0  0  0
  -10.2186   71.0564    9.5947 C   0  0  1  0  0  0  0  0  0  0  0  0
   -8.2815   68.2445    5.7544 N   0  0  0  0  0  0  0  0  0  0  0  0
  -11.3737   70.8887    8.6018 C   0  0  1  0  0  0  0  0  0  0  0  0
  -11.4062   71.9895    7.6876 O   0  0  0  0  0  0  0  0  0  0  0  0
  -11.2080   69.5767    7.8301 C   0  0  2  0  0  0  0  0  0  0  0  0
  -11.3405   68.4873    8.7494 O   0  0  0  0  0  0  0  0  0  0  0  0
   -9.8260   69.5412    7.1689 C   0  0  1  0  0  0  0  0  0  0  0  0
   -8.7997   69.6610    8.1715 O   0  0  0  0  0  0  0  0  0  0  0  0
   -9.6188   68.2544    6.3655 C   0  0  0  0  0  0  0  0  0  0  0  0
  -10.3256   70.0017   10.6142 N   0  0  0  0  0  0  0  0  0  0  0  0
  1  2  1  6  0  0  0
  1  3  1  0  0  0  0
  1 10  1  0  0  0  0
  3  4  1  6  0  0  0
  3  5  1  0  0  0  0
  5  6  1  1  0  0  0
  5  7  1  0  0  0  0
  7  8  1  6  0  0  0
  7  9  1  0  0  0  0
  9 10  1  0  0  0  0
  9 11  1  1  0  0  0
 11 12  1  0  0  0  0
 13 14  1  6  0  0  0
 13 15  1  0  0  0  0
 13 21  1  0  0  0  0
 16 15  1  0  0  0  0
 16 17  1  6  0  0  0
 18  2  1  1  0  0  0
 18 16  1  0  0  0  0
 19 18  1  0  0  0  0
 19 20  1  6  0  0  0
 21 19  1  0  0  0  0
 21 22  1  1  0  0  0
 23 20  1  1  0  0  0
 23 24  1  0  0  0  0
 23 28  1  0  0  0  0
 24 25  1  1  0  0  0
 24 26  1  0  0  0  0
 26 27  1  0  0  0  0
 26 32  1  1  0  0  0
 27 28  1  0  0  0  0
 27 29  1  6  0  0  0
 29 30  1  0  0  0  0
 31 32  1  1  0  0  0
 31 40  1  0  0  0  0
 33 31  1  0  0  0  0
 33 42  1  1  0  0  0
 35 33  1  0  0  0  0
 35 36  1  6  0  0  0
 37 35  1  0  0  0  0
 37 38  1  1  0  0  0
 37 39  1  0  0  0  0
 39 40  1  0  0  0  0
 39 41  1  1  0  0  0
 41 34  1  0  0  0  0
M  END
>  <CHROM.1>
-93.00228704,74.48745855,-67.23474273,-59.83872643,-116.56331226,83.37982834
52.48256921,-117.52647185,-179.48373260,-7.63438988,72.27166319,12.16285432
1.22281199,0.58537505,1.41947942

>  <Name>
2fcy_lig

>  <RI>
3.12105e+07

>  <Rbt.Current_Directory>
/home/afrankz/demos/rdock_decoys_rna/rnas/2fcy

>  <Rbt.Executable>
rbdock ($Id: //depot/dev/client3/rdock/2013.1/src/exe/rbdock.cxx#4 $)

>  <Rbt.Library>
libRbt.so (2013.1, Build901 2013/11/27)

>  <Rbt.Parameter_File>
/export/apps/rDock/src/rDock_2013.1_src/data/scripts/dock_solv.prm

>  <Rbt.Receptor>
prm/blind_docking_80.prm

>  <SCORE>
55.1973

>  <SCORE.INTER>
5.59589

>  <SCORE.INTER.CONST>
1

>  <SCORE.INTER.POLAR>
-0.660231

>  <SCORE.INTER.ROT>
9

>  <SCORE.INTER.SOLV>
21.3317

>  <SCORE.INTER.VDW>
-10.7792

>  <SCORE.INTER.norm>
0.133235

>  <SCORE.INTRA>
15.2733

>  <SCORE.INTRA.DIHEDRAL>
4.94543

>  <SCORE.INTRA.DIHEDRAL.0>
17.3446

>  <SCORE.INTRA.POLAR>
0

>  <SCORE.INTRA.POLAR.0>
0

>  <SCORE.INTRA.REPUL>
0.213288

>  <SCORE.INTRA.REPUL.0>
0

>  <SCORE.INTRA.SOLV>
6.03112

>  <SCORE.INTRA.SOLV.lig_0>
-112.452

>  <SCORE.INTRA.VDW>
8.71854

>  <SCORE.INTRA.VDW.0>
-5.95059

>  <SCORE.INTRA.norm>
0.363649

>  <SCORE.RESTR>
34.3281

>  <SCORE.RESTR.CAVITY>
34.3281

>  <SCORE.RESTR.norm>
0.817337

>  <SCORE.SYSTEM>
0

>  <SCORE.SYSTEM.CONST>
0

>  <SCORE.SYSTEM.DIHEDRAL>
0

>  <SCORE.SYSTEM.SOLV>
0

>  <SCORE.SYSTEM.norm>
0

>  <SCORE.heavy>
42

>  <SCORE.norm>
1.31422

>  <RMSD>
21.619

$$$$
2fcy_lig
 OpenBabel11021811433D
libRbt.so/2013.1/901 2013/11/27
 42 45  0  0  0  0  0  0  0  0999 V2000
   -4.2987   74.8924   11.4342 C   0  0  2  0  0  0  0  0  0  0  0  0
   -4.2185   73.6253   12.1089 O   0  0  0  0  0  0  0  0  0  0  0  0
   -3.6431   74.6699   10.0705 C   0  0  2  0  0  0  0  0  0  0  0  0
   -4.3065   73.5388    9.4078 N   0  0  0  0  0  0  0  0  0  0  0  0
   -2.1589   74.3481   10.2621 C   0  0  1  0  0  0  0  0  0  0  0  0
   -1.5224   74.1399    8.9983 O   0  0  0  0  0  0  0  0  0  0  0  0
   -1.4855   75.4935   11.0188 C   0  0  2  0  0  0  0  0  0  0  0  0
   -0.1253   75.1485   11.2809 O   0  0  0  0  0  0  0  0  0  0  0  0
   -2.1951   75.6819   12.3604 C   0  0  2  0  0  0  0  0  0  0  0  0
   -3.5904   75.9360   12.1339 O   0  0  0  0  0  0  0  0  0  0  0  0
   -1.5355   76.8336   13.1234 C   0  0  0  0  0  0  0  0  0  0  0  0
   -2.1090   76.9690   14.4708 N   0  0  0  0  0  0  0  0  0  0  0  0
   -5.9127   71.7773   15.4796 C   0  0  2  0  0  0  0  0  0  0  0  0
   -6.5431   71.3955   16.7522 N   0  0  0  0  0  0  0  0  0  0  0  0
   -4.6687   72.6337   15.7243 C   0  0  0  0  0  0  0  0  0  0  0  0
   -3.9852   72.8866   14.3767 C   0  0  2  0  0  0  0  0  0  0  0  0
   -2.8355   73.7806   14.5758 N   0  0  0  0  0  0  0  0  0  0  0  0
   -4.9216   73.5485   13.3616 C   0  0  2  0  0  0  0  0  0  0  0  0
   -6.2896   72.8878   13.2326 C   0  0  2  0  0  0  0  0  0  0  0  0
   -7.1203   73.8496   12.5625 O   0  0  0  0  0  0  0  0  0  0  0  0
   -6.8954   72.5578   14.6032 C   0  0  1  0  0  0  0  0  0  0  0  0
   -8.0782   71.7667   14.4601 O   0  0  0  0  0  0  0  0  0  0  0  0
   -7.9332   73.3351   11.4954 C   0  0  1  0  0  0  0  0  0  0  0  0
   -8.0103   71.8168   11.6644 C   0  0  2  0  0  0  0  0  0  0  0  0
   -6.8580   71.2084   11.0765 O   0  0  0  0  0  0  0  0  0  0  0  0
   -9.2317   71.5456   10.7909 C   0  0  1  0  0  0  0  0  0  0  0  0
  -10.1612   72.6503   11.2682 C   0  0  2  0  0  0  0  0  0  0  0  0
   -9.3054   73.7752   11.5561 O   0  0  0  0  0  0  0  0  0  0  0  0
  -10.9114   72.1698   12.5158 C   0  0  0  0  0  0  0  0  0  0  0  0
  -11.6539   70.9811   12.2289 O   0  0  0  0  0  0  0  0  0  0  0  0
   -9.1972   70.5559    8.6654 C   0  0  2  0  0  0  0  0  0  0  0  0
   -8.8965   71.7469    9.4087 O   0  0  0  0  0  0  0  0  0  0  0  0
  -10.0801   70.9104    7.4646 C   0  0  1  0  0  0  0  0  0  0  0  0
  -10.3046   67.6929   11.2122 N   0  0  0  0  0  0  0  0  0  0  0  0
  -10.4974   69.6409    6.7146 C   0  0  1  0  0  0  0  0  0  0  0  0
   -9.3622   69.0432    6.0804 O   0  0  0  0  0  0  0  0  0  0  0  0
  -11.1310   68.6462    7.6912 C   0  0  2  0  0  0  0  0  0  0  0  0
  -12.3504   69.2085    8.1875 O   0  0  0  0  0  0  0  0  0  0  0  0
  -10.1652   68.3794    8.8507 C   0  0  1  0  0  0  0  0  0  0  0  0
   -9.8586   69.6129    9.5269 O   0  0  0  0  0  0  0  0  0  0  0  0
  -10.7457   67.3720    9.8469 C   0  0  0  0  0  0  0  0  0  0  0  0
  -11.2941   71.5813    7.9536 N   0  0  0  0  0  0  0  0  0  0  0  0
  1  2  1  1  0  0  0
  1  3  1  0  0  0  0
  1 10  1  0  0  0  0
  3  4  1  1  0  0  0
  3  5  1  0  0  0  0
  5  6  1  6  0  0  0
  5  7  1  0  0  0  0
  7  8  1  1  0  0  0
  7  9  1  0  0  0  0
  9 10  1  0  0  0  0
  9 11  1  6  0  0  0
 11 12  1  0  0  0  0
 13 14  1  1  0  0  0
 13 15  1  0  0  0  0
 13 21  1  0  0  0  0
 16 15  1  0  0  0  0
 16 17  1  1  0  0  0
 18  2  1  6  0  0  0
 18 16  1  0  0  0  0
 19 18  1  0  0  0  0
 19 20  1  1  0  0  0
 21 19  1  0  0  0  0
 21 22  1  6  0  0  0
 23 20  1  1  0  0  0
 23 24  1  0  0  0  0
 23 28  1  0  0  0  0
 24 25  1  6  0  0  0
 24 26  1  0  0  0  0
 26 27  1  0  0  0  0
 26 32  1  6  0  0  0
 27 28  1  0  0  0  0
 27 29  1  1  0  0  0
 29 30  1  0  0  0  0
 31 32  1  1  0  0  0
 31 40  1  0  0  0  0
 33 31  1  0  0  0  0
 33 42  1  1  0  0  0
 35 33  1  0  0  0  0
 35 36  1  1  0  0  0
 37 35  1  0  0  0  0
 37 38  1  1  0  0  0
 37 39  1  0  0  0  0
 39 40  1  0  0  0  0
 39 41  1  1  0  0  0
 41 34  1  0  0  0  0
M  END
>  <CHROM.1>
-172.81303440,-174.85843071,-133.85500301,134.59128782,17.79662524,124.19215001
-58.36557391,127.48083865,-146.36170672,-6.83540171,72.38174460,11.31513670
-0.41387665,-0.54579465,-1.66066250

>  <Name>
2fcy_lig

>  <RI>
3.12105e+07

>  <Rbt.Current_Directory>
/home/afrankz/demos/rdock_decoys_rna/rnas/2fcy

>  <Rbt.Executable>
rbdock ($Id: //depot/dev/client3/rdock/2013.1/src/exe/rbdock.cxx#4 $)

>  <Rbt.Library>
libRbt.so (2013.1, Build901 2013/11/27)

>  <Rbt.Parameter_File>
/export/apps/rDock/src/rDock_2013.1_src/data/scripts/dock_solv.prm

>  <Rbt.Receptor>
prm/blind_docking_80.prm

>  <SCORE>
84.0033

>  <SCORE.INTER>
18.8155

>  <SCORE.INTER.CONST>
1

>  <SCORE.INTER.POLAR>
-0.483691

>  <SCORE.INTER.ROT>
9

>  <SCORE.INTER.SOLV>
30.2671

>  <SCORE.INTER.VDW>
-5.53302

>  <SCORE.INTER.norm>
0.447989

>  <SCORE.INTRA>
18.3168

>  <SCORE.INTRA.DIHEDRAL>
17.9302

>  <SCORE.INTRA.DIHEDRAL.0>
17.3446

>  <SCORE.INTRA.POLAR>
0

>  <SCORE.INTRA.POLAR.0>
0

>  <SCORE.INTRA.REPUL>
0

>  <SCORE.INTRA.REPUL.0>
0

>  <SCORE.INTRA.SOLV>
1.96413

>  <SCORE.INTRA.SOLV.lig_0>
-112.452

>  <SCORE.INTRA.VDW>
8.36965

>  <SCORE.INTRA.VDW.0>
-5.95059

>  <SCORE.INTRA.norm>
0.436115

>  <SCORE.RESTR>
46.8709

>  <SCORE.RESTR.CAVITY>
46.8709

>  <SCORE.RESTR.norm>
1.11597

>  <SCORE.SYSTEM>
0

>  <SCORE.SYSTEM.CONST>
0

>  <SCORE.SYSTEM.DIHEDRAL>
0

>  <SCORE.SYSTEM.SOLV>
0

>  <SCORE.SYSTEM.norm>
0

>  <SCORE.heavy>
42

>  <SCORE.norm>
2.00008

>  <RMSD>
21.626

$$$$
2fcy_lig
 OpenBabel11021811433D
libRbt.so/2013.1/901 2013/11/27
 42 45  0  0  0  0  0  0  0  0999 V2000
   -4.2699   74.9074   11.4954 C   0  0  2  0  0  0  0  0  0  0  0  0
   -4.1964   73.6427   12.1756 O   0  0  0  0  0  0  0  0  0  0  0  0
   -3.6435   74.6676   10.1210 C   0  0  2  0  0  0  0  0  0  0  0  0
   -4.3364   73.5433    9.4771 N   0  0  0  0  0  0  0  0  0  0  0  0
   -2.1610   74.3240   10.2866 C   0  0  1  0  0  0  0  0  0  0  0  0
   -1.5516   74.0994    9.0123 O   0  0  0  0  0  0  0  0  0  0  0  0
   -1.4561   75.4629   11.0242 C   0  0  2  0  0  0  0  0  0  0  0  0
   -0.0968   75.0984   11.2628 O   0  0  0  0  0  0  0  0  0  0  0  0
   -2.1376   75.6693   12.3778 C   0  0  2  0  0  0  0  0  0  0  0  0
   -3.5327   75.9436   12.1760 O   0  0  0  0  0  0  0  0  0  0  0  0
   -1.4462   76.8148   13.1219 C   0  0  0  0  0  0  0  0  0  0  0  0
   -1.6775   78.0987   12.4432 N   0  0  0  0  0  0  0  0  0  0  0  0
   -5.9499   71.7952   15.5160 C   0  0  2  0  0  0  0  0  0  0  0  0
   -6.6042   71.4136   16.7766 N   0  0  0  0  0  0  0  0  0  0  0  0
   -4.7152   72.6582   15.7837 C   0  0  0  0  0  0  0  0  0  0  0  0
   -4.0057   72.9109   14.4496 C   0  0  2  0  0  0  0  0  0  0  0  0
   -2.8645   73.8109   14.6696 N   0  0  0  0  0  0  0  0  0  0  0  0
   -4.9245   73.5657   13.4139 C   0  0  2  0  0  0  0  0  0  0  0  0
   -6.2864   72.8982   13.2589 C   0  0  2  0  0  0  0  0  0  0  0  0
   -7.1078   73.8543   12.5696 O   0  0  0  0  0  0  0  0  0  0  0  0
   -6.9184   72.5688   14.6179 C   0  0  1  0  0  0  0  0  0  0  0  0
   -8.0942   71.7718   14.4529 O   0  0  0  0  0  0  0  0  0  0  0  0
   -7.9067   73.3308   11.4963 C   0  0  1  0  0  0  0  0  0  0  0  0
   -7.9830   71.8136   11.6750 C   0  0  2  0  0  0  0  0  0  0  0  0
   -6.8225   71.2033   11.1055 O   0  0  0  0  0  0  0  0  0  0  0  0
   -9.1932   71.5339   10.7886 C   0  0  1  0  0  0  0  0  0  0  0  0
  -10.1305   72.6401   11.2467 C   0  0  2  0  0  0  0  0  0  0  0  0
   -9.2804   73.7686   11.5371 O   0  0  0  0  0  0  0  0  0  0  0  0
  -10.8950   72.1669   12.4884 C   0  0  0  0  0  0  0  0  0  0  0  0
  -11.5925   70.9483   12.2148 O   0  0  0  0  0  0  0  0  0  0  0  0
   -9.1651   70.5425    8.6638 C   0  0  2  0  0  0  0  0  0  0  0  0
   -8.8414   71.7262    9.4092 O   0  0  0  0  0  0  0  0  0  0  0  0
  -10.0608   70.9131    7.4774 C   0  0  1  0  0  0  0  0  0  0  0  0
  -11.1406   66.1392    9.1551 N   0  0  0  0  0  0  0  0  0  0  0  0
  -10.5021   69.6522    6.7264 C   0  0  1  0  0  0  0  0  0  0  0  0
   -9.3822   69.0461    6.0732 O   0  0  0  0  0  0  0  0  0  0  0  0
  -11.1326   68.6589    7.7063 C   0  0  2  0  0  0  0  0  0  0  0  0
  -12.3390   69.2313    8.2226 O   0  0  0  0  0  0  0  0  0  0  0  0
  -10.1537   68.3755    8.8508 C   0  0  1  0  0  0  0  0  0  0  0  0
   -9.8246   69.6018    9.5293 O   0  0  0  0  0  0  0  0  0  0  0  0
  -10.7311   67.3688    9.8495 C   0  0  0  0  0  0  0  0  0  0  0  0
  -11.2607   71.5941    7.9868 N   0  0  0  0  0  0  0  0  0  0  0  0
  1  2  1  1  0  0  0
  1  3  1  0  0  0  0
  1 10  1  0  0  0  0
  3  4  1  1  0  0  0
  3  5  1  0  0  0  0
  5  6  1  6  0  0  0
  5  7  1  0  0  0  0
  7  8  1  1  0  0  0
  7  9  1  0  0  0  0
  9 10  1  0  0  0  0
  9 11  1  6  0  0  0
 11 12  1  0  0  0  0
 13 14  1  1  0  0  0
 13 15  1  0  0  0  0
 13 21  1  0  0  0  0
 16 15  1  0  0  0  0
 16 17  1  1  0  0  0
 18  2  1  6  0  0  0
 18 16  1  0  0  0  0
 19 18  1  0  0  0  0
 19 20  1  1  0  0  0
 21 19  1  0  0  0  0
 21 22  1  6  0  0  0
 23 20  1  1  0  0  0
 23 24  1  0  0  0  0
 23 28  1  0  0  0  0
 24 25  1  6  0  0  0
 24 26  1  0  0  0  0
 26 27  1  0  0  0  0
 26 32  1  6  0  0  0
 27 28  1  0  0  0  0
 27 29  1  1  0  0  0
 29 30  1  0  0  0  0
 31 32  1  1  0  0  0
 31 40  1  0  0  0  0
 33 31  1  0  0  0  0
 33 42  1  1  0  0  0
 35 33  1  0  0  0  0
 35 36  1  1  0  0  0
 37 35  1  0  0  0  0
 37 38  1  1  0  0  0
 37 39  1  0  0  0  0
 39 40  1  0  0  0  0
 39 41  1  1  0  0  0
 41 34  1  0  0  0  0
M  END
>  <CHROM.1>
-170.27160659,67.40689580,-133.90976889,135.19364166,17.63298610,125.77668189
-56.25569312,125.93001636,54.73861734,-6.83310482,72.37059524,11.23702862
-0.40517847,-0.56846341,-1.66795210

>  <Name>
2fcy_lig

>  <RI>
3.12105e+07

>  <Rbt.Current_Directory>
/home/afrankz/demos/rdock_decoys_rna/rnas/2fcy

>  <Rbt.Executable>
rbdock ($Id: //depot/dev/client3/rdock/2013.1/src/exe/rbdock.cxx#4 $)

>  <Rbt.Library>
libRbt.so (2013.1, Build901 2013/11/27)

>  <Rbt.Parameter_File>
/export/apps/rDock/src/rDock_2013.1_src/data/scripts/dock_solv.prm

>  <Rbt.Receptor>
prm/blind_docking_80.prm

>  <SCORE>
82.0352

>  <SCORE.INTER>
17.2329

>  <SCORE.INTER.CONST>
1

>  <SCORE.INTER.POLAR>
-0.946367

>  <SCORE.INTER.ROT>
9

>  <SCORE.INTER.SOLV>
29.7146

>  <SCORE.INTER.VDW>
-4.86174

>  <SCORE.INTER.norm>
0.410306

>  <SCORE.INTRA>
16.8296

>  <SCORE.INTRA.DIHEDRAL>
15.232

>  <SCORE.INTRA.DIHEDRAL.0>
17.3446

>  <SCORE.INTRA.POLAR>
0

>  <SCORE.INTRA.POLAR.0>
0

>  <SCORE.INTRA.REPUL>
0

>  <SCORE.INTRA.REPUL.0>
0

>  <SCORE.INTRA.SOLV>
1.19048

>  <SCORE.INTRA.SOLV.lig_0>
-112.452

>  <SCORE.INTRA.VDW>
8.61835

>  <SCORE.INTRA.VDW.0>
-5.95059

>  <SCORE.INTRA.norm>
0.400704

>  <SCORE.RESTR>
47.9728

>  <SCORE.RESTR.CAVITY>
47.9728

>  <SCORE.RESTR.norm>
1.14221

>  <SCORE.SYSTEM>
0

>  <SCORE.SYSTEM.CONST>
0

>  <SCORE.SYSTEM.DIHEDRAL>
0

>  <SCORE.SYSTEM.SOLV>
0

>  <SCORE.SYSTEM.norm>
0

>  <SCORE.heavy>
42

>  <SCORE.norm>
1.95322

>  <RMSD>
21.655

$$$$
2fcy_lig
 OpenBabel11021811433D
libRbt.so/2013.1/901 2013/11/27
 42 45  0  0  0  0  0  0  0  0999 V2000
   -7.0581   72.3316   16.1919 C   0  0  2  0  0  0  0  0  0  0  0  0
   -7.0740   73.4665   15.3093 O   0  0  0  0  0  0  0  0  0  0  0  0
   -8.1119   71.3709   15.6391 C   0  0  2  0  0  0  0  0  0  0  0  0
   -7.8078   71.0996   14.2274 N   0  0  0  0  0  0  0  0  0  0  0  0
   -9.4972   72.0133   15.7467 C   0  0  1  0  0  0  0  0  0  0  0  0
  -10.5015   71.1305   15.2389 O   0  0  0  0  0  0  0  0  0  0  0  0
   -9.7812   72.3640   17.2076 C   0  0  2  0  0  0  0  0  0  0  0  0
  -11.0304   73.0495   17.2924 O   0  0  0  0  0  0  0  0  0  0  0  0
   -8.6865   73.3067   17.7096 C   0  0  2  0  0  0  0  0  0  0  0  0
   -7.4035   72.6819   17.5477 O   0  0  0  0  0  0  0  0  0  0  0  0
   -8.9548   73.6572   19.1755 C   0  0  0  0  0  0  0  0  0  0  0  0
   -7.8488   74.4459   19.7390 N   0  0  0  0  0  0  0  0  0  0  0  0
   -3.7315   74.7869   13.1342 C   0  0  2  0  0  0  0  0  0  0  0  0
   -2.5896   75.0042   12.2332 N   0  0  0  0  0  0  0  0  0  0  0  0
   -3.5616   73.4875   13.9238 C   0  0  0  0  0  0  0  0  0  0  0  0
   -4.7084   73.3844   14.9344 C   0  0  2  0  0  0  0  0  0  0  0  0
   -4.6153   72.1010   15.6450 N   0  0  0  0  0  0  0  0  0  0  0  0
   -6.0845   73.4493   14.2652 C   0  0  2  0  0  0  0  0  0  0  0  0
   -6.2549   74.5915   13.2698 C   0  0  2  0  0  0  0  0  0  0  0  0
   -7.4146   74.2545   12.4916 O   0  0  0  0  0  0  0  0  0  0  0  0
   -5.0399   74.7261   12.3423 C   0  0  1  0  0  0  0  0  0  0  0  0
   -5.1304   75.9157   11.5539 O   0  0  0  0  0  0  0  0  0  0  0  0
   -7.3015   73.0712   11.6847 C   0  0  1  0  0  0  0  0  0  0  0  0
   -7.5810   73.4721   10.2353 C   0  0  2  0  0  0  0  0  0  0  0  0
   -8.9918   73.4911   10.0052 O   0  0  0  0  0  0  0  0  0  0  0  0
   -6.9663   72.2636    9.5352 C   0  0  1  0  0  0  0  0  0  0  0  0
   -5.6584   72.1389   10.3006 C   0  0  2  0  0  0  0  0  0  0  0  0
   -5.9684   72.5213   11.6565 O   0  0  0  0  0  0  0  0  0  0  0  0
   -4.6173   73.0701    9.6687 C   0  0  0  0  0  0  0  0  0  0  0  0
   -3.3113   72.7814   10.1760 O   0  0  0  0  0  0  0  0  0  0  0  0
   -8.6451   70.8979    8.6325 C   0  0  2  0  0  0  0  0  0  0  0  0
   -7.7818   71.1029    9.7613 O   0  0  0  0  0  0  0  0  0  0  0  0
  -10.0496   71.4143    8.9610 C   0  0  1  0  0  0  0  0  0  0  0  0
  -10.0280   66.9062    7.8186 N   0  0  0  0  0  0  0  0  0  0  0  0
  -11.0131   71.1135    7.8079 C   0  0  1  0  0  0  0  0  0  0  0  0
  -10.6718   71.8958    6.6591 O   0  0  0  0  0  0  0  0  0  0  0  0
  -10.9548   69.6239    7.4587 C   0  0  2  0  0  0  0  0  0  0  0  0
  -11.4542   68.8748    8.5718 O   0  0  0  0  0  0  0  0  0  0  0  0
   -9.5059   69.2224    7.1627 C   0  0  1  0  0  0  0  0  0  0  0  0
   -8.6775   69.4970    8.3077 O   0  0  0  0  0  0  0  0  0  0  0  0
   -9.3971   67.7422    6.7866 C   0  0  0  0  0  0  0  0  0  0  0  0
  -10.5363   70.7241   10.1651 N   0  0  0  0  0  0  0  0  0  0  0  0
  1  2  1  6  0  0  0
  1  3  1  0  0  0  0
  1 10  1  0  0  0  0
  3  4  1  6  0  0  0
  3  5  1  0  0  0  0
  5  6  1  1  0  0  0
  5  7  1  0  0  0  0
  7  8  1  6  0  0  0
  7  9  1  0  0  0  0
  9 10  1  0  0  0  0
  9 11  1  1  0  0  0
 11 12  1  0  0  0  0
 13 14  1  6  0  0  0
 13 15  1  0  0  0  0
 13 21  1  0  0  0  0
 16 15  1  0  0  0  0
 16 17  1  6  0  0  0
 18  2  1  1  0  0  0
 18 16  1  0  0  0  0
 19 18  1  0  0  0  0
 19 20  1  6  0  0  0
 21 19  1  0  0  0  0
 21 22  1  1  0  0  0
 23 20  1  1  0  0  0
 23 24  1  0  0  0  0
 23 28  1  0  0  0  0
 24 25  1  1  0  0  0
 24 26  1  0  0  0  0
 26 27  1  0  0  0  0
 26 32  1  1  0  0  0
 27 28  1  0  0  0  0
 27 29  1  6  0  0  0
 29 30  1  0  0  0  0
 31 32  1  1  0  0  0
 31 40  1  0  0  0  0
 33 31  1  0  0  0  0
 33 42  1  1  0  0  0
 35 33  1  0  0  0  0
 35 36  1  6  0  0  0
 37 35  1  0  0  0  0
 37 38  1  1  0  0  0
 37 39  1  0  0  0  0
 39 40  1  0  0  0  0
 39 41  1  1  0  0  0
 41 34  1  0  0  0  0
M  END
>  <CHROM.1>
-95.93108337,173.93344820,-59.23548785,-64.36967926,-123.03654355,97.68687583
-168.01032566,-101.05614131,-53.40200891,-7.68409910,72.24872779,12.27461086
1.26883160,0.50176882,1.33784107

>  <Name>
2fcy_lig

>  <RI>
3.12105e+07

>  <Rbt.Current_Directory>
/home/afrankz/demos/rdock_decoys_rna/rnas/2fcy

>  <Rbt.Executable>
rbdock ($Id: //depot/dev/client3/rdock/2013.1/src/exe/rbdock.cxx#4 $)

>  <Rbt.Library>
libRbt.so (2013.1, Build901 2013/11/27)

>  <Rbt.Parameter_File>
/export/apps/rDock/src/rDock_2013.1_src/data/scripts/dock_solv.prm

>  <Rbt.Receptor>
prm/blind_docking_80.prm

>  <SCORE>
63.7943

>  <SCORE.INTER>
12.8818

>  <SCORE.INTER.CONST>
1

>  <SCORE.INTER.POLAR>
-0.368812

>  <SCORE.INTER.ROT>
9

>  <SCORE.INTER.SOLV>
24.3344

>  <SCORE.INTER.VDW>
-7.8942

>  <SCORE.INTER.norm>
0.30671

>  <SCORE.INTRA>
14.7296

>  <SCORE.INTRA.DIHEDRAL>
5.95869

>  <SCORE.INTRA.DIHEDRAL.0>
17.3446

>  <SCORE.INTRA.POLAR>
0

>  <SCORE.INTRA.POLAR.0>
0

>  <SCORE.INTRA.REPUL>
0

>  <SCORE.INTRA.REPUL.0>
0

>  <SCORE.INTRA.SOLV>
5.5195

>  <SCORE.INTRA.SOLV.lig_0>
-112.452

>  <SCORE.INTRA.VDW>
8.99053

>  <SCORE.INTRA.VDW.0>
-5.95059

>  <SCORE.INTRA.norm>
0.350706

>  <SCORE.RESTR>
36.1828

>  <SCORE.RESTR.CAVITY>
36.1828

>  <SCORE.RESTR.norm>
0.861496

>  <SCORE.SYSTEM>
0

>  <SCORE.SYSTEM.CONST>
0

>  <SCORE.SYSTEM.DIHEDRAL>
0

>  <SCORE.SYSTEM.SOLV>
0

>  <SCORE.SYSTEM.norm>
0

>  <SCORE.heavy>
42

>  <SCORE.norm>
1.51891

>  <RMSD>
21.669

$$$$
2fcy_lig
 OpenBabel11021811433D
libRbt.so/2013.1/901 2013/11/27
 42 45  0  0  0  0  0  0  0  0999 V2000
   -4.6616   74.6215   11.9035 C   0  0  2  0  0  0  0  0  0  0  0  0
   -4.4421   73.3082   12.4462 O   0  0  0  0  0  0  0  0  0  0  0  0
   -4.2429   74.5307   10.4354 C   0  0  2  0  0  0  0  0  0  0  0  0
   -4.9859   73.4337    9.8004 N   0  0  0  0  0  0  0  0  0  0  0  0
   -2.7414   74.2459   10.3477 C   0  0  1  0  0  0  0  0  0  0  0  0
   -2.3248   74.1607    8.9821 O   0  0  0  0  0  0  0  0  0  0  0  0
   -1.9728   75.3500   11.0744 C   0  0  2  0  0  0  0  0  0  0  0  0
   -0.5811   75.0322   11.0748 O   0  0  0  0  0  0  0  0  0  0  0  0
   -2.4479   75.4067   12.5271 C   0  0  2  0  0  0  0  0  0  0  0  0
   -3.8662   75.6299   12.5599 O   0  0  0  0  0  0  0  0  0  0  0  0
   -1.6919   76.5161   13.2628 C   0  0  0  0  0  0  0  0  0  0  0  0
   -1.8516   77.8066   12.5760 N   0  0  0  0  0  0  0  0  0  0  0  0
   -5.1104   71.2489   16.0461 C   0  0  2  0  0  0  0  0  0  0  0  0
   -5.4594   70.7720   17.3928 N   0  0  0  0  0  0  0  0  0  0  0  0
   -4.2066   72.4810   16.1228 C   0  0  0  0  0  0  0  0  0  0  0  0
   -3.7715   72.8486   14.7005 C   0  0  2  0  0  0  0  0  0  0  0  0
   -2.9729   74.0821   14.7408 N   0  0  0  0  0  0  0  0  0  0  0  0
   -4.9629   73.0934   13.7699 C   0  0  2  0  0  0  0  0  0  0  0  0
   -6.0378   72.0131   13.8145 C   0  0  2  0  0  0  0  0  0  0  0  0
   -7.1988   72.5994   13.2041 O   0  0  0  0  0  0  0  0  0  0  0  0
   -6.3722   71.5999   15.2539 C   0  0  1  0  0  0  0  0  0  0  0  0
   -7.2311   70.4566   15.2692 O   0  0  0  0  0  0  0  0  0  0  0  0
   -7.6699   71.9519   12.0112 C   0  0  1  0  0  0  0  0  0  0  0  0
   -9.1459   71.6109   12.2230 C   0  0  2  0  0  0  0  0  0  0  0  0
   -9.2568   70.3757   12.9342 O   0  0  0  0  0  0  0  0  0  0  0  0
   -9.5486   71.3987   10.7666 C   0  0  1  0  0  0  0  0  0  0  0  0
   -8.8871   72.6056   10.1202 C   0  0  2  0  0  0  0  0  0  0  0  0
   -7.6603   72.8090   10.8512 O   0  0  0  0  0  0  0  0  0  0  0  0
   -9.8259   73.8122   10.2336 C   0  0  0  0  0  0  0  0  0  0  0  0
  -10.5012   73.8065   11.4948 O   0  0  0  0  0  0  0  0  0  0  0  0
   -9.8256   69.5994    9.2886 C   0  0  2  0  0  0  0  0  0  0  0  0
   -8.9574   70.1877   10.2692 O   0  0  0  0  0  0  0  0  0  0  0  0
   -9.4500   70.1158    7.8960 C   0  0  1  0  0  0  0  0  0  0  0  0
  -14.0780   70.8255    8.4879 N   0  0  0  0  0  0  0  0  0  0  0  0
  -10.4284   69.5800    6.8453 C   0  0  1  0  0  0  0  0  0  0  0  0
  -10.2653   68.1666    6.6902 O   0  0  0  0  0  0  0  0  0  0  0  0
  -11.8662   69.8942    7.2676 C   0  0  2  0  0  0  0  0  0  0  0  0
  -12.0440   71.3147    7.2580 O   0  0  0  0  0  0  0  0  0  0  0  0
  -12.1202   69.3423    8.6744 C   0  0  1  0  0  0  0  0  0  0  0  0
  -11.1900   69.9263    9.6053 O   0  0  0  0  0  0  0  0  0  0  0  0
  -13.5548   69.6135    9.1354 C   0  0  0  0  0  0  0  0  0  0  0  0
   -9.5308   71.5843    7.8998 N   0  0  0  0  0  0  0  0  0  0  0  0
  1  2  1  1  0  0  0
  1  3  1  0  0  0  0
  1 10  1  0  0  0  0
  3  4  1  1  0  0  0
  3  5  1  0  0  0  0
  5  6  1  6  0  0  0
  5  7  1  0  0  0  0
  7  8  1  1  0  0  0
  7  9  1  0  0  0  0
  9 10  1  0  0  0  0
  9 11  1  1  0  0  0
 11 12  1  0  0  0  0
 13 14  1  1  0  0  0
 13 15  1  0  0  0  0
 13 21  1  0  0  0  0
 16 15  1  0  0  0  0
 16 17  1  1  0  0  0
 18  2  1  6  0  0  0
 18 16  1  0  0  0  0
 19 18  1  0  0  0  0
 19 20  1  1  0  0  0
 21 19  1  0  0  0  0
 21 22  1  6  0  0  0
 23 20  1  1  0  0  0
 23 24  1  0  0  0  0
 23 28  1  0  0  0  0
 24 25  1  1  0  0  0
 24 26  1  0  0  0  0
 26 27  1  0  0  0  0
 26 32  1  6  0  0  0
 27 28  1  0  0  0  0
 27 29  1  1  0  0  0
 29 30  1  0  0  0  0
 31 32  1  1  0  0  0
 31 40  1  0  0  0  0
 33 31  1  0  0  0  0
 33 42  1  1  0  0  0
 35 33  1  0  0  0  0
 35 36  1  1  0  0  0
 37 35  1  0  0  0  0
 37 38  1  1  0  0  0
 37 39  1  0  0  0  0
 39 40  1  0  0  0  0
 39 41  1  1  0  0  0
 41 34  1  0  0  0  0
M  END
>  <CHROM.1>
-170.67733110,55.80608574,-115.06737735,118.17968056,125.51536738,148.40399132
37.92021204,91.29537495,-28.03813326,-7.04016224,72.37166222,11.34792206
-0.32254179,-0.55989073,-1.32401695

>  <Name>
2fcy_lig

>  <RI>
3.12105e+07

>  <Rbt.Current_Directory>
/home/afrankz/demos/rdock_decoys_rna/rnas/2fcy

>  <Rbt.Executable>
rbdock ($Id: //depot/dev/client3/rdock/2013.1/src/exe/rbdock.cxx#4 $)

>  <Rbt.Library>
libRbt.so (2013.1, Build901 2013/11/27)

>  <Rbt.Parameter_File>
/export/apps/rDock/src/rDock_2013.1_src/data/scripts/dock_solv.prm

>  <Rbt.Receptor>
prm/blind_docking_80.prm

>  <SCORE>
127.494

>  <SCORE.INTER>
62.7676

>  <SCORE.INTER.CONST>
1

>  <SCORE.INTER.POLAR>
-1.30136

>  <SCORE.INTER.ROT>
9

>  <SCORE.INTER.SOLV>
33.0032

>  <SCORE.INTER.VDW>
25.5819

>  <SCORE.INTER.norm>
1.49447

>  <SCORE.INTRA>
18.9526

>  <SCORE.INTRA.DIHEDRAL>
16.4309

>  <SCORE.INTRA.DIHEDRAL.0>
17.3446

>  <SCORE.INTRA.POLAR>
0

>  <SCORE.INTRA.POLAR.0>
0

>  <SCORE.INTRA.REPUL>
0

>  <SCORE.INTRA.REPUL.0>
0

>  <SCORE.INTRA.SOLV>
6.54843

>  <SCORE.INTRA.SOLV.lig_0>
-112.452

>  <SCORE.INTRA.VDW>
7.46292

>  <SCORE.INTRA.VDW.0>
-5.95059

>  <SCORE.INTRA.norm>
0.451252

>  <SCORE.RESTR>
45.7734

>  <SCORE.RESTR.CAVITY>
45.7734

>  <SCORE.RESTR.norm>
1.08984

>  <SCORE.SYSTEM>
0

>  <SCORE.SYSTEM.CONST>
0

>  <SCORE.SYSTEM.DIHEDRAL>
0

>  <SCORE.SYSTEM.SOLV>
0

>  <SCORE.SYSTEM.norm>
0

>  <SCORE.heavy>
42

>  <SCORE.norm>
3.03556

>  <RMSD>
21.674

$$$$
2fcy_lig
 OpenBabel11021811433D
libRbt.so/2013.1/901 2013/11/27
 42 45  0  0  0  0  0  0  0  0999 V2000
   -4.3090   74.8881   11.4417 C   0  0  2  0  0  0  0  0  0  0  0  0
   -4.2467   73.6159   12.1086 O   0  0  0  0  0  0  0  0  0  0  0  0
   -3.6120   74.6776   10.0968 C   0  0  2  0  0  0  0  0  0  0  0  0
   -4.2527   73.5505    9.4054 N   0  0  0  0  0  0  0  0  0  0  0  0
   -2.1336   74.3570   10.3307 C   0  0  1  0  0  0  0  0  0  0  0  0
   -1.4587   74.1599    9.0851 O   0  0  0  0  0  0  0  0  0  0  0  0
   -1.4858   75.4975   11.1163 C   0  0  2  0  0  0  0  0  0  0  0  0
   -0.1335   75.1530   11.4168 O   0  0  0  0  0  0  0  0  0  0  0  0
   -2.2361   75.6741   12.4373 C   0  0  2  0  0  0  0  0  0  0  0  0
   -3.6243   75.9275   12.1707 O   0  0  0  0  0  0  0  0  0  0  0  0
   -1.6022   76.8210   13.2290 C   0  0  0  0  0  0  0  0  0  0  0  0
   -2.2551   76.9816   14.5368 N   0  0  0  0  0  0  0  0  0  0  0  0
   -5.9680   71.7598   15.4610 C   0  0  2  0  0  0  0  0  0  0  0  0
   -6.6129   71.3751   16.7255 N   0  0  0  0  0  0  0  0  0  0  0  0
   -4.7398   72.6343   15.7212 C   0  0  0  0  0  0  0  0  0  0  0  0
   -4.0388   72.8905   14.3832 C   0  0  2  0  0  0  0  0  0  0  0  0
   -2.9046   73.8012   14.5960 N   0  0  0  0  0  0  0  0  0  0  0  0
   -4.9682   73.5350   13.3505 C   0  0  2  0  0  0  0  0  0  0  0  0
   -6.3248   72.8550   13.2033 C   0  0  2  0  0  0  0  0  0  0  0  0
   -7.1580   73.8023   12.5159 O   0  0  0  0  0  0  0  0  0  0  0  0
   -6.9474   72.5228   14.5659 C   0  0  1  0  0  0  0  0  0  0  0  0
   -8.1169   71.7150   14.4080 O   0  0  0  0  0  0  0  0  0  0  0  0
   -7.9871   73.2624   11.4741 C   0  0  1  0  0  0  0  0  0  0  0  0
   -7.9424   71.7380   11.5917 C   0  0  2  0  0  0  0  0  0  0  0  0
   -6.7817   71.2380   10.9235 O   0  0  0  0  0  0  0  0  0  0  0  0
   -9.1858   71.4033   10.7730 C   0  0  1  0  0  0  0  0  0  0  0  0
  -10.1674   72.4183   11.3373 C   0  0  2  0  0  0  0  0  0  0  0  0
   -9.3829   73.5950   11.6214 O   0  0  0  0  0  0  0  0  0  0  0  0
  -10.8113   71.8422   12.6037 C   0  0  0  0  0  0  0  0  0  0  0  0
  -12.1210   72.3856   12.7931 O   0  0  0  0  0  0  0  0  0  0  0  0
   -9.2210   70.4966    8.6108 C   0  0  2  0  0  0  0  0  0  0  0  0
   -8.9417   71.6740    9.3836 O   0  0  0  0  0  0  0  0  0  0  0  0
  -10.1119   70.8647    7.4200 C   0  0  1  0  0  0  0  0  0  0  0  0
  -10.9633   65.9896    9.0102 N   0  0  0  0  0  0  0  0  0  0  0  0
  -10.5064   69.6068    6.6386 C   0  0  1  0  0  0  0  0  0  0  0  0
   -9.3609   69.0466    5.9887 O   0  0  0  0  0  0  0  0  0  0  0  0
  -11.1200   68.5763    7.5903 C   0  0  2  0  0  0  0  0  0  0  0  0
  -12.3492   69.1030    8.1015 O   0  0  0  0  0  0  0  0  0  0  0  0
  -10.1480   68.2985    8.7420 C   0  0  1  0  0  0  0  0  0  0  0  0
   -9.8637   69.5201    9.4488 O   0  0  0  0  0  0  0  0  0  0  0  0
  -10.7085   67.2557    9.7129 C   0  0  0  0  0  0  0  0  0  0  0  0
  -11.3376   71.5003    7.9265 N   0  0  0  0  0  0  0  0  0  0  0  0
  1  2  1  1  0  0  0
  1  3  1  0  0  0  0
  1 10  1  0  0  0  0
  3  4  1  1  0  0  0
  3  5  1  0  0  0  0
  5  6  1  6  0  0  0
  5  7  1  0  0  0  0
  7  8  1  1  0  0  0
  7  9  1  0  0  0  0
  9 10  1  0  0  0  0
  9 11  1  6  0  0  0
 11 12  1  0  0  0  0
 13 14  1  1  0  0  0
 13 15  1  0  0  0  0
 13 21  1  0  0  0  0
 16 15  1  0  0  0  0
 16 17  1  1  0  0  0
 18  2  1  6  0  0  0
 18 16  1  0  0  0  0
 19 18  1  0  0  0  0
 19 20  1  1  0  0  0
 21 19  1  0  0  0  0
 21 22  1  6  0  0  0
 23 20  1  1  0  0  0
 23 24  1  0  0  0  0
 23 28  1  0  0  0  0
 24 25  1  6  0  0  0
 24 26  1  0  0  0  0
 26 27  1  0  0  0  0
 26 32  1  6  0  0  0
 27 28  1  0  0  0  0
 27 29  1  1  0  0  0
 29 30  1  0  0  0  0
 31 32  1  1  0  0  0
 31 40  1  0  0  0  0
 33 31  1  0  0  0  0
 33 42  1  1  0  0  0
 35 33  1  0  0  0  0
 35 36  1  1  0  0  0
 37 35  1  0  0  0  0
 37 38  1  1  0  0  0
 37 39  1  0  0  0  0
 39 40  1  0  0  0  0
 39 41  1  1  0  0  0
 41 34  1  0  0  0  0
M  END
>  <CHROM.1>
-173.84724575,-177.27904638,-132.52111474,136.99817784,11.45804703,125.43105563
-151.66983896,131.33323938,59.65349705,-6.87829532,72.33390124,11.26967942
-0.48153586,-0.52794411,-1.74673821

>  <Name>
2fcy_lig

>  <RI>
3.12105e+07

>  <Rbt.Current_Directory>
/home/afrankz/demos/rdock_decoys_rna/rnas/2fcy

>  <Rbt.Executable>
rbdock ($Id: //depot/dev/client3/rdock/2013.1/src/exe/rbdock.cxx#4 $)

>  <Rbt.Library>
libRbt.so (2013.1, Build901 2013/11/27)

>  <Rbt.Parameter_File>
/export/apps/rDock/src/rDock_2013.1_src/data/scripts/dock_solv.prm

>  <Rbt.Receptor>
prm/blind_docking_80.prm

>  <SCORE>
81.8984

>  <SCORE.INTER>
16.5096

>  <SCORE.INTER.CONST>
1

>  <SCORE.INTER.POLAR>
-0.438811

>  <SCORE.INTER.ROT>
9

>  <SCORE.INTER.SOLV>
31.414

>  <SCORE.INTER.VDW>
-7.60221

>  <SCORE.INTER.norm>
0.393086

>  <SCORE.INTRA>
17.7362

>  <SCORE.INTRA.DIHEDRAL>
17.2589

>  <SCORE.INTRA.DIHEDRAL.0>
17.3446

>  <SCORE.INTRA.POLAR>
0

>  <SCORE.INTRA.POLAR.0>
0

>  <SCORE.INTRA.REPUL>
0.00685013

>  <SCORE.INTRA.REPUL.0>
0

>  <SCORE.INTRA.SOLV>
0.726271

>  <SCORE.INTRA.SOLV.lig_0>
-112.452

>  <SCORE.INTRA.VDW>
8.70938

>  <SCORE.INTRA.VDW.0>
-5.95059

>  <SCORE.INTRA.norm>
0.42229

>  <SCORE.RESTR>
47.6526

>  <SCORE.RESTR.CAVITY>
47.6526

>  <SCORE.RESTR.norm>
1.13458

>  <SCORE.SYSTEM>
0

>  <SCORE.SYSTEM.CONST>
0

>  <SCORE.SYSTEM.DIHEDRAL>
0

>  <SCORE.SYSTEM.SOLV>
0

>  <SCORE.SYSTEM.norm>
0

>  <SCORE.heavy>
42

>  <SCORE.norm>
1.94996

>  <RMSD>
21.693

$$$$
2fcy_lig
 OpenBabel11021811433D
libRbt.so/2013.1/901 2013/11/27
 42 45  0  0  0  0  0  0  0  0999 V2000
   -7.6193   72.4584   15.4137 C   0  0  2  0  0  0  0  0  0  0  0  0
   -6.6086   73.4806   15.3846 O   0  0  0  0  0  0  0  0  0  0  0  0
   -8.4410   72.7339   16.6739 C   0  0  2  0  0  0  0  0  0  0  0  0
   -8.9225   74.1213   16.6285 N   0  0  0  0  0  0  0  0  0  0  0  0
   -7.5610   72.5409   17.9115 C   0  0  1  0  0  0  0  0  0  0  0  0
   -8.3099   72.7892   19.1045 O   0  0  0  0  0  0  0  0  0  0  0  0
   -6.9998   71.1187   17.9176 C   0  0  2  0  0  0  0  0  0  0  0  0
   -6.1037   70.9714   19.0189 O   0  0  0  0  0  0  0  0  0  0  0  0
   -6.2085   70.8958   16.6278 C   0  0  2  0  0  0  0  0  0  0  0  0
   -7.0599   71.1315   15.4956 O   0  0  0  0  0  0  0  0  0  0  0  0
   -5.6496   69.4706   16.6179 C   0  0  0  0  0  0  0  0  0  0  0  0
   -6.7342   68.4795   16.6802 N   0  0  0  0  0  0  0  0  0  0  0  0
   -3.6002   74.8572   12.7960 C   0  0  2  0  0  0  0  0  0  0  0  0
   -2.5954   75.0978   11.7494 N   0  0  0  0  0  0  0  0  0  0  0  0
   -3.3253   73.5383   13.5209 C   0  0  0  0  0  0  0  0  0  0  0  0
   -4.3194   73.4091   14.6795 C   0  0  2  0  0  0  0  0  0  0  0  0
   -4.1315   72.1080   15.3375 N   0  0  0  0  0  0  0  0  0  0  0  0
   -5.7755   73.4903   14.2119 C   0  0  2  0  0  0  0  0  0  0  0  0
   -6.0803   74.6574   13.2794 C   0  0  2  0  0  0  0  0  0  0  0  0
   -7.3388   74.3398   12.6634 O   0  0  0  0  0  0  0  0  0  0  0  0
   -5.0070   74.8160   12.1942 C   0  0  1  0  0  0  0  0  0  0  0  0
   -5.2035   76.0252   11.4565 O   0  0  0  0  0  0  0  0  0  0  0  0
   -7.4613   73.0039   12.1488 C   0  0  1  0  0  0  0  0  0  0  0  0
   -8.0533   73.1035   10.7419 C   0  0  2  0  0  0  0  0  0  0  0  0
   -9.4772   73.1994   10.8251 O   0  0  0  0  0  0  0  0  0  0  0  0
   -7.6646   71.7211   10.2259 C   0  0  1  0  0  0  0  0  0  0  0  0
   -6.2207   71.6482   10.6970 C   0  0  2  0  0  0  0  0  0  0  0  0
   -6.1932   72.3429   11.9609 O   0  0  0  0  0  0  0  0  0  0  0  0
   -5.3193   72.3216    9.6558 C   0  0  0  0  0  0  0  0  0  0  0  0
   -3.9538   72.2956   10.0815 O   0  0  0  0  0  0  0  0  0  0  0  0
   -9.2115   69.9869    9.9123 C   0  0  2  0  0  0  0  0  0  0  0  0
   -8.4497   70.7160   10.8868 O   0  0  0  0  0  0  0  0  0  0  0  0
   -8.4944   70.0369    8.5593 C   0  0  1  0  0  0  0  0  0  0  0  0
  -13.7387   69.4278    8.4028 N   0  0  0  0  0  0  0  0  0  0  0  0
   -9.3400   69.3516    7.4805 C   0  0  1  0  0  0  0  0  0  0  0  0
   -9.4108   67.9434    7.7255 O   0  0  0  0  0  0  0  0  0  0  0  0
  -10.7497   69.9490    7.4693 C   0  0  2  0  0  0  0  0  0  0  0  0
  -10.6609   71.3193    7.0643 O   0  0  0  0  0  0  0  0  0  0  0  0
  -11.3585   69.8542    8.8724 C   0  0  1  0  0  0  0  0  0  0  0  0
  -10.5284   70.5574    9.8154 O   0  0  0  0  0  0  0  0  0  0  0  0
  -12.7802   70.4212    8.9091 C   0  0  0  0  0  0  0  0  0  0  0  0
   -8.3058   71.4446    8.1771 N   0  0  0  0  0  0  0  0  0  0  0  0
  1  2  1  1  0  0  0
  1  3  1  0  0  0  0
  1 10  1  0  0  0  0
  3  4  1  6  0  0  0
  3  5  1  0  0  0  0
  5  6  1  1  0  0  0
  5  7  1  0  0  0  0
  7  8  1  1  0  0  0
  7  9  1  0  0  0  0
  9 10  1  0  0  0  0
  9 11  1  1  0  0  0
 11 12  1  0  0  0  0
 13 14  1  6  0  0  0
 13 15  1  0  0  0  0
 13 21  1  0  0  0  0
 16 15  1  0  0  0  0
 16 17  1  6  0  0  0
 18  2  1  1  0  0  0
 18 16  1  0  0  0  0
 19 18  1  0  0  0  0
 19 20  1  6  0  0  0
 21 19  1  0  0  0  0
 21 22  1  1  0  0  0
 23 20  1  6  0  0  0
 23 24  1  0  0  0  0
 23 28  1  0  0  0  0
 24 25  1  1  0  0  0
 24 26  1  0  0  0  0
 26 27  1  0  0  0  0
 26 32  1  1  0  0  0
 27 28  1  0  0  0  0
 27 29  1  6  0  0  0
 29 30  1  0  0  0  0
 31 32  1  1  0  0  0
 31 40  1  0  0  0  0
 33 31  1  0  0  0  0
 33 42  1  6  0  0  0
 35 33  1  0  0  0  0
 35 36  1  1  0  0  0
 37 35  1  0  0  0  0
 37 38  1  1  0  0  0
 37 39  1  0  0  0  0
 39 40  1  0  0  0  0
 39 41  1  6  0  0  0
 41 34  1  0  0  0  0
M  END
>  <CHROM.1>
-174.92605411,60.26897732,-125.09238362,-47.00694582,-133.19991417,119.84831989
178.79561309,26.34485635,80.62527689,-7.41493906,71.98154245,12.49545101
0.98931340,0.61010051,1.65538337

>  <Name>
2fcy_lig

>  <RI>
3.12105e+07

>  <Rbt.Current_Directory>
/home/afrankz/demos/rdock_decoys_rna/rnas/2fcy

>  <Rbt.Executable>
rbdock ($Id: //depot/dev/client3/rdock/2013.1/src/exe/rbdock.cxx#4 $)

>  <Rbt.Library>
libRbt.so (2013.1, Build901 2013/11/27)

>  <Rbt.Parameter_File>
/export/apps/rDock/src/rDock_2013.1_src/data/scripts/dock_solv.prm

>  <Rbt.Receptor>
prm/blind_docking_80.prm

>  <SCORE>
91.4719

>  <SCORE.INTER>
21.4111

>  <SCORE.INTER.CONST>
1

>  <SCORE.INTER.POLAR>
-0.554567

>  <SCORE.INTER.ROT>
9

>  <SCORE.INTER.SOLV>
28.4325

>  <SCORE.INTER.VDW>
-2.95491

>  <SCORE.INTER.norm>
0.509787

>  <SCORE.INTRA>
28.4269

>  <SCORE.INTRA.DIHEDRAL>
9.36987

>  <SCORE.INTRA.DIHEDRAL.0>
17.3446

>  <SCORE.INTRA.POLAR>
0

>  <SCORE.INTRA.POLAR.0>
0

>  <SCORE.INTRA.REPUL>
0

>  <SCORE.INTRA.REPUL.0>
0

>  <SCORE.INTRA.SOLV>
4.26834

>  <SCORE.INTRA.SOLV.lig_0>
-112.452

>  <SCORE.INTRA.VDW>
21.6078

>  <SCORE.INTRA.VDW.0>
-5.95059

>  <SCORE.INTRA.norm>
0.67683

>  <SCORE.RESTR>
41.6339

>  <SCORE.RESTR.CAVITY>
41.6339

>  <SCORE.RESTR.norm>
0.991284

>  <SCORE.SYSTEM>
0

>  <SCORE.SYSTEM.CONST>
0

>  <SCORE.SYSTEM.DIHEDRAL>
0

>  <SCORE.SYSTEM.SOLV>
0

>  <SCORE.SYSTEM.norm>
0

>  <SCORE.heavy>
42

>  <SCORE.norm>
2.1779

>  <RMSD>
21.707

$$$$
2fcy_lig
 OpenBabel11021811433D
libRbt.so/2013.1/901 2013/11/27
 42 45  0  0  0  0  0  0  0  0999 V2000
   -5.0262   73.0454   15.3462 C   0  0  2  0  0  0  0  0  0  0  0  0
   -5.0005   72.0812   14.2800 O   0  0  0  0  0  0  0  0  0  0  0  0
   -4.3843   72.3448   16.5446 C   0  0  2  0  0  0  0  0  0  0  0  0
   -3.0584   71.8518   16.1475 N   0  0  0  0  0  0  0  0  0  0  0  0
   -5.2579   71.1641   16.9760 C   0  0  1  0  0  0  0  0  0  0  0  0
   -4.6793   70.4947   18.0997 O   0  0  0  0  0  0  0  0  0  0  0  0
   -6.6601   71.6692   17.3171 C   0  0  2  0  0  0  0  0  0  0  0  0
   -7.4989   70.5561   17.6254 O   0  0  0  0  0  0  0  0  0  0  0  0
   -7.2405   72.3767   16.0916 C   0  0  2  0  0  0  0  0  0  0  0  0
   -6.3670   73.4458   15.6960 O   0  0  0  0  0  0  0  0  0  0  0  0
   -8.6417   72.8960   16.4245 C   0  0  0  0  0  0  0  0  0  0  0  0
   -8.6677   73.5254   17.7533 N   0  0  0  0  0  0  0  0  0  0  0  0
   -3.5764   74.7084   11.3277 C   0  0  2  0  0  0  0  0  0  0  0  0
   -3.2012   75.4482   10.1133 N   0  0  0  0  0  0  0  0  0  0  0  0
   -3.0512   73.2724   11.2737 C   0  0  0  0  0  0  0  0  0  0  0  0
   -3.3564   72.5971   12.6146 C   0  0  2  0  0  0  0  0  0  0  0  0
   -2.9388   71.1889   12.5550 N   0  0  0  0  0  0  0  0  0  0  0  0
   -4.8485   72.6279   12.9581 C   0  0  2  0  0  0  0  0  0  0  0  0
   -5.5092   73.9931   12.8030 C   0  0  2  0  0  0  0  0  0  0  0  0
   -6.9228   73.7371   12.7837 O   0  0  0  0  0  0  0  0  0  0  0  0
   -5.0977   74.6809   11.4946 C   0  0  1  0  0  0  0  0  0  0  0  0
   -5.5665   76.0315   11.4598 O   0  0  0  0  0  0  0  0  0  0  0  0
   -7.3675   72.7676   11.8211 C   0  0  1  0  0  0  0  0  0  0  0  0
   -8.6956   72.1963   12.3207 C   0  0  2  0  0  0  0  0  0  0  0  0
   -8.4451   71.1467   13.2583 O   0  0  0  0  0  0  0  0  0  0  0  0
   -9.2016   71.5997   11.0105 C   0  0  1  0  0  0  0  0  0  0  0  0
   -8.9054   72.7449   10.0550 C   0  0  2  0  0  0  0  0  0  0  0  0
   -7.6815   73.3389   10.5345 O   0  0  0  0  0  0  0  0  0  0  0  0
  -10.0726   73.7383   10.0864 C   0  0  0  0  0  0  0  0  0  0  0  0
  -10.6162   73.8332   11.4062 O   0  0  0  0  0  0  0  0  0  0  0  0
   -9.0905   69.6966    9.6451 C   0  0  2  0  0  0  0  0  0  0  0  0
   -8.4130   70.4508   10.6618 O   0  0  0  0  0  0  0  0  0  0  0  0
   -8.4054   69.9267    8.2943 C   0  0  1  0  0  0  0  0  0  0  0  0
  -13.5319   68.6672    8.1272 N   0  0  0  0  0  0  0  0  0  0  0  0
   -9.1731   69.2120    7.1770 C   0  0  1  0  0  0  0  0  0  0  0  0
   -9.0614   67.7931    7.3270 O   0  0  0  0  0  0  0  0  0  0  0  0
  -10.6472   69.6244    7.2147 C   0  0  2  0  0  0  0  0  0  0  0  0
  -10.7387   71.0185    6.9023 O   0  0  0  0  0  0  0  0  0  0  0  0
  -11.2184   69.3604    8.6119 C   0  0  1  0  0  0  0  0  0  0  0  0
  -10.4703   70.0998    9.5950 O   0  0  0  0  0  0  0  0  0  0  0  0
  -12.6998   69.7380    8.6954 C   0  0  0  0  0  0  0  0  0  0  0  0
   -8.4023   71.3691    8.0066 N   0  0  0  0  0  0  0  0  0  0  0  0
  1  2  1  6  0  0  0
  1  3  1  0  0  0  0
  1 10  1  0  0  0  0
  3  4  1  6  0  0  0
  3  5  1  0  0  0  0
  5  6  1  1  0  0  0
  5  7  1  0  0  0  0
  7  8  1  6  0  0  0
  7  9  1  0  0  0  0
  9 10  1  0  0  0  0
  9 11  1  1  0  0  0
 11 12  1  0  0  0  0
 13 14  1  6  0  0  0
 13 15  1  0  0  0  0
 13 21  1  0  0  0  0
 16 15  1  0  0  0  0
 16 17  1  6  0  0  0
 18  2  1  1  0  0  0
 18 16  1  0  0  0  0
 19 18  1  0  0  0  0
 19 20  1  6  0  0  0
 21 19  1  0  0  0  0
 21 22  1  1  0  0  0
 23 20  1  1  0  0  0
 23 24  1  0  0  0  0
 23 28  1  0  0  0  0
 24 25  1  1  0  0  0
 24 26  1  0  0  0  0
 26 27  1  0  0  0  0
 26 32  1  6  0  0  0
 27 28  1  0  0  0  0
 27 29  1  1  0  0  0
 29 30  1  0  0  0  0
 31 32  1  1  0  0  0
 31 40  1  0  0  0  0
 33 31  1  0  0  0  0
 33 42  1  6  0  0  0
 35 33  1  0  0  0  0
 35 36  1  1  0  0  0
 37 35  1  0  0  0  0
 37 38  1  1  0  0  0
 37 39  1  0  0  0  0
 39 40  1  0  0  0  0
 39 41  1  6  0  0  0
 41 34  1  0  0  0  0
M  END
>  <CHROM.1>
-147.64280906,43.68895941,94.53517868,-53.33819764,156.12560827,165.01785039
35.69685018,104.86645184,80.52746769,-7.39607924,71.95055498,12.11375094
-0.85122494,-0.52961942,-1.48321766

>  <Name>
2fcy_lig

>  <RI>
3.12105e+07

>  <Rbt.Current_Directory>
/home/afrankz/demos/rdock_decoys_rna/rnas/2fcy

>  <Rbt.Executable>
rbdock ($Id: //depot/dev/client3/rdock/2013.1/src/exe/rbdock.cxx#4 $)

>  <Rbt.Library>
libRbt.so (2013.1, Build901 2013/11/27)

>  <Rbt.Parameter_File>
/export/apps/rDock/src/rDock_2013.1_src/data/scripts/dock_solv.prm

>  <Rbt.Receptor>
prm/blind_docking_80.prm

>  <SCORE>
85.2258

>  <SCORE.INTER>
26.6691

>  <SCORE.INTER.CONST>
1

>  <SCORE.INTER.POLAR>
-0.49239

>  <SCORE.INTER.ROT>
9

>  <SCORE.INTER.SOLV>
28.7867

>  <SCORE.INTER.VDW>
0.22514

>  <SCORE.INTER.norm>
0.634979

>  <SCORE.INTRA>
12.5293

>  <SCORE.INTRA.DIHEDRAL>
5.40465

>  <SCORE.INTRA.DIHEDRAL.0>
17.3446

>  <SCORE.INTRA.POLAR>
0

>  <SCORE.INTRA.POLAR.0>
0

>  <SCORE.INTRA.REPUL>
0

>  <SCORE.INTRA.REPUL.0>
0

>  <SCORE.INTRA.SOLV>
1.36676

>  <SCORE.INTRA.SOLV.lig_0>
-112.452

>  <SCORE.INTRA.VDW>
9.14362

>  <SCORE.INTRA.VDW.0>
-5.95059

>  <SCORE.INTRA.norm>
0.298317

>  <SCORE.RESTR>
46.0273

>  <SCORE.RESTR.CAVITY>
46.0273

>  <SCORE.RESTR.norm>
1.09589

>  <SCORE.SYSTEM>
0

>  <SCORE.SYSTEM.CONST>
0

>  <SCORE.SYSTEM.DIHEDRAL>
0

>  <SCORE.SYSTEM.SOLV>
0

>  <SCORE.SYSTEM.norm>
0

>  <SCORE.heavy>
42

>  <SCORE.norm>
2.02919

>  <RMSD>
21.796

$$$$
2fcy_lig
 OpenBabel11021811433D
libRbt.so/2013.1/901 2013/11/27
 42 45  0  0  0  0  0  0  0  0999 V2000
   -6.6039   72.7063   16.0115 C   0  0  2  0  0  0  0  0  0  0  0  0
   -6.7741   73.7796   15.0700 O   0  0  0  0  0  0  0  0  0  0  0  0
   -7.3157   71.5033   15.3908 C   0  0  2  0  0  0  0  0  0  0  0  0
   -6.7725   71.2777   14.0444 N   0  0  0  0  0  0  0  0  0  0  0  0
   -8.8161   71.7906   15.2925 C   0  0  1  0  0  0  0  0  0  0  0  0
   -9.5047   70.6764   14.7180 O   0  0  0  0  0  0  0  0  0  0  0  0
   -9.3653   72.0994   16.6856 C   0  0  2  0  0  0  0  0  0  0  0  0
  -10.7421   72.4612   16.5788 O   0  0  0  0  0  0  0  0  0  0  0  0
   -8.6033   73.2937   17.2620 C   0  0  2  0  0  0  0  0  0  0  0  0
   -7.1985   72.9970   17.2931 O   0  0  0  0  0  0  0  0  0  0  0  0
   -9.1381   73.6062   18.6620 C   0  0  0  0  0  0  0  0  0  0  0  0
   -8.5208   72.7300   19.6689 N   0  0  0  0  0  0  0  0  0  0  0  0
   -3.6702   74.9693   12.5016 C   0  0  2  0  0  0  0  0  0  0  0  0
   -2.6387   75.1427   11.4677 N   0  0  0  0  0  0  0  0  0  0  0  0
   -3.4591   73.6610   13.2662 C   0  0  0  0  0  0  0  0  0  0  0  0
   -4.4774   73.6015   14.4093 C   0  0  2  0  0  0  0  0  0  0  0  0
   -4.3515   72.3126   15.1049 N   0  0  0  0  0  0  0  0  0  0  0  0
   -5.9209   73.7255   13.9130 C   0  0  2  0  0  0  0  0  0  0  0  0
   -6.1641   74.8775   12.9443 C   0  0  2  0  0  0  0  0  0  0  0  0
   -7.4230   74.5916   12.3139 O   0  0  0  0  0  0  0  0  0  0  0  0
   -5.0668   74.9654   11.8753 C   0  0  1  0  0  0  0  0  0  0  0  0
   -5.2035   76.1608   11.1023 O   0  0  0  0  0  0  0  0  0  0  0  0
   -7.5892   73.2472   11.8352 C   0  0  1  0  0  0  0  0  0  0  0  0
   -8.0431   73.3291   10.3768 C   0  0  2  0  0  0  0  0  0  0  0  0
   -9.4589   73.5203   10.3238 O   0  0  0  0  0  0  0  0  0  0  0  0
   -7.7044   71.9051    9.9457 C   0  0  1  0  0  0  0  0  0  0  0  0
   -6.3175   71.7575   10.5513 C   0  0  2  0  0  0  0  0  0  0  0  0
   -6.3573   72.4984   11.7883 O   0  0  0  0  0  0  0  0  0  0  0  0
   -5.2816   72.3293    9.5766 C   0  0  0  0  0  0  0  0  0  0  0  0
   -3.9756   72.3043   10.1597 O   0  0  0  0  0  0  0  0  0  0  0  0
   -9.1921   70.1344    9.5584 C   0  0  2  0  0  0  0  0  0  0  0  0
   -8.6128   70.9799   10.5639 O   0  0  0  0  0  0  0  0  0  0  0  0
   -9.6750   70.9916    8.3841 C   0  0  1  0  0  0  0  0  0  0  0  0
  -11.5604   67.3807   11.2735 N   0  0  0  0  0  0  0  0  0  0  0  0
  -10.3884   70.1208    7.3443 C   0  0  1  0  0  0  0  0  0  0  0  0
   -9.4543   69.2443    6.7059 O   0  0  0  0  0  0  0  0  0  0  0  0
  -11.4903   69.3018    8.0220 C   0  0  2  0  0  0  0  0  0  0  0  0
  -12.4914   70.2009    8.5108 O   0  0  0  0  0  0  0  0  0  0  0  0
  -10.8930   68.4991    9.1827 C   0  0  1  0  0  0  0  0  0  0  0  0
  -10.2819   69.3918   10.1327 O   0  0  0  0  0  0  0  0  0  0  0  0
  -11.9542   67.6449    9.8818 C   0  0  0  0  0  0  0  0  0  0  0  0
  -10.6308   71.9886    8.8895 N   0  0  0  0  0  0  0  0  0  0  0  0
  1  2  1  6  0  0  0
  1  3  1  0  0  0  0
  1 10  1  0  0  0  0
  3  4  1  6  0  0  0
  3  5  1  0  0  0  0
  5  6  1  1  0  0  0
  5  7  1  0  0  0  0
  7  8  1  6  0  0  0
  7  9  1  0  0  0  0
  9 10  1  0  0  0  0
  9 11  1  1  0  0  0
 11 12  1  0  0  0  0
 13 14  1  6  0  0  0
 13 15  1  0  0  0  0
 13 21  1  0  0  0  0
 16 15  1  0  0  0  0
 16 17  1  6  0  0  0
 18  2  1  1  0  0  0
 18 16  1  0  0  0  0
 19 18  1  0  0  0  0
 19 20  1  6  0  0  0
 21 19  1  0  0  0  0
 21 22  1  1  0  0  0
 23 20  1  6  0  0  0
 23 24  1  0  0  0  0
 23 28  1  0  0  0  0
 24 25  1  1  0  0  0
 24 26  1  0  0  0  0
 26 27  1  0  0  0  0
 26 32  1  1  0  0  0
 27 28  1  0  0  0  0
 27 29  1  6  0  0  0
 29 30  1  0  0  0  0
 31 32  1  1  0  0  0
 31 40  1  0  0  0  0
 33 31  1  0  0  0  0
 33 42  1  1  0  0  0
 35 33  1  0  0  0  0
 35 36  1  1  0  0  0
 37 35  1  0  0  0  0
 37 38  1  1  0  0  0
 37 39  1  0  0  0  0
 39 40  1  0  0  0  0
 39 41  1  1  0  0  0
 41 34  1  0  0  0  0
M  END
>  <CHROM.1>
-77.12584535,82.42672338,-53.42933701,-46.88892155,-128.67371646,127.90254768
175.37900714,-47.32342861,-154.60264413,-7.85666400,72.13542482,12.33486215
0.97794046,0.58619863,1.41391680

>  <Name>
2fcy_lig

>  <RI>
3.12105e+07

>  <Rbt.Current_Directory>
/home/afrankz/demos/rdock_decoys_rna/rnas/2fcy

>  <Rbt.Executable>
rbdock ($Id: //depot/dev/client3/rdock/2013.1/src/exe/rbdock.cxx#4 $)

>  <Rbt.Library>
libRbt.so (2013.1, Build901 2013/11/27)

>  <Rbt.Parameter_File>
/export/apps/rDock/src/rDock_2013.1_src/data/scripts/dock_solv.prm

>  <Rbt.Receptor>
prm/blind_docking_80.prm

>  <SCORE>
68.4518

>  <SCORE.INTER>
9.3927

>  <SCORE.INTER.CONST>
1

>  <SCORE.INTER.POLAR>
-0.403843

>  <SCORE.INTER.ROT>
9

>  <SCORE.INTER.SOLV>
21.6374

>  <SCORE.INTER.VDW>
-9.20451

>  <SCORE.INTER.norm>
0.223636

>  <SCORE.INTRA>
19.6071

>  <SCORE.INTRA.DIHEDRAL>
3.06536

>  <SCORE.INTRA.DIHEDRAL.0>
17.3446

>  <SCORE.INTRA.POLAR>
0

>  <SCORE.INTRA.POLAR.0>
0

>  <SCORE.INTRA.REPUL>
0.139762

>  <SCORE.INTRA.REPUL.0>
0

>  <SCORE.INTRA.SOLV>
8.37792

>  <SCORE.INTRA.SOLV.lig_0>
-112.452

>  <SCORE.INTRA.VDW>
13.1867

>  <SCORE.INTRA.VDW.0>
-5.95059

>  <SCORE.INTRA.norm>
0.466837

>  <SCORE.RESTR>
39.452

>  <SCORE.RESTR.CAVITY>
39.452

>  <SCORE.RESTR.norm>
0.939333

>  <SCORE.SYSTEM>
0

>  <SCORE.SYSTEM.CONST>
0

>  <SCORE.SYSTEM.DIHEDRAL>
0

>  <SCORE.SYSTEM.SOLV>
0

>  <SCORE.SYSTEM.norm>
0

>  <SCORE.heavy>
42

>  <SCORE.norm>
1.62981

>  <RMSD>
21.801

$$$$
2fcy_lig
 OpenBabel11021811433D
libRbt.so/2013.1/901 2013/11/27
 42 45  0  0  0  0  0  0  0  0999 V2000
   -7.7398   72.4887   15.5972 C   0  0  2  0  0  0  0  0  0  0  0  0
   -6.6742   73.4537   15.5783 O   0  0  0  0  0  0  0  0  0  0  0  0
   -8.5658   72.8183   16.8415 C   0  0  2  0  0  0  0  0  0  0  0  0
   -8.9694   74.2296   16.7788 N   0  0  0  0  0  0  0  0  0  0  0  0
   -7.7182   72.5868   18.0950 C   0  0  1  0  0  0  0  0  0  0  0  0
   -8.4718   72.8848   19.2735 O   0  0  0  0  0  0  0  0  0  0  0  0
   -7.2361   71.1360   18.1200 C   0  0  2  0  0  0  0  0  0  0  0  0
   -6.3677   70.9481   19.2372 O   0  0  0  0  0  0  0  0  0  0  0  0
   -6.4372   70.8603   16.8453 C   0  0  2  0  0  0  0  0  0  0  0  0
   -7.2556   71.1337   15.6973 O   0  0  0  0  0  0  0  0  0  0  0  0
   -5.9573   69.4066   16.8543 C   0  0  0  0  0  0  0  0  0  0  0  0
   -7.0945   68.4775   16.9333 N   0  0  0  0  0  0  0  0  0  0  0  0
   -3.3516   74.4249   13.1985 C   0  0  2  0  0  0  0  0  0  0  0  0
   -2.2620   74.5352   12.2168 N   0  0  0  0  0  0  0  0  0  0  0  0
   -3.3105   73.0692   13.9064 C   0  0  0  0  0  0  0  0  0  0  0  0
   -4.3803   73.0660   15.0031 C   0  0  2  0  0  0  0  0  0  0  0  0
   -4.4187   71.7415   15.6397 N   0  0  0  0  0  0  0  0  0  0  0  0
   -5.7795   73.3620   14.4555 C   0  0  2  0  0  0  0  0  0  0  0  0
   -5.8593   74.5748   13.5350 C   0  0  2  0  0  0  0  0  0  0  0  0
   -7.1110   74.4501   12.8410 O   0  0  0  0  0  0  0  0  0  0  0  0
   -4.7115   74.5947   12.5168 C   0  0  1  0  0  0  0  0  0  0  0  0
   -4.6898   75.8308   11.7979 O   0  0  0  0  0  0  0  0  0  0  0  0
   -7.3712   73.1664   12.2505 C   0  0  1  0  0  0  0  0  0  0  0  0
   -7.9568   73.4085   10.8584 C   0  0  2  0  0  0  0  0  0  0  0  0
   -9.3632   73.6428   10.9625 O   0  0  0  0  0  0  0  0  0  0  0  0
   -7.7131   72.0269   10.2582 C   0  0  1  0  0  0  0  0  0  0  0  0
   -6.2818   71.7806   10.7086 C   0  0  2  0  0  0  0  0  0  0  0  0
   -6.1777   72.3928   12.0105 O   0  0  0  0  0  0  0  0  0  0  0  0
   -5.3217   72.4199    9.6988 C   0  0  0  0  0  0  0  0  0  0  0  0
   -3.9664   72.2758   10.1334 O   0  0  0  0  0  0  0  0  0  0  0  0
   -9.2466   70.3018    9.8450 C   0  0  2  0  0  0  0  0  0  0  0  0
   -8.5930   71.0689   10.8676 O   0  0  0  0  0  0  0  0  0  0  0  0
   -9.5201   71.1947    8.6305 C   0  0  1  0  0  0  0  0  0  0  0  0
  -12.0161   67.6871   11.3358 N   0  0  0  0  0  0  0  0  0  0  0  0
  -10.3082   70.4232    7.5664 C   0  0  1  0  0  0  0  0  0  0  0  0
   -9.4954   69.3916    6.9977 O   0  0  0  0  0  0  0  0  0  0  0  0
  -11.5631   69.8100    8.1936 C   0  0  2  0  0  0  0  0  0  0  0  0
  -12.4301   70.8708    8.6088 O   0  0  0  0  0  0  0  0  0  0  0  0
  -11.1672   68.9521    9.4001 C   0  0  1  0  0  0  0  0  0  0  0  0
  -10.4716   69.7593   10.3683 O   0  0  0  0  0  0  0  0  0  0  0  0
  -12.3889   68.2982   10.0515 C   0  0  0  0  0  0  0  0  0  0  0  0
  -10.3276   72.3452    9.0633 N   0  0  0  0  0  0  0  0  0  0  0  0
  1  2  1  1  0  0  0
  1  3  1  0  0  0  0
  1 10  1  0  0  0  0
  3  4  1  6  0  0  0
  3  5  1  0  0  0  0
  5  6  1  1  0  0  0
  5  7  1  0  0  0  0
  7  8  1  1  0  0  0
  7  9  1  0  0  0  0
  9 10  1  0  0  0  0
  9 11  1  1  0  0  0
 11 12  1  0  0  0  0
 13 14  1  6  0  0  0
 13 15  1  0  0  0  0
 13 21  1  0  0  0  0
 16 15  1  0  0  0  0
 16 17  1  6  0  0  0
 18  2  1  1  0  0  0
 18 16  1  0  0  0  0
 19 18  1  0  0  0  0
 19 20  1  6  0  0  0
 21 19  1  0  0  0  0
 21 22  1  1  0  0  0
 23 20  1  6  0  0  0
 23 24  1  0  0  0  0
 23 28  1  0  0  0  0
 24 25  1  1  0  0  0
 24 26  1  0  0  0  0
 26 27  1  0  0  0  0
 26 32  1  1  0  0  0
 27 28  1  0  0  0  0
 27 29  1  6  0  0  0
 29 30  1  0  0  0  0
 31 32  1  1  0  0  0
 31 40  1  0  0  0  0
 33 31  1  0  0  0  0
 33 42  1  1  0  0  0
 35 33  1  0  0  0  0
 35 36  1  1  0  0  0
 37 35  1  0  0  0  0
 37 38  1  1  0  0  0
 37 39  1  0  0  0  0
 39 40  1  0  0  0  0
 39 41  1  1  0  0  0
 41 34  1  0  0  0  0
M  END
>  <CHROM.1>
-178.14116507,59.07927998,-118.69136705,-48.99799709,-137.02907538,130.68964377
176.56921805,-35.10009861,-169.76889338,-7.53566184,71.93819258,12.82288871
0.92678928,0.61167363,1.67908289

>  <Name>
2fcy_lig

>  <RI>
3.12105e+07

>  <Rbt.Current_Directory>
/home/afrankz/demos/rdock_decoys_rna/rnas/2fcy

>  <Rbt.Executable>
rbdock ($Id: //depot/dev/client3/rdock/2013.1/src/exe/rbdock.cxx#4 $)

>  <Rbt.Library>
libRbt.so (2013.1, Build901 2013/11/27)

>  <Rbt.Parameter_File>
/export/apps/rDock/src/rDock_2013.1_src/data/scripts/dock_solv.prm

>  <Rbt.Receptor>
prm/blind_docking_80.prm

>  <SCORE>
79.1883

>  <SCORE.INTER>
19.7113

>  <SCORE.INTER.CONST>
1

>  <SCORE.INTER.POLAR>
-0.25561

>  <SCORE.INTER.ROT>
9

>  <SCORE.INTER.SOLV>
23.5927

>  <SCORE.INTER.VDW>
-3.47136

>  <SCORE.INTER.norm>
0.469316

>  <SCORE.INTRA>
14.6006

>  <SCORE.INTRA.DIHEDRAL>
5.55006

>  <SCORE.INTRA.DIHEDRAL.0>
17.3446

>  <SCORE.INTRA.POLAR>
0

>  <SCORE.INTRA.POLAR.0>
0

>  <SCORE.INTRA.REPUL>
0

>  <SCORE.INTRA.REPUL.0>
0

>  <SCORE.INTRA.SOLV>
3.69343

>  <SCORE.INTRA.SOLV.lig_0>
-112.452

>  <SCORE.INTRA.VDW>
9.97888

>  <SCORE.INTRA.VDW.0>
-5.95059

>  <SCORE.INTRA.norm>
0.347634

>  <SCORE.RESTR>
44.8764

>  <SCORE.RESTR.CAVITY>
44.8764

>  <SCORE.RESTR.norm>
1.06849

>  <SCORE.SYSTEM>
0

>  <SCORE.SYSTEM.CONST>
0

>  <SCORE.SYSTEM.DIHEDRAL>
0

>  <SCORE.SYSTEM.SOLV>
0

>  <SCORE.SYSTEM.norm>
0

>  <SCORE.heavy>
42

>  <SCORE.norm>
1.88544

>  <RMSD>
21.812

$$$$
2fcy_lig
 OpenBabel11021811433D
libRbt.so/2013.1/901 2013/11/27
 42 45  0  0  0  0  0  0  0  0999 V2000
   -8.1200   72.5236   15.9130 C   0  0  2  0  0  0  0  0  0  0  0  0
   -7.1018   73.5190   15.7140 O   0  0  0  0  0  0  0  0  0  0  0  0
   -8.8556   72.9423   17.1868 C   0  0  2  0  0  0  0  0  0  0  0  0
   -9.3232   74.3260   17.0276 N   0  0  0  0  0  0  0  0  0  0  0  0
   -7.8999   72.8624   18.3799 C   0  0  1  0  0  0  0  0  0  0  0  0
   -8.5674   73.2459   19.5853 O   0  0  0  0  0  0  0  0  0  0  0  0
   -7.3555   71.4385   18.4987 C   0  0  2  0  0  0  0  0  0  0  0  0
   -6.3920   71.3896   19.5508 O   0  0  0  0  0  0  0  0  0  0  0  0
   -6.6516   71.0696   17.1919 C   0  0  2  0  0  0  0  0  0  0  0  0
   -7.5716   71.2023   16.0972 O   0  0  0  0  0  0  0  0  0  0  0  0
   -6.1107   69.6411   17.2954 C   0  0  0  0  0  0  0  0  0  0  0  0
   -5.0473   69.5531   18.3074 N   0  0  0  0  0  0  0  0  0  0  0  0
   -4.0036   74.3401   12.9986 C   0  0  2  0  0  0  0  0  0  0  0  0
   -3.0075   74.3920   11.9178 N   0  0  0  0  0  0  0  0  0  0  0  0
   -3.9080   73.0182   13.7631 C   0  0  0  0  0  0  0  0  0  0  0  0
   -4.8731   73.0783   14.9515 C   0  0  2  0  0  0  0  0  0  0  0  0
   -4.8630   71.7853   15.6507 N   0  0  0  0  0  0  0  0  0  0  0  0
   -6.3143   73.3649   14.5200 C   0  0  2  0  0  0  0  0  0  0  0  0
   -6.4688   74.5346   13.5544 C   0  0  2  0  0  0  0  0  0  0  0  0
   -7.7797   74.3926   12.9838 O   0  0  0  0  0  0  0  0  0  0  0  0
   -5.4188   74.4940   12.4362 C   0  0  1  0  0  0  0  0  0  0  0  0
   -5.4538   75.6951   11.6608 O   0  0  0  0  0  0  0  0  0  0  0  0
   -7.9353   73.3218   12.0386 C   0  0  1  0  0  0  0  0  0  0  0  0
   -7.7488   72.0062   12.7962 C   0  0  2  0  0  0  0  0  0  0  0  0
   -6.3552   71.7061   12.9029 O   0  0  0  0  0  0  0  0  0  0  0  0
   -8.3982   71.0617   11.7890 C   0  0  1  0  0  0  0  0  0  0  0  0
   -9.6553   71.8461   11.4480 C   0  0  2  0  0  0  0  0  0  0  0  0
   -9.2642   73.2341   11.4847 O   0  0  0  0  0  0  0  0  0  0  0  0
  -10.7393   71.5310   12.4852 C   0  0  0  0  0  0  0  0  0  0  0  0
  -11.6668   72.6153   12.5879 O   0  0  0  0  0  0  0  0  0  0  0  0
   -8.1413   69.9892    9.7196 C   0  0  2  0  0  0  0  0  0  0  0  0
   -7.5630   70.9402   10.6266 O   0  0  0  0  0  0  0  0  0  0  0  0
   -7.5905   70.2253    8.3096 C   0  0  1  0  0  0  0  0  0  0  0  0
  -12.1889   70.6570    8.7752 N   0  0  0  0  0  0  0  0  0  0  0  0
   -8.2704   69.2877    7.3061 C   0  0  1  0  0  0  0  0  0  0  0  0
   -7.8825   67.9321    7.5518 O   0  0  0  0  0  0  0  0  0  0  0  0
   -9.7914   69.4218    7.4194 C   0  0  2  0  0  0  0  0  0  0  0  0
  -10.1641   70.7429    7.0126 O   0  0  0  0  0  0  0  0  0  0  0  0
  -10.2216   69.1776    8.8698 C   0  0  1  0  0  0  0  0  0  0  0  0
   -9.5732   70.1243    9.7394 O   0  0  0  0  0  0  0  0  0  0  0  0
  -11.7407   69.2804    9.0317 C   0  0  0  0  0  0  0  0  0  0  0  0
   -7.8781   71.6131    7.9171 N   0  0  0  0  0  0  0  0  0  0  0  0
  1  2  1  1  0  0  0
  1  3  1  0  0  0  0
  1 10  1  0  0  0  0
  3  4  1  6  0  0  0
  3  5  1  0  0  0  0
  5  6  1  1  0  0  0
  5  7  1  0  0  0  0
  7  8  1  1  0  0  0
  7  9  1  0  0  0  0
  9 10  1  0  0  0  0
  9 11  1  1  0  0  0
 11 12  1  0  0  0  0
 13 14  1  6  0  0  0
 13 15  1  0  0  0  0
 13 21  1  0  0  0  0
 16 15  1  0  0  0  0
 16 17  1  6  0  0  0
 18  2  1  1  0  0  0
 18 16  1  0  0  0  0
 19 18  1  0  0  0  0
 19 20  1  6  0  0  0
 21 19  1  0  0  0  0
 21 22  1  1  0  0  0
 23 20  1  1  0  0  0
 23 24  1  0  0  0  0
 23 28  1  0  0  0  0
 24 25  1  6  0  0  0
 24 26  1  0  0  0  0
 26 27  1  0  0  0  0
 26 32  1  6  0  0  0
 27 28  1  0  0  0  0
 27 29  1  1  0  0  0
 29 30  1  0  0  0  0
 31 32  1  1  0  0  0
 31 40  1  0  0  0  0
 33 31  1  0  0  0  0
 33 42  1  6  0  0  0
 35 33  1  0  0  0  0
 35 36  1  1  0  0  0
 37 35  1  0  0  0  0
 37 38  1  1  0  0  0
 37 39  1  0  0  0  0
 39 40  1  0  0  0  0
 39 41  1  6  0  0  0
 41 34  1  0  0  0  0
M  END
>  <CHROM.1>
-177.05187964,-65.97563808,-115.33894183,-72.53904448,65.66866106,176.57866875
154.12944411,158.95642034,-65.88208326,-7.73259086,71.89867913,12.97414988
1.22433524,0.51990408,1.49746752

>  <Name>
2fcy_lig

>  <RI>
3.12105e+07

>  <Rbt.Current_Directory>
/home/afrankz/demos/rdock_decoys_rna/rnas/2fcy

>  <Rbt.Executable>
rbdock ($Id: //depot/dev/client3/rdock/2013.1/src/exe/rbdock.cxx#4 $)

>  <Rbt.Library>
libRbt.so (2013.1, Build901 2013/11/27)

>  <Rbt.Parameter_File>
/export/apps/rDock/src/rDock_2013.1_src/data/scripts/dock_solv.prm

>  <Rbt.Receptor>
prm/blind_docking_80.prm

>  <SCORE>
105.509

>  <SCORE.INTER>
45.599

>  <SCORE.INTER.CONST>
1

>  <SCORE.INTER.POLAR>
-0.0582773

>  <SCORE.INTER.ROT>
9

>  <SCORE.INTER.SOLV>
29.9999

>  <SCORE.INTER.VDW>
10.9936

>  <SCORE.INTER.norm>
1.08569

>  <SCORE.INTRA>
19.8452

>  <SCORE.INTRA.DIHEDRAL>
-4.64972

>  <SCORE.INTRA.DIHEDRAL.0>
17.3446

>  <SCORE.INTRA.POLAR>
0

>  <SCORE.INTRA.POLAR.0>
0

>  <SCORE.INTRA.REPUL>
0

>  <SCORE.INTRA.REPUL.0>
0

>  <SCORE.INTRA.SOLV>
5.90997

>  <SCORE.INTRA.SOLV.lig_0>
-112.452

>  <SCORE.INTRA.VDW>
19.2151

>  <SCORE.INTRA.VDW.0>
-5.95059

>  <SCORE.INTRA.norm>
0.472506

>  <SCORE.RESTR>
40.0648

>  <SCORE.RESTR.CAVITY>
40.0648

>  <SCORE.RESTR.norm>
0.953925

>  <SCORE.SYSTEM>
0

>  <SCORE.SYSTEM.CONST>
0

>  <SCORE.SYSTEM.DIHEDRAL>
0

>  <SCORE.SYSTEM.SOLV>
0

>  <SCORE.SYSTEM.norm>
0

>  <SCORE.heavy>
42

>  <SCORE.norm>
2.51212

>  <RMSD>
21.887

$$$$
2fcy_lig
 OpenBabel11021811433D
libRbt.so/2013.1/901 2013/11/27
 42 45  0  0  0  0  0  0  0  0999 V2000
   -5.0251   74.6296   12.0903 C   0  0  2  0  0  0  0  0  0  0  0  0
   -4.7722   73.2879   12.5410 O   0  0  0  0  0  0  0  0  0  0  0  0
   -5.1031   74.5392   10.5656 C   0  0  2  0  0  0  0  0  0  0  0  0
   -6.1105   73.5325   10.2042 N   0  0  0  0  0  0  0  0  0  0  0  0
   -3.7411   74.1192   10.0070 C   0  0  1  0  0  0  0  0  0  0  0  0
   -3.7882   74.0319    8.5802 O   0  0  0  0  0  0  0  0  0  0  0  0
   -2.6799   75.1281   10.4473 C   0  0  2  0  0  0  0  0  0  0  0  0
   -1.3969   74.6832   10.0073 O   0  0  0  0  0  0  0  0  0  0  0  0
   -2.6632   75.1903   11.9753 C   0  0  2  0  0  0  0  0  0  0  0  0
   -3.9699   75.5426   12.4557 O   0  0  0  0  0  0  0  0  0  0  0  0
   -1.6104   76.2054   12.4281 C   0  0  0  0  0  0  0  0  0  0  0  0
   -1.6243   76.3613   13.8904 N   0  0  0  0  0  0  0  0  0  0  0  0
   -4.8386   71.1388   16.1498 C   0  0  2  0  0  0  0  0  0  0  0  0
   -4.9655   70.6263   17.5225 N   0  0  0  0  0  0  0  0  0  0  0  0
   -3.9520   72.3852   16.1145 C   0  0  0  0  0  0  0  0  0  0  0  0
   -3.7504   72.7916   14.6511 C   0  0  2  0  0  0  0  0  0  0  0  0
   -2.9734   74.0383   14.5962 N   0  0  0  0  0  0  0  0  0  0  0  0
   -5.0762   73.0348   13.9241 C   0  0  2  0  0  0  0  0  0  0  0  0
   -6.1150   71.9344   14.1097 C   0  0  2  0  0  0  0  0  0  0  0  0
   -7.3656   72.5125   13.7026 O   0  0  0  0  0  0  0  0  0  0  0  0
   -6.2138   71.4839   15.5732 C   0  0  1  0  0  0  0  0  0  0  0  0
   -7.0430   70.3251   15.6945 O   0  0  0  0  0  0  0  0  0  0  0  0
   -7.9693   71.9331   12.5346 C   0  0  1  0  0  0  0  0  0  0  0  0
   -8.5974   70.6022   12.9514 C   0  0  2  0  0  0  0  0  0  0  0  0
   -7.6014   69.5767   12.9422 O   0  0  0  0  0  0  0  0  0  0  0  0
   -9.5406   70.4075   11.7678 C   0  0  1  0  0  0  0  0  0  0  0  0
  -10.1381   71.8016   11.6608 C   0  0  2  0  0  0  0  0  0  0  0  0
   -9.0712   72.7054   12.0153 O   0  0  0  0  0  0  0  0  0  0  0  0
  -11.3249   71.9135   12.6248 C   0  0  0  0  0  0  0  0  0  0  0  0
  -12.3066   70.9154   12.3309 O   0  0  0  0  0  0  0  0  0  0  0  0
   -9.6781   69.7370    9.5250 C   0  0  2  0  0  0  0  0  0  0  0  0
   -8.7828   70.1043   10.5858 O   0  0  0  0  0  0  0  0  0  0  0  0
   -9.1953   70.3565    8.2096 C   0  0  1  0  0  0  0  0  0  0  0  0
  -14.3522   69.9099    8.2384 N   0  0  0  0  0  0  0  0  0  0  0  0
  -10.1914   70.0620    7.0828 C   0  0  1  0  0  0  0  0  0  0  0  0
  -10.1886   68.6653    6.7703 O   0  0  0  0  0  0  0  0  0  0  0  0
  -11.5970   70.4972    7.5063 C   0  0  2  0  0  0  0  0  0  0  0  0
  -11.6076   71.9210    7.6557 O   0  0  0  0  0  0  0  0  0  0  0  0
  -11.9636   69.8266    8.8345 C   0  0  1  0  0  0  0  0  0  0  0  0
  -11.0056   70.1878    9.8467 O   0  0  0  0  0  0  0  0  0  0  0  0
  -13.3724   70.2148    9.2915 C   0  0  0  0  0  0  0  0  0  0  0  0
   -9.1046   71.8145    8.3800 N   0  0  0  0  0  0  0  0  0  0  0  0
  1  2  1  1  0  0  0
  1  3  1  0  0  0  0
  1 10  1  0  0  0  0
  3  4  1  1  0  0  0
  3  5  1  0  0  0  0
  5  6  1  6  0  0  0
  5  7  1  0  0  0  0
  7  8  1  1  0  0  0
  7  9  1  0  0  0  0
  9 10  1  0  0  0  0
  9 11  1  6  0  0  0
 11 12  1  0  0  0  0
 13 14  1  1  0  0  0
 13 15  1  0  0  0  0
 13 21  1  0  0  0  0
 16 15  1  0  0  0  0
 16 17  1  1  0  0  0
 18  2  1  6  0  0  0
 18 16  1  0  0  0  0
 19 18  1  0  0  0  0
 19 20  1  1  0  0  0
 21 19  1  0  0  0  0
 21 22  1  6  0  0  0
 23 20  1  1  0  0  0
 23 24  1  0  0  0  0
 23 28  1  0  0  0  0
 24 25  1  6  0  0  0
 24 26  1  0  0  0  0
 26 27  1  0  0  0  0
 26 32  1  6  0  0  0
 27 28  1  0  0  0  0
 27 29  1  1  0  0  0
 29 30  1  0  0  0  0
 31 32  1  1  0  0  0
 31 40  1  0  0  0  0
 33 31  1  0  0  0  0
 33 42  1  1  0  0  0
 35 33  1  0  0  0  0
 35 36  1  1  0  0  0
 37 35  1  0  0  0  0
 37 38  1  1  0  0  0
 37 39  1  0  0  0  0
 39 40  1  0  0  0  0
 39 41  1  1  0  0  0
 41 34  1  0  0  0  0
M  END
>  <CHROM.1>
-160.94727886,176.22726562,-111.81475578,114.65320880,76.47579982,171.88267965
-57.88516973,139.53565366,55.16433579,-7.22152593,72.14990979,11.60100242
-0.32111121,-0.52719603,-1.32555217

>  <Name>
2fcy_lig

>  <RI>
3.12105e+07

>  <Rbt.Current_Directory>
/home/afrankz/demos/rdock_decoys_rna/rnas/2fcy

>  <Rbt.Executable>
rbdock ($Id: //depot/dev/client3/rdock/2013.1/src/exe/rbdock.cxx#4 $)

>  <Rbt.Library>
libRbt.so (2013.1, Build901 2013/11/27)

>  <Rbt.Parameter_File>
/export/apps/rDock/src/rDock_2013.1_src/data/scripts/dock_solv.prm

>  <Rbt.Receptor>
prm/blind_docking_80.prm

>  <SCORE>
99.5997

>  <SCORE.INTER>
41.8971

>  <SCORE.INTER.CONST>
1

>  <SCORE.INTER.POLAR>
-0.57943

>  <SCORE.INTER.ROT>
9

>  <SCORE.INTER.SOLV>
28.4135

>  <SCORE.INTER.VDW>
10.7916

>  <SCORE.INTER.norm>
0.99755

>  <SCORE.INTRA>
9.72699

>  <SCORE.INTRA.DIHEDRAL>
5.69038

>  <SCORE.INTRA.DIHEDRAL.0>
17.3446

>  <SCORE.INTRA.POLAR>
0

>  <SCORE.INTRA.POLAR.0>
0

>  <SCORE.INTRA.REPUL>
0.0940034

>  <SCORE.INTRA.REPUL.0>
0

>  <SCORE.INTRA.SOLV>
4.18711

>  <SCORE.INTRA.SOLV.lig_0>
-112.452

>  <SCORE.INTRA.VDW>
4.31823

>  <SCORE.INTRA.VDW.0>
-5.95059

>  <SCORE.INTRA.norm>
0.231595

>  <SCORE.RESTR>
47.9756

>  <SCORE.RESTR.CAVITY>
47.9756

>  <SCORE.RESTR.norm>
1.14228

>  <SCORE.SYSTEM>
0

>  <SCORE.SYSTEM.CONST>
0

>  <SCORE.SYSTEM.DIHEDRAL>
0

>  <SCORE.SYSTEM.SOLV>
0

>  <SCORE.SYSTEM.norm>
0

>  <SCORE.heavy>
42

>  <SCORE.norm>
2.37142

>  <RMSD>
21.894

$$$$
2fcy_lig
 OpenBabel11021811433D
libRbt.so/2013.1/901 2013/11/27
 42 45  0  0  0  0  0  0  0  0999 V2000
   -6.3845   72.3016   10.7675 C   0  0  2  0  0  0  0  0  0  0  0  0
   -5.6362   73.1777    9.9075 O   0  0  0  0  0  0  0  0  0  0  0  0
   -6.4429   70.9616   10.0327 C   0  0  2  0  0  0  0  0  0  0  0  0
   -5.0724   70.5404    9.7113 N   0  0  0  0  0  0  0  0  0  0  0  0
   -7.2427   71.1222    8.7374 C   0  0  1  0  0  0  0  0  0  0  0  0
   -7.3148   69.8791    8.0337 O   0  0  0  0  0  0  0  0  0  0  0  0
   -8.6455   71.6328    9.0680 C   0  0  2  0  0  0  0  0  0  0  0  0
   -9.3566   71.8736    7.8539 O   0  0  0  0  0  0  0  0  0  0  0  0
   -8.5226   72.9599    9.8182 C   0  0  2  0  0  0  0  0  0  0  0  0
   -7.7282   72.7716   10.9997 O   0  0  0  0  0  0  0  0  0  0  0  0
   -9.9218   73.4764   10.1636 C   0  0  0  0  0  0  0  0  0  0  0  0
  -10.2592   73.1849   11.5650 N   0  0  0  0  0  0  0  0  0  0  0  0
   -2.5592   74.9110   12.1823 C   0  0  2  0  0  0  0  0  0  0  0  0
   -1.6034   75.7632   12.9056 N   0  0  0  0  0  0  0  0  0  0  0  0
   -2.5993   75.2778   10.6974 C   0  0  0  0  0  0  0  0  0  0  0  0
   -3.5068   74.2749    9.9779 C   0  0  2  0  0  0  0  0  0  0  0  0
   -3.6305   74.6594    8.5644 N   0  0  0  0  0  0  0  0  0  0  0  0
   -4.9164   74.2295   10.5748 C   0  0  2  0  0  0  0  0  0  0  0  0
   -4.9607   74.1052   12.0937 C   0  0  2  0  0  0  0  0  0  0  0  0
   -6.2985   74.4682   12.4712 O   0  0  0  0  0  0  0  0  0  0  0  0
   -3.9640   75.0537   12.7731 C   0  0  1  0  0  0  0  0  0  0  0  0
   -3.8790   74.7842   14.1749 O   0  0  0  0  0  0  0  0  0  0  0  0
   -6.7592   73.9351   13.7233 C   0  0  1  0  0  0  0  0  0  0  0  0
   -6.7104   72.4097   13.6218 C   0  0  2  0  0  0  0  0  0  0  0  0
   -7.8975   71.9320   12.9846 O   0  0  0  0  0  0  0  0  0  0  0  0
   -6.7599   72.0742   15.1096 C   0  0  1  0  0  0  0  0  0  0  0  0
   -5.7459   73.0704   15.6495 C   0  0  2  0  0  0  0  0  0  0  0  0
   -5.8948   74.2508   14.8340 O   0  0  0  0  0  0  0  0  0  0  0  0
   -4.3407   72.4688   15.5316 C   0  0  0  0  0  0  0  0  0  0  0  0
   -4.2480   71.2572   16.2865 O   0  0  0  0  0  0  0  0  0  0  0  0
   -7.9556   72.7309   17.0168 C   0  0  2  0  0  0  0  0  0  0  0  0
   -8.0654   72.3681   15.6320 O   0  0  0  0  0  0  0  0  0  0  0  0
   -7.9331   71.4641   17.8781 C   0  0  1  0  0  0  0  0  0  0  0  0
  -11.4033   74.4898   18.5075 N   0  0  0  0  0  0  0  0  0  0  0  0
   -7.9189   71.8297   19.3663 C   0  0  1  0  0  0  0  0  0  0  0  0
   -6.6749   72.4458   19.7142 O   0  0  0  0  0  0  0  0  0  0  0  0
   -9.0761   72.7830   19.6771 C   0  0  2  0  0  0  0  0  0  0  0  0
  -10.3092   72.0851   19.4725 O   0  0  0  0  0  0  0  0  0  0  0  0
   -9.0013   74.0006   18.7497 C   0  0  1  0  0  0  0  0  0  0  0  0
   -9.0637   73.5748   17.3758 O   0  0  0  0  0  0  0  0  0  0  0  0
  -10.1283   74.9967   19.0358 C   0  0  0  0  0  0  0  0  0  0  0  0
   -9.1496   70.6848   17.6029 N   0  0  0  0  0  0  0  0  0  0  0  0
  1  2  1  6  0  0  0
  1  3  1  0  0  0  0
  1 10  1  0  0  0  0
  3  4  1  6  0  0  0
  3  5  1  0  0  0  0
  5  6  1  1  0  0  0
  5  7  1  0  0  0  0
  7  8  1  6  0  0  0
  7  9  1  0  0  0  0
  9 10  1  0  0  0  0
  9 11  1  1  0  0  0
 11 12  1  0  0  0  0
 13 14  1  1  0  0  0
 13 15  1  0  0  0  0
 13 21  1  0  0  0  0
 16 15  1  0  0  0  0
 16 17  1  6  0  0  0
 18  2  1  6  0  0  0
 18 16  1  0  0  0  0
 19 18  1  0  0  0  0
 19 20  1  1  0  0  0
 21 19  1  0  0  0  0
 21 22  1  1  0  0  0
 23 20  1  6  0  0  0
 23 24  1  0  0  0  0
 23 28  1  0  0  0  0
 24 25  1  6  0  0  0
 24 26  1  0  0  0  0
 26 27  1  0  0  0  0
 26 32  1  1  0  0  0
 27 28  1  0  0  0  0
 27 29  1  6  0  0  0
 29 30  1  0  0  0  0
 31 32  1  6  0  0  0
 31 40  1  0  0  0  0
 33 31  1  0  0  0  0
 33 42  1  1  0  0  0
 35 33  1  0  0  0  0
 35 36  1  6  0  0  0
 37 35  1  0  0  0  0
 37 38  1  6  0  0  0
 37 39  1  0  0  0  0
 39 40  1  0  0  0  0
 39 41  1  1  0  0  0
 41 34  1  0  0  0  0
M  END
>  <CHROM.1>
-151.92416335,100.38147947,134.24835889,155.75936140,-59.95073986,-150.15921515
-60.25447710,-84.22234041,-74.94967726,-6.81743830,72.99435586,13.60410813
1.23540068,-0.36572469,-1.68623302

>  <Name>
2fcy_lig

>  <RI>
3.12105e+07

>  <Rbt.Current_Directory>
/home/afrankz/demos/rdock_decoys_rna/rnas/2fcy

>  <Rbt.Executable>
rbdock ($Id: //depot/dev/client3/rdock/2013.1/src/exe/rbdock.cxx#4 $)

>  <Rbt.Library>
libRbt.so (2013.1, Build901 2013/11/27)

>  <Rbt.Parameter_File>
/export/apps/rDock/src/rDock_2013.1_src/data/scripts/dock_solv.prm

>  <Rbt.Receptor>
prm/blind_docking_80.prm

>  <SCORE>
75.0888

>  <SCORE.INTER>
16.1382

>  <SCORE.INTER.CONST>
1

>  <SCORE.INTER.POLAR>
-1.27604

>  <SCORE.INTER.ROT>
9

>  <SCORE.INTER.SOLV>
31.3503

>  <SCORE.INTER.VDW>
-5.0378

>  <SCORE.INTER.norm>
0.384243

>  <SCORE.INTRA>
21.8033

>  <SCORE.INTRA.DIHEDRAL>
5.5493

>  <SCORE.INTRA.DIHEDRAL.0>
17.3446

>  <SCORE.INTRA.POLAR>
0

>  <SCORE.INTRA.POLAR.0>
0

>  <SCORE.INTRA.REPUL>
0

>  <SCORE.INTRA.REPUL.0>
0

>  <SCORE.INTRA.SOLV>
0.949056

>  <SCORE.INTRA.SOLV.lig_0>
-112.452

>  <SCORE.INTRA.VDW>
18.5541

>  <SCORE.INTRA.VDW.0>
-5.95059

>  <SCORE.INTRA.norm>
0.519125

>  <SCORE.RESTR>
37.1473

>  <SCORE.RESTR.CAVITY>
37.1473

>  <SCORE.RESTR.norm>
0.884459

>  <SCORE.SYSTEM>
0

>  <SCORE.SYSTEM.CONST>
0

>  <SCORE.SYSTEM.DIHEDRAL>
0

>  <SCORE.SYSTEM.SOLV>
0

>  <SCORE.SYSTEM.norm>
0

>  <SCORE.heavy>
42

>  <SCORE.norm>
1.78783

>  <RMSD>
21.910

$$$$
2fcy_lig
 OpenBabel11021811433D
libRbt.so/2013.1/901 2013/11/27
 42 45  0  0  0  0  0  0  0  0999 V2000
   -5.9304   73.8812   14.0913 C   0  0  2  0  0  0  0  0  0  0  0  0
   -4.8988   72.9415   13.7449 O   0  0  0  0  0  0  0  0  0  0  0  0
   -6.7830   73.1785   15.1488 C   0  0  2  0  0  0  0  0  0  0  0  0
   -5.9081   72.7419   16.2455 N   0  0  0  0  0  0  0  0  0  0  0  0
   -7.4671   71.9583   14.5273 C   0  0  1  0  0  0  0  0  0  0  0  0
   -8.2748   71.2861   15.4976 O   0  0  0  0  0  0  0  0  0  0  0  0
   -8.3186   72.4054   13.3386 C   0  0  2  0  0  0  0  0  0  0  0  0
   -8.8779   71.2565   12.7022 O   0  0  0  0  0  0  0  0  0  0  0  0
   -7.4184   73.1177   12.3280 C   0  0  2  0  0  0  0  0  0  0  0  0
   -6.7638   74.2256   12.9656 O   0  0  0  0  0  0  0  0  0  0  0  0
   -8.2623   73.5791   11.1370 C   0  0  0  0  0  0  0  0  0  0  0  0
   -9.6975   73.5061   11.4492 N   0  0  0  0  0  0  0  0  0  0  0  0
   -3.3050   75.5144   10.8317 C   0  0  2  0  0  0  0  0  0  0  0  0
   -2.5289   76.2344    9.8108 N   0  0  0  0  0  0  0  0  0  0  0  0
   -2.4955   75.3588   12.1207 C   0  0  0  0  0  0  0  0  0  0  0  0
   -3.3987   74.7239   13.1829 C   0  0  2  0  0  0  0  0  0  0  0  0
   -2.6168   74.4841   14.4044 N   0  0  0  0  0  0  0  0  0  0  0  0
   -3.9800   73.3816   12.7292 C   0  0  2  0  0  0  0  0  0  0  0  0
   -4.5998   73.3947   11.3363 C   0  0  2  0  0  0  0  0  0  0  0  0
   -4.7190   72.0148   10.9547 O   0  0  0  0  0  0  0  0  0  0  0  0
   -3.7114   74.1291   10.3234 C   0  0  1  0  0  0  0  0  0  0  0  0
   -4.3940   74.3021    9.0787 O   0  0  0  0  0  0  0  0  0  0  0  0
   -6.0432   71.5751   10.6120 C   0  0  1  0  0  0  0  0  0  0  0  0
   -6.3045   71.9836    9.1613 C   0  0  2  0  0  0  0  0  0  0  0  0
   -6.7468   73.3423    9.1166 O   0  0  0  0  0  0  0  0  0  0  0  0
   -7.4784   71.0551    8.8642 C   0  0  1  0  0  0  0  0  0  0  0  0
   -6.9564   69.7550    9.4552 C   0  0  2  0  0  0  0  0  0  0  0  0
   -6.1899   70.1402   10.6149 O   0  0  0  0  0  0  0  0  0  0  0  0
   -6.0908   69.0415    8.4102 C   0  0  0  0  0  0  0  0  0  0  0  0
   -6.7896   68.9361    7.1664 O   0  0  0  0  0  0  0  0  0  0  0  0
   -9.8229   71.0447    8.9062 C   0  0  2  0  0  0  0  0  0  0  0  0
   -8.6405   71.4928    9.5864 O   0  0  0  0  0  0  0  0  0  0  0  0
  -10.8312   70.5112    9.9289 C   0  0  1  0  0  0  0  0  0  0  0  0
  -11.2816   68.1798    5.2829 N   0  0  0  0  0  0  0  0  0  0  0  0
  -12.0595   69.9338    9.2174 C   0  0  1  0  0  0  0  0  0  0  0  0
  -12.8046   70.9798    8.5859 O   0  0  0  0  0  0  0  0  0  0  0  0
  -11.6178   68.9059    8.1721 C   0  0  2  0  0  0  0  0  0  0  0  0
  -11.0184   67.7959    8.8491 O   0  0  0  0  0  0  0  0  0  0  0  0
  -10.6059   69.5476    7.2169 C   0  0  1  0  0  0  0  0  0  0  0  0
   -9.4668   70.0240    7.9574 O   0  0  0  0  0  0  0  0  0  0  0  0
  -10.1480   68.5633    6.1371 C   0  0  0  0  0  0  0  0  0  0  0  0
  -10.1938   69.4348   10.7024 N   0  0  0  0  0  0  0  0  0  0  0  0
  1  2  1  6  0  0  0
  1  3  1  0  0  0  0
  1 10  1  0  0  0  0
  3  4  1  1  0  0  0
  3  5  1  0  0  0  0
  5  6  1  1  0  0  0
  5  7  1  0  0  0  0
  7  8  1  6  0  0  0
  7  9  1  0  0  0  0
  9 10  1  0  0  0  0
  9 11  1  6  0  0  0
 11 12  1  0  0  0  0
 13 14  1  6  0  0  0
 13 15  1  0  0  0  0
 13 21  1  0  0  0  0
 16 15  1  0  0  0  0
 16 17  1  1  0  0  0
 18  2  1  1  0  0  0
 18 16  1  0  0  0  0
 19 18  1  0  0  0  0
 19 20  1  6  0  0  0
 21 19  1  0  0  0  0
 21 22  1  6  0  0  0
 23 20  1  6  0  0  0
 23 24  1  0  0  0  0
 23 28  1  0  0  0  0
 24 25  1  1  0  0  0
 24 26  1  0  0  0  0
 26 27  1  0  0  0  0
 26 32  1  1  0  0  0
 27 28  1  0  0  0  0
 27 29  1  6  0  0  0
 29 30  1  0  0  0  0
 31 32  1  1  0  0  0
 31 40  1  0  0  0  0
 33 31  1  0  0  0  0
 33 42  1  6  0  0  0
 35 33  1  0  0  0  0
 35 36  1  6  0  0  0
 37 35  1  0  0  0  0
 37 38  1  1  0  0  0
 37 39  1  0  0  0  0
 39 40  1  0  0  0  0
 39 41  1  6  0  0  0
 41 34  1  0  0  0  0
M  END
>  <CHROM.1>
178.68815018,13.82148509,54.44659637,123.07004165,81.87504727,154.81775847
-50.95895087,137.05620065,63.89108266,-7.29175668,71.87491392,10.74075059
0.70495959,0.49781857,1.30847356

>  <Name>
2fcy_lig

>  <RI>
3.12105e+07

>  <Rbt.Current_Directory>
/home/afrankz/demos/rdock_decoys_rna/rnas/2fcy

>  <Rbt.Executable>
rbdock ($Id: //depot/dev/client3/rdock/2013.1/src/exe/rbdock.cxx#4 $)

>  <Rbt.Library>
libRbt.so (2013.1, Build901 2013/11/27)

>  <Rbt.Parameter_File>
/export/apps/rDock/src/rDock_2013.1_src/data/scripts/dock_solv.prm

>  <Rbt.Receptor>
prm/blind_docking_80.prm

>  <SCORE>
97.631

>  <SCORE.INTER>
38.2278

>  <SCORE.INTER.CONST>
1

>  <SCORE.INTER.POLAR>
-0.0085727

>  <SCORE.INTER.ROT>
9

>  <SCORE.INTER.SOLV>
27.8885

>  <SCORE.INTER.VDW>
6.61758

>  <SCORE.INTER.norm>
0.910185

>  <SCORE.INTRA>
16.3044

>  <SCORE.INTRA.DIHEDRAL>
5.91634

>  <SCORE.INTRA.DIHEDRAL.0>
17.3446

>  <SCORE.INTRA.POLAR>
0

>  <SCORE.INTRA.POLAR.0>
0

>  <SCORE.INTRA.REPUL>
0

>  <SCORE.INTRA.REPUL.0>
0

>  <SCORE.INTRA.SOLV>
5.08008

>  <SCORE.INTRA.SOLV.lig_0>
-112.452

>  <SCORE.INTRA.VDW>
10.8062

>  <SCORE.INTRA.VDW.0>
-5.95059

>  <SCORE.INTRA.norm>
0.3882

>  <SCORE.RESTR>
43.0988

>  <SCORE.RESTR.CAVITY>
43.0988

>  <SCORE.RESTR.norm>
1.02616

>  <SCORE.SYSTEM>
0

>  <SCORE.SYSTEM.CONST>
0

>  <SCORE.SYSTEM.DIHEDRAL>
0

>  <SCORE.SYSTEM.SOLV>
0

>  <SCORE.SYSTEM.norm>
0

>  <SCORE.heavy>
42

>  <SCORE.norm>
2.32455

>  <RMSD>
21.923

$$$$
2fcy_lig
 OpenBabel11021811433D
libRbt.so/2013.1/901 2013/11/27
 42 45  0  0  0  0  0  0  0  0999 V2000
   -6.4424   72.2646   10.8058 C   0  0  2  0  0  0  0  0  0  0  0  0
   -6.4312   73.4954   10.0627 O   0  0  0  0  0  0  0  0  0  0  0  0
   -6.1273   71.1699    9.7852 C   0  0  2  0  0  0  0  0  0  0  0  0
   -4.8685   71.5067    9.1065 N   0  0  0  0  0  0  0  0  0  0  0  0
   -7.2560   71.0907    8.7541 C   0  0  1  0  0  0  0  0  0  0  0  0
   -6.9854   70.0694    7.7900 O   0  0  0  0  0  0  0  0  0  0  0  0
   -8.5783   70.8146    9.4703 C   0  0  2  0  0  0  0  0  0  0  0  0
   -9.6422   70.8373    8.5188 O   0  0  0  0  0  0  0  0  0  0  0  0
   -8.8282   71.9273   10.4895 C   0  0  2  0  0  0  0  0  0  0  0  0
   -7.7254   71.9945   11.4069 O   0  0  0  0  0  0  0  0  0  0  0  0
  -10.1457   71.6561   11.2206 C   0  0  0  0  0  0  0  0  0  0  0  0
  -10.8279   70.4813   10.6574 N   0  0  0  0  0  0  0  0  0  0  0  0
   -2.4736   74.4866   11.0632 C   0  0  2  0  0  0  0  0  0  0  0  0
   -1.1630   75.0956   11.3360 N   0  0  0  0  0  0  0  0  0  0  0  0
   -2.8865   74.7140    9.6077 C   0  0  0  0  0  0  0  0  0  0  0  0
   -4.1881   73.9477    9.3509 C   0  0  2  0  0  0  0  0  0  0  0  0
   -4.6511   74.2221    7.9830 N   0  0  0  0  0  0  0  0  0  0  0  0
   -5.3066   74.3567   10.3137 C   0  0  2  0  0  0  0  0  0  0  0  0
   -4.9017   74.3878   11.7833 C   0  0  2  0  0  0  0  0  0  0  0  0
   -5.9242   75.1467   12.4486 O   0  0  0  0  0  0  0  0  0  0  0  0
   -3.5440   75.0733   11.9866 C   0  0  1  0  0  0  0  0  0  0  0  0
   -3.0923   74.9186   13.3346 O   0  0  0  0  0  0  0  0  0  0  0  0
   -6.3332   74.6495   13.7331 C   0  0  1  0  0  0  0  0  0  0  0  0
   -6.8739   73.2333   13.5292 C   0  0  2  0  0  0  0  0  0  0  0  0
   -8.2423   73.2953   13.1203 O   0  0  0  0  0  0  0  0  0  0  0  0
   -6.7946   72.7424   14.9718 C   0  0  1  0  0  0  0  0  0  0  0  0
   -5.4074   73.2345   15.3533 C   0  0  2  0  0  0  0  0  0  0  0  0
   -5.2404   74.4887   14.6605 O   0  0  0  0  0  0  0  0  0  0  0  0
   -4.3687   72.1965   14.9130 C   0  0  0  0  0  0  0  0  0  0  0  0
   -3.0448   72.7199   15.0528 O   0  0  0  0  0  0  0  0  0  0  0  0
   -7.7194   72.9257   17.1188 C   0  0  2  0  0  0  0  0  0  0  0  0
   -7.7890   73.4065   15.7677 O   0  0  0  0  0  0  0  0  0  0  0  0
   -8.2221   71.4795   17.1746 C   0  0  1  0  0  0  0  0  0  0  0  0
  -10.5291   74.6770   19.6313 N   0  0  0  0  0  0  0  0  0  0  0  0
   -8.2525   70.9796   18.6229 C   0  0  1  0  0  0  0  0  0  0  0  0
   -6.9209   70.8494   19.1311 O   0  0  0  0  0  0  0  0  0  0  0  0
   -9.0475   71.9575   19.4925 C   0  0  2  0  0  0  0  0  0  0  0  0
  -10.4125   71.9451   19.0611 O   0  0  0  0  0  0  0  0  0  0  0  0
   -8.4629   73.3665   19.3462 C   0  0  1  0  0  0  0  0  0  0  0  0
   -8.5108   73.7762   17.9669 O   0  0  0  0  0  0  0  0  0  0  0  0
   -9.2125   74.3803   20.2149 C   0  0  0  0  0  0  0  0  0  0  0  0
   -9.5912   71.4351   16.6391 N   0  0  0  0  0  0  0  0  0  0  0  0
  1  2  1  6  0  0  0
  1  3  1  0  0  0  0
  1 10  1  0  0  0  0
  3  4  1  6  0  0  0
  3  5  1  0  0  0  0
  5  6  1  6  0  0  0
  5  7  1  0  0  0  0
  7  8  1  6  0  0  0
  7  9  1  0  0  0  0
  9 10  1  0  0  0  0
  9 11  1  1  0  0  0
 11 12  1  0  0  0  0
 13 14  1  1  0  0  0
 13 15  1  0  0  0  0
 13 21  1  0  0  0  0
 16 15  1  0  0  0  0
 16 17  1  6  0  0  0
 18  2  1  1  0  0  0
 18 16  1  0  0  0  0
 19 18  1  0  0  0  0
 19 20  1  1  0  0  0
 21 19  1  0  0  0  0
 21 22  1  1  0  0  0
 23 20  1  6  0  0  0
 23 24  1  0  0  0  0
 23 28  1  0  0  0  0
 24 25  1  1  0  0  0
 24 26  1  0  0  0  0
 26 27  1  0  0  0  0
 26 32  1  1  0  0  0
 27 28  1  0  0  0  0
 27 29  1  6  0  0  0
 29 30  1  0  0  0  0
 31 32  1  6  0  0  0
 31 40  1  0  0  0  0
 33 31  1  0  0  0  0
 33 42  1  1  0  0  0
 35 33  1  0  0  0  0
 35 36  1  1  0  0  0
 37 35  1  0  0  0  0
 37 38  1  6  0  0  0
 37 39  1  0  0  0  0
 39 40  1  0  0  0  0
 39 41  1  1  0  0  0
 41 34  1  0  0  0  0
M  END
>  <CHROM.1>
-108.04610575,-4.61528228,88.18974624,139.76952105,-59.94277466,179.22389783
170.40575819,-70.23973294,-73.63320695,-6.75059709,72.88967471,13.41574342
1.18462198,-0.48306182,-1.74167386

>  <Name>
2fcy_lig

>  <RI>
3.12105e+07

>  <Rbt.Current_Directory>
/home/afrankz/demos/rdock_decoys_rna/rnas/2fcy

>  <Rbt.Executable>
rbdock ($Id: //depot/dev/client3/rdock/2013.1/src/exe/rbdock.cxx#4 $)

>  <Rbt.Library>
libRbt.so (2013.1, Build901 2013/11/27)

>  <Rbt.Parameter_File>
/export/apps/rDock/src/rDock_2013.1_src/data/scripts/dock_solv.prm

>  <Rbt.Receptor>
prm/blind_docking_80.prm

>  <SCORE>
131.109

>  <SCORE.INTER>
77.9867

>  <SCORE.INTER.CONST>
1

>  <SCORE.INTER.POLAR>
-1.19752

>  <SCORE.INTER.ROT>
9

>  <SCORE.INTER.SOLV>
27.7392

>  <SCORE.INTER.VDW>
37.1365

>  <SCORE.INTER.norm>
1.85683

>  <SCORE.INTRA>
16.3147

>  <SCORE.INTRA.DIHEDRAL>
5.05472

>  <SCORE.INTRA.DIHEDRAL.0>
17.3446

>  <SCORE.INTRA.POLAR>
0

>  <SCORE.INTRA.POLAR.0>
0

>  <SCORE.INTRA.REPUL>
0

>  <SCORE.INTRA.REPUL.0>
0

>  <SCORE.INTRA.SOLV>
5.08409

>  <SCORE.INTRA.SOLV.lig_0>
-112.452

>  <SCORE.INTRA.VDW>
11.2453

>  <SCORE.INTRA.VDW.0>
-5.95059

>  <SCORE.INTRA.norm>
0.388446

>  <SCORE.RESTR>
36.8076

>  <SCORE.RESTR.CAVITY>
36.8076

>  <SCORE.RESTR.norm>
0.876371

>  <SCORE.SYSTEM>
0

>  <SCORE.SYSTEM.CONST>
0

>  <SCORE.SYSTEM.DIHEDRAL>
0

>  <SCORE.SYSTEM.SOLV>
0

>  <SCORE.SYSTEM.norm>
0

>  <SCORE.heavy>
42

>  <SCORE.norm>
3.12164

>  <RMSD>
21.999

$$$$
2fcy_lig
 OpenBabel11021811433D
libRbt.so/2013.1/901 2013/11/27
 42 45  0  0  0  0  0  0  0  0999 V2000
   -8.2415   72.5160   16.0221 C   0  0  2  0  0  0  0  0  0  0  0  0
   -7.2576   73.5443   15.8179 O   0  0  0  0  0  0  0  0  0  0  0  0
   -9.0098   72.9309   17.2778 C   0  0  2  0  0  0  0  0  0  0  0  0
   -9.5254   74.2933   17.0860 N   0  0  0  0  0  0  0  0  0  0  0  0
   -8.0688   72.9082   18.4849 C   0  0  1  0  0  0  0  0  0  0  0  0
   -8.7668   73.2892   19.6737 O   0  0  0  0  0  0  0  0  0  0  0  0
   -7.4745   71.5078   18.6381 C   0  0  2  0  0  0  0  0  0  0  0  0
   -6.5248   71.5139   19.7038 O   0  0  0  0  0  0  0  0  0  0  0  0
   -6.7392   71.1409   17.3482 C   0  0  2  0  0  0  0  0  0  0  0  0
   -7.6478   71.2194   16.2388 O   0  0  0  0  0  0  0  0  0  0  0  0
   -6.1479   69.7355   17.4860 C   0  0  0  0  0  0  0  0  0  0  0  0
   -5.1003   69.7042   18.5176 N   0  0  0  0  0  0  0  0  0  0  0  0
   -4.1562   74.4123   13.1209 C   0  0  2  0  0  0  0  0  0  0  0  0
   -3.1632   74.4868   12.0386 N   0  0  0  0  0  0  0  0  0  0  0  0
   -4.0790   73.0629   13.8377 C   0  0  0  0  0  0  0  0  0  0  0  0
   -5.0388   73.0959   15.0314 C   0  0  2  0  0  0  0  0  0  0  0  0
   -5.0468   71.7789   15.6844 N   0  0  0  0  0  0  0  0  0  0  0  0
   -6.4768   73.4203   14.6161 C   0  0  2  0  0  0  0  0  0  0  0  0
   -6.6161   74.6258   13.6931 C   0  0  2  0  0  0  0  0  0  0  0  0
   -7.9310   74.5246   13.1231 O   0  0  0  0  0  0  0  0  0  0  0  0
   -5.5708   74.6083   12.5699 C   0  0  1  0  0  0  0  0  0  0  0  0
   -5.5894   75.8365   11.8377 O   0  0  0  0  0  0  0  0  0  0  0  0
   -8.2399   73.2742   12.4865 C   0  0  1  0  0  0  0  0  0  0  0  0
   -8.6891   73.5823   11.0572 C   0  0  2  0  0  0  0  0  0  0  0  0
  -10.0771   73.9246   11.0526 O   0  0  0  0  0  0  0  0  0  0  0  0
   -8.5040   72.1949   10.4493 C   0  0  1  0  0  0  0  0  0  0  0  0
   -7.1377   71.8304   11.0082 C   0  0  2  0  0  0  0  0  0  0  0  0
   -7.0939   72.4131   12.3270 O   0  0  0  0  0  0  0  0  0  0  0  0
   -6.0517   72.4075   10.0929 C   0  0  0  0  0  0  0  0  0  0  0  0
   -6.4558   73.6774    9.5727 O   0  0  0  0  0  0  0  0  0  0  0  0
  -10.4159   70.9464    9.9160 C   0  0  2  0  0  0  0  0  0  0  0  0
   -9.5020   71.2999   10.9654 O   0  0  0  0  0  0  0  0  0  0  0  0
  -11.5747   70.1310   10.4987 C   0  0  1  0  0  0  0  0  0  0  0  0
  -10.6023   68.7843    5.5792 N   0  0  0  0  0  0  0  0  0  0  0  0
  -12.5093   69.6561    9.3809 C   0  0  1  0  0  0  0  0  0  0  0  0
  -13.1946   70.7703    8.8001 O   0  0  0  0  0  0  0  0  0  0  0  0
  -11.7017   68.9244    8.3054 C   0  0  2  0  0  0  0  0  0  0  0  0
  -11.1600   67.7287    8.8767 O   0  0  0  0  0  0  0  0  0  0  0  0
  -10.5691   69.8297    7.8094 C   0  0  1  0  0  0  0  0  0  0  0  0
   -9.7153   70.1942    8.9098 O   0  0  0  0  0  0  0  0  0  0  0  0
   -9.7426   69.1493    6.7147 C   0  0  0  0  0  0  0  0  0  0  0  0
  -11.0245   68.9482   11.1779 N   0  0  0  0  0  0  0  0  0  0  0  0
  1  2  1  1  0  0  0
  1  3  1  0  0  0  0
  1 10  1  0  0  0  0
  3  4  1  6  0  0  0
  3  5  1  0  0  0  0
  5  6  1  1  0  0  0
  5  7  1  0  0  0  0
  7  8  1  1  0  0  0
  7  9  1  0  0  0  0
  9 10  1  0  0  0  0
  9 11  1  1  0  0  0
 11 12  1  0  0  0  0
 13 14  1  6  0  0  0
 13 15  1  0  0  0  0
 13 21  1  0  0  0  0
 16 15  1  0  0  0  0
 16 17  1  6  0  0  0
 18  2  1  1  0  0  0
 18 16  1  0  0  0  0
 19 18  1  0  0  0  0
 19 20  1  6  0  0  0
 21 19  1  0  0  0  0
 21 22  1  1  0  0  0
 23 20  1  6  0  0  0
 23 24  1  0  0  0  0
 23 28  1  0  0  0  0
 24 25  1  1  0  0  0
 24 26  1  0  0  0  0
 26 27  1  0  0  0  0
 26 32  1  1  0  0  0
 27 28  1  0  0  0  0
 27 29  1  6  0  0  0
 29 30  1  0  0  0  0
 31 32  1  1  0  0  0
 31 40  1  0  0  0  0
 33 31  1  0  0  0  0
 33 42  1  6  0  0  0
 35 33  1  0  0  0  0
 35 36  1  6  0  0  0
 37 35  1  0  0  0  0
 37 38  1  1  0  0  0
 37 39  1  0  0  0  0
 39 40  1  0  0  0  0
 39 41  1  6  0  0  0
 41 34  1  0  0  0  0
M  END
>  <CHROM.1>
-175.17139829,-65.74439990,-112.04609063,-53.48017823,-125.13557872,111.48776993
36.09530945,-173.20393734,58.44863046,-8.06527317,72.00300958,12.91705457
1.01435803,0.67822561,1.65599777

>  <Name>
2fcy_lig

>  <RI>
3.12105e+07

>  <Rbt.Current_Directory>
/home/afrankz/demos/rdock_decoys_rna/rnas/2fcy

>  <Rbt.Executable>
rbdock ($Id: //depot/dev/client3/rdock/2013.1/src/exe/rbdock.cxx#4 $)

>  <Rbt.Library>
libRbt.so (2013.1, Build901 2013/11/27)

>  <Rbt.Parameter_File>
/export/apps/rDock/src/rDock_2013.1_src/data/scripts/dock_solv.prm

>  <Rbt.Receptor>
prm/blind_docking_80.prm

>  <SCORE>
102.139

>  <SCORE.INTER>
52.1326

>  <SCORE.INTER.CONST>
1

>  <SCORE.INTER.POLAR>
-0.473843

>  <SCORE.INTER.ROT>
9

>  <SCORE.INTER.SOLV>
28.0938

>  <SCORE.INTER.VDW>
17.37

>  <SCORE.INTER.norm>
1.24125

>  <SCORE.INTRA>
12.5172

>  <SCORE.INTRA.DIHEDRAL>
5.45835

>  <SCORE.INTRA.DIHEDRAL.0>
17.3446

>  <SCORE.INTRA.POLAR>
0

>  <SCORE.INTRA.POLAR.0>
0

>  <SCORE.INTRA.REPUL>
0

>  <SCORE.INTRA.REPUL.0>
0

>  <SCORE.INTRA.SOLV>
2.89337

>  <SCORE.INTRA.SOLV.lig_0>
-112.452

>  <SCORE.INTRA.VDW>
8.3413

>  <SCORE.INTRA.VDW.0>
-5.95059

>  <SCORE.INTRA.norm>
0.298027

>  <SCORE.RESTR>
37.4892

>  <SCORE.RESTR.CAVITY>
37.4892

>  <SCORE.RESTR.norm>
0.8926

>  <SCORE.SYSTEM>
0

>  <SCORE.SYSTEM.CONST>
0

>  <SCORE.SYSTEM.DIHEDRAL>
0

>  <SCORE.SYSTEM.SOLV>
0

>  <SCORE.SYSTEM.norm>
0

>  <SCORE.heavy>
42

>  <SCORE.norm>
2.43188

>  <RMSD>
22.004

$$$$
2fcy_lig
 OpenBabel11021811433D
libRbt.so/2013.1/901 2013/11/27
 42 45  0  0  0  0  0  0  0  0999 V2000
   -5.9299   71.8664   16.2705 C   0  0  2  0  0  0  0  0  0  0  0  0
   -5.7101   73.1198   15.6013 O   0  0  0  0  0  0  0  0  0  0  0  0
   -6.9756   71.1334   15.4289 C   0  0  2  0  0  0  0  0  0  0  0  0
   -6.4936   71.0534   14.0433 N   0  0  0  0  0  0  0  0  0  0  0  0
   -8.2959   71.9073   15.4644 C   0  0  1  0  0  0  0  0  0  0  0  0
   -9.2922   71.2378   14.6867 O   0  0  0  0  0  0  0  0  0  0  0  0
   -8.7579   72.0549   16.9144 C   0  0  2  0  0  0  0  0  0  0  0  0
   -9.9368   72.8590   16.9528 O   0  0  0  0  0  0  0  0  0  0  0  0
   -7.6662   72.7737   17.7086 C   0  0  2  0  0  0  0  0  0  0  0  0
   -6.4372   72.0373   17.6098 O   0  0  0  0  0  0  0  0  0  0  0  0
   -8.1137   72.9185   19.1655 C   0  0  0  0  0  0  0  0  0  0  0  0
   -7.8751   71.6762   19.9153 N   0  0  0  0  0  0  0  0  0  0  0  0
   -3.5495   74.3145   12.2026 C   0  0  2  0  0  0  0  0  0  0  0  0
   -2.8511   74.4721   10.9179 N   0  0  0  0  0  0  0  0  0  0  0  0
   -2.9884   73.1249   12.9842 C   0  0  0  0  0  0  0  0  0  0  0  0
   -3.6598   73.0932   14.3609 C   0  0  2  0  0  0  0  0  0  0  0  0
   -3.2006   71.9070   15.0978 N   0  0  0  0  0  0  0  0  0  0  0  0
   -5.1866   73.0216   14.2650 C   0  0  2  0  0  0  0  0  0  0  0  0
   -5.8122   74.0311   13.3089 C   0  0  2  0  0  0  0  0  0  0  0  0
   -7.1468   73.5570   13.0673 O   0  0  0  0  0  0  0  0  0  0  0  0
   -5.0495   74.1066   11.9796 C   0  0  1  0  0  0  0  0  0  0  0  0
   -5.5276   75.1907   11.1789 O   0  0  0  0  0  0  0  0  0  0  0  0
   -7.3574   72.9045   11.8047 C   0  0  1  0  0  0  0  0  0  0  0  0
   -8.6163   72.0453   11.9333 C   0  0  2  0  0  0  0  0  0  0  0  0
   -8.2817   70.7875   12.5246 O   0  0  0  0  0  0  0  0  0  0  0  0
   -8.9175   71.8477   10.4505 C   0  0  1  0  0  0  0  0  0  0  0  0
   -8.7273   73.2674    9.9402 C   0  0  2  0  0  0  0  0  0  0  0  0
   -7.6526   73.8186   10.7288 O   0  0  0  0  0  0  0  0  0  0  0  0
  -10.0332   74.0474   10.1306 C   0  0  0  0  0  0  0  0  0  0  0  0
  -10.9984   73.6586    9.1489 O   0  0  0  0  0  0  0  0  0  0  0  0
   -8.5926   69.9808    9.0693 C   0  0  2  0  0  0  0  0  0  0  0  0
   -7.9350   70.9782    9.8656 O   0  0  0  0  0  0  0  0  0  0  0  0
   -9.2126   70.6392    7.8326 C   0  0  1  0  0  0  0  0  0  0  0  0
  -12.2629   68.4755   10.5850 N   0  0  0  0  0  0  0  0  0  0  0  0
  -10.0066   69.6103    7.0206 C   0  0  1  0  0  0  0  0  0  0  0  0
   -9.1212   68.6520    6.4325 O   0  0  0  0  0  0  0  0  0  0  0  0
  -11.0140   68.8991    7.9281 C   0  0  2  0  0  0  0  0  0  0  0  0
  -11.9818   69.8559    8.3727 O   0  0  0  0  0  0  0  0  0  0  0  0
  -10.2829   68.2934    9.1310 C   0  0  1  0  0  0  0  0  0  0  0  0
   -9.6004   69.3289    9.8620 O   0  0  0  0  0  0  0  0  0  0  0  0
  -11.2468   67.5511   10.0606 C   0  0  0  0  0  0  0  0  0  0  0  0
  -10.1361   71.6956    8.2736 N   0  0  0  0  0  0  0  0  0  0  0  0
  1  2  1  6  0  0  0
  1  3  1  0  0  0  0
  1 10  1  0  0  0  0
  3  4  1  6  0  0  0
  3  5  1  0  0  0  0
  5  6  1  6  0  0  0
  5  7  1  0  0  0  0
  7  8  1  6  0  0  0
  7  9  1  0  0  0  0
  9 10  1  0  0  0  0
  9 11  1  1  0  0  0
 11 12  1  0  0  0  0
 13 14  1  6  0  0  0
 13 15  1  0  0  0  0
 13 21  1  0  0  0  0
 16 15  1  0  0  0  0
 16 17  1  6  0  0  0
 18  2  1  1  0  0  0
 18 16  1  0  0  0  0
 19 18  1  0  0  0  0
 19 20  1  6  0  0  0
 21 19  1  0  0  0  0
 21 22  1  6  0  0  0
 23 20  1  1  0  0  0
 23 24  1  0  0  0  0
 23 28  1  0  0  0  0
 24 25  1  6  0  0  0
 24 26  1  0  0  0  0
 26 27  1  0  0  0  0
 26 32  1  6  0  0  0
 27 28  1  0  0  0  0
 27 29  1  1  0  0  0
 29 30  1  0  0  0  0
 31 32  1  1  0  0  0
 31 40  1  0  0  0  0
 33 31  1  0  0  0  0
 33 42  1  1  0  0  0
 35 33  1  0  0  0  0
 35 36  1  1  0  0  0
 37 35  1  0  0  0  0
 37 38  1  1  0  0  0
 37 39  1  0  0  0  0
 39 40  1  0  0  0  0
 39 41  1  1  0  0  0
 41 34  1  0  0  0  0
M  END
>  <CHROM.1>
-61.98017383,81.22101218,-92.32115231,-102.93068088,159.53809410,133.12619599
-75.42827858,68.92014107,-60.77291486,-7.85476975,71.85459592,12.37344603
1.00892875,0.57303561,1.55285026

>  <Name>
2fcy_lig

>  <RI>
3.12105e+07

>  <Rbt.Current_Directory>
/home/afrankz/demos/rdock_decoys_rna/rnas/2fcy

>  <Rbt.Executable>
rbdock ($Id: //depot/dev/client3/rdock/2013.1/src/exe/rbdock.cxx#4 $)

>  <Rbt.Library>
libRbt.so (2013.1, Build901 2013/11/27)

>  <Rbt.Parameter_File>
/export/apps/rDock/src/rDock_2013.1_src/data/scripts/dock_solv.prm

>  <Rbt.Receptor>
prm/blind_docking_80.prm

>  <SCORE>
105.724

>  <SCORE.INTER>
39.3907

>  <SCORE.INTER.CONST>
1

>  <SCORE.INTER.POLAR>
-0.634913

>  <SCORE.INTER.ROT>
9

>  <SCORE.INTER.SOLV>
17.719

>  <SCORE.INTER.VDW>
12.8705

>  <SCORE.INTER.norm>
0.937874

>  <SCORE.INTRA>
24.0599

>  <SCORE.INTRA.DIHEDRAL>
3.31818

>  <SCORE.INTRA.DIHEDRAL.0>
17.3446

>  <SCORE.INTRA.POLAR>
0

>  <SCORE.INTRA.POLAR.0>
0

>  <SCORE.INTRA.REPUL>
0.0038442

>  <SCORE.INTRA.REPUL.0>
0

>  <SCORE.INTRA.SOLV>
10.4599

>  <SCORE.INTRA.SOLV.lig_0>
-112.452

>  <SCORE.INTRA.VDW>
17.1516

>  <SCORE.INTRA.VDW.0>
-5.95059

>  <SCORE.INTRA.norm>
0.572854

>  <SCORE.RESTR>
42.2737

>  <SCORE.RESTR.CAVITY>
42.2737

>  <SCORE.RESTR.norm>
1.00652

>  <SCORE.SYSTEM>
0

>  <SCORE.SYSTEM.CONST>
0

>  <SCORE.SYSTEM.DIHEDRAL>
0

>  <SCORE.SYSTEM.SOLV>
0

>  <SCORE.SYSTEM.norm>
0

>  <SCORE.heavy>
42

>  <SCORE.norm>
2.51724

>  <RMSD>
22.014

$$$$
2fcy_lig
 OpenBabel11021811433D
libRbt.so/2013.1/901 2013/11/27
 42 45  0  0  0  0  0  0  0  0999 V2000
   -7.5332   73.1804    9.6170 C   0  0  2  0  0  0  0  0  0  0  0  0
   -6.5532   72.9782   10.6494 O   0  0  0  0  0  0  0  0  0  0  0  0
   -8.8894   73.0651   10.3145 C   0  0  2  0  0  0  0  0  0  0  0  0
   -8.9241   74.0128   11.4367 N   0  0  0  0  0  0  0  0  0  0  0  0
   -9.0729   71.6411   10.8453 C   0  0  1  0  0  0  0  0  0  0  0  0
  -10.3380   71.5074   11.4991 O   0  0  0  0  0  0  0  0  0  0  0  0
   -8.9614   70.6499    9.6865 C   0  0  2  0  0  0  0  0  0  0  0  0
   -9.0361   69.3190   10.1971 O   0  0  0  0  0  0  0  0  0  0  0  0
   -7.5977   70.8263    9.0169 C   0  0  2  0  0  0  0  0  0  0  0  0
   -7.4516   72.1853    8.5761 O   0  0  0  0  0  0  0  0  0  0  0  0
   -7.4783   69.8452    7.8477 C   0  0  0  0  0  0  0  0  0  0  0  0
   -8.8062   69.4450    7.3588 N   0  0  0  0  0  0  0  0  0  0  0  0
   -2.7159   74.5750   11.2595 C   0  0  2  0  0  0  0  0  0  0  0  0
   -1.4896   75.3769   11.3861 N   0  0  0  0  0  0  0  0  0  0  0  0
   -3.2617   74.6378    9.8315 C   0  0  0  0  0  0  0  0  0  0  0  0
   -4.4555   73.6830    9.7297 C   0  0  2  0  0  0  0  0  0  0  0  0
   -5.0511   73.7916    8.3902 N   0  0  0  0  0  0  0  0  0  0  0  0
   -5.5481   74.0021   10.7542 C   0  0  2  0  0  0  0  0  0  0  0  0
   -5.0462   74.1945   12.1809 C   0  0  2  0  0  0  0  0  0  0  0  0
   -6.1156   74.8512   12.8804 O   0  0  0  0  0  0  0  0  0  0  0  0
   -3.7894   75.0735   12.2300 C   0  0  1  0  0  0  0  0  0  0  0  0
   -3.2234   75.0800   13.5433 O   0  0  0  0  0  0  0  0  0  0  0  0
   -6.7253   74.0946   13.9388 C   0  0  1  0  0  0  0  0  0  0  0  0
   -6.5934   72.6129   13.5825 C   0  0  2  0  0  0  0  0  0  0  0  0
   -7.6548   72.2335   12.7033 O   0  0  0  0  0  0  0  0  0  0  0  0
   -6.8391   72.0167   14.9655 C   0  0  1  0  0  0  0  0  0  0  0  0
   -5.9585   72.9202   15.8143 C   0  0  2  0  0  0  0  0  0  0  0  0
   -6.0432   74.2240   15.2030 O   0  0  0  0  0  0  0  0  0  0  0  0
   -4.5251   72.3767   15.8033 C   0  0  0  0  0  0  0  0  0  0  0  0
   -4.4824   71.0609   16.3629 O   0  0  0  0  0  0  0  0  0  0  0  0
   -8.2969   72.6930   16.6731 C   0  0  2  0  0  0  0  0  0  0  0  0
   -8.2176   72.1874   15.3316 O   0  0  0  0  0  0  0  0  0  0  0  0
   -8.3232   71.5225   17.6612 C   0  0  1  0  0  0  0  0  0  0  0  0
  -10.7338   75.8741   19.3615 N   0  0  0  0  0  0  0  0  0  0  0  0
   -8.5102   72.0356   19.0930 C   0  0  1  0  0  0  0  0  0  0  0  0
   -7.3483   72.7551   19.5181 O   0  0  0  0  0  0  0  0  0  0  0  0
   -9.7394   72.9460   19.1612 C   0  0  2  0  0  0  0  0  0  0  0  0
  -10.9044   72.1602   18.8877 O   0  0  0  0  0  0  0  0  0  0  0  0
   -9.6061   74.0668   18.1247 C   0  0  1  0  0  0  0  0  0  0  0  0
   -9.4784   73.5024   16.8063 O   0  0  0  0  0  0  0  0  0  0  0  0
  -10.8044   75.0190   18.1675 C   0  0  0  0  0  0  0  0  0  0  0  0
   -9.4593   70.6497   17.3285 N   0  0  0  0  0  0  0  0  0  0  0  0
  1  2  1  1  0  0  0
  1  3  1  0  0  0  0
  1 10  1  0  0  0  0
  3  4  1  1  0  0  0
  3  5  1  0  0  0  0
  5  6  1  6  0  0  0
  5  7  1  0  0  0  0
  7  8  1  1  0  0  0
  7  9  1  0  0  0  0
  9 10  1  0  0  0  0
  9 11  1  6  0  0  0
 11 12  1  0  0  0  0
 13 14  1  6  0  0  0
 13 15  1  0  0  0  0
 13 21  1  0  0  0  0
 16 15  1  0  0  0  0
 16 17  1  6  0  0  0
 18  2  1  1  0  0  0
 18 16  1  0  0  0  0
 19 18  1  0  0  0  0
 19 20  1  1  0  0  0
 21 19  1  0  0  0  0
 21 22  1  1  0  0  0
 23 20  1  6  0  0  0
 23 24  1  0  0  0  0
 23 28  1  0  0  0  0
 24 25  1  6  0  0  0
 24 26  1  0  0  0  0
 26 27  1  0  0  0  0
 26 32  1  1  0  0  0
 27 28  1  0  0  0  0
 27 29  1  6  0  0  0
 29 30  1  0  0  0  0
 31 32  1  6  0  0  0
 31 40  1  0  0  0  0
 33 31  1  0  0  0  0
 33 42  1  6  0  0  0
 35 33  1  0  0  0  0
 35 36  1  6  0  0  0
 37 35  1  0  0  0  0
 37 38  1  6  0  0  0
 37 39  1  0  0  0  0
 39 40  1  0  0  0  0
 39 41  1  6  0  0  0
 41 34  1  0  0  0  0
M  END
>  <CHROM.1>
-127.14219274,23.38364555,-83.74341568,115.00338567,-28.99713319,-133.01712150
-61.24442245,-88.62753837,73.52017333,-7.19584771,72.86480447,13.44810165
1.22101760,-0.48737116,-1.79813843

>  <Name>
2fcy_lig

>  <RI>
3.12105e+07

>  <Rbt.Current_Directory>
/home/afrankz/demos/rdock_decoys_rna/rnas/2fcy

>  <Rbt.Executable>
rbdock ($Id: //depot/dev/client3/rdock/2013.1/src/exe/rbdock.cxx#4 $)

>  <Rbt.Library>
libRbt.so (2013.1, Build901 2013/11/27)

>  <Rbt.Parameter_File>
/export/apps/rDock/src/rDock_2013.1_src/data/scripts/dock_solv.prm

>  <Rbt.Receptor>
prm/blind_docking_80.prm

>  <SCORE>
104.163

>  <SCORE.INTER>
44.6231

>  <SCORE.INTER.CONST>
1

>  <SCORE.INTER.POLAR>
-0.500924

>  <SCORE.INTER.ROT>
9

>  <SCORE.INTER.SOLV>
28.4972

>  <SCORE.INTER.VDW>
12.3194

>  <SCORE.INTER.norm>
1.06246

>  <SCORE.INTRA>
24.9453

>  <SCORE.INTRA.DIHEDRAL>
16.6369

>  <SCORE.INTRA.DIHEDRAL.0>
17.3446

>  <SCORE.INTRA.POLAR>
0

>  <SCORE.INTRA.POLAR.0>
0

>  <SCORE.INTRA.REPUL>
0

>  <SCORE.INTRA.REPUL.0>
0

>  <SCORE.INTRA.SOLV>
3.43903

>  <SCORE.INTRA.SOLV.lig_0>
-112.452

>  <SCORE.INTRA.VDW>
14.9074

>  <SCORE.INTRA.VDW.0>
-5.95059

>  <SCORE.INTRA.norm>
0.593937

>  <SCORE.RESTR>
34.5943

>  <SCORE.RESTR.CAVITY>
34.5943

>  <SCORE.RESTR.norm>
0.823675

>  <SCORE.SYSTEM>
0

>  <SCORE.SYSTEM.CONST>
0

>  <SCORE.SYSTEM.DIHEDRAL>
0

>  <SCORE.SYSTEM.SOLV>
0

>  <SCORE.SYSTEM.norm>
0

>  <SCORE.heavy>
42

>  <SCORE.norm>
2.48007

>  <RMSD>
22.039

$$$$
2fcy_lig
 OpenBabel11021811433D
libRbt.so/2013.1/901 2013/11/27
 42 45  0  0  0  0  0  0  0  0999 V2000
   -4.7104   74.6478   11.4253 C   0  0  2  0  0  0  0  0  0  0  0  0
   -4.6379   73.3643   12.0693 O   0  0  0  0  0  0  0  0  0  0  0  0
   -3.9442   74.4881   10.1113 C   0  0  2  0  0  0  0  0  0  0  0  0
   -4.5143   73.3561    9.3681 N   0  0  0  0  0  0  0  0  0  0  0  0
   -2.4687   74.2097   10.4093 C   0  0  1  0  0  0  0  0  0  0  0  0
   -1.7298   74.0606    9.1938 O   0  0  0  0  0  0  0  0  0  0  0  0
   -1.8964   75.3534   11.2473 C   0  0  2  0  0  0  0  0  0  0  0  0
   -0.5492   75.0457   11.6052 O   0  0  0  0  0  0  0  0  0  0  0  0
   -2.7136   75.4780   12.5341 C   0  0  2  0  0  0  0  0  0  0  0  0
   -4.0952   75.6927   12.2064 O   0  0  0  0  0  0  0  0  0  0  0  0
   -2.1556   76.6274   13.3775 C   0  0  0  0  0  0  0  0  0  0  0  0
   -2.7552   76.6341   14.7203 N   0  0  0  0  0  0  0  0  0  0  0  0
   -6.0083   71.5277   15.5899 C   0  0  2  0  0  0  0  0  0  0  0  0
   -6.5809   71.1439   16.8891 N   0  0  0  0  0  0  0  0  0  0  0  0
   -4.9714   72.6398   15.7599 C   0  0  0  0  0  0  0  0  0  0  0  0
   -4.3186   72.9018   14.3989 C   0  0  2  0  0  0  0  0  0  0  0  0
   -3.3804   74.0270   14.5191 N   0  0  0  0  0  0  0  0  0  0  0  0
   -5.3432   73.2610   13.3188 C   0  0  2  0  0  0  0  0  0  0  0  0
   -6.5443   72.3249   13.2445 C   0  0  2  0  0  0  0  0  0  0  0  0
   -7.5355   73.0300   12.4798 O   0  0  0  0  0  0  0  0  0  0  0  0
   -7.1060   72.0058   14.6363 C   0  0  1  0  0  0  0  0  0  0  0  0
   -8.0989   70.9794   14.5617 O   0  0  0  0  0  0  0  0  0  0  0  0
   -8.4306   72.2091   11.7123 C   0  0  1  0  0  0  0  0  0  0  0  0
   -9.1016   73.1063   10.6709 C   0  0  2  0  0  0  0  0  0  0  0  0
  -10.2212   73.7722   11.2597 O   0  0  0  0  0  0  0  0  0  0  0  0
   -9.5966   72.0253    9.7144 C   0  0  1  0  0  0  0  0  0  0  0  0
   -8.3570   71.1492    9.6252 C   0  0  2  0  0  0  0  0  0  0  0  0
   -7.7576   71.1965   10.9364 O   0  0  0  0  0  0  0  0  0  0  0  0
   -7.4214   71.7128    8.5493 C   0  0  0  0  0  0  0  0  0  0  0  0
   -6.9127   72.9900    8.9448 O   0  0  0  0  0  0  0  0  0  0  0  0
  -11.3624   70.5349    9.3157 C   0  0  2  0  0  0  0  0  0  0  0  0
  -10.6739   71.2941   10.3212 O   0  0  0  0  0  0  0  0  0  0  0  0
  -12.2988   69.5254    9.9874 C   0  0  1  0  0  0  0  0  0  0  0  0
  -10.5505   68.1091    5.2291 N   0  0  0  0  0  0  0  0  0  0  0  0
  -12.9682   68.6348    8.9352 C   0  0  1  0  0  0  0  0  0  0  0  0
  -13.8803   69.4022    8.1431 O   0  0  0  0  0  0  0  0  0  0  0  0
  -11.9018   68.0039    8.0355 C   0  0  2  0  0  0  0  0  0  0  0  0
  -11.1041   67.1170    8.8271 O   0  0  0  0  0  0  0  0  0  0  0  0
  -11.0226   69.1046    7.4323 C   0  0  1  0  0  0  0  0  0  0  0  0
  -10.3990   69.8651    8.4837 O   0  0  0  0  0  0  0  0  0  0  0  0
   -9.9507   68.5246    6.5056 C   0  0  0  0  0  0  0  0  0  0  0  0
  -11.5057   68.6700   10.8833 N   0  0  0  0  0  0  0  0  0  0  0  0
  1  2  1  1  0  0  0
  1  3  1  0  0  0  0
  1 10  1  0  0  0  0
  3  4  1  1  0  0  0
  3  5  1  0  0  0  0
  5  6  1  6  0  0  0
  5  7  1  0  0  0  0
  7  8  1  1  0  0  0
  7  9  1  0  0  0  0
  9 10  1  0  0  0  0
  9 11  1  1  0  0  0
 11 12  1  0  0  0  0
 13 14  1  1  0  0  0
 13 15  1  0  0  0  0
 13 21  1  0  0  0  0
 16 15  1  0  0  0  0
 16 17  1  1  0  0  0
 18  2  1  6  0  0  0
 18 16  1  0  0  0  0
 19 18  1  0  0  0  0
 19 20  1  6  0  0  0
 21 19  1  0  0  0  0
 21 22  1  6  0  0  0
 23 20  1  6  0  0  0
 23 24  1  0  0  0  0
 23 28  1  0  0  0  0
 24 25  1  1  0  0  0
 24 26  1  0  0  0  0
 26 27  1  0  0  0  0
 26 32  1  1  0  0  0
 27 28  1  0  0  0  0
 27 29  1  6  0  0  0
 29 30  1  0  0  0  0
 31 32  1  1  0  0  0
 31 40  1  0  0  0  0
 33 31  1  0  0  0  0
 33 42  1  1  0  0  0
 35 33  1  0  0  0  0
 35 36  1  6  0  0  0
 37 35  1  0  0  0  0
 37 38  1  1  0  0  0
 37 39  1  0  0  0  0
 39 40  1  0  0  0  0
 39 41  1  6  0  0  0
 41 34  1  0  0  0  0
M  END
>  <CHROM.1>
-177.74246218,-170.10757458,-119.93104150,149.95126940,-163.09362506,164.84275736
66.31249261,167.52153548,75.19394041,-7.18599808,72.13712968,11.10297560
-0.44164480,-0.56205543,-1.62359262

>  <Name>
2fcy_lig

>  <RI>
3.12105e+07

>  <Rbt.Current_Directory>
/home/afrankz/demos/rdock_decoys_rna/rnas/2fcy

>  <Rbt.Executable>
rbdock ($Id: //depot/dev/client3/rdock/2013.1/src/exe/rbdock.cxx#4 $)

>  <Rbt.Library>
libRbt.so (2013.1, Build901 2013/11/27)

>  <Rbt.Parameter_File>
/export/apps/rDock/src/rDock_2013.1_src/data/scripts/dock_solv.prm

>  <Rbt.Receptor>
prm/blind_docking_80.prm

>  <SCORE>
61.2869

>  <SCORE.INTER>
9.9736

>  <SCORE.INTER.CONST>
1

>  <SCORE.INTER.POLAR>
-0.96086

>  <SCORE.INTER.ROT>
9

>  <SCORE.INTER.SOLV>
25.2767

>  <SCORE.INTER.VDW>
-8.17364

>  <SCORE.INTER.norm>
0.237467

>  <SCORE.INTRA>
4.94938

>  <SCORE.INTRA.DIHEDRAL>
-1.93757

>  <SCORE.INTRA.DIHEDRAL.0>
17.3446

>  <SCORE.INTRA.POLAR>
0

>  <SCORE.INTRA.POLAR.0>
0

>  <SCORE.INTRA.REPUL>
0.0106351

>  <SCORE.INTRA.REPUL.0>
0

>  <SCORE.INTRA.SOLV>
3.19637

>  <SCORE.INTRA.SOLV.lig_0>
-112.452

>  <SCORE.INTRA.VDW>
4.2668

>  <SCORE.INTRA.VDW.0>
-5.95059

>  <SCORE.INTRA.norm>
0.117842

>  <SCORE.RESTR>
46.3639

>  <SCORE.RESTR.CAVITY>
46.3639

>  <SCORE.RESTR.norm>
1.1039

>  <SCORE.SYSTEM>
0

>  <SCORE.SYSTEM.CONST>
0

>  <SCORE.SYSTEM.DIHEDRAL>
0

>  <SCORE.SYSTEM.SOLV>
0

>  <SCORE.SYSTEM.norm>
0

>  <SCORE.heavy>
42

>  <SCORE.norm>
1.45921

>  <RMSD>
22.054

$$$$
2fcy_lig
 OpenBabel11021811433D
libRbt.so/2013.1/901 2013/11/27
 42 45  0  0  0  0  0  0  0  0999 V2000
   -4.6830   74.6701   11.4839 C   0  0  2  0  0  0  0  0  0  0  0  0
   -4.6279   73.3709   12.0972 O   0  0  0  0  0  0  0  0  0  0  0  0
   -3.9637   74.5183   10.1428 C   0  0  2  0  0  0  0  0  0  0  0  0
   -4.5901   73.4203    9.3939 N   0  0  0  0  0  0  0  0  0  0  0  0
   -2.4884   74.1911   10.3869 C   0  0  1  0  0  0  0  0  0  0  0  0
   -1.7930   74.0484    9.1452 O   0  0  0  0  0  0  0  0  0  0  0  0
   -1.8565   75.2986   11.2307 C   0  0  2  0  0  0  0  0  0  0  0  0
   -0.5083   74.9444   11.5382 O   0  0  0  0  0  0  0  0  0  0  0  0
   -2.6286   75.4174   12.5456 C   0  0  2  0  0  0  0  0  0  0  0  0
   -4.0130   75.6790   12.2674 O   0  0  0  0  0  0  0  0  0  0  0  0
   -2.0107   76.5310   13.3953 C   0  0  0  0  0  0  0  0  0  0  0  0
   -1.9317   77.7888   12.6376 N   0  0  0  0  0  0  0  0  0  0  0  0
   -6.0115   71.4759   15.5816 C   0  0  2  0  0  0  0  0  0  0  0  0
   -6.5925   71.0699   16.8703 N   0  0  0  0  0  0  0  0  0  0  0  0
   -4.9894   72.5978   15.7753 C   0  0  0  0  0  0  0  0  0  0  0  0
   -4.3263   72.8839   14.4242 C   0  0  2  0  0  0  0  0  0  0  0  0
   -3.4026   74.0184   14.5673 N   0  0  0  0  0  0  0  0  0  0  0  0
   -5.3443   73.2443   13.3383 C   0  0  2  0  0  0  0  0  0  0  0  0
   -6.5336   72.2953   13.2406 C   0  0  2  0  0  0  0  0  0  0  0  0
   -7.5253   72.9980   12.4746 O   0  0  0  0  0  0  0  0  0  0  0  0
   -7.1053   71.9528   14.6228 C   0  0  1  0  0  0  0  0  0  0  0  0
   -8.0853   70.9159   14.5259 O   0  0  0  0  0  0  0  0  0  0  0  0
   -8.4225   72.1747   11.7119 C   0  0  1  0  0  0  0  0  0  0  0  0
   -9.1025   73.0703   10.6751 C   0  0  2  0  0  0  0  0  0  0  0  0
  -10.2206   73.7324   11.2710 O   0  0  0  0  0  0  0  0  0  0  0  0
   -9.5998   71.9883    9.7210 C   0  0  1  0  0  0  0  0  0  0  0  0
   -8.3580   71.1162    9.6239 C   0  0  2  0  0  0  0  0  0  0  0  0
   -7.7509   71.1646   10.9315 O   0  0  0  0  0  0  0  0  0  0  0  0
   -7.4307   71.6832    8.5428 C   0  0  0  0  0  0  0  0  0  0  0  0
   -6.9628   72.9832    8.9136 O   0  0  0  0  0  0  0  0  0  0  0  0
  -11.4108   70.5532    9.3218 C   0  0  2  0  0  0  0  0  0  0  0  0
  -10.6711   71.2533   10.3338 O   0  0  0  0  0  0  0  0  0  0  0  0
  -12.4515   69.6446    9.9841 C   0  0  1  0  0  0  0  0  0  0  0  0
   -9.2189   67.5840    7.3641 N   0  0  0  0  0  0  0  0  0  0  0  0
  -13.1838   68.8114    8.9267 C   0  0  1  0  0  0  0  0  0  0  0  0
  -14.0038   69.6543    8.1110 O   0  0  0  0  0  0  0  0  0  0  0  0
  -12.1666   68.0724    8.0529 C   0  0  2  0  0  0  0  0  0  0  0  0
  -11.4720   67.1215    8.8670 O   0  0  0  0  0  0  0  0  0  0  0  0
  -11.1753   69.0779    7.4573 C   0  0  1  0  0  0  0  0  0  0  0  0
  -10.5009   69.7860    8.5140 O   0  0  0  0  0  0  0  0  0  0  0  0
  -10.1471   68.3887    6.5561 C   0  0  0  0  0  0  0  0  0  0  0  0
  -11.7604   68.7266   10.9020 N   0  0  0  0  0  0  0  0  0  0  0  0
  1  2  1  1  0  0  0
  1  3  1  0  0  0  0
  1 10  1  0  0  0  0
  3  4  1  6  0  0  0
  3  5  1  0  0  0  0
  5  6  1  6  0  0  0
  5  7  1  0  0  0  0
  7  8  1  1  0  0  0
  7  9  1  0  0  0  0
  9 10  1  0  0  0  0
  9 11  1  1  0  0  0
 11 12  1  0  0  0  0
 13 14  1  1  0  0  0
 13 15  1  0  0  0  0
 13 21  1  0  0  0  0
 16 15  1  0  0  0  0
 16 17  1  1  0  0  0
 18  2  1  6  0  0  0
 18 16  1  0  0  0  0
 19 18  1  0  0  0  0
 19 20  1  6  0  0  0
 21 19  1  0  0  0  0
 21 22  1  6  0  0  0
 23 20  1  6  0  0  0
 23 24  1  0  0  0  0
 23 28  1  0  0  0  0
 24 25  1  1  0  0  0
 24 26  1  0  0  0  0
 26 27  1  0  0  0  0
 26 32  1  1  0  0  0
 27 28  1  0  0  0  0
 27 29  1  6  0  0  0
 29 30  1  0  0  0  0
 31 32  1  1  0  0  0
 31 40  1  0  0  0  0
 33 31  1  0  0  0  0
 33 42  1  1  0  0  0
 35 33  1  0  0  0  0
 35 36  1  6  0  0  0
 37 35  1  0  0  0  0
 37 38  1  1  0  0  0
 37 39  1  0  0  0  0
 39 40  1  0  0  0  0
 39 41  1  1  0  0  0
 41 34  1  0  0  0  0
M  END
>  <CHROM.1>
-175.19376916,53.71012820,-118.52450556,151.30521434,-163.53361862,161.55214678
64.17892131,173.59897457,-70.44387159,-7.17594480,72.14067992,11.10942616
-0.36564543,-0.57486794,-1.58265430

>  <Name>
2fcy_lig

>  <RI>
3.12105e+07

>  <Rbt.Current_Directory>
/home/afrankz/demos/rdock_decoys_rna/rnas/2fcy

>  <Rbt.Executable>
rbdock ($Id: //depot/dev/client3/rdock/2013.1/src/exe/rbdock.cxx#4 $)

>  <Rbt.Library>
libRbt.so (2013.1, Build901 2013/11/27)

>  <Rbt.Parameter_File>
/export/apps/rDock/src/rDock_2013.1_src/data/scripts/dock_solv.prm

>  <Rbt.Receptor>
prm/blind_docking_80.prm

>  <SCORE>
61.3123

>  <SCORE.INTER>
9.09568

>  <SCORE.INTER.CONST>
1

>  <SCORE.INTER.POLAR>
-1.62091

>  <SCORE.INTER.ROT>
9

>  <SCORE.INTER.SOLV>
24.8723

>  <SCORE.INTER.VDW>
-6.42397

>  <SCORE.INTER.norm>
0.216564

>  <SCORE.INTRA>
4.29822

>  <SCORE.INTRA.DIHEDRAL>
-2.96059

>  <SCORE.INTRA.DIHEDRAL.0>
17.3446

>  <SCORE.INTRA.POLAR>
0

>  <SCORE.INTRA.POLAR.0>
0

>  <SCORE.INTRA.REPUL>
0.0205546

>  <SCORE.INTRA.REPUL.0>
0

>  <SCORE.INTRA.SOLV>
4.15113

>  <SCORE.INTRA.SOLV.lig_0>
-112.452

>  <SCORE.INTRA.VDW>
3.60017

>  <SCORE.INTRA.VDW.0>
-5.95059

>  <SCORE.INTRA.norm>
0.102338

>  <SCORE.RESTR>
47.9184

>  <SCORE.RESTR.CAVITY>
47.9184

>  <SCORE.RESTR.norm>
1.14092

>  <SCORE.SYSTEM>
0

>  <SCORE.SYSTEM.CONST>
0

>  <SCORE.SYSTEM.DIHEDRAL>
0

>  <SCORE.SYSTEM.SOLV>
0

>  <SCORE.SYSTEM.norm>
0

>  <SCORE.heavy>
42

>  <SCORE.norm>
1.45982

>  <RMSD>
22.067

$$$$
2fcy_lig
 OpenBabel11021811433D
libRbt.so/2013.1/901 2013/11/27
 42 45  0  0  0  0  0  0  0  0999 V2000
   -4.3340   75.3887   11.7944 C   0  0  2  0  0  0  0  0  0  0  0  0
   -3.6346   74.5572   10.8528 O   0  0  0  0  0  0  0  0  0  0  0  0
   -3.2904   75.7885   12.8385 C   0  0  2  0  0  0  0  0  0  0  0  0
   -2.1484   76.4061   12.1506 N   0  0  0  0  0  0  0  0  0  0  0  0
   -2.8172   74.5434   13.5927 C   0  0  1  0  0  0  0  0  0  0  0  0
   -1.8423   74.8932   14.5790 O   0  0  0  0  0  0  0  0  0  0  0  0
   -4.0186   73.8594   14.2459 C   0  0  2  0  0  0  0  0  0  0  0  0
   -3.5899   72.6476   14.8666 O   0  0  0  0  0  0  0  0  0  0  0  0
   -5.0339   73.5034   13.1589 C   0  0  2  0  0  0  0  0  0  0  0  0
   -5.4143   74.6926   12.4493 O   0  0  0  0  0  0  0  0  0  0  0  0
   -6.2468   72.8265   13.8027 C   0  0  0  0  0  0  0  0  0  0  0  0
   -6.7308   73.6002   14.9558 N   0  0  0  0  0  0  0  0  0  0  0  0
   -3.5488   70.5016    9.7615 C   0  0  2  0  0  0  0  0  0  0  0  0
   -3.6003   69.0363    9.6469 N   0  0  0  0  0  0  0  0  0  0  0  0
   -2.5988   70.9263   10.8831 C   0  0  0  0  0  0  0  0  0  0  0  0
   -2.4858   72.4541   10.8658 C   0  0  2  0  0  0  0  0  0  0  0  0
   -1.6463   72.8915   11.9905 N   0  0  0  0  0  0  0  0  0  0  0  0
   -3.8469   73.1424   11.0033 C   0  0  2  0  0  0  0  0  0  0  0  0
   -4.9290   72.6044   10.0736 C   0  0  2  0  0  0  0  0  0  0  0  0
   -6.1723   73.0812   10.6130 O   0  0  0  0  0  0  0  0  0  0  0  0
   -4.9421   71.0704   10.0409 C   0  0  1  0  0  0  0  0  0  0  0  0
   -5.8236   70.5903    9.0223 O   0  0  0  0  0  0  0  0  0  0  0  0
   -7.3560   72.6626    9.9145 C   0  0  1  0  0  0  0  0  0  0  0  0
   -8.0723   71.6361   10.7936 C   0  0  2  0  0  0  0  0  0  0  0  0
   -7.4975   70.3433   10.5888 O   0  0  0  0  0  0  0  0  0  0  0  0
   -9.4507   71.6903   10.1413 C   0  0  1  0  0  0  0  0  0  0  0  0
   -9.6347   73.1943   10.0130 C   0  0  2  0  0  0  0  0  0  0  0  0
   -8.3205   73.7200    9.7354 O   0  0  0  0  0  0  0  0  0  0  0  0
  -10.2033   73.7433   11.3266 C   0  0  0  0  0  0  0  0  0  0  0  0
  -10.6770   72.6766   12.1538 O   0  0  0  0  0  0  0  0  0  0  0  0
   -9.9180   69.7516    8.9078 C   0  0  2  0  0  0  0  0  0  0  0  0
   -9.3972   71.0878    8.8384 O   0  0  0  0  0  0  0  0  0  0  0  0
   -9.4777   68.9650    7.6690 C   0  0  1  0  0  0  0  0  0  0  0  0
  -14.0458   69.5001    8.3056 N   0  0  0  0  0  0  0  0  0  0  0  0
  -10.1063   67.5674    7.6719 C   0  0  1  0  0  0  0  0  0  0  0  0
   -9.5581   66.7788    8.7329 O   0  0  0  0  0  0  0  0  0  0  0  0
  -11.6239   67.6818    7.8396 C   0  0  2  0  0  0  0  0  0  0  0  0
  -12.1623   68.3344    6.6847 O   0  0  0  0  0  0  0  0  0  0  0  0
  -11.9413   68.4953    9.0988 C   0  0  1  0  0  0  0  0  0  0  0  0
  -11.3526   69.8053    8.9973 O   0  0  0  0  0  0  0  0  0  0  0  0
  -13.4507   68.6208    9.3227 C   0  0  0  0  0  0  0  0  0  0  0  0
   -9.9382   69.6790    6.4685 N   0  0  0  0  0  0  0  0  0  0  0  0
  1  2  1  6  0  0  0
  1  3  1  0  0  0  0
  1 10  1  0  0  0  0
  3  4  1  6  0  0  0
  3  5  1  0  0  0  0
  5  6  1  1  0  0  0
  5  7  1  0  0  0  0
  7  8  1  6  0  0  0
  7  9  1  0  0  0  0
  9 10  1  0  0  0  0
  9 11  1  1  0  0  0
 11 12  1  0  0  0  0
 13 14  1  1  0  0  0
 13 15  1  0  0  0  0
 13 21  1  0  0  0  0
 16 15  1  0  0  0  0
 16 17  1  1  0  0  0
 18  2  1  6  0  0  0
 18 16  1  0  0  0  0
 19 18  1  0  0  0  0
 19 20  1  1  0  0  0
 21 19  1  0  0  0  0
 21 22  1  6  0  0  0
 23 20  1  1  0  0  0
 23 24  1  0  0  0  0
 23 28  1  0  0  0  0
 24 25  1  6  0  0  0
 24 26  1  0  0  0  0
 26 27  1  0  0  0  0
 26 32  1  6  0  0  0
 27 28  1  0  0  0  0
 27 29  1  1  0  0  0
 29 30  1  0  0  0  0
 31 32  1  6  0  0  0
 31 40  1  0  0  0  0
 33 31  1  0  0  0  0
 33 42  1  6  0  0  0
 35 33  1  0  0  0  0
 35 36  1  1  0  0  0
 37 35  1  0  0  0  0
 37 38  1  6  0  0  0
 37 39  1  0  0  0  0
 39 40  1  0  0  0  0
 39 41  1  6  0  0  0
 41 34  1  0  0  0  0
M  END
>  <CHROM.1>
101.41139943,48.90729413,-136.21068613,-178.28796795,108.13549829,100.45844549
-13.34238428,-162.62750443,-70.24911730,-6.99889039,71.78328650,10.63247791
0.69040530,-0.02682054,0.68802973

>  <Name>
2fcy_lig

>  <RI>
3.12105e+07

>  <Rbt.Current_Directory>
/home/afrankz/demos/rdock_decoys_rna/rnas/2fcy

>  <Rbt.Executable>
rbdock ($Id: //depot/dev/client3/rdock/2013.1/src/exe/rbdock.cxx#4 $)

>  <Rbt.Library>
libRbt.so (2013.1, Build901 2013/11/27)

>  <Rbt.Parameter_File>
/export/apps/rDock/src/rDock_2013.1_src/data/scripts/dock_solv.prm

>  <Rbt.Receptor>
prm/blind_docking_80.prm

>  <SCORE>
103.473

>  <SCORE.INTER>
27.0133

>  <SCORE.INTER.CONST>
1

>  <SCORE.INTER.POLAR>
-0.270186

>  <SCORE.INTER.ROT>
9

>  <SCORE.INTER.SOLV>
25.1581

>  <SCORE.INTER.VDW>
0.923469

>  <SCORE.INTER.norm>
0.643175

>  <SCORE.INTRA>
22.3993

>  <SCORE.INTRA.DIHEDRAL>
12.744

>  <SCORE.INTRA.DIHEDRAL.0>
17.3446

>  <SCORE.INTRA.POLAR>
0

>  <SCORE.INTRA.POLAR.0>
0

>  <SCORE.INTRA.REPUL>
0

>  <SCORE.INTRA.REPUL.0>
0

>  <SCORE.INTRA.SOLV>
4.87291

>  <SCORE.INTRA.SOLV.lig_0>
-112.452

>  <SCORE.INTRA.VDW>
13.5908

>  <SCORE.INTRA.VDW.0>
-5.95059

>  <SCORE.INTRA.norm>
0.533316

>  <SCORE.RESTR>
54.0608

>  <SCORE.RESTR.CAVITY>
54.0608

>  <SCORE.RESTR.norm>
1.28716

>  <SCORE.SYSTEM>
0

>  <SCORE.SYSTEM.CONST>
0

>  <SCORE.SYSTEM.DIHEDRAL>
0

>  <SCORE.SYSTEM.SOLV>
0

>  <SCORE.SYSTEM.norm>
0

>  <SCORE.heavy>
42

>  <SCORE.norm>
2.46365

>  <RMSD>
22.084

$$$$
2fcy_lig
 OpenBabel11021811433D
libRbt.so/2013.1/901 2013/11/27
 42 45  0  0  0  0  0  0  0  0999 V2000
   -7.3452   72.8509    9.4900 C   0  0  2  0  0  0  0  0  0  0  0  0
   -6.3779   72.5548   10.5116 O   0  0  0  0  0  0  0  0  0  0  0  0
   -8.6905   72.9289   10.2132 C   0  0  2  0  0  0  0  0  0  0  0  0
   -8.5820   73.9046   11.3064 N   0  0  0  0  0  0  0  0  0  0  0  0
   -9.0422   71.5554   10.7903 C   0  0  1  0  0  0  0  0  0  0  0  0
  -10.3004   71.6023   11.4688 O   0  0  0  0  0  0  0  0  0  0  0  0
   -9.0809   70.5258    9.6605 C   0  0  2  0  0  0  0  0  0  0  0  0
   -9.3133   69.2301   10.2127 O   0  0  0  0  0  0  0  0  0  0  0  0
   -7.7198   70.5082    8.9632 C   0  0  2  0  0  0  0  0  0  0  0  0
   -7.4116   71.8246    8.4787 O   0  0  0  0  0  0  0  0  0  0  0  0
   -7.7496   69.4873    7.8228 C   0  0  0  0  0  0  0  0  0  0  0  0
   -6.3869   69.1152    7.4138 N   0  0  0  0  0  0  0  0  0  0  0  0
   -2.9939   74.4334   12.1445 C   0  0  2  0  0  0  0  0  0  0  0  0
   -1.9199   75.3267   12.6043 N   0  0  0  0  0  0  0  0  0  0  0  0
   -3.1453   74.5029   10.6236 C   0  0  0  0  0  0  0  0  0  0  0  0
   -4.1813   73.4590   10.1945 C   0  0  2  0  0  0  0  0  0  0  0  0
   -4.4079   73.5670    8.7461 N   0  0  0  0  0  0  0  0  0  0  0  0
   -5.5299   73.6521   10.8942 C   0  0  2  0  0  0  0  0  0  0  0  0
   -5.4426   73.8333   12.4055 C   0  0  2  0  0  0  0  0  0  0  0  0
   -6.7122   74.3761   12.8024 O   0  0  0  0  0  0  0  0  0  0  0  0
   -4.3254   74.8086   12.7996 C   0  0  1  0  0  0  0  0  0  0  0  0
   -4.1304   74.8140   14.2163 O   0  0  0  0  0  0  0  0  0  0  0  0
   -7.2743   73.8304   14.0067 C   0  0  1  0  0  0  0  0  0  0  0  0
   -7.1977   72.3062   13.9028 C   0  0  2  0  0  0  0  0  0  0  0  0
   -8.3183   71.8179   13.1615 O   0  0  0  0  0  0  0  0  0  0  0  0
   -7.3734   71.9616   15.3788 C   0  0  1  0  0  0  0  0  0  0  0  0
   -6.4232   72.9668   16.0104 C   0  0  2  0  0  0  0  0  0  0  0  0
   -6.5148   74.1501   15.1905 O   0  0  0  0  0  0  0  0  0  0  0  0
   -5.0058   72.3829   16.0135 C   0  0  0  0  0  0  0  0  0  0  0  0
   -4.5090   72.2625   14.6774 O   0  0  0  0  0  0  0  0  0  0  0  0
   -8.7117   72.9256   17.0456 C   0  0  2  0  0  0  0  0  0  0  0  0
   -8.7232   72.2368   15.7859 O   0  0  0  0  0  0  0  0  0  0  0  0
   -8.6476   71.9056   18.1869 C   0  0  1  0  0  0  0  0  0  0  0  0
  -10.9527   76.4934   19.3777 N   0  0  0  0  0  0  0  0  0  0  0  0
   -8.7370   72.6142   19.5428 C   0  0  1  0  0  0  0  0  0  0  0  0
   -7.5583   73.3919   19.7750 O   0  0  0  0  0  0  0  0  0  0  0  0
   -9.9717   73.5191   19.5746 C   0  0  2  0  0  0  0  0  0  0  0  0
  -11.1414   72.6971   19.5015 O   0  0  0  0  0  0  0  0  0  0  0  0
   -9.9319   74.4836   18.3844 C   0  0  1  0  0  0  0  0  0  0  0  0
   -9.8926   73.7401   17.1522 O   0  0  0  0  0  0  0  0  0  0  0  0
  -11.1382   75.4266   18.3830 C   0  0  0  0  0  0  0  0  0  0  0  0
   -9.7916   70.9893   18.0654 N   0  0  0  0  0  0  0  0  0  0  0  0
  1  2  1  1  0  0  0
  1  3  1  0  0  0  0
  1 10  1  0  0  0  0
  3  4  1  1  0  0  0
  3  5  1  0  0  0  0
  5  6  1  6  0  0  0
  5  7  1  0  0  0  0
  7  8  1  1  0  0  0
  7  9  1  0  0  0  0
  9 10  1  0  0  0  0
  9 11  1  6  0  0  0
 11 12  1  0  0  0  0
 13 14  1  1  0  0  0
 13 15  1  0  0  0  0
 13 21  1  0  0  0  0
 16 15  1  0  0  0  0
 16 17  1  6  0  0  0
 18  2  1  1  0  0  0
 18 16  1  0  0  0  0
 19 18  1  0  0  0  0
 19 20  1  6  0  0  0
 21 19  1  0  0  0  0
 21 22  1  1  0  0  0
 23 20  1  6  0  0  0
 23 24  1  0  0  0  0
 23 28  1  0  0  0  0
 24 25  1  6  0  0  0
 24 26  1  0  0  0  0
 26 27  1  0  0  0  0
 26 32  1  1  0  0  0
 27 28  1  0  0  0  0
 27 29  1  6  0  0  0
 29 30  1  0  0  0  0
 31 32  1  6  0  0  0
 31 40  1  0  0  0  0
 33 31  1  0  0  0  0
 33 42  1  6  0  0  0
 35 33  1  0  0  0  0
 35 36  1  6  0  0  0
 37 35  1  0  0  0  0
 37 38  1  6  0  0  0
 37 39  1  0  0  0  0
 39 40  1  0  0  0  0
 39 41  1  6  0  0  0
 41 34  1  0  0  0  0
M  END
>  <CHROM.1>
-105.98202364,-161.57176944,-101.01812836,138.19702543,-48.38442525,-134.93093156
67.30800610,-85.66888732,77.20978458,-7.36727758,72.87031681,13.65801248
1.20417117,-0.46350269,-1.90735532

>  <Name>
2fcy_lig

>  <RI>
3.12105e+07

>  <Rbt.Current_Directory>
/home/afrankz/demos/rdock_decoys_rna/rnas/2fcy

>  <Rbt.Executable>
rbdock ($Id: //depot/dev/client3/rdock/2013.1/src/exe/rbdock.cxx#4 $)

>  <Rbt.Library>
libRbt.so (2013.1, Build901 2013/11/27)

>  <Rbt.Parameter_File>
/export/apps/rDock/src/rDock_2013.1_src/data/scripts/dock_solv.prm

>  <Rbt.Receptor>
prm/blind_docking_80.prm

>  <SCORE>
95.1721

>  <SCORE.INTER>
41.253

>  <SCORE.INTER.CONST>
1

>  <SCORE.INTER.POLAR>
-0.0571107

>  <SCORE.INTER.ROT>
9

>  <SCORE.INTER.SOLV>
28.4891

>  <SCORE.INTER.VDW>
8.59602

>  <SCORE.INTER.norm>
0.982215

>  <SCORE.INTRA>
17.292

>  <SCORE.INTRA.DIHEDRAL>
11.8447

>  <SCORE.INTRA.DIHEDRAL.0>
17.3446

>  <SCORE.INTRA.POLAR>
0

>  <SCORE.INTRA.POLAR.0>
0

>  <SCORE.INTRA.REPUL>
0.0299662

>  <SCORE.INTRA.REPUL.0>
0

>  <SCORE.INTRA.SOLV>
2.8707

>  <SCORE.INTRA.SOLV.lig_0>
-112.452

>  <SCORE.INTRA.VDW>
9.78444

>  <SCORE.INTRA.VDW.0>
-5.95059

>  <SCORE.INTRA.norm>
0.411713

>  <SCORE.RESTR>
36.6272

>  <SCORE.RESTR.CAVITY>
36.6272

>  <SCORE.RESTR.norm>
0.872075

>  <SCORE.SYSTEM>
0

>  <SCORE.SYSTEM.CONST>
0

>  <SCORE.SYSTEM.DIHEDRAL>
0

>  <SCORE.SYSTEM.SOLV>
0

>  <SCORE.SYSTEM.norm>
0

>  <SCORE.heavy>
42

>  <SCORE.norm>
2.266

>  <RMSD>
22.126

$$$$
2fcy_lig
 OpenBabel11021811433D
libRbt.so/2013.1/901 2013/11/27
 42 45  0  0  0  0  0  0  0  0999 V2000
   -7.4477   72.8101    9.5108 C   0  0  2  0  0  0  0  0  0  0  0  0
   -6.4601   72.4581   10.4947 O   0  0  0  0  0  0  0  0  0  0  0  0
   -8.7564   72.9686   10.2861 C   0  0  2  0  0  0  0  0  0  0  0  0
   -8.5471   73.9374   11.3708 N   0  0  0  0  0  0  0  0  0  0  0  0
   -9.1659   71.6191   10.8812 C   0  0  1  0  0  0  0  0  0  0  0  0
  -10.3914   71.7414   11.6085 O   0  0  0  0  0  0  0  0  0  0  0  0
   -9.3102   70.5924    9.7575 C   0  0  2  0  0  0  0  0  0  0  0  0
   -9.5971   69.3134   10.3228 O   0  0  0  0  0  0  0  0  0  0  0  0
   -7.9810   70.4932    9.0073 C   0  0  2  0  0  0  0  0  0  0  0  0
   -7.6147   71.7884    8.5065 O   0  0  0  0  0  0  0  0  0  0  0  0
   -8.1163   69.4746    7.8724 C   0  0  0  0  0  0  0  0  0  0  0  0
   -9.4292   69.5856    7.2194 N   0  0  0  0  0  0  0  0  0  0  0  0
   -3.0523   74.2329   12.1929 C   0  0  2  0  0  0  0  0  0  0  0  0
   -1.9652   75.0946   12.6814 N   0  0  0  0  0  0  0  0  0  0  0  0
   -3.1950   74.3461   10.6738 C   0  0  0  0  0  0  0  0  0  0  0  0
   -4.2467   73.3323   10.2119 C   0  0  2  0  0  0  0  0  0  0  0  0
   -4.4643   73.4833    8.7660 N   0  0  0  0  0  0  0  0  0  0  0  0
   -5.5952   73.5298   10.9106 C   0  0  2  0  0  0  0  0  0  0  0  0
   -5.5122   73.6686   12.4266 C   0  0  2  0  0  0  0  0  0  0  0  0
   -6.7742   74.2224   12.8324 O   0  0  0  0  0  0  0  0  0  0  0  0
   -4.3803   74.6134   12.8520 C   0  0  1  0  0  0  0  0  0  0  0  0
   -4.1922   74.5770   14.2692 O   0  0  0  0  0  0  0  0  0  0  0  0
   -7.3187   73.7020   14.0559 C   0  0  1  0  0  0  0  0  0  0  0  0
   -7.2402   72.1761   13.9841 C   0  0  2  0  0  0  0  0  0  0  0  0
   -8.3698   71.6697   13.2689 O   0  0  0  0  0  0  0  0  0  0  0  0
   -7.3951   71.8634   15.4695 C   0  0  1  0  0  0  0  0  0  0  0  0
   -6.4386   72.8838   16.0661 C   0  0  2  0  0  0  0  0  0  0  0  0
   -6.5439   74.0488   15.2220 O   0  0  0  0  0  0  0  0  0  0  0  0
   -5.0200   72.3027   16.0626 C   0  0  0  0  0  0  0  0  0  0  0  0
   -4.8890   71.2911   17.0655 O   0  0  0  0  0  0  0  0  0  0  0  0
   -8.7120   72.8901   17.1158 C   0  0  2  0  0  0  0  0  0  0  0  0
   -8.7399   72.1449   15.8889 O   0  0  0  0  0  0  0  0  0  0  0  0
   -8.6687   71.9221   18.3025 C   0  0  1  0  0  0  0  0  0  0  0  0
  -12.3248   74.7726   18.0435 N   0  0  0  0  0  0  0  0  0  0  0  0
   -8.7411   72.6935   19.6246 C   0  0  1  0  0  0  0  0  0  0  0  0
   -7.5455   73.4554   19.8209 O   0  0  0  0  0  0  0  0  0  0  0  0
   -9.9559   73.6256   19.6153 C   0  0  2  0  0  0  0  0  0  0  0  0
  -11.1432   72.8265   19.5801 O   0  0  0  0  0  0  0  0  0  0  0  0
   -9.8967   74.5336   18.3823 C   0  0  1  0  0  0  0  0  0  0  0  0
   -9.8748   73.7339   17.1853 O   0  0  0  0  0  0  0  0  0  0  0  0
  -11.0822   75.5014   18.3381 C   0  0  0  0  0  0  0  0  0  0  0  0
   -9.8323   71.0262   18.2232 N   0  0  0  0  0  0  0  0  0  0  0  0
  1  2  1  1  0  0  0
  1  3  1  0  0  0  0
  1 10  1  0  0  0  0
  3  4  1  1  0  0  0
  3  5  1  0  0  0  0
  5  6  1  6  0  0  0
  5  7  1  0  0  0  0
  7  8  1  1  0  0  0
  7  9  1  0  0  0  0
  9 10  1  0  0  0  0
  9 11  1  6  0  0  0
 11 12  1  0  0  0  0
 13 14  1  1  0  0  0
 13 15  1  0  0  0  0
 13 21  1  0  0  0  0
 16 15  1  0  0  0  0
 16 17  1  6  0  0  0
 18  2  1  1  0  0  0
 18 16  1  0  0  0  0
 19 18  1  0  0  0  0
 19 20  1  6  0  0  0
 21 19  1  0  0  0  0
 21 22  1  1  0  0  0
 23 20  1  6  0  0  0
 23 24  1  0  0  0  0
 23 28  1  0  0  0  0
 24 25  1  6  0  0  0
 24 26  1  0  0  0  0
 26 27  1  0  0  0  0
 26 32  1  1  0  0  0
 27 28  1  0  0  0  0
 27 29  1  6  0  0  0
 29 30  1  0  0  0  0
 31 32  1  6  0  0  0
 31 40  1  0  0  0  0
 33 31  1  0  0  0  0
 33 42  1  6  0  0  0
 35 33  1  0  0  0  0
 35 36  1  6  0  0  0
 37 35  1  0  0  0  0
 37 38  1  6  0  0  0
 37 39  1  0  0  0  0
 39 40  1  0  0  0  0
 39 41  1  6  0  0  0
 41 34  1  0  0  0  0
M  END
>  <CHROM.1>
-101.70024180,39.41209767,-103.08700997,141.23809140,-48.08142612,-133.49934515
-73.13470765,-87.70798090,-70.38899382,-7.54168832,72.77258537,13.73941430
1.27228378,-0.37794980,-1.82097271

>  <Name>
2fcy_lig

>  <RI>
3.12105e+07

>  <Rbt.Current_Directory>
/home/afrankz/demos/rdock_decoys_rna/rnas/2fcy

>  <Rbt.Executable>
rbdock ($Id: //depot/dev/client3/rdock/2013.1/src/exe/rbdock.cxx#4 $)

>  <Rbt.Library>
libRbt.so (2013.1, Build901 2013/11/27)

>  <Rbt.Parameter_File>
/export/apps/rDock/src/rDock_2013.1_src/data/scripts/dock_solv.prm

>  <Rbt.Receptor>
prm/blind_docking_80.prm

>  <SCORE>
92.3949

>  <SCORE.INTER>
36.2258

>  <SCORE.INTER.CONST>
1

>  <SCORE.INTER.POLAR>
-0.0128207

>  <SCORE.INTER.ROT>
9

>  <SCORE.INTER.SOLV>
26.464

>  <SCORE.INTER.VDW>
5.77193

>  <SCORE.INTER.norm>
0.862519

>  <SCORE.INTRA>
20.1713

>  <SCORE.INTRA.DIHEDRAL>
11.6941

>  <SCORE.INTRA.DIHEDRAL.0>
17.3446

>  <SCORE.INTRA.POLAR>
0

>  <SCORE.INTRA.POLAR.0>
0

>  <SCORE.INTRA.REPUL>
0.0933369

>  <SCORE.INTRA.REPUL.0>
0

>  <SCORE.INTRA.SOLV>
5.12554

>  <SCORE.INTRA.SOLV.lig_0>
-112.452

>  <SCORE.INTRA.VDW>
11.2948

>  <SCORE.INTRA.VDW.0>
-5.95059

>  <SCORE.INTRA.norm>
0.48027

>  <SCORE.RESTR>
35.9978

>  <SCORE.RESTR.CAVITY>
35.9978

>  <SCORE.RESTR.norm>
0.857091

>  <SCORE.SYSTEM>
0

>  <SCORE.SYSTEM.CONST>
0

>  <SCORE.SYSTEM.DIHEDRAL>
0

>  <SCORE.SYSTEM.SOLV>
0

>  <SCORE.SYSTEM.norm>
0

>  <SCORE.heavy>
42

>  <SCORE.norm>
2.19988

>  <RMSD>
22.276

$$$$
2fcy_lig
 OpenBabel11021811433D
libRbt.so/2013.1/901 2013/11/27
 42 45  0  0  0  0  0  0  0  0999 V2000
   -4.2176   73.5587   13.6391 C   0  0  2  0  0  0  0  0  0  0  0  0
   -5.1551   72.5276   13.2852 O   0  0  0  0  0  0  0  0  0  0  0  0
   -4.8113   74.8557   13.0875 C   0  0  2  0  0  0  0  0  0  0  0  0
   -6.1748   75.0105   13.6126 N   0  0  0  0  0  0  0  0  0  0  0  0
   -4.8594   74.7877   11.5590 C   0  0  1  0  0  0  0  0  0  0  0  0
   -5.4079   75.9933   11.0191 O   0  0  0  0  0  0  0  0  0  0  0  0
   -3.4492   74.5513   11.0176 C   0  0  2  0  0  0  0  0  0  0  0  0
   -3.5101   74.3918    9.6003 O   0  0  0  0  0  0  0  0  0  0  0  0
   -2.9015   73.2559   11.6186 C   0  0  2  0  0  0  0  0  0  0  0  0
   -2.9173   73.3474   13.0517 O   0  0  0  0  0  0  0  0  0  0  0  0
   -1.4849   73.0136   11.0911 C   0  0  0  0  0  0  0  0  0  0  0  0
   -0.7807   74.2857   10.8707 N   0  0  0  0  0  0  0  0  0  0  0  0
   -8.2536   70.8180   15.5486 C   0  0  2  0  0  0  0  0  0  0  0  0
   -9.4117   70.4881   16.3930 N   0  0  0  0  0  0  0  0  0  0  0  0
   -7.2600   71.6990   16.3085 C   0  0  0  0  0  0  0  0  0  0  0  0
   -6.0214   71.8972   15.4288 C   0  0  2  0  0  0  0  0  0  0  0  0
   -5.0891   72.8127   16.1024 N   0  0  0  0  0  0  0  0  0  0  0  0
   -6.3645   72.5006   14.0637 C   0  0  2  0  0  0  0  0  0  0  0  0
   -7.5196   71.8190   13.3388 C   0  0  2  0  0  0  0  0  0  0  0  0
   -7.9278   72.7392   12.3137 O   0  0  0  0  0  0  0  0  0  0  0  0
   -8.7014   71.5457   14.2787 C   0  0  1  0  0  0  0  0  0  0  0  0
   -9.6878   70.7354   13.6342 O   0  0  0  0  0  0  0  0  0  0  0  0
   -8.8203   72.2096   11.3201 C   0  0  1  0  0  0  0  0  0  0  0  0
   -8.4877   72.8898    9.9911 C   0  0  2  0  0  0  0  0  0  0  0  0
   -9.1565   74.1511    9.9159 O   0  0  0  0  0  0  0  0  0  0  0  0
   -9.1606   71.8987    9.0459 C   0  0  1  0  0  0  0  0  0  0  0  0
   -8.6812   70.5838    9.6402 C   0  0  2  0  0  0  0  0  0  0  0  0
   -8.6252   70.8035   11.0647 O   0  0  0  0  0  0  0  0  0  0  0  0
   -7.3031   70.2448    9.0604 C   0  0  0  0  0  0  0  0  0  0  0  0
   -7.4181   69.8477    7.6909 O   0  0  0  0  0  0  0  0  0  0  0  0
  -11.2076   70.9084    8.4736 C   0  0  2  0  0  0  0  0  0  0  0  0
  -10.5882   72.0025    9.1670 O   0  0  0  0  0  0  0  0  0  0  0  0
  -11.8345   69.9474    9.4889 C   0  0  1  0  0  0  0  0  0  0  0  0
  -10.3462   67.6631    5.0019 N   0  0  0  0  0  0  0  0  0  0  0  0
  -12.4129   68.7200    8.7766 C   0  0  1  0  0  0  0  0  0  0  0  0
  -13.5452   69.0933    7.9849 O   0  0  0  0  0  0  0  0  0  0  0  0
  -11.3420   68.0850    7.8854 C   0  0  2  0  0  0  0  0  0  0  0  0
  -10.2960   67.5775    8.7208 O   0  0  0  0  0  0  0  0  0  0  0  0
  -10.7823   69.1396    6.9248 C   0  0  1  0  0  0  0  0  0  0  0  0
  -10.2213   70.2348    7.6721 O   0  0  0  0  0  0  0  0  0  0  0  0
   -9.7194   68.5474    5.9954 C   0  0  0  0  0  0  0  0  0  0  0  0
  -10.7884   69.4950   10.4184 N   0  0  0  0  0  0  0  0  0  0  0  0
  1  2  1  6  0  0  0
  1  3  1  0  0  0  0
  1 10  1  0  0  0  0
  3  4  1  1  0  0  0
  3  5  1  0  0  0  0
  5  6  1  6  0  0  0
  5  7  1  0  0  0  0
  7  8  1  6  0  0  0
  7  9  1  0  0  0  0
  9 10  1  0  0  0  0
  9 11  1  6  0  0  0
 11 12  1  0  0  0  0
 13 14  1  1  0  0  0
 13 15  1  0  0  0  0
 13 21  1  0  0  0  0
 16 15  1  0  0  0  0
 16 17  1  1  0  0  0
 18  2  1  6  0  0  0
 18 16  1  0  0  0  0
 19 18  1  0  0  0  0
 19 20  1  6  0  0  0
 21 19  1  0  0  0  0
 21 22  1  6  0  0  0
 23 20  1  1  0  0  0
 23 24  1  0  0  0  0
 23 28  1  0  0  0  0
 24 25  1  1  0  0  0
 24 26  1  0  0  0  0
 26 27  1  0  0  0  0
 26 32  1  1  0  0  0
 27 28  1  0  0  0  0
 27 29  1  6  0  0  0
 29 30  1  0  0  0  0
 31 32  1  1  0  0  0
 31 40  1  0  0  0  0
 33 31  1  0  0  0  0
 33 42  1  1  0  0  0
 35 33  1  0  0  0  0
 35 36  1  6  0  0  0
 37 35  1  0  0  0  0
 37 38  1  1  0  0  0
 37 39  1  0  0  0  0
 39 40  1  0  0  0  0
 39 41  1  1  0  0  0
 41 34  1  0  0  0  0
M  END
>  <CHROM.1>
-74.73025608,33.13453505,-75.75324800,167.65686259,-145.99040764,-169.21407361
-71.93930721,110.13066174,71.71425325,-7.69075913,71.68461403,11.03636863
0.62768981,0.52035110,1.45719845

>  <Name>
2fcy_lig

>  <RI>
3.12105e+07

>  <Rbt.Current_Directory>
/home/afrankz/demos/rdock_decoys_rna/rnas/2fcy

>  <Rbt.Executable>
rbdock ($Id: //depot/dev/client3/rdock/2013.1/src/exe/rbdock.cxx#4 $)

>  <Rbt.Library>
libRbt.so (2013.1, Build901 2013/11/27)

>  <Rbt.Parameter_File>
/export/apps/rDock/src/rDock_2013.1_src/data/scripts/dock_solv.prm

>  <Rbt.Receptor>
prm/blind_docking_80.prm

>  <SCORE>
73.7182

>  <SCORE.INTER>
10.1998

>  <SCORE.INTER.CONST>
1

>  <SCORE.INTER.POLAR>
-0.996851

>  <SCORE.INTER.ROT>
9

>  <SCORE.INTER.SOLV>
20.0398

>  <SCORE.INTER.VDW>
-6.15722

>  <SCORE.INTER.norm>
0.242853

>  <SCORE.INTRA>
17.4324

>  <SCORE.INTRA.DIHEDRAL>
0.815569

>  <SCORE.INTRA.DIHEDRAL.0>
17.3446

>  <SCORE.INTRA.POLAR>
0

>  <SCORE.INTRA.POLAR.0>
0

>  <SCORE.INTRA.REPUL>
0.314418

>  <SCORE.INTRA.REPUL.0>
0

>  <SCORE.INTRA.SOLV>
6.19452

>  <SCORE.INTRA.SOLV.lig_0>
-112.452

>  <SCORE.INTRA.VDW>
12.3553

>  <SCORE.INTRA.VDW.0>
-5.95059

>  <SCORE.INTRA.norm>
0.415057

>  <SCORE.RESTR>
46.086

>  <SCORE.RESTR.CAVITY>
46.086

>  <SCORE.RESTR.norm>
1.09729

>  <SCORE.SYSTEM>
0

>  <SCORE.SYSTEM.CONST>
0

>  <SCORE.SYSTEM.DIHEDRAL>
0

>  <SCORE.SYSTEM.SOLV>
0

>  <SCORE.SYSTEM.norm>
0

>  <SCORE.heavy>
42

>  <SCORE.norm>
1.7552

>  <RMSD>
22.538

$$$$
2fcy_lig
 OpenBabel11021811433D
libRbt.so/2013.1/901 2013/11/27
 42 45  0  0  0  0  0  0  0  0999 V2000
   -6.2366   74.4138   11.8371 C   0  0  2  0  0  0  0  0  0  0  0  0
   -6.3730   73.0096   12.1145 O   0  0  0  0  0  0  0  0  0  0  0  0
   -5.7119   74.4966   10.4029 C   0  0  2  0  0  0  0  0  0  0  0  0
   -6.6206   73.7470    9.5248 N   0  0  0  0  0  0  0  0  0  0  0  0
   -4.3127   73.8796   10.3330 C   0  0  1  0  0  0  0  0  0  0  0  0
   -3.7985   73.9494    9.0001 O   0  0  0  0  0  0  0  0  0  0  0  0
   -3.3864   74.6129   11.3036 C   0  0  2  0  0  0  0  0  0  0  0  0
   -2.1095   73.9748   11.3079 O   0  0  0  0  0  0  0  0  0  0  0  0
   -3.9719   74.5141   12.7131 C   0  0  2  0  0  0  0  0  0  0  0  0
   -5.2993   75.0624   12.7209 O   0  0  0  0  0  0  0  0  0  0  0  0
   -3.0575   75.2539   13.6930 C   0  0  0  0  0  0  0  0  0  0  0  0
   -2.5492   76.5000   13.1001 N   0  0  0  0  0  0  0  0  0  0  0  0
   -7.7155   70.6275   15.3035 C   0  0  2  0  0  0  0  0  0  0  0  0
   -8.3072   70.0326   16.5113 N   0  0  0  0  0  0  0  0  0  0  0  0
   -6.8057   71.8029   15.6660 C   0  0  0  0  0  0  0  0  0  0  0  0
   -6.1191   72.2930   14.3871 C   0  0  2  0  0  0  0  0  0  0  0  0
   -5.3063   73.4782   14.6961 N   0  0  0  0  0  0  0  0  0  0  0  0
   -7.1226   72.6852   13.2987 C   0  0  2  0  0  0  0  0  0  0  0  0
   -8.2179   71.6562   13.0422 C   0  0  2  0  0  0  0  0  0  0  0  0
   -9.2380   72.3539   12.3096 O   0  0  0  0  0  0  0  0  0  0  0  0
   -8.8096   71.1146   14.3502 C   0  0  1  0  0  0  0  0  0  0  0  0
   -9.6890   70.0160   14.0950 O   0  0  0  0  0  0  0  0  0  0  0  0
   -9.4846   71.8774   10.9767 C   0  0  1  0  0  0  0  0  0  0  0  0
   -8.8145   72.8518   10.0066 C   0  0  2  0  0  0  0  0  0  0  0  0
   -9.6807   73.9635    9.7667 O   0  0  0  0  0  0  0  0  0  0  0  0
   -8.7746   71.9600    8.7690 C   0  0  1  0  0  0  0  0  0  0  0  0
   -8.2744   70.6617    9.3823 C   0  0  2  0  0  0  0  0  0  0  0  0
   -8.8633   70.6059   10.6979 O   0  0  0  0  0  0  0  0  0  0  0  0
   -6.7429   70.6938    9.4434 C   0  0  0  0  0  0  0  0  0  0  0  0
   -6.2080   69.3712    9.3373 O   0  0  0  0  0  0  0  0  0  0  0  0
  -10.7239   70.6640    8.9085 C   0  0  2  0  0  0  0  0  0  0  0  0
  -10.1038   71.7816    8.2543 O   0  0  0  0  0  0  0  0  0  0  0  0
  -10.2388   69.3605    8.2662 C   0  0  1  0  0  0  0  0  0  0  0  0
  -14.7745   70.3550    8.0824 N   0  0  0  0  0  0  0  0  0  0  0  0
  -10.9648   68.1591    8.8810 C   0  0  1  0  0  0  0  0  0  0  0  0
  -10.5665   67.9828   10.2442 O   0  0  0  0  0  0  0  0  0  0  0  0
  -12.4789   68.3739    8.8053 C   0  0  2  0  0  0  0  0  0  0  0  0
  -12.8695   68.3855    7.4280 O   0  0  0  0  0  0  0  0  0  0  0  0
  -12.8416   69.7084    9.4656 C   0  0  1  0  0  0  0  0  0  0  0  0
  -12.1532   70.7858    8.8037 O   0  0  0  0  0  0  0  0  0  0  0  0
  -14.3515   69.9604    9.4341 C   0  0  0  0  0  0  0  0  0  0  0  0
  -10.5437   69.4013    6.8280 N   0  0  0  0  0  0  0  0  0  0  0  0
  1  2  1  1  0  0  0
  1  3  1  0  0  0  0
  1 10  1  0  0  0  0
  3  4  1  6  0  0  0
  3  5  1  0  0  0  0
  5  6  1  6  0  0  0
  5  7  1  0  0  0  0
  7  8  1  1  0  0  0
  7  9  1  0  0  0  0
  9 10  1  0  0  0  0
  9 11  1  1  0  0  0
 11 12  1  0  0  0  0
 13 14  1  1  0  0  0
 13 15  1  0  0  0  0
 13 21  1  0  0  0  0
 16 15  1  0  0  0  0
 16 17  1  1  0  0  0
 18  2  1  6  0  0  0
 18 16  1  0  0  0  0
 19 18  1  0  0  0  0
 19 20  1  6  0  0  0
 21 19  1  0  0  0  0
 21 22  1  6  0  0  0
 23 20  1  1  0  0  0
 23 24  1  0  0  0  0
 23 28  1  0  0  0  0
 24 25  1  6  0  0  0
 24 26  1  0  0  0  0
 26 27  1  0  0  0  0
 26 32  1  1  0  0  0
 27 28  1  0  0  0  0
 27 29  1  1  0  0  0
 29 30  1  0  0  0  0
 31 32  1  6  0  0  0
 31 40  1  0  0  0  0
 33 31  1  0  0  0  0
 33 42  1  6  0  0  0
 35 33  1  0  0  0  0
 35 36  1  1  0  0  0
 37 35  1  0  0  0  0
 37 38  1  6  0  0  0
 37 39  1  0  0  0  0
 39 40  1  0  0  0  0
 39 41  1  6  0  0  0
 41 34  1  0  0  0  0
M  END
>  <CHROM.1>
-167.06114761,39.85819162,-103.14948426,116.47036372,-102.82953039,-87.48867851
-150.17960878,-80.38680107,-75.25852183,-8.10525718,71.81157692,11.00969617
-0.34623431,-0.58507077,-1.44774311

>  <Name>
2fcy_lig

>  <RI>
3.12105e+07

>  <Rbt.Current_Directory>
/home/afrankz/demos/rdock_decoys_rna/rnas/2fcy

>  <Rbt.Executable>
rbdock ($Id: //depot/dev/client3/rdock/2013.1/src/exe/rbdock.cxx#4 $)

>  <Rbt.Library>
libRbt.so (2013.1, Build901 2013/11/27)

>  <Rbt.Parameter_File>
/export/apps/rDock/src/rDock_2013.1_src/data/scripts/dock_solv.prm

>  <Rbt.Receptor>
prm/blind_docking_80.prm

>  <SCORE>
77.6651

>  <SCORE.INTER>
6.17717

>  <SCORE.INTER.CONST>
1

>  <SCORE.INTER.POLAR>
-1.26025

>  <SCORE.INTER.ROT>
9

>  <SCORE.INTER.SOLV>
28.5577

>  <SCORE.INTER.VDW>
-10.8003

>  <SCORE.INTER.norm>
0.147075

>  <SCORE.INTRA>
28.3735

>  <SCORE.INTRA.DIHEDRAL>
11.9369

>  <SCORE.INTRA.DIHEDRAL.0>
17.3446

>  <SCORE.INTRA.POLAR>
0

>  <SCORE.INTRA.POLAR.0>
0

>  <SCORE.INTRA.REPUL>
0

>  <SCORE.INTRA.REPUL.0>
0

>  <SCORE.INTRA.SOLV>
8.06516

>  <SCORE.INTRA.SOLV.lig_0>
-112.452

>  <SCORE.INTRA.VDW>
18.3725

>  <SCORE.INTRA.VDW.0>
-5.95059

>  <SCORE.INTRA.norm>
0.675559

>  <SCORE.RESTR>
43.1144

>  <SCORE.RESTR.CAVITY>
43.1144

>  <SCORE.RESTR.norm>
1.02653

>  <SCORE.SYSTEM>
0

>  <SCORE.SYSTEM.CONST>
0

>  <SCORE.SYSTEM.DIHEDRAL>
0

>  <SCORE.SYSTEM.SOLV>
0

>  <SCORE.SYSTEM.norm>
0

>  <SCORE.heavy>
42

>  <SCORE.norm>
1.84917

>  <RMSD>
22.550

$$$$
2fcy_lig
 OpenBabel11021811433D
libRbt.so/2013.1/901 2013/11/27
 42 45  0  0  0  0  0  0  0  0999 V2000
   -6.2809   74.3629   11.9293 C   0  0  2  0  0  0  0  0  0  0  0  0
   -6.3601   72.9587   12.2276 O   0  0  0  0  0  0  0  0  0  0  0  0
   -5.6642   74.4484   10.5324 C   0  0  2  0  0  0  0  0  0  0  0  0
   -6.4686   73.6338    9.6115 N   0  0  0  0  0  0  0  0  0  0  0  0
   -4.2322   73.9087   10.5708 C   0  0  1  0  0  0  0  0  0  0  0  0
   -3.6322   73.9824    9.2745 O   0  0  0  0  0  0  0  0  0  0  0  0
   -3.4157   74.7096   11.5854 C   0  0  2  0  0  0  0  0  0  0  0  0
   -2.1095   74.1434   11.6900 O   0  0  0  0  0  0  0  0  0  0  0  0
   -4.0905   74.6044   12.9539 C   0  0  2  0  0  0  0  0  0  0  0  0
   -5.4429   75.0785   12.8599 O   0  0  0  0  0  0  0  0  0  0  0  0
   -3.2867   75.4114   13.9769 C   0  0  0  0  0  0  0  0  0  0  0  0
   -2.0578   74.7003   14.3598 N   0  0  0  0  0  0  0  0  0  0  0  0
   -7.8613   70.5155   15.2974 C   0  0  2  0  0  0  0  0  0  0  0  0
   -8.5072   69.8989   16.4660 N   0  0  0  0  0  0  0  0  0  0  0  0
   -6.9430   71.6619   15.7255 C   0  0  0  0  0  0  0  0  0  0  0  0
   -6.2017   72.1737   14.4863 C   0  0  2  0  0  0  0  0  0  0  0  0
   -5.3782   73.3334   14.8578 N   0  0  0  0  0  0  0  0  0  0  0  0
   -7.1578   72.6163   13.3748 C   0  0  2  0  0  0  0  0  0  0  0  0
   -8.2625   71.6170   13.0502 C   0  0  2  0  0  0  0  0  0  0  0  0
   -9.2422   72.3552   12.3023 O   0  0  0  0  0  0  0  0  0  0  0  0
   -8.9110   71.0508   14.3204 C   0  0  1  0  0  0  0  0  0  0  0  0
   -9.8013   69.9777   14.0028 O   0  0  0  0  0  0  0  0  0  0  0  0
   -9.4888   71.8874   10.9663 C   0  0  1  0  0  0  0  0  0  0  0  0
   -8.8373   72.8799   10.0019 C   0  0  2  0  0  0  0  0  0  0  0  0
   -9.7203   73.9814    9.7765 O   0  0  0  0  0  0  0  0  0  0  0  0
   -8.7913   72.0001    8.7560 C   0  0  1  0  0  0  0  0  0  0  0  0
   -8.2698   70.7033    9.3549 C   0  0  2  0  0  0  0  0  0  0  0  0
   -8.8512   70.6274   10.6728 O   0  0  0  0  0  0  0  0  0  0  0  0
   -6.7386   70.7564    9.4087 C   0  0  0  0  0  0  0  0  0  0  0  0
   -6.1914   69.4354    9.4523 O   0  0  0  0  0  0  0  0  0  0  0  0
  -10.7139   70.6632    8.8782 C   0  0  2  0  0  0  0  0  0  0  0  0
  -10.1204   71.8077    8.2462 O   0  0  0  0  0  0  0  0  0  0  0  0
  -10.2175   69.3853    8.1943 C   0  0  1  0  0  0  0  0  0  0  0  0
  -14.7668   70.3354    8.1049 N   0  0  0  0  0  0  0  0  0  0  0  0
  -10.9161   68.1564    8.7859 C   0  0  1  0  0  0  0  0  0  0  0  0
  -10.4963   67.9499   10.1385 O   0  0  0  0  0  0  0  0  0  0  0  0
  -12.4343   68.3490    8.7365 C   0  0  2  0  0  0  0  0  0  0  0  0
  -12.8440   68.3914    7.3654 O   0  0  0  0  0  0  0  0  0  0  0  0
  -12.8086   69.6592    9.4375 C   0  0  1  0  0  0  0  0  0  0  0  0
  -12.1463   70.7649    8.7959 O   0  0  0  0  0  0  0  0  0  0  0  0
  -14.3225   69.8879    9.4331 C   0  0  0  0  0  0  0  0  0  0  0  0
  -10.5429   69.4599    6.7619 N   0  0  0  0  0  0  0  0  0  0  0  0
  1  2  1  1  0  0  0
  1  3  1  0  0  0  0
  1 10  1  0  0  0  0
  3  4  1  6  0  0  0
  3  5  1  0  0  0  0
  5  6  1  6  0  0  0
  5  7  1  0  0  0  0
  7  8  1  1  0  0  0
  7  9  1  0  0  0  0
  9 10  1  0  0  0  0
  9 11  1  1  0  0  0
 11 12  1  0  0  0  0
 13 14  1  1  0  0  0
 13 15  1  0  0  0  0
 13 21  1  0  0  0  0
 16 15  1  0  0  0  0
 16 17  1  1  0  0  0
 18  2  1  6  0  0  0
 18 16  1  0  0  0  0
 19 18  1  0  0  0  0
 19 20  1  6  0  0  0
 21 19  1  0  0  0  0
 21 22  1  6  0  0  0
 23 20  1  1  0  0  0
 23 24  1  0  0  0  0
 23 28  1  0  0  0  0
 24 25  1  6  0  0  0
 24 26  1  0  0  0  0
 26 27  1  0  0  0  0
 26 32  1  1  0  0  0
 27 28  1  0  0  0  0
 27 29  1  1  0  0  0
 29 30  1  0  0  0  0
 31 32  1  6  0  0  0
 31 40  1  0  0  0  0
 33 31  1  0  0  0  0
 33 42  1  6  0  0  0
 35 33  1  0  0  0  0
 35 36  1  1  0  0  0
 37 35  1  0  0  0  0
 37 38  1  6  0  0  0
 37 39  1  0  0  0  0
 39 40  1  0  0  0  0
 39 41  1  6  0  0  0
 41 34  1  0  0  0  0
M  END
>  <CHROM.1>
-167.76808389,-75.51185005,-108.21899762,118.89293069,-106.24103244,-88.37517847
-157.23116241,-80.86788774,-76.28131389,-8.11208781,71.76199368,11.08684039
-0.38583497,-0.57145131,-1.44711795

>  <Name>
2fcy_lig

>  <RI>
3.12105e+07

>  <Rbt.Current_Directory>
/home/afrankz/demos/rdock_decoys_rna/rnas/2fcy

>  <Rbt.Executable>
rbdock ($Id: //depot/dev/client3/rdock/2013.1/src/exe/rbdock.cxx#4 $)

>  <Rbt.Library>
libRbt.so (2013.1, Build901 2013/11/27)

>  <Rbt.Parameter_File>
/export/apps/rDock/src/rDock_2013.1_src/data/scripts/dock_solv.prm

>  <Rbt.Receptor>
prm/blind_docking_80.prm

>  <SCORE>
75.1491

>  <SCORE.INTER>
5.70967

>  <SCORE.INTER.CONST>
1

>  <SCORE.INTER.POLAR>
-0.932899

>  <SCORE.INTER.ROT>
9

>  <SCORE.INTER.SOLV>
24.894

>  <SCORE.INTER.VDW>
-10.9819

>  <SCORE.INTER.norm>
0.135945

>  <SCORE.INTRA>
25.6478

>  <SCORE.INTRA.DIHEDRAL>
11.8674

>  <SCORE.INTRA.DIHEDRAL.0>
17.3446

>  <SCORE.INTRA.POLAR>
0

>  <SCORE.INTRA.POLAR.0>
0

>  <SCORE.INTRA.REPUL>
0

>  <SCORE.INTRA.REPUL.0>
0

>  <SCORE.INTRA.SOLV>
7.93569

>  <SCORE.INTRA.SOLV.lig_0>
-112.452

>  <SCORE.INTRA.VDW>
15.7463

>  <SCORE.INTRA.VDW.0>
-5.95059

>  <SCORE.INTRA.norm>
0.610662

>  <SCORE.RESTR>
43.7917

>  <SCORE.RESTR.CAVITY>
43.7917

>  <SCORE.RESTR.norm>
1.04266

>  <SCORE.SYSTEM>
0

>  <SCORE.SYSTEM.CONST>
0

>  <SCORE.SYSTEM.DIHEDRAL>
0

>  <SCORE.SYSTEM.SOLV>
0

>  <SCORE.SYSTEM.norm>
0

>  <SCORE.heavy>
42

>  <SCORE.norm>
1.78926

>  <RMSD>
22.578

$$$$
2fcy_lig
 OpenBabel11021811433D
libRbt.so/2013.1/901 2013/11/27
 42 45  0  0  0  0  0  0  0  0999 V2000
   -5.7937   74.5545   12.0201 C   0  0  2  0  0  0  0  0  0  0  0  0
   -5.7683   73.1842   12.4546 O   0  0  0  0  0  0  0  0  0  0  0  0
   -5.5889   74.5053   10.5053 C   0  0  2  0  0  0  0  0  0  0  0  0
   -6.6057   73.6203    9.9208 N   0  0  0  0  0  0  0  0  0  0  0  0
   -4.1951   73.9539   10.1945 C   0  0  1  0  0  0  0  0  0  0  0  0
   -3.9783   73.9023    8.7817 O   0  0  0  0  0  0  0  0  0  0  0  0
   -3.1405   74.8337   10.8666 C   0  0  2  0  0  0  0  0  0  0  0  0
   -1.8489   74.2633   10.6565 O   0  0  0  0  0  0  0  0  0  0  0  0
   -3.4088   74.8613   12.3721 C   0  0  2  0  0  0  0  0  0  0  0  0
   -4.7406   75.3413   12.6136 O   0  0  0  0  0  0  0  0  0  0  0  0
   -2.3642   75.7479   13.0551 C   0  0  0  0  0  0  0  0  0  0  0  0
   -2.5560   75.7593   14.5131 N   0  0  0  0  0  0  0  0  0  0  0  0
   -7.8496   70.6859   15.1142 C   0  0  2  0  0  0  0  0  0  0  0  0
   -8.6982   70.0520   16.1344 N   0  0  0  0  0  0  0  0  0  0  0  0
   -6.9457   71.7485   15.7424 C   0  0  0  0  0  0  0  0  0  0  0  0
   -5.9980   72.2757   14.6602 C   0  0  2  0  0  0  0  0  0  0  0  0
   -5.1784   73.3604   15.2192 N   0  0  0  0  0  0  0  0  0  0  0  0
   -6.7485   72.8343   13.4477 C   0  0  2  0  0  0  0  0  0  0  0  0
   -7.8440   71.9246   12.9029 C   0  0  2  0  0  0  0  0  0  0  0  0
   -8.6569   72.7606   12.0637 O   0  0  0  0  0  0  0  0  0  0  0  0
   -8.7079   71.3359   14.0262 C   0  0  1  0  0  0  0  0  0  0  0  0
   -9.5968   70.3388   13.5156 O   0  0  0  0  0  0  0  0  0  0  0  0
   -9.4142   72.0786   11.0509 C   0  0  1  0  0  0  0  0  0  0  0  0
   -9.2795   72.8803    9.7552 C   0  0  2  0  0  0  0  0  0  0  0  0
  -10.2330   73.9454    9.7474 O   0  0  0  0  0  0  0  0  0  0  0  0
   -9.7118   71.8016    8.7663 C   0  0  1  0  0  0  0  0  0  0  0  0
   -8.9195   70.6146    9.2911 C   0  0  2  0  0  0  0  0  0  0  0  0
   -8.8916   70.7745   10.7244 O   0  0  0  0  0  0  0  0  0  0  0  0
   -7.5113   70.6451    8.6860 C   0  0  0  0  0  0  0  0  0  0  0  0
   -6.5826   71.2298    9.6037 O   0  0  0  0  0  0  0  0  0  0  0  0
  -11.4715   70.3769    8.1565 C   0  0  2  0  0  0  0  0  0  0  0  0
  -11.1200   71.5526    8.9019 O   0  0  0  0  0  0  0  0  0  0  0  0
  -11.9000   69.2672    9.1220 C   0  0  1  0  0  0  0  0  0  0  0  0
   -8.2339   68.2701    6.4546 N   0  0  0  0  0  0  0  0  0  0  0  0
  -12.1823   67.9708    8.3550 C   0  0  1  0  0  0  0  0  0  0  0  0
  -13.3493   68.1204    7.5400 O   0  0  0  0  0  0  0  0  0  0  0  0
  -10.9784   67.6141    7.4787 C   0  0  2  0  0  0  0  0  0  0  0  0
   -9.8678   67.3134    8.3305 O   0  0  0  0  0  0  0  0  0  0  0  0
  -10.6371   68.7987    6.5686 C   0  0  1  0  0  0  0  0  0  0  0  0
  -10.3441   69.9610    7.3661 O   0  0  0  0  0  0  0  0  0  0  0  0
   -9.4494   68.4834    5.6552 C   0  0  0  0  0  0  0  0  0  0  0  0
  -10.8034   69.0168   10.0695 N   0  0  0  0  0  0  0  0  0  0  0  0
  1  2  1  1  0  0  0
  1  3  1  0  0  0  0
  1 10  1  0  0  0  0
  3  4  1  6  0  0  0
  3  5  1  0  0  0  0
  5  6  1  6  0  0  0
  5  7  1  0  0  0  0
  7  8  1  1  0  0  0
  7  9  1  0  0  0  0
  9 10  1  0  0  0  0
  9 11  1  1  0  0  0
 11 12  1  0  0  0  0
 13 14  1  1  0  0  0
 13 15  1  0  0  0  0
 13 21  1  0  0  0  0
 16 15  1  0  0  0  0
 16 17  1  1  0  0  0
 18  2  1  6  0  0  0
 18 16  1  0  0  0  0
 19 18  1  0  0  0  0
 19 20  1  6  0  0  0
 21 19  1  0  0  0  0
 21 22  1  6  0  0  0
 23 20  1  1  0  0  0
 23 24  1  0  0  0  0
 23 28  1  0  0  0  0
 24 25  1  1  0  0  0
 24 26  1  0  0  0  0
 26 27  1  0  0  0  0
 26 32  1  1  0  0  0
 27 28  1  0  0  0  0
 27 29  1  6  0  0  0
 29 30  1  0  0  0  0
 31 32  1  1  0  0  0
 31 40  1  0  0  0  0
 33 31  1  0  0  0  0
 33 42  1  1  0  0  0
 35 33  1  0  0  0  0
 35 36  1  6  0  0  0
 37 35  1  0  0  0  0
 37 38  1  1  0  0  0
 37 39  1  0  0  0  0
 39 40  1  0  0  0  0
 39 41  1  1  0  0  0
 41 34  1  0  0  0  0
M  END
>  <CHROM.1>
-138.58388385,-177.80000447,-122.77837412,156.74755951,-136.10559937,-169.34338630
98.17674121,113.04635244,-64.28199620,-7.79065511,71.72779292,10.74566626
-0.57257209,-0.63311439,-1.65016372

>  <Name>
2fcy_lig

>  <RI>
3.12105e+07

>  <Rbt.Current_Directory>
/home/afrankz/demos/rdock_decoys_rna/rnas/2fcy

>  <Rbt.Executable>
rbdock ($Id: //depot/dev/client3/rdock/2013.1/src/exe/rbdock.cxx#4 $)

>  <Rbt.Library>
libRbt.so (2013.1, Build901 2013/11/27)

>  <Rbt.Parameter_File>
/export/apps/rDock/src/rDock_2013.1_src/data/scripts/dock_solv.prm

>  <Rbt.Receptor>
prm/blind_docking_80.prm

>  <SCORE>
84.564

>  <SCORE.INTER>
16.2719

>  <SCORE.INTER.CONST>
1

>  <SCORE.INTER.POLAR>
-0.464277

>  <SCORE.INTER.ROT>
9

>  <SCORE.INTER.SOLV>
23.8712

>  <SCORE.INTER.VDW>
-5.16157

>  <SCORE.INTER.norm>
0.387426

>  <SCORE.INTRA>
22.9997

>  <SCORE.INTRA.DIHEDRAL>
15.1547

>  <SCORE.INTRA.DIHEDRAL.0>
17.3446

>  <SCORE.INTRA.POLAR>
0

>  <SCORE.INTRA.POLAR.0>
0

>  <SCORE.INTRA.REPUL>
0.262834

>  <SCORE.INTRA.REPUL.0>
0

>  <SCORE.INTRA.SOLV>
10.7044

>  <SCORE.INTRA.SOLV.lig_0>
-112.452

>  <SCORE.INTRA.VDW>
8.75594

>  <SCORE.INTRA.VDW.0>
-5.95059

>  <SCORE.INTRA.norm>
0.547611

>  <SCORE.RESTR>
45.2925

>  <SCORE.RESTR.CAVITY>
45.2925

>  <SCORE.RESTR.norm>
1.07839

>  <SCORE.SYSTEM>
0

>  <SCORE.SYSTEM.CONST>
0

>  <SCORE.SYSTEM.DIHEDRAL>
0

>  <SCORE.SYSTEM.SOLV>
0

>  <SCORE.SYSTEM.norm>
0

>  <SCORE.heavy>
42

>  <SCORE.norm>
2.01343

>  <RMSD>
22.592

$$$$
2fcy_lig
 OpenBabel11021811433D
libRbt.so/2013.1/901 2013/11/27
 42 45  0  0  0  0  0  0  0  0999 V2000
  -10.8090   71.7860   12.2259 C   0  0  2  0  0  0  0  0  0  0  0  0
  -11.2079   70.6656   11.4179 O   0  0  0  0  0  0  0  0  0  0  0  0
  -10.1651   71.1797   13.4736 C   0  0  2  0  0  0  0  0  0  0  0  0
   -9.0923   70.2676   13.0542 N   0  0  0  0  0  0  0  0  0  0  0  0
  -11.2171   70.3982   14.2646 C   0  0  1  0  0  0  0  0  0  0  0  0
  -10.6386   69.8245   15.4402 O   0  0  0  0  0  0  0  0  0  0  0  0
  -12.3694   71.3323   14.6357 C   0  0  2  0  0  0  0  0  0  0  0  0
  -13.3926   70.5806   15.2882 O   0  0  0  0  0  0  0  0  0  0  0  0
  -12.9577   71.9225   13.3532 C   0  0  2  0  0  0  0  0  0  0  0  0
  -11.9273   72.6060   12.6228 O   0  0  0  0  0  0  0  0  0  0  0  0
  -14.1068   72.8679   13.7130 C   0  0  0  0  0  0  0  0  0  0  0  0
  -14.7018   73.4569   12.5040 N   0  0  0  0  0  0  0  0  0  0  0  0
   -9.5141   69.2543    7.8422 C   0  0  2  0  0  0  0  0  0  0  0  0
   -9.0246   68.9994    6.4790 N   0  0  0  0  0  0  0  0  0  0  0  0
  -11.0314   69.4508    7.8472 C   0  0  0  0  0  0  0  0  0  0  0  0
  -11.4957   69.5788    9.3015 C   0  0  2  0  0  0  0  0  0  0  0  0
  -12.9392   69.8559    9.3276 N   0  0  0  0  0  0  0  0  0  0  0  0
  -10.7880   70.7168   10.0429 C   0  0  2  0  0  0  0  0  0  0  0  0
   -9.2714   70.7312    9.8877 C   0  0  2  0  0  0  0  0  0  0  0  0
   -8.8540   72.0416   10.3033 O   0  0  0  0  0  0  0  0  0  0  0  0
   -8.8446   70.4978    8.4323 C   0  0  1  0  0  0  0  0  0  0  0  0
   -7.4288   70.3187    8.3393 O   0  0  0  0  0  0  0  0  0  0  0  0
   -7.4389   72.2193   10.4765 C   0  0  1  0  0  0  0  0  0  0  0  0
   -7.1720   73.7214   10.5862 C   0  0  2  0  0  0  0  0  0  0  0  0
   -7.0808   74.2903    9.2778 O   0  0  0  0  0  0  0  0  0  0  0  0
   -5.7835   73.6673   11.2166 C   0  0  1  0  0  0  0  0  0  0  0  0
   -6.0102   72.6141   12.2897 C   0  0  2  0  0  0  0  0  0  0  0  0
   -6.9393   71.6726   11.7142 O   0  0  0  0  0  0  0  0  0  0  0  0
   -6.5833   73.2891   13.5412 C   0  0  0  0  0  0  0  0  0  0  0  0
   -5.7999   74.4312   13.8993 O   0  0  0  0  0  0  0  0  0  0  0  0
   -3.5470   73.7794   10.5210 C   0  0  2  0  0  0  0  0  0  0  0  0
   -4.8295   73.1919   10.2537 O   0  0  0  0  0  0  0  0  0  0  0  0
   -3.7124   74.9487   11.4970 C   0  0  1  0  0  0  0  0  0  0  0  0
   -1.1074   73.9671    7.2240 N   0  0  0  0  0  0  0  0  0  0  0  0
   -2.3704   75.6549   11.7176 C   0  0  1  0  0  0  0  0  0  0  0  0
   -1.4709   74.7999   12.4305 O   0  0  0  0  0  0  0  0  0  0  0  0
   -1.7600   76.0418   10.3677 C   0  0  2  0  0  0  0  0  0  0  0  0
   -2.6031   77.0200    9.7498 O   0  0  0  0  0  0  0  0  0  0  0  0
   -1.6558   74.7996    9.4765 C   0  0  1  0  0  0  0  0  0  0  0  0
   -2.9610   74.2231    9.2846 O   0  0  0  0  0  0  0  0  0  0  0  0
   -1.0303   75.1312    8.1189 C   0  0  0  0  0  0  0  0  0  0  0  0
   -4.6568   75.9163   10.9182 N   0  0  0  0  0  0  0  0  0  0  0  0
  1  2  1  6  0  0  0
  1  3  1  0  0  0  0
  1 10  1  0  0  0  0
  3  4  1  6  0  0  0
  3  5  1  0  0  0  0
  5  6  1  1  0  0  0
  5  7  1  0  0  0  0
  7  8  1  6  0  0  0
  7  9  1  0  0  0  0
  9 10  1  0  0  0  0
  9 11  1  1  0  0  0
 11 12  1  0  0  0  0
 13 14  1  6  0  0  0
 13 15  1  0  0  0  0
 13 21  1  0  0  0  0
 16 15  1  0  0  0  0
 16 17  1  6  0  0  0
 18  2  1  1  0  0  0
 18 16  1  0  0  0  0
 19 18  1  0  0  0  0
 19 20  1  6  0  0  0
 21 19  1  0  0  0  0
 21 22  1  1  0  0  0
 23 20  1  1  0  0  0
 23 24  1  0  0  0  0
 23 28  1  0  0  0  0
 24 25  1  6  0  0  0
 24 26  1  0  0  0  0
 26 27  1  0  0  0  0
 26 32  1  6  0  0  0
 27 28  1  0  0  0  0
 27 29  1  1  0  0  0
 29 30  1  0  0  0  0
 31 32  1  6  0  0  0
 31 40  1  0  0  0  0
 33 31  1  0  0  0  0
 33 42  1  6  0  0  0
 35 33  1  0  0  0  0
 35 36  1  6  0  0  0
 37 35  1  0  0  0  0
 37 38  1  6  0  0  0
 37 39  1  0  0  0  0
 39 40  1  0  0  0  0
 39 41  1  6  0  0  0
 41 34  1  0  0  0  0
M  END
>  <CHROM.1>
-129.74841322,-179.94559576,-170.65631262,169.10999517,166.77122816,149.24659878
-49.66221690,-13.86365150,-172.45995685,-7.75045236,72.48473868,11.07458977
-3.10787171,-0.44984480,-1.99743684

>  <Name>
2fcy_lig

>  <RI>
3.12105e+07

>  <Rbt.Current_Directory>
/home/afrankz/demos/rdock_decoys_rna/rnas/2fcy

>  <Rbt.Executable>
rbdock ($Id: //depot/dev/client3/rdock/2013.1/src/exe/rbdock.cxx#4 $)

>  <Rbt.Library>
libRbt.so (2013.1, Build901 2013/11/27)

>  <Rbt.Parameter_File>
/export/apps/rDock/src/rDock_2013.1_src/data/scripts/dock_solv.prm

>  <Rbt.Receptor>
prm/blind_docking_80.prm

>  <SCORE>
71.8891

>  <SCORE.INTER>
7.71714

>  <SCORE.INTER.CONST>
1

>  <SCORE.INTER.POLAR>
-1.58882

>  <SCORE.INTER.ROT>
9

>  <SCORE.INTER.SOLV>
28.8081

>  <SCORE.INTER.VDW>
-8.76187

>  <SCORE.INTER.norm>
0.183741

>  <SCORE.INTRA>
12.7962

>  <SCORE.INTRA.DIHEDRAL>
2.05566

>  <SCORE.INTRA.DIHEDRAL.0>
17.3446

>  <SCORE.INTRA.POLAR>
0

>  <SCORE.INTRA.POLAR.0>
0

>  <SCORE.INTRA.REPUL>
0

>  <SCORE.INTRA.REPUL.0>
0

>  <SCORE.INTRA.SOLV>
0.711946

>  <SCORE.INTRA.SOLV.lig_0>
-112.452

>  <SCORE.INTRA.VDW>
11.4124

>  <SCORE.INTRA.VDW.0>
-5.95059

>  <SCORE.INTRA.norm>
0.304672

>  <SCORE.RESTR>
51.3757

>  <SCORE.RESTR.CAVITY>
51.3757

>  <SCORE.RESTR.norm>
1.22323

>  <SCORE.SYSTEM>
0

>  <SCORE.SYSTEM.CONST>
0

>  <SCORE.SYSTEM.DIHEDRAL>
0

>  <SCORE.SYSTEM.SOLV>
0

>  <SCORE.SYSTEM.norm>
0

>  <SCORE.heavy>
42

>  <SCORE.norm>
1.71164

>  <RMSD>
22.599

$$$$
2fcy_lig
 OpenBabel11021811433D
libRbt.so/2013.1/901 2013/11/27
 42 45  0  0  0  0  0  0  0  0999 V2000
   -5.7423   74.5782   12.0537 C   0  0  2  0  0  0  0  0  0  0  0  0
   -5.7415   73.2145   12.5093 O   0  0  0  0  0  0  0  0  0  0  0  0
   -5.5670   74.5009   10.5364 C   0  0  2  0  0  0  0  0  0  0  0  0
   -6.6154   73.6318    9.9847 N   0  0  0  0  0  0  0  0  0  0  0  0
   -4.1929   73.9111   10.2089 C   0  0  1  0  0  0  0  0  0  0  0  0
   -4.0039   73.8327    8.7933 O   0  0  0  0  0  0  0  0  0  0  0  0
   -3.1052   74.7754   10.8475 C   0  0  2  0  0  0  0  0  0  0  0  0
   -1.8318   74.1708   10.6227 O   0  0  0  0  0  0  0  0  0  0  0  0
   -3.3445   74.8326   12.3570 C   0  0  2  0  0  0  0  0  0  0  0  0
   -4.6597   75.3483   12.6153 O   0  0  0  0  0  0  0  0  0  0  0  0
   -2.2665   75.7041   13.0067 C   0  0  0  0  0  0  0  0  0  0  0  0
   -2.4028   75.7057   14.4710 N   0  0  0  0  0  0  0  0  0  0  0  0
   -7.9516   70.7616   15.1064 C   0  0  2  0  0  0  0  0  0  0  0  0
   -8.8529   70.1443   16.0910 N   0  0  0  0  0  0  0  0  0  0  0  0
   -7.0980   71.8510   15.7586 C   0  0  0  0  0  0  0  0  0  0  0  0
   -6.0929   72.3611   14.7209 C   0  0  2  0  0  0  0  0  0  0  0  0
   -5.3196   73.4699   15.2984 N   0  0  0  0  0  0  0  0  0  0  0  0
   -6.7755   72.8788   13.4514 C   0  0  2  0  0  0  0  0  0  0  0  0
   -7.8269   71.9421   12.8670 C   0  0  2  0  0  0  0  0  0  0  0  0
   -8.5970   72.7461   11.9589 O   0  0  0  0  0  0  0  0  0  0  0  0
   -8.7501   71.3725   13.9523 C   0  0  1  0  0  0  0  0  0  0  0  0
   -9.5965   70.3518   13.4167 O   0  0  0  0  0  0  0  0  0  0  0  0
   -9.3817   72.0222   10.9974 C   0  0  1  0  0  0  0  0  0  0  0  0
   -9.3794   72.8290    9.6979 C   0  0  2  0  0  0  0  0  0  0  0  0
  -10.3891   73.8393    9.7575 O   0  0  0  0  0  0  0  0  0  0  0  0
   -9.8168   71.7271    8.7372 C   0  0  1  0  0  0  0  0  0  0  0  0
   -8.9262   70.5865    9.2041 C   0  0  2  0  0  0  0  0  0  0  0  0
   -8.8107   70.7489   10.6327 O   0  0  0  0  0  0  0  0  0  0  0  0
   -7.5659   70.6948    8.5055 C   0  0  0  0  0  0  0  0  0  0  0  0
   -7.2753   72.0572    8.1801 O   0  0  0  0  0  0  0  0  0  0  0  0
  -11.5396   70.2226    8.2202 C   0  0  2  0  0  0  0  0  0  0  0  0
  -11.1967   71.4002    8.9667 O   0  0  0  0  0  0  0  0  0  0  0  0
  -11.8446   69.0739    9.1868 C   0  0  1  0  0  0  0  0  0  0  0  0
   -8.3140   68.4013    6.2486 N   0  0  0  0  0  0  0  0  0  0  0  0
  -12.1140   67.7799    8.4113 C   0  0  1  0  0  0  0  0  0  0  0  0
  -13.3403   67.8851    7.6809 O   0  0  0  0  0  0  0  0  0  0  0  0
  -10.9570   67.5025    7.4475 C   0  0  2  0  0  0  0  0  0  0  0  0
   -9.7767   67.2428    8.2150 O   0  0  0  0  0  0  0  0  0  0  0  0
  -10.7387   68.7206    6.5437 C   0  0  1  0  0  0  0  0  0  0  0  0
  -10.4498   69.8807    7.3459 O   0  0  0  0  0  0  0  0  0  0  0  0
   -9.6024   68.4844    5.5450 C   0  0  0  0  0  0  0  0  0  0  0  0
  -10.6743   68.8618   10.0519 N   0  0  0  0  0  0  0  0  0  0  0  0
  1  2  1  1  0  0  0
  1  3  1  0  0  0  0
  1 10  1  0  0  0  0
  3  4  1  1  0  0  0
  3  5  1  0  0  0  0
  5  6  1  6  0  0  0
  5  7  1  0  0  0  0
  7  8  1  1  0  0  0
  7  9  1  0  0  0  0
  9 10  1  0  0  0  0
  9 11  1  1  0  0  0
 11 12  1  0  0  0  0
 13 14  1  1  0  0  0
 13 15  1  0  0  0  0
 13 21  1  0  0  0  0
 16 15  1  0  0  0  0
 16 17  1  1  0  0  0
 18  2  1  6  0  0  0
 18 16  1  0  0  0  0
 19 18  1  0  0  0  0
 19 20  1  6  0  0  0
 21 19  1  0  0  0  0
 21 22  1  6  0  0  0
 23 20  1  1  0  0  0
 23 24  1  0  0  0  0
 23 28  1  0  0  0  0
 24 25  1  1  0  0  0
 24 26  1  0  0  0  0
 26 27  1  0  0  0  0
 26 32  1  1  0  0  0
 27 28  1  0  0  0  0
 27 29  1  6  0  0  0
 29 30  1  0  0  0  0
 31 32  1  1  0  0  0
 31 40  1  0  0  0  0
 33 31  1  0  0  0  0
 33 42  1  1  0  0  0
 35 33  1  0  0  0  0
 35 36  1  6  0  0  0
 37 35  1  0  0  0  0
 37 38  1  1  0  0  0
 37 39  1  0  0  0  0
 39 40  1  0  0  0  0
 39 41  1  6  0  0  0
 41 34  1  0  0  0  0
M  END
>  <CHROM.1>
-134.11140109,-175.87121797,-121.82969152,162.19333804,-144.62879390,-170.59124382
28.17844244,113.28917484,-67.76864392,-7.82389679,71.71713161,10.68871443
-0.58459195,-0.63052202,-1.66803023

>  <Name>
2fcy_lig

>  <RI>
3.12105e+07

>  <Rbt.Current_Directory>
/home/afrankz/demos/rdock_decoys_rna/rnas/2fcy

>  <Rbt.Executable>
rbdock ($Id: //depot/dev/client3/rdock/2013.1/src/exe/rbdock.cxx#4 $)

>  <Rbt.Library>
libRbt.so (2013.1, Build901 2013/11/27)

>  <Rbt.Parameter_File>
/export/apps/rDock/src/rDock_2013.1_src/data/scripts/dock_solv.prm

>  <Rbt.Receptor>
prm/blind_docking_80.prm

>  <SCORE>
81.0876

>  <SCORE.INTER>
15.1764

>  <SCORE.INTER.CONST>
1

>  <SCORE.INTER.POLAR>
-0.847707

>  <SCORE.INTER.ROT>
9

>  <SCORE.INTER.SOLV>
25.3567

>  <SCORE.INTER.VDW>
-5.1089

>  <SCORE.INTER.norm>
0.361344

>  <SCORE.INTRA>
21.8027

>  <SCORE.INTRA.DIHEDRAL>
12.8617

>  <SCORE.INTRA.DIHEDRAL.0>
17.3446

>  <SCORE.INTRA.POLAR>
0

>  <SCORE.INTRA.POLAR.0>
0

>  <SCORE.INTRA.REPUL>
0.217413

>  <SCORE.INTRA.REPUL.0>
0

>  <SCORE.INTRA.SOLV>
10.0069

>  <SCORE.INTRA.SOLV.lig_0>
-112.452

>  <SCORE.INTRA.VDW>
9.28136

>  <SCORE.INTRA.VDW.0>
-5.95059

>  <SCORE.INTRA.norm>
0.519113

>  <SCORE.RESTR>
44.1084

>  <SCORE.RESTR.CAVITY>
44.1084

>  <SCORE.RESTR.norm>
1.0502

>  <SCORE.SYSTEM>
0

>  <SCORE.SYSTEM.CONST>
0

>  <SCORE.SYSTEM.DIHEDRAL>
0

>  <SCORE.SYSTEM.SOLV>
0

>  <SCORE.SYSTEM.norm>
0

>  <SCORE.heavy>
42

>  <SCORE.norm>
1.93066

>  <RMSD>
22.623

$$$$
2fcy_lig
 OpenBabel11021811433D
libRbt.so/2013.1/901 2013/11/27
 42 45  0  0  0  0  0  0  0  0999 V2000
   -4.8841   74.7191   11.3644 C   0  0  2  0  0  0  0  0  0  0  0  0
   -5.1159   73.3846   11.8468 O   0  0  0  0  0  0  0  0  0  0  0  0
   -3.9455   74.5621   10.1672 C   0  0  2  0  0  0  0  0  0  0  0  0
   -4.5518   73.6235    9.2131 N   0  0  0  0  0  0  0  0  0  0  0  0
   -2.5996   74.0077   10.6407 C   0  0  1  0  0  0  0  0  0  0  0  0
   -1.7021   73.8560    9.5374 O   0  0  0  0  0  0  0  0  0  0  0  0
   -2.0049   74.9480   11.6895 C   0  0  2  0  0  0  0  0  0  0  0  0
   -0.7982   74.3809   12.1995 O   0  0  0  0  0  0  0  0  0  0  0  0
   -2.9940   75.0820   12.8483 C   0  0  2  0  0  0  0  0  0  0  0  0
   -4.2535   75.5608   12.3515 O   0  0  0  0  0  0  0  0  0  0  0  0
   -2.4134   76.0298   13.9011 C   0  0  0  0  0  0  0  0  0  0  0  0
   -2.1061   77.3429   13.3147 N   0  0  0  0  0  0  0  0  0  0  0  0
   -7.5112   71.5763   14.7860 C   0  0  2  0  0  0  0  0  0  0  0  0
   -8.5012   71.1822   15.7997 N   0  0  0  0  0  0  0  0  0  0  0  0
   -6.8251   72.8868   15.1767 C   0  0  0  0  0  0  0  0  0  0  0  0
   -5.7186   73.1738   14.1566 C   0  0  2  0  0  0  0  0  0  0  0  0
   -5.1026   74.4732   14.4616 N   0  0  0  0  0  0  0  0  0  0  0  0
   -6.2484   73.2333   12.7210 C   0  0  2  0  0  0  0  0  0  0  0  0
   -7.1489   72.0681   12.3261 C   0  0  2  0  0  0  0  0  0  0  0  0
   -7.8330   72.4955   11.1373 O   0  0  0  0  0  0  0  0  0  0  0  0
   -8.1774   71.7462   13.4185 C   0  0  1  0  0  0  0  0  0  0  0  0
   -8.8769   70.5355   13.1185 O   0  0  0  0  0  0  0  0  0  0  0  0
   -8.8950   71.6389   10.6872 C   0  0  1  0  0  0  0  0  0  0  0  0
   -9.3583   72.1550    9.3239 C   0  0  2  0  0  0  0  0  0  0  0  0
  -10.2965   73.2183    9.5058 O   0  0  0  0  0  0  0  0  0  0  0  0
  -10.0898   70.9074    8.8373 C   0  0  1  0  0  0  0  0  0  0  0  0
   -9.0771   69.8344    9.2055 C   0  0  2  0  0  0  0  0  0  0  0  0
   -8.4711   70.2835   10.4350 O   0  0  0  0  0  0  0  0  0  0  0  0
   -8.0489   69.7070    8.0755 C   0  0  0  0  0  0  0  0  0  0  0  0
   -7.2690   70.9015    7.9690 O   0  0  0  0  0  0  0  0  0  0  0  0
  -12.3086   70.1542    8.7484 C   0  0  2  0  0  0  0  0  0  0  0  0
  -11.2976   70.7248    9.5932 O   0  0  0  0  0  0  0  0  0  0  0  0
  -13.6206   70.0324    9.5301 C   0  0  1  0  0  0  0  0  0  0  0  0
  -11.0481   67.2272    6.0385 N   0  0  0  0  0  0  0  0  0  0  0  0
  -14.6862   69.3321    8.6802 C   0  0  1  0  0  0  0  0  0  0  0  0
  -15.0724   70.1656    7.5827 O   0  0  0  0  0  0  0  0  0  0  0  0
  -14.1392   68.0018    8.1553 C   0  0  2  0  0  0  0  0  0  0  0  0
  -13.9133   67.1307    9.2688 O   0  0  0  0  0  0  0  0  0  0  0  0
  -12.8256   68.2472    7.4052 C   0  0  1  0  0  0  0  0  0  0  0  0
  -11.8677   68.8663    8.2837 O   0  0  0  0  0  0  0  0  0  0  0  0
  -12.2475   66.9464    6.8414 C   0  0  0  0  0  0  0  0  0  0  0  0
  -13.3794   69.2215   10.7332 N   0  0  0  0  0  0  0  0  0  0  0  0
  1  2  1  1  0  0  0
  1  3  1  0  0  0  0
  1 10  1  0  0  0  0
  3  4  1  6  0  0  0
  3  5  1  0  0  0  0
  5  6  1  6  0  0  0
  5  7  1  0  0  0  0
  7  8  1  1  0  0  0
  7  9  1  0  0  0  0
  9 10  1  0  0  0  0
  9 11  1  1  0  0  0
 11 12  1  0  0  0  0
 13 14  1  1  0  0  0
 13 15  1  0  0  0  0
 13 21  1  0  0  0  0
 16 15  1  0  0  0  0
 16 17  1  1  0  0  0
 18  2  1  6  0  0  0
 18 16  1  0  0  0  0
 19 18  1  0  0  0  0
 19 20  1  6  0  0  0
 21 19  1  0  0  0  0
 21 22  1  6  0  0  0
 23 20  1  6  0  0  0
 23 24  1  0  0  0  0
 23 28  1  0  0  0  0
 24 25  1  1  0  0  0
 24 26  1  0  0  0  0
 26 27  1  0  0  0  0
 26 32  1  1  0  0  0
 27 28  1  0  0  0  0
 27 29  1  6  0  0  0
 29 30  1  0  0  0  0
 31 32  1  1  0  0  0
 31 40  1  0  0  0  0
 33 31  1  0  0  0  0
 33 42  1  1  0  0  0
 35 33  1  0  0  0  0
 35 36  1  6  0  0  0
 37 35  1  0  0  0  0
 37 38  1  1  0  0  0
 37 39  1  0  0  0  0
 39 40  1  0  0  0  0
 39 41  1  1  0  0  0
 41 34  1  0  0  0  0
M  END
>  <CHROM.1>
-163.22944349,57.22958009,-101.08174190,-170.88616405,-172.28609120,146.20944624
66.07352182,-176.81008990,175.50813745,-8.03095883,71.79073667,10.71616023
-0.46555163,-0.46247033,-1.80384066

>  <Name>
2fcy_lig

>  <RI>
3.12105e+07

>  <Rbt.Current_Directory>
/home/afrankz/demos/rdock_decoys_rna/rnas/2fcy

>  <Rbt.Executable>
rbdock ($Id: //depot/dev/client3/rdock/2013.1/src/exe/rbdock.cxx#4 $)

>  <Rbt.Library>
libRbt.so (2013.1, Build901 2013/11/27)

>  <Rbt.Parameter_File>
/export/apps/rDock/src/rDock_2013.1_src/data/scripts/dock_solv.prm

>  <Rbt.Receptor>
prm/blind_docking_80.prm

>  <SCORE>
66.165

>  <SCORE.INTER>
12.1042

>  <SCORE.INTER.CONST>
1

>  <SCORE.INTER.POLAR>
-0.831532

>  <SCORE.INTER.ROT>
9

>  <SCORE.INTER.SOLV>
27.4161

>  <SCORE.INTER.VDW>
-7.89742

>  <SCORE.INTER.norm>
0.288196

>  <SCORE.INTRA>
4.04635

>  <SCORE.INTRA.DIHEDRAL>
-5.22544

>  <SCORE.INTRA.DIHEDRAL.0>
17.3446

>  <SCORE.INTRA.POLAR>
0

>  <SCORE.INTRA.POLAR.0>
0

>  <SCORE.INTRA.REPUL>
0.479678

>  <SCORE.INTRA.REPUL.0>
0

>  <SCORE.INTRA.SOLV>
0.292133

>  <SCORE.INTRA.SOLV.lig_0>
-112.452

>  <SCORE.INTRA.VDW>
4.11461

>  <SCORE.INTRA.VDW.0>
-5.95059

>  <SCORE.INTRA.norm>
0.0963418

>  <SCORE.RESTR>
50.0144

>  <SCORE.RESTR.CAVITY>
50.0144

>  <SCORE.RESTR.norm>
1.19082

>  <SCORE.SYSTEM>
0

>  <SCORE.SYSTEM.CONST>
0

>  <SCORE.SYSTEM.DIHEDRAL>
0

>  <SCORE.SYSTEM.SOLV>
0

>  <SCORE.SYSTEM.norm>
0

>  <SCORE.heavy>
42

>  <SCORE.norm>
1.57536

>  <RMSD>
22.653

$$$$
2fcy_lig
 OpenBabel11021811433D
libRbt.so/2013.1/901 2013/11/27
 42 45  0  0  0  0  0  0  0  0999 V2000
   -6.1617   72.7631   11.1543 C   0  0  2  0  0  0  0  0  0  0  0  0
   -6.2637   71.7760   10.1140 O   0  0  0  0  0  0  0  0  0  0  0  0
   -5.7508   74.0567   10.4494 C   0  0  2  0  0  0  0  0  0  0  0  0
   -6.7184   74.3384    9.3802 N   0  0  0  0  0  0  0  0  0  0  0  0
   -4.3559   73.8882    9.8418 C   0  0  1  0  0  0  0  0  0  0  0  0
   -3.9476   75.0885    9.1798 O   0  0  0  0  0  0  0  0  0  0  0  0
   -3.3634   73.5209   10.9454 C   0  0  2  0  0  0  0  0  0  0  0  0
   -2.0845   73.2698   10.3632 O   0  0  0  0  0  0  0  0  0  0  0  0
   -3.8367   72.2355   11.6257 C   0  0  2  0  0  0  0  0  0  0  0  0
   -5.1642   72.4252   12.1398 O   0  0  0  0  0  0  0  0  0  0  0  0
   -2.8553   71.8629   12.7401 C   0  0  0  0  0  0  0  0  0  0  0  0
   -2.7422   72.9479   13.7262 N   0  0  0  0  0  0  0  0  0  0  0  0
  -10.3669   70.9929    9.6696 C   0  0  2  0  0  0  0  0  0  0  0  0
  -11.7280   70.4484    9.5523 N   0  0  0  0  0  0  0  0  0  0  0  0
   -9.4350   70.3545    8.6376 C   0  0  0  0  0  0  0  0  0  0  0  0
   -8.0742   71.0535    8.7199 C   0  0  2  0  0  0  0  0  0  0  0  0
   -7.1354   70.3983    7.7978 N   0  0  0  0  0  0  0  0  0  0  0  0
   -7.4691   70.9908   10.1254 C   0  0  2  0  0  0  0  0  0  0  0  0
   -8.4226   71.3872   11.2471 C   0  0  2  0  0  0  0  0  0  0  0  0
   -7.8197   70.8985   12.4561 O   0  0  0  0  0  0  0  0  0  0  0  0
   -9.8063   70.7473   11.0725 C   0  0  1  0  0  0  0  0  0  0  0  0
  -10.7378   71.2828   12.0163 O   0  0  0  0  0  0  0  0  0  0  0  0
   -8.1193   71.6436   13.6474 C   0  0  1  0  0  0  0  0  0  0  0  0
   -7.4860   70.9034   14.8266 C   0  0  2  0  0  0  0  0  0  0  0  0
   -8.3589   69.8589   15.2634 O   0  0  0  0  0  0  0  0  0  0  0  0
   -7.4965   72.0371   15.8479 C   0  0  1  0  0  0  0  0  0  0  0  0
   -6.9749   73.1814   14.9930 C   0  0  2  0  0  0  0  0  0  0  0  0
   -7.5118   72.9515   13.6740 O   0  0  0  0  0  0  0  0  0  0  0  0
   -5.4422   73.1526   14.9983 C   0  0  0  0  0  0  0  0  0  0  0  0
   -4.9165   74.2479   14.2431 O   0  0  0  0  0  0  0  0  0  0  0  0
   -8.8327   73.2449   17.3493 C   0  0  2  0  0  0  0  0  0  0  0  0
   -8.8451   72.3069   16.2623 O   0  0  0  0  0  0  0  0  0  0  0  0
   -8.5856   72.5007   18.6654 C   0  0  1  0  0  0  0  0  0  0  0  0
  -12.5781   74.8238   18.1523 N   0  0  0  0  0  0  0  0  0  0  0  0
   -8.6695   73.4685   19.8507 C   0  0  1  0  0  0  0  0  0  0  0  0
   -7.5724   74.3870   19.8201 O   0  0  0  0  0  0  0  0  0  0  0  0
   -9.9927   74.2371   19.7999 C   0  0  2  0  0  0  0  0  0  0  0  0
  -11.0662   73.3101   19.9940 O   0  0  0  0  0  0  0  0  0  0  0  0
  -10.1337   74.9269   18.4387 C   0  0  1  0  0  0  0  0  0  0  0  0
  -10.0879   73.9465   17.3854 O   0  0  0  0  0  0  0  0  0  0  0  0
  -11.4350   75.7282   18.3454 C   0  0  0  0  0  0  0  0  0  0  0  0
   -9.6260   71.4742   18.8294 N   0  0  0  0  0  0  0  0  0  0  0  0
  1  2  1  6  0  0  0
  1  3  1  0  0  0  0
  1 10  1  0  0  0  0
  3  4  1  6  0  0  0
  3  5  1  0  0  0  0
  5  6  1  1  0  0  0
  5  7  1  0  0  0  0
  7  8  1  6  0  0  0
  7  9  1  0  0  0  0
  9 10  1  0  0  0  0
  9 11  1  1  0  0  0
 11 12  1  0  0  0  0
 13 14  1  1  0  0  0
 13 15  1  0  0  0  0
 13 21  1  0  0  0  0
 16 15  1  0  0  0  0
 16 17  1  6  0  0  0
 18  2  1  6  0  0  0
 18 16  1  0  0  0  0
 19 18  1  0  0  0  0
 19 20  1  1  0  0  0
 21 19  1  0  0  0  0
 21 22  1  1  0  0  0
 23 20  1  6  0  0  0
 23 24  1  0  0  0  0
 23 28  1  0  0  0  0
 24 25  1  1  0  0  0
 24 26  1  0  0  0  0
 26 27  1  0  0  0  0
 26 32  1  6  0  0  0
 27 28  1  0  0  0  0
 27 29  1  6  0  0  0
 29 30  1  0  0  0  0
 31 32  1  6  0  0  0
 31 40  1  0  0  0  0
 33 31  1  0  0  0  0
 33 42  1  1  0  0  0
 35 33  1  0  0  0  0
 35 36  1  6  0  0  0
 37 35  1  0  0  0  0
 37 38  1  6  0  0  0
 37 39  1  0  0  0  0
 39 40  1  0  0  0  0
 39 41  1  1  0  0  0
 41 34  1  0  0  0  0
M  END
>  <CHROM.1>
-131.42829699,58.25720002,128.37384523,150.97072320,175.39346703,172.30697344
-177.82273050,-83.13607362,-75.63862712,-7.55705603,72.60590696,13.67104229
-1.13568641,0.28360519,1.28919355

>  <Name>
2fcy_lig

>  <RI>
3.12105e+07

>  <Rbt.Current_Directory>
/home/afrankz/demos/rdock_decoys_rna/rnas/2fcy

>  <Rbt.Executable>
rbdock ($Id: //depot/dev/client3/rdock/2013.1/src/exe/rbdock.cxx#4 $)

>  <Rbt.Library>
libRbt.so (2013.1, Build901 2013/11/27)

>  <Rbt.Parameter_File>
/export/apps/rDock/src/rDock_2013.1_src/data/scripts/dock_solv.prm

>  <Rbt.Receptor>
prm/blind_docking_80.prm

>  <SCORE>
80.5716

>  <SCORE.INTER>
29.7866

>  <SCORE.INTER.CONST>
1

>  <SCORE.INTER.POLAR>
-0.905477

>  <SCORE.INTER.ROT>
9

>  <SCORE.INTER.SOLV>
27.3637

>  <SCORE.INTER.VDW>
4.15476

>  <SCORE.INTER.norm>
0.709205

>  <SCORE.INTRA>
5.91536

>  <SCORE.INTRA.DIHEDRAL>
3.38032

>  <SCORE.INTRA.DIHEDRAL.0>
17.3446

>  <SCORE.INTRA.POLAR>
0

>  <SCORE.INTRA.POLAR.0>
0

>  <SCORE.INTRA.REPUL>
0

>  <SCORE.INTRA.REPUL.0>
0

>  <SCORE.INTRA.SOLV>
2.07749

>  <SCORE.INTRA.SOLV.lig_0>
-112.452

>  <SCORE.INTRA.VDW>
3.18645

>  <SCORE.INTRA.VDW.0>
-5.95059

>  <SCORE.INTRA.norm>
0.140842

>  <SCORE.RESTR>
44.8696

>  <SCORE.RESTR.CAVITY>
44.8696

>  <SCORE.RESTR.norm>
1.06832

>  <SCORE.SYSTEM>
0

>  <SCORE.SYSTEM.CONST>
0

>  <SCORE.SYSTEM.DIHEDRAL>
0

>  <SCORE.SYSTEM.SOLV>
0

>  <SCORE.SYSTEM.norm>
0

>  <SCORE.heavy>
42

>  <SCORE.norm>
1.91837

>  <RMSD>
22.692

$$$$
2fcy_lig
 OpenBabel11021811433D
libRbt.so/2013.1/901 2013/11/27
 42 45  0  0  0  0  0  0  0  0999 V2000
   -9.0597   72.2554    9.7694 C   0  0  2  0  0  0  0  0  0  0  0  0
   -7.9094   71.8390   10.5248 O   0  0  0  0  0  0  0  0  0  0  0  0
  -10.0336   72.8346   10.7965 C   0  0  2  0  0  0  0  0  0  0  0  0
   -9.3443   73.8838   11.5600 N   0  0  0  0  0  0  0  0  0  0  0  0
  -10.4902   71.7279   11.7505 C   0  0  1  0  0  0  0  0  0  0  0  0
  -11.4065   72.2455   12.7191 O   0  0  0  0  0  0  0  0  0  0  0  0
  -11.1404   70.6018   10.9461 C   0  0  2  0  0  0  0  0  0  0  0  0
  -11.4777   69.5295   11.8259 O   0  0  0  0  0  0  0  0  0  0  0  0
  -10.1293   70.0787    9.9248 C   0  0  2  0  0  0  0  0  0  0  0  0
   -9.6955   71.1579    9.0825 O   0  0  0  0  0  0  0  0  0  0  0  0
  -10.7728   68.9565    9.1060 C   0  0  0  0  0  0  0  0  0  0  0  0
  -12.0358   69.4047    8.5005 N   0  0  0  0  0  0  0  0  0  0  0  0
   -4.1424   70.3405    9.4247 C   0  0  2  0  0  0  0  0  0  0  0  0
   -2.8432   70.0002    8.8253 N   0  0  0  0  0  0  0  0  0  0  0  0
   -5.2746   70.1482    8.4139 C   0  0  0  0  0  0  0  0  0  0  0  0
   -6.6068   70.3883    9.1314 C   0  0  2  0  0  0  0  0  0  0  0  0
   -7.7055   70.2948    8.1592 N   0  0  0  0  0  0  0  0  0  0  0  0
   -6.6775   71.7716    9.7849 C   0  0  2  0  0  0  0  0  0  0  0  0
   -5.4610   72.1408   10.6264 C   0  0  2  0  0  0  0  0  0  0  0  0
   -5.5386   73.5633   10.8124 O   0  0  0  0  0  0  0  0  0  0  0  0
   -4.1474   71.7905    9.9149 C   0  0  1  0  0  0  0  0  0  0  0  0
   -3.0316   71.9598   10.7932 O   0  0  0  0  0  0  0  0  0  0  0  0
   -5.9282   74.0000   12.1246 C   0  0  1  0  0  0  0  0  0  0  0  0
   -5.4586   72.9401   13.1224 C   0  0  2  0  0  0  0  0  0  0  0  0
   -6.4204   71.8846   13.1908 O   0  0  0  0  0  0  0  0  0  0  0  0
   -5.5250   73.7739   14.3986 C   0  0  1  0  0  0  0  0  0  0  0  0
   -4.8632   75.0575   13.9224 C   0  0  2  0  0  0  0  0  0  0  0  0
   -5.2671   75.2106   12.5461 O   0  0  0  0  0  0  0  0  0  0  0  0
   -3.3427   74.9178   14.0589 C   0  0  0  0  0  0  0  0  0  0  0  0
   -2.6737   75.8195   13.1724 O   0  0  0  0  0  0  0  0  0  0  0  0
   -7.1729   73.4667   16.0382 C   0  0  2  0  0  0  0  0  0  0  0  0
   -6.8961   74.0259   14.7451 O   0  0  0  0  0  0  0  0  0  0  0  0
   -7.3125   71.9457   15.9195 C   0  0  1  0  0  0  0  0  0  0  0  0
  -11.0239   74.2675   17.4658 N   0  0  0  0  0  0  0  0  0  0  0  0
   -7.7087   71.3383   17.2695 C   0  0  1  0  0  0  0  0  0  0  0  0
   -6.6332   71.4642   18.2053 O   0  0  0  0  0  0  0  0  0  0  0  0
   -8.9543   72.0454   17.8107 C   0  0  2  0  0  0  0  0  0  0  0  0
  -10.0528   71.7673   16.9357 O   0  0  0  0  0  0  0  0  0  0  0  0
   -8.7011   73.5555   17.8727 C   0  0  1  0  0  0  0  0  0  0  0  0
   -8.3783   74.0525   16.5606 O   0  0  0  0  0  0  0  0  0  0  0  0
   -9.9133   74.3076   18.4286 C   0  0  0  0  0  0  0  0  0  0  0  0
   -8.3722   71.6438   14.9454 N   0  0  0  0  0  0  0  0  0  0  0  0
  1  2  1  1  0  0  0
  1  3  1  0  0  0  0
  1 10  1  0  0  0  0
  3  4  1  1  0  0  0
  3  5  1  0  0  0  0
  5  6  1  1  0  0  0
  5  7  1  0  0  0  0
  7  8  1  1  0  0  0
  7  9  1  0  0  0  0
  9 10  1  0  0  0  0
  9 11  1  6  0  0  0
 11 12  1  0  0  0  0
 13 14  1  6  0  0  0
 13 15  1  0  0  0  0
 13 21  1  0  0  0  0
 16 15  1  0  0  0  0
 16 17  1  6  0  0  0
 18  2  1  1  0  0  0
 18 16  1  0  0  0  0
 19 18  1  0  0  0  0
 19 20  1  6  0  0  0
 21 19  1  0  0  0  0
 21 22  1  1  0  0  0
 23 20  1  6  0  0  0
 23 24  1  0  0  0  0
 23 28  1  0  0  0  0
 24 25  1  1  0  0  0
 24 26  1  0  0  0  0
 26 27  1  0  0  0  0
 26 32  1  6  0  0  0
 27 28  1  0  0  0  0
 27 29  1  6  0  0  0
 29 30  1  0  0  0  0
 31 32  1  6  0  0  0
 31 40  1  0  0  0  0
 33 31  1  0  0  0  0
 33 42  1  6  0  0  0
 35 33  1  0  0  0  0
 35 36  1  1  0  0  0
 37 35  1  0  0  0  0
 37 38  1  6  0  0  0
 37 39  1  0  0  0  0
 39 40  1  0  0  0  0
 39 41  1  6  0  0  0
 41 34  1  0  0  0  0
M  END
>  <CHROM.1>
-155.79813721,54.23665093,-86.35072997,106.39596337,29.27836325,119.43026749
157.05008819,-75.84934215,-69.47701725,-7.51012413,72.26636532,12.66785597
1.47500437,-0.30737298,-1.92386372

>  <Name>
2fcy_lig

>  <RI>
3.12105e+07

>  <Rbt.Current_Directory>
/home/afrankz/demos/rdock_decoys_rna/rnas/2fcy

>  <Rbt.Executable>
rbdock ($Id: //depot/dev/client3/rdock/2013.1/src/exe/rbdock.cxx#4 $)

>  <Rbt.Library>
libRbt.so (2013.1, Build901 2013/11/27)

>  <Rbt.Parameter_File>
/export/apps/rDock/src/rDock_2013.1_src/data/scripts/dock_solv.prm

>  <Rbt.Receptor>
prm/blind_docking_80.prm

>  <SCORE>
98.567

>  <SCORE.INTER>
44.3269

>  <SCORE.INTER.CONST>
1

>  <SCORE.INTER.POLAR>
0

>  <SCORE.INTER.ROT>
9

>  <SCORE.INTER.SOLV>
33.0428

>  <SCORE.INTER.VDW>
8.93701

>  <SCORE.INTER.norm>
1.0554

>  <SCORE.INTRA>
13.6856

>  <SCORE.INTRA.DIHEDRAL>
8.39313

>  <SCORE.INTRA.DIHEDRAL.0>
17.3446

>  <SCORE.INTRA.POLAR>
0

>  <SCORE.INTRA.POLAR.0>
0

>  <SCORE.INTRA.REPUL>
0.245502

>  <SCORE.INTRA.REPUL.0>
0

>  <SCORE.INTRA.SOLV>
5.44437

>  <SCORE.INTRA.SOLV.lig_0>
-112.452

>  <SCORE.INTRA.VDW>
5.53938

>  <SCORE.INTRA.VDW.0>
-5.95059

>  <SCORE.INTRA.norm>
0.325848

>  <SCORE.RESTR>
40.5544

>  <SCORE.RESTR.CAVITY>
40.5544

>  <SCORE.RESTR.norm>
0.965581

>  <SCORE.SYSTEM>
0

>  <SCORE.SYSTEM.CONST>
0

>  <SCORE.SYSTEM.DIHEDRAL>
0

>  <SCORE.SYSTEM.SOLV>
0

>  <SCORE.SYSTEM.norm>
0

>  <SCORE.heavy>
42

>  <SCORE.norm>
2.34683

>  <RMSD>
22.703

$$$$
2fcy_lig
 OpenBabel11021811433D
libRbt.so/2013.1/901 2013/11/27
 42 45  0  0  0  0  0  0  0  0999 V2000
   -4.4969   74.8991   12.6130 C   0  0  2  0  0  0  0  0  0  0  0  0
   -5.5581   74.1090   12.0501 O   0  0  0  0  0  0  0  0  0  0  0  0
   -3.7831   75.5329   11.4181 C   0  0  2  0  0  0  0  0  0  0  0  0
   -4.7723   76.2574   10.6084 N   0  0  0  0  0  0  0  0  0  0  0  0
   -3.1348   74.4370   10.5685 C   0  0  1  0  0  0  0  0  0  0  0  0
   -2.4564   75.0066    9.4455 O   0  0  0  0  0  0  0  0  0  0  0  0
   -2.1608   73.6354   11.4326 C   0  0  2  0  0  0  0  0  0  0  0  0
   -1.6305   72.5550   10.6649 O   0  0  0  0  0  0  0  0  0  0  0  0
   -2.9251   73.0456   12.6187 C   0  0  2  0  0  0  0  0  0  0  0  0
   -3.5530   74.1038   13.3593 O   0  0  0  0  0  0  0  0  0  0  0  0
   -1.9575   72.2484   13.4973 C   0  0  0  0  0  0  0  0  0  0  0  0
   -1.1829   73.1418   14.3717 N   0  0  0  0  0  0  0  0  0  0  0  0
   -7.1412   71.6585   15.0725 C   0  0  2  0  0  0  0  0  0  0  0  0
   -7.9077   70.9882   16.1337 N   0  0  0  0  0  0  0  0  0  0  0  0
   -6.8179   73.1017   15.4641 C   0  0  0  0  0  0  0  0  0  0  0  0
   -5.9106   73.7018   14.3852 C   0  0  2  0  0  0  0  0  0  0  0  0
   -5.6576   75.1163   14.6954 N   0  0  0  0  0  0  0  0  0  0  0  0
   -6.5384   73.6344   12.9899 C   0  0  2  0  0  0  0  0  0  0  0  0
   -7.1076   72.2711   12.6133 C   0  0  2  0  0  0  0  0  0  0  0  0
   -7.9672   72.5102   11.4872 O   0  0  0  0  0  0  0  0  0  0  0  0
   -7.9253   71.6582   13.7579 C   0  0  1  0  0  0  0  0  0  0  0  0
   -8.2824   70.3056   13.4613 O   0  0  0  0  0  0  0  0  0  0  0  0
   -8.7411   71.3839   11.0436 C   0  0  1  0  0  0  0  0  0  0  0  0
  -10.1693   71.8730   10.7978 C   0  0  2  0  0  0  0  0  0  0  0  0
  -10.8934   71.8818   12.0304 O   0  0  0  0  0  0  0  0  0  0  0  0
  -10.6635   70.7236    9.9243 C   0  0  1  0  0  0  0  0  0  0  0  0
   -9.4844   70.5728    8.9762 C   0  0  2  0  0  0  0  0  0  0  0  0
   -8.3143   70.8609    9.7690 O   0  0  0  0  0  0  0  0  0  0  0  0
   -9.6450   71.5614    7.8156 C   0  0  0  0  0  0  0  0  0  0  0  0
  -10.5786   71.0604    6.8544 O   0  0  0  0  0  0  0  0  0  0  0  0
  -12.0790   68.9253   10.4351 C   0  0  2  0  0  0  0  0  0  0  0  0
  -10.8112   69.5363   10.7193 O   0  0  0  0  0  0  0  0  0  0  0  0
  -12.0620   68.3455    9.0171 C   0  0  1  0  0  0  0  0  0  0  0  0
  -16.5927   69.8170   11.4090 N   0  0  0  0  0  0  0  0  0  0  0  0
  -13.4386   67.7780    8.6550 C   0  0  1  0  0  0  0  0  0  0  0  0
  -13.7209   66.6184    9.4450 O   0  0  0  0  0  0  0  0  0  0  0  0
  -14.5156   68.8410    8.8886 C   0  0  2  0  0  0  0  0  0  0  0  0
  -14.2992   69.9184    7.9710 O   0  0  0  0  0  0  0  0  0  0  0  0
  -14.4273   69.3528   10.3303 C   0  0  1  0  0  0  0  0  0  0  0  0
  -13.1211   69.9068   10.5747 O   0  0  0  0  0  0  0  0  0  0  0  0
  -15.5001   70.4059   10.6208 C   0  0  0  0  0  0  0  0  0  0  0  0
  -11.7405   69.4241    8.0703 N   0  0  0  0  0  0  0  0  0  0  0  0
  1  2  1  6  0  0  0
  1  3  1  0  0  0  0
  1 10  1  0  0  0  0
  3  4  1  6  0  0  0
  3  5  1  0  0  0  0
  5  6  1  6  0  0  0
  5  7  1  0  0  0  0
  7  8  1  6  0  0  0
  7  9  1  0  0  0  0
  9 10  1  0  0  0  0
  9 11  1  1  0  0  0
 11 12  1  0  0  0  0
 13 14  1  1  0  0  0
 13 15  1  0  0  0  0
 13 21  1  0  0  0  0
 16 15  1  0  0  0  0
 16 17  1  1  0  0  0
 18  2  1  6  0  0  0
 18 16  1  0  0  0  0
 19 18  1  0  0  0  0
 19 20  1  6  0  0  0
 21 19  1  0  0  0  0
 21 22  1  6  0  0  0
 23 20  1  6  0  0  0
 23 24  1  0  0  0  0
 23 28  1  0  0  0  0
 24 25  1  1  0  0  0
 24 26  1  0  0  0  0
 26 27  1  0  0  0  0
 26 32  1  1  0  0  0
 27 28  1  0  0  0  0
 27 29  1  6  0  0  0
 29 30  1  0  0  0  0
 31 32  1  6  0  0  0
 31 40  1  0  0  0  0
 33 31  1  0  0  0  0
 33 42  1  6  0  0  0
 35 33  1  0  0  0  0
 35 36  1  1  0  0  0
 37 35  1  0  0  0  0
 37 38  1  6  0  0  0
 37 39  1  0  0  0  0
 39 40  1  0  0  0  0
 39 41  1  6  0  0  0
 41 34  1  0  0  0  0
M  END
>  <CHROM.1>
-167.74664972,79.90742658,-19.42033983,-173.26667976,134.95370808,133.17745377
-79.10976288,69.44464539,103.26869573,-8.33772731,71.71830109,11.30258165
-0.28677485,-0.42819409,-1.60308482

>  <Name>
2fcy_lig

>  <RI>
3.12105e+07

>  <Rbt.Current_Directory>
/home/afrankz/demos/rdock_decoys_rna/rnas/2fcy

>  <Rbt.Executable>
rbdock ($Id: //depot/dev/client3/rdock/2013.1/src/exe/rbdock.cxx#4 $)

>  <Rbt.Library>
libRbt.so (2013.1, Build901 2013/11/27)

>  <Rbt.Parameter_File>
/export/apps/rDock/src/rDock_2013.1_src/data/scripts/dock_solv.prm

>  <Rbt.Receptor>
prm/blind_docking_80.prm

>  <SCORE>
105.479

>  <SCORE.INTER>
29.4467

>  <SCORE.INTER.CONST>
1

>  <SCORE.INTER.POLAR>
-0.427724

>  <SCORE.INTER.ROT>
9

>  <SCORE.INTER.SOLV>
25.3273

>  <SCORE.INTER.VDW>
3.01442

>  <SCORE.INTER.norm>
0.701111

>  <SCORE.INTRA>
22.4041

>  <SCORE.INTRA.DIHEDRAL>
8.52231

>  <SCORE.INTRA.DIHEDRAL.0>
17.3446

>  <SCORE.INTRA.POLAR>
0

>  <SCORE.INTRA.POLAR.0>
0

>  <SCORE.INTRA.REPUL>
0.00959036

>  <SCORE.INTRA.REPUL.0>
0

>  <SCORE.INTRA.SOLV>
1.77919

>  <SCORE.INTRA.SOLV.lig_0>
-112.452

>  <SCORE.INTRA.VDW>
17.2054

>  <SCORE.INTRA.VDW.0>
-5.95059

>  <SCORE.INTRA.norm>
0.533431

>  <SCORE.RESTR>
53.6287

>  <SCORE.RESTR.CAVITY>
53.6287

>  <SCORE.RESTR.norm>
1.27687

>  <SCORE.SYSTEM>
0

>  <SCORE.SYSTEM.CONST>
0

>  <SCORE.SYSTEM.DIHEDRAL>
0

>  <SCORE.SYSTEM.SOLV>
0

>  <SCORE.SYSTEM.norm>
0

>  <SCORE.heavy>
42

>  <SCORE.norm>
2.51142

>  <RMSD>
22.742

$$$$
2fcy_lig
 OpenBabel11021811433D
libRbt.so/2013.1/901 2013/11/27
 42 45  0  0  0  0  0  0  0  0999 V2000
   -5.3345   74.9064   11.8251 C   0  0  2  0  0  0  0  0  0  0  0  0
   -5.4805   73.5196   12.1752 O   0  0  0  0  0  0  0  0  0  0  0  0
   -5.0858   74.9215   10.3161 C   0  0  2  0  0  0  0  0  0  0  0  0
   -6.1768   74.1958    9.6515 N   0  0  0  0  0  0  0  0  0  0  0  0
   -3.7545   74.2308   10.0096 C   0  0  1  0  0  0  0  0  0  0  0  0
   -3.4976   74.2363    8.6025 O   0  0  0  0  0  0  0  0  0  0  0  0
   -2.6295   74.9419   10.7623 C   0  0  2  0  0  0  0  0  0  0  0  0
   -1.4052   74.2386   10.5522 O   0  0  0  0  0  0  0  0  0  0  0  0
   -2.9433   74.9134   12.2589 C   0  0  2  0  0  0  0  0  0  0  0  0
   -4.2189   75.5300   12.4937 O   0  0  0  0  0  0  0  0  0  0  0  0
   -1.8279   75.6318   13.0228 C   0  0  0  0  0  0  0  0  0  0  0  0
   -1.9238   77.0887   12.8472 N   0  0  0  0  0  0  0  0  0  0  0  0
   -7.8285   71.2886   14.8504 C   0  0  2  0  0  0  0  0  0  0  0  0
   -8.8213   70.7336   15.7826 N   0  0  0  0  0  0  0  0  0  0  0  0
   -7.2754   72.6163   15.3720 C   0  0  0  0  0  0  0  0  0  0  0  0
   -6.1571   73.0753   14.4309 C   0  0  2  0  0  0  0  0  0  0  0  0
   -5.6693   74.3930   14.8630 N   0  0  0  0  0  0  0  0  0  0  0  0
   -6.6305   73.2050   12.9802 C   0  0  2  0  0  0  0  0  0  0  0  0
   -7.4094   72.0040   12.4552 C   0  0  2  0  0  0  0  0  0  0  0  0
   -8.0786   72.4666   11.2710 O   0  0  0  0  0  0  0  0  0  0  0  0
   -8.4501   71.5112   13.4694 C   0  0  1  0  0  0  0  0  0  0  0  0
   -9.0288   70.2743   13.0451 O   0  0  0  0  0  0  0  0  0  0  0  0
   -9.1244   71.6162   10.7736 C   0  0  1  0  0  0  0  0  0  0  0  0
   -9.5057   72.1198    9.3805 C   0  0  2  0  0  0  0  0  0  0  0  0
  -10.4396   73.1958    9.4971 O   0  0  0  0  0  0  0  0  0  0  0  0
  -10.2241   70.8742    8.8698 C   0  0  1  0  0  0  0  0  0  0  0  0
   -9.2462   69.7948    9.3066 C   0  0  2  0  0  0  0  0  0  0  0  0
   -8.7035   70.2530   10.5620 O   0  0  0  0  0  0  0  0  0  0  0  0
   -8.1589   69.6411    8.2368 C   0  0  0  0  0  0  0  0  0  0  0  0
   -8.7258   69.1801    7.0069 O   0  0  0  0  0  0  0  0  0  0  0  0
  -12.4532   70.1780    8.6580 C   0  0  2  0  0  0  0  0  0  0  0  0
  -11.4738   70.7152    9.5600 O   0  0  0  0  0  0  0  0  0  0  0  0
  -13.8322   70.2026    9.3250 C   0  0  1  0  0  0  0  0  0  0  0  0
  -11.1127   66.9813    6.4348 N   0  0  0  0  0  0  0  0  0  0  0  0
  -14.8760   69.5402    8.4194 C   0  0  1  0  0  0  0  0  0  0  0  0
  -15.0981   70.3380    7.2521 O   0  0  0  0  0  0  0  0  0  0  0  0
  -14.3977   68.1441    8.0116 C   0  0  2  0  0  0  0  0  0  0  0  0
  -14.3392   67.3223    9.1824 O   0  0  0  0  0  0  0  0  0  0  0  0
  -13.0097   68.2442    7.3700 C   0  0  1  0  0  0  0  0  0  0  0  0
  -12.0819   68.8357    8.2985 O   0  0  0  0  0  0  0  0  0  0  0  0
  -12.4947   66.8727    6.9248 C   0  0  0  0  0  0  0  0  0  0  0  0
  -13.7611   69.4445   10.5834 N   0  0  0  0  0  0  0  0  0  0  0  0
  1  2  1  1  0  0  0
  1  3  1  0  0  0  0
  1 10  1  0  0  0  0
  3  4  1  6  0  0  0
  3  5  1  0  0  0  0
  5  6  1  6  0  0  0
  5  7  1  0  0  0  0
  7  8  1  1  0  0  0
  7  9  1  0  0  0  0
  9 10  1  0  0  0  0
  9 11  1  1  0  0  0
 11 12  1  0  0  0  0
 13 14  1  1  0  0  0
 13 15  1  0  0  0  0
 13 21  1  0  0  0  0
 16 15  1  0  0  0  0
 16 17  1  1  0  0  0
 18  2  1  6  0  0  0
 18 16  1  0  0  0  0
 19 18  1  0  0  0  0
 19 20  1  6  0  0  0
 21 19  1  0  0  0  0
 21 22  1  6  0  0  0
 23 20  1  6  0  0  0
 23 24  1  0  0  0  0
 23 28  1  0  0  0  0
 24 25  1  1  0  0  0
 24 26  1  0  0  0  0
 26 27  1  0  0  0  0
 26 32  1  1  0  0  0
 27 28  1  0  0  0  0
 27 29  1  6  0  0  0
 29 30  1  0  0  0  0
 31 32  1  1  0  0  0
 31 40  1  0  0  0  0
 33 31  1  0  0  0  0
 33 42  1  1  0  0  0
 35 33  1  0  0  0  0
 35 36  1  6  0  0  0
 37 35  1  0  0  0  0
 37 38  1  1  0  0  0
 37 39  1  0  0  0  0
 39 40  1  0  0  0  0
 39 41  1  1  0  0  0
 41 34  1  0  0  0  0
M  END
>  <CHROM.1>
-130.89389789,74.20088068,-100.15148251,-165.65644734,-168.53630674,144.69688250
-64.00359543,-171.61472084,-174.49547079,-8.40300408,71.73502382,10.60387161
-0.42102976,-0.51904668,-1.71035092

>  <Name>
2fcy_lig

>  <RI>
3.12105e+07

>  <Rbt.Current_Directory>
/home/afrankz/demos/rdock_decoys_rna/rnas/2fcy

>  <Rbt.Executable>
rbdock ($Id: //depot/dev/client3/rdock/2013.1/src/exe/rbdock.cxx#4 $)

>  <Rbt.Library>
libRbt.so (2013.1, Build901 2013/11/27)

>  <Rbt.Parameter_File>
/export/apps/rDock/src/rDock_2013.1_src/data/scripts/dock_solv.prm

>  <Rbt.Receptor>
prm/blind_docking_80.prm

>  <SCORE>
86.1183

>  <SCORE.INTER>
33.6708

>  <SCORE.INTER.CONST>
1

>  <SCORE.INTER.POLAR>
-2.07423

>  <SCORE.INTER.ROT>
9

>  <SCORE.INTER.SOLV>
29.5886

>  <SCORE.INTER.VDW>
9.89842

>  <SCORE.INTER.norm>
0.801685

>  <SCORE.INTRA>
5.33281

>  <SCORE.INTRA.DIHEDRAL>
2.03628

>  <SCORE.INTRA.DIHEDRAL.0>
17.3446

>  <SCORE.INTRA.POLAR>
0

>  <SCORE.INTRA.POLAR.0>
0

>  <SCORE.INTRA.REPUL>
0.155365

>  <SCORE.INTRA.REPUL.0>
0

>  <SCORE.INTRA.SOLV>
0.331387

>  <SCORE.INTRA.SOLV.lig_0>
-112.452

>  <SCORE.INTRA.VDW>
3.37215

>  <SCORE.INTRA.VDW.0>
-5.95059

>  <SCORE.INTRA.norm>
0.126972

>  <SCORE.RESTR>
47.1147

>  <SCORE.RESTR.CAVITY>
47.1147

>  <SCORE.RESTR.norm>
1.12178

>  <SCORE.SYSTEM>
0

>  <SCORE.SYSTEM.CONST>
0

>  <SCORE.SYSTEM.DIHEDRAL>
0

>  <SCORE.SYSTEM.SOLV>
0

>  <SCORE.SYSTEM.norm>
0

>  <SCORE.heavy>
42

>  <SCORE.norm>
2.05044

>  <RMSD>
22.828

$$$$
2fcy_lig
 OpenBabel11021811433D
libRbt.so/2013.1/901 2013/11/27
 42 45  0  0  0  0  0  0  0  0999 V2000
   -8.1421   70.9705   11.2784 C   0  0  2  0  0  0  0  0  0  0  0  0
   -8.1329   72.3923   11.0648 O   0  0  0  0  0  0  0  0  0  0  0  0
   -9.0673   70.4027   10.2011 C   0  0  2  0  0  0  0  0  0  0  0  0
   -8.5949   70.8583    8.8865 N   0  0  0  0  0  0  0  0  0  0  0  0
  -10.4935   70.9082   10.4323 C   0  0  1  0  0  0  0  0  0  0  0  0
  -11.3794   70.3863    9.4380 O   0  0  0  0  0  0  0  0  0  0  0  0
  -10.9563   70.4977   11.8306 C   0  0  2  0  0  0  0  0  0  0  0  0
  -12.2478   71.0522   12.0803 O   0  0  0  0  0  0  0  0  0  0  0  0
   -9.9839   71.0748   12.8605 C   0  0  2  0  0  0  0  0  0  0  0  0
   -8.6544   70.6110   12.5780 O   0  0  0  0  0  0  0  0  0  0  0  0
  -10.4317   70.6617   14.2650 C   0  0  0  0  0  0  0  0  0  0  0  0
  -11.7927   71.1426   14.5462 N   0  0  0  0  0  0  0  0  0  0  0  0
   -3.9472   72.4786   10.7191 C   0  0  2  0  0  0  0  0  0  0  0  0
   -2.5224   72.7732   10.5044 N   0  0  0  0  0  0  0  0  0  0  0  0
   -4.7424   72.6677    9.4258 C   0  0  0  0  0  0  0  0  0  0  0  0
   -6.1859   72.2205    9.6781 C   0  0  2  0  0  0  0  0  0  0  0  0
   -6.9904   72.4750    8.4744 N   0  0  0  0  0  0  0  0  0  0  0  0
   -6.8359   72.9737   10.8424 C   0  0  2  0  0  0  0  0  0  0  0  0
   -5.9911   73.0375   12.1100 C   0  0  2  0  0  0  0  0  0  0  0  0
   -6.5745   74.0786   12.9098 O   0  0  0  0  0  0  0  0  0  0  0  0
   -4.5289   73.3883   11.8040 C   0  0  1  0  0  0  0  0  0  0  0  0
   -3.7168   73.2503   12.9730 O   0  0  0  0  0  0  0  0  0  0  0  0
   -6.5244   73.8748   14.3312 C   0  0  1  0  0  0  0  0  0  0  0  0
   -7.1105   72.4919   14.6204 C   0  0  2  0  0  0  0  0  0  0  0  0
   -8.5360   72.5779   14.6856 O   0  0  0  0  0  0  0  0  0  0  0  0
   -6.5473   72.2875   16.0238 C   0  0  1  0  0  0  0  0  0  0  0  0
   -5.1102   72.7365   15.8108 C   0  0  2  0  0  0  0  0  0  0  0  0
   -5.1819   73.8146   14.8551 O   0  0  0  0  0  0  0  0  0  0  0  0
   -4.2899   71.5557   15.2789 C   0  0  0  0  0  0  0  0  0  0  0  0
   -4.7527   71.1659   13.9826 O   0  0  0  0  0  0  0  0  0  0  0  0
   -8.2598   72.4585   17.6165 C   0  0  2  0  0  0  0  0  0  0  0  0
   -7.2071   73.1688   16.9465 O   0  0  0  0  0  0  0  0  0  0  0  0
   -9.6173   72.9712   17.1251 C   0  0  1  0  0  0  0  0  0  0  0  0
   -7.4213   72.1222   21.5310 N   0  0  0  0  0  0  0  0  0  0  0  0
  -10.7552   72.2987   17.9006 C   0  0  1  0  0  0  0  0  0  0  0  0
  -10.8272   70.9081   17.5699 O   0  0  0  0  0  0  0  0  0  0  0  0
  -10.5259   72.4640   19.4054 C   0  0  2  0  0  0  0  0  0  0  0  0
  -10.6193   73.8551   19.7306 O   0  0  0  0  0  0  0  0  0  0  0  0
   -9.1378   71.9300   19.7747 C   0  0  1  0  0  0  0  0  0  0  0  0
   -8.1267   72.6414   19.0370 O   0  0  0  0  0  0  0  0  0  0  0  0
   -8.8679   72.0541   21.2767 C   0  0  0  0  0  0  0  0  0  0  0  0
   -9.6876   74.4211   17.3615 N   0  0  0  0  0  0  0  0  0  0  0  0
  1  2  1  1  0  0  0
  1  3  1  0  0  0  0
  1 10  1  0  0  0  0
  3  4  1  6  0  0  0
  3  5  1  0  0  0  0
  5  6  1  6  0  0  0
  5  7  1  0  0  0  0
  7  8  1  1  0  0  0
  7  9  1  0  0  0  0
  9 10  1  0  0  0  0
  9 11  1  1  0  0  0
 11 12  1  0  0  0  0
 13 14  1  6  0  0  0
 13 15  1  0  0  0  0
 13 21  1  0  0  0  0
 16 15  1  0  0  0  0
 16 17  1  6  0  0  0
 18  2  1  1  0  0  0
 18 16  1  0  0  0  0
 19 18  1  0  0  0  0
 19 20  1  1  0  0  0
 21 19  1  0  0  0  0
 21 22  1  1  0  0  0
 23 20  1  6  0  0  0
 23 24  1  0  0  0  0
 23 28  1  0  0  0  0
 24 25  1  1  0  0  0
 24 26  1  0  0  0  0
 26 27  1  0  0  0  0
 26 32  1  1  0  0  0
 27 28  1  0  0  0  0
 27 29  1  6  0  0  0
 29 30  1  0  0  0  0
 31 32  1  6  0  0  0
 31 40  1  0  0  0  0
 33 31  1  0  0  0  0
 33 42  1  1  0  0  0
 35 33  1  0  0  0  0
 35 36  1  1  0  0  0
 37 35  1  0  0  0  0
 37 38  1  6  0  0  0
 37 39  1  0  0  0  0
 39 40  1  0  0  0  0
 39 41  1  1  0  0  0
 41 34  1  0  0  0  0
M  END
>  <CHROM.1>
-122.84995004,-58.97882017,54.54668046,145.99076099,-52.30282956,97.24487743
64.98853441,-109.38318606,-154.79471789,-7.89303196,72.19778781,14.15807231
1.29323418,-0.26980506,-1.70789059

>  <Name>
2fcy_lig

>  <RI>
3.12105e+07

>  <Rbt.Current_Directory>
/home/afrankz/demos/rdock_decoys_rna/rnas/2fcy

>  <Rbt.Executable>
rbdock ($Id: //depot/dev/client3/rdock/2013.1/src/exe/rbdock.cxx#4 $)

>  <Rbt.Library>
libRbt.so (2013.1, Build901 2013/11/27)

>  <Rbt.Parameter_File>
/export/apps/rDock/src/rDock_2013.1_src/data/scripts/dock_solv.prm

>  <Rbt.Receptor>
prm/blind_docking_80.prm

>  <SCORE>
112.211

>  <SCORE.INTER>
45.0867

>  <SCORE.INTER.CONST>
1

>  <SCORE.INTER.POLAR>
-0.61639

>  <SCORE.INTER.ROT>
9

>  <SCORE.INTER.SOLV>
25.1556

>  <SCORE.INTER.VDW>
14.1272

>  <SCORE.INTER.norm>
1.07349

>  <SCORE.INTRA>
14.7558

>  <SCORE.INTRA.DIHEDRAL>
8.39524

>  <SCORE.INTRA.DIHEDRAL.0>
17.3446

>  <SCORE.INTRA.POLAR>
0

>  <SCORE.INTRA.POLAR.0>
0

>  <SCORE.INTRA.REPUL>
0.0284868

>  <SCORE.INTRA.REPUL.0>
0

>  <SCORE.INTRA.SOLV>
7.35302

>  <SCORE.INTRA.SOLV.lig_0>
-112.452

>  <SCORE.INTRA.VDW>
6.73925

>  <SCORE.INTRA.VDW.0>
-5.95059

>  <SCORE.INTRA.norm>
0.351329

>  <SCORE.RESTR>
52.3683

>  <SCORE.RESTR.CAVITY>
52.3683

>  <SCORE.RESTR.norm>
1.24686

>  <SCORE.SYSTEM>
0

>  <SCORE.SYSTEM.CONST>
0

>  <SCORE.SYSTEM.DIHEDRAL>
0

>  <SCORE.SYSTEM.SOLV>
0

>  <SCORE.SYSTEM.norm>
0

>  <SCORE.heavy>
42

>  <SCORE.norm>
2.67169

>  <RMSD>
22.948

$$$$
2fcy_lig
 OpenBabel11021811433D
libRbt.so/2013.1/901 2013/11/27
 42 45  0  0  0  0  0  0  0  0999 V2000
   -9.8508   70.7768   11.4731 C   0  0  2  0  0  0  0  0  0  0  0  0
   -8.6621   69.9993   11.2503 O   0  0  0  0  0  0  0  0  0  0  0  0
  -10.9842   69.9843   10.8201 C   0  0  2  0  0  0  0  0  0  0  0  0
  -10.9864   68.6229   11.3725 N   0  0  0  0  0  0  0  0  0  0  0  0
  -10.7583   69.9192    9.3075 C   0  0  1  0  0  0  0  0  0  0  0  0
  -11.8096   69.1854    8.6733 O   0  0  0  0  0  0  0  0  0  0  0  0
  -10.6811   71.3389    8.7450 C   0  0  2  0  0  0  0  0  0  0  0  0
  -10.3744   71.2769    7.3522 O   0  0  0  0  0  0  0  0  0  0  0  0
   -9.5475   72.0865    9.4486 C   0  0  2  0  0  0  0  0  0  0  0  0
   -9.7775   72.0832   10.8662 O   0  0  0  0  0  0  0  0  0  0  0  0
   -9.4668   73.5137    8.9003 C   0  0  0  0  0  0  0  0  0  0  0  0
  -10.2036   74.4507    9.7616 N   0  0  0  0  0  0  0  0  0  0  0  0
   -4.6889   70.9866   10.3095 C   0  0  2  0  0  0  0  0  0  0  0  0
   -3.4138   71.4818    9.7692 N   0  0  0  0  0  0  0  0  0  0  0  0
   -5.4747   70.2268    9.2390 C   0  0  0  0  0  0  0  0  0  0  0  0
   -6.7225   69.6254    9.8934 C   0  0  2  0  0  0  0  0  0  0  0  0
   -7.5388   68.9639    8.8653 N   0  0  0  0  0  0  0  0  0  0  0  0
   -7.5950   70.6854   10.5722 C   0  0  2  0  0  0  0  0  0  0  0  0
   -6.8372   71.6461   11.4817 C   0  0  2  0  0  0  0  0  0  0  0  0
   -7.7243   72.7561   11.6942 O   0  0  0  0  0  0  0  0  0  0  0  0
   -5.5413   72.1466   10.8299 C   0  0  1  0  0  0  0  0  0  0  0  0
   -4.7519   72.8843   11.7669 O   0  0  0  0  0  0  0  0  0  0  0  0
   -7.6384   73.3847   12.9832 C   0  0  1  0  0  0  0  0  0  0  0  0
   -6.8681   72.4401   13.9073 C   0  0  2  0  0  0  0  0  0  0  0  0
   -7.7601   71.4618   14.4467 O   0  0  0  0  0  0  0  0  0  0  0  0
   -6.4864   73.4379   14.9969 C   0  0  1  0  0  0  0  0  0  0  0  0
   -6.0130   74.6058   14.1459 C   0  0  2  0  0  0  0  0  0  0  0  0
   -6.8603   74.5992   12.9785 O   0  0  0  0  0  0  0  0  0  0  0  0
   -4.5386   74.3955   13.7822 C   0  0  0  0  0  0  0  0  0  0  0  0
   -4.1420   75.3013   12.7485 O   0  0  0  0  0  0  0  0  0  0  0  0
   -7.6308   73.1684   17.0257 C   0  0  2  0  0  0  0  0  0  0  0  0
   -7.6544   73.8143   15.7436 O   0  0  0  0  0  0  0  0  0  0  0  0
   -8.1480   71.7331   16.8860 C   0  0  1  0  0  0  0  0  0  0  0  0
  -10.4755   74.6756   19.6298 N   0  0  0  0  0  0  0  0  0  0  0  0
   -8.2275   71.0575   18.2592 C   0  0  1  0  0  0  0  0  0  0  0  0
   -6.9134   70.8481   18.7862 O   0  0  0  0  0  0  0  0  0  0  0  0
   -9.0401   71.9298   19.2200 C   0  0  2  0  0  0  0  0  0  0  0  0
  -10.3912   71.9885   18.7505 O   0  0  0  0  0  0  0  0  0  0  0  0
   -8.4387   73.3384   19.2678 C   0  0  1  0  0  0  0  0  0  0  0  0
   -8.4403   73.9170   17.9494 O   0  0  0  0  0  0  0  0  0  0  0  0
   -9.2056   74.2459   20.2335 C   0  0  0  0  0  0  0  0  0  0  0  0
   -9.5002   71.7730   16.3090 N   0  0  0  0  0  0  0  0  0  0  0  0
  1  2  1  6  0  0  0
  1  3  1  0  0  0  0
  1 10  1  0  0  0  0
  3  4  1  1  0  0  0
  3  5  1  0  0  0  0
  5  6  1  6  0  0  0
  5  7  1  0  0  0  0
  7  8  1  6  0  0  0
  7  9  1  0  0  0  0
  9 10  1  0  0  0  0
  9 11  1  6  0  0  0
 11 12  1  0  0  0  0
 13 14  1  6  0  0  0
 13 15  1  0  0  0  0
 13 21  1  0  0  0  0
 16 15  1  0  0  0  0
 16 17  1  6  0  0  0
 18  2  1  1  0  0  0
 18 16  1  0  0  0  0
 19 18  1  0  0  0  0
 19 20  1  6  0  0  0
 21 19  1  0  0  0  0
 21 22  1  1  0  0  0
 23 20  1  6  0  0  0
 23 24  1  0  0  0  0
 23 28  1  0  0  0  0
 24 25  1  1  0  0  0
 24 26  1  0  0  0  0
 26 27  1  0  0  0  0
 26 32  1  6  0  0  0
 27 28  1  0  0  0  0
 27 29  1  6  0  0  0
 29 30  1  0  0  0  0
 31 32  1  6  0  0  0
 31 40  1  0  0  0  0
 33 31  1  0  0  0  0
 33 42  1  1  0  0  0
 35 33  1  0  0  0  0
 35 36  1  1  0  0  0
 37 35  1  0  0  0  0
 37 38  1  6  0  0  0
 37 39  1  0  0  0  0
 39 40  1  0  0  0  0
 39 41  1  1  0  0  0
 41 34  1  0  0  0  0
M  END
>  <CHROM.1>
123.56134927,95.95920180,-155.63370726,146.56597896,-14.99568741,105.33831222
167.01693028,-81.60565250,-76.01710764,-8.04608770,72.08491264,13.11362439
1.59892699,-0.39668526,-1.79827940

>  <Name>
2fcy_lig

>  <RI>
3.12105e+07

>  <Rbt.Current_Directory>
/home/afrankz/demos/rdock_decoys_rna/rnas/2fcy

>  <Rbt.Executable>
rbdock ($Id: //depot/dev/client3/rdock/2013.1/src/exe/rbdock.cxx#4 $)

>  <Rbt.Library>
libRbt.so (2013.1, Build901 2013/11/27)

>  <Rbt.Parameter_File>
/export/apps/rDock/src/rDock_2013.1_src/data/scripts/dock_solv.prm

>  <Rbt.Receptor>
prm/blind_docking_80.prm

>  <SCORE>
170.178

>  <SCORE.INTER>
102.445

>  <SCORE.INTER.CONST>
1

>  <SCORE.INTER.POLAR>
-0.169072

>  <SCORE.INTER.ROT>
9

>  <SCORE.INTER.SOLV>
27.9271

>  <SCORE.INTER.VDW>
49.9515

>  <SCORE.INTER.norm>
2.43918

>  <SCORE.INTRA>
24.5561

>  <SCORE.INTRA.DIHEDRAL>
15.7176

>  <SCORE.INTRA.DIHEDRAL.0>
17.3446

>  <SCORE.INTRA.POLAR>
0

>  <SCORE.INTRA.POLAR.0>
0

>  <SCORE.INTRA.REPUL>
0

>  <SCORE.INTRA.REPUL.0>
0

>  <SCORE.INTRA.SOLV>
3.82846

>  <SCORE.INTRA.SOLV.lig_0>
-112.452

>  <SCORE.INTRA.VDW>
14.7831

>  <SCORE.INTRA.VDW.0>
-5.95059

>  <SCORE.INTRA.norm>
0.58467

>  <SCORE.RESTR>
43.1763

>  <SCORE.RESTR.CAVITY>
43.1763

>  <SCORE.RESTR.norm>
1.02801

>  <SCORE.SYSTEM>
0

>  <SCORE.SYSTEM.CONST>
0

>  <SCORE.SYSTEM.DIHEDRAL>
0

>  <SCORE.SYSTEM.SOLV>
0

>  <SCORE.SYSTEM.norm>
0

>  <SCORE.heavy>
42

>  <SCORE.norm>
4.05185

>  <RMSD>
23.248

$$$$
2fcy_lig
 OpenBabel11021811433D
libRbt.so/2013.1/901 2013/11/27
 42 45  0  0  0  0  0  0  0  0999 V2000
  -10.2586   71.1918    9.3791 C   0  0  2  0  0  0  0  0  0  0  0  0
   -9.8483   71.1762   10.7570 O   0  0  0  0  0  0  0  0  0  0  0  0
  -11.2766   70.0585    9.2444 C   0  0  2  0  0  0  0  0  0  0  0  0
  -12.3386   70.2582   10.2400 N   0  0  0  0  0  0  0  0  0  0  0  0
  -10.5858   68.7165    9.4997 C   0  0  1  0  0  0  0  0  0  0  0  0
  -11.5184   67.6392    9.3749 O   0  0  0  0  0  0  0  0  0  0  0  0
   -9.4326   68.5439    8.5107 C   0  0  2  0  0  0  0  0  0  0  0  0
   -8.7304   67.3383    8.8127 O   0  0  0  0  0  0  0  0  0  0  0  0
   -8.4617   69.7139    8.6772 C   0  0  2  0  0  0  0  0  0  0  0  0
   -9.1618   70.9512    8.4739 O   0  0  0  0  0  0  0  0  0  0  0  0
   -7.3069   69.5572    7.6844 C   0  0  0  0  0  0  0  0  0  0  0  0
   -6.4988   68.3698    8.0002 N   0  0  0  0  0  0  0  0  0  0  0  0
   -6.0723   72.9012   10.1144 C   0  0  2  0  0  0  0  0  0  0  0  0
   -4.8058   73.6488   10.1273 N   0  0  0  0  0  0  0  0  0  0  0  0
   -7.2675   73.8563   10.1136 C   0  0  0  0  0  0  0  0  0  0  0  0
   -8.5470   73.0266    9.9660 C   0  0  2  0  0  0  0  0  0  0  0  0
   -9.7145   73.9158   10.0505 N   0  0  0  0  0  0  0  0  0  0  0  0
   -8.6862   71.9671   11.0630 C   0  0  2  0  0  0  0  0  0  0  0  0
   -7.4388   71.1212   11.2928 C   0  0  2  0  0  0  0  0  0  0  0  0
   -7.6300   70.4917   12.5700 O   0  0  0  0  0  0  0  0  0  0  0  0
   -6.1670   71.9790   11.3324 C   0  0  1  0  0  0  0  0  0  0  0  0
   -4.9978   71.1557   11.3504 O   0  0  0  0  0  0  0  0  0  0  0  0
   -7.9650   71.3722   13.6549 C   0  0  1  0  0  0  0  0  0  0  0  0
   -7.4983   70.7067   14.9506 C   0  0  2  0  0  0  0  0  0  0  0  0
   -8.4901   69.7802   15.3996 O   0  0  0  0  0  0  0  0  0  0  0  0
   -7.4990   71.9338   15.8576 C   0  0  1  0  0  0  0  0  0  0  0  0
   -6.8123   72.9445   14.9526 C   0  0  2  0  0  0  0  0  0  0  0  0
   -7.2535   72.6262   13.6166 O   0  0  0  0  0  0  0  0  0  0  0  0
   -5.2934   72.7999   15.1017 C   0  0  0  0  0  0  0  0  0  0  0  0
   -4.6150   73.7629   14.2901 O   0  0  0  0  0  0  0  0  0  0  0  0
   -8.8647   73.2657   17.2213 C   0  0  2  0  0  0  0  0  0  0  0  0
   -8.8502   72.3452   16.1194 O   0  0  0  0  0  0  0  0  0  0  0  0
   -8.5813   72.5104   18.5237 C   0  0  1  0  0  0  0  0  0  0  0  0
  -11.5049   76.8313   19.1276 N   0  0  0  0  0  0  0  0  0  0  0  0
   -8.6925   73.4555   19.7248 C   0  0  1  0  0  0  0  0  0  0  0  0
   -7.6301   74.4143   19.7020 O   0  0  0  0  0  0  0  0  0  0  0  0
  -10.0434   74.1756   19.6948 C   0  0  2  0  0  0  0  0  0  0  0  0
  -11.0807   73.2066   19.8808 O   0  0  0  0  0  0  0  0  0  0  0  0
  -10.2191   74.8811   18.3458 C   0  0  1  0  0  0  0  0  0  0  0  0
  -10.1446   73.9198   17.2766 O   0  0  0  0  0  0  0  0  0  0  0  0
  -11.5496   75.6352   18.2736 C   0  0  0  0  0  0  0  0  0  0  0  0
   -9.5820   71.4437   18.6778 N   0  0  0  0  0  0  0  0  0  0  0  0
  1  2  1  1  0  0  0
  1  3  1  0  0  0  0
  1 10  1  0  0  0  0
  3  4  1  1  0  0  0
  3  5  1  0  0  0  0
  5  6  1  6  0  0  0
  5  7  1  0  0  0  0
  7  8  1  1  0  0  0
  7  9  1  0  0  0  0
  9 10  1  0  0  0  0
  9 11  1  6  0  0  0
 11 12  1  0  0  0  0
 13 14  1  1  0  0  0
 13 15  1  0  0  0  0
 13 21  1  0  0  0  0
 16 15  1  0  0  0  0
 16 17  1  1  0  0  0
 18  2  1  6  0  0  0
 18 16  1  0  0  0  0
 19 18  1  0  0  0  0
 19 20  1  1  0  0  0
 21 19  1  0  0  0  0
 21 22  1  6  0  0  0
 23 20  1  6  0  0  0
 23 24  1  0  0  0  0
 23 28  1  0  0  0  0
 24 25  1  1  0  0  0
 24 26  1  0  0  0  0
 26 27  1  0  0  0  0
 26 32  1  6  0  0  0
 27 28  1  0  0  0  0
 27 29  1  6  0  0  0
 29 30  1  0  0  0  0
 31 32  1  6  0  0  0
 31 40  1  0  0  0  0
 33 31  1  0  0  0  0
 33 42  1  1  0  0  0
 35 33  1  0  0  0  0
 35 36  1  6  0  0  0
 37 35  1  0  0  0  0
 37 38  1  6  0  0  0
 37 39  1  0  0  0  0
 39 40  1  0  0  0  0
 39 41  1  1  0  0  0
 41 34  1  0  0  0  0
M  END
>  <CHROM.1>
167.32558560,-65.64220479,22.29309658,-52.09399052,-154.01572168,165.49033699
-178.39963950,-72.19680998,72.11499389,-8.54046739,71.87817003,13.27988235
1.49222993,-0.32930570,-1.98810806

>  <Name>
2fcy_lig

>  <RI>
3.12105e+07

>  <Rbt.Current_Directory>
/home/afrankz/demos/rdock_decoys_rna/rnas/2fcy

>  <Rbt.Executable>
rbdock ($Id: //depot/dev/client3/rdock/2013.1/src/exe/rbdock.cxx#4 $)

>  <Rbt.Library>
libRbt.so (2013.1, Build901 2013/11/27)

>  <Rbt.Parameter_File>
/export/apps/rDock/src/rDock_2013.1_src/data/scripts/dock_solv.prm

>  <Rbt.Receptor>
prm/blind_docking_80.prm

>  <SCORE>
71.4662

>  <SCORE.INTER>
16.5752

>  <SCORE.INTER.CONST>
1

>  <SCORE.INTER.POLAR>
0

>  <SCORE.INTER.ROT>
9

>  <SCORE.INTER.SOLV>
24.3073

>  <SCORE.INTER.VDW>
-6.65232

>  <SCORE.INTER.norm>
0.394647

>  <SCORE.INTRA>
5.23344

>  <SCORE.INTRA.DIHEDRAL>
-5.83563

>  <SCORE.INTRA.DIHEDRAL.0>
17.3446

>  <SCORE.INTRA.POLAR>
0

>  <SCORE.INTRA.POLAR.0>
0

>  <SCORE.INTRA.REPUL>
0

>  <SCORE.INTRA.REPUL.0>
0

>  <SCORE.INTRA.SOLV>
-1.99444

>  <SCORE.INTRA.SOLV.lig_0>
-112.452

>  <SCORE.INTRA.VDW>
9.14847

>  <SCORE.INTRA.VDW.0>
-5.95059

>  <SCORE.INTRA.norm>
0.124606

>  <SCORE.RESTR>
49.6576

>  <SCORE.RESTR.CAVITY>
49.6576

>  <SCORE.RESTR.norm>
1.18232

>  <SCORE.SYSTEM>
0

>  <SCORE.SYSTEM.CONST>
0

>  <SCORE.SYSTEM.DIHEDRAL>
0

>  <SCORE.SYSTEM.SOLV>
0

>  <SCORE.SYSTEM.norm>
0

>  <SCORE.heavy>
42

>  <SCORE.norm>
1.70158

>  <RMSD>
23.567

$$$$
2fcy_lig
 OpenBabel11021811433D
libRbt.so/2013.1/901 2013/11/27
 42 45  0  0  0  0  0  0  0  0999 V2000
  -12.0707   68.8414    9.1373 C   0  0  2  0  0  0  0  0  0  0  0  0
  -11.6171   69.9506    8.3427 O   0  0  0  0  0  0  0  0  0  0  0  0
  -13.5973   68.9328    9.1306 C   0  0  2  0  0  0  0  0  0  0  0  0
  -14.0613   68.9653    7.7369 N   0  0  0  0  0  0  0  0  0  0  0  0
  -14.0368   70.2144    9.8431 C   0  0  1  0  0  0  0  0  0  0  0  0
  -15.4631   70.3201    9.8533 O   0  0  0  0  0  0  0  0  0  0  0  0
  -13.4894   70.2138   11.2707 C   0  0  2  0  0  0  0  0  0  0  0  0
  -13.8182   71.4517   11.9010 O   0  0  0  0  0  0  0  0  0  0  0  0
  -11.9653   70.0995   11.2139 C   0  0  2  0  0  0  0  0  0  0  0  0
  -11.5996   68.9088   10.4989 O   0  0  0  0  0  0  0  0  0  0  0  0
  -11.4061   70.0878   12.6390 C   0  0  0  0  0  0  0  0  0  0  0  0
  -11.4622   71.4300   13.2373 N   0  0  0  0  0  0  0  0  0  0  0  0
   -7.8570   68.2019    7.6718 C   0  0  2  0  0  0  0  0  0  0  0  0
   -6.4806   67.8342    7.3069 N   0  0  0  0  0  0  0  0  0  0  0  0
   -8.6688   68.5718    6.4288 C   0  0  0  0  0  0  0  0  0  0  0  0
  -10.1199   68.8145    6.8559 C   0  0  2  0  0  0  0  0  0  0  0  0
  -10.9010   69.2567    5.6917 N   0  0  0  0  0  0  0  0  0  0  0  0
  -10.2385   69.8941    7.9356 C   0  0  2  0  0  0  0  0  0  0  0  0
   -9.2811   69.7273    9.1103 C   0  0  2  0  0  0  0  0  0  0  0  0
   -9.2698   70.9976    9.7815 O   0  0  0  0  0  0  0  0  0  0  0  0
   -7.8601   69.3842    8.6440 C   0  0  1  0  0  0  0  0  0  0  0  0
   -7.0287   69.0396    9.7553 O   0  0  0  0  0  0  0  0  0  0  0  0
   -7.9850   71.4488   10.2398 C   0  0  1  0  0  0  0  0  0  0  0  0
   -7.7144   72.8074    9.5912 C   0  0  2  0  0  0  0  0  0  0  0  0
   -7.1768   72.6159    8.2805 O   0  0  0  0  0  0  0  0  0  0  0  0
   -6.6139   73.2987   10.5270 C   0  0  1  0  0  0  0  0  0  0  0  0
   -7.2196   72.9405   11.8750 C   0  0  2  0  0  0  0  0  0  0  0  0
   -7.9411   71.7105   11.6575 O   0  0  0  0  0  0  0  0  0  0  0  0
   -8.1476   74.0748   12.3246 C   0  0  0  0  0  0  0  0  0  0  0  0
   -7.3863   75.2177   12.7254 O   0  0  0  0  0  0  0  0  0  0  0  0
   -4.3065   73.2054   10.9346 C   0  0  2  0  0  0  0  0  0  0  0  0
   -5.4140   72.5396   10.3088 O   0  0  0  0  0  0  0  0  0  0  0  0
   -4.7950   74.4942   11.6035 C   0  0  1  0  0  0  0  0  0  0  0  0
   -0.9969   73.0889    8.6004 N   0  0  0  0  0  0  0  0  0  0  0  0
   -3.6130   75.2730   12.1906 C   0  0  1  0  0  0  0  0  0  0  0  0
   -3.0498   74.5609   13.2970 O   0  0  0  0  0  0  0  0  0  0  0  0
   -2.5465   75.4871   11.1130 C   0  0  2  0  0  0  0  0  0  0  0  0
   -3.0895   76.3365   10.0966 O   0  0  0  0  0  0  0  0  0  0  0  0
   -2.1472   74.1358   10.5105 C   0  0  1  0  0  0  0  0  0  0  0  0
   -3.3031   73.4908    9.9443 O   0  0  0  0  0  0  0  0  0  0  0  0
   -1.0648   74.2945    9.4392 C   0  0  0  0  0  0  0  0  0  0  0  0
   -5.4468   75.3351   10.5880 N   0  0  0  0  0  0  0  0  0  0  0  0
  1  2  1  6  0  0  0
  1  3  1  0  0  0  0
  1 10  1  0  0  0  0
  3  4  1  6  0  0  0
  3  5  1  0  0  0  0
  5  6  1  1  0  0  0
  5  7  1  0  0  0  0
  7  8  1  6  0  0  0
  7  9  1  0  0  0  0
  9 10  1  0  0  0  0
  9 11  1  1  0  0  0
 11 12  1  0  0  0  0
 13 14  1  6  0  0  0
 13 15  1  0  0  0  0
 13 21  1  0  0  0  0
 16 15  1  0  0  0  0
 16 17  1  6  0  0  0
 18  2  1  1  0  0  0
 18 16  1  0  0  0  0
 19 18  1  0  0  0  0
 19 20  1  6  0  0  0
 21 19  1  0  0  0  0
 21 22  1  1  0  0  0
 23 20  1  6  0  0  0
 23 24  1  0  0  0  0
 23 28  1  0  0  0  0
 24 25  1  6  0  0  0
 24 26  1  0  0  0  0
 26 27  1  0  0  0  0
 26 32  1  6  0  0  0
 27 28  1  0  0  0  0
 27 29  1  6  0  0  0
 29 30  1  0  0  0  0
 31 32  1  6  0  0  0
 31 40  1  0  0  0  0
 33 31  1  0  0  0  0
 33 42  1  6  0  0  0
 35 33  1  0  0  0  0
 35 36  1  1  0  0  0
 37 35  1  0  0  0  0
 37 38  1  6  0  0  0
 37 39  1  0  0  0  0
 39 40  1  0  0  0  0
 39 41  1  6  0  0  0
 41 34  1  0  0  0  0
M  END
>  <CHROM.1>
-165.60437286,-74.23610764,72.50906569,-139.15213967,122.19376000,165.82045875
-72.46253097,-0.43393933,-162.49907192,-8.14509203,71.63312444,10.01869067
-2.72141777,0.29046450,0.84947558

>  <Name>
2fcy_lig

>  <RI>
3.12105e+07

>  <Rbt.Current_Directory>
/home/afrankz/demos/rdock_decoys_rna/rnas/2fcy

>  <Rbt.Executable>
rbdock ($Id: //depot/dev/client3/rdock/2013.1/src/exe/rbdock.cxx#4 $)

>  <Rbt.Library>
libRbt.so (2013.1, Build901 2013/11/27)

>  <Rbt.Parameter_File>
/export/apps/rDock/src/rDock_2013.1_src/data/scripts/dock_solv.prm

>  <Rbt.Receptor>
prm/blind_docking_80.prm

>  <SCORE>
108.241

>  <SCORE.INTER>
32.6345

>  <SCORE.INTER.CONST>
1

>  <SCORE.INTER.POLAR>
-2.0042

>  <SCORE.INTER.ROT>
9

>  <SCORE.INTER.SOLV>
26.1742

>  <SCORE.INTER.VDW>
10.1123

>  <SCORE.INTER.norm>
0.777012

>  <SCORE.INTRA>
25.6591

>  <SCORE.INTRA.DIHEDRAL>
7.85766

>  <SCORE.INTRA.DIHEDRAL.0>
17.3446

>  <SCORE.INTRA.POLAR>
0

>  <SCORE.INTRA.POLAR.0>
0

>  <SCORE.INTRA.REPUL>
0

>  <SCORE.INTRA.REPUL.0>
0

>  <SCORE.INTRA.SOLV>
1.75048

>  <SCORE.INTRA.SOLV.lig_0>
-112.452

>  <SCORE.INTRA.VDW>
20.855

>  <SCORE.INTRA.VDW.0>
-5.95059

>  <SCORE.INTRA.norm>
0.610931

>  <SCORE.RESTR>
49.9471

>  <SCORE.RESTR.CAVITY>
49.9471

>  <SCORE.RESTR.norm>
1.18922

>  <SCORE.SYSTEM>
0

>  <SCORE.SYSTEM.CONST>
0

>  <SCORE.SYSTEM.DIHEDRAL>
0

>  <SCORE.SYSTEM.SOLV>
0

>  <SCORE.SYSTEM.norm>
0

>  <SCORE.heavy>
42

>  <SCORE.norm>
2.57716

>  <RMSD>
23.609

$$$$
2fcy_lig
 OpenBabel11021811433D
libRbt.so/2013.1/901 2013/11/27
 42 45  0  0  0  0  0  0  0  0999 V2000
   -7.5777   72.3976   11.4300 C   0  0  2  0  0  0  0  0  0  0  0  0
   -6.7176   71.2623   11.2338 O   0  0  0  0  0  0  0  0  0  0  0  0
   -7.0401   73.4822   10.4954 C   0  0  2  0  0  0  0  0  0  0  0  0
   -6.9807   72.9412    9.1306 N   0  0  0  0  0  0  0  0  0  0  0  0
   -5.6344   73.8922   10.9417 C   0  0  1  0  0  0  0  0  0  0  0  0
   -5.1114   74.9102   10.0839 O   0  0  0  0  0  0  0  0  0  0  0  0
   -5.6853   74.3847   12.3883 C   0  0  2  0  0  0  0  0  0  0  0  0
   -4.3604   74.6747   12.8334 O   0  0  0  0  0  0  0  0  0  0  0  0
   -6.2491   73.2686   13.2691 C   0  0  2  0  0  0  0  0  0  0  0  0
   -7.5465   72.8857   12.7869 O   0  0  0  0  0  0  0  0  0  0  0  0
   -6.3143   73.7539   14.7196 C   0  0  0  0  0  0  0  0  0  0  0  0
   -6.8687   72.7132   15.5983 N   0  0  0  0  0  0  0  0  0  0  0  0
   -8.0259   69.5799    7.6138 C   0  0  2  0  0  0  0  0  0  0  0  0
   -8.4879   68.7480    6.4924 N   0  0  0  0  0  0  0  0  0  0  0  0
   -6.7010   69.0549    8.1705 C   0  0  0  0  0  0  0  0  0  0  0  0
   -6.2069   70.0331    9.2410 C   0  0  2  0  0  0  0  0  0  0  0  0
   -4.9790   69.5043    9.8522 N   0  0  0  0  0  0  0  0  0  0  0  0
   -7.2324   70.2429   10.3589 C   0  0  2  0  0  0  0  0  0  0  0  0
   -8.6484   70.5372    9.8766 C   0  0  2  0  0  0  0  0  0  0  0  0
   -9.4973   70.3127   11.0138 O   0  0  0  0  0  0  0  0  0  0  0  0
   -9.0681   69.6021    8.7346 C   0  0  1  0  0  0  0  0  0  0  0  0
  -10.3129   70.0184    8.1669 O   0  0  0  0  0  0  0  0  0  0  0  0
  -10.8874   70.6227   10.8248 C   0  0  1  0  0  0  0  0  0  0  0  0
  -11.6522   69.2992   10.7694 C   0  0  2  0  0  0  0  0  0  0  0  0
  -11.5938   68.7652    9.4446 O   0  0  0  0  0  0  0  0  0  0  0  0
  -13.0567   69.8286   11.0443 C   0  0  1  0  0  0  0  0  0  0  0  0
  -12.7734   70.7685   12.2056 C   0  0  2  0  0  0  0  0  0  0  0  0
  -11.4732   71.3320   11.9357 O   0  0  0  0  0  0  0  0  0  0  0  0
  -12.7884   69.9682   13.5130 C   0  0  0  0  0  0  0  0  0  0  0  0
  -11.4911   69.4321   13.7889 O   0  0  0  0  0  0  0  0  0  0  0  0
  -14.8029   70.0630    9.4969 C   0  0  2  0  0  0  0  0  0  0  0  0
  -13.5267   70.5747    9.9103 O   0  0  0  0  0  0  0  0  0  0  0  0
  -14.9368   70.1878    7.9759 C   0  0  1  0  0  0  0  0  0  0  0  0
  -19.5600   70.5546   10.3032 N   0  0  0  0  0  0  0  0  0  0  0  0
  -16.3314   69.7417    7.5236 C   0  0  1  0  0  0  0  0  0  0  0  0
  -16.4897   68.3328    7.7196 O   0  0  0  0  0  0  0  0  0  0  0  0
  -17.4005   70.5001    8.3149 C   0  0  2  0  0  0  0  0  0  0  0  0
  -17.3204   71.8883    7.9746 O   0  0  0  0  0  0  0  0  0  0  0  0
  -17.1576   70.3122    9.8162 C   0  0  1  0  0  0  0  0  0  0  0  0
  -15.8464   70.7940   10.1647 O   0  0  0  0  0  0  0  0  0  0  0  0
  -18.2157   71.0364   10.6530 C   0  0  0  0  0  0  0  0  0  0  0  0
  -14.7559   71.5983    7.6005 N   0  0  0  0  0  0  0  0  0  0  0  0
  1  2  1  1  0  0  0
  1  3  1  0  0  0  0
  1 10  1  0  0  0  0
  3  4  1  6  0  0  0
  3  5  1  0  0  0  0
  5  6  1  6  0  0  0
  5  7  1  0  0  0  0
  7  8  1  1  0  0  0
  7  9  1  0  0  0  0
  9 10  1  0  0  0  0
  9 11  1  1  0  0  0
 11 12  1  0  0  0  0
 13 14  1  6  0  0  0
 13 15  1  0  0  0  0
 13 21  1  0  0  0  0
 16 15  1  0  0  0  0
 16 17  1  1  0  0  0
 18  2  1  1  0  0  0
 18 16  1  0  0  0  0
 19 18  1  0  0  0  0
 19 20  1  1  0  0  0
 21 19  1  0  0  0  0
 21 22  1  6  0  0  0
 23 20  1  1  0  0  0
 23 24  1  0  0  0  0
 23 28  1  0  0  0  0
 24 25  1  6  0  0  0
 24 26  1  0  0  0  0
 26 27  1  0  0  0  0
 26 32  1  6  0  0  0
 27 28  1  0  0  0  0
 27 29  1  1  0  0  0
 29 30  1  0  0  0  0
 31 32  1  1  0  0  0
 31 40  1  0  0  0  0
 33 31  1  0  0  0  0
 33 42  1  1  0  0  0
 35 33  1  0  0  0  0
 35 36  1  1  0  0  0
 37 35  1  0  0  0  0
 37 38  1  1  0  0  0
 37 39  1  0  0  0  0
 39 40  1  0  0  0  0
 39 41  1  1  0  0  0
 41 34  1  0  0  0  0
M  END
>  <CHROM.1>
-99.42200684,179.26738335,123.79342668,175.71578690,108.38908746,126.66821761
88.04894681,-146.77086494,57.74713109,-10.66297541,71.05006693,10.38249226
0.29526742,0.09292567,1.07539487

>  <Name>
2fcy_lig

>  <RI>
3.12105e+07

>  <Rbt.Current_Directory>
/home/afrankz/demos/rdock_decoys_rna/rnas/2fcy

>  <Rbt.Executable>
rbdock ($Id: //depot/dev/client3/rdock/2013.1/src/exe/rbdock.cxx#4 $)

>  <Rbt.Library>
libRbt.so (2013.1, Build901 2013/11/27)

>  <Rbt.Parameter_File>
/export/apps/rDock/src/rDock_2013.1_src/data/scripts/dock_solv.prm

>  <Rbt.Receptor>
prm/blind_docking_80.prm

>  <SCORE>
81.496

>  <SCORE.INTER>
9.62882

>  <SCORE.INTER.CONST>
1

>  <SCORE.INTER.POLAR>
-1.86165

>  <SCORE.INTER.ROT>
9

>  <SCORE.INTER.SOLV>
26.103

>  <SCORE.INTER.VDW>
-5.67628

>  <SCORE.INTER.norm>
0.229258

>  <SCORE.INTRA>
15.8206

>  <SCORE.INTRA.DIHEDRAL>
14.7396

>  <SCORE.INTRA.DIHEDRAL.0>
17.3446

>  <SCORE.INTRA.POLAR>
0

>  <SCORE.INTRA.POLAR.0>
0

>  <SCORE.INTRA.REPUL>
0.024154

>  <SCORE.INTRA.REPUL.0>
0

>  <SCORE.INTRA.SOLV>
-0.727301

>  <SCORE.INTRA.SOLV.lig_0>
-112.452

>  <SCORE.INTRA.VDW>
8.69367

>  <SCORE.INTRA.VDW.0>
-5.95059

>  <SCORE.INTRA.norm>
0.37668

>  <SCORE.RESTR>
56.0466

>  <SCORE.RESTR.CAVITY>
56.0466

>  <SCORE.RESTR.norm>
1.33444

>  <SCORE.SYSTEM>
0

>  <SCORE.SYSTEM.CONST>
0

>  <SCORE.SYSTEM.DIHEDRAL>
0

>  <SCORE.SYSTEM.SOLV>
0

>  <SCORE.SYSTEM.norm>
0

>  <SCORE.heavy>
42

>  <SCORE.norm>
1.94038

>  <RMSD>
24.209

$$$$
2fcy_lig
 OpenBabel11021811433D
libRbt.so/2013.1/901 2013/11/27
 42 45  0  0  0  0  0  0  0  0999 V2000
  -12.6183   68.7238    9.0242 C   0  0  2  0  0  0  0  0  0  0  0  0
  -11.9085   69.8612    8.5050 O   0  0  0  0  0  0  0  0  0  0  0  0
  -13.6192   68.3363    7.9348 C   0  0  2  0  0  0  0  0  0  0  0  0
  -12.8891   68.1268    6.6770 N   0  0  0  0  0  0  0  0  0  0  0  0
  -14.6375   69.4642    7.7501 C   0  0  1  0  0  0  0  0  0  0  0  0
  -15.5882   69.1225    6.7376 O   0  0  0  0  0  0  0  0  0  0  0  0
  -15.3437   69.7321    9.0795 C   0  0  2  0  0  0  0  0  0  0  0  0
  -16.2221   70.8473    8.9291 O   0  0  0  0  0  0  0  0  0  0  0  0
  -14.2935   70.0927   10.1313 C   0  0  2  0  0  0  0  0  0  0  0  0
  -13.3357   69.0279   10.2380 O   0  0  0  0  0  0  0  0  0  0  0  0
  -14.9884   70.3536   11.4703 C   0  0  0  0  0  0  0  0  0  0  0  0
  -16.2258   71.1251   11.2795 N   0  0  0  0  0  0  0  0  0  0  0  0
   -8.2661   67.8216    8.0365 C   0  0  2  0  0  0  0  0  0  0  0  0
   -6.8782   67.3673    7.8624 N   0  0  0  0  0  0  0  0  0  0  0  0
   -8.6851   68.7418    6.8882 C   0  0  0  0  0  0  0  0  0  0  0  0
  -10.1718   69.0727    7.0541 C   0  0  2  0  0  0  0  0  0  0  0  0
  -10.5761   70.0264    6.0110 N   0  0  0  0  0  0  0  0  0  0  0  0
  -10.4811   69.7076    8.4130 C   0  0  2  0  0  0  0  0  0  0  0  0
   -9.8870   68.9721    9.6091 C   0  0  2  0  0  0  0  0  0  0  0  0
   -9.9470   69.9026   10.7022 O   0  0  0  0  0  0  0  0  0  0  0  0
   -8.4273   68.5681    9.3630 C   0  0  1  0  0  0  0  0  0  0  0  0
   -7.9523   67.7138   10.4069 O   0  0  0  0  0  0  0  0  0  0  0  0
   -8.9191   70.9062   10.7236 C   0  0  1  0  0  0  0  0  0  0  0  0
   -8.9910   71.6691    9.3998 C   0  0  2  0  0  0  0  0  0  0  0  0
   -8.2692   70.9549    8.3935 O   0  0  0  0  0  0  0  0  0  0  0  0
   -8.2061   72.9137    9.8039 C   0  0  1  0  0  0  0  0  0  0  0  0
   -8.8328   73.2058   11.1581 C   0  0  2  0  0  0  0  0  0  0  0  0
   -9.1237   71.9155   11.7335 O   0  0  0  0  0  0  0  0  0  0  0  0
  -10.1033   74.0389   10.9530 C   0  0  0  0  0  0  0  0  0  0  0  0
  -10.6027   73.8743    9.6226 O   0  0  0  0  0  0  0  0  0  0  0  0
   -6.1332   73.6818   10.5861 C   0  0  2  0  0  0  0  0  0  0  0  0
   -6.8175   72.5830    9.9648 O   0  0  0  0  0  0  0  0  0  0  0  0
   -4.6198   73.4826   10.4555 C   0  0  1  0  0  0  0  0  0  0  0  0
   -6.3727   73.6763   14.7514 N   0  0  0  0  0  0  0  0  0  0  0  0
   -3.8685   74.5914   11.2002 C   0  0  1  0  0  0  0  0  0  0  0  0
   -4.0590   75.8482   10.5425 O   0  0  0  0  0  0  0  0  0  0  0  0
   -4.3707   74.6788   12.6440 C   0  0  2  0  0  0  0  0  0  0  0  0
   -4.0223   73.4670   13.3219 O   0  0  0  0  0  0  0  0  0  0  0  0
   -5.8918   74.8645   12.6479 C   0  0  1  0  0  0  0  0  0  0  0  0
   -6.5219   73.7626   11.9686 O   0  0  0  0  0  0  0  0  0  0  0  0
   -6.4417   74.9786   14.0723 C   0  0  0  0  0  0  0  0  0  0  0  0
   -4.2601   72.1910   11.0601 N   0  0  0  0  0  0  0  0  0  0  0  0
  1  2  1  6  0  0  0
  1  3  1  0  0  0  0
  1 10  1  0  0  0  0
  3  4  1  6  0  0  0
  3  5  1  0  0  0  0
  5  6  1  6  0  0  0
  5  7  1  0  0  0  0
  7  8  1  6  0  0  0
  7  9  1  0  0  0  0
  9 10  1  0  0  0  0
  9 11  1  1  0  0  0
 11 12  1  0  0  0  0
 13 14  1  6  0  0  0
 13 15  1  0  0  0  0
 13 21  1  0  0  0  0
 16 15  1  0  0  0  0
 16 17  1  6  0  0  0
 18  2  1  1  0  0  0
 18 16  1  0  0  0  0
 19 18  1  0  0  0  0
 19 20  1  1  0  0  0
 21 19  1  0  0  0  0
 21 22  1  1  0  0  0
 23 20  1  6  0  0  0
 23 24  1  0  0  0  0
 23 28  1  0  0  0  0
 24 25  1  6  0  0  0
 24 26  1  0  0  0  0
 26 27  1  0  0  0  0
 26 32  1  1  0  0  0
 27 28  1  0  0  0  0
 27 29  1  6  0  0  0
 29 30  1  0  0  0  0
 31 32  1  1  0  0  0
 31 40  1  0  0  0  0
 33 31  1  0  0  0  0
 33 42  1  1  0  0  0
 35 33  1  0  0  0  0
 35 36  1  6  0  0  0
 37 35  1  0  0  0  0
 37 38  1  1  0  0  0
 37 39  1  0  0  0  0
 39 40  1  0  0  0  0
 39 41  1  1  0  0  0
 41 34  1  0  0  0  0
M  END
>  <CHROM.1>
-122.09109083,-41.38250188,87.54015320,-79.18801447,57.26858874,-169.08174689
21.85841296,-166.45907051,-71.25355414,-9.51652115,71.20532834,9.94387805
-2.55616148,0.05141046,0.70905612

>  <Name>
2fcy_lig

>  <RI>
3.12105e+07

>  <Rbt.Current_Directory>
/home/afrankz/demos/rdock_decoys_rna/rnas/2fcy

>  <Rbt.Executable>
rbdock ($Id: //depot/dev/client3/rdock/2013.1/src/exe/rbdock.cxx#4 $)

>  <Rbt.Library>
libRbt.so (2013.1, Build901 2013/11/27)

>  <Rbt.Parameter_File>
/export/apps/rDock/src/rDock_2013.1_src/data/scripts/dock_solv.prm

>  <Rbt.Receptor>
prm/blind_docking_80.prm

>  <SCORE>
82.7476

>  <SCORE.INTER>
16.424

>  <SCORE.INTER.CONST>
1

>  <SCORE.INTER.POLAR>
-1.03404

>  <SCORE.INTER.ROT>
9

>  <SCORE.INTER.SOLV>
25.0808

>  <SCORE.INTER.VDW>
-3.56417

>  <SCORE.INTER.norm>
0.391047

>  <SCORE.INTRA>
20.2396

>  <SCORE.INTRA.DIHEDRAL>
1.87897

>  <SCORE.INTRA.DIHEDRAL.0>
17.3446

>  <SCORE.INTRA.POLAR>
0

>  <SCORE.INTRA.POLAR.0>
0

>  <SCORE.INTRA.REPUL>
0

>  <SCORE.INTRA.REPUL.0>
0

>  <SCORE.INTRA.SOLV>
4.13991

>  <SCORE.INTRA.SOLV.lig_0>
-112.452

>  <SCORE.INTRA.VDW>
17.2301

>  <SCORE.INTRA.VDW.0>
-5.95059

>  <SCORE.INTRA.norm>
0.481895

>  <SCORE.RESTR>
46.084

>  <SCORE.RESTR.CAVITY>
46.084

>  <SCORE.RESTR.norm>
1.09724

>  <SCORE.SYSTEM>
0

>  <SCORE.SYSTEM.CONST>
0

>  <SCORE.SYSTEM.DIHEDRAL>
0

>  <SCORE.SYSTEM.SOLV>
0

>  <SCORE.SYSTEM.norm>
0

>  <SCORE.heavy>
42

>  <SCORE.norm>
1.97018

>  <RMSD>
24.509

$$$$
2fcy_lig
 OpenBabel11021811433D
libRbt.so/2013.1/901 2013/11/27
 42 45  0  0  0  0  0  0  0  0999 V2000
  -13.2020   70.1708    9.2398 C   0  0  2  0  0  0  0  0  0  0  0  0
  -12.8257   68.9079    8.6647 O   0  0  0  0  0  0  0  0  0  0  0  0
  -14.0702   69.8245   10.4503 C   0  0  2  0  0  0  0  0  0  0  0  0
  -13.3191   68.9120   11.3232 N   0  0  0  0  0  0  0  0  0  0  0  0
  -15.3542   69.1366    9.9798 C   0  0  1  0  0  0  0  0  0  0  0  0
  -16.1857   68.8064   11.0958 O   0  0  0  0  0  0  0  0  0  0  0  0
  -16.0975   70.0579    9.0121 C   0  0  2  0  0  0  0  0  0  0  0  0
  -17.2430   69.3770    8.5005 O   0  0  0  0  0  0  0  0  0  0  0  0
  -15.1749   70.3854    7.8370 C   0  0  2  0  0  0  0  0  0  0  0  0
  -13.9666   70.9863    8.3283 O   0  0  0  0  0  0  0  0  0  0  0  0
  -15.9053   71.3162    6.8654 C   0  0  0  0  0  0  0  0  0  0  0  0
  -16.6014   72.3907    7.5890 N   0  0  0  0  0  0  0  0  0  0  0  0
   -9.2538   67.6993    6.8134 C   0  0  2  0  0  0  0  0  0  0  0  0
   -8.0684   67.4734    5.9726 N   0  0  0  0  0  0  0  0  0  0  0  0
  -10.5384   67.5142    6.0033 C   0  0  0  0  0  0  0  0  0  0  0  0
  -11.7309   67.6304    6.9581 C   0  0  2  0  0  0  0  0  0  0  0  0
  -12.9798   67.5429    6.1877 N   0  0  0  0  0  0  0  0  0  0  0  0
  -11.7432   68.9596    7.7187 C   0  0  2  0  0  0  0  0  0  0  0  0
  -10.4133   69.3373    8.3615 C   0  0  2  0  0  0  0  0  0  0  0  0
  -10.5170   70.7372    8.6674 O   0  0  0  0  0  0  0  0  0  0  0  0
   -9.2333   69.1099    7.4074 C   0  0  1  0  0  0  0  0  0  0  0  0
   -7.9874   69.2803    8.0885 O   0  0  0  0  0  0  0  0  0  0  0  0
   -9.3789   71.3176    9.3248 C   0  0  1  0  0  0  0  0  0  0  0  0
   -9.7428   72.7568    9.6934 C   0  0  2  0  0  0  0  0  0  0  0  0
   -9.5252   73.6111    8.5680 O   0  0  0  0  0  0  0  0  0  0  0  0
   -8.6636   73.0100   10.7420 C   0  0  1  0  0  0  0  0  0  0  0  0
   -8.7537   71.7221   11.5452 C   0  0  2  0  0  0  0  0  0  0  0  0
   -9.0631   70.6911   10.5850 O   0  0  0  0  0  0  0  0  0  0  0  0
   -9.8547   71.8667   12.6022 C   0  0  0  0  0  0  0  0  0  0  0  0
   -9.9596   70.6738   13.3848 O   0  0  0  0  0  0  0  0  0  0  0  0
   -6.5727   74.0700   10.7988 C   0  0  2  0  0  0  0  0  0  0  0  0
   -7.3791   73.1050   10.1060 O   0  0  0  0  0  0  0  0  0  0  0  0
   -5.0948   73.8309   10.4735 C   0  0  1  0  0  0  0  0  0  0  0  0
   -6.4613   73.4445   14.8980 N   0  0  0  0  0  0  0  0  0  0  0  0
   -4.2085   74.7847   11.2817 C   0  0  1  0  0  0  0  0  0  0  0  0
   -4.3947   76.1322   10.8368 O   0  0  0  0  0  0  0  0  0  0  0  0
   -4.5521   74.6763   12.7698 C   0  0  2  0  0  0  0  0  0  0  0  0
   -4.2044   73.3638   13.2236 O   0  0  0  0  0  0  0  0  0  0  0  0
   -6.0516   74.9213   12.9695 C   0  0  1  0  0  0  0  0  0  0  0  0
   -6.8104   73.9596   12.2131 O   0  0  0  0  0  0  0  0  0  0  0  0
   -6.4430   74.8441   14.4477 C   0  0  0  0  0  0  0  0  0  0  0  0
   -4.7481   72.4500   10.8423 N   0  0  0  0  0  0  0  0  0  0  0  0
  1  2  1  6  0  0  0
  1  3  1  0  0  0  0
  1 10  1  0  0  0  0
  3  4  1  1  0  0  0
  3  5  1  0  0  0  0
  5  6  1  1  0  0  0
  5  7  1  0  0  0  0
  7  8  1  6  0  0  0
  7  9  1  0  0  0  0
  9 10  1  0  0  0  0
  9 11  1  6  0  0  0
 11 12  1  0  0  0  0
 13 14  1  6  0  0  0
 13 15  1  0  0  0  0
 13 21  1  0  0  0  0
 16 15  1  0  0  0  0
 16 17  1  6  0  0  0
 18  2  1  1  0  0  0
 18 16  1  0  0  0  0
 19 18  1  0  0  0  0
 19 20  1  6  0  0  0
 21 19  1  0  0  0  0
 21 22  1  1  0  0  0
 23 20  1  1  0  0  0
 23 24  1  0  0  0  0
 23 28  1  0  0  0  0
 24 25  1  6  0  0  0
 24 26  1  0  0  0  0
 26 27  1  0  0  0  0
 26 32  1  6  0  0  0
 27 28  1  0  0  0  0
 27 29  1  1  0  0  0
 29 30  1  0  0  0  0
 31 32  1  6  0  0  0
 31 40  1  0  0  0  0
 33 31  1  0  0  0  0
 33 42  1  1  0  0  0
 35 33  1  0  0  0  0
 35 36  1  6  0  0  0
 37 35  1  0  0  0  0
 37 38  1  6  0  0  0
 37 39  1  0  0  0  0
 39 40  1  0  0  0  0
 39 41  1  1  0  0  0
 41 34  1  0  0  0  0
M  END
>  <CHROM.1>
-165.11380278,44.82390853,-165.45760591,178.27886329,-174.06145803,145.09092915
-179.53783148,159.97449171,-74.86873981,-10.10199527,71.22163578,9.83910822
2.54900241,-0.12789211,-2.26357059

>  <Name>
2fcy_lig

>  <RI>
3.12105e+07

>  <Rbt.Current_Directory>
/home/afrankz/demos/rdock_decoys_rna/rnas/2fcy

>  <Rbt.Executable>
rbdock ($Id: //depot/dev/client3/rdock/2013.1/src/exe/rbdock.cxx#4 $)

>  <Rbt.Library>
libRbt.so (2013.1, Build901 2013/11/27)

>  <Rbt.Parameter_File>
/export/apps/rDock/src/rDock_2013.1_src/data/scripts/dock_solv.prm

>  <Rbt.Receptor>
prm/blind_docking_80.prm

>  <SCORE>
95.7692

>  <SCORE.INTER>
52.4653

>  <SCORE.INTER.CONST>
1

>  <SCORE.INTER.POLAR>
-1.03609

>  <SCORE.INTER.ROT>
9

>  <SCORE.INTER.SOLV>
21.8149

>  <SCORE.INTER.VDW>
21.5588

>  <SCORE.INTER.norm>
1.24917

>  <SCORE.INTRA>
-0.66113

>  <SCORE.INTRA.DIHEDRAL>
-7.07749

>  <SCORE.INTRA.DIHEDRAL.0>
17.3446

>  <SCORE.INTRA.POLAR>
0

>  <SCORE.INTRA.POLAR.0>
0

>  <SCORE.INTRA.REPUL>
0

>  <SCORE.INTRA.REPUL.0>
0

>  <SCORE.INTRA.SOLV>
-1.63507

>  <SCORE.INTRA.SOLV.lig_0>
-112.452

>  <SCORE.INTRA.VDW>
3.69515

>  <SCORE.INTRA.VDW.0>
-5.95059

>  <SCORE.INTRA.norm>
-0.0157412

>  <SCORE.RESTR>
43.965

>  <SCORE.RESTR.CAVITY>
43.965

>  <SCORE.RESTR.norm>
1.04679

>  <SCORE.SYSTEM>
0

>  <SCORE.SYSTEM.CONST>
0

>  <SCORE.SYSTEM.DIHEDRAL>
0

>  <SCORE.SYSTEM.SOLV>
0

>  <SCORE.SYSTEM.norm>
0

>  <SCORE.heavy>
42

>  <SCORE.norm>
2.28022

>  <RMSD>
24.844

$$$$
2fcy_lig
 OpenBabel11021811433D
libRbt.so/2013.1/901 2013/11/27
 42 45  0  0  0  0  0  0  0  0999 V2000
   -8.6344   71.5214    9.1363 C   0  0  2  0  0  0  0  0  0  0  0  0
   -9.0822   70.6539   10.1919 O   0  0  0  0  0  0  0  0  0  0  0  0
   -7.6600   70.6840    8.3067 C   0  0  2  0  0  0  0  0  0  0  0  0
   -8.3377   69.4493    7.8884 N   0  0  0  0  0  0  0  0  0  0  0  0
   -6.4368   70.3300    9.1564 C   0  0  1  0  0  0  0  0  0  0  0  0
   -5.5077   69.5493    8.3995 O   0  0  0  0  0  0  0  0  0  0  0  0
   -5.7758   71.6160    9.6536 C   0  0  2  0  0  0  0  0  0  0  0  0
   -4.6943   71.2829   10.5237 O   0  0  0  0  0  0  0  0  0  0  0  0
   -6.8013   72.4188   10.4556 C   0  0  2  0  0  0  0  0  0  0  0  0
   -7.9484   72.6882    9.6346 O   0  0  0  0  0  0  0  0  0  0  0  0
   -6.1533   73.7145   10.9506 C   0  0  0  0  0  0  0  0  0  0  0  0
   -5.6277   74.5030    9.8261 N   0  0  0  0  0  0  0  0  0  0  0  0
  -11.9707   71.0830   13.2117 C   0  0  2  0  0  0  0  0  0  0  0  0
  -13.1323   71.3654   14.0684 N   0  0  0  0  0  0  0  0  0  0  0  0
  -11.4018   72.3757   12.6234 C   0  0  0  0  0  0  0  0  0  0  0  0
  -10.1226   72.0324   11.8534 C   0  0  2  0  0  0  0  0  0  0  0  0
   -9.6054   73.2464   11.2056 N   0  0  0  0  0  0  0  0  0  0  0  0
  -10.3611   70.9855   10.7613 C   0  0  2  0  0  0  0  0  0  0  0  0
  -11.1422   69.7578   11.2162 C   0  0  2  0  0  0  0  0  0  0  0  0
  -11.5880   69.1162   10.0105 O   0  0  0  0  0  0  0  0  0  0  0  0
  -12.3585   70.1396   12.0703 C   0  0  1  0  0  0  0  0  0  0  0  0
  -12.9603   68.9779   12.6476 O   0  0  0  0  0  0  0  0  0  0  0  0
  -12.8790   69.5230    9.5287 C   0  0  1  0  0  0  0  0  0  0  0  0
  -12.6866   70.1043    8.1270 C   0  0  2  0  0  0  0  0  0  0  0  0
  -12.2939   71.4755    8.2249 O   0  0  0  0  0  0  0  0  0  0  0  0
  -14.1298   70.0209    7.6387 C   0  0  1  0  0  0  0  0  0  0  0  0
  -14.4929   68.6163    8.0942 C   0  0  2  0  0  0  0  0  0  0  0  0
  -13.7938   68.4238    9.3411 O   0  0  0  0  0  0  0  0  0  0  0  0
  -14.0438   67.6117    7.0269 C   0  0  0  0  0  0  0  0  0  0  0  0
  -12.6300   67.6925    6.8241 O   0  0  0  0  0  0  0  0  0  0  0  0
  -15.6058   71.8242    7.3774 C   0  0  2  0  0  0  0  0  0  0  0  0
  -14.9354   70.9872    8.3321 O   0  0  0  0  0  0  0  0  0  0  0  0
  -16.7420   72.5833    8.0701 C   0  0  1  0  0  0  0  0  0  0  0  0
  -17.5438   71.7071    2.9554 N   0  0  0  0  0  0  0  0  0  0  0  0
  -17.5358   73.4056    7.0493 C   0  0  1  0  0  0  0  0  0  0  0  0
  -16.7324   74.4755    6.5412 O   0  0  0  0  0  0  0  0  0  0  0  0
  -17.9899   72.5042    5.8979 C   0  0  2  0  0  0  0  0  0  0  0  0
  -18.9184   71.5427    6.4106 O   0  0  0  0  0  0  0  0  0  0  0  0
  -16.7750   71.7917    5.2941 C   0  0  1  0  0  0  0  0  0  0  0  0
  -16.1126   71.0099    6.3054 O   0  0  0  0  0  0  0  0  0  0  0  0
  -17.1751   70.8916    4.1219 C   0  0  0  0  0  0  0  0  0  0  0  0
  -17.6521   71.6080    8.6894 N   0  0  0  0  0  0  0  0  0  0  0  0
  1  2  1  1  0  0  0
  1  3  1  0  0  0  0
  1 10  1  0  0  0  0
  3  4  1  1  0  0  0
  3  5  1  0  0  0  0
  5  6  1  6  0  0  0
  5  7  1  0  0  0  0
  7  8  1  1  0  0  0
  7  9  1  0  0  0  0
  9 10  1  0  0  0  0
  9 11  1  6  0  0  0
 11 12  1  0  0  0  0
 13 14  1  6  0  0  0
 13 15  1  0  0  0  0
 13 21  1  0  0  0  0
 16 15  1  0  0  0  0
 16 17  1  6  0  0  0
 18  2  1  1  0  0  0
 18 16  1  0  0  0  0
 19 18  1  0  0  0  0
 19 20  1  6  0  0  0
 21 19  1  0  0  0  0
 21 22  1  1  0  0  0
 23 20  1  6  0  0  0
 23 24  1  0  0  0  0
 23 28  1  0  0  0  0
 24 25  1  1  0  0  0
 24 26  1  0  0  0  0
 26 27  1  0  0  0  0
 26 32  1  1  0  0  0
 27 28  1  0  0  0  0
 27 29  1  6  0  0  0
 29 30  1  0  0  0  0
 31 32  1  1  0  0  0
 31 40  1  0  0  0  0
 33 31  1  0  0  0  0
 33 42  1  6  0  0  0
 35 33  1  0  0  0  0
 35 36  1  6  0  0  0
 37 35  1  0  0  0  0
 37 38  1  1  0  0  0
 37 39  1  0  0  0  0
 39 40  1  0  0  0  0
 39 41  1  6  0  0  0
 41 34  1  0  0  0  0
M  END
>  <CHROM.1>
-155.60504869,57.21697652,-85.57176469,-91.05663367,119.98563473,125.06745076
59.77534317,164.45084544,71.84618810,-12.09394700,71.05703290,8.92925740
-0.38032586,-0.01954937,-1.54789944

>  <Name>
2fcy_lig

>  <RI>
3.12105e+07

>  <Rbt.Current_Directory>
/home/afrankz/demos/rdock_decoys_rna/rnas/2fcy

>  <Rbt.Executable>
rbdock ($Id: //depot/dev/client3/rdock/2013.1/src/exe/rbdock.cxx#4 $)

>  <Rbt.Library>
libRbt.so (2013.1, Build901 2013/11/27)

>  <Rbt.Parameter_File>
/export/apps/rDock/src/rDock_2013.1_src/data/scripts/dock_solv.prm

>  <Rbt.Receptor>
prm/blind_docking_80.prm

>  <SCORE>
122.56

>  <SCORE.INTER>
66.5968

>  <SCORE.INTER.CONST>
1

>  <SCORE.INTER.POLAR>
-1.12681

>  <SCORE.INTER.ROT>
9

>  <SCORE.INTER.SOLV>
27.6636

>  <SCORE.INTER.VDW>
29.3327

>  <SCORE.INTER.norm>
1.58564

>  <SCORE.INTRA>
10.0304

>  <SCORE.INTRA.DIHEDRAL>
7.38118

>  <SCORE.INTRA.DIHEDRAL.0>
17.3446

>  <SCORE.INTRA.POLAR>
0

>  <SCORE.INTRA.POLAR.0>
0

>  <SCORE.INTRA.REPUL>
0

>  <SCORE.INTRA.REPUL.0>
0

>  <SCORE.INTRA.SOLV>
0.513464

>  <SCORE.INTRA.SOLV.lig_0>
-112.452

>  <SCORE.INTRA.VDW>
6.08313

>  <SCORE.INTRA.VDW.0>
-5.95059

>  <SCORE.INTRA.norm>
0.23882

>  <SCORE.RESTR>
45.9329

>  <SCORE.RESTR.CAVITY>
45.9329

>  <SCORE.RESTR.norm>
1.09364

>  <SCORE.SYSTEM>
0

>  <SCORE.SYSTEM.CONST>
0

>  <SCORE.SYSTEM.DIHEDRAL>
0

>  <SCORE.SYSTEM.SOLV>
0

>  <SCORE.SYSTEM.norm>
0

>  <SCORE.heavy>
42

>  <SCORE.norm>
2.9181

>  <RMSD>
24.927

$$$$
2fcy_lig
 OpenBabel11021811433D
libRbt.so/2013.1/901 2013/11/27
 42 45  0  0  0  0  0  0  0  0999 V2000
  -10.1888   71.6357   10.8353 C   0  0  2  0  0  0  0  0  0  0  0  0
   -9.7111   71.5636    9.4812 O   0  0  0  0  0  0  0  0  0  0  0  0
   -9.7494   73.0073   11.3497 C   0  0  2  0  0  0  0  0  0  0  0  0
  -10.2493   74.0379   10.4296 N   0  0  0  0  0  0  0  0  0  0  0  0
   -8.2208   73.0694   11.4011 C   0  0  1  0  0  0  0  0  0  0  0  0
   -7.7853   74.3434   11.8840 O   0  0  0  0  0  0  0  0  0  0  0  0
   -7.6979   71.9486   12.3001 C   0  0  2  0  0  0  0  0  0  0  0  0
   -6.2707   71.9482   12.2696 O   0  0  0  0  0  0  0  0  0  0  0  0
   -8.1855   70.6076   11.7495 C   0  0  2  0  0  0  0  0  0  0  0  0
   -9.6197   70.6115   11.6766 O   0  0  0  0  0  0  0  0  0  0  0  0
   -7.6761   69.4774   12.6478 C   0  0  0  0  0  0  0  0  0  0  0  0
   -7.9508   69.7658   14.0633 N   0  0  0  0  0  0  0  0  0  0  0  0
   -9.1824   68.6327    6.5185 C   0  0  2  0  0  0  0  0  0  0  0  0
   -8.9803   67.4276    5.7002 N   0  0  0  0  0  0  0  0  0  0  0  0
   -8.0309   68.8169    7.5089 C   0  0  0  0  0  0  0  0  0  0  0  0
   -8.2292   70.1511    8.2355 C   0  0  2  0  0  0  0  0  0  0  0  0
   -7.1819   70.3090    9.2548 N   0  0  0  0  0  0  0  0  0  0  0  0
   -9.5854   70.2358    8.9419 C   0  0  2  0  0  0  0  0  0  0  0  0
  -10.7774   69.8314    8.0816 C   0  0  2  0  0  0  0  0  0  0  0  0
  -11.8569   69.6034    9.0019 O   0  0  0  0  0  0  0  0  0  0  0  0
  -10.5007   68.5455    7.2915 C   0  0  1  0  0  0  0  0  0  0  0  0
  -11.5455   68.2925    6.3483 O   0  0  0  0  0  0  0  0  0  0  0  0
  -13.1449   70.0828    8.5829 C   0  0  1  0  0  0  0  0  0  0  0  0
  -14.0184   68.8623    8.2880 C   0  0  2  0  0  0  0  0  0  0  0  0
  -13.7625   68.3973    6.9606 O   0  0  0  0  0  0  0  0  0  0  0  0
  -15.3866   69.5361    8.3375 C   0  0  1  0  0  0  0  0  0  0  0  0
  -15.2353   70.3725    9.5982 C   0  0  2  0  0  0  0  0  0  0  0  0
  -13.8561   70.7945    9.6164 O   0  0  0  0  0  0  0  0  0  0  0  0
  -15.5844   69.5100   10.8166 C   0  0  0  0  0  0  0  0  0  0  0  0
  -16.4921   70.2023   11.6787 O   0  0  0  0  0  0  0  0  0  0  0  0
  -16.7177   71.2078    7.3721 C   0  0  2  0  0  0  0  0  0  0  0  0
  -15.5497   70.3918    7.1953 O   0  0  0  0  0  0  0  0  0  0  0  0
  -17.3125   71.5548    6.0035 C   0  0  1  0  0  0  0  0  0  0  0  0
  -17.0505   74.0361   10.6236 N   0  0  0  0  0  0  0  0  0  0  0  0
  -18.5008   72.5091    6.1635 C   0  0  1  0  0  0  0  0  0  0  0  0
  -19.5938   71.8386    6.7992 O   0  0  0  0  0  0  0  0  0  0  0  0
  -18.0817   73.7244    6.9952 C   0  0  2  0  0  0  0  0  0  0  0  0
  -17.1012   74.4640    6.2597 O   0  0  0  0  0  0  0  0  0  0  0  0
  -17.4934   73.2546    8.3300 C   0  0  1  0  0  0  0  0  0  0  0  0
  -16.3592   72.4003    8.0921 O   0  0  0  0  0  0  0  0  0  0  0  0
  -17.0771   74.4369    9.2093 C   0  0  0  0  0  0  0  0  0  0  0  0
  -16.2818   72.2273    5.1982 N   0  0  0  0  0  0  0  0  0  0  0  0
  1  2  1  6  0  0  0
  1  3  1  0  0  0  0
  1 10  1  0  0  0  0
  3  4  1  6  0  0  0
  3  5  1  0  0  0  0
  5  6  1  1  0  0  0
  5  7  1  0  0  0  0
  7  8  1  6  0  0  0
  7  9  1  0  0  0  0
  9 10  1  0  0  0  0
  9 11  1  1  0  0  0
 11 12  1  0  0  0  0
 13 14  1  1  0  0  0
 13 15  1  0  0  0  0
 13 21  1  0  0  0  0
 16 15  1  0  0  0  0
 16 17  1  1  0  0  0
 18  2  1  6  0  0  0
 18 16  1  0  0  0  0
 19 18  1  0  0  0  0
 19 20  1  1  0  0  0
 21 19  1  0  0  0  0
 21 22  1  6  0  0  0
 23 20  1  1  0  0  0
 23 24  1  0  0  0  0
 23 28  1  0  0  0  0
 24 25  1  6  0  0  0
 24 26  1  0  0  0  0
 26 27  1  0  0  0  0
 26 32  1  6  0  0  0
 27 28  1  0  0  0  0
 27 29  1  1  0  0  0
 29 30  1  0  0  0  0
 31 32  1  6  0  0  0
 31 40  1  0  0  0  0
 33 31  1  0  0  0  0
 33 42  1  6  0  0  0
 35 33  1  0  0  0  0
 35 36  1  1  0  0  0
 37 35  1  0  0  0  0
 37 38  1  6  0  0  0
 37 39  1  0  0  0  0
 39 40  1  0  0  0  0
 39 41  1  1  0  0  0
 41 34  1  0  0  0  0
M  END
>  <CHROM.1>
159.27859706,49.10584634,-134.35285311,139.55316082,110.53379382,-169.23927185
-131.63967717,-151.09454864,156.65659267,-12.49341226,71.04570737,9.03436968
0.15826841,-0.32766773,0.83585361

>  <Name>
2fcy_lig

>  <RI>
3.12105e+07

>  <Rbt.Current_Directory>
/home/afrankz/demos/rdock_decoys_rna/rnas/2fcy

>  <Rbt.Executable>
rbdock ($Id: //depot/dev/client3/rdock/2013.1/src/exe/rbdock.cxx#4 $)

>  <Rbt.Library>
libRbt.so (2013.1, Build901 2013/11/27)

>  <Rbt.Parameter_File>
/export/apps/rDock/src/rDock_2013.1_src/data/scripts/dock_solv.prm

>  <Rbt.Receptor>
prm/blind_docking_80.prm

>  <SCORE>
80.1208

>  <SCORE.INTER>
23.9954

>  <SCORE.INTER.CONST>
1

>  <SCORE.INTER.POLAR>
0

>  <SCORE.INTER.ROT>
9

>  <SCORE.INTER.SOLV>
26.2508

>  <SCORE.INTER.VDW>
-2.35335

>  <SCORE.INTER.norm>
0.571318

>  <SCORE.INTRA>
11.1985

>  <SCORE.INTRA.DIHEDRAL>
14.0212

>  <SCORE.INTRA.DIHEDRAL.0>
17.3446

>  <SCORE.INTRA.POLAR>
0

>  <SCORE.INTRA.POLAR.0>
0

>  <SCORE.INTRA.REPUL>
0

>  <SCORE.INTRA.REPUL.0>
0

>  <SCORE.INTRA.SOLV>
-0.0482644

>  <SCORE.INTRA.SOLV.lig_0>
-112.452

>  <SCORE.INTRA.VDW>
4.21204

>  <SCORE.INTRA.VDW.0>
-5.95059

>  <SCORE.INTRA.norm>
0.266631

>  <SCORE.RESTR>
44.9269

>  <SCORE.RESTR.CAVITY>
44.9269

>  <SCORE.RESTR.norm>
1.06969

>  <SCORE.SYSTEM>
0

>  <SCORE.SYSTEM.CONST>
0

>  <SCORE.SYSTEM.DIHEDRAL>
0

>  <SCORE.SYSTEM.SOLV>
0

>  <SCORE.SYSTEM.norm>
0

>  <SCORE.heavy>
42

>  <SCORE.norm>
1.90764

>  <RMSD>
25.026

$$$$
2fcy_lig
 OpenBabel11021811433D
libRbt.so/2013.1/901 2013/11/27
 42 45  0  0  0  0  0  0  0  0999 V2000
  -16.5575   71.2544    8.2599 C   0  0  2  0  0  0  0  0  0  0  0  0
  -15.1331   71.4450    8.3057 O   0  0  0  0  0  0  0  0  0  0  0  0
  -16.9593   71.5329    6.8108 C   0  0  2  0  0  0  0  0  0  0  0  0
  -16.1608   70.6728    5.9268 N   0  0  0  0  0  0  0  0  0  0  0  0
  -16.6844   73.0011    6.4761 C   0  0  1  0  0  0  0  0  0  0  0  0
  -17.0568   73.2871    5.1251 O   0  0  0  0  0  0  0  0  0  0  0  0
  -17.4578   73.8953    7.4457 C   0  0  2  0  0  0  0  0  0  0  0  0
  -17.1248   75.2604    7.1941 O   0  0  0  0  0  0  0  0  0  0  0  0
  -17.0306   73.5574    8.8749 C   0  0  2  0  0  0  0  0  0  0  0  0
  -17.2641   72.1633    9.1288 O   0  0  0  0  0  0  0  0  0  0  0  0
  -17.8063   74.4402    9.8561 C   0  0  0  0  0  0  0  0  0  0  0  0
  -19.1218   73.8580   10.1611 N   0  0  0  0  0  0  0  0  0  0  0  0
  -13.2761   67.8714    9.5005 C   0  0  2  0  0  0  0  0  0  0  0  0
  -12.5720   66.5880    9.6426 N   0  0  0  0  0  0  0  0  0  0  0  0
  -14.4657   67.7365    8.5479 C   0  0  0  0  0  0  0  0  0  0  0  0
  -15.2330   69.0626    8.5446 C   0  0  2  0  0  0  0  0  0  0  0  0
  -16.3305   68.9859    7.5696 N   0  0  0  0  0  0  0  0  0  0  0  0
  -14.3463   70.2498    8.1578 C   0  0  2  0  0  0  0  0  0  0  0  0
  -13.0173   70.3206    8.9017 C   0  0  2  0  0  0  0  0  0  0  0  0
  -12.2000   71.2278    8.1447 O   0  0  0  0  0  0  0  0  0  0  0  0
  -12.3288   68.9510    8.9715 C   0  0  1  0  0  0  0  0  0  0  0  0
  -11.1905   68.9968    9.8359 O   0  0  0  0  0  0  0  0  0  0  0  0
  -10.9632   71.6170    8.7637 C   0  0  1  0  0  0  0  0  0  0  0  0
  -10.6185   70.5584    9.8126 C   0  0  2  0  0  0  0  0  0  0  0  0
  -11.3138   70.8426   11.0290 O   0  0  0  0  0  0  0  0  0  0  0  0
   -9.1360   70.8751    9.9867 C   0  0  1  0  0  0  0  0  0  0  0  0
   -8.7123   71.0130    8.5329 C   0  0  2  0  0  0  0  0  0  0  0  0
   -9.8404   71.6070    7.8583 O   0  0  0  0  0  0  0  0  0  0  0  0
   -8.3793   69.6248    7.9742 C   0  0  0  0  0  0  0  0  0  0  0  0
   -7.3280   69.0176    8.7309 O   0  0  0  0  0  0  0  0  0  0  0  0
   -7.6682   72.2086   11.2380 C   0  0  2  0  0  0  0  0  0  0  0  0
   -8.9828   72.1316   10.6657 O   0  0  0  0  0  0  0  0  0  0  0  0
   -7.5794   71.2704   12.4458 C   0  0  1  0  0  0  0  0  0  0  0  0
   -5.1969   75.8324   11.2662 N   0  0  0  0  0  0  0  0  0  0  0  0
   -6.2174   71.4121   13.1338 C   0  0  1  0  0  0  0  0  0  0  0  0
   -5.1794   70.9052   12.2888 O   0  0  0  0  0  0  0  0  0  0  0  0
   -5.9510   72.8845   13.4583 C   0  0  2  0  0  0  0  0  0  0  0  0
   -6.9100   73.3181   14.4288 O   0  0  0  0  0  0  0  0  0  0  0  0
   -6.0792   73.7227   12.1819 C   0  0  1  0  0  0  0  0  0  0  0  0
   -7.3973   73.5676   11.6239 O   0  0  0  0  0  0  0  0  0  0  0  0
   -5.8007   75.2041   12.4505 C   0  0  0  0  0  0  0  0  0  0  0  0
   -8.6271   71.6410   13.4092 N   0  0  0  0  0  0  0  0  0  0  0  0
  1  2  1  6  0  0  0
  1  3  1  0  0  0  0
  1 10  1  0  0  0  0
  3  4  1  6  0  0  0
  3  5  1  0  0  0  0
  5  6  1  6  0  0  0
  5  7  1  0  0  0  0
  7  8  1  6  0  0  0
  7  9  1  0  0  0  0
  9 10  1  0  0  0  0
  9 11  1  1  0  0  0
 11 12  1  0  0  0  0
 13 14  1  6  0  0  0
 13 15  1  0  0  0  0
 13 21  1  0  0  0  0
 16 15  1  0  0  0  0
 16 17  1  6  0  0  0
 18  2  1  1  0  0  0
 18 16  1  0  0  0  0
 19 18  1  0  0  0  0
 19 20  1  6  0  0  0
 21 19  1  0  0  0  0
 21 22  1  1  0  0  0
 23 20  1  6  0  0  0
 23 24  1  0  0  0  0
 23 28  1  0  0  0  0
 24 25  1  1  0  0  0
 24 26  1  0  0  0  0
 26 27  1  0  0  0  0
 26 32  1  1  0  0  0
 27 28  1  0  0  0  0
 27 29  1  6  0  0  0
 29 30  1  0  0  0  0
 31 32  1  1  0  0  0
 31 40  1  0  0  0  0
 33 31  1  0  0  0  0
 33 42  1  1  0  0  0
 35 33  1  0  0  0  0
 35 36  1  6  0  0  0
 37 35  1  0  0  0  0
 37 38  1  1  0  0  0
 37 39  1  0  0  0  0
 39 40  1  0  0  0  0
 39 41  1  1  0  0  0
 41 34  1  0  0  0  0
M  END
>  <CHROM.1>
-95.50080007,84.35929730,-22.24265957,170.78236319,21.14742943,159.93336101
-59.11329882,-72.43182434,148.38455290,-11.81320336,71.53410367,9.58735836
3.00148249,0.37019004,-2.86212720

>  <Name>
2fcy_lig

>  <RI>
3.12105e+07

>  <Rbt.Current_Directory>
/home/afrankz/demos/rdock_decoys_rna/rnas/2fcy

>  <Rbt.Executable>
rbdock ($Id: //depot/dev/client3/rdock/2013.1/src/exe/rbdock.cxx#4 $)

>  <Rbt.Library>
libRbt.so (2013.1, Build901 2013/11/27)

>  <Rbt.Parameter_File>
/export/apps/rDock/src/rDock_2013.1_src/data/scripts/dock_solv.prm

>  <Rbt.Receptor>
prm/blind_docking_80.prm

>  <SCORE>
124.206

>  <SCORE.INTER>
34.9269

>  <SCORE.INTER.CONST>
1

>  <SCORE.INTER.POLAR>
-1.03923

>  <SCORE.INTER.ROT>
9

>  <SCORE.INTER.SOLV>
23.3491

>  <SCORE.INTER.VDW>
9.3657

>  <SCORE.INTER.norm>
0.831593

>  <SCORE.INTRA>
49.083

>  <SCORE.INTRA.DIHEDRAL>
5.32961

>  <SCORE.INTRA.DIHEDRAL.0>
17.3446

>  <SCORE.INTRA.POLAR>
0

>  <SCORE.INTRA.POLAR.0>
0

>  <SCORE.INTRA.REPUL>
0

>  <SCORE.INTRA.REPUL.0>
0

>  <SCORE.INTRA.SOLV>
3.38088

>  <SCORE.INTRA.SOLV.lig_0>
-112.452

>  <SCORE.INTRA.VDW>
44.7278

>  <SCORE.INTRA.VDW.0>
-5.95059

>  <SCORE.INTRA.norm>
1.16864

>  <SCORE.RESTR>
40.1961

>  <SCORE.RESTR.CAVITY>
40.1961

>  <SCORE.RESTR.norm>
0.957051

>  <SCORE.SYSTEM>
0

>  <SCORE.SYSTEM.CONST>
0

>  <SCORE.SYSTEM.DIHEDRAL>
0

>  <SCORE.SYSTEM.SOLV>
0

>  <SCORE.SYSTEM.norm>
0

>  <SCORE.heavy>
42

>  <SCORE.norm>
2.95729

>  <RMSD>
25.601

$$$$
2fcy_lig
 OpenBabel11021811433D
libRbt.so/2013.1/901 2013/11/27
 42 45  0  0  0  0  0  0  0  0999 V2000
  -16.8992   72.3665   11.3610 C   0  0  2  0  0  0  0  0  0  0  0  0
  -17.7058   71.8675   10.2804 O   0  0  0  0  0  0  0  0  0  0  0  0
  -17.8791   72.6648   12.4967 C   0  0  2  0  0  0  0  0  0  0  0  0
  -18.6597   71.4518   12.7762 N   0  0  0  0  0  0  0  0  0  0  0  0
  -18.8246   73.7922   12.0746 C   0  0  1  0  0  0  0  0  0  0  0  0
  -19.7491   74.0923   13.1239 O   0  0  0  0  0  0  0  0  0  0  0  0
  -18.0055   75.0313   11.7117 C   0  0  2  0  0  0  0  0  0  0  0  0
  -18.8816   76.0486   11.2267 O   0  0  0  0  0  0  0  0  0  0  0  0
  -17.0324   74.6672   10.5894 C   0  0  2  0  0  0  0  0  0  0  0  0
  -16.1978   73.5777   11.0124 O   0  0  0  0  0  0  0  0  0  0  0  0
  -16.1992   75.8984   10.2240 C   0  0  0  0  0  0  0  0  0  0  0  0
  -15.5335   76.4547   11.4115 N   0  0  0  0  0  0  0  0  0  0  0  0
  -17.2578   70.8773    6.2227 C   0  0  2  0  0  0  0  0  0  0  0  0
  -16.8594   70.6776    4.8211 N   0  0  0  0  0  0  0  0  0  0  0  0
  -17.3490   72.3680    6.5549 C   0  0  0  0  0  0  0  0  0  0  0  0
  -17.8935   72.5115    7.9798 C   0  0  2  0  0  0  0  0  0  0  0  0
  -17.9076   73.9332    8.3531 N   0  0  0  0  0  0  0  0  0  0  0  0
  -17.0393   71.7664    9.0096 C   0  0  2  0  0  0  0  0  0  0  0  0
  -16.6984   70.3288    8.6331 C   0  0  2  0  0  0  0  0  0  0  0  0
  -15.6103   69.9531    9.4928 O   0  0  0  0  0  0  0  0  0  0  0  0
  -16.2550   70.2122    7.1688 C   0  0  1  0  0  0  0  0  0  0  0  0
  -16.1309   68.8411    6.7819 O   0  0  0  0  0  0  0  0  0  0  0  0
  -14.2936   70.2307    8.9891 C   0  0  1  0  0  0  0  0  0  0  0  0
  -13.3038   69.9996   10.1321 C   0  0  2  0  0  0  0  0  0  0  0  0
  -13.2340   71.1690   10.9515 O   0  0  0  0  0  0  0  0  0  0  0  0
  -12.0233   69.8749    9.3115 C   0  0  1  0  0  0  0  0  0  0  0  0
  -12.4977   68.9505    8.2014 C   0  0  2  0  0  0  0  0  0  0  0  0
  -13.8707   69.3181    7.9553 O   0  0  0  0  0  0  0  0  0  0  0  0
  -12.3716   67.4968    8.6718 C   0  0  0  0  0  0  0  0  0  0  0  0
  -11.0453   67.2331    9.1386 O   0  0  0  0  0  0  0  0  0  0  0  0
  -10.3176   71.4748    9.1400 C   0  0  2  0  0  0  0  0  0  0  0  0
  -11.6669   71.1557    8.7673 O   0  0  0  0  0  0  0  0  0  0  0  0
   -9.3426   70.6911    8.2554 C   0  0  1  0  0  0  0  0  0  0  0  0
   -9.3611   69.9884   12.8558 N   0  0  0  0  0  0  0  0  0  0  0  0
   -7.8979   70.9384    8.7027 C   0  0  1  0  0  0  0  0  0  0  0  0
   -7.5195   72.2919    8.4325 O   0  0  0  0  0  0  0  0  0  0  0  0
   -7.7620   70.6496   10.2002 C   0  0  2  0  0  0  0  0  0  0  0  0
   -7.9897   69.2530   10.4176 O   0  0  0  0  0  0  0  0  0  0  0  0
   -8.7910   71.4771   10.9779 C   0  0  1  0  0  0  0  0  0  0  0  0
  -10.1201   71.1546   10.5283 O   0  0  0  0  0  0  0  0  0  0  0  0
   -8.6814   71.2387   12.4864 C   0  0  0  0  0  0  0  0  0  0  0  0
   -9.6317   69.2555    8.3916 N   0  0  0  0  0  0  0  0  0  0  0  0
  1  2  1  6  0  0  0
  1  3  1  0  0  0  0
  1 10  1  0  0  0  0
  3  4  1  6  0  0  0
  3  5  1  0  0  0  0
  5  6  1  1  0  0  0
  5  7  1  0  0  0  0
  7  8  1  6  0  0  0
  7  9  1  0  0  0  0
  9 10  1  0  0  0  0
  9 11  1  1  0  0  0
 11 12  1  0  0  0  0
 13 14  1  6  0  0  0
 13 15  1  0  0  0  0
 13 21  1  0  0  0  0
 16 15  1  0  0  0  0
 16 17  1  1  0  0  0
 18  2  1  1  0  0  0
 18 16  1  0  0  0  0
 19 18  1  0  0  0  0
 19 20  1  1  0  0  0
 21 19  1  0  0  0  0
 21 22  1  6  0  0  0
 23 20  1  1  0  0  0
 23 24  1  0  0  0  0
 23 28  1  0  0  0  0
 24 25  1  1  0  0  0
 24 26  1  0  0  0  0
 26 27  1  0  0  0  0
 26 32  1  6  0  0  0
 27 28  1  0  0  0  0
 27 29  1  1  0  0  0
 29 30  1  0  0  0  0
 31 32  1  6  0  0  0
 31 40  1  0  0  0  0
 33 31  1  0  0  0  0
 33 42  1  1  0  0  0
 35 33  1  0  0  0  0
 35 36  1  1  0  0  0
 37 35  1  0  0  0  0
 37 38  1  6  0  0  0
 37 39  1  0  0  0  0
 39 40  1  0  0  0  0
 39 41  1  1  0  0  0
 41 34  1  0  0  0  0
M  END
>  <CHROM.1>
168.17863078,54.43624301,-127.15070649,-89.53575798,169.94366101,125.72382439
-53.18983309,77.60283245,-80.16940094,-14.08657730,71.49343195,9.67458203
-2.83627785,0.22349742,-2.31034593

>  <Name>
2fcy_lig

>  <RI>
3.12105e+07

>  <Rbt.Current_Directory>
/home/afrankz/demos/rdock_decoys_rna/rnas/2fcy

>  <Rbt.Executable>
rbdock ($Id: //depot/dev/client3/rdock/2013.1/src/exe/rbdock.cxx#4 $)

>  <Rbt.Library>
libRbt.so (2013.1, Build901 2013/11/27)

>  <Rbt.Parameter_File>
/export/apps/rDock/src/rDock_2013.1_src/data/scripts/dock_solv.prm

>  <Rbt.Receptor>
prm/blind_docking_80.prm

>  <SCORE>
116.425

>  <SCORE.INTER>
53.6073

>  <SCORE.INTER.CONST>
1

>  <SCORE.INTER.POLAR>
-0.552557

>  <SCORE.INTER.ROT>
9

>  <SCORE.INTER.SOLV>
17.6557

>  <SCORE.INTER.VDW>
22.0948

>  <SCORE.INTER.norm>
1.27636

>  <SCORE.INTRA>
13.2322

>  <SCORE.INTRA.DIHEDRAL>
3.97716

>  <SCORE.INTRA.DIHEDRAL.0>
17.3446

>  <SCORE.INTRA.POLAR>
0

>  <SCORE.INTRA.POLAR.0>
0

>  <SCORE.INTRA.REPUL>
0.0689147

>  <SCORE.INTRA.REPUL.0>
0

>  <SCORE.INTRA.SOLV>
5.76573

>  <SCORE.INTRA.SOLV.lig_0>
-112.452

>  <SCORE.INTRA.VDW>
8.01614

>  <SCORE.INTRA.VDW.0>
-5.95059

>  <SCORE.INTRA.norm>
0.315051

>  <SCORE.RESTR>
49.5858

>  <SCORE.RESTR.CAVITY>
49.5858

>  <SCORE.RESTR.norm>
1.18062

>  <SCORE.SYSTEM>
0

>  <SCORE.SYSTEM.CONST>
0

>  <SCORE.SYSTEM.DIHEDRAL>
0

>  <SCORE.SYSTEM.SOLV>
0

>  <SCORE.SYSTEM.norm>
0

>  <SCORE.heavy>
42

>  <SCORE.norm>
2.77203

>  <RMSD>
26.241

$$$$
