1o15_lig
 OpenBabel02221317003D

 21 22  0  0  0  0  0  0  0  0999 V2000
    9.8580    0.3120   37.7930 C   0  0  0  0  0  0  0  0  0  0  0  0
    9.7180    1.6530   37.5110 N   0  0  0  0  0  0  0  0  0  0  0  0
   10.4920    2.5290   38.2040 C   0  0  0  0  0  0  0  0  0  0  0  0
   11.2520    2.0350   39.0330 O   0  0  0  0  0  0  0  0  0  0  0  0
   11.2650    4.7520   38.7600 C   0  0  0  0  0  0  0  0  0  0  0  0
   10.4700    3.8860   38.0400 N   0  0  0  0  0  0  0  0  0  0  0  0
    9.5830    4.2930   37.0920 C   0  0  0  0  0  0  0  0  0  0  0  0
    8.8130    3.4030   36.4010 C   0  0  0  0  0  0  0  0  0  0  0  0
    8.8270    2.0050   36.5620 C   0  0  0  0  0  0  0  0  0  0  0  0
    8.1640    1.1530   35.9760 O   0  0  0  0  0  0  0  0  0  0  0  0
    8.0410    4.1640   35.5350 N   0  0  0  0  0  0  0  0  0  0  0  0
    8.3950    5.4540   35.7590 C   0  0  0  0  0  0  0  0  0  0  0  0
    9.3110    5.5930   36.6790 N   0  0  0  0  0  0  0  0  0  0  0  0
    7.3660    3.7900   34.8840 H   0  0  0  0  0  0  0  0  0  0  0  0
    7.9490    6.2970   35.2240 H   0  0  0  0  0  0  0  0  0  0  0  0
    9.9660    0.1640   38.8720 H   0  0  0  0  0  0  0  0  0  0  0  0
   10.7430   -0.0730   37.2880 H   0  0  0  0  0  0  0  0  0  0  0  0
    8.9820   -0.2430   37.4520 H   0  0  0  0  0  0  0  0  0  0  0  0
   10.8900    4.8260   39.7800 H   0  0  0  0  0  0  0  0  0  0  0  0
   11.2490    5.7410   38.2970 H   0  0  0  0  0  0  0  0  0  0  0  0
   12.2880    4.3770   38.7750 H   0  0  0  0  0  0  0  0  0  0  0  0
  1  2  1  0  0  0  0
  1 16  1  0  0  0  0
  1 17  1  0  0  0  0
  1 18  1  0  0  0  0
  2  3  1  0  0  0  0
  2  9  1  0  0  0  0
  3  4  2  0  0  0  0
  3  6  1  0  0  0  0
  5 19  1  0  0  0  0
  5 20  1  0  0  0  0
  5 21  1  0  0  0  0
  6  5  1  0  0  0  0
  6  7  1  0  0  0  0
  7  8  2  0  0  0  0
  7 13  1  0  0  0  0
  8  9  1  0  0  0  0
  8 11  1  0  0  0  0
  9 10  2  0  0  0  0
 11 12  1  0  0  0  0
 11 14  1  0  0  0  0
 12 13  2  0  0  0  0
 12 15  1  0  0  0  0
M  END
$$$$
