1o15_lig
 OpenBabel11021811403D
libRbt.so/2013.1/901 2013/11/27
 13 14  0  0  0  0  0  0  0  0999 V2000
    9.5187    0.8843   37.9685 C   0  0  0  0  0  0  0  0  0  0  0  0
    9.3448    2.1935   37.5772 N   0  0  0  0  0  0  0  0  0  0  0  0
   10.3324    3.0786   37.8738 C   0  0  0  0  0  0  0  0  0  0  0  0
   11.3001    2.6215   38.4765 O   0  0  0  0  0  0  0  0  0  0  0  0
   11.3245    5.2841   37.8709 C   0  0  0  0  0  0  0  0  0  0  0  0
   10.3087    4.4076   37.5542 N   0  0  0  0  0  0  0  0  0  0  0  0
    9.1792    4.7751   36.8906 C   0  0  0  0  0  0  0  0  0  0  0  0
    8.1955    3.8761   36.5964 C   0  0  0  0  0  0  0  0  0  0  0  0
    8.2092    2.5068   36.9208 C   0  0  0  0  0  0  0  0  0  0  0  0
    7.3619    1.6487   36.6869 O   0  0  0  0  0  0  0  0  0  0  0  0
    7.2143    4.5948   35.9287 N   0  0  0  0  0  0  0  0  0  0  0  0
    7.6688    5.8710   35.8641 C   0  0  0  0  0  0  0  0  0  0  0  0
    8.8368    6.0395   36.4229 N   0  0  0  0  0  0  0  0  0  0  0  0
  1  2  1  0  0  0  0
  2  3  1  0  0  0  0
  2  9  1  0  0  0  0
  3  4  2  0  0  0  0
  3  6  1  0  0  0  0
  6  5  1  0  0  0  0
  6  7  1  0  0  0  0
  7  8  2  0  0  0  0
  7 13  1  0  0  0  0
  8  9  1  0  0  0  0
  8 11  1  0  0  0  0
  9 10  2  0  0  0  0
 11 12  1  0  0  0  0
 12 13  2  0  0  0  0
M  END
>  <CHROM.1>
9.15650403,3.63076315,37.14534161,1.05282675,0.46233640,2.91347154

>  <Name>
1o15_lig

>  <RI>
0

>  <Rbt.Current_Directory>
/home/itssahil/PROJECTS/Mol_Feturizer/New_Systems/rnas/1o15

>  <Rbt.Executable>
rbdock ($Id: //depot/dev/client3/rdock/2013.1/src/exe/rbdock.cxx#4 $)

>  <Rbt.Library>
libRbt.so (2013.1, Build901 2013/11/27)

>  <Rbt.Parameter_File>
/export/apps/rDock/src/rDock_2013.1_src/data/scripts/dock_solv.prm

>  <Rbt.Receptor>
prm/pocket_docking_2.prm

>  <SCORE>
-23.3976

>  <SCORE.INTER>
-23.3976

>  <SCORE.INTER.CONST>
1

>  <SCORE.INTER.POLAR>
-1.97047

>  <SCORE.INTER.ROT>
0

>  <SCORE.INTER.SOLV>
6.34969

>  <SCORE.INTER.VDW>
-14.7467

>  <SCORE.INTER.norm>
-1.79981

>  <SCORE.INTRA>
0

>  <SCORE.INTRA.DIHEDRAL>
0

>  <SCORE.INTRA.DIHEDRAL.0>
0

>  <SCORE.INTRA.POLAR>
0

>  <SCORE.INTRA.POLAR.0>
0

>  <SCORE.INTRA.REPUL>
0

>  <SCORE.INTRA.REPUL.0>
0

>  <SCORE.INTRA.SOLV>
0

>  <SCORE.INTRA.SOLV.lig_0>
-12.9184

>  <SCORE.INTRA.VDW>
0

>  <SCORE.INTRA.VDW.0>
0

>  <SCORE.INTRA.norm>
0

>  <SCORE.RESTR>
0

>  <SCORE.RESTR.CAVITY>
0

>  <SCORE.RESTR.norm>
0

>  <SCORE.SYSTEM>
0

>  <SCORE.SYSTEM.CONST>
0

>  <SCORE.SYSTEM.DIHEDRAL>
0

>  <SCORE.SYSTEM.SOLV>
0

>  <SCORE.SYSTEM.norm>
0

>  <SCORE.heavy>
13

>  <SCORE.norm>
-1.79981

>  <RMSD>
0.836

$$$$
1o15_lig
 OpenBabel11021811403D
libRbt.so/2013.1/901 2013/11/27
 13 14  0  0  0  0  0  0  0  0999 V2000
    9.5534    0.8963   38.0509 C   0  0  0  0  0  0  0  0  0  0  0  0
    9.3760    2.1933   37.6224 N   0  0  0  0  0  0  0  0  0  0  0  0
   10.3681    3.0856   37.8799 C   0  0  0  0  0  0  0  0  0  0  0  0
   11.3427    2.6456   38.4844 O   0  0  0  0  0  0  0  0  0  0  0  0
   11.3623    5.2886   37.7981 C   0  0  0  0  0  0  0  0  0  0  0  0
   10.3418    4.4043   37.5206 N   0  0  0  0  0  0  0  0  0  0  0  0
    9.2047    4.7532   36.8601 C   0  0  0  0  0  0  0  0  0  0  0  0
    8.2166    3.8470   36.6053 C   0  0  0  0  0  0  0  0  0  0  0  0
    8.2328    2.4881   36.9708 C   0  0  0  0  0  0  0  0  0  0  0  0
    7.3819    1.6245   36.7733 O   0  0  0  0  0  0  0  0  0  0  0  0
    7.2279    4.5465   35.9282 N   0  0  0  0  0  0  0  0  0  0  0  0
    7.6829    5.8196   35.8194 C   0  0  0  0  0  0  0  0  0  0  0  0
    8.8578    6.0032   36.3586 N   0  0  0  0  0  0  0  0  0  0  0  0
  1  2  1  0  0  0  0
  2  3  1  0  0  0  0
  2  9  1  0  0  0  0
  3  4  2  0  0  0  0
  3  6  1  0  0  0  0
  6  5  1  0  0  0  0
  6  7  1  0  0  0  0
  7  8  2  0  0  0  0
  7 13  1  0  0  0  0
  8  9  1  0  0  0  0
  8 11  1  0  0  0  0
  9 10  2  0  0  0  0
 11 12  1  0  0  0  0
 12 13  2  0  0  0  0
M  END
>  <CHROM.1>
9.18393633,3.61704579,37.14958677,1.05083066,0.45015324,2.88409127

>  <Name>
1o15_lig

>  <RI>
0

>  <Rbt.Current_Directory>
/home/itssahil/PROJECTS/Mol_Feturizer/New_Systems/rnas/1o15

>  <Rbt.Executable>
rbdock ($Id: //depot/dev/client3/rdock/2013.1/src/exe/rbdock.cxx#4 $)

>  <Rbt.Library>
libRbt.so (2013.1, Build901 2013/11/27)

>  <Rbt.Parameter_File>
/export/apps/rDock/src/rDock_2013.1_src/data/scripts/dock_solv.prm

>  <Rbt.Receptor>
prm/pocket_docking_2.prm

>  <SCORE>
-23.463

>  <SCORE.INTER>
-23.463

>  <SCORE.INTER.CONST>
1

>  <SCORE.INTER.POLAR>
-1.9757

>  <SCORE.INTER.ROT>
0

>  <SCORE.INTER.SOLV>
6.29078

>  <SCORE.INTER.VDW>
-14.7533

>  <SCORE.INTER.norm>
-1.80485

>  <SCORE.INTRA>
0

>  <SCORE.INTRA.DIHEDRAL>
0

>  <SCORE.INTRA.DIHEDRAL.0>
0

>  <SCORE.INTRA.POLAR>
0

>  <SCORE.INTRA.POLAR.0>
0

>  <SCORE.INTRA.REPUL>
0

>  <SCORE.INTRA.REPUL.0>
0

>  <SCORE.INTRA.SOLV>
0

>  <SCORE.INTRA.SOLV.lig_0>
-12.9184

>  <SCORE.INTRA.VDW>
0

>  <SCORE.INTRA.VDW.0>
0

>  <SCORE.INTRA.norm>
0

>  <SCORE.RESTR>
0

>  <SCORE.RESTR.CAVITY>
0

>  <SCORE.RESTR.norm>
0

>  <SCORE.SYSTEM>
0

>  <SCORE.SYSTEM.CONST>
0

>  <SCORE.SYSTEM.DIHEDRAL>
0

>  <SCORE.SYSTEM.SOLV>
0

>  <SCORE.SYSTEM.norm>
0

>  <SCORE.heavy>
13

>  <SCORE.norm>
-1.80485

>  <RMSD>
0.838

$$$$
1o15_lig
 OpenBabel11021811403D
libRbt.so/2013.1/901 2013/11/27
 13 14  0  0  0  0  0  0  0  0999 V2000
    9.5271    0.9099   38.0621 C   0  0  0  0  0  0  0  0  0  0  0  0
    9.3571    2.2045   37.6233 N   0  0  0  0  0  0  0  0  0  0  0  0
   10.3494    3.0958   37.8835 C   0  0  0  0  0  0  0  0  0  0  0  0
   11.3175    2.6572   38.4994 O   0  0  0  0  0  0  0  0  0  0  0  0
   11.3505    5.2954   37.7957 C   0  0  0  0  0  0  0  0  0  0  0  0
   10.3299    4.4121   37.5152 N   0  0  0  0  0  0  0  0  0  0  0  0
    9.1996    4.7597   36.8424 C   0  0  0  0  0  0  0  0  0  0  0  0
    8.2111    3.8545   36.5851 C   0  0  0  0  0  0  0  0  0  0  0  0
    8.2204    2.4980   36.9599 C   0  0  0  0  0  0  0  0  0  0  0  0
    7.3688    1.6355   36.7607 O   0  0  0  0  0  0  0  0  0  0  0  0
    7.2304    4.5521   35.8948 N   0  0  0  0  0  0  0  0  0  0  0  0
    7.6899    5.8232   35.7814 C   0  0  0  0  0  0  0  0  0  0  0  0
    8.8605    6.0073   36.3296 N   0  0  0  0  0  0  0  0  0  0  0  0
  1  2  1  0  0  0  0
  2  3  1  0  0  0  0
  2  9  1  0  0  0  0
  3  4  2  0  0  0  0
  3  6  1  0  0  0  0
  6  5  1  0  0  0  0
  6  7  1  0  0  0  0
  7  8  2  0  0  0  0
  7 13  1  0  0  0  0
  8  9  1  0  0  0  0
  8 11  1  0  0  0  0
  9 10  2  0  0  0  0
 11 12  1  0  0  0  0
 12 13  2  0  0  0  0
M  END
>  <CHROM.1>
9.17310762,3.62556970,37.13934457,1.05631899,0.45784329,2.87497619

>  <Name>
1o15_lig

>  <RI>
0

>  <Rbt.Current_Directory>
/home/itssahil/PROJECTS/Mol_Feturizer/New_Systems/rnas/1o15

>  <Rbt.Executable>
rbdock ($Id: //depot/dev/client3/rdock/2013.1/src/exe/rbdock.cxx#4 $)

>  <Rbt.Library>
libRbt.so (2013.1, Build901 2013/11/27)

>  <Rbt.Parameter_File>
/export/apps/rDock/src/rDock_2013.1_src/data/scripts/dock_solv.prm

>  <Rbt.Receptor>
prm/pocket_docking_2.prm

>  <SCORE>
-23.5165

>  <SCORE.INTER>
-23.5165

>  <SCORE.INTER.CONST>
1

>  <SCORE.INTER.POLAR>
-1.98063

>  <SCORE.INTER.ROT>
0

>  <SCORE.INTER.SOLV>
6.29822

>  <SCORE.INTER.VDW>
-14.775

>  <SCORE.INTER.norm>
-1.80896

>  <SCORE.INTRA>
0

>  <SCORE.INTRA.DIHEDRAL>
0

>  <SCORE.INTRA.DIHEDRAL.0>
0

>  <SCORE.INTRA.POLAR>
0

>  <SCORE.INTRA.POLAR.0>
0

>  <SCORE.INTRA.REPUL>
0

>  <SCORE.INTRA.REPUL.0>
0

>  <SCORE.INTRA.SOLV>
0

>  <SCORE.INTRA.SOLV.lig_0>
-12.9184

>  <SCORE.INTRA.VDW>
0

>  <SCORE.INTRA.VDW.0>
0

>  <SCORE.INTRA.norm>
0

>  <SCORE.RESTR>
0

>  <SCORE.RESTR.CAVITY>
0

>  <SCORE.RESTR.norm>
0

>  <SCORE.SYSTEM>
0

>  <SCORE.SYSTEM.CONST>
0

>  <SCORE.SYSTEM.DIHEDRAL>
0

>  <SCORE.SYSTEM.SOLV>
0

>  <SCORE.SYSTEM.norm>
0

>  <SCORE.heavy>
13

>  <SCORE.norm>
-1.80896

>  <RMSD>
0.844

$$$$
1o15_lig
 OpenBabel11021811403D
libRbt.so/2013.1/901 2013/11/27
 13 14  0  0  0  0  0  0  0  0999 V2000
    9.4735    0.9045   38.0725 C   0  0  0  0  0  0  0  0  0  0  0  0
    9.3167    2.2019   37.6369 N   0  0  0  0  0  0  0  0  0  0  0  0
   10.3124    3.0853   37.9103 C   0  0  0  0  0  0  0  0  0  0  0  0
   11.2713    2.6379   38.5340 O   0  0  0  0  0  0  0  0  0  0  0  0
   11.3292    5.2784   37.8405 C   0  0  0  0  0  0  0  0  0  0  0  0
   10.3055    4.4031   37.5467 N   0  0  0  0  0  0  0  0  0  0  0  0
    9.1843    4.7609   36.8640 C   0  0  0  0  0  0  0  0  0  0  0  0
    8.1923    3.8635   36.5936 C   0  0  0  0  0  0  0  0  0  0  0  0
    8.1886    2.5056   36.9633 C   0  0  0  0  0  0  0  0  0  0  0  0
    7.3332    1.6497   36.7525 O   0  0  0  0  0  0  0  0  0  0  0  0
    7.2233    4.5703   35.8962 N   0  0  0  0  0  0  0  0  0  0  0  0
    7.6925    5.8386   35.7921 C   0  0  0  0  0  0  0  0  0  0  0  0
    8.8588    6.0127   36.3525 N   0  0  0  0  0  0  0  0  0  0  0  0
  1  2  1  0  0  0  0
  2  3  1  0  0  0  0
  2  9  1  0  0  0  0
  3  4  2  0  0  0  0
  3  6  1  0  0  0  0
  6  5  1  0  0  0  0
  6  7  1  0  0  0  0
  7  8  2  0  0  0  0
  7 13  1  0  0  0  0
  8  9  1  0  0  0  0
  8 11  1  0  0  0  0
  9 10  2  0  0  0  0
 11 12  1  0  0  0  0
 12 13  2  0  0  0  0
M  END
>  <CHROM.1>
9.14715998,3.62591905,37.15645466,1.06659415,0.46561085,2.87410179

>  <Name>
1o15_lig

>  <RI>
0

>  <Rbt.Current_Directory>
/home/itssahil/PROJECTS/Mol_Feturizer/New_Systems/rnas/1o15

>  <Rbt.Executable>
rbdock ($Id: //depot/dev/client3/rdock/2013.1/src/exe/rbdock.cxx#4 $)

>  <Rbt.Library>
libRbt.so (2013.1, Build901 2013/11/27)

>  <Rbt.Parameter_File>
/export/apps/rDock/src/rDock_2013.1_src/data/scripts/dock_solv.prm

>  <Rbt.Receptor>
prm/pocket_docking_2.prm

>  <SCORE>
-23.4137

>  <SCORE.INTER>
-23.4137

>  <SCORE.INTER.CONST>
1

>  <SCORE.INTER.POLAR>
-1.96643

>  <SCORE.INTER.ROT>
0

>  <SCORE.INTER.SOLV>
6.36118

>  <SCORE.INTER.VDW>
-14.7748

>  <SCORE.INTER.norm>
-1.80105

>  <SCORE.INTRA>
0

>  <SCORE.INTRA.DIHEDRAL>
0

>  <SCORE.INTRA.DIHEDRAL.0>
0

>  <SCORE.INTRA.POLAR>
0

>  <SCORE.INTRA.POLAR.0>
0

>  <SCORE.INTRA.REPUL>
0

>  <SCORE.INTRA.REPUL.0>
0

>  <SCORE.INTRA.SOLV>
0

>  <SCORE.INTRA.SOLV.lig_0>
-12.9184

>  <SCORE.INTRA.VDW>
0

>  <SCORE.INTRA.VDW.0>
0

>  <SCORE.INTRA.norm>
0

>  <SCORE.RESTR>
0

>  <SCORE.RESTR.CAVITY>
0

>  <SCORE.RESTR.norm>
0

>  <SCORE.SYSTEM>
0

>  <SCORE.SYSTEM.CONST>
0

>  <SCORE.SYSTEM.DIHEDRAL>
0

>  <SCORE.SYSTEM.SOLV>
0

>  <SCORE.SYSTEM.norm>
0

>  <SCORE.heavy>
13

>  <SCORE.norm>
-1.80105

>  <RMSD>
0.845

$$$$
1o15_lig
 OpenBabel11021811403D
libRbt.so/2013.1/901 2013/11/27
 13 14  0  0  0  0  0  0  0  0999 V2000
    9.5347    0.9066   38.0328 C   0  0  0  0  0  0  0  0  0  0  0  0
    9.3624    2.2041   37.6037 N   0  0  0  0  0  0  0  0  0  0  0  0
   10.3552    3.0941   37.8665 C   0  0  0  0  0  0  0  0  0  0  0  0
   11.3257    2.6517   38.4758 O   0  0  0  0  0  0  0  0  0  0  0  0
   11.3548    5.2948   37.7903 C   0  0  0  0  0  0  0  0  0  0  0  0
   10.3337    4.4130   37.5074 N   0  0  0  0  0  0  0  0  0  0  0  0
    9.2007    4.7646   36.8412 C   0  0  0  0  0  0  0  0  0  0  0  0
    8.2118    3.8607   36.5812 C   0  0  0  0  0  0  0  0  0  0  0  0
    8.2232    2.5017   36.9464 C   0  0  0  0  0  0  0  0  0  0  0  0
    7.3713    1.6401   36.7444 O   0  0  0  0  0  0  0  0  0  0  0  0
    7.2282    4.5626   35.8993 N   0  0  0  0  0  0  0  0  0  0  0  0
    7.6866    5.8347   35.7931 C   0  0  0  0  0  0  0  0  0  0  0  0
    8.8592    6.0155   36.3383 N   0  0  0  0  0  0  0  0  0  0  0  0
  1  2  1  0  0  0  0
  2  3  1  0  0  0  0
  2  9  1  0  0  0  0
  3  4  2  0  0  0  0
  3  6  1  0  0  0  0
  6  5  1  0  0  0  0
  6  7  1  0  0  0  0
  7  8  2  0  0  0  0
  7 13  1  0  0  0  0
  8  9  1  0  0  0  0
  8 11  1  0  0  0  0
  9 10  2  0  0  0  0
 11 12  1  0  0  0  0
 12 13  2  0  0  0  0
M  END
>  <CHROM.1>
9.17592033,3.62842653,37.13029854,1.05470449,0.45446956,2.88264956

>  <Name>
1o15_lig

>  <RI>
0

>  <Rbt.Current_Directory>
/home/itssahil/PROJECTS/Mol_Feturizer/New_Systems/rnas/1o15

>  <Rbt.Executable>
rbdock ($Id: //depot/dev/client3/rdock/2013.1/src/exe/rbdock.cxx#4 $)

>  <Rbt.Library>
libRbt.so (2013.1, Build901 2013/11/27)

>  <Rbt.Parameter_File>
/export/apps/rDock/src/rDock_2013.1_src/data/scripts/dock_solv.prm

>  <Rbt.Receptor>
prm/pocket_docking_2.prm

>  <SCORE>
-23.4664

>  <SCORE.INTER>
-23.4664

>  <SCORE.INTER.CONST>
1

>  <SCORE.INTER.POLAR>
-1.97949

>  <SCORE.INTER.ROT>
0

>  <SCORE.INTER.SOLV>
6.30025

>  <SCORE.INTER.VDW>
-14.7461

>  <SCORE.INTER.norm>
-1.80511

>  <SCORE.INTRA>
0

>  <SCORE.INTRA.DIHEDRAL>
0

>  <SCORE.INTRA.DIHEDRAL.0>
0

>  <SCORE.INTRA.POLAR>
0

>  <SCORE.INTRA.POLAR.0>
0

>  <SCORE.INTRA.REPUL>
0

>  <SCORE.INTRA.REPUL.0>
0

>  <SCORE.INTRA.SOLV>
0

>  <SCORE.INTRA.SOLV.lig_0>
-12.9184

>  <SCORE.INTRA.VDW>
0

>  <SCORE.INTRA.VDW.0>
0

>  <SCORE.INTRA.norm>
0

>  <SCORE.RESTR>
0

>  <SCORE.RESTR.CAVITY>
0

>  <SCORE.RESTR.norm>
0

>  <SCORE.SYSTEM>
0

>  <SCORE.SYSTEM.CONST>
0

>  <SCORE.SYSTEM.DIHEDRAL>
0

>  <SCORE.SYSTEM.SOLV>
0

>  <SCORE.SYSTEM.norm>
0

>  <SCORE.heavy>
13

>  <SCORE.norm>
-1.80511

>  <RMSD>
0.845

$$$$
1o15_lig
 OpenBabel11021811403D
libRbt.so/2013.1/901 2013/11/27
 13 14  0  0  0  0  0  0  0  0999 V2000
    9.5380    0.9051   38.0537 C   0  0  0  0  0  0  0  0  0  0  0  0
    9.3649    2.2026   37.6249 N   0  0  0  0  0  0  0  0  0  0  0  0
   10.3602    3.0915   37.8820 C   0  0  0  0  0  0  0  0  0  0  0  0
   11.3334    2.6483   38.4862 O   0  0  0  0  0  0  0  0  0  0  0  0
   11.3620    5.2911   37.7994 C   0  0  0  0  0  0  0  0  0  0  0  0
   10.3383    4.4103   37.5224 N   0  0  0  0  0  0  0  0  0  0  0  0
    9.2022    4.7629   36.8621 C   0  0  0  0  0  0  0  0  0  0  0  0
    8.2109    3.8601   36.6078 C   0  0  0  0  0  0  0  0  0  0  0  0
    8.2226    2.5012   36.9736 C   0  0  0  0  0  0  0  0  0  0  0  0
    7.3686    1.6406   36.7765 O   0  0  0  0  0  0  0  0  0  0  0  0
    7.2245    4.5629   35.9308 N   0  0  0  0  0  0  0  0  0  0  0  0
    7.6838    5.8344   35.8216 C   0  0  0  0  0  0  0  0  0  0  0  0
    8.8595    6.0141   36.3604 N   0  0  0  0  0  0  0  0  0  0  0  0
  1  2  1  0  0  0  0
  2  3  1  0  0  0  0
  2  9  1  0  0  0  0
  3  4  2  0  0  0  0
  3  6  1  0  0  0  0
  6  5  1  0  0  0  0
  6  7  1  0  0  0  0
  7  8  2  0  0  0  0
  7 13  1  0  0  0  0
  8  9  1  0  0  0  0
  8 11  1  0  0  0  0
  9 10  2  0  0  0  0
 11 12  1  0  0  0  0
 12 13  2  0  0  0  0
M  END
>  <CHROM.1>
9.17762439,3.62694595,37.15183879,1.05445101,0.44899618,2.88229894

>  <Name>
1o15_lig

>  <RI>
0

>  <Rbt.Current_Directory>
/home/itssahil/PROJECTS/Mol_Feturizer/New_Systems/rnas/1o15

>  <Rbt.Executable>
rbdock ($Id: //depot/dev/client3/rdock/2013.1/src/exe/rbdock.cxx#4 $)

>  <Rbt.Library>
libRbt.so (2013.1, Build901 2013/11/27)

>  <Rbt.Parameter_File>
/export/apps/rDock/src/rDock_2013.1_src/data/scripts/dock_solv.prm

>  <Rbt.Receptor>
prm/pocket_docking_2.prm

>  <SCORE>
-23.4648

>  <SCORE.INTER>
-23.4648

>  <SCORE.INTER.CONST>
1

>  <SCORE.INTER.POLAR>
-2.00067

>  <SCORE.INTER.ROT>
0

>  <SCORE.INTER.SOLV>
6.33067

>  <SCORE.INTER.VDW>
-14.6845

>  <SCORE.INTER.norm>
-1.80499

>  <SCORE.INTRA>
0

>  <SCORE.INTRA.DIHEDRAL>
0

>  <SCORE.INTRA.DIHEDRAL.0>
0

>  <SCORE.INTRA.POLAR>
0

>  <SCORE.INTRA.POLAR.0>
0

>  <SCORE.INTRA.REPUL>
0

>  <SCORE.INTRA.REPUL.0>
0

>  <SCORE.INTRA.SOLV>
0

>  <SCORE.INTRA.SOLV.lig_0>
-12.9184

>  <SCORE.INTRA.VDW>
0

>  <SCORE.INTRA.VDW.0>
0

>  <SCORE.INTRA.norm>
0

>  <SCORE.RESTR>
0

>  <SCORE.RESTR.CAVITY>
0

>  <SCORE.RESTR.norm>
0

>  <SCORE.SYSTEM>
0

>  <SCORE.SYSTEM.CONST>
0

>  <SCORE.SYSTEM.DIHEDRAL>
0

>  <SCORE.SYSTEM.SOLV>
0

>  <SCORE.SYSTEM.norm>
0

>  <SCORE.heavy>
13

>  <SCORE.norm>
-1.80499

>  <RMSD>
0.846

$$$$
1o15_lig
 OpenBabel11021811403D
libRbt.so/2013.1/901 2013/11/27
 13 14  0  0  0  0  0  0  0  0999 V2000
    9.5840    0.9228   38.0118 C   0  0  0  0  0  0  0  0  0  0  0  0
    9.3877    2.2244   37.6059 N   0  0  0  0  0  0  0  0  0  0  0  0
   10.3610    3.1290   37.8907 C   0  0  0  0  0  0  0  0  0  0  0  0
   11.3371    2.6949   38.4970 O   0  0  0  0  0  0  0  0  0  0  0  0
   11.3163    5.3505   37.8610 C   0  0  0  0  0  0  0  0  0  0  0  0
   10.3147    4.4537   37.5561 N   0  0  0  0  0  0  0  0  0  0  0  0
    9.1783    4.7948   36.8903 C   0  0  0  0  0  0  0  0  0  0  0  0
    8.2092    3.8763   36.6081 C   0  0  0  0  0  0  0  0  0  0  0  0
    8.2461    2.5112   36.9480 C   0  0  0  0  0  0  0  0  0  0  0  0
    7.4129    1.6366   36.7253 O   0  0  0  0  0  0  0  0  0  0  0  0
    7.2152    4.5709   35.9339 N   0  0  0  0  0  0  0  0  0  0  0  0
    7.6483    5.8537   35.8539 C   0  0  0  0  0  0  0  0  0  0  0  0
    8.8141    6.0479   36.4088 N   0  0  0  0  0  0  0  0  0  0  0  0
  1  2  1  0  0  0  0
  2  3  1  0  0  0  0
  2  9  1  0  0  0  0
  3  4  2  0  0  0  0
  3  6  1  0  0  0  0
  6  5  1  0  0  0  0
  6  7  1  0  0  0  0
  7  8  2  0  0  0  0
  7 13  1  0  0  0  0
  8  9  1  0  0  0  0
  8 11  1  0  0  0  0
  9 10  2  0  0  0  0
 11 12  1  0  0  0  0
 12 13  2  0  0  0  0
M  END
>  <CHROM.1>
9.17495491,3.65322631,37.15809911,1.03433425,0.46453871,2.91033365

>  <Name>
1o15_lig

>  <RI>
0

>  <Rbt.Current_Directory>
/home/itssahil/PROJECTS/Mol_Feturizer/New_Systems/rnas/1o15

>  <Rbt.Executable>
rbdock ($Id: //depot/dev/client3/rdock/2013.1/src/exe/rbdock.cxx#4 $)

>  <Rbt.Library>
libRbt.so (2013.1, Build901 2013/11/27)

>  <Rbt.Parameter_File>
/export/apps/rDock/src/rDock_2013.1_src/data/scripts/dock_solv.prm

>  <Rbt.Receptor>
prm/pocket_docking_4.prm

>  <SCORE>
-23.4639

>  <SCORE.INTER>
-23.4639

>  <SCORE.INTER.CONST>
1

>  <SCORE.INTER.POLAR>
-1.99442

>  <SCORE.INTER.ROT>
0

>  <SCORE.INTER.SOLV>
6.35032

>  <SCORE.INTER.VDW>
-14.7113

>  <SCORE.INTER.norm>
-1.80491

>  <SCORE.INTRA>
0

>  <SCORE.INTRA.DIHEDRAL>
0

>  <SCORE.INTRA.DIHEDRAL.0>
0

>  <SCORE.INTRA.POLAR>
0

>  <SCORE.INTRA.POLAR.0>
0

>  <SCORE.INTRA.REPUL>
0

>  <SCORE.INTRA.REPUL.0>
0

>  <SCORE.INTRA.SOLV>
0

>  <SCORE.INTRA.SOLV.lig_0>
-12.9184

>  <SCORE.INTRA.VDW>
0

>  <SCORE.INTRA.VDW.0>
0

>  <SCORE.INTRA.norm>
0

>  <SCORE.RESTR>
0

>  <SCORE.RESTR.CAVITY>
0

>  <SCORE.RESTR.norm>
0

>  <SCORE.SYSTEM>
0

>  <SCORE.SYSTEM.CONST>
0

>  <SCORE.SYSTEM.DIHEDRAL>
0

>  <SCORE.SYSTEM.SOLV>
0

>  <SCORE.SYSTEM.norm>
0

>  <SCORE.heavy>
13

>  <SCORE.norm>
-1.80491

>  <RMSD>
0.848

$$$$
1o15_lig
 OpenBabel11021811403D
libRbt.so/2013.1/901 2013/11/27
 13 14  0  0  0  0  0  0  0  0999 V2000
    9.5913    0.9345   38.0605 C   0  0  0  0  0  0  0  0  0  0  0  0
    9.3964    2.2296   37.6334 N   0  0  0  0  0  0  0  0  0  0  0  0
   10.3743    3.1359   37.8964 C   0  0  0  0  0  0  0  0  0  0  0  0
   11.3530    2.7092   38.5038 O   0  0  0  0  0  0  0  0  0  0  0  0
   11.3363    5.3534   37.8222 C   0  0  0  0  0  0  0  0  0  0  0  0
   10.3300    4.4547   37.5392 N   0  0  0  0  0  0  0  0  0  0  0  0
    9.1904    4.7880   36.8749 C   0  0  0  0  0  0  0  0  0  0  0  0
    8.2166    3.8678   36.6147 C   0  0  0  0  0  0  0  0  0  0  0  0
    8.2515    2.5087   36.9780 C   0  0  0  0  0  0  0  0  0  0  0  0
    7.4141    1.6330   36.7757 O   0  0  0  0  0  0  0  0  0  0  0  0
    7.2204    4.5539   35.9350 N   0  0  0  0  0  0  0  0  0  0  0  0
    7.6570    5.8337   35.8302 C   0  0  0  0  0  0  0  0  0  0  0  0
    8.8270    6.0337   36.3742 N   0  0  0  0  0  0  0  0  0  0  0  0
  1  2  1  0  0  0  0
  2  3  1  0  0  0  0
  2  9  1  0  0  0  0
  3  4  2  0  0  0  0
  3  6  1  0  0  0  0
  6  5  1  0  0  0  0
  6  7  1  0  0  0  0
  7  8  2  0  0  0  0
  7 13  1  0  0  0  0
  8  9  1  0  0  0  0
  8 11  1  0  0  0  0
  9 10  2  0  0  0  0
 11 12  1  0  0  0  0
 12 13  2  0  0  0  0
M  END
>  <CHROM.1>
9.18522310,3.65117783,37.16235552,1.03604593,0.45756168,2.89231065

>  <Name>
1o15_lig

>  <RI>
0

>  <Rbt.Current_Directory>
/home/itssahil/PROJECTS/Mol_Feturizer/New_Systems/rnas/1o15

>  <Rbt.Executable>
rbdock ($Id: //depot/dev/client3/rdock/2013.1/src/exe/rbdock.cxx#4 $)

>  <Rbt.Library>
libRbt.so (2013.1, Build901 2013/11/27)

>  <Rbt.Parameter_File>
/export/apps/rDock/src/rDock_2013.1_src/data/scripts/dock_solv.prm

>  <Rbt.Receptor>
prm/pocket_docking_3.prm

>  <SCORE>
-23.542

>  <SCORE.INTER>
-23.542

>  <SCORE.INTER.CONST>
1

>  <SCORE.INTER.POLAR>
-2.01003

>  <SCORE.INTER.ROT>
0

>  <SCORE.INTER.SOLV>
6.33889

>  <SCORE.INTER.VDW>
-14.7075

>  <SCORE.INTER.norm>
-1.81092

>  <SCORE.INTRA>
0

>  <SCORE.INTRA.DIHEDRAL>
0

>  <SCORE.INTRA.DIHEDRAL.0>
0

>  <SCORE.INTRA.POLAR>
0

>  <SCORE.INTRA.POLAR.0>
0

>  <SCORE.INTRA.REPUL>
0

>  <SCORE.INTRA.REPUL.0>
0

>  <SCORE.INTRA.SOLV>
0

>  <SCORE.INTRA.SOLV.lig_0>
-12.9184

>  <SCORE.INTRA.VDW>
0

>  <SCORE.INTRA.VDW.0>
0

>  <SCORE.INTRA.norm>
0

>  <SCORE.RESTR>
0

>  <SCORE.RESTR.CAVITY>
0

>  <SCORE.RESTR.norm>
0

>  <SCORE.SYSTEM>
0

>  <SCORE.SYSTEM.CONST>
0

>  <SCORE.SYSTEM.DIHEDRAL>
0

>  <SCORE.SYSTEM.SOLV>
0

>  <SCORE.SYSTEM.norm>
0

>  <SCORE.heavy>
13

>  <SCORE.norm>
-1.81092

>  <RMSD>
0.855

$$$$
1o15_lig
 OpenBabel11021811403D
libRbt.so/2013.1/901 2013/11/27
 13 14  0  0  0  0  0  0  0  0999 V2000
    9.4838    0.9420   38.0923 C   0  0  0  0  0  0  0  0  0  0  0  0
    9.3099    2.2405   37.6669 N   0  0  0  0  0  0  0  0  0  0  0  0
   10.2776    3.1426   37.9774 C   0  0  0  0  0  0  0  0  0  0  0  0
   11.2288    2.7093   38.6226 O   0  0  0  0  0  0  0  0  0  0  0  0
   11.2463    5.3584   37.9600 C   0  0  0  0  0  0  0  0  0  0  0  0
   10.2511    4.4641   37.6283 N   0  0  0  0  0  0  0  0  0  0  0  0
    9.1412    4.8048   36.9188 C   0  0  0  0  0  0  0  0  0  0  0  0
    8.1775    3.8888   36.6111 C   0  0  0  0  0  0  0  0  0  0  0  0
    8.1942    2.5270   36.9656 C   0  0  0  0  0  0  0  0  0  0  0  0
    7.3644    1.6547   36.7218 O   0  0  0  0  0  0  0  0  0  0  0  0
    7.2124    4.5820   35.8949 N   0  0  0  0  0  0  0  0  0  0  0  0
    7.6556    5.8615   35.8179 C   0  0  0  0  0  0  0  0  0  0  0  0
    8.8019    6.0549   36.4123 N   0  0  0  0  0  0  0  0  0  0  0  0
  1  2  1  0  0  0  0
  2  3  1  0  0  0  0
  2  9  1  0  0  0  0
  3  4  2  0  0  0  0
  3  6  1  0  0  0  0
  6  5  1  0  0  0  0
  6  7  1  0  0  0  0
  7  8  2  0  0  0  0
  7 13  1  0  0  0  0
  8  9  1  0  0  0  0
  8 11  1  0  0  0  0
  9 10  2  0  0  0  0
 11 12  1  0  0  0  0
 12 13  2  0  0  0  0
M  END
>  <CHROM.1>
9.12164625,3.66593296,37.19757826,1.05016144,0.49800410,2.89302907

>  <Name>
1o15_lig

>  <RI>
0

>  <Rbt.Current_Directory>
/home/itssahil/PROJECTS/Mol_Feturizer/New_Systems/rnas/1o15

>  <Rbt.Executable>
rbdock ($Id: //depot/dev/client3/rdock/2013.1/src/exe/rbdock.cxx#4 $)

>  <Rbt.Library>
libRbt.so (2013.1, Build901 2013/11/27)

>  <Rbt.Parameter_File>
/export/apps/rDock/src/rDock_2013.1_src/data/scripts/dock_solv.prm

>  <Rbt.Receptor>
prm/pocket_docking_2.prm

>  <SCORE>
-23.3876

>  <SCORE.INTER>
-23.3876

>  <SCORE.INTER.CONST>
1

>  <SCORE.INTER.POLAR>
-1.94832

>  <SCORE.INTER.ROT>
0

>  <SCORE.INTER.SOLV>
6.46395

>  <SCORE.INTER.VDW>
-14.852

>  <SCORE.INTER.norm>
-1.79905

>  <SCORE.INTRA>
0

>  <SCORE.INTRA.DIHEDRAL>
0

>  <SCORE.INTRA.DIHEDRAL.0>
0

>  <SCORE.INTRA.POLAR>
0

>  <SCORE.INTRA.POLAR.0>
0

>  <SCORE.INTRA.REPUL>
0

>  <SCORE.INTRA.REPUL.0>
0

>  <SCORE.INTRA.SOLV>
0

>  <SCORE.INTRA.SOLV.lig_0>
-12.9184

>  <SCORE.INTRA.VDW>
0

>  <SCORE.INTRA.VDW.0>
0

>  <SCORE.INTRA.norm>
0

>  <SCORE.RESTR>
0

>  <SCORE.RESTR.CAVITY>
0

>  <SCORE.RESTR.norm>
0

>  <SCORE.SYSTEM>
0

>  <SCORE.SYSTEM.CONST>
0

>  <SCORE.SYSTEM.DIHEDRAL>
0

>  <SCORE.SYSTEM.SOLV>
0

>  <SCORE.SYSTEM.norm>
0

>  <SCORE.heavy>
13

>  <SCORE.norm>
-1.79905

>  <RMSD>
0.856

$$$$
1o15_lig
 OpenBabel11021811403D
libRbt.so/2013.1/901 2013/11/27
 13 14  0  0  0  0  0  0  0  0999 V2000
    9.5788    0.9405   38.0921 C   0  0  0  0  0  0  0  0  0  0  0  0
    9.3885    2.2327   37.6546 N   0  0  0  0  0  0  0  0  0  0  0  0
   10.3693    3.1378   37.9108 C   0  0  0  0  0  0  0  0  0  0  0  0
   11.3462    2.7127   38.5222 O   0  0  0  0  0  0  0  0  0  0  0  0
   11.3387    5.3515   37.8194 C   0  0  0  0  0  0  0  0  0  0  0  0
   10.3295    4.4539   37.5431 N   0  0  0  0  0  0  0  0  0  0  0  0
    9.1914    4.7856   36.8755 C   0  0  0  0  0  0  0  0  0  0  0  0
    8.2148    3.8667   36.6222 C   0  0  0  0  0  0  0  0  0  0  0  0
    8.2449    2.5104   36.9964 C   0  0  0  0  0  0  0  0  0  0  0  0
    7.4047    1.6359   36.8006 O   0  0  0  0  0  0  0  0  0  0  0  0
    7.2212    4.5506   35.9365 N   0  0  0  0  0  0  0  0  0  0  0  0
    7.6621    5.8281   35.8217 C   0  0  0  0  0  0  0  0  0  0  0  0
    8.8325    6.0285   36.3647 N   0  0  0  0  0  0  0  0  0  0  0  0
  1  2  1  0  0  0  0
  2  3  1  0  0  0  0
  2  9  1  0  0  0  0
  3  4  2  0  0  0  0
  3  6  1  0  0  0  0
  6  5  1  0  0  0  0
  6  7  1  0  0  0  0
  7  8  2  0  0  0  0
  7 13  1  0  0  0  0
  8  9  1  0  0  0  0
  8 11  1  0  0  0  0
  9 10  2  0  0  0  0
 11 12  1  0  0  0  0
 12 13  2  0  0  0  0
M  END
>  <CHROM.1>
9.18231525,3.65117929,37.17208096,1.03980053,0.45722991,2.88265869

>  <Name>
1o15_lig

>  <RI>
0

>  <Rbt.Current_Directory>
/home/itssahil/PROJECTS/Mol_Feturizer/New_Systems/rnas/1o15

>  <Rbt.Executable>
rbdock ($Id: //depot/dev/client3/rdock/2013.1/src/exe/rbdock.cxx#4 $)

>  <Rbt.Library>
libRbt.so (2013.1, Build901 2013/11/27)

>  <Rbt.Parameter_File>
/export/apps/rDock/src/rDock_2013.1_src/data/scripts/dock_solv.prm

>  <Rbt.Receptor>
prm/pocket_docking_6.prm

>  <SCORE>
-23.5325

>  <SCORE.INTER>
-23.5325

>  <SCORE.INTER.CONST>
1

>  <SCORE.INTER.POLAR>
-2.01381

>  <SCORE.INTER.ROT>
0

>  <SCORE.INTER.SOLV>
6.35883

>  <SCORE.INTER.VDW>
-14.6953

>  <SCORE.INTER.norm>
-1.81019

>  <SCORE.INTRA>
0

>  <SCORE.INTRA.DIHEDRAL>
0

>  <SCORE.INTRA.DIHEDRAL.0>
0

>  <SCORE.INTRA.POLAR>
0

>  <SCORE.INTRA.POLAR.0>
0

>  <SCORE.INTRA.REPUL>
0

>  <SCORE.INTRA.REPUL.0>
0

>  <SCORE.INTRA.SOLV>
0

>  <SCORE.INTRA.SOLV.lig_0>
-12.9184

>  <SCORE.INTRA.VDW>
0

>  <SCORE.INTRA.VDW.0>
0

>  <SCORE.INTRA.norm>
0

>  <SCORE.RESTR>
0

>  <SCORE.RESTR.CAVITY>
0

>  <SCORE.RESTR.norm>
0

>  <SCORE.SYSTEM>
0

>  <SCORE.SYSTEM.CONST>
0

>  <SCORE.SYSTEM.DIHEDRAL>
0

>  <SCORE.SYSTEM.SOLV>
0

>  <SCORE.SYSTEM.norm>
0

>  <SCORE.heavy>
13

>  <SCORE.norm>
-1.81019

>  <RMSD>
0.859

$$$$
1o15_lig
 OpenBabel11021811403D
libRbt.so/2013.1/901 2013/11/27
 13 14  0  0  0  0  0  0  0  0999 V2000
    9.4822    0.9486   38.1290 C   0  0  0  0  0  0  0  0  0  0  0  0
    9.3104    2.2444   37.6946 N   0  0  0  0  0  0  0  0  0  0  0  0
   10.2824    3.1457   37.9938 C   0  0  0  0  0  0  0  0  0  0  0  0
   11.2353    2.7142   38.6377 O   0  0  0  0  0  0  0  0  0  0  0  0
   11.2581    5.3582   37.9552 C   0  0  0  0  0  0  0  0  0  0  0  0
   10.2584    4.4646   37.6349 N   0  0  0  0  0  0  0  0  0  0  0  0
    9.1463    4.8035   36.9281 C   0  0  0  0  0  0  0  0  0  0  0  0
    8.1783    3.8883   36.6318 C   0  0  0  0  0  0  0  0  0  0  0  0
    8.1924    2.5292   36.9965 C   0  0  0  0  0  0  0  0  0  0  0  0
    7.3586    1.6578   36.7631 O   0  0  0  0  0  0  0  0  0  0  0  0
    7.2119    4.5793   35.9150 N   0  0  0  0  0  0  0  0  0  0  0  0
    7.6588    5.8568   35.8263 C   0  0  0  0  0  0  0  0  0  0  0  0
    8.8086    6.0509   36.4138 N   0  0  0  0  0  0  0  0  0  0  0  0
  1  2  1  0  0  0  0
  2  3  1  0  0  0  0
  2  9  1  0  0  0  0
  3  4  2  0  0  0  0
  3  6  1  0  0  0  0
  6  5  1  0  0  0  0
  6  7  1  0  0  0  0
  7  8  2  0  0  0  0
  7 13  1  0  0  0  0
  8  9  1  0  0  0  0
  8 11  1  0  0  0  0
  9 10  2  0  0  0  0
 11 12  1  0  0  0  0
 12 13  2  0  0  0  0
M  END
>  <CHROM.1>
9.12444662,3.66687734,37.21551290,1.05232802,0.49263570,2.88449294

>  <Name>
1o15_lig

>  <RI>
0

>  <Rbt.Current_Directory>
/home/itssahil/PROJECTS/Mol_Feturizer/New_Systems/rnas/1o15

>  <Rbt.Executable>
rbdock ($Id: //depot/dev/client3/rdock/2013.1/src/exe/rbdock.cxx#4 $)

>  <Rbt.Library>
libRbt.so (2013.1, Build901 2013/11/27)

>  <Rbt.Parameter_File>
/export/apps/rDock/src/rDock_2013.1_src/data/scripts/dock_solv.prm

>  <Rbt.Receptor>
prm/pocket_docking_2.prm

>  <SCORE>
-23.4503

>  <SCORE.INTER>
-23.4511

>  <SCORE.INTER.CONST>
1

>  <SCORE.INTER.POLAR>
-1.96424

>  <SCORE.INTER.ROT>
0

>  <SCORE.INTER.SOLV>
6.49119

>  <SCORE.INTER.VDW>
-14.8503

>  <SCORE.INTER.norm>
-1.80393

>  <SCORE.INTRA>
0

>  <SCORE.INTRA.DIHEDRAL>
0

>  <SCORE.INTRA.DIHEDRAL.0>
0

>  <SCORE.INTRA.POLAR>
0

>  <SCORE.INTRA.POLAR.0>
0

>  <SCORE.INTRA.REPUL>
0

>  <SCORE.INTRA.REPUL.0>
0

>  <SCORE.INTRA.SOLV>
0

>  <SCORE.INTRA.SOLV.lig_0>
-12.9184

>  <SCORE.INTRA.VDW>
0

>  <SCORE.INTRA.VDW.0>
0

>  <SCORE.INTRA.norm>
0

>  <SCORE.RESTR>
0.00081669

>  <SCORE.RESTR.CAVITY>
0.00081669

>  <SCORE.RESTR.norm>
6.28223e-05

>  <SCORE.SYSTEM>
0

>  <SCORE.SYSTEM.CONST>
0

>  <SCORE.SYSTEM.DIHEDRAL>
0

>  <SCORE.SYSTEM.SOLV>
0

>  <SCORE.SYSTEM.norm>
0

>  <SCORE.heavy>
13

>  <SCORE.norm>
-1.80387

>  <RMSD>
0.862

$$$$
1o15_lig
 OpenBabel11021811403D
libRbt.so/2013.1/901 2013/11/27
 13 14  0  0  0  0  0  0  0  0999 V2000
    9.6832    0.8582   37.8755 C   0  0  0  0  0  0  0  0  0  0  0  0
    9.4801    2.1622   37.4808 N   0  0  0  0  0  0  0  0  0  0  0  0
   10.4894    3.0490   37.6846 C   0  0  0  0  0  0  0  0  0  0  0  0
   11.5018    2.5982   38.2144 O   0  0  0  0  0  0  0  0  0  0  0  0
   11.4808    5.2519   37.5708 C   0  0  0  0  0  0  0  0  0  0  0  0
   10.4418    4.3734   37.3491 N   0  0  0  0  0  0  0  0  0  0  0  0
    9.2633    4.7343   36.7729 C   0  0  0  0  0  0  0  0  0  0  0  0
    8.2580    3.8335   36.5713 C   0  0  0  0  0  0  0  0  0  0  0  0
    8.2960    2.4688   36.9131 C   0  0  0  0  0  0  0  0  0  0  0  0
    7.4316    1.6096   36.7600 O   0  0  0  0  0  0  0  0  0  0  0  0
    7.2274    4.5450   35.9742 N   0  0  0  0  0  0  0  0  0  0  0  0
    7.6768    5.8191   35.8552 C   0  0  0  0  0  0  0  0  0  0  0  0
    8.8859    5.9927   36.3162 N   0  0  0  0  0  0  0  0  0  0  0  0
  1  2  1  0  0  0  0
  2  3  1  0  0  0  0
  2  9  1  0  0  0  0
  3  4  2  0  0  0  0
  3  6  1  0  0  0  0
  6  5  1  0  0  0  0
  6  7  1  0  0  0  0
  7  8  2  0  0  0  0
  7 13  1  0  0  0  0
  8  9  1  0  0  0  0
  8 11  1  0  0  0  0
  9 10  2  0  0  0  0
 11 12  1  0  0  0  0
 12 13  2  0  0  0  0
M  END
>  <CHROM.1>
9.25960087,3.59364146,37.04495162,1.03456645,0.38386168,2.90677279

>  <Name>
1o15_lig

>  <RI>
0

>  <Rbt.Current_Directory>
/home/itssahil/PROJECTS/Mol_Feturizer/New_Systems/rnas/1o15

>  <Rbt.Executable>
rbdock ($Id: //depot/dev/client3/rdock/2013.1/src/exe/rbdock.cxx#4 $)

>  <Rbt.Library>
libRbt.so (2013.1, Build901 2013/11/27)

>  <Rbt.Parameter_File>
/export/apps/rDock/src/rDock_2013.1_src/data/scripts/dock_solv.prm

>  <Rbt.Receptor>
prm/pocket_docking_2.prm

>  <SCORE>
-23.4056

>  <SCORE.INTER>
-23.4056

>  <SCORE.INTER.CONST>
1

>  <SCORE.INTER.POLAR>
-2.06691

>  <SCORE.INTER.ROT>
0

>  <SCORE.INTER.SOLV>
6.23385

>  <SCORE.INTER.VDW>
-14.392

>  <SCORE.INTER.norm>
-1.80043

>  <SCORE.INTRA>
0

>  <SCORE.INTRA.DIHEDRAL>
0

>  <SCORE.INTRA.DIHEDRAL.0>
0

>  <SCORE.INTRA.POLAR>
0

>  <SCORE.INTRA.POLAR.0>
0

>  <SCORE.INTRA.REPUL>
0

>  <SCORE.INTRA.REPUL.0>
0

>  <SCORE.INTRA.SOLV>
0

>  <SCORE.INTRA.SOLV.lig_0>
-12.9184

>  <SCORE.INTRA.VDW>
0

>  <SCORE.INTRA.VDW.0>
0

>  <SCORE.INTRA.norm>
0

>  <SCORE.RESTR>
0

>  <SCORE.RESTR.CAVITY>
0

>  <SCORE.RESTR.norm>
0

>  <SCORE.SYSTEM>
0

>  <SCORE.SYSTEM.CONST>
0

>  <SCORE.SYSTEM.DIHEDRAL>
0

>  <SCORE.SYSTEM.SOLV>
0

>  <SCORE.SYSTEM.norm>
0

>  <SCORE.heavy>
13

>  <SCORE.norm>
-1.80043

>  <RMSD>
0.864

$$$$
1o15_lig
 OpenBabel11021811403D
libRbt.so/2013.1/901 2013/11/27
 13 14  0  0  0  0  0  0  0  0999 V2000
    9.4604    0.9555   38.1335 C   0  0  0  0  0  0  0  0  0  0  0  0
    9.2912    2.2516   37.6989 N   0  0  0  0  0  0  0  0  0  0  0  0
   10.2576    3.1544   38.0112 C   0  0  0  0  0  0  0  0  0  0  0  0
   11.2035    2.7239   38.6661 O   0  0  0  0  0  0  0  0  0  0  0  0
   11.2292    5.3689   37.9877 C   0  0  0  0  0  0  0  0  0  0  0  0
   10.2354    4.4738   37.6539 N   0  0  0  0  0  0  0  0  0  0  0  0
    9.1313    4.8114   36.9341 C   0  0  0  0  0  0  0  0  0  0  0  0
    8.1688    3.8947   36.6247 C   0  0  0  0  0  0  0  0  0  0  0  0
    8.1812    2.5351   36.9876 C   0  0  0  0  0  0  0  0  0  0  0  0
    7.3522    1.6623   36.7428 O   0  0  0  0  0  0  0  0  0  0  0  0
    7.2099    4.5847   35.8971 N   0  0  0  0  0  0  0  0  0  0  0  0
    7.6552    5.8632   35.8156 C   0  0  0  0  0  0  0  0  0  0  0  0
    8.7973    6.0588   36.4174 N   0  0  0  0  0  0  0  0  0  0  0  0
  1  2  1  0  0  0  0
  2  3  1  0  0  0  0
  2  9  1  0  0  0  0
  3  4  2  0  0  0  0
  3  6  1  0  0  0  0
  6  5  1  0  0  0  0
  6  7  1  0  0  0  0
  7  8  2  0  0  0  0
  7 13  1  0  0  0  0
  8  9  1  0  0  0  0
  8 11  1  0  0  0  0
  9 10  2  0  0  0  0
 11 12  1  0  0  0  0
 12 13  2  0  0  0  0
M  END
>  <CHROM.1>
9.10824310,3.67433046,37.21959464,1.05361629,0.50496960,2.88530803

>  <Name>
1o15_lig

>  <RI>
0

>  <Rbt.Current_Directory>
/home/itssahil/PROJECTS/Mol_Feturizer/New_Systems/rnas/1o15

>  <Rbt.Executable>
rbdock ($Id: //depot/dev/client3/rdock/2013.1/src/exe/rbdock.cxx#4 $)

>  <Rbt.Library>
libRbt.so (2013.1, Build901 2013/11/27)

>  <Rbt.Parameter_File>
/export/apps/rDock/src/rDock_2013.1_src/data/scripts/dock_solv.prm

>  <Rbt.Receptor>
prm/pocket_docking_2.prm

>  <SCORE>
-23.3853

>  <SCORE.INTER>
-23.3853

>  <SCORE.INTER.CONST>
1

>  <SCORE.INTER.POLAR>
-1.94757

>  <SCORE.INTER.ROT>
0

>  <SCORE.INTER.SOLV>
6.52556

>  <SCORE.INTER.VDW>
-14.8735

>  <SCORE.INTER.norm>
-1.79887

>  <SCORE.INTRA>
0

>  <SCORE.INTRA.DIHEDRAL>
0

>  <SCORE.INTRA.DIHEDRAL.0>
0

>  <SCORE.INTRA.POLAR>
0

>  <SCORE.INTRA.POLAR.0>
0

>  <SCORE.INTRA.REPUL>
0

>  <SCORE.INTRA.REPUL.0>
0

>  <SCORE.INTRA.SOLV>
0

>  <SCORE.INTRA.SOLV.lig_0>
-12.9184

>  <SCORE.INTRA.VDW>
0

>  <SCORE.INTRA.VDW.0>
0

>  <SCORE.INTRA.norm>
0

>  <SCORE.RESTR>
0

>  <SCORE.RESTR.CAVITY>
0

>  <SCORE.RESTR.norm>
0

>  <SCORE.SYSTEM>
0

>  <SCORE.SYSTEM.CONST>
0

>  <SCORE.SYSTEM.DIHEDRAL>
0

>  <SCORE.SYSTEM.SOLV>
0

>  <SCORE.SYSTEM.norm>
0

>  <SCORE.heavy>
13

>  <SCORE.norm>
-1.79887

>  <RMSD>
0.866

$$$$
1o15_lig
 OpenBabel11021811403D
libRbt.so/2013.1/901 2013/11/27
 13 14  0  0  0  0  0  0  0  0999 V2000
    9.5053    0.9564   38.1300 C   0  0  0  0  0  0  0  0  0  0  0  0
    9.3261    2.2515   37.6963 N   0  0  0  0  0  0  0  0  0  0  0  0
   10.2954    3.1570   37.9918 C   0  0  0  0  0  0  0  0  0  0  0  0
   11.2526    2.7297   38.6320 O   0  0  0  0  0  0  0  0  0  0  0  0
   11.2613    5.3737   37.9496 C   0  0  0  0  0  0  0  0  0  0  0  0
   10.2643    4.4758   37.6331 N   0  0  0  0  0  0  0  0  0  0  0  0
    9.1480    4.8099   36.9306 C   0  0  0  0  0  0  0  0  0  0  0  0
    8.1828    3.8905   36.6381 C   0  0  0  0  0  0  0  0  0  0  0  0
    8.2042    2.5314   37.0026 C   0  0  0  0  0  0  0  0  0  0  0  0
    7.3733    1.6565   36.7724 O   0  0  0  0  0  0  0  0  0  0  0  0
    7.2106    4.5773   35.9250 N   0  0  0  0  0  0  0  0  0  0  0  0
    7.6516    5.8567   35.8346 C   0  0  0  0  0  0  0  0  0  0  0  0
    8.8028    6.0558   36.4177 N   0  0  0  0  0  0  0  0  0  0  0  0
  1  2  1  0  0  0  0
  2  3  1  0  0  0  0
  2  9  1  0  0  0  0
  3  4  2  0  0  0  0
  3  6  1  0  0  0  0
  6  5  1  0  0  0  0
  6  7  1  0  0  0  0
  7  8  2  0  0  0  0
  7 13  1  0  0  0  0
  8  9  1  0  0  0  0
  8 11  1  0  0  0  0
  9 10  2  0  0  0  0
 11 12  1  0  0  0  0
 12 13  2  0  0  0  0
M  END
>  <CHROM.1>
9.13215761,3.67317807,37.21806575,1.04644492,0.48996921,2.88731770

>  <Name>
1o15_lig

>  <RI>
0

>  <Rbt.Current_Directory>
/home/itssahil/PROJECTS/Mol_Feturizer/New_Systems/rnas/1o15

>  <Rbt.Executable>
rbdock ($Id: //depot/dev/client3/rdock/2013.1/src/exe/rbdock.cxx#4 $)

>  <Rbt.Library>
libRbt.so (2013.1, Build901 2013/11/27)

>  <Rbt.Parameter_File>
/export/apps/rDock/src/rDock_2013.1_src/data/scripts/dock_solv.prm

>  <Rbt.Receptor>
prm/pocket_docking_3.prm

>  <SCORE>
-23.485

>  <SCORE.INTER>
-23.485

>  <SCORE.INTER.CONST>
1

>  <SCORE.INTER.POLAR>
-1.97699

>  <SCORE.INTER.ROT>
0

>  <SCORE.INTER.SOLV>
6.49334

>  <SCORE.INTER.VDW>
-14.8312

>  <SCORE.INTER.norm>
-1.80654

>  <SCORE.INTRA>
0

>  <SCORE.INTRA.DIHEDRAL>
0

>  <SCORE.INTRA.DIHEDRAL.0>
0

>  <SCORE.INTRA.POLAR>
0

>  <SCORE.INTRA.POLAR.0>
0

>  <SCORE.INTRA.REPUL>
0

>  <SCORE.INTRA.REPUL.0>
0

>  <SCORE.INTRA.SOLV>
0

>  <SCORE.INTRA.SOLV.lig_0>
-12.9184

>  <SCORE.INTRA.VDW>
0

>  <SCORE.INTRA.VDW.0>
0

>  <SCORE.INTRA.norm>
0

>  <SCORE.RESTR>
0

>  <SCORE.RESTR.CAVITY>
0

>  <SCORE.RESTR.norm>
0

>  <SCORE.SYSTEM>
0

>  <SCORE.SYSTEM.CONST>
0

>  <SCORE.SYSTEM.DIHEDRAL>
0

>  <SCORE.SYSTEM.SOLV>
0

>  <SCORE.SYSTEM.norm>
0

>  <SCORE.heavy>
13

>  <SCORE.norm>
-1.80654

>  <RMSD>
0.866

$$$$
1o15_lig
 OpenBabel11021811403D
libRbt.so/2013.1/901 2013/11/27
 13 14  0  0  0  0  0  0  0  0999 V2000
    9.5819    0.9648   38.1440 C   0  0  0  0  0  0  0  0  0  0  0  0
    9.3879    2.2518   37.6930 N   0  0  0  0  0  0  0  0  0  0  0  0
   10.3621    3.1644   37.9474 C   0  0  0  0  0  0  0  0  0  0  0  0
   11.3369    2.7504   38.5696 O   0  0  0  0  0  0  0  0  0  0  0  0
   11.3206    5.3822   37.8417 C   0  0  0  0  0  0  0  0  0  0  0  0
   10.3181    4.4768   37.5669 N   0  0  0  0  0  0  0  0  0  0  0  0
    9.1829    4.7961   36.8883 C   0  0  0  0  0  0  0  0  0  0  0  0
    8.2129    3.8697   36.6369 C   0  0  0  0  0  0  0  0  0  0  0  0
    8.2475    2.5171   37.0241 C   0  0  0  0  0  0  0  0  0  0  0  0
    7.4133    1.6364   36.8308 O   0  0  0  0  0  0  0  0  0  0  0  0
    7.2207    4.5418   35.9378 N   0  0  0  0  0  0  0  0  0  0  0  0
    7.6557    5.8205   35.8139 C   0  0  0  0  0  0  0  0  0  0  0  0
    8.8211    6.0322   36.3631 N   0  0  0  0  0  0  0  0  0  0  0  0
  1  2  1  0  0  0  0
  2  3  1  0  0  0  0
  2  9  1  0  0  0  0
  3  4  2  0  0  0  0
  3  6  1  0  0  0  0
  6  5  1  0  0  0  0
  6  7  1  0  0  0  0
  7  8  2  0  0  0  0
  7 13  1  0  0  0  0
  8  9  1  0  0  0  0
  8 11  1  0  0  0  0
  9 10  2  0  0  0  0
 11 12  1  0  0  0  0
 12 13  2  0  0  0  0
M  END
>  <CHROM.1>
9.17769491,3.66450869,37.19552604,1.03616205,0.46537568,2.87479126

>  <Name>
1o15_lig

>  <RI>
0

>  <Rbt.Current_Directory>
/home/itssahil/PROJECTS/Mol_Feturizer/New_Systems/rnas/1o15

>  <Rbt.Executable>
rbdock ($Id: //depot/dev/client3/rdock/2013.1/src/exe/rbdock.cxx#4 $)

>  <Rbt.Library>
libRbt.so (2013.1, Build901 2013/11/27)

>  <Rbt.Parameter_File>
/export/apps/rDock/src/rDock_2013.1_src/data/scripts/dock_solv.prm

>  <Rbt.Receptor>
prm/pocket_docking_6.prm

>  <SCORE>
-23.4658

>  <SCORE.INTER>
-23.4658

>  <SCORE.INTER.CONST>
1

>  <SCORE.INTER.POLAR>
-2.01413

>  <SCORE.INTER.ROT>
0

>  <SCORE.INTER.SOLV>
6.39988

>  <SCORE.INTER.VDW>
-14.6634

>  <SCORE.INTER.norm>
-1.80506

>  <SCORE.INTRA>
0

>  <SCORE.INTRA.DIHEDRAL>
0

>  <SCORE.INTRA.DIHEDRAL.0>
0

>  <SCORE.INTRA.POLAR>
0

>  <SCORE.INTRA.POLAR.0>
0

>  <SCORE.INTRA.REPUL>
0

>  <SCORE.INTRA.REPUL.0>
0

>  <SCORE.INTRA.SOLV>
0

>  <SCORE.INTRA.SOLV.lig_0>
-12.9184

>  <SCORE.INTRA.VDW>
0

>  <SCORE.INTRA.VDW.0>
0

>  <SCORE.INTRA.norm>
0

>  <SCORE.RESTR>
0

>  <SCORE.RESTR.CAVITY>
0

>  <SCORE.RESTR.norm>
0

>  <SCORE.SYSTEM>
0

>  <SCORE.SYSTEM.CONST>
0

>  <SCORE.SYSTEM.DIHEDRAL>
0

>  <SCORE.SYSTEM.SOLV>
0

>  <SCORE.SYSTEM.norm>
0

>  <SCORE.heavy>
13

>  <SCORE.norm>
-1.80506

>  <RMSD>
0.869

$$$$
1o15_lig
 OpenBabel11021811403D
libRbt.so/2013.1/901 2013/11/27
 13 14  0  0  0  0  0  0  0  0999 V2000
    9.7763    0.8853   37.8354 C   0  0  0  0  0  0  0  0  0  0  0  0
    9.5401    2.1874   37.4529 N   0  0  0  0  0  0  0  0  0  0  0  0
   10.5270    3.0974   37.6642 C   0  0  0  0  0  0  0  0  0  0  0  0
   11.5509    2.6673   38.1890 O   0  0  0  0  0  0  0  0  0  0  0  0
   11.4625    5.3255   37.5699 C   0  0  0  0  0  0  0  0  0  0  0  0
   10.4457    4.4232   37.3409 N   0  0  0  0  0  0  0  0  0  0  0  0
    9.2579    4.7595   36.7689 C   0  0  0  0  0  0  0  0  0  0  0  0
    8.2755    3.8356   36.5597 C   0  0  0  0  0  0  0  0  0  0  0  0
    8.3481    2.4693   36.8889 C   0  0  0  0  0  0  0  0  0  0  0  0
    7.5055    1.5900   36.7285 O   0  0  0  0  0  0  0  0  0  0  0  0
    7.2267    4.5264   35.9699 N   0  0  0  0  0  0  0  0  0  0  0  0
    7.6438    5.8125   35.8623 C   0  0  0  0  0  0  0  0  0  0  0  0
    8.8486    6.0122   36.3241 N   0  0  0  0  0  0  0  0  0  0  0  0
  1  2  1  0  0  0  0
  2  3  1  0  0  0  0
  2  9  1  0  0  0  0
  3  4  2  0  0  0  0
  3  6  1  0  0  0  0
  6  5  1  0  0  0  0
  6  7  1  0  0  0  0
  7  8  2  0  0  0  0
  7 13  1  0  0  0  0
  8  9  1  0  0  0  0
  8 11  1  0  0  0  0
  9 10  2  0  0  0  0
 11 12  1  0  0  0  0
 12 13  2  0  0  0  0
M  END
>  <CHROM.1>
9.28324912,3.61672953,37.03040979,-1.00801715,-0.38811385,-0.21593713

>  <Name>
1o15_lig

>  <RI>
0

>  <Rbt.Current_Directory>
/home/itssahil/PROJECTS/Mol_Feturizer/New_Systems/rnas/1o15

>  <Rbt.Executable>
rbdock ($Id: //depot/dev/client3/rdock/2013.1/src/exe/rbdock.cxx#4 $)

>  <Rbt.Library>
libRbt.so (2013.1, Build901 2013/11/27)

>  <Rbt.Parameter_File>
/export/apps/rDock/src/rDock_2013.1_src/data/scripts/dock_solv.prm

>  <Rbt.Receptor>
prm/pocket_docking_3.prm

>  <SCORE>
-23.5495

>  <SCORE.INTER>
-23.5495

>  <SCORE.INTER.CONST>
1

>  <SCORE.INTER.POLAR>
-2.0758

>  <SCORE.INTER.ROT>
0

>  <SCORE.INTER.SOLV>
6.17369

>  <SCORE.INTER.VDW>
-14.4382

>  <SCORE.INTER.norm>
-1.8115

>  <SCORE.INTRA>
0

>  <SCORE.INTRA.DIHEDRAL>
0

>  <SCORE.INTRA.DIHEDRAL.0>
0

>  <SCORE.INTRA.POLAR>
0

>  <SCORE.INTRA.POLAR.0>
0

>  <SCORE.INTRA.REPUL>
0

>  <SCORE.INTRA.REPUL.0>
0

>  <SCORE.INTRA.SOLV>
0

>  <SCORE.INTRA.SOLV.lig_0>
-12.9184

>  <SCORE.INTRA.VDW>
0

>  <SCORE.INTRA.VDW.0>
0

>  <SCORE.INTRA.norm>
0

>  <SCORE.RESTR>
0

>  <SCORE.RESTR.CAVITY>
0

>  <SCORE.RESTR.norm>
0

>  <SCORE.SYSTEM>
0

>  <SCORE.SYSTEM.CONST>
0

>  <SCORE.SYSTEM.DIHEDRAL>
0

>  <SCORE.SYSTEM.SOLV>
0

>  <SCORE.SYSTEM.norm>
0

>  <SCORE.heavy>
13

>  <SCORE.norm>
-1.8115

>  <RMSD>
0.873

$$$$
1o15_lig
 OpenBabel11021811403D
libRbt.so/2013.1/901 2013/11/27
 13 14  0  0  0  0  0  0  0  0999 V2000
    9.7083    0.8984   37.9364 C   0  0  0  0  0  0  0  0  0  0  0  0
    9.4956    2.1909   37.5104 N   0  0  0  0  0  0  0  0  0  0  0  0
   10.4952    3.0917   37.7002 C   0  0  0  0  0  0  0  0  0  0  0  0
   11.5082    2.6628   38.2467 O   0  0  0  0  0  0  0  0  0  0  0  0
   11.4667    5.3007   37.5419 C   0  0  0  0  0  0  0  0  0  0  0  0
   10.4375    4.4075   37.3339 N   0  0  0  0  0  0  0  0  0  0  0  0
    9.2595    4.7438   36.7419 C   0  0  0  0  0  0  0  0  0  0  0  0
    8.2641    3.8291   36.5548 C   0  0  0  0  0  0  0  0  0  0  0  0
    8.3125    2.4731   36.9282 C   0  0  0  0  0  0  0  0  0  0  0  0
    7.4572    1.6024   36.7894 O   0  0  0  0  0  0  0  0  0  0  0  0
    7.2308    4.5168   35.9348 N   0  0  0  0  0  0  0  0  0  0  0  0
    7.6691    5.7921   35.7892 C   0  0  0  0  0  0  0  0  0  0  0  0
    8.8735    5.9877   36.2539 N   0  0  0  0  0  0  0  0  0  0  0  0
  1  2  1  0  0  0  0
  2  3  1  0  0  0  0
  2  9  1  0  0  0  0
  3  4  2  0  0  0  0
  3  6  1  0  0  0  0
  6  5  1  0  0  0  0
  6  7  1  0  0  0  0
  7  8  2  0  0  0  0
  7 13  1  0  0  0  0
  8  9  1  0  0  0  0
  8 11  1  0  0  0  0
  9 10  2  0  0  0  0
 11 12  1  0  0  0  0
 12 13  2  0  0  0  0
M  END
>  <CHROM.1>
9.26467204,3.60975577,37.04022423,1.02641113,0.39247246,2.88678933

>  <Name>
1o15_lig

>  <RI>
0

>  <Rbt.Current_Directory>
/home/itssahil/PROJECTS/Mol_Feturizer/New_Systems/rnas/1o15

>  <Rbt.Executable>
rbdock ($Id: //depot/dev/client3/rdock/2013.1/src/exe/rbdock.cxx#4 $)

>  <Rbt.Library>
libRbt.so (2013.1, Build901 2013/11/27)

>  <Rbt.Parameter_File>
/export/apps/rDock/src/rDock_2013.1_src/data/scripts/dock_solv.prm

>  <Rbt.Receptor>
prm/pocket_docking_7.prm

>  <SCORE>
-23.4697

>  <SCORE.INTER>
-23.4697

>  <SCORE.INTER.CONST>
1

>  <SCORE.INTER.POLAR>
-2.05947

>  <SCORE.INTER.ROT>
0

>  <SCORE.INTER.SOLV>
6.21823

>  <SCORE.INTER.VDW>
-14.4543

>  <SCORE.INTER.norm>
-1.80537

>  <SCORE.INTRA>
0

>  <SCORE.INTRA.DIHEDRAL>
0

>  <SCORE.INTRA.DIHEDRAL.0>
0

>  <SCORE.INTRA.POLAR>
0

>  <SCORE.INTRA.POLAR.0>
0

>  <SCORE.INTRA.REPUL>
0

>  <SCORE.INTRA.REPUL.0>
0

>  <SCORE.INTRA.SOLV>
0

>  <SCORE.INTRA.SOLV.lig_0>
-12.9184

>  <SCORE.INTRA.VDW>
0

>  <SCORE.INTRA.VDW.0>
0

>  <SCORE.INTRA.norm>
0

>  <SCORE.RESTR>
0

>  <SCORE.RESTR.CAVITY>
0

>  <SCORE.RESTR.norm>
0

>  <SCORE.SYSTEM>
0

>  <SCORE.SYSTEM.CONST>
0

>  <SCORE.SYSTEM.DIHEDRAL>
0

>  <SCORE.SYSTEM.SOLV>
0

>  <SCORE.SYSTEM.norm>
0

>  <SCORE.heavy>
13

>  <SCORE.norm>
-1.80537

>  <RMSD>
0.877

$$$$
1o15_lig
 OpenBabel11021811403D
libRbt.so/2013.1/901 2013/11/27
 13 14  0  0  0  0  0  0  0  0999 V2000
    9.4319    1.0212   38.1756 C   0  0  0  0  0  0  0  0  0  0  0  0
    9.2480    2.3211   37.7587 N   0  0  0  0  0  0  0  0  0  0  0  0
   10.1816    3.2396   38.1214 C   0  0  0  0  0  0  0  0  0  0  0  0
   11.1137    2.8183   38.8015 O   0  0  0  0  0  0  0  0  0  0  0  0
   11.1015    5.4755   38.1723 C   0  0  0  0  0  0  0  0  0  0  0  0
   10.1411    4.5646   37.7874 N   0  0  0  0  0  0  0  0  0  0  0  0
    9.0554    4.8907   37.0351 C   0  0  0  0  0  0  0  0  0  0  0  0
    8.1259    3.9584   36.6752 C   0  0  0  0  0  0  0  0  0  0  0  0
    8.1573    2.5928   37.0137 C   0  0  0  0  0  0  0  0  0  0  0  0
    7.3578    1.7063   36.7240 O   0  0  0  0  0  0  0  0  0  0  0  0
    7.1773    4.6402   35.9267 N   0  0  0  0  0  0  0  0  0  0  0  0
    7.5953    5.9297   35.8842 C   0  0  0  0  0  0  0  0  0  0  0  0
    8.7107    6.1397   36.5295 N   0  0  0  0  0  0  0  0  0  0  0  0
  1  2  1  0  0  0  0
  2  3  1  0  0  0  0
  2  9  1  0  0  0  0
  3  4  2  0  0  0  0
  3  6  1  0  0  0  0
  6  5  1  0  0  0  0
  6  7  1  0  0  0  0
  7  8  2  0  0  0  0
  7 13  1  0  0  0  0
  8  9  1  0  0  0  0
  8 11  1  0  0  0  0
  9 10  2  0  0  0  0
 11 12  1  0  0  0  0
 12 13  2  0  0  0  0
M  END
>  <CHROM.1>
9.04881539,3.74817939,37.29900594,1.03766834,0.54472797,2.91177564

>  <Name>
1o15_lig

>  <RI>
0

>  <Rbt.Current_Directory>
/home/itssahil/PROJECTS/Mol_Feturizer/New_Systems/rnas/1o15

>  <Rbt.Executable>
rbdock ($Id: //depot/dev/client3/rdock/2013.1/src/exe/rbdock.cxx#4 $)

>  <Rbt.Library>
libRbt.so (2013.1, Build901 2013/11/27)

>  <Rbt.Parameter_File>
/export/apps/rDock/src/rDock_2013.1_src/data/scripts/dock_solv.prm

>  <Rbt.Receptor>
prm/pocket_docking_2.prm

>  <SCORE>
-23.1172

>  <SCORE.INTER>
-23.1172

>  <SCORE.INTER.CONST>
1

>  <SCORE.INTER.POLAR>
-1.92815

>  <SCORE.INTER.ROT>
0

>  <SCORE.INTER.SOLV>
6.84754

>  <SCORE.INTER.VDW>
-14.8668

>  <SCORE.INTER.norm>
-1.77824

>  <SCORE.INTRA>
0

>  <SCORE.INTRA.DIHEDRAL>
0

>  <SCORE.INTRA.DIHEDRAL.0>
0

>  <SCORE.INTRA.POLAR>
0

>  <SCORE.INTRA.POLAR.0>
0

>  <SCORE.INTRA.REPUL>
0

>  <SCORE.INTRA.REPUL.0>
0

>  <SCORE.INTRA.SOLV>
0

>  <SCORE.INTRA.SOLV.lig_0>
-12.9184

>  <SCORE.INTRA.VDW>
0

>  <SCORE.INTRA.VDW.0>
0

>  <SCORE.INTRA.norm>
0

>  <SCORE.RESTR>
0

>  <SCORE.RESTR.CAVITY>
0

>  <SCORE.RESTR.norm>
0

>  <SCORE.SYSTEM>
0

>  <SCORE.SYSTEM.CONST>
0

>  <SCORE.SYSTEM.DIHEDRAL>
0

>  <SCORE.SYSTEM.SOLV>
0

>  <SCORE.SYSTEM.norm>
0

>  <SCORE.heavy>
13

>  <SCORE.norm>
-1.77824

>  <RMSD>
0.923

$$$$
1o15_lig
 OpenBabel11021811403D
libRbt.so/2013.1/901 2013/11/27
 13 14  0  0  0  0  0  0  0  0999 V2000
    9.4535    1.0427   38.1581 C   0  0  0  0  0  0  0  0  0  0  0  0
    9.2562    2.3439   37.7513 N   0  0  0  0  0  0  0  0  0  0  0  0
   10.1742    3.2712   38.1311 C   0  0  0  0  0  0  0  0  0  0  0  0
   11.1054    2.8559   38.8161 O   0  0  0  0  0  0  0  0  0  0  0  0
   11.0640    5.5184   38.2110 C   0  0  0  0  0  0  0  0  0  0  0  0
   10.1193    4.5985   37.8088 N   0  0  0  0  0  0  0  0  0  0  0  0
    9.0364    4.9173   37.0493 C   0  0  0  0  0  0  0  0  0  0  0  0
    8.1227    3.9763   36.6723 C   0  0  0  0  0  0  0  0  0  0  0  0
    8.1689    2.6081   36.9987 C   0  0  0  0  0  0  0  0  0  0  0  0
    7.3840    1.7139   36.6934 O   0  0  0  0  0  0  0  0  0  0  0  0
    7.1721    4.6524   35.9211 N   0  0  0  0  0  0  0  0  0  0  0  0
    7.5734    5.9477   35.8943 C   0  0  0  0  0  0  0  0  0  0  0  0
    8.6799    6.1663   36.5519 N   0  0  0  0  0  0  0  0  0  0  0  0
  1  2  1  0  0  0  0
  2  3  1  0  0  0  0
  2  9  1  0  0  0  0
  3  4  2  0  0  0  0
  3  6  1  0  0  0  0
  6  5  1  0  0  0  0
  6  7  1  0  0  0  0
  7  8  2  0  0  0  0
  7 13  1  0  0  0  0
  8  9  1  0  0  0  0
  8 11  1  0  0  0  0
  9 10  2  0  0  0  0
 11 12  1  0  0  0  0
 12 13  2  0  0  0  0
M  END
>  <CHROM.1>
9.04245709,3.77242373,37.30275680,1.02499152,0.55670610,2.92756746

>  <Name>
1o15_lig

>  <RI>
0

>  <Rbt.Current_Directory>
/home/itssahil/PROJECTS/Mol_Feturizer/New_Systems/rnas/1o15

>  <Rbt.Executable>
rbdock ($Id: //depot/dev/client3/rdock/2013.1/src/exe/rbdock.cxx#4 $)

>  <Rbt.Library>
libRbt.so (2013.1, Build901 2013/11/27)

>  <Rbt.Parameter_File>
/export/apps/rDock/src/rDock_2013.1_src/data/scripts/dock_solv.prm

>  <Rbt.Receptor>
prm/pocket_docking_2.prm

>  <SCORE>
-23.1235

>  <SCORE.INTER>
-23.1235

>  <SCORE.INTER.CONST>
1

>  <SCORE.INTER.POLAR>
-1.90765

>  <SCORE.INTER.ROT>
0

>  <SCORE.INTER.SOLV>
6.88611

>  <SCORE.INTER.VDW>
-14.9522

>  <SCORE.INTER.norm>
-1.77873

>  <SCORE.INTRA>
0

>  <SCORE.INTRA.DIHEDRAL>
0

>  <SCORE.INTRA.DIHEDRAL.0>
0

>  <SCORE.INTRA.POLAR>
0

>  <SCORE.INTRA.POLAR.0>
0

>  <SCORE.INTRA.REPUL>
0

>  <SCORE.INTRA.REPUL.0>
0

>  <SCORE.INTRA.SOLV>
0

>  <SCORE.INTRA.SOLV.lig_0>
-12.9184

>  <SCORE.INTRA.VDW>
0

>  <SCORE.INTRA.VDW.0>
0

>  <SCORE.INTRA.norm>
0

>  <SCORE.RESTR>
0

>  <SCORE.RESTR.CAVITY>
0

>  <SCORE.RESTR.norm>
0

>  <SCORE.SYSTEM>
0

>  <SCORE.SYSTEM.CONST>
0

>  <SCORE.SYSTEM.DIHEDRAL>
0

>  <SCORE.SYSTEM.SOLV>
0

>  <SCORE.SYSTEM.norm>
0

>  <SCORE.heavy>
13

>  <SCORE.norm>
-1.77873

>  <RMSD>
0.937

$$$$
1o15_lig
 OpenBabel11021811403D
libRbt.so/2013.1/901 2013/11/27
 13 14  0  0  0  0  0  0  0  0999 V2000
    8.6600    0.7917   37.5845 C   0  0  0  0  0  0  0  0  0  0  0  0
    8.9782    2.0545   37.1357 N   0  0  0  0  0  0  0  0  0  0  0  0
    9.7666    2.8271   37.9283 C   0  0  0  0  0  0  0  0  0  0  0  0
   10.1228    2.3203   38.9890 O   0  0  0  0  0  0  0  0  0  0  0  0
   10.9672    4.8606   38.4498 C   0  0  0  0  0  0  0  0  0  0  0  0
   10.1689    4.0978   37.6244 N   0  0  0  0  0  0  0  0  0  0  0  0
    9.7007    4.5310   36.4226 C   0  0  0  0  0  0  0  0  0  0  0  0
    8.9115    3.7444   35.6346 C   0  0  0  0  0  0  0  0  0  0  0  0
    8.4910    2.4360   35.9376 C   0  0  0  0  0  0  0  0  0  0  0  0
    7.7852    1.6786   35.2765 O   0  0  0  0  0  0  0  0  0  0  0  0
    8.6286    4.5022   34.5073 N   0  0  0  0  0  0  0  0  0  0  0  0
    9.2625    5.6875   34.6886 C   0  0  0  0  0  0  0  0  0  0  0  0
    9.9181    5.7632   35.8152 N   0  0  0  0  0  0  0  0  0  0  0  0
  1  2  1  0  0  0  0
  2  3  1  0  0  0  0
  2  9  1  0  0  0  0
  3  4  2  0  0  0  0
  3  6  1  0  0  0  0
  6  5  1  0  0  0  0
  6  7  1  0  0  0  0
  7  8  2  0  0  0  0
  7 13  1  0  0  0  0
  8  9  1  0  0  0  0
  8 11  1  0  0  0  0
  9 10  2  0  0  0  0
 11 12  1  0  0  0  0
 12 13  2  0  0  0  0
M  END
>  <CHROM.1>
9.33101600,3.44015460,36.64277205,1.60512494,0.95202992,2.45819431

>  <Name>
1o15_lig

>  <RI>
0

>  <Rbt.Current_Directory>
/home/itssahil/PROJECTS/Mol_Feturizer/New_Systems/rnas/1o15

>  <Rbt.Executable>
rbdock ($Id: //depot/dev/client3/rdock/2013.1/src/exe/rbdock.cxx#4 $)

>  <Rbt.Library>
libRbt.so (2013.1, Build901 2013/11/27)

>  <Rbt.Parameter_File>
/export/apps/rDock/src/rDock_2013.1_src/data/scripts/dock_solv.prm

>  <Rbt.Receptor>
prm/pocket_docking_7.prm

>  <SCORE>
-22.6504

>  <SCORE.INTER>
-22.6504

>  <SCORE.INTER.CONST>
1

>  <SCORE.INTER.POLAR>
-2.13336

>  <SCORE.INTER.ROT>
0

>  <SCORE.INTER.SOLV>
5.6864

>  <SCORE.INTER.VDW>
-13.4845

>  <SCORE.INTER.norm>
-1.74234

>  <SCORE.INTRA>
0

>  <SCORE.INTRA.DIHEDRAL>
0

>  <SCORE.INTRA.DIHEDRAL.0>
0

>  <SCORE.INTRA.POLAR>
0

>  <SCORE.INTRA.POLAR.0>
0

>  <SCORE.INTRA.REPUL>
0

>  <SCORE.INTRA.REPUL.0>
0

>  <SCORE.INTRA.SOLV>
0

>  <SCORE.INTRA.SOLV.lig_0>
-12.9184

>  <SCORE.INTRA.VDW>
0

>  <SCORE.INTRA.VDW.0>
0

>  <SCORE.INTRA.norm>
0

>  <SCORE.RESTR>
0

>  <SCORE.RESTR.CAVITY>
0

>  <SCORE.RESTR.norm>
0

>  <SCORE.SYSTEM>
0

>  <SCORE.SYSTEM.CONST>
0

>  <SCORE.SYSTEM.DIHEDRAL>
0

>  <SCORE.SYSTEM.SOLV>
0

>  <SCORE.SYSTEM.norm>
0

>  <SCORE.heavy>
13

>  <SCORE.norm>
-1.74234

>  <RMSD>
0.983

$$$$
1o15_lig
 OpenBabel11021811403D
libRbt.so/2013.1/901 2013/11/27
 13 14  0  0  0  0  0  0  0  0999 V2000
    9.3872    1.1445   38.3293 C   0  0  0  0  0  0  0  0  0  0  0  0
    9.1894    2.4287   37.8719 N   0  0  0  0  0  0  0  0  0  0  0  0
   10.0651    3.3858   38.2764 C   0  0  0  0  0  0  0  0  0  0  0  0
   10.9618    3.0107   39.0274 O   0  0  0  0  0  0  0  0  0  0  0  0
   10.9051    5.6527   38.3395 C   0  0  0  0  0  0  0  0  0  0  0  0
   10.0039    4.7017   37.9108 N   0  0  0  0  0  0  0  0  0  0  0  0
    8.9621    4.9750   37.0795 C   0  0  0  0  0  0  0  0  0  0  0  0
    8.0908    4.0042   36.6784 C   0  0  0  0  0  0  0  0  0  0  0  0
    8.1439    2.6476   37.0488 C   0  0  0  0  0  0  0  0  0  0  0  0
    7.3959    1.7284   36.7255 O   0  0  0  0  0  0  0  0  0  0  0  0
    7.1737    4.6377   35.8522 N   0  0  0  0  0  0  0  0  0  0  0  0
    7.5508    5.9398   35.8092 C   0  0  0  0  0  0  0  0  0  0  0  0
    8.6119    6.2010   36.5239 N   0  0  0  0  0  0  0  0  0  0  0  0
  1  2  1  0  0  0  0
  2  3  1  0  0  0  0
  2  9  1  0  0  0  0
  3  4  2  0  0  0  0
  3  6  1  0  0  0  0
  6  5  1  0  0  0  0
  6  7  1  0  0  0  0
  7  8  2  0  0  0  0
  7 13  1  0  0  0  0
  8  9  1  0  0  0  0
  8 11  1  0  0  0  0
  9 10  2  0  0  0  0
 11 12  1  0  0  0  0
 12 13  2  0  0  0  0
M  END
>  <CHROM.1>
8.97520477,3.83847819,37.36789106,1.01737305,0.61893987,2.90164949

>  <Name>
1o15_lig

>  <RI>
0

>  <Rbt.Current_Directory>
/home/itssahil/PROJECTS/Mol_Feturizer/New_Systems/rnas/1o15

>  <Rbt.Executable>
rbdock ($Id: //depot/dev/client3/rdock/2013.1/src/exe/rbdock.cxx#4 $)

>  <Rbt.Library>
libRbt.so (2013.1, Build901 2013/11/27)

>  <Rbt.Parameter_File>
/export/apps/rDock/src/rDock_2013.1_src/data/scripts/dock_solv.prm

>  <Rbt.Receptor>
prm/pocket_docking_7.prm

>  <SCORE>
-23.0007

>  <SCORE.INTER>
-23.0007

>  <SCORE.INTER.CONST>
1

>  <SCORE.INTER.POLAR>
-1.80993

>  <SCORE.INTER.ROT>
0

>  <SCORE.INTER.SOLV>
7.28261

>  <SCORE.INTER.VDW>
-15.3283

>  <SCORE.INTER.norm>
-1.76929

>  <SCORE.INTRA>
0

>  <SCORE.INTRA.DIHEDRAL>
0

>  <SCORE.INTRA.DIHEDRAL.0>
0

>  <SCORE.INTRA.POLAR>
0

>  <SCORE.INTRA.POLAR.0>
0

>  <SCORE.INTRA.REPUL>
0

>  <SCORE.INTRA.REPUL.0>
0

>  <SCORE.INTRA.SOLV>
0

>  <SCORE.INTRA.SOLV.lig_0>
-12.9184

>  <SCORE.INTRA.VDW>
0

>  <SCORE.INTRA.VDW.0>
0

>  <SCORE.INTRA.norm>
0

>  <SCORE.RESTR>
0

>  <SCORE.RESTR.CAVITY>
0

>  <SCORE.RESTR.norm>
0

>  <SCORE.SYSTEM>
0

>  <SCORE.SYSTEM.CONST>
0

>  <SCORE.SYSTEM.DIHEDRAL>
0

>  <SCORE.SYSTEM.SOLV>
0

>  <SCORE.SYSTEM.norm>
0

>  <SCORE.heavy>
13

>  <SCORE.norm>
-1.76929

>  <RMSD>
1.019

$$$$
1o15_lig
 OpenBabel11021811403D
libRbt.so/2013.1/901 2013/11/27
 13 14  0  0  0  0  0  0  0  0999 V2000
    9.3224    1.1352   38.3730 C   0  0  0  0  0  0  0  0  0  0  0  0
    9.1456    2.4189   37.9057 N   0  0  0  0  0  0  0  0  0  0  0  0
   10.0207    3.3704   38.3246 C   0  0  0  0  0  0  0  0  0  0  0  0
   10.8978    2.9911   39.0964 O   0  0  0  0  0  0  0  0  0  0  0  0
   10.8787    5.6303   38.3956 C   0  0  0  0  0  0  0  0  0  0  0  0
    9.9787    4.6850   37.9520 N   0  0  0  0  0  0  0  0  0  0  0  0
    8.9574    4.9633   37.0972 C   0  0  0  0  0  0  0  0  0  0  0  0
    8.0865    3.9982   36.6819 C   0  0  0  0  0  0  0  0  0  0  0  0
    8.1199    2.6429   37.0594 C   0  0  0  0  0  0  0  0  0  0  0  0
    7.3711    1.7286   36.7241 O   0  0  0  0  0  0  0  0  0  0  0  0
    7.1928    4.6356   35.8333 N   0  0  0  0  0  0  0  0  0  0  0  0
    7.5820    5.9342   35.7927 C   0  0  0  0  0  0  0  0  0  0  0  0
    8.6297    6.1897   36.5288 N   0  0  0  0  0  0  0  0  0  0  0  0
  1  2  1  0  0  0  0
  2  3  1  0  0  0  0
  2  9  1  0  0  0  0
  3  4  2  0  0  0  0
  3  6  1  0  0  0  0
  6  5  1  0  0  0  0
  6  7  1  0  0  0  0
  7  8  2  0  0  0  0
  7 13  1  0  0  0  0
  8  9  1  0  0  0  0
  8 11  1  0  0  0  0
  9 10  2  0  0  0  0
 11 12  1  0  0  0  0
 12 13  2  0  0  0  0
M  END
>  <CHROM.1>
8.95444146,3.82811484,37.39093265,1.03414384,0.63765359,2.88723340

>  <Name>
1o15_lig

>  <RI>
0

>  <Rbt.Current_Directory>
/home/itssahil/PROJECTS/Mol_Feturizer/New_Systems/rnas/1o15

>  <Rbt.Executable>
rbdock ($Id: //depot/dev/client3/rdock/2013.1/src/exe/rbdock.cxx#4 $)

>  <Rbt.Library>
libRbt.so (2013.1, Build901 2013/11/27)

>  <Rbt.Parameter_File>
/export/apps/rDock/src/rDock_2013.1_src/data/scripts/dock_solv.prm

>  <Rbt.Receptor>
prm/pocket_docking_3.prm

>  <SCORE>
-22.9808

>  <SCORE.INTER>
-22.9808

>  <SCORE.INTER.CONST>
1

>  <SCORE.INTER.POLAR>
-1.73951

>  <SCORE.INTER.ROT>
0

>  <SCORE.INTER.SOLV>
7.36866

>  <SCORE.INTER.VDW>
-15.5784

>  <SCORE.INTER.norm>
-1.76775

>  <SCORE.INTRA>
0

>  <SCORE.INTRA.DIHEDRAL>
0

>  <SCORE.INTRA.DIHEDRAL.0>
0

>  <SCORE.INTRA.POLAR>
0

>  <SCORE.INTRA.POLAR.0>
0

>  <SCORE.INTRA.REPUL>
0

>  <SCORE.INTRA.REPUL.0>
0

>  <SCORE.INTRA.SOLV>
0

>  <SCORE.INTRA.SOLV.lig_0>
-12.9184

>  <SCORE.INTRA.VDW>
0

>  <SCORE.INTRA.VDW.0>
0

>  <SCORE.INTRA.norm>
0

>  <SCORE.RESTR>
0

>  <SCORE.RESTR.CAVITY>
0

>  <SCORE.RESTR.norm>
0

>  <SCORE.SYSTEM>
0

>  <SCORE.SYSTEM.CONST>
0

>  <SCORE.SYSTEM.DIHEDRAL>
0

>  <SCORE.SYSTEM.SOLV>
0

>  <SCORE.SYSTEM.norm>
0

>  <SCORE.heavy>
13

>  <SCORE.norm>
-1.76775

>  <RMSD>
1.021

$$$$
1o15_lig
 OpenBabel11021811403D
libRbt.so/2013.1/901 2013/11/27
 13 14  0  0  0  0  0  0  0  0999 V2000
    9.8805    1.0032   36.7908 C   0  0  0  0  0  0  0  0  0  0  0  0
    9.5393    2.3349   36.7047 N   0  0  0  0  0  0  0  0  0  0  0  0
   10.1584    3.2020   37.5483 C   0  0  0  0  0  0  0  0  0  0  0  0
   10.9731    2.7079   38.3235 O   0  0  0  0  0  0  0  0  0  0  0  0
   10.5705    5.4056   38.4553 C   0  0  0  0  0  0  0  0  0  0  0  0
    9.9296    4.5492   37.5857 N   0  0  0  0  0  0  0  0  0  0  0  0
    9.0045    4.9572   36.6753 C   0  0  0  0  0  0  0  0  0  0  0  0
    8.3915    4.0768   35.8317 C   0  0  0  0  0  0  0  0  0  0  0  0
    8.6188    2.6888   35.7850 C   0  0  0  0  0  0  0  0  0  0  0  0
    8.1041    1.8456   35.0549 O   0  0  0  0  0  0  0  0  0  0  0  0
    7.5242    4.8355   35.0589 N   0  0  0  0  0  0  0  0  0  0  0  0
    7.6714    6.1150   35.4842 C   0  0  0  0  0  0  0  0  0  0  0  0
    8.5412    6.2490   36.4487 N   0  0  0  0  0  0  0  0  0  0  0  0
  1  2  1  0  0  0  0
  2  3  1  0  0  0  0
  2  9  1  0  0  0  0
  3  4  2  0  0  0  0
  3  6  1  0  0  0  0
  6  5  1  0  0  0  0
  6  7  1  0  0  0  0
  7  8  2  0  0  0  0
  7 13  1  0  0  0  0
  8  9  1  0  0  0  0
  8 11  1  0  0  0  0
  9 10  2  0  0  0  0
 11 12  1  0  0  0  0
 12 13  2  0  0  0  0
M  END
>  <CHROM.1>
9.16793211,3.79795301,36.60917971,0.82707327,0.81128360,-2.93513247

>  <Name>
1o15_lig

>  <RI>
0

>  <Rbt.Current_Directory>
/home/itssahil/PROJECTS/Mol_Feturizer/New_Systems/rnas/1o15

>  <Rbt.Executable>
rbdock ($Id: //depot/dev/client3/rdock/2013.1/src/exe/rbdock.cxx#4 $)

>  <Rbt.Library>
libRbt.so (2013.1, Build901 2013/11/27)

>  <Rbt.Parameter_File>
/export/apps/rDock/src/rDock_2013.1_src/data/scripts/dock_solv.prm

>  <Rbt.Receptor>
prm/pocket_docking_4.prm

>  <SCORE>
-22.7312

>  <SCORE.INTER>
-22.7312

>  <SCORE.INTER.CONST>
1

>  <SCORE.INTER.POLAR>
-2.11915

>  <SCORE.INTER.ROT>
0

>  <SCORE.INTER.SOLV>
5.40573

>  <SCORE.INTER.VDW>
-13.4922

>  <SCORE.INTER.norm>
-1.74855

>  <SCORE.INTRA>
0

>  <SCORE.INTRA.DIHEDRAL>
0

>  <SCORE.INTRA.DIHEDRAL.0>
0

>  <SCORE.INTRA.POLAR>
0

>  <SCORE.INTRA.POLAR.0>
0

>  <SCORE.INTRA.REPUL>
0

>  <SCORE.INTRA.REPUL.0>
0

>  <SCORE.INTRA.SOLV>
0

>  <SCORE.INTRA.SOLV.lig_0>
-12.9184

>  <SCORE.INTRA.VDW>
0

>  <SCORE.INTRA.VDW.0>
0

>  <SCORE.INTRA.norm>
0

>  <SCORE.RESTR>
0

>  <SCORE.RESTR.CAVITY>
0

>  <SCORE.RESTR.norm>
0

>  <SCORE.SYSTEM>
0

>  <SCORE.SYSTEM.CONST>
0

>  <SCORE.SYSTEM.DIHEDRAL>
0

>  <SCORE.SYSTEM.SOLV>
0

>  <SCORE.SYSTEM.norm>
0

>  <SCORE.heavy>
13

>  <SCORE.norm>
-1.74855

>  <RMSD>
1.038

$$$$
1o15_lig
 OpenBabel11021811403D
libRbt.so/2013.1/901 2013/11/27
 13 14  0  0  0  0  0  0  0  0999 V2000
    9.9449    1.0098   36.7303 C   0  0  0  0  0  0  0  0  0  0  0  0
    9.5857    2.3379   36.6621 N   0  0  0  0  0  0  0  0  0  0  0  0
   10.1992    3.2032   37.5117 C   0  0  0  0  0  0  0  0  0  0  0  0
   11.0257    2.7109   38.2755 O   0  0  0  0  0  0  0  0  0  0  0  0
   10.5886    5.4013   38.4416 C   0  0  0  0  0  0  0  0  0  0  0  0
    9.9530    4.5468   37.5664 N   0  0  0  0  0  0  0  0  0  0  0  0
    9.0164    4.9531   36.6670 C   0  0  0  0  0  0  0  0  0  0  0  0
    8.4092    4.0745   35.8173 C   0  0  0  0  0  0  0  0  0  0  0  0
    8.6544    2.6902   35.7528 C   0  0  0  0  0  0  0  0  0  0  0  0
    8.1458    1.8489   35.0164 O   0  0  0  0  0  0  0  0  0  0  0  0
    7.5268    4.8306   35.0593 N   0  0  0  0  0  0  0  0  0  0  0  0
    7.6601    6.1069   35.4985 C   0  0  0  0  0  0  0  0  0  0  0  0
    8.5347    6.2412   36.4587 N   0  0  0  0  0  0  0  0  0  0  0  0
  1  2  1  0  0  0  0
  2  3  1  0  0  0  0
  2  9  1  0  0  0  0
  3  4  2  0  0  0  0
  3  6  1  0  0  0  0
  6  5  1  0  0  0  0
  6  7  1  0  0  0  0
  7  8  2  0  0  0  0
  7 13  1  0  0  0  0
  8  9  1  0  0  0  0
  8 11  1  0  0  0  0
  9 10  2  0  0  0  0
 11 12  1  0  0  0  0
 12 13  2  0  0  0  0
M  END
>  <CHROM.1>
9.19456352,3.79691657,36.58624016,0.81063855,0.80180059,-2.91159762

>  <Name>
1o15_lig

>  <RI>
0

>  <Rbt.Current_Directory>
/home/itssahil/PROJECTS/Mol_Feturizer/New_Systems/rnas/1o15

>  <Rbt.Executable>
rbdock ($Id: //depot/dev/client3/rdock/2013.1/src/exe/rbdock.cxx#4 $)

>  <Rbt.Library>
libRbt.so (2013.1, Build901 2013/11/27)

>  <Rbt.Parameter_File>
/export/apps/rDock/src/rDock_2013.1_src/data/scripts/dock_solv.prm

>  <Rbt.Receptor>
prm/pocket_docking_4.prm

>  <SCORE>
-22.7393

>  <SCORE.INTER>
-22.7393

>  <SCORE.INTER.CONST>
1

>  <SCORE.INTER.POLAR>
-2.11599

>  <SCORE.INTER.ROT>
0

>  <SCORE.INTER.SOLV>
5.43165

>  <SCORE.INTER.VDW>
-13.5168

>  <SCORE.INTER.norm>
-1.74918

>  <SCORE.INTRA>
0

>  <SCORE.INTRA.DIHEDRAL>
0

>  <SCORE.INTRA.DIHEDRAL.0>
0

>  <SCORE.INTRA.POLAR>
0

>  <SCORE.INTRA.POLAR.0>
0

>  <SCORE.INTRA.REPUL>
0

>  <SCORE.INTRA.REPUL.0>
0

>  <SCORE.INTRA.SOLV>
0

>  <SCORE.INTRA.SOLV.lig_0>
-12.9184

>  <SCORE.INTRA.VDW>
0

>  <SCORE.INTRA.VDW.0>
0

>  <SCORE.INTRA.norm>
0

>  <SCORE.RESTR>
0

>  <SCORE.RESTR.CAVITY>
0

>  <SCORE.RESTR.norm>
0

>  <SCORE.SYSTEM>
0

>  <SCORE.SYSTEM.CONST>
0

>  <SCORE.SYSTEM.DIHEDRAL>
0

>  <SCORE.SYSTEM.SOLV>
0

>  <SCORE.SYSTEM.norm>
0

>  <SCORE.heavy>
13

>  <SCORE.norm>
-1.74918

>  <RMSD>
1.050

$$$$
1o15_lig
 OpenBabel11021811403D
libRbt.so/2013.1/901 2013/11/27
 13 14  0  0  0  0  0  0  0  0999 V2000
    9.9606    1.0178   36.7284 C   0  0  0  0  0  0  0  0  0  0  0  0
    9.5962    2.3445   36.6621 N   0  0  0  0  0  0  0  0  0  0  0  0
   10.2043    3.2105   37.5147 C   0  0  0  0  0  0  0  0  0  0  0  0
   11.0310    2.7201   38.2795 O   0  0  0  0  0  0  0  0  0  0  0  0
   10.5828    5.4084   38.4500 C   0  0  0  0  0  0  0  0  0  0  0  0
    9.9525    4.5530   37.5716 N   0  0  0  0  0  0  0  0  0  0  0  0
    9.0164    4.9574   36.6709 C   0  0  0  0  0  0  0  0  0  0  0  0
    8.4147    4.0781   35.8181 C   0  0  0  0  0  0  0  0  0  0  0  0
    8.6655    2.6949   35.7514 C   0  0  0  0  0  0  0  0  0  0  0  0
    8.1620    1.8530   35.0121 O   0  0  0  0  0  0  0  0  0  0  0  0
    7.5309    4.8321   35.0596 N   0  0  0  0  0  0  0  0  0  0  0  0
    7.6581    6.1081   35.5017 C   0  0  0  0  0  0  0  0  0  0  0  0
    8.5299    6.2439   36.4641 N   0  0  0  0  0  0  0  0  0  0  0  0
  1  2  1  0  0  0  0
  2  3  1  0  0  0  0
  2  9  1  0  0  0  0
  3  4  2  0  0  0  0
  3  6  1  0  0  0  0
  6  5  1  0  0  0  0
  6  7  1  0  0  0  0
  7  8  2  0  0  0  0
  7 13  1  0  0  0  0
  8  9  1  0  0  0  0
  8 11  1  0  0  0  0
  9 10  2  0  0  0  0
 11 12  1  0  0  0  0
 12 13  2  0  0  0  0
M  END
>  <CHROM.1>
9.19936820,3.80208475,36.58823172,0.80424652,0.80305974,-2.90499549

>  <Name>
1o15_lig

>  <RI>
0

>  <Rbt.Current_Directory>
/home/itssahil/PROJECTS/Mol_Feturizer/New_Systems/rnas/1o15

>  <Rbt.Executable>
rbdock ($Id: //depot/dev/client3/rdock/2013.1/src/exe/rbdock.cxx#4 $)

>  <Rbt.Library>
libRbt.so (2013.1, Build901 2013/11/27)

>  <Rbt.Parameter_File>
/export/apps/rDock/src/rDock_2013.1_src/data/scripts/dock_solv.prm

>  <Rbt.Receptor>
prm/pocket_docking_4.prm

>  <SCORE>
-22.7241

>  <SCORE.INTER>
-22.7241

>  <SCORE.INTER.CONST>
1

>  <SCORE.INTER.POLAR>
-2.11219

>  <SCORE.INTER.ROT>
0

>  <SCORE.INTER.SOLV>
5.43774

>  <SCORE.INTER.VDW>
-13.5214

>  <SCORE.INTER.norm>
-1.74801

>  <SCORE.INTRA>
0

>  <SCORE.INTRA.DIHEDRAL>
0

>  <SCORE.INTRA.DIHEDRAL.0>
0

>  <SCORE.INTRA.POLAR>
0

>  <SCORE.INTRA.POLAR.0>
0

>  <SCORE.INTRA.REPUL>
0

>  <SCORE.INTRA.REPUL.0>
0

>  <SCORE.INTRA.SOLV>
0

>  <SCORE.INTRA.SOLV.lig_0>
-12.9184

>  <SCORE.INTRA.VDW>
0

>  <SCORE.INTRA.VDW.0>
0

>  <SCORE.INTRA.norm>
0

>  <SCORE.RESTR>
0

>  <SCORE.RESTR.CAVITY>
0

>  <SCORE.RESTR.norm>
0

>  <SCORE.SYSTEM>
0

>  <SCORE.SYSTEM.CONST>
0

>  <SCORE.SYSTEM.DIHEDRAL>
0

>  <SCORE.SYSTEM.SOLV>
0

>  <SCORE.SYSTEM.norm>
0

>  <SCORE.heavy>
13

>  <SCORE.norm>
-1.74801

>  <RMSD>
1.053

$$$$
1o15_lig
 OpenBabel11021811403D
libRbt.so/2013.1/901 2013/11/27
 13 14  0  0  0  0  0  0  0  0999 V2000
    9.0446    0.8652   37.2297 C   0  0  0  0  0  0  0  0  0  0  0  0
    8.9222    2.2228   37.0312 N   0  0  0  0  0  0  0  0  0  0  0  0
    9.6162    3.0478   37.8584 C   0  0  0  0  0  0  0  0  0  0  0  0
   10.2943    2.4966   38.7217 O   0  0  0  0  0  0  0  0  0  0  0  0
   10.3118    5.2262   38.6454 C   0  0  0  0  0  0  0  0  0  0  0  0
    9.5994    4.4130   37.7900 N   0  0  0  0  0  0  0  0  0  0  0  0
    8.8075    4.8858   36.7897 C   0  0  0  0  0  0  0  0  0  0  0  0
    8.1173    4.0467   35.9639 C   0  0  0  0  0  0  0  0  0  0  0  0
    8.1269    2.6408   36.0257 C   0  0  0  0  0  0  0  0  0  0  0  0
    7.5324    1.8321   35.3174 O   0  0  0  0  0  0  0  0  0  0  0  0
    7.4288    4.8668   35.0817 N   0  0  0  0  0  0  0  0  0  0  0  0
    7.7481    6.1379   35.4310 C   0  0  0  0  0  0  0  0  0  0  0  0
    8.5670    6.2117   36.4452 N   0  0  0  0  0  0  0  0  0  0  0  0
  1  2  1  0  0  0  0
  2  3  1  0  0  0  0
  2  9  1  0  0  0  0
  3  4  2  0  0  0  0
  3  6  1  0  0  0  0
  6  5  1  0  0  0  0
  6  7  1  0  0  0  0
  7  8  2  0  0  0  0
  7 13  1  0  0  0  0
  8  9  1  0  0  0  0
  8 11  1  0  0  0  0
  9 10  2  0  0  0  0
 11 12  1  0  0  0  0
 12 13  2  0  0  0  0
M  END
>  <CHROM.1>
8.79108776,3.71355282,36.81245333,1.05305593,0.89217703,3.10568213

>  <Name>
1o15_lig

>  <RI>
0

>  <Rbt.Current_Directory>
/home/itssahil/PROJECTS/Mol_Feturizer/New_Systems/rnas/1o15

>  <Rbt.Executable>
rbdock ($Id: //depot/dev/client3/rdock/2013.1/src/exe/rbdock.cxx#4 $)

>  <Rbt.Library>
libRbt.so (2013.1, Build901 2013/11/27)

>  <Rbt.Parameter_File>
/export/apps/rDock/src/rDock_2013.1_src/data/scripts/dock_solv.prm

>  <Rbt.Receptor>
prm/pocket_docking_8.prm

>  <SCORE>
-23.5114

>  <SCORE.INTER>
-23.5114

>  <SCORE.INTER.CONST>
1

>  <SCORE.INTER.POLAR>
-2.12302

>  <SCORE.INTER.ROT>
0

>  <SCORE.INTER.SOLV>
6.58876

>  <SCORE.INTER.VDW>
-14.3938

>  <SCORE.INTER.norm>
-1.80857

>  <SCORE.INTRA>
0

>  <SCORE.INTRA.DIHEDRAL>
0

>  <SCORE.INTRA.DIHEDRAL.0>
0

>  <SCORE.INTRA.POLAR>
0

>  <SCORE.INTRA.POLAR.0>
0

>  <SCORE.INTRA.REPUL>
0

>  <SCORE.INTRA.REPUL.0>
0

>  <SCORE.INTRA.SOLV>
0

>  <SCORE.INTRA.SOLV.lig_0>
-12.9184

>  <SCORE.INTRA.VDW>
0

>  <SCORE.INTRA.VDW.0>
0

>  <SCORE.INTRA.norm>
0

>  <SCORE.RESTR>
0

>  <SCORE.RESTR.CAVITY>
0

>  <SCORE.RESTR.norm>
0

>  <SCORE.SYSTEM>
0

>  <SCORE.SYSTEM.CONST>
0

>  <SCORE.SYSTEM.DIHEDRAL>
0

>  <SCORE.SYSTEM.SOLV>
0

>  <SCORE.SYSTEM.norm>
0

>  <SCORE.heavy>
13

>  <SCORE.norm>
-1.80857

>  <RMSD>
1.066

$$$$
1o15_lig
 OpenBabel11021811403D
libRbt.so/2013.1/901 2013/11/27
 13 14  0  0  0  0  0  0  0  0999 V2000
    9.0225    0.8583   37.2286 C   0  0  0  0  0  0  0  0  0  0  0  0
    8.9075    2.2170   37.0334 N   0  0  0  0  0  0  0  0  0  0  0  0
    9.6029    3.0363   37.8653 C   0  0  0  0  0  0  0  0  0  0  0  0
   10.2751    2.4794   38.7295 O   0  0  0  0  0  0  0  0  0  0  0  0
   10.3065    5.2091   38.6606 C   0  0  0  0  0  0  0  0  0  0  0  0
    9.5930    4.4018   37.8005 N   0  0  0  0  0  0  0  0  0  0  0  0
    8.8070    4.8813   36.7988 C   0  0  0  0  0  0  0  0  0  0  0  0
    8.1156    4.0479   35.9683 C   0  0  0  0  0  0  0  0  0  0  0  0
    8.1179    2.6418   36.0262 C   0  0  0  0  0  0  0  0  0  0  0  0
    7.5219    1.8380   35.3137 O   0  0  0  0  0  0  0  0  0  0  0  0
    7.4342    4.8738   35.0859 N   0  0  0  0  0  0  0  0  0  0  0  0
    7.7587    6.1423   35.4398 C   0  0  0  0  0  0  0  0  0  0  0  0
    8.5744    6.2093   36.4571 N   0  0  0  0  0  0  0  0  0  0  0  0
  1  2  1  0  0  0  0
  2  3  1  0  0  0  0
  2  9  1  0  0  0  0
  3  4  2  0  0  0  0
  3  6  1  0  0  0  0
  6  5  1  0  0  0  0
  6  7  1  0  0  0  0
  7  8  2  0  0  0  0
  7 13  1  0  0  0  0
  8  9  1  0  0  0  0
  8 11  1  0  0  0  0
  9 10  2  0  0  0  0
 11 12  1  0  0  0  0
 12 13  2  0  0  0  0
M  END
>  <CHROM.1>
8.78470018,3.70906294,36.81828311,1.06125094,0.89547792,3.10202167

>  <Name>
1o15_lig

>  <RI>
0

>  <Rbt.Current_Directory>
/home/itssahil/PROJECTS/Mol_Feturizer/New_Systems/rnas/1o15

>  <Rbt.Executable>
rbdock ($Id: //depot/dev/client3/rdock/2013.1/src/exe/rbdock.cxx#4 $)

>  <Rbt.Library>
libRbt.so (2013.1, Build901 2013/11/27)

>  <Rbt.Parameter_File>
/export/apps/rDock/src/rDock_2013.1_src/data/scripts/dock_solv.prm

>  <Rbt.Receptor>
prm/pocket_docking_2.prm

>  <SCORE>
-23.4706

>  <SCORE.INTER>
-23.4706

>  <SCORE.INTER.CONST>
1

>  <SCORE.INTER.POLAR>
-2.11895

>  <SCORE.INTER.ROT>
0

>  <SCORE.INTER.SOLV>
6.61299

>  <SCORE.INTER.VDW>
-14.3882

>  <SCORE.INTER.norm>
-1.80543

>  <SCORE.INTRA>
0

>  <SCORE.INTRA.DIHEDRAL>
0

>  <SCORE.INTRA.DIHEDRAL.0>
0

>  <SCORE.INTRA.POLAR>
0

>  <SCORE.INTRA.POLAR.0>
0

>  <SCORE.INTRA.REPUL>
0

>  <SCORE.INTRA.REPUL.0>
0

>  <SCORE.INTRA.SOLV>
0

>  <SCORE.INTRA.SOLV.lig_0>
-12.9184

>  <SCORE.INTRA.VDW>
0

>  <SCORE.INTRA.VDW.0>
0

>  <SCORE.INTRA.norm>
0

>  <SCORE.RESTR>
0

>  <SCORE.RESTR.CAVITY>
0

>  <SCORE.RESTR.norm>
0

>  <SCORE.SYSTEM>
0

>  <SCORE.SYSTEM.CONST>
0

>  <SCORE.SYSTEM.DIHEDRAL>
0

>  <SCORE.SYSTEM.SOLV>
0

>  <SCORE.SYSTEM.norm>
0

>  <SCORE.heavy>
13

>  <SCORE.norm>
-1.80543

>  <RMSD>
1.068

$$$$
1o15_lig
 OpenBabel11021811403D
libRbt.so/2013.1/901 2013/11/27
 13 14  0  0  0  0  0  0  0  0999 V2000
    9.0276    0.8680   37.2292 C   0  0  0  0  0  0  0  0  0  0  0  0
    8.9112    2.2264   37.0323 N   0  0  0  0  0  0  0  0  0  0  0  0
    9.6081    3.0474   37.8612 C   0  0  0  0  0  0  0  0  0  0  0  0
   10.2828    2.4922   38.7245 O   0  0  0  0  0  0  0  0  0  0  0  0
   10.3122    5.2218   38.6515 C   0  0  0  0  0  0  0  0  0  0  0  0
    9.5971    4.4128   37.7944 N   0  0  0  0  0  0  0  0  0  0  0  0
    8.8083    4.8902   36.7939 C   0  0  0  0  0  0  0  0  0  0  0  0
    8.1153    4.0550   35.9664 C   0  0  0  0  0  0  0  0  0  0  0  0
    8.1187    2.6490   36.0264 C   0  0  0  0  0  0  0  0  0  0  0  0
    7.5215    1.8438   35.3166 O   0  0  0  0  0  0  0  0  0  0  0  0
    7.4312    4.8792   35.0845 N   0  0  0  0  0  0  0  0  0  0  0  0
    7.7556    6.1485   35.4357 C   0  0  0  0  0  0  0  0  0  0  0  0
    8.5739    6.2175   36.4508 N   0  0  0  0  0  0  0  0  0  0  0  0
  1  2  1  0  0  0  0
  2  3  1  0  0  0  0
  2  9  1  0  0  0  0
  3  4  2  0  0  0  0
  3  6  1  0  0  0  0
  6  5  1  0  0  0  0
  6  7  1  0  0  0  0
  7  8  2  0  0  0  0
  7 13  1  0  0  0  0
  8  9  1  0  0  0  0
  8 11  1  0  0  0  0
  9 10  2  0  0  0  0
 11 12  1  0  0  0  0
 12 13  2  0  0  0  0
M  END
>  <CHROM.1>
8.78681414,3.71796599,36.81521923,1.05998690,0.89300356,3.10150816

>  <Name>
1o15_lig

>  <RI>
0

>  <Rbt.Current_Directory>
/home/itssahil/PROJECTS/Mol_Feturizer/New_Systems/rnas/1o15

>  <Rbt.Executable>
rbdock ($Id: //depot/dev/client3/rdock/2013.1/src/exe/rbdock.cxx#4 $)

>  <Rbt.Library>
libRbt.so (2013.1, Build901 2013/11/27)

>  <Rbt.Parameter_File>
/export/apps/rDock/src/rDock_2013.1_src/data/scripts/dock_solv.prm

>  <Rbt.Receptor>
prm/pocket_docking_2.prm

>  <SCORE>
-23.4926

>  <SCORE.INTER>
-23.4926

>  <SCORE.INTER.CONST>
1

>  <SCORE.INTER.POLAR>
-2.11259

>  <SCORE.INTER.ROT>
0

>  <SCORE.INTER.SOLV>
6.61432

>  <SCORE.INTER.VDW>
-14.4246

>  <SCORE.INTER.norm>
-1.80712

>  <SCORE.INTRA>
0

>  <SCORE.INTRA.DIHEDRAL>
0

>  <SCORE.INTRA.DIHEDRAL.0>
0

>  <SCORE.INTRA.POLAR>
0

>  <SCORE.INTRA.POLAR.0>
0

>  <SCORE.INTRA.REPUL>
0

>  <SCORE.INTRA.REPUL.0>
0

>  <SCORE.INTRA.SOLV>
0

>  <SCORE.INTRA.SOLV.lig_0>
-12.9184

>  <SCORE.INTRA.VDW>
0

>  <SCORE.INTRA.VDW.0>
0

>  <SCORE.INTRA.norm>
0

>  <SCORE.RESTR>
0

>  <SCORE.RESTR.CAVITY>
0

>  <SCORE.RESTR.norm>
0

>  <SCORE.SYSTEM>
0

>  <SCORE.SYSTEM.CONST>
0

>  <SCORE.SYSTEM.DIHEDRAL>
0

>  <SCORE.SYSTEM.SOLV>
0

>  <SCORE.SYSTEM.norm>
0

>  <SCORE.heavy>
13

>  <SCORE.norm>
-1.80712

>  <RMSD>
1.071

$$$$
1o15_lig
 OpenBabel11021811403D
libRbt.so/2013.1/901 2013/11/27
 13 14  0  0  0  0  0  0  0  0999 V2000
    9.0173    0.8582   37.2170 C   0  0  0  0  0  0  0  0  0  0  0  0
    8.9036    2.2175   37.0252 N   0  0  0  0  0  0  0  0  0  0  0  0
    9.6001    3.0341   37.8586 C   0  0  0  0  0  0  0  0  0  0  0  0
   10.2723    2.4745   38.7211 O   0  0  0  0  0  0  0  0  0  0  0  0
   10.3063    5.2043   38.6588 C   0  0  0  0  0  0  0  0  0  0  0  0
    9.5916    4.3998   37.7972 N   0  0  0  0  0  0  0  0  0  0  0  0
    8.8055    4.8824   36.7970 C   0  0  0  0  0  0  0  0  0  0  0  0
    8.1128    4.0516   35.9649 C   0  0  0  0  0  0  0  0  0  0  0  0
    8.1138    2.6454   36.0194 C   0  0  0  0  0  0  0  0  0  0  0  0
    7.5166    1.8440   35.3053 O   0  0  0  0  0  0  0  0  0  0  0  0
    7.4318    4.8804   35.0849 N   0  0  0  0  0  0  0  0  0  0  0  0
    7.7576    6.1477   35.4416 C   0  0  0  0  0  0  0  0  0  0  0  0
    8.5740    6.2115   36.4586 N   0  0  0  0  0  0  0  0  0  0  0  0
  1  2  1  0  0  0  0
  2  3  1  0  0  0  0
  2  9  1  0  0  0  0
  3  4  2  0  0  0  0
  3  6  1  0  0  0  0
  6  5  1  0  0  0  0
  6  7  1  0  0  0  0
  7  8  2  0  0  0  0
  7 13  1  0  0  0  0
  8  9  1  0  0  0  0
  8 11  1  0  0  0  0
  9 10  2  0  0  0  0
 11 12  1  0  0  0  0
 12 13  2  0  0  0  0
M  END
>  <CHROM.1>
8.78204327,3.71016217,36.81368421,1.06274925,0.89490112,3.10325107

>  <Name>
1o15_lig

>  <RI>
0

>  <Rbt.Current_Directory>
/home/itssahil/PROJECTS/Mol_Feturizer/New_Systems/rnas/1o15

>  <Rbt.Executable>
rbdock ($Id: //depot/dev/client3/rdock/2013.1/src/exe/rbdock.cxx#4 $)

>  <Rbt.Library>
libRbt.so (2013.1, Build901 2013/11/27)

>  <Rbt.Parameter_File>
/export/apps/rDock/src/rDock_2013.1_src/data/scripts/dock_solv.prm

>  <Rbt.Receptor>
prm/pocket_docking_2.prm

>  <SCORE>
-23.4562

>  <SCORE.INTER>
-23.4562

>  <SCORE.INTER.CONST>
1

>  <SCORE.INTER.POLAR>
-2.12014

>  <SCORE.INTER.ROT>
0

>  <SCORE.INTER.SOLV>
6.62001

>  <SCORE.INTER.VDW>
-14.377

>  <SCORE.INTER.norm>
-1.80432

>  <SCORE.INTRA>
0

>  <SCORE.INTRA.DIHEDRAL>
0

>  <SCORE.INTRA.DIHEDRAL.0>
0

>  <SCORE.INTRA.POLAR>
0

>  <SCORE.INTRA.POLAR.0>
0

>  <SCORE.INTRA.REPUL>
0

>  <SCORE.INTRA.REPUL.0>
0

>  <SCORE.INTRA.SOLV>
0

>  <SCORE.INTRA.SOLV.lig_0>
-12.9184

>  <SCORE.INTRA.VDW>
0

>  <SCORE.INTRA.VDW.0>
0

>  <SCORE.INTRA.norm>
0

>  <SCORE.RESTR>
0

>  <SCORE.RESTR.CAVITY>
0

>  <SCORE.RESTR.norm>
0

>  <SCORE.SYSTEM>
0

>  <SCORE.SYSTEM.CONST>
0

>  <SCORE.SYSTEM.DIHEDRAL>
0

>  <SCORE.SYSTEM.SOLV>
0

>  <SCORE.SYSTEM.norm>
0

>  <SCORE.heavy>
13

>  <SCORE.norm>
-1.80432

>  <RMSD>
1.072

$$$$
1o15_lig
 OpenBabel11021811403D
libRbt.so/2013.1/901 2013/11/27
 13 14  0  0  0  0  0  0  0  0999 V2000
    9.0397    0.8721   37.2418 C   0  0  0  0  0  0  0  0  0  0  0  0
    8.9164    2.2297   37.0440 N   0  0  0  0  0  0  0  0  0  0  0  0
    9.6020    3.0550   37.8781 C   0  0  0  0  0  0  0  0  0  0  0  0
   10.2737    2.5039   38.7464 O   0  0  0  0  0  0  0  0  0  0  0  0
   10.2869    5.2336   38.6736 C   0  0  0  0  0  0  0  0  0  0  0  0
    9.5832    4.4202   37.8112 N   0  0  0  0  0  0  0  0  0  0  0  0
    8.7990    4.8929   36.8049 C   0  0  0  0  0  0  0  0  0  0  0  0
    8.1174    4.0535   35.9722 C   0  0  0  0  0  0  0  0  0  0  0  0
    8.1289    2.6475   36.0323 C   0  0  0  0  0  0  0  0  0  0  0  0
    7.5420    1.8387   35.3180 O   0  0  0  0  0  0  0  0  0  0  0  0
    7.4348    4.8735   35.0852 N   0  0  0  0  0  0  0  0  0  0  0  0
    7.7489    6.1447   35.4388 C   0  0  0  0  0  0  0  0  0  0  0  0
    8.5591    6.2188   36.4600 N   0  0  0  0  0  0  0  0  0  0  0  0
  1  2  1  0  0  0  0
  2  3  1  0  0  0  0
  2  9  1  0  0  0  0
  3  4  2  0  0  0  0
  3  6  1  0  0  0  0
  6  5  1  0  0  0  0
  6  7  1  0  0  0  0
  7  8  2  0  0  0  0
  7 13  1  0  0  0  0
  8  9  1  0  0  0  0
  8 11  1  0  0  0  0
  9 10  2  0  0  0  0
 11 12  1  0  0  0  0
 12 13  2  0  0  0  0
M  END
>  <CHROM.1>
8.78453327,3.72053544,36.82601384,1.05061977,0.90071041,3.10884156

>  <Name>
1o15_lig

>  <RI>
0

>  <Rbt.Current_Directory>
/home/itssahil/PROJECTS/Mol_Feturizer/New_Systems/rnas/1o15

>  <Rbt.Executable>
rbdock ($Id: //depot/dev/client3/rdock/2013.1/src/exe/rbdock.cxx#4 $)

>  <Rbt.Library>
libRbt.so (2013.1, Build901 2013/11/27)

>  <Rbt.Parameter_File>
/export/apps/rDock/src/rDock_2013.1_src/data/scripts/dock_solv.prm

>  <Rbt.Receptor>
prm/pocket_docking_7.prm

>  <SCORE>
-23.5067

>  <SCORE.INTER>
-23.5067

>  <SCORE.INTER.CONST>
1

>  <SCORE.INTER.POLAR>
-2.12373

>  <SCORE.INTER.ROT>
0

>  <SCORE.INTER.SOLV>
6.63651

>  <SCORE.INTER.VDW>
-14.4042

>  <SCORE.INTER.norm>
-1.80821

>  <SCORE.INTRA>
0

>  <SCORE.INTRA.DIHEDRAL>
0

>  <SCORE.INTRA.DIHEDRAL.0>
0

>  <SCORE.INTRA.POLAR>
0

>  <SCORE.INTRA.POLAR.0>
0

>  <SCORE.INTRA.REPUL>
0

>  <SCORE.INTRA.REPUL.0>
0

>  <SCORE.INTRA.SOLV>
0

>  <SCORE.INTRA.SOLV.lig_0>
-12.9184

>  <SCORE.INTRA.VDW>
0

>  <SCORE.INTRA.VDW.0>
0

>  <SCORE.INTRA.norm>
0

>  <SCORE.RESTR>
0

>  <SCORE.RESTR.CAVITY>
0

>  <SCORE.RESTR.norm>
0

>  <SCORE.SYSTEM>
0

>  <SCORE.SYSTEM.CONST>
0

>  <SCORE.SYSTEM.DIHEDRAL>
0

>  <SCORE.SYSTEM.SOLV>
0

>  <SCORE.SYSTEM.norm>
0

>  <SCORE.heavy>
13

>  <SCORE.norm>
-1.80821

>  <RMSD>
1.072

$$$$
1o15_lig
 OpenBabel11021811403D
libRbt.so/2013.1/901 2013/11/27
 13 14  0  0  0  0  0  0  0  0999 V2000
    9.0342    0.8706   37.2393 C   0  0  0  0  0  0  0  0  0  0  0  0
    8.9128    2.2284   37.0416 N   0  0  0  0  0  0  0  0  0  0  0  0
    9.6006    3.0527   37.8748 C   0  0  0  0  0  0  0  0  0  0  0  0
   10.2725    2.5007   38.7423 O   0  0  0  0  0  0  0  0  0  0  0  0
   10.2896    5.2304   38.6693 C   0  0  0  0  0  0  0  0  0  0  0  0
    9.5837    4.4180   37.8078 N   0  0  0  0  0  0  0  0  0  0  0  0
    8.7990    4.8917   36.8024 C   0  0  0  0  0  0  0  0  0  0  0  0
    8.1151    4.0533   35.9707 C   0  0  0  0  0  0  0  0  0  0  0  0
    8.1247    2.6473   36.0308 C   0  0  0  0  0  0  0  0  0  0  0  0
    7.5356    1.8394   35.3173 O   0  0  0  0  0  0  0  0  0  0  0  0
    7.4327    4.8743   35.0844 N   0  0  0  0  0  0  0  0  0  0  0  0
    7.7490    6.1451   35.4376 C   0  0  0  0  0  0  0  0  0  0  0  0
    8.5606    6.2180   36.4578 N   0  0  0  0  0  0  0  0  0  0  0  0
  1  2  1  0  0  0  0
  2  3  1  0  0  0  0
  2  9  1  0  0  0  0
  3  4  2  0  0  0  0
  3  6  1  0  0  0  0
  6  5  1  0  0  0  0
  6  7  1  0  0  0  0
  7  8  2  0  0  0  0
  7 13  1  0  0  0  0
  8  9  1  0  0  0  0
  8 11  1  0  0  0  0
  9 10  2  0  0  0  0
 11 12  1  0  0  0  0
 12 13  2  0  0  0  0
M  END
>  <CHROM.1>
8.78280625,3.71942249,36.82365478,1.05293262,0.89942907,3.10696508

>  <Name>
1o15_lig

>  <RI>
0

>  <Rbt.Current_Directory>
/home/itssahil/PROJECTS/Mol_Feturizer/New_Systems/rnas/1o15

>  <Rbt.Executable>
rbdock ($Id: //depot/dev/client3/rdock/2013.1/src/exe/rbdock.cxx#4 $)

>  <Rbt.Library>
libRbt.so (2013.1, Build901 2013/11/27)

>  <Rbt.Parameter_File>
/export/apps/rDock/src/rDock_2013.1_src/data/scripts/dock_solv.prm

>  <Rbt.Receptor>
prm/pocket_docking_2.prm

>  <SCORE>
-23.5084

>  <SCORE.INTER>
-23.5084

>  <SCORE.INTER.CONST>
1

>  <SCORE.INTER.POLAR>
-2.12614

>  <SCORE.INTER.ROT>
0

>  <SCORE.INTER.SOLV>
6.64114

>  <SCORE.INTER.VDW>
-14.3989

>  <SCORE.INTER.norm>
-1.80834

>  <SCORE.INTRA>
0

>  <SCORE.INTRA.DIHEDRAL>
0

>  <SCORE.INTRA.DIHEDRAL.0>
0

>  <SCORE.INTRA.POLAR>
0

>  <SCORE.INTRA.POLAR.0>
0

>  <SCORE.INTRA.REPUL>
0

>  <SCORE.INTRA.REPUL.0>
0

>  <SCORE.INTRA.SOLV>
0

>  <SCORE.INTRA.SOLV.lig_0>
-12.9184

>  <SCORE.INTRA.VDW>
0

>  <SCORE.INTRA.VDW.0>
0

>  <SCORE.INTRA.norm>
0

>  <SCORE.RESTR>
0

>  <SCORE.RESTR.CAVITY>
0

>  <SCORE.RESTR.norm>
0

>  <SCORE.SYSTEM>
0

>  <SCORE.SYSTEM.CONST>
0

>  <SCORE.SYSTEM.DIHEDRAL>
0

>  <SCORE.SYSTEM.SOLV>
0

>  <SCORE.SYSTEM.norm>
0

>  <SCORE.heavy>
13

>  <SCORE.norm>
-1.80834

>  <RMSD>
1.073

$$$$
1o15_lig
 OpenBabel11021811403D
libRbt.so/2013.1/901 2013/11/27
 13 14  0  0  0  0  0  0  0  0999 V2000
    9.0634    0.8802   37.2305 C   0  0  0  0  0  0  0  0  0  0  0  0
    8.9316    2.2372   37.0341 N   0  0  0  0  0  0  0  0  0  0  0  0
    9.6169    3.0659   37.8650 C   0  0  0  0  0  0  0  0  0  0  0  0
   10.2962    2.5181   38.7295 O   0  0  0  0  0  0  0  0  0  0  0  0
   10.2938    5.2479   38.6580 C   0  0  0  0  0  0  0  0  0  0  0  0
    9.5902    4.4311   37.7989 N   0  0  0  0  0  0  0  0  0  0  0  0
    8.7981    4.8998   36.7969 C   0  0  0  0  0  0  0  0  0  0  0  0
    8.1168    4.0571   35.9674 C   0  0  0  0  0  0  0  0  0  0  0  0
    8.1365    2.6512   36.0267 C   0  0  0  0  0  0  0  0  0  0  0  0
    7.5503    1.8395   35.3151 O   0  0  0  0  0  0  0  0  0  0  0  0
    7.4251    4.8737   35.0844 N   0  0  0  0  0  0  0  0  0  0  0  0
    7.7339    6.1465   35.4370 C   0  0  0  0  0  0  0  0  0  0  0  0
    8.5490    6.2245   36.4540 N   0  0  0  0  0  0  0  0  0  0  0  0
  1  2  1  0  0  0  0
  2  3  1  0  0  0  0
  2  9  1  0  0  0  0
  3  4  2  0  0  0  0
  3  6  1  0  0  0  0
  6  5  1  0  0  0  0
  6  7  1  0  0  0  0
  7  8  2  0  0  0  0
  7 13  1  0  0  0  0
  8  9  1  0  0  0  0
  8 11  1  0  0  0  0
  9 10  2  0  0  0  0
 11 12  1  0  0  0  0
 12 13  2  0  0  0  0
M  END
>  <CHROM.1>
8.79026801,3.72740626,36.81754538,1.04146883,0.89564086,3.11649482

>  <Name>
1o15_lig

>  <RI>
0

>  <Rbt.Current_Directory>
/home/itssahil/PROJECTS/Mol_Feturizer/New_Systems/rnas/1o15

>  <Rbt.Executable>
rbdock ($Id: //depot/dev/client3/rdock/2013.1/src/exe/rbdock.cxx#4 $)

>  <Rbt.Library>
libRbt.so (2013.1, Build901 2013/11/27)

>  <Rbt.Parameter_File>
/export/apps/rDock/src/rDock_2013.1_src/data/scripts/dock_solv.prm

>  <Rbt.Receptor>
prm/pocket_docking_2.prm

>  <SCORE>
-23.5086

>  <SCORE.INTER>
-23.5086

>  <SCORE.INTER.CONST>
1

>  <SCORE.INTER.POLAR>
-2.11979

>  <SCORE.INTER.ROT>
0

>  <SCORE.INTER.SOLV>
6.61303

>  <SCORE.INTER.VDW>
-14.4107

>  <SCORE.INTER.norm>
-1.80835

>  <SCORE.INTRA>
0

>  <SCORE.INTRA.DIHEDRAL>
0

>  <SCORE.INTRA.DIHEDRAL.0>
0

>  <SCORE.INTRA.POLAR>
0

>  <SCORE.INTRA.POLAR.0>
0

>  <SCORE.INTRA.REPUL>
0

>  <SCORE.INTRA.REPUL.0>
0

>  <SCORE.INTRA.SOLV>
0

>  <SCORE.INTRA.SOLV.lig_0>
-12.9184

>  <SCORE.INTRA.VDW>
0

>  <SCORE.INTRA.VDW.0>
0

>  <SCORE.INTRA.norm>
0

>  <SCORE.RESTR>
0

>  <SCORE.RESTR.CAVITY>
0

>  <SCORE.RESTR.norm>
0

>  <SCORE.SYSTEM>
0

>  <SCORE.SYSTEM.CONST>
0

>  <SCORE.SYSTEM.DIHEDRAL>
0

>  <SCORE.SYSTEM.SOLV>
0

>  <SCORE.SYSTEM.norm>
0

>  <SCORE.heavy>
13

>  <SCORE.norm>
-1.80835

>  <RMSD>
1.073

$$$$
1o15_lig
 OpenBabel11021811403D
libRbt.so/2013.1/901 2013/11/27
 13 14  0  0  0  0  0  0  0  0999 V2000
    9.0358    0.8720   37.2371 C   0  0  0  0  0  0  0  0  0  0  0  0
    8.9136    2.2297   37.0396 N   0  0  0  0  0  0  0  0  0  0  0  0
    9.6017    3.0543   37.8722 C   0  0  0  0  0  0  0  0  0  0  0  0
   10.2747    2.5025   38.7391 O   0  0  0  0  0  0  0  0  0  0  0  0
   10.2906    5.2322   38.6662 C   0  0  0  0  0  0  0  0  0  0  0  0
    9.5843    4.4196   37.8053 N   0  0  0  0  0  0  0  0  0  0  0  0
    8.7984    4.8930   36.8006 C   0  0  0  0  0  0  0  0  0  0  0  0
    8.1141    4.0544   35.9694 C   0  0  0  0  0  0  0  0  0  0  0  0
    8.1244    2.6484   36.0295 C   0  0  0  0  0  0  0  0  0  0  0  0
    7.5350    1.8402   35.3165 O   0  0  0  0  0  0  0  0  0  0  0  0
    7.4306    4.8751   35.0838 N   0  0  0  0  0  0  0  0  0  0  0  0
    7.7468    6.1460   35.4367 C   0  0  0  0  0  0  0  0  0  0  0  0
    8.5592    6.2192   36.4562 N   0  0  0  0  0  0  0  0  0  0  0  0
  1  2  1  0  0  0  0
  2  3  1  0  0  0  0
  2  9  1  0  0  0  0
  3  4  2  0  0  0  0
  3  6  1  0  0  0  0
  6  5  1  0  0  0  0
  6  7  1  0  0  0  0
  7  8  2  0  0  0  0
  7 13  1  0  0  0  0
  8  9  1  0  0  0  0
  8 11  1  0  0  0  0
  9 10  2  0  0  0  0
 11 12  1  0  0  0  0
 12 13  2  0  0  0  0
M  END
>  <CHROM.1>
8.78277002,3.72071194,36.82179897,1.05222225,0.89856523,3.10756208

>  <Name>
1o15_lig

>  <RI>
0

>  <Rbt.Current_Directory>
/home/itssahil/PROJECTS/Mol_Feturizer/New_Systems/rnas/1o15

>  <Rbt.Executable>
rbdock ($Id: //depot/dev/client3/rdock/2013.1/src/exe/rbdock.cxx#4 $)

>  <Rbt.Library>
libRbt.so (2013.1, Build901 2013/11/27)

>  <Rbt.Parameter_File>
/export/apps/rDock/src/rDock_2013.1_src/data/scripts/dock_solv.prm

>  <Rbt.Receptor>
prm/pocket_docking_2.prm

>  <SCORE>
-23.5062

>  <SCORE.INTER>
-23.5062

>  <SCORE.INTER.CONST>
1

>  <SCORE.INTER.POLAR>
-2.12733

>  <SCORE.INTER.ROT>
0

>  <SCORE.INTER.SOLV>
6.64155

>  <SCORE.INTER.VDW>
-14.3935

>  <SCORE.INTER.norm>
-1.80817

>  <SCORE.INTRA>
0

>  <SCORE.INTRA.DIHEDRAL>
0

>  <SCORE.INTRA.DIHEDRAL.0>
0

>  <SCORE.INTRA.POLAR>
0

>  <SCORE.INTRA.POLAR.0>
0

>  <SCORE.INTRA.REPUL>
0

>  <SCORE.INTRA.REPUL.0>
0

>  <SCORE.INTRA.SOLV>
0

>  <SCORE.INTRA.SOLV.lig_0>
-12.9184

>  <SCORE.INTRA.VDW>
0

>  <SCORE.INTRA.VDW.0>
0

>  <SCORE.INTRA.norm>
0

>  <SCORE.RESTR>
0

>  <SCORE.RESTR.CAVITY>
0

>  <SCORE.RESTR.norm>
0

>  <SCORE.SYSTEM>
0

>  <SCORE.SYSTEM.CONST>
0

>  <SCORE.SYSTEM.DIHEDRAL>
0

>  <SCORE.SYSTEM.SOLV>
0

>  <SCORE.SYSTEM.norm>
0

>  <SCORE.heavy>
13

>  <SCORE.norm>
-1.80817

>  <RMSD>
1.074

$$$$
1o15_lig
 OpenBabel11021811403D
libRbt.so/2013.1/901 2013/11/27
 13 14  0  0  0  0  0  0  0  0999 V2000
    9.0370    0.8735   37.2430 C   0  0  0  0  0  0  0  0  0  0  0  0
    8.9140    2.2310   37.0441 N   0  0  0  0  0  0  0  0  0  0  0  0
    9.6009    3.0567   37.8766 C   0  0  0  0  0  0  0  0  0  0  0  0
   10.2735    2.5062   38.7446 O   0  0  0  0  0  0  0  0  0  0  0  0
   10.2876    5.2358   38.6693 C   0  0  0  0  0  0  0  0  0  0  0  0
    9.5826    4.4220   37.8085 N   0  0  0  0  0  0  0  0  0  0  0  0
    8.7973    4.8940   36.8027 C   0  0  0  0  0  0  0  0  0  0  0  0
    8.1143    4.0542   35.9717 C   0  0  0  0  0  0  0  0  0  0  0  0
    8.1254    2.6482   36.0330 C   0  0  0  0  0  0  0  0  0  0  0  0
    7.5373    1.8390   35.3202 O   0  0  0  0  0  0  0  0  0  0  0  0
    7.4310    4.8737   35.0848 N   0  0  0  0  0  0  0  0  0  0  0  0
    7.7460    6.1450   35.4368 C   0  0  0  0  0  0  0  0  0  0  0  0
    8.5575    6.2197   36.4570 N   0  0  0  0  0  0  0  0  0  0  0  0
  1  2  1  0  0  0  0
  2  3  1  0  0  0  0
  2  9  1  0  0  0  0
  3  4  2  0  0  0  0
  3  6  1  0  0  0  0
  6  5  1  0  0  0  0
  6  7  1  0  0  0  0
  7  8  2  0  0  0  0
  7 13  1  0  0  0  0
  8  9  1  0  0  0  0
  8 11  1  0  0  0  0
  9 10  2  0  0  0  0
 11 12  1  0  0  0  0
 12 13  2  0  0  0  0
M  END
>  <CHROM.1>
8.78241702,3.72169258,36.82493897,1.05118300,0.89945470,3.10750195

>  <Name>
1o15_lig

>  <RI>
0

>  <Rbt.Current_Directory>
/home/itssahil/PROJECTS/Mol_Feturizer/New_Systems/rnas/1o15

>  <Rbt.Executable>
rbdock ($Id: //depot/dev/client3/rdock/2013.1/src/exe/rbdock.cxx#4 $)

>  <Rbt.Library>
libRbt.so (2013.1, Build901 2013/11/27)

>  <Rbt.Parameter_File>
/export/apps/rDock/src/rDock_2013.1_src/data/scripts/dock_solv.prm

>  <Rbt.Receptor>
prm/pocket_docking_2.prm

>  <SCORE>
-23.5099

>  <SCORE.INTER>
-23.5099

>  <SCORE.INTER.CONST>
1

>  <SCORE.INTER.POLAR>
-2.12499

>  <SCORE.INTER.ROT>
0

>  <SCORE.INTER.SOLV>
6.64791

>  <SCORE.INTER.VDW>
-14.4059

>  <SCORE.INTER.norm>
-1.80846

>  <SCORE.INTRA>
0

>  <SCORE.INTRA.DIHEDRAL>
0

>  <SCORE.INTRA.DIHEDRAL.0>
0

>  <SCORE.INTRA.POLAR>
0

>  <SCORE.INTRA.POLAR.0>
0

>  <SCORE.INTRA.REPUL>
0

>  <SCORE.INTRA.REPUL.0>
0

>  <SCORE.INTRA.SOLV>
0

>  <SCORE.INTRA.SOLV.lig_0>
-12.9184

>  <SCORE.INTRA.VDW>
0

>  <SCORE.INTRA.VDW.0>
0

>  <SCORE.INTRA.norm>
0

>  <SCORE.RESTR>
0

>  <SCORE.RESTR.CAVITY>
0

>  <SCORE.RESTR.norm>
0

>  <SCORE.SYSTEM>
0

>  <SCORE.SYSTEM.CONST>
0

>  <SCORE.SYSTEM.DIHEDRAL>
0

>  <SCORE.SYSTEM.SOLV>
0

>  <SCORE.SYSTEM.norm>
0

>  <SCORE.heavy>
13

>  <SCORE.norm>
-1.80846

>  <RMSD>
1.074

$$$$
1o15_lig
 OpenBabel11021811403D
libRbt.so/2013.1/901 2013/11/27
 13 14  0  0  0  0  0  0  0  0999 V2000
    9.9272    1.0191   36.6878 C   0  0  0  0  0  0  0  0  0  0  0  0
    9.5693    2.3481   36.6327 N   0  0  0  0  0  0  0  0  0  0  0  0
   10.1871    3.2052   37.4874 C   0  0  0  0  0  0  0  0  0  0  0  0
   11.0159    2.7053   38.2438 O   0  0  0  0  0  0  0  0  0  0  0  0
   10.5827    5.3947   38.4351 C   0  0  0  0  0  0  0  0  0  0  0  0
    9.9427    4.5485   37.5549 N   0  0  0  0  0  0  0  0  0  0  0  0
    9.0032    4.9638   36.6627 C   0  0  0  0  0  0  0  0  0  0  0  0
    8.3917    4.0935   35.8077 C   0  0  0  0  0  0  0  0  0  0  0  0
    8.6349    2.7095   35.7301 C   0  0  0  0  0  0  0  0  0  0  0  0
    8.1225    1.8753   34.9883 O   0  0  0  0  0  0  0  0  0  0  0  0
    7.5072    4.8572   35.0598 N   0  0  0  0  0  0  0  0  0  0  0  0
    7.6438    6.1294   35.5097 C   0  0  0  0  0  0  0  0  0  0  0  0
    8.5222    6.2542   36.4676 N   0  0  0  0  0  0  0  0  0  0  0  0
  1  2  1  0  0  0  0
  2  3  1  0  0  0  0
  2  9  1  0  0  0  0
  3  4  2  0  0  0  0
  3  6  1  0  0  0  0
  6  5  1  0  0  0  0
  6  7  1  0  0  0  0
  7  8  2  0  0  0  0
  7 13  1  0  0  0  0
  8  9  1  0  0  0  0
  8 11  1  0  0  0  0
  9 10  2  0  0  0  0
 11 12  1  0  0  0  0
 12 13  2  0  0  0  0
M  END
>  <CHROM.1>
9.17963025,3.80820467,36.57114050,0.81356038,0.79832692,-2.90491721

>  <Name>
1o15_lig

>  <RI>
0

>  <Rbt.Current_Directory>
/home/itssahil/PROJECTS/Mol_Feturizer/New_Systems/rnas/1o15

>  <Rbt.Executable>
rbdock ($Id: //depot/dev/client3/rdock/2013.1/src/exe/rbdock.cxx#4 $)

>  <Rbt.Library>
libRbt.so (2013.1, Build901 2013/11/27)

>  <Rbt.Parameter_File>
/export/apps/rDock/src/rDock_2013.1_src/data/scripts/dock_solv.prm

>  <Rbt.Receptor>
prm/pocket_docking_2.prm

>  <SCORE>
-22.7613

>  <SCORE.INTER>
-22.7613

>  <SCORE.INTER.CONST>
1

>  <SCORE.INTER.POLAR>
-2.10545

>  <SCORE.INTER.ROT>
0

>  <SCORE.INTER.SOLV>
5.50481

>  <SCORE.INTER.VDW>
-13.591

>  <SCORE.INTER.norm>
-1.75087

>  <SCORE.INTRA>
0

>  <SCORE.INTRA.DIHEDRAL>
0

>  <SCORE.INTRA.DIHEDRAL.0>
0

>  <SCORE.INTRA.POLAR>
0

>  <SCORE.INTRA.POLAR.0>
0

>  <SCORE.INTRA.REPUL>
0

>  <SCORE.INTRA.REPUL.0>
0

>  <SCORE.INTRA.SOLV>
0

>  <SCORE.INTRA.SOLV.lig_0>
-12.9184

>  <SCORE.INTRA.VDW>
0

>  <SCORE.INTRA.VDW.0>
0

>  <SCORE.INTRA.norm>
0

>  <SCORE.RESTR>
0

>  <SCORE.RESTR.CAVITY>
0

>  <SCORE.RESTR.norm>
0

>  <SCORE.SYSTEM>
0

>  <SCORE.SYSTEM.CONST>
0

>  <SCORE.SYSTEM.DIHEDRAL>
0

>  <SCORE.SYSTEM.SOLV>
0

>  <SCORE.SYSTEM.norm>
0

>  <SCORE.heavy>
13

>  <SCORE.norm>
-1.75087

>  <RMSD>
1.075

$$$$
1o15_lig
 OpenBabel11021811403D
libRbt.so/2013.1/901 2013/11/27
 13 14  0  0  0  0  0  0  0  0999 V2000
    9.0416    0.8768   37.2398 C   0  0  0  0  0  0  0  0  0  0  0  0
    8.9162    2.2343   37.0421 N   0  0  0  0  0  0  0  0  0  0  0  0
    9.6012    3.0605   37.8757 C   0  0  0  0  0  0  0  0  0  0  0  0
   10.2743    2.5105   38.7436 O   0  0  0  0  0  0  0  0  0  0  0  0
   10.2834    5.2402   38.6707 C   0  0  0  0  0  0  0  0  0  0  0  0
    9.5803    4.4258   37.8088 N   0  0  0  0  0  0  0  0  0  0  0  0
    8.7947    4.8972   36.8030 C   0  0  0  0  0  0  0  0  0  0  0  0
    8.1137    4.0569   35.9708 C   0  0  0  0  0  0  0  0  0  0  0  0
    8.1274    2.6509   36.0309 C   0  0  0  0  0  0  0  0  0  0  0  0
    7.5411    1.8412   35.3171 O   0  0  0  0  0  0  0  0  0  0  0  0
    7.4294    4.8759   35.0843 N   0  0  0  0  0  0  0  0  0  0  0  0
    7.7418    6.1475   35.4376 C   0  0  0  0  0  0  0  0  0  0  0  0
    8.5526    6.2228   36.4583 N   0  0  0  0  0  0  0  0  0  0  0  0
  1  2  1  0  0  0  0
  2  3  1  0  0  0  0
  2  9  1  0  0  0  0
  3  4  2  0  0  0  0
  3  6  1  0  0  0  0
  6  5  1  0  0  0  0
  6  7  1  0  0  0  0
  7  8  2  0  0  0  0
  7 13  1  0  0  0  0
  8  9  1  0  0  0  0
  8 11  1  0  0  0  0
  9 10  2  0  0  0  0
 11 12  1  0  0  0  0
 12 13  2  0  0  0  0
M  END
>  <CHROM.1>
8.78197772,3.72488764,36.82416354,1.04824050,0.90005080,3.11068554

>  <Name>
1o15_lig

>  <RI>
0

>  <Rbt.Current_Directory>
/home/itssahil/PROJECTS/Mol_Feturizer/New_Systems/rnas/1o15

>  <Rbt.Executable>
rbdock ($Id: //depot/dev/client3/rdock/2013.1/src/exe/rbdock.cxx#4 $)

>  <Rbt.Library>
libRbt.so (2013.1, Build901 2013/11/27)

>  <Rbt.Parameter_File>
/export/apps/rDock/src/rDock_2013.1_src/data/scripts/dock_solv.prm

>  <Rbt.Receptor>
prm/pocket_docking_2.prm

>  <SCORE>
-23.5064

>  <SCORE.INTER>
-23.5064

>  <SCORE.INTER.CONST>
1

>  <SCORE.INTER.POLAR>
-2.12512

>  <SCORE.INTER.ROT>
0

>  <SCORE.INTER.SOLV>
6.65242

>  <SCORE.INTER.VDW>
-14.4047

>  <SCORE.INTER.norm>
-1.80818

>  <SCORE.INTRA>
0

>  <SCORE.INTRA.DIHEDRAL>
0

>  <SCORE.INTRA.DIHEDRAL.0>
0

>  <SCORE.INTRA.POLAR>
0

>  <SCORE.INTRA.POLAR.0>
0

>  <SCORE.INTRA.REPUL>
0

>  <SCORE.INTRA.REPUL.0>
0

>  <SCORE.INTRA.SOLV>
0

>  <SCORE.INTRA.SOLV.lig_0>
-12.9184

>  <SCORE.INTRA.VDW>
0

>  <SCORE.INTRA.VDW.0>
0

>  <SCORE.INTRA.norm>
0

>  <SCORE.RESTR>
0

>  <SCORE.RESTR.CAVITY>
0

>  <SCORE.RESTR.norm>
0

>  <SCORE.SYSTEM>
0

>  <SCORE.SYSTEM.CONST>
0

>  <SCORE.SYSTEM.DIHEDRAL>
0

>  <SCORE.SYSTEM.SOLV>
0

>  <SCORE.SYSTEM.norm>
0

>  <SCORE.heavy>
13

>  <SCORE.norm>
-1.80818

>  <RMSD>
1.076

$$$$
1o15_lig
 OpenBabel11021811403D
libRbt.so/2013.1/901 2013/11/27
 13 14  0  0  0  0  0  0  0  0999 V2000
    9.0426    0.8778   37.2443 C   0  0  0  0  0  0  0  0  0  0  0  0
    8.9169    2.2350   37.0451 N   0  0  0  0  0  0  0  0  0  0  0  0
    9.6017    3.0624   37.8777 C   0  0  0  0  0  0  0  0  0  0  0  0
   10.2750    2.5134   38.7462 O   0  0  0  0  0  0  0  0  0  0  0  0
   10.2835    5.2431   38.6702 C   0  0  0  0  0  0  0  0  0  0  0  0
    9.5805    4.4275   37.8093 N   0  0  0  0  0  0  0  0  0  0  0  0
    8.7947    4.8977   36.8031 C   0  0  0  0  0  0  0  0  0  0  0  0
    8.1139    4.0563   35.9719 C   0  0  0  0  0  0  0  0  0  0  0  0
    8.1279    2.6504   36.0335 C   0  0  0  0  0  0  0  0  0  0  0  0
    7.5417    1.8397   35.3206 O   0  0  0  0  0  0  0  0  0  0  0  0
    7.4293    4.8741   35.0844 N   0  0  0  0  0  0  0  0  0  0  0  0
    7.7414    6.1462   35.4364 C   0  0  0  0  0  0  0  0  0  0  0  0
    8.5523    6.2228   36.4569 N   0  0  0  0  0  0  0  0  0  0  0  0
  1  2  1  0  0  0  0
  2  3  1  0  0  0  0
  2  9  1  0  0  0  0
  3  4  2  0  0  0  0
  3  6  1  0  0  0  0
  6  5  1  0  0  0  0
  6  7  1  0  0  0  0
  7  8  2  0  0  0  0
  7 13  1  0  0  0  0
  8  9  1  0  0  0  0
  8 11  1  0  0  0  0
  9 10  2  0  0  0  0
 11 12  1  0  0  0  0
 12 13  2  0  0  0  0
M  END
>  <CHROM.1>
8.78227402,3.72536922,36.82552441,1.04785924,0.89998400,3.10986835

>  <Name>
1o15_lig

>  <RI>
0

>  <Rbt.Current_Directory>
/home/itssahil/PROJECTS/Mol_Feturizer/New_Systems/rnas/1o15

>  <Rbt.Executable>
rbdock ($Id: //depot/dev/client3/rdock/2013.1/src/exe/rbdock.cxx#4 $)

>  <Rbt.Library>
libRbt.so (2013.1, Build901 2013/11/27)

>  <Rbt.Parameter_File>
/export/apps/rDock/src/rDock_2013.1_src/data/scripts/dock_solv.prm

>  <Rbt.Receptor>
prm/pocket_docking_3.prm

>  <SCORE>
-23.5103

>  <SCORE.INTER>
-23.5103

>  <SCORE.INTER.CONST>
1

>  <SCORE.INTER.POLAR>
-2.12531

>  <SCORE.INTER.ROT>
0

>  <SCORE.INTER.SOLV>
6.65405

>  <SCORE.INTER.VDW>
-14.4072

>  <SCORE.INTER.norm>
-1.80848

>  <SCORE.INTRA>
0

>  <SCORE.INTRA.DIHEDRAL>
0

>  <SCORE.INTRA.DIHEDRAL.0>
0

>  <SCORE.INTRA.POLAR>
0

>  <SCORE.INTRA.POLAR.0>
0

>  <SCORE.INTRA.REPUL>
0

>  <SCORE.INTRA.REPUL.0>
0

>  <SCORE.INTRA.SOLV>
0

>  <SCORE.INTRA.SOLV.lig_0>
-12.9184

>  <SCORE.INTRA.VDW>
0

>  <SCORE.INTRA.VDW.0>
0

>  <SCORE.INTRA.norm>
0

>  <SCORE.RESTR>
0

>  <SCORE.RESTR.CAVITY>
0

>  <SCORE.RESTR.norm>
0

>  <SCORE.SYSTEM>
0

>  <SCORE.SYSTEM.CONST>
0

>  <SCORE.SYSTEM.DIHEDRAL>
0

>  <SCORE.SYSTEM.SOLV>
0

>  <SCORE.SYSTEM.norm>
0

>  <SCORE.heavy>
13

>  <SCORE.norm>
-1.80848

>  <RMSD>
1.076

$$$$
1o15_lig
 OpenBabel11021811403D
libRbt.so/2013.1/901 2013/11/27
 13 14  0  0  0  0  0  0  0  0999 V2000
    9.0555    0.8832   37.2394 C   0  0  0  0  0  0  0  0  0  0  0  0
    8.9249    2.2400   37.0409 N   0  0  0  0  0  0  0  0  0  0  0  0
    9.6086    3.0694   37.8724 C   0  0  0  0  0  0  0  0  0  0  0  0
   10.2854    2.5224   38.7393 O   0  0  0  0  0  0  0  0  0  0  0  0
   10.2847    5.2521   38.6641 C   0  0  0  0  0  0  0  0  0  0  0  0
    9.5828    4.4345   37.8044 N   0  0  0  0  0  0  0  0  0  0  0  0
    8.7935    4.9023   36.7998 C   0  0  0  0  0  0  0  0  0  0  0  0
    8.1137    4.0589   35.9697 C   0  0  0  0  0  0  0  0  0  0  0  0
    8.1325    2.6530   36.0309 C   0  0  0  0  0  0  0  0  0  0  0  0
    7.5477    1.8407   35.3190 O   0  0  0  0  0  0  0  0  0  0  0  0
    7.4247    4.8747   35.0839 N   0  0  0  0  0  0  0  0  0  0  0  0
    7.7333    6.1478   35.4355 C   0  0  0  0  0  0  0  0  0  0  0  0
    8.5460    6.2267   36.4545 N   0  0  0  0  0  0  0  0  0  0  0  0
  1  2  1  0  0  0  0
  2  3  1  0  0  0  0
  2  9  1  0  0  0  0
  3  4  2  0  0  0  0
  3  6  1  0  0  0  0
  6  5  1  0  0  0  0
  6  7  1  0  0  0  0
  7  8  2  0  0  0  0
  7 13  1  0  0  0  0
  8  9  1  0  0  0  0
  8 11  1  0  0  0  0
  9 10  2  0  0  0  0
 11 12  1  0  0  0  0
 12 13  2  0  0  0  0
M  END
>  <CHROM.1>
8.78491916,3.72996709,36.82195704,1.04245068,0.89810985,3.11438444

>  <Name>
1o15_lig

>  <RI>
0

>  <Rbt.Current_Directory>
/home/itssahil/PROJECTS/Mol_Feturizer/New_Systems/rnas/1o15

>  <Rbt.Executable>
rbdock ($Id: //depot/dev/client3/rdock/2013.1/src/exe/rbdock.cxx#4 $)

>  <Rbt.Library>
libRbt.so (2013.1, Build901 2013/11/27)

>  <Rbt.Parameter_File>
/export/apps/rDock/src/rDock_2013.1_src/data/scripts/dock_solv.prm

>  <Rbt.Receptor>
prm/pocket_docking_2.prm

>  <SCORE>
-23.536

>  <SCORE.INTER>
-23.536

>  <SCORE.INTER.CONST>
1

>  <SCORE.INTER.POLAR>
-2.12479

>  <SCORE.INTER.ROT>
0

>  <SCORE.INTER.SOLV>
6.64525

>  <SCORE.INTER.VDW>
-14.4232

>  <SCORE.INTER.norm>
-1.81046

>  <SCORE.INTRA>
0

>  <SCORE.INTRA.DIHEDRAL>
0

>  <SCORE.INTRA.DIHEDRAL.0>
0

>  <SCORE.INTRA.POLAR>
0

>  <SCORE.INTRA.POLAR.0>
0

>  <SCORE.INTRA.REPUL>
0

>  <SCORE.INTRA.REPUL.0>
0

>  <SCORE.INTRA.SOLV>
0

>  <SCORE.INTRA.SOLV.lig_0>
-12.9184

>  <SCORE.INTRA.VDW>
0

>  <SCORE.INTRA.VDW.0>
0

>  <SCORE.INTRA.norm>
0

>  <SCORE.RESTR>
0

>  <SCORE.RESTR.CAVITY>
0

>  <SCORE.RESTR.norm>
0

>  <SCORE.SYSTEM>
0

>  <SCORE.SYSTEM.CONST>
0

>  <SCORE.SYSTEM.DIHEDRAL>
0

>  <SCORE.SYSTEM.SOLV>
0

>  <SCORE.SYSTEM.norm>
0

>  <SCORE.heavy>
13

>  <SCORE.norm>
-1.81046

>  <RMSD>
1.077

$$$$
1o15_lig
 OpenBabel11021811403D
libRbt.so/2013.1/901 2013/11/27
 13 14  0  0  0  0  0  0  0  0999 V2000
    9.0533    0.8835   37.2438 C   0  0  0  0  0  0  0  0  0  0  0  0
    8.9232    2.2402   37.0441 N   0  0  0  0  0  0  0  0  0  0  0  0
    9.6068    3.0700   37.8753 C   0  0  0  0  0  0  0  0  0  0  0  0
   10.2830    2.5235   38.7430 O   0  0  0  0  0  0  0  0  0  0  0  0
   10.2832    5.2531   38.6657 C   0  0  0  0  0  0  0  0  0  0  0  0
    9.5815    4.4351   37.8063 N   0  0  0  0  0  0  0  0  0  0  0  0
    8.7928    4.9024   36.8009 C   0  0  0  0  0  0  0  0  0  0  0  0
    8.1132    4.0585   35.9712 C   0  0  0  0  0  0  0  0  0  0  0  0
    8.1315    2.6527   36.0335 C   0  0  0  0  0  0  0  0  0  0  0  0
    7.5467    1.8400   35.3218 O   0  0  0  0  0  0  0  0  0  0  0  0
    7.4248    4.8739   35.0844 N   0  0  0  0  0  0  0  0  0  0  0  0
    7.7337    6.1471   35.4352 C   0  0  0  0  0  0  0  0  0  0  0  0
    8.5458    6.2266   36.4544 N   0  0  0  0  0  0  0  0  0  0  0  0
  1  2  1  0  0  0  0
  2  3  1  0  0  0  0
  2  9  1  0  0  0  0
  3  4  2  0  0  0  0
  3  6  1  0  0  0  0
  6  5  1  0  0  0  0
  6  7  1  0  0  0  0
  7  8  2  0  0  0  0
  7 13  1  0  0  0  0
  8  9  1  0  0  0  0
  8 11  1  0  0  0  0
  9 10  2  0  0  0  0
 11 12  1  0  0  0  0
 12 13  2  0  0  0  0
M  END
>  <CHROM.1>
8.78384504,3.73004078,36.82397668,1.04297249,0.89859082,3.11321243

>  <Name>
1o15_lig

>  <RI>
0

>  <Rbt.Current_Directory>
/home/itssahil/PROJECTS/Mol_Feturizer/New_Systems/rnas/1o15

>  <Rbt.Executable>
rbdock ($Id: //depot/dev/client3/rdock/2013.1/src/exe/rbdock.cxx#4 $)

>  <Rbt.Library>
libRbt.so (2013.1, Build901 2013/11/27)

>  <Rbt.Parameter_File>
/export/apps/rDock/src/rDock_2013.1_src/data/scripts/dock_solv.prm

>  <Rbt.Receptor>
prm/pocket_docking_5.prm

>  <SCORE>
-23.5407

>  <SCORE.INTER>
-23.5407

>  <SCORE.INTER.CONST>
1

>  <SCORE.INTER.POLAR>
-2.12412

>  <SCORE.INTER.ROT>
0

>  <SCORE.INTER.SOLV>
6.6526

>  <SCORE.INTER.VDW>
-14.4309

>  <SCORE.INTER.norm>
-1.81082

>  <SCORE.INTRA>
0

>  <SCORE.INTRA.DIHEDRAL>
0

>  <SCORE.INTRA.DIHEDRAL.0>
0

>  <SCORE.INTRA.POLAR>
0

>  <SCORE.INTRA.POLAR.0>
0

>  <SCORE.INTRA.REPUL>
0

>  <SCORE.INTRA.REPUL.0>
0

>  <SCORE.INTRA.SOLV>
0

>  <SCORE.INTRA.SOLV.lig_0>
-12.9184

>  <SCORE.INTRA.VDW>
0

>  <SCORE.INTRA.VDW.0>
0

>  <SCORE.INTRA.norm>
0

>  <SCORE.RESTR>
0

>  <SCORE.RESTR.CAVITY>
0

>  <SCORE.RESTR.norm>
0

>  <SCORE.SYSTEM>
0

>  <SCORE.SYSTEM.CONST>
0

>  <SCORE.SYSTEM.DIHEDRAL>
0

>  <SCORE.SYSTEM.SOLV>
0

>  <SCORE.SYSTEM.norm>
0

>  <SCORE.heavy>
13

>  <SCORE.norm>
-1.81082

>  <RMSD>
1.077

$$$$
1o15_lig
 OpenBabel11021811403D
libRbt.so/2013.1/901 2013/11/27
 13 14  0  0  0  0  0  0  0  0999 V2000
    9.0495    0.8835   37.2460 C   0  0  0  0  0  0  0  0  0  0  0  0
    8.9205    2.2402   37.0457 N   0  0  0  0  0  0  0  0  0  0  0  0
    9.6044    3.0699   37.8767 C   0  0  0  0  0  0  0  0  0  0  0  0
   10.2799    2.5233   38.7449 O   0  0  0  0  0  0  0  0  0  0  0  0
   10.2821    5.2529   38.6665 C   0  0  0  0  0  0  0  0  0  0  0  0
    9.5800    4.4349   37.8071 N   0  0  0  0  0  0  0  0  0  0  0  0
    8.7919    4.9024   36.8013 C   0  0  0  0  0  0  0  0  0  0  0  0
    8.1120    4.0586   35.9717 C   0  0  0  0  0  0  0  0  0  0  0  0
    8.1294    2.6528   36.0346 C   0  0  0  0  0  0  0  0  0  0  0  0
    7.5442    1.8402   35.3231 O   0  0  0  0  0  0  0  0  0  0  0  0
    7.4245    4.8741   35.0843 N   0  0  0  0  0  0  0  0  0  0  0  0
    7.7341    6.1472   35.4348 C   0  0  0  0  0  0  0  0  0  0  0  0
    8.5460    6.2266   36.4542 N   0  0  0  0  0  0  0  0  0  0  0  0
  1  2  1  0  0  0  0
  2  3  1  0  0  0  0
  2  9  1  0  0  0  0
  3  4  2  0  0  0  0
  3  6  1  0  0  0  0
  6  5  1  0  0  0  0
  6  7  1  0  0  0  0
  7  8  2  0  0  0  0
  7 13  1  0  0  0  0
  8  9  1  0  0  0  0
  8 11  1  0  0  0  0
  9 10  2  0  0  0  0
 11 12  1  0  0  0  0
 12 13  2  0  0  0  0
M  END
>  <CHROM.1>
8.78219570,3.73003397,36.82487877,1.04410802,0.89888538,3.11190134

>  <Name>
1o15_lig

>  <RI>
0

>  <Rbt.Current_Directory>
/home/itssahil/PROJECTS/Mol_Feturizer/New_Systems/rnas/1o15

>  <Rbt.Executable>
rbdock ($Id: //depot/dev/client3/rdock/2013.1/src/exe/rbdock.cxx#4 $)

>  <Rbt.Library>
libRbt.so (2013.1, Build901 2013/11/27)

>  <Rbt.Parameter_File>
/export/apps/rDock/src/rDock_2013.1_src/data/scripts/dock_solv.prm

>  <Rbt.Receptor>
prm/pocket_docking_2.prm

>  <SCORE>
-23.544

>  <SCORE.INTER>
-23.544

>  <SCORE.INTER.CONST>
1

>  <SCORE.INTER.POLAR>
-2.12441

>  <SCORE.INTER.ROT>
0

>  <SCORE.INTER.SOLV>
6.66119

>  <SCORE.INTER.VDW>
-14.435

>  <SCORE.INTER.norm>
-1.81108

>  <SCORE.INTRA>
0

>  <SCORE.INTRA.DIHEDRAL>
0

>  <SCORE.INTRA.DIHEDRAL.0>
0

>  <SCORE.INTRA.POLAR>
0

>  <SCORE.INTRA.POLAR.0>
0

>  <SCORE.INTRA.REPUL>
0

>  <SCORE.INTRA.REPUL.0>
0

>  <SCORE.INTRA.SOLV>
0

>  <SCORE.INTRA.SOLV.lig_0>
-12.9184

>  <SCORE.INTRA.VDW>
0

>  <SCORE.INTRA.VDW.0>
0

>  <SCORE.INTRA.norm>
0

>  <SCORE.RESTR>
0

>  <SCORE.RESTR.CAVITY>
0

>  <SCORE.RESTR.norm>
0

>  <SCORE.SYSTEM>
0

>  <SCORE.SYSTEM.CONST>
0

>  <SCORE.SYSTEM.DIHEDRAL>
0

>  <SCORE.SYSTEM.SOLV>
0

>  <SCORE.SYSTEM.norm>
0

>  <SCORE.heavy>
13

>  <SCORE.norm>
-1.81108

>  <RMSD>
1.078

$$$$
1o15_lig
 OpenBabel11021811403D
libRbt.so/2013.1/901 2013/11/27
 13 14  0  0  0  0  0  0  0  0999 V2000
    9.0414    0.8789   37.2399 C   0  0  0  0  0  0  0  0  0  0  0  0
    8.9154    2.2362   37.0412 N   0  0  0  0  0  0  0  0  0  0  0  0
    9.6019    3.0633   37.8726 C   0  0  0  0  0  0  0  0  0  0  0  0
   10.2767    2.5142   38.7397 O   0  0  0  0  0  0  0  0  0  0  0  0
   10.2853    5.2438   38.6642 C   0  0  0  0  0  0  0  0  0  0  0  0
    9.5807    4.4285   37.8045 N   0  0  0  0  0  0  0  0  0  0  0  0
    8.7931    4.8989   36.7998 C   0  0  0  0  0  0  0  0  0  0  0  0
    8.1106    4.0576   35.9697 C   0  0  0  0  0  0  0  0  0  0  0  0
    8.1246    2.6517   36.0311 C   0  0  0  0  0  0  0  0  0  0  0  0
    7.5370    1.8413   35.3192 O   0  0  0  0  0  0  0  0  0  0  0  0
    7.4244    4.8757   35.0837 N   0  0  0  0  0  0  0  0  0  0  0  0
    7.7373    6.1477   35.4353 C   0  0  0  0  0  0  0  0  0  0  0  0
    8.5501    6.2241   36.4543 N   0  0  0  0  0  0  0  0  0  0  0  0
  1  2  1  0  0  0  0
  2  3  1  0  0  0  0
  2  9  1  0  0  0  0
  3  4  2  0  0  0  0
  3  6  1  0  0  0  0
  6  5  1  0  0  0  0
  6  7  1  0  0  0  0
  7  8  2  0  0  0  0
  7 13  1  0  0  0  0
  8  9  1  0  0  0  0
  8 11  1  0  0  0  0
  9 10  2  0  0  0  0
 11 12  1  0  0  0  0
 12 13  2  0  0  0  0
M  END
>  <CHROM.1>
8.78053991,3.72655988,36.82208038,1.04790365,0.89811460,3.11000488

>  <Name>
1o15_lig

>  <RI>
0

>  <Rbt.Current_Directory>
/home/itssahil/PROJECTS/Mol_Feturizer/New_Systems/rnas/1o15

>  <Rbt.Executable>
rbdock ($Id: //depot/dev/client3/rdock/2013.1/src/exe/rbdock.cxx#4 $)

>  <Rbt.Library>
libRbt.so (2013.1, Build901 2013/11/27)

>  <Rbt.Parameter_File>
/export/apps/rDock/src/rDock_2013.1_src/data/scripts/dock_solv.prm

>  <Rbt.Receptor>
prm/pocket_docking_2.prm

>  <SCORE>
-23.5443

>  <SCORE.INTER>
-23.5443

>  <SCORE.INTER.CONST>
1

>  <SCORE.INTER.POLAR>
-2.12629

>  <SCORE.INTER.ROT>
0

>  <SCORE.INTER.SOLV>
6.66083

>  <SCORE.INTER.VDW>
-14.4288

>  <SCORE.INTER.norm>
-1.8111

>  <SCORE.INTRA>
0

>  <SCORE.INTRA.DIHEDRAL>
0

>  <SCORE.INTRA.DIHEDRAL.0>
0

>  <SCORE.INTRA.POLAR>
0

>  <SCORE.INTRA.POLAR.0>
0

>  <SCORE.INTRA.REPUL>
0

>  <SCORE.INTRA.REPUL.0>
0

>  <SCORE.INTRA.SOLV>
0

>  <SCORE.INTRA.SOLV.lig_0>
-12.9184

>  <SCORE.INTRA.VDW>
0

>  <SCORE.INTRA.VDW.0>
0

>  <SCORE.INTRA.norm>
0

>  <SCORE.RESTR>
0

>  <SCORE.RESTR.CAVITY>
0

>  <SCORE.RESTR.norm>
0

>  <SCORE.SYSTEM>
0

>  <SCORE.SYSTEM.CONST>
0

>  <SCORE.SYSTEM.DIHEDRAL>
0

>  <SCORE.SYSTEM.SOLV>
0

>  <SCORE.SYSTEM.norm>
0

>  <SCORE.heavy>
13

>  <SCORE.norm>
-1.8111

>  <RMSD>
1.078

$$$$
1o15_lig
 OpenBabel11021811403D
libRbt.so/2013.1/901 2013/11/27
 13 14  0  0  0  0  0  0  0  0999 V2000
    9.0400    0.8791   37.2427 C   0  0  0  0  0  0  0  0  0  0  0  0
    8.9144    2.2362   37.0433 N   0  0  0  0  0  0  0  0  0  0  0  0
    9.6006    3.0637   37.8746 C   0  0  0  0  0  0  0  0  0  0  0  0
   10.2750    2.5148   38.7423 O   0  0  0  0  0  0  0  0  0  0  0  0
   10.2840    5.2444   38.6655 C   0  0  0  0  0  0  0  0  0  0  0  0
    9.5797    4.4288   37.8058 N   0  0  0  0  0  0  0  0  0  0  0  0
    8.7926    4.8988   36.8005 C   0  0  0  0  0  0  0  0  0  0  0  0
    8.1103    4.0573   35.9705 C   0  0  0  0  0  0  0  0  0  0  0  0
    8.1241    2.6514   36.0326 C   0  0  0  0  0  0  0  0  0  0  0  0
    7.5367    1.8407   35.3208 O   0  0  0  0  0  0  0  0  0  0  0  0
    7.4247    4.8750   35.0838 N   0  0  0  0  0  0  0  0  0  0  0  0
    7.7377    6.1472   35.4349 C   0  0  0  0  0  0  0  0  0  0  0  0
    8.5500    6.2239   36.4542 N   0  0  0  0  0  0  0  0  0  0  0  0
  1  2  1  0  0  0  0
  2  3  1  0  0  0  0
  2  9  1  0  0  0  0
  3  4  2  0  0  0  0
  3  6  1  0  0  0  0
  6  5  1  0  0  0  0
  6  7  1  0  0  0  0
  7  8  2  0  0  0  0
  7 13  1  0  0  0  0
  8  9  1  0  0  0  0
  8 11  1  0  0  0  0
  9 10  2  0  0  0  0
 11 12  1  0  0  0  0
 12 13  2  0  0  0  0
M  END
>  <CHROM.1>
8.77986375,3.72651842,36.82336005,1.04818788,0.89856883,3.10928480

>  <Name>
1o15_lig

>  <RI>
0

>  <Rbt.Current_Directory>
/home/itssahil/PROJECTS/Mol_Feturizer/New_Systems/rnas/1o15

>  <Rbt.Executable>
rbdock ($Id: //depot/dev/client3/rdock/2013.1/src/exe/rbdock.cxx#4 $)

>  <Rbt.Library>
libRbt.so (2013.1, Build901 2013/11/27)

>  <Rbt.Parameter_File>
/export/apps/rDock/src/rDock_2013.1_src/data/scripts/dock_solv.prm

>  <Rbt.Receptor>
prm/pocket_docking_3.prm

>  <SCORE>
-23.5488

>  <SCORE.INTER>
-23.5488

>  <SCORE.INTER.CONST>
1

>  <SCORE.INTER.POLAR>
-2.12673

>  <SCORE.INTER.ROT>
0

>  <SCORE.INTER.SOLV>
6.66533

>  <SCORE.INTER.VDW>
-14.4319

>  <SCORE.INTER.norm>
-1.81145

>  <SCORE.INTRA>
0

>  <SCORE.INTRA.DIHEDRAL>
0

>  <SCORE.INTRA.DIHEDRAL.0>
0

>  <SCORE.INTRA.POLAR>
0

>  <SCORE.INTRA.POLAR.0>
0

>  <SCORE.INTRA.REPUL>
0

>  <SCORE.INTRA.REPUL.0>
0

>  <SCORE.INTRA.SOLV>
0

>  <SCORE.INTRA.SOLV.lig_0>
-12.9184

>  <SCORE.INTRA.VDW>
0

>  <SCORE.INTRA.VDW.0>
0

>  <SCORE.INTRA.norm>
0

>  <SCORE.RESTR>
0

>  <SCORE.RESTR.CAVITY>
0

>  <SCORE.RESTR.norm>
0

>  <SCORE.SYSTEM>
0

>  <SCORE.SYSTEM.CONST>
0

>  <SCORE.SYSTEM.DIHEDRAL>
0

>  <SCORE.SYSTEM.SOLV>
0

>  <SCORE.SYSTEM.norm>
0

>  <SCORE.heavy>
13

>  <SCORE.norm>
-1.81145

>  <RMSD>
1.078

$$$$
1o15_lig
 OpenBabel11021811403D
libRbt.so/2013.1/901 2013/11/27
 13 14  0  0  0  0  0  0  0  0999 V2000
    9.0379    0.8780   37.2402 C   0  0  0  0  0  0  0  0  0  0  0  0
    8.9129    2.2353   37.0415 N   0  0  0  0  0  0  0  0  0  0  0  0
    9.5996    3.0620   37.8732 C   0  0  0  0  0  0  0  0  0  0  0  0
   10.2739    2.5124   38.7405 O   0  0  0  0  0  0  0  0  0  0  0  0
   10.2841    5.2421   38.6651 C   0  0  0  0  0  0  0  0  0  0  0  0
    9.5793    4.4272   37.8051 N   0  0  0  0  0  0  0  0  0  0  0  0
    8.7922    4.8981   36.8002 C   0  0  0  0  0  0  0  0  0  0  0  0
    8.1094    4.0574   35.9699 C   0  0  0  0  0  0  0  0  0  0  0  0
    8.1226    2.6514   36.0312 C   0  0  0  0  0  0  0  0  0  0  0  0
    7.5347    1.8414   35.3191 O   0  0  0  0  0  0  0  0  0  0  0  0
    7.4240    4.8759   35.0838 N   0  0  0  0  0  0  0  0  0  0  0  0
    7.7376    6.1477   35.4355 C   0  0  0  0  0  0  0  0  0  0  0  0
    8.5501    6.2235   36.4547 N   0  0  0  0  0  0  0  0  0  0  0  0
  1  2  1  0  0  0  0
  2  3  1  0  0  0  0
  2  9  1  0  0  0  0
  3  4  2  0  0  0  0
  3  6  1  0  0  0  0
  6  5  1  0  0  0  0
  6  7  1  0  0  0  0
  7  8  2  0  0  0  0
  7 13  1  0  0  0  0
  8  9  1  0  0  0  0
  8 11  1  0  0  0  0
  9 10  2  0  0  0  0
 11 12  1  0  0  0  0
 12 13  2  0  0  0  0
M  END
>  <CHROM.1>
8.77894902,3.72582246,36.82245270,1.04888566,0.89838423,3.10929019

>  <Name>
1o15_lig

>  <RI>
0

>  <Rbt.Current_Directory>
/home/itssahil/PROJECTS/Mol_Feturizer/New_Systems/rnas/1o15

>  <Rbt.Executable>
rbdock ($Id: //depot/dev/client3/rdock/2013.1/src/exe/rbdock.cxx#4 $)

>  <Rbt.Library>
libRbt.so (2013.1, Build901 2013/11/27)

>  <Rbt.Parameter_File>
/export/apps/rDock/src/rDock_2013.1_src/data/scripts/dock_solv.prm

>  <Rbt.Receptor>
prm/pocket_docking_2.prm

>  <SCORE>
-23.5481

>  <SCORE.INTER>
-23.5481

>  <SCORE.INTER.CONST>
1

>  <SCORE.INTER.POLAR>
-2.12668

>  <SCORE.INTER.ROT>
0

>  <SCORE.INTER.SOLV>
6.66727

>  <SCORE.INTER.VDW>
-14.4322

>  <SCORE.INTER.norm>
-1.81139

>  <SCORE.INTRA>
0

>  <SCORE.INTRA.DIHEDRAL>
0

>  <SCORE.INTRA.DIHEDRAL.0>
0

>  <SCORE.INTRA.POLAR>
0

>  <SCORE.INTRA.POLAR.0>
0

>  <SCORE.INTRA.REPUL>
0

>  <SCORE.INTRA.REPUL.0>
0

>  <SCORE.INTRA.SOLV>
0

>  <SCORE.INTRA.SOLV.lig_0>
-12.9184

>  <SCORE.INTRA.VDW>
0

>  <SCORE.INTRA.VDW.0>
0

>  <SCORE.INTRA.norm>
0

>  <SCORE.RESTR>
0

>  <SCORE.RESTR.CAVITY>
0

>  <SCORE.RESTR.norm>
0

>  <SCORE.SYSTEM>
0

>  <SCORE.SYSTEM.CONST>
0

>  <SCORE.SYSTEM.DIHEDRAL>
0

>  <SCORE.SYSTEM.SOLV>
0

>  <SCORE.SYSTEM.norm>
0

>  <SCORE.heavy>
13

>  <SCORE.norm>
-1.81139

>  <RMSD>
1.079

$$$$
1o15_lig
 OpenBabel11021811403D
libRbt.so/2013.1/901 2013/11/27
 13 14  0  0  0  0  0  0  0  0999 V2000
    9.0550    0.8857   37.2429 C   0  0  0  0  0  0  0  0  0  0  0  0
    8.9238    2.2423   37.0435 N   0  0  0  0  0  0  0  0  0  0  0  0
    9.6067    3.0725   37.8749 C   0  0  0  0  0  0  0  0  0  0  0  0
   10.2834    2.5264   38.7425 O   0  0  0  0  0  0  0  0  0  0  0  0
   10.2812    5.2561   38.6658 C   0  0  0  0  0  0  0  0  0  0  0  0
    9.5802    4.4376   37.8061 N   0  0  0  0  0  0  0  0  0  0  0  0
    8.7911    4.9044   36.8009 C   0  0  0  0  0  0  0  0  0  0  0  0
    8.1122    4.0601   35.9709 C   0  0  0  0  0  0  0  0  0  0  0  0
    8.1317    2.6543   36.0330 C   0  0  0  0  0  0  0  0  0  0  0  0
    7.5477    1.8412   35.3212 O   0  0  0  0  0  0  0  0  0  0  0  0
    7.4232    4.8751   35.0843 N   0  0  0  0  0  0  0  0  0  0  0  0
    7.7309    6.1485   35.4354 C   0  0  0  0  0  0  0  0  0  0  0  0
    8.5430    6.2285   36.4547 N   0  0  0  0  0  0  0  0  0  0  0  0
  1  2  1  0  0  0  0
  2  3  1  0  0  0  0
  2  9  1  0  0  0  0
  3  4  2  0  0  0  0
  3  6  1  0  0  0  0
  6  5  1  0  0  0  0
  6  7  1  0  0  0  0
  7  8  2  0  0  0  0
  7 13  1  0  0  0  0
  8  9  1  0  0  0  0
  8 11  1  0  0  0  0
  9 10  2  0  0  0  0
 11 12  1  0  0  0  0
 12 13  2  0  0  0  0
M  END
>  <CHROM.1>
8.78316148,3.73206163,36.82370574,1.04160063,0.89861340,3.11448310

>  <Name>
1o15_lig

>  <RI>
0

>  <Rbt.Current_Directory>
/home/itssahil/PROJECTS/Mol_Feturizer/New_Systems/rnas/1o15

>  <Rbt.Executable>
rbdock ($Id: //depot/dev/client3/rdock/2013.1/src/exe/rbdock.cxx#4 $)

>  <Rbt.Library>
libRbt.so (2013.1, Build901 2013/11/27)

>  <Rbt.Parameter_File>
/export/apps/rDock/src/rDock_2013.1_src/data/scripts/dock_solv.prm

>  <Rbt.Receptor>
prm/pocket_docking_3.prm

>  <SCORE>
-23.5368

>  <SCORE.INTER>
-23.5368

>  <SCORE.INTER.CONST>
1

>  <SCORE.INTER.POLAR>
-2.12322

>  <SCORE.INTER.ROT>
0

>  <SCORE.INTER.SOLV>
6.6579

>  <SCORE.INTER.VDW>
-14.4331

>  <SCORE.INTER.norm>
-1.81052

>  <SCORE.INTRA>
0

>  <SCORE.INTRA.DIHEDRAL>
0

>  <SCORE.INTRA.DIHEDRAL.0>
0

>  <SCORE.INTRA.POLAR>
0

>  <SCORE.INTRA.POLAR.0>
0

>  <SCORE.INTRA.REPUL>
0

>  <SCORE.INTRA.REPUL.0>
0

>  <SCORE.INTRA.SOLV>
0

>  <SCORE.INTRA.SOLV.lig_0>
-12.9184

>  <SCORE.INTRA.VDW>
0

>  <SCORE.INTRA.VDW.0>
0

>  <SCORE.INTRA.norm>
0

>  <SCORE.RESTR>
0

>  <SCORE.RESTR.CAVITY>
0

>  <SCORE.RESTR.norm>
0

>  <SCORE.SYSTEM>
0

>  <SCORE.SYSTEM.CONST>
0

>  <SCORE.SYSTEM.DIHEDRAL>
0

>  <SCORE.SYSTEM.SOLV>
0

>  <SCORE.SYSTEM.norm>
0

>  <SCORE.heavy>
13

>  <SCORE.norm>
-1.81052

>  <RMSD>
1.079

$$$$
1o15_lig
 OpenBabel11021811403D
libRbt.so/2013.1/901 2013/11/27
 13 14  0  0  0  0  0  0  0  0999 V2000
    9.0393    0.8790   37.2425 C   0  0  0  0  0  0  0  0  0  0  0  0
    8.9137    2.2362   37.0433 N   0  0  0  0  0  0  0  0  0  0  0  0
    9.5997    3.0635   37.8750 C   0  0  0  0  0  0  0  0  0  0  0  0
   10.2738    2.5145   38.7428 O   0  0  0  0  0  0  0  0  0  0  0  0
   10.2829    5.2441   38.6665 C   0  0  0  0  0  0  0  0  0  0  0  0
    9.5788    4.4287   37.8065 N   0  0  0  0  0  0  0  0  0  0  0  0
    8.7920    4.8989   36.8010 C   0  0  0  0  0  0  0  0  0  0  0  0
    8.1100    4.0575   35.9707 C   0  0  0  0  0  0  0  0  0  0  0  0
    8.1237    2.6517   36.0325 C   0  0  0  0  0  0  0  0  0  0  0  0
    7.5365    1.8411   35.3204 O   0  0  0  0  0  0  0  0  0  0  0  0
    7.4246    4.8755   35.0839 N   0  0  0  0  0  0  0  0  0  0  0  0
    7.7375    6.1475   35.4354 C   0  0  0  0  0  0  0  0  0  0  0  0
    8.5495    6.2240   36.4549 N   0  0  0  0  0  0  0  0  0  0  0  0
  1  2  1  0  0  0  0
  2  3  1  0  0  0  0
  2  9  1  0  0  0  0
  3  4  2  0  0  0  0
  3  6  1  0  0  0  0
  6  5  1  0  0  0  0
  6  7  1  0  0  0  0
  7  8  2  0  0  0  0
  7 13  1  0  0  0  0
  8  9  1  0  0  0  0
  8 11  1  0  0  0  0
  9 10  2  0  0  0  0
 11 12  1  0  0  0  0
 12 13  2  0  0  0  0
M  END
>  <CHROM.1>
8.77925624,3.72658213,36.82364332,1.04822097,0.89886334,3.10946592

>  <Name>
1o15_lig

>  <RI>
0

>  <Rbt.Current_Directory>
/home/itssahil/PROJECTS/Mol_Feturizer/New_Systems/rnas/1o15

>  <Rbt.Executable>
rbdock ($Id: //depot/dev/client3/rdock/2013.1/src/exe/rbdock.cxx#4 $)

>  <Rbt.Library>
libRbt.so (2013.1, Build901 2013/11/27)

>  <Rbt.Parameter_File>
/export/apps/rDock/src/rDock_2013.1_src/data/scripts/dock_solv.prm

>  <Rbt.Receptor>
prm/pocket_docking_3.prm

>  <SCORE>
-23.549

>  <SCORE.INTER>
-23.549

>  <SCORE.INTER.CONST>
1

>  <SCORE.INTER.POLAR>
-2.1263

>  <SCORE.INTER.ROT>
0

>  <SCORE.INTER.SOLV>
6.66812

>  <SCORE.INTER.VDW>
-14.4344

>  <SCORE.INTER.norm>
-1.81146

>  <SCORE.INTRA>
0

>  <SCORE.INTRA.DIHEDRAL>
0

>  <SCORE.INTRA.DIHEDRAL.0>
0

>  <SCORE.INTRA.POLAR>
0

>  <SCORE.INTRA.POLAR.0>
0

>  <SCORE.INTRA.REPUL>
0

>  <SCORE.INTRA.REPUL.0>
0

>  <SCORE.INTRA.SOLV>
0

>  <SCORE.INTRA.SOLV.lig_0>
-12.9184

>  <SCORE.INTRA.VDW>
0

>  <SCORE.INTRA.VDW.0>
0

>  <SCORE.INTRA.norm>
0

>  <SCORE.RESTR>
0

>  <SCORE.RESTR.CAVITY>
0

>  <SCORE.RESTR.norm>
0

>  <SCORE.SYSTEM>
0

>  <SCORE.SYSTEM.CONST>
0

>  <SCORE.SYSTEM.DIHEDRAL>
0

>  <SCORE.SYSTEM.SOLV>
0

>  <SCORE.SYSTEM.norm>
0

>  <SCORE.heavy>
13

>  <SCORE.norm>
-1.81146

>  <RMSD>
1.079

$$$$
1o15_lig
 OpenBabel11021811403D
libRbt.so/2013.1/901 2013/11/27
 13 14  0  0  0  0  0  0  0  0999 V2000
    9.0429    0.8809   37.2412 C   0  0  0  0  0  0  0  0  0  0  0  0
    8.9160    2.2380   37.0424 N   0  0  0  0  0  0  0  0  0  0  0  0
    9.6012    3.0658   37.8742 C   0  0  0  0  0  0  0  0  0  0  0  0
   10.2761    2.5172   38.7417 O   0  0  0  0  0  0  0  0  0  0  0  0
   10.2824    5.2469   38.6662 C   0  0  0  0  0  0  0  0  0  0  0  0
    9.5790    4.4310   37.8060 N   0  0  0  0  0  0  0  0  0  0  0  0
    8.7915    4.9007   36.8008 C   0  0  0  0  0  0  0  0  0  0  0  0
    8.1102    4.0588   35.9704 C   0  0  0  0  0  0  0  0  0  0  0  0
    8.1253    2.6529   36.0318 C   0  0  0  0  0  0  0  0  0  0  0  0
    7.5389    1.8420   35.3196 O   0  0  0  0  0  0  0  0  0  0  0  0
    7.4239    4.8763   35.0840 N   0  0  0  0  0  0  0  0  0  0  0  0
    7.7355    6.1486   35.4357 C   0  0  0  0  0  0  0  0  0  0  0  0
    8.5476    6.2256   36.4551 N   0  0  0  0  0  0  0  0  0  0  0  0
  1  2  1  0  0  0  0
  2  3  1  0  0  0  0
  2  9  1  0  0  0  0
  3  4  2  0  0  0  0
  3  6  1  0  0  0  0
  6  5  1  0  0  0  0
  6  7  1  0  0  0  0
  7  8  2  0  0  0  0
  7 13  1  0  0  0  0
  8  9  1  0  0  0  0
  8 11  1  0  0  0  0
  9 10  2  0  0  0  0
 11 12  1  0  0  0  0
 12 13  2  0  0  0  0
M  END
>  <CHROM.1>
8.77995493,3.72833208,36.82316150,1.04659317,0.89871608,3.11100225

>  <Name>
1o15_lig

>  <RI>
0

>  <Rbt.Current_Directory>
/home/itssahil/PROJECTS/Mol_Feturizer/New_Systems/rnas/1o15

>  <Rbt.Executable>
rbdock ($Id: //depot/dev/client3/rdock/2013.1/src/exe/rbdock.cxx#4 $)

>  <Rbt.Library>
libRbt.so (2013.1, Build901 2013/11/27)

>  <Rbt.Parameter_File>
/export/apps/rDock/src/rDock_2013.1_src/data/scripts/dock_solv.prm

>  <Rbt.Receptor>
prm/pocket_docking_8.prm

>  <SCORE>
-23.544

>  <SCORE.INTER>
-23.544

>  <SCORE.INTER.CONST>
1

>  <SCORE.INTER.POLAR>
-2.12514

>  <SCORE.INTER.ROT>
0

>  <SCORE.INTER.SOLV>
6.66662

>  <SCORE.INTER.VDW>
-14.4344

>  <SCORE.INTER.norm>
-1.81107

>  <SCORE.INTRA>
0

>  <SCORE.INTRA.DIHEDRAL>
0

>  <SCORE.INTRA.DIHEDRAL.0>
0

>  <SCORE.INTRA.POLAR>
0

>  <SCORE.INTRA.POLAR.0>
0

>  <SCORE.INTRA.REPUL>
0

>  <SCORE.INTRA.REPUL.0>
0

>  <SCORE.INTRA.SOLV>
0

>  <SCORE.INTRA.SOLV.lig_0>
-12.9184

>  <SCORE.INTRA.VDW>
0

>  <SCORE.INTRA.VDW.0>
0

>  <SCORE.INTRA.norm>
0

>  <SCORE.RESTR>
0

>  <SCORE.RESTR.CAVITY>
0

>  <SCORE.RESTR.norm>
0

>  <SCORE.SYSTEM>
0

>  <SCORE.SYSTEM.CONST>
0

>  <SCORE.SYSTEM.DIHEDRAL>
0

>  <SCORE.SYSTEM.SOLV>
0

>  <SCORE.SYSTEM.norm>
0

>  <SCORE.heavy>
13

>  <SCORE.norm>
-1.81107

>  <RMSD>
1.079

$$$$
1o15_lig
 OpenBabel11021811403D
libRbt.so/2013.1/901 2013/11/27
 13 14  0  0  0  0  0  0  0  0999 V2000
    9.0638    0.8906   37.2341 C   0  0  0  0  0  0  0  0  0  0  0  0
    8.9288    2.2472   37.0374 N   0  0  0  0  0  0  0  0  0  0  0  0
    9.6100    3.0777   37.8699 C   0  0  0  0  0  0  0  0  0  0  0  0
   10.2888    2.5318   38.7360 O   0  0  0  0  0  0  0  0  0  0  0  0
   10.2792    5.2615   38.6645 C   0  0  0  0  0  0  0  0  0  0  0  0
    9.5797    4.4428   37.8038 N   0  0  0  0  0  0  0  0  0  0  0  0
    8.7887    4.9094   36.8000 C   0  0  0  0  0  0  0  0  0  0  0  0
    8.1115    4.0649   35.9689 C   0  0  0  0  0  0  0  0  0  0  0  0
    8.1349    2.6590   36.0282 C   0  0  0  0  0  0  0  0  0  0  0  0
    7.5525    1.8458   35.3152 O   0  0  0  0  0  0  0  0  0  0  0  0
    7.4197    4.8797   35.0843 N   0  0  0  0  0  0  0  0  0  0  0  0
    7.7242    6.1533   35.4377 C   0  0  0  0  0  0  0  0  0  0  0  0
    8.5368    6.2335   36.4565 N   0  0  0  0  0  0  0  0  0  0  0  0
  1  2  1  0  0  0  0
  2  3  1  0  0  0  0
  2  9  1  0  0  0  0
  3  4  2  0  0  0  0
  3  6  1  0  0  0  0
  6  5  1  0  0  0  0
  6  7  1  0  0  0  0
  7  8  2  0  0  0  0
  7 13  1  0  0  0  0
  8  9  1  0  0  0  0
  8 11  1  0  0  0  0
  9 10  2  0  0  0  0
 11 12  1  0  0  0  0
 12 13  2  0  0  0  0
M  END
>  <CHROM.1>
8.78394312,3.73702304,36.82056043,1.03722151,0.89799164,3.11984463

>  <Name>
1o15_lig

>  <RI>
0

>  <Rbt.Current_Directory>
/home/itssahil/PROJECTS/Mol_Feturizer/New_Systems/rnas/1o15

>  <Rbt.Executable>
rbdock ($Id: //depot/dev/client3/rdock/2013.1/src/exe/rbdock.cxx#4 $)

>  <Rbt.Library>
libRbt.so (2013.1, Build901 2013/11/27)

>  <Rbt.Parameter_File>
/export/apps/rDock/src/rDock_2013.1_src/data/scripts/dock_solv.prm

>  <Rbt.Receptor>
prm/pocket_docking_2.prm

>  <SCORE>
-23.5134

>  <SCORE.INTER>
-23.5134

>  <SCORE.INTER.CONST>
1

>  <SCORE.INTER.POLAR>
-2.11884

>  <SCORE.INTER.ROT>
0

>  <SCORE.INTER.SOLV>
6.6562

>  <SCORE.INTER.VDW>
-14.4315

>  <SCORE.INTER.norm>
-1.80872

>  <SCORE.INTRA>
0

>  <SCORE.INTRA.DIHEDRAL>
0

>  <SCORE.INTRA.DIHEDRAL.0>
0

>  <SCORE.INTRA.POLAR>
0

>  <SCORE.INTRA.POLAR.0>
0

>  <SCORE.INTRA.REPUL>
0

>  <SCORE.INTRA.REPUL.0>
0

>  <SCORE.INTRA.SOLV>
0

>  <SCORE.INTRA.SOLV.lig_0>
-12.9184

>  <SCORE.INTRA.VDW>
0

>  <SCORE.INTRA.VDW.0>
0

>  <SCORE.INTRA.norm>
0

>  <SCORE.RESTR>
0

>  <SCORE.RESTR.CAVITY>
0

>  <SCORE.RESTR.norm>
0

>  <SCORE.SYSTEM>
0

>  <SCORE.SYSTEM.CONST>
0

>  <SCORE.SYSTEM.DIHEDRAL>
0

>  <SCORE.SYSTEM.SOLV>
0

>  <SCORE.SYSTEM.norm>
0

>  <SCORE.heavy>
13

>  <SCORE.norm>
-1.80872

>  <RMSD>
1.082

$$$$
1o15_lig
 OpenBabel11021811403D
libRbt.so/2013.1/901 2013/11/27
 13 14  0  0  0  0  0  0  0  0999 V2000
    9.0258    0.8728   37.2261 C   0  0  0  0  0  0  0  0  0  0  0  0
    8.9046    2.2310   37.0317 N   0  0  0  0  0  0  0  0  0  0  0  0
    9.5945    3.0531   37.8653 C   0  0  0  0  0  0  0  0  0  0  0  0
   10.2680    2.4989   38.7303 O   0  0  0  0  0  0  0  0  0  0  0  0
   10.2862    5.2287   38.6633 C   0  0  0  0  0  0  0  0  0  0  0  0
    9.5782    4.4186   37.8015 N   0  0  0  0  0  0  0  0  0  0  0  0
    8.7916    4.8949   36.7987 C   0  0  0  0  0  0  0  0  0  0  0  0
    8.1056    4.0587   35.9665 C   0  0  0  0  0  0  0  0  0  0  0  0
    8.1146    2.6526   36.0234 C   0  0  0  0  0  0  0  0  0  0  0  0
    7.5238    1.8465   35.3094 O   0  0  0  0  0  0  0  0  0  0  0  0
    7.4218    4.8820   35.0835 N   0  0  0  0  0  0  0  0  0  0  0  0
    7.7395    6.1518   35.4388 C   0  0  0  0  0  0  0  0  0  0  0  0
    8.5532    6.2221   36.4575 N   0  0  0  0  0  0  0  0  0  0  0  0
  1  2  1  0  0  0  0
  2  3  1  0  0  0  0
  2  9  1  0  0  0  0
  3  4  2  0  0  0  0
  3  6  1  0  0  0  0
  6  5  1  0  0  0  0
  6  7  1  0  0  0  0
  7  8  2  0  0  0  0
  7 13  1  0  0  0  0
  8  9  1  0  0  0  0
  8 11  1  0  0  0  0
  9 10  2  0  0  0  0
 11 12  1  0  0  0  0
 12 13  2  0  0  0  0
M  END
>  <CHROM.1>
8.77492545,3.72259470,36.81735398,1.05358825,0.89737485,3.10869109

>  <Name>
1o15_lig

>  <RI>
0

>  <Rbt.Current_Directory>
/home/itssahil/PROJECTS/Mol_Feturizer/New_Systems/rnas/1o15

>  <Rbt.Executable>
rbdock ($Id: //depot/dev/client3/rdock/2013.1/src/exe/rbdock.cxx#4 $)

>  <Rbt.Library>
libRbt.so (2013.1, Build901 2013/11/27)

>  <Rbt.Parameter_File>
/export/apps/rDock/src/rDock_2013.1_src/data/scripts/dock_solv.prm

>  <Rbt.Receptor>
prm/pocket_docking_8.prm

>  <SCORE>
-23.535

>  <SCORE.INTER>
-23.535

>  <SCORE.INTER.CONST>
1

>  <SCORE.INTER.POLAR>
-2.12543

>  <SCORE.INTER.ROT>
0

>  <SCORE.INTER.SOLV>
6.67368

>  <SCORE.INTER.VDW>
-14.4298

>  <SCORE.INTER.norm>
-1.81038

>  <SCORE.INTRA>
0

>  <SCORE.INTRA.DIHEDRAL>
0

>  <SCORE.INTRA.DIHEDRAL.0>
0

>  <SCORE.INTRA.POLAR>
0

>  <SCORE.INTRA.POLAR.0>
0

>  <SCORE.INTRA.REPUL>
0

>  <SCORE.INTRA.REPUL.0>
0

>  <SCORE.INTRA.SOLV>
0

>  <SCORE.INTRA.SOLV.lig_0>
-12.9184

>  <SCORE.INTRA.VDW>
0

>  <SCORE.INTRA.VDW.0>
0

>  <SCORE.INTRA.norm>
0

>  <SCORE.RESTR>
0

>  <SCORE.RESTR.CAVITY>
0

>  <SCORE.RESTR.norm>
0

>  <SCORE.SYSTEM>
0

>  <SCORE.SYSTEM.CONST>
0

>  <SCORE.SYSTEM.DIHEDRAL>
0

>  <SCORE.SYSTEM.SOLV>
0

>  <SCORE.SYSTEM.norm>
0

>  <SCORE.heavy>
13

>  <SCORE.norm>
-1.81038

>  <RMSD>
1.083

$$$$
1o15_lig
 OpenBabel11021811403D
libRbt.so/2013.1/901 2013/11/27
 13 14  0  0  0  0  0  0  0  0999 V2000
    9.0641    0.8934   37.2346 C   0  0  0  0  0  0  0  0  0  0  0  0
    8.9285    2.2499   37.0374 N   0  0  0  0  0  0  0  0  0  0  0  0
    9.6097    3.0809   37.8693 C   0  0  0  0  0  0  0  0  0  0  0  0
   10.2890    2.5356   38.7353 O   0  0  0  0  0  0  0  0  0  0  0  0
   10.2783    5.2654   38.6629 C   0  0  0  0  0  0  0  0  0  0  0  0
    9.5789    4.4460   37.8027 N   0  0  0  0  0  0  0  0  0  0  0  0
    8.7872    4.9120   36.7990 C   0  0  0  0  0  0  0  0  0  0  0  0
    8.1101    4.0668   35.9685 C   0  0  0  0  0  0  0  0  0  0  0  0
    8.1340    2.6610   36.0284 C   0  0  0  0  0  0  0  0  0  0  0  0
    7.5517    1.8472   35.3160 O   0  0  0  0  0  0  0  0  0  0  0  0
    7.4175    4.8810   35.0839 N   0  0  0  0  0  0  0  0  0  0  0  0
    7.7217    6.1548   35.4367 C   0  0  0  0  0  0  0  0  0  0  0  0
    8.5347    6.2358   36.4552 N   0  0  0  0  0  0  0  0  0  0  0  0
  1  2  1  0  0  0  0
  2  3  1  0  0  0  0
  2  9  1  0  0  0  0
  3  4  2  0  0  0  0
  3  6  1  0  0  0  0
  6  5  1  0  0  0  0
  6  7  1  0  0  0  0
  7  8  2  0  0  0  0
  7 13  1  0  0  0  0
  8  9  1  0  0  0  0
  8 11  1  0  0  0  0
  9 10  2  0  0  0  0
 11 12  1  0  0  0  0
 12 13  2  0  0  0  0
M  END
>  <CHROM.1>
8.78297019,3.73954244,36.82006950,1.03657636,0.89760179,3.11995606

>  <Name>
1o15_lig

>  <RI>
0

>  <Rbt.Current_Directory>
/home/itssahil/PROJECTS/Mol_Feturizer/New_Systems/rnas/1o15

>  <Rbt.Executable>
rbdock ($Id: //depot/dev/client3/rdock/2013.1/src/exe/rbdock.cxx#4 $)

>  <Rbt.Library>
libRbt.so (2013.1, Build901 2013/11/27)

>  <Rbt.Parameter_File>
/export/apps/rDock/src/rDock_2013.1_src/data/scripts/dock_solv.prm

>  <Rbt.Receptor>
prm/pocket_docking_2.prm

>  <SCORE>
-23.5291

>  <SCORE.INTER>
-23.5291

>  <SCORE.INTER.CONST>
1

>  <SCORE.INTER.POLAR>
-2.11721

>  <SCORE.INTER.ROT>
0

>  <SCORE.INTER.SOLV>
6.66391

>  <SCORE.INTER.VDW>
-14.45

>  <SCORE.INTER.norm>
-1.80993

>  <SCORE.INTRA>
0

>  <SCORE.INTRA.DIHEDRAL>
0

>  <SCORE.INTRA.DIHEDRAL.0>
0

>  <SCORE.INTRA.POLAR>
0

>  <SCORE.INTRA.POLAR.0>
0

>  <SCORE.INTRA.REPUL>
0

>  <SCORE.INTRA.REPUL.0>
0

>  <SCORE.INTRA.SOLV>
0

>  <SCORE.INTRA.SOLV.lig_0>
-12.9184

>  <SCORE.INTRA.VDW>
0

>  <SCORE.INTRA.VDW.0>
0

>  <SCORE.INTRA.norm>
0

>  <SCORE.RESTR>
0

>  <SCORE.RESTR.CAVITY>
0

>  <SCORE.RESTR.norm>
0

>  <SCORE.SYSTEM>
0

>  <SCORE.SYSTEM.CONST>
0

>  <SCORE.SYSTEM.DIHEDRAL>
0

>  <SCORE.SYSTEM.SOLV>
0

>  <SCORE.SYSTEM.norm>
0

>  <SCORE.heavy>
13

>  <SCORE.norm>
-1.80993

>  <RMSD>
1.084

$$$$
1o15_lig
 OpenBabel11021811403D
libRbt.so/2013.1/901 2013/11/27
 13 14  0  0  0  0  0  0  0  0999 V2000
    9.0223    0.8700   37.2017 C   0  0  0  0  0  0  0  0  0  0  0  0
    8.9055    2.2292   37.0108 N   0  0  0  0  0  0  0  0  0  0  0  0
    9.6048    3.0467   37.8411 C   0  0  0  0  0  0  0  0  0  0  0  0
   10.2820    2.4878   38.7001 O   0  0  0  0  0  0  0  0  0  0  0  0
   10.3114    5.2177   38.6384 C   0  0  0  0  0  0  0  0  0  0  0  0
    9.5938    4.4123   37.7800 N   0  0  0  0  0  0  0  0  0  0  0  0
    8.8021    4.8940   36.7839 C   0  0  0  0  0  0  0  0  0  0  0  0
    8.1067    4.0623   35.9549 C   0  0  0  0  0  0  0  0  0  0  0  0
    8.1101    2.6561   36.0090 C   0  0  0  0  0  0  0  0  0  0  0  0
    7.5107    1.8539   35.2976 O   0  0  0  0  0  0  0  0  0  0  0  0
    7.4201    4.8903   35.0784 N   0  0  0  0  0  0  0  0  0  0  0  0
    7.7457    6.1580   35.4340 C   0  0  0  0  0  0  0  0  0  0  0  0
    8.5669    6.2228   36.4470 N   0  0  0  0  0  0  0  0  0  0  0  0
  1  2  1  0  0  0  0
  2  3  1  0  0  0  0
  2  9  1  0  0  0  0
  3  4  2  0  0  0  0
  3  6  1  0  0  0  0
  6  5  1  0  0  0  0
  6  7  1  0  0  0  0
  7  8  2  0  0  0  0
  7 13  1  0  0  0  0
  8  9  1  0  0  0  0
  8 11  1  0  0  0  0
  9 10  2  0  0  0  0
 11 12  1  0  0  0  0
 12 13  2  0  0  0  0
M  END
>  <CHROM.1>
8.78059895,3.72167607,36.80030424,1.05997294,0.89009942,3.10569446

>  <Name>
1o15_lig

>  <RI>
0

>  <Rbt.Current_Directory>
/home/itssahil/PROJECTS/Mol_Feturizer/New_Systems/rnas/1o15

>  <Rbt.Executable>
rbdock ($Id: //depot/dev/client3/rdock/2013.1/src/exe/rbdock.cxx#4 $)

>  <Rbt.Library>
libRbt.so (2013.1, Build901 2013/11/27)

>  <Rbt.Parameter_File>
/export/apps/rDock/src/rDock_2013.1_src/data/scripts/dock_solv.prm

>  <Rbt.Receptor>
prm/pocket_docking_2.prm

>  <SCORE>
-23.438

>  <SCORE.INTER>
-23.438

>  <SCORE.INTER.CONST>
1

>  <SCORE.INTER.POLAR>
-2.12295

>  <SCORE.INTER.ROT>
0

>  <SCORE.INTER.SOLV>
6.63039

>  <SCORE.INTER.VDW>
-14.359

>  <SCORE.INTER.norm>
-1.80293

>  <SCORE.INTRA>
0

>  <SCORE.INTRA.DIHEDRAL>
0

>  <SCORE.INTRA.DIHEDRAL.0>
0

>  <SCORE.INTRA.POLAR>
0

>  <SCORE.INTRA.POLAR.0>
0

>  <SCORE.INTRA.REPUL>
0

>  <SCORE.INTRA.REPUL.0>
0

>  <SCORE.INTRA.SOLV>
0

>  <SCORE.INTRA.SOLV.lig_0>
-12.9184

>  <SCORE.INTRA.VDW>
0

>  <SCORE.INTRA.VDW.0>
0

>  <SCORE.INTRA.norm>
0

>  <SCORE.RESTR>
0

>  <SCORE.RESTR.CAVITY>
0

>  <SCORE.RESTR.norm>
0

>  <SCORE.SYSTEM>
0

>  <SCORE.SYSTEM.CONST>
0

>  <SCORE.SYSTEM.DIHEDRAL>
0

>  <SCORE.SYSTEM.SOLV>
0

>  <SCORE.SYSTEM.norm>
0

>  <SCORE.heavy>
13

>  <SCORE.norm>
-1.80293

>  <RMSD>
1.084

$$$$
1o15_lig
 OpenBabel11021811403D
libRbt.so/2013.1/901 2013/11/27
 13 14  0  0  0  0  0  0  0  0999 V2000
    9.0643    0.8936   37.2346 C   0  0  0  0  0  0  0  0  0  0  0  0
    8.9287    2.2501   37.0374 N   0  0  0  0  0  0  0  0  0  0  0  0
    9.6100    3.0811   37.8693 C   0  0  0  0  0  0  0  0  0  0  0  0
   10.2893    2.5358   38.7353 O   0  0  0  0  0  0  0  0  0  0  0  0
   10.2788    5.2655   38.6627 C   0  0  0  0  0  0  0  0  0  0  0  0
    9.5793    4.4462   37.8026 N   0  0  0  0  0  0  0  0  0  0  0  0
    8.7876    4.9122   36.7990 C   0  0  0  0  0  0  0  0  0  0  0  0
    8.1104    4.0671   35.9685 C   0  0  0  0  0  0  0  0  0  0  0  0
    8.1343    2.6613   36.0284 C   0  0  0  0  0  0  0  0  0  0  0  0
    7.5519    1.8475   35.3160 O   0  0  0  0  0  0  0  0  0  0  0  0
    7.4179    4.8813   35.0839 N   0  0  0  0  0  0  0  0  0  0  0  0
    7.7222    6.1551   35.4366 C   0  0  0  0  0  0  0  0  0  0  0  0
    8.5352    6.2360   36.4551 N   0  0  0  0  0  0  0  0  0  0  0  0
  1  2  1  0  0  0  0
  2  3  1  0  0  0  0
  2  9  1  0  0  0  0
  3  4  2  0  0  0  0
  3  6  1  0  0  0  0
  6  5  1  0  0  0  0
  6  7  1  0  0  0  0
  7  8  2  0  0  0  0
  7 13  1  0  0  0  0
  8  9  1  0  0  0  0
  8 11  1  0  0  0  0
  9 10  2  0  0  0  0
 11 12  1  0  0  0  0
 12 13  2  0  0  0  0
M  END
>  <CHROM.1>
8.78329450,3.73977717,36.82002078,1.03668074,0.89757214,3.11986000

>  <Name>
1o15_lig

>  <RI>
0

>  <Rbt.Current_Directory>
/home/itssahil/PROJECTS/Mol_Feturizer/New_Systems/rnas/1o15

>  <Rbt.Executable>
rbdock ($Id: //depot/dev/client3/rdock/2013.1/src/exe/rbdock.cxx#4 $)

>  <Rbt.Library>
libRbt.so (2013.1, Build901 2013/11/27)

>  <Rbt.Parameter_File>
/export/apps/rDock/src/rDock_2013.1_src/data/scripts/dock_solv.prm

>  <Rbt.Receptor>
prm/pocket_docking_6.prm

>  <SCORE>
-23.5296

>  <SCORE.INTER>
-23.5296

>  <SCORE.INTER.CONST>
1

>  <SCORE.INTER.POLAR>
-2.11747

>  <SCORE.INTER.ROT>
0

>  <SCORE.INTER.SOLV>
6.6627

>  <SCORE.INTER.VDW>
-14.449

>  <SCORE.INTER.norm>
-1.80997

>  <SCORE.INTRA>
0

>  <SCORE.INTRA.DIHEDRAL>
0

>  <SCORE.INTRA.DIHEDRAL.0>
0

>  <SCORE.INTRA.POLAR>
0

>  <SCORE.INTRA.POLAR.0>
0

>  <SCORE.INTRA.REPUL>
0

>  <SCORE.INTRA.REPUL.0>
0

>  <SCORE.INTRA.SOLV>
0

>  <SCORE.INTRA.SOLV.lig_0>
-12.9184

>  <SCORE.INTRA.VDW>
0

>  <SCORE.INTRA.VDW.0>
0

>  <SCORE.INTRA.norm>
0

>  <SCORE.RESTR>
0

>  <SCORE.RESTR.CAVITY>
0

>  <SCORE.RESTR.norm>
0

>  <SCORE.SYSTEM>
0

>  <SCORE.SYSTEM.CONST>
0

>  <SCORE.SYSTEM.DIHEDRAL>
0

>  <SCORE.SYSTEM.SOLV>
0

>  <SCORE.SYSTEM.norm>
0

>  <SCORE.heavy>
13

>  <SCORE.norm>
-1.80997

>  <RMSD>
1.084

$$$$
1o15_lig
 OpenBabel11021811403D
libRbt.so/2013.1/901 2013/11/27
 13 14  0  0  0  0  0  0  0  0999 V2000
    9.0657    0.8929   37.2328 C   0  0  0  0  0  0  0  0  0  0  0  0
    8.9299    2.2494   37.0359 N   0  0  0  0  0  0  0  0  0  0  0  0
    9.6115    3.0804   37.8676 C   0  0  0  0  0  0  0  0  0  0  0  0
   10.2913    2.5349   38.7332 O   0  0  0  0  0  0  0  0  0  0  0  0
   10.2805    5.2647   38.6611 C   0  0  0  0  0  0  0  0  0  0  0  0
    9.5806    4.4455   37.8011 N   0  0  0  0  0  0  0  0  0  0  0  0
    8.7885    4.9115   36.7980 C   0  0  0  0  0  0  0  0  0  0  0  0
    8.1109    4.0665   35.9677 C   0  0  0  0  0  0  0  0  0  0  0  0
    8.1349    2.6607   36.0273 C   0  0  0  0  0  0  0  0  0  0  0  0
    7.5522    1.8470   35.3151 O   0  0  0  0  0  0  0  0  0  0  0  0
    7.4179    4.8808   35.0835 N   0  0  0  0  0  0  0  0  0  0  0  0
    7.7222    6.1546   35.4363 C   0  0  0  0  0  0  0  0  0  0  0  0
    8.5357    6.2354   36.4544 N   0  0  0  0  0  0  0  0  0  0  0  0
  1  2  1  0  0  0  0
  2  3  1  0  0  0  0
  2  9  1  0  0  0  0
  3  4  2  0  0  0  0
  3  6  1  0  0  0  0
  6  5  1  0  0  0  0
  6  7  1  0  0  0  0
  7  8  2  0  0  0  0
  7 13  1  0  0  0  0
  8  9  1  0  0  0  0
  8 11  1  0  0  0  0
  9 10  2  0  0  0  0
 11 12  1  0  0  0  0
 12 13  2  0  0  0  0
M  END
>  <CHROM.1>
8.78423357,3.73909979,36.81880676,1.03652687,0.89710134,3.12013974

>  <Name>
1o15_lig

>  <RI>
0

>  <Rbt.Current_Directory>
/home/itssahil/PROJECTS/Mol_Feturizer/New_Systems/rnas/1o15

>  <Rbt.Executable>
rbdock ($Id: //depot/dev/client3/rdock/2013.1/src/exe/rbdock.cxx#4 $)

>  <Rbt.Library>
libRbt.so (2013.1, Build901 2013/11/27)

>  <Rbt.Parameter_File>
/export/apps/rDock/src/rDock_2013.1_src/data/scripts/dock_solv.prm

>  <Rbt.Receptor>
prm/pocket_docking_6.prm

>  <SCORE>
-23.523

>  <SCORE.INTER>
-23.523

>  <SCORE.INTER.CONST>
1

>  <SCORE.INTER.POLAR>
-2.11736

>  <SCORE.INTER.ROT>
0

>  <SCORE.INTER.SOLV>
6.6565

>  <SCORE.INTER.VDW>
-14.443

>  <SCORE.INTER.norm>
-1.80947

>  <SCORE.INTRA>
0

>  <SCORE.INTRA.DIHEDRAL>
0

>  <SCORE.INTRA.DIHEDRAL.0>
0

>  <SCORE.INTRA.POLAR>
0

>  <SCORE.INTRA.POLAR.0>
0

>  <SCORE.INTRA.REPUL>
0

>  <SCORE.INTRA.REPUL.0>
0

>  <SCORE.INTRA.SOLV>
0

>  <SCORE.INTRA.SOLV.lig_0>
-12.9184

>  <SCORE.INTRA.VDW>
0

>  <SCORE.INTRA.VDW.0>
0

>  <SCORE.INTRA.norm>
0

>  <SCORE.RESTR>
0

>  <SCORE.RESTR.CAVITY>
0

>  <SCORE.RESTR.norm>
0

>  <SCORE.SYSTEM>
0

>  <SCORE.SYSTEM.CONST>
0

>  <SCORE.SYSTEM.DIHEDRAL>
0

>  <SCORE.SYSTEM.SOLV>
0

>  <SCORE.SYSTEM.norm>
0

>  <SCORE.heavy>
13

>  <SCORE.norm>
-1.80947

>  <RMSD>
1.084

$$$$
1o15_lig
 OpenBabel11021811403D
libRbt.so/2013.1/901 2013/11/27
 13 14  0  0  0  0  0  0  0  0999 V2000
    9.0582    0.8921   37.2380 C   0  0  0  0  0  0  0  0  0  0  0  0
    8.9243    2.2486   37.0397 N   0  0  0  0  0  0  0  0  0  0  0  0
    9.6066    3.0795   37.8708 C   0  0  0  0  0  0  0  0  0  0  0  0
   10.2854    2.5340   38.7372 O   0  0  0  0  0  0  0  0  0  0  0  0
   10.2782    5.2637   38.6623 C   0  0  0  0  0  0  0  0  0  0  0  0
    9.5776    4.4446   37.8030 N   0  0  0  0  0  0  0  0  0  0  0  0
    8.7864    4.9106   36.7991 C   0  0  0  0  0  0  0  0  0  0  0  0
    8.1081    4.0657   35.9694 C   0  0  0  0  0  0  0  0  0  0  0  0
    8.1302    2.6599   36.0304 C   0  0  0  0  0  0  0  0  0  0  0  0
    7.5467    1.8462   35.3188 O   0  0  0  0  0  0  0  0  0  0  0  0
    7.4164    4.8800   35.0842 N   0  0  0  0  0  0  0  0  0  0  0  0
    7.7223    6.1537   35.4358 C   0  0  0  0  0  0  0  0  0  0  0  0
    8.5355    6.2345   36.4541 N   0  0  0  0  0  0  0  0  0  0  0  0
  1  2  1  0  0  0  0
  2  3  1  0  0  0  0
  2  9  1  0  0  0  0
  3  4  2  0  0  0  0
  3  6  1  0  0  0  0
  6  5  1  0  0  0  0
  6  7  1  0  0  0  0
  7  8  2  0  0  0  0
  7 13  1  0  0  0  0
  8  9  1  0  0  0  0
  8 11  1  0  0  0  0
  9 10  2  0  0  0  0
 11 12  1  0  0  0  0
 12 13  2  0  0  0  0
M  END
>  <CHROM.1>
8.78063587,3.73825918,36.82108337,1.03864494,0.89743038,3.11748352

>  <Name>
1o15_lig

>  <RI>
0

>  <Rbt.Current_Directory>
/home/itssahil/PROJECTS/Mol_Feturizer/New_Systems/rnas/1o15

>  <Rbt.Executable>
rbdock ($Id: //depot/dev/client3/rdock/2013.1/src/exe/rbdock.cxx#4 $)

>  <Rbt.Library>
libRbt.so (2013.1, Build901 2013/11/27)

>  <Rbt.Parameter_File>
/export/apps/rDock/src/rDock_2013.1_src/data/scripts/dock_solv.prm

>  <Rbt.Receptor>
prm/pocket_docking_2.prm

>  <SCORE>
-23.5304

>  <SCORE.INTER>
-23.5304

>  <SCORE.INTER.CONST>
1

>  <SCORE.INTER.POLAR>
-2.11619

>  <SCORE.INTER.ROT>
0

>  <SCORE.INTER.SOLV>
6.67468

>  <SCORE.INTER.VDW>
-14.4578

>  <SCORE.INTER.norm>
-1.81003

>  <SCORE.INTRA>
0

>  <SCORE.INTRA.DIHEDRAL>
0

>  <SCORE.INTRA.DIHEDRAL.0>
0

>  <SCORE.INTRA.POLAR>
0

>  <SCORE.INTRA.POLAR.0>
0

>  <SCORE.INTRA.REPUL>
0

>  <SCORE.INTRA.REPUL.0>
0

>  <SCORE.INTRA.SOLV>
0

>  <SCORE.INTRA.SOLV.lig_0>
-12.9184

>  <SCORE.INTRA.VDW>
0

>  <SCORE.INTRA.VDW.0>
0

>  <SCORE.INTRA.norm>
0

>  <SCORE.RESTR>
0

>  <SCORE.RESTR.CAVITY>
0

>  <SCORE.RESTR.norm>
0

>  <SCORE.SYSTEM>
0

>  <SCORE.SYSTEM.CONST>
0

>  <SCORE.SYSTEM.DIHEDRAL>
0

>  <SCORE.SYSTEM.SOLV>
0

>  <SCORE.SYSTEM.norm>
0

>  <SCORE.heavy>
13

>  <SCORE.norm>
-1.81003

>  <RMSD>
1.085

$$$$
1o15_lig
 OpenBabel11021811403D
libRbt.so/2013.1/901 2013/11/27
 13 14  0  0  0  0  0  0  0  0999 V2000
    9.0563    0.8928   37.2367 C   0  0  0  0  0  0  0  0  0  0  0  0
    8.9231    2.2494   37.0388 N   0  0  0  0  0  0  0  0  0  0  0  0
    9.6057    3.0797   37.8704 C   0  0  0  0  0  0  0  0  0  0  0  0
   10.2839    2.5336   38.7368 O   0  0  0  0  0  0  0  0  0  0  0  0
   10.2782    5.2633   38.6629 C   0  0  0  0  0  0  0  0  0  0  0  0
    9.5774    4.4448   37.8031 N   0  0  0  0  0  0  0  0  0  0  0  0
    8.7867    4.9116   36.7991 C   0  0  0  0  0  0  0  0  0  0  0  0
    8.1081    4.0673   35.9689 C   0  0  0  0  0  0  0  0  0  0  0  0
    8.1295    2.6614   36.0294 C   0  0  0  0  0  0  0  0  0  0  0  0
    7.5458    1.8484   35.3174 O   0  0  0  0  0  0  0  0  0  0  0  0
    7.4172    4.8823   35.0837 N   0  0  0  0  0  0  0  0  0  0  0  0
    7.7236    6.1557   35.4359 C   0  0  0  0  0  0  0  0  0  0  0  0
    8.5366    6.2357   36.4544 N   0  0  0  0  0  0  0  0  0  0  0  0
  1  2  1  0  0  0  0
  2  3  1  0  0  0  0
  2  9  1  0  0  0  0
  3  4  2  0  0  0  0
  3  6  1  0  0  0  0
  6  5  1  0  0  0  0
  6  7  1  0  0  0  0
  7  8  2  0  0  0  0
  7 13  1  0  0  0  0
  8  9  1  0  0  0  0
  8 11  1  0  0  0  0
  9 10  2  0  0  0  0
 11 12  1  0  0  0  0
 12 13  2  0  0  0  0
M  END
>  <CHROM.1>
8.78031400,3.73921790,36.82067374,1.03948885,0.89770387,3.11716713

>  <Name>
1o15_lig

>  <RI>
0

>  <Rbt.Current_Directory>
/home/itssahil/PROJECTS/Mol_Feturizer/New_Systems/rnas/1o15

>  <Rbt.Executable>
rbdock ($Id: //depot/dev/client3/rdock/2013.1/src/exe/rbdock.cxx#4 $)

>  <Rbt.Library>
libRbt.so (2013.1, Build901 2013/11/27)

>  <Rbt.Parameter_File>
/export/apps/rDock/src/rDock_2013.1_src/data/scripts/dock_solv.prm

>  <Rbt.Receptor>
prm/pocket_docking_2.prm

>  <SCORE>
-23.5321

>  <SCORE.INTER>
-23.5321

>  <SCORE.INTER.CONST>
1

>  <SCORE.INTER.POLAR>
-2.11762

>  <SCORE.INTER.ROT>
0

>  <SCORE.INTER.SOLV>
6.67655

>  <SCORE.INTER.VDW>
-14.4549

>  <SCORE.INTER.norm>
-1.81016

>  <SCORE.INTRA>
0

>  <SCORE.INTRA.DIHEDRAL>
0

>  <SCORE.INTRA.DIHEDRAL.0>
0

>  <SCORE.INTRA.POLAR>
0

>  <SCORE.INTRA.POLAR.0>
0

>  <SCORE.INTRA.REPUL>
0

>  <SCORE.INTRA.REPUL.0>
0

>  <SCORE.INTRA.SOLV>
0

>  <SCORE.INTRA.SOLV.lig_0>
-12.9184

>  <SCORE.INTRA.VDW>
0

>  <SCORE.INTRA.VDW.0>
0

>  <SCORE.INTRA.norm>
0

>  <SCORE.RESTR>
0

>  <SCORE.RESTR.CAVITY>
0

>  <SCORE.RESTR.norm>
0

>  <SCORE.SYSTEM>
0

>  <SCORE.SYSTEM.CONST>
0

>  <SCORE.SYSTEM.DIHEDRAL>
0

>  <SCORE.SYSTEM.SOLV>
0

>  <SCORE.SYSTEM.norm>
0

>  <SCORE.heavy>
13

>  <SCORE.norm>
-1.81016

>  <RMSD>
1.086

$$$$
1o15_lig
 OpenBabel11021811403D
libRbt.so/2013.1/901 2013/11/27
 13 14  0  0  0  0  0  0  0  0999 V2000
    8.5163    0.8109   37.5047 C   0  0  0  0  0  0  0  0  0  0  0  0
    8.8701    2.0691   37.0699 N   0  0  0  0  0  0  0  0  0  0  0  0
    9.6126    2.8414   37.9059 C   0  0  0  0  0  0  0  0  0  0  0  0
    9.8988    2.3386   38.9894 O   0  0  0  0  0  0  0  0  0  0  0  0
   10.7916    4.8705   38.4901 C   0  0  0  0  0  0  0  0  0  0  0  0
   10.0413    4.1078   37.6208 N   0  0  0  0  0  0  0  0  0  0  0  0
    9.6516    4.5369   36.3899 C   0  0  0  0  0  0  0  0  0  0  0  0
    8.9079    3.7507   35.5584 C   0  0  0  0  0  0  0  0  0  0  0  0
    8.4609    2.4467   35.8417 C   0  0  0  0  0  0  0  0  0  0  0  0
    7.7927    1.6898   35.1420 O   0  0  0  0  0  0  0  0  0  0  0  0
    8.7007    4.5037   34.4117 N   0  0  0  0  0  0  0  0  0  0  0  0
    9.3298    5.6860   34.6257 C   0  0  0  0  0  0  0  0  0  0  0  0
    9.9145    5.7642   35.7905 N   0  0  0  0  0  0  0  0  0  0  0  0
  1  2  1  0  0  0  0
  2  3  1  0  0  0  0
  2  9  1  0  0  0  0
  3  4  2  0  0  0  0
  3  6  1  0  0  0  0
  6  5  1  0  0  0  0
  6  7  1  0  0  0  0
  7  8  2  0  0  0  0
  7 13  1  0  0  0  0
  8  9  1  0  0  0  0
  8 11  1  0  0  0  0
  9 10  2  0  0  0  0
 11 12  1  0  0  0  0
 12 13  2  0  0  0  0
M  END
>  <CHROM.1>
9.26186990,3.44968319,36.59241267,1.68664358,0.99474533,2.38517854

>  <Name>
1o15_lig

>  <RI>
0

>  <Rbt.Current_Directory>
/home/itssahil/PROJECTS/Mol_Feturizer/New_Systems/rnas/1o15

>  <Rbt.Executable>
rbdock ($Id: //depot/dev/client3/rdock/2013.1/src/exe/rbdock.cxx#4 $)

>  <Rbt.Library>
libRbt.so (2013.1, Build901 2013/11/27)

>  <Rbt.Parameter_File>
/export/apps/rDock/src/rDock_2013.1_src/data/scripts/dock_solv.prm

>  <Rbt.Receptor>
prm/pocket_docking_3.prm

>  <SCORE>
-22.6904

>  <SCORE.INTER>
-22.6904

>  <SCORE.INTER.CONST>
1

>  <SCORE.INTER.POLAR>
-2.12038

>  <SCORE.INTER.ROT>
0

>  <SCORE.INTER.SOLV>
6.14431

>  <SCORE.INTER.VDW>
-13.7071

>  <SCORE.INTER.norm>
-1.74542

>  <SCORE.INTRA>
0

>  <SCORE.INTRA.DIHEDRAL>
0

>  <SCORE.INTRA.DIHEDRAL.0>
0

>  <SCORE.INTRA.POLAR>
0

>  <SCORE.INTRA.POLAR.0>
0

>  <SCORE.INTRA.REPUL>
0

>  <SCORE.INTRA.REPUL.0>
0

>  <SCORE.INTRA.SOLV>
0

>  <SCORE.INTRA.SOLV.lig_0>
-12.9184

>  <SCORE.INTRA.VDW>
0

>  <SCORE.INTRA.VDW.0>
0

>  <SCORE.INTRA.norm>
0

>  <SCORE.RESTR>
0

>  <SCORE.RESTR.CAVITY>
0

>  <SCORE.RESTR.norm>
0

>  <SCORE.SYSTEM>
0

>  <SCORE.SYSTEM.CONST>
0

>  <SCORE.SYSTEM.DIHEDRAL>
0

>  <SCORE.SYSTEM.SOLV>
0

>  <SCORE.SYSTEM.norm>
0

>  <SCORE.heavy>
13

>  <SCORE.norm>
-1.74542

>  <RMSD>
1.088

$$$$
1o15_lig
 OpenBabel11021811403D
libRbt.so/2013.1/901 2013/11/27
 13 14  0  0  0  0  0  0  0  0999 V2000
    9.0564    0.8956   37.2371 C   0  0  0  0  0  0  0  0  0  0  0  0
    8.9219    2.2523   37.0401 N   0  0  0  0  0  0  0  0  0  0  0  0
    9.6018    3.0827   37.8736 C   0  0  0  0  0  0  0  0  0  0  0  0
   10.2791    2.5367   38.7408 O   0  0  0  0  0  0  0  0  0  0  0  0
   10.2700    5.2665   38.6692 C   0  0  0  0  0  0  0  0  0  0  0  0
    9.5718    4.4478   37.8074 N   0  0  0  0  0  0  0  0  0  0  0  0
    8.7825    4.9145   36.8023 C   0  0  0  0  0  0  0  0  0  0  0  0
    8.1066    4.0700   35.9701 C   0  0  0  0  0  0  0  0  0  0  0  0
    8.1297    2.6642   36.0295 C   0  0  0  0  0  0  0  0  0  0  0  0
    7.5484    1.8509   35.3157 O   0  0  0  0  0  0  0  0  0  0  0  0
    7.4163    4.8849   35.0843 N   0  0  0  0  0  0  0  0  0  0  0  0
    7.7205    6.1584   35.4381 C   0  0  0  0  0  0  0  0  0  0  0  0
    8.5314    6.2386   36.4583 N   0  0  0  0  0  0  0  0  0  0  0  0
  1  2  1  0  0  0  0
  2  3  1  0  0  0  0
  2  9  1  0  0  0  0
  3  4  2  0  0  0  0
  3  6  1  0  0  0  0
  6  5  1  0  0  0  0
  6  7  1  0  0  0  0
  7  8  2  0  0  0  0
  7 13  1  0  0  0  0
  8  9  1  0  0  0  0
  8 11  1  0  0  0  0
  9 10  2  0  0  0  0
 11 12  1  0  0  0  0
 12 13  2  0  0  0  0
M  END
>  <CHROM.1>
8.77758425,3.74209809,36.82288067,1.03750870,0.89963742,3.11955423

>  <Name>
1o15_lig

>  <RI>
0

>  <Rbt.Current_Directory>
/home/itssahil/PROJECTS/Mol_Feturizer/New_Systems/rnas/1o15

>  <Rbt.Executable>
rbdock ($Id: //depot/dev/client3/rdock/2013.1/src/exe/rbdock.cxx#4 $)

>  <Rbt.Library>
libRbt.so (2013.1, Build901 2013/11/27)

>  <Rbt.Parameter_File>
/export/apps/rDock/src/rDock_2013.1_src/data/scripts/dock_solv.prm

>  <Rbt.Receptor>
prm/pocket_docking_4.prm

>  <SCORE>
-23.4972

>  <SCORE.INTER>
-23.4972

>  <SCORE.INTER.CONST>
1

>  <SCORE.INTER.POLAR>
-2.11623

>  <SCORE.INTER.ROT>
0

>  <SCORE.INTER.SOLV>
6.69313

>  <SCORE.INTER.VDW>
-14.4417

>  <SCORE.INTER.norm>
-1.80748

>  <SCORE.INTRA>
0

>  <SCORE.INTRA.DIHEDRAL>
0

>  <SCORE.INTRA.DIHEDRAL.0>
0

>  <SCORE.INTRA.POLAR>
0

>  <SCORE.INTRA.POLAR.0>
0

>  <SCORE.INTRA.REPUL>
0

>  <SCORE.INTRA.REPUL.0>
0

>  <SCORE.INTRA.SOLV>
0

>  <SCORE.INTRA.SOLV.lig_0>
-12.9184

>  <SCORE.INTRA.VDW>
0

>  <SCORE.INTRA.VDW.0>
0

>  <SCORE.INTRA.norm>
0

>  <SCORE.RESTR>
0

>  <SCORE.RESTR.CAVITY>
0

>  <SCORE.RESTR.norm>
0

>  <SCORE.SYSTEM>
0

>  <SCORE.SYSTEM.CONST>
0

>  <SCORE.SYSTEM.DIHEDRAL>
0

>  <SCORE.SYSTEM.SOLV>
0

>  <SCORE.SYSTEM.norm>
0

>  <SCORE.heavy>
13

>  <SCORE.norm>
-1.80748

>  <RMSD>
1.089

$$$$
1o15_lig
 OpenBabel11021811403D
libRbt.so/2013.1/901 2013/11/27
 13 14  0  0  0  0  0  0  0  0999 V2000
    9.0445    0.8888   37.2302 C   0  0  0  0  0  0  0  0  0  0  0  0
    8.9146    2.2461   37.0341 N   0  0  0  0  0  0  0  0  0  0  0  0
    9.5998    3.0736   37.8663 C   0  0  0  0  0  0  0  0  0  0  0  0
   10.2772    2.5247   38.7315 O   0  0  0  0  0  0  0  0  0  0  0  0
   10.2782    5.2545   38.6611 C   0  0  0  0  0  0  0  0  0  0  0  0
    9.5748    4.4388   37.8007 N   0  0  0  0  0  0  0  0  0  0  0  0
    8.7846    4.9089   36.7979 C   0  0  0  0  0  0  0  0  0  0  0  0
    8.1034    4.0673   35.9671 C   0  0  0  0  0  0  0  0  0  0  0  0
    8.1214    2.6613   36.0258 C   0  0  0  0  0  0  0  0  0  0  0  0
    7.5352    1.8506   35.3131 O   0  0  0  0  0  0  0  0  0  0  0  0
    7.4139    4.8851   35.0834 N   0  0  0  0  0  0  0  0  0  0  0  0
    7.7237    6.1574   35.4370 C   0  0  0  0  0  0  0  0  0  0  0  0
    8.5375    6.2340   36.4551 N   0  0  0  0  0  0  0  0  0  0  0  0
  1  2  1  0  0  0  0
  2  3  1  0  0  0  0
  2  9  1  0  0  0  0
  3  4  2  0  0  0  0
  3  6  1  0  0  0  0
  6  5  1  0  0  0  0
  6  7  1  0  0  0  0
  7  8  2  0  0  0  0
  7 13  1  0  0  0  0
  8  9  1  0  0  0  0
  8 11  1  0  0  0  0
  9 10  2  0  0  0  0
 11 12  1  0  0  0  0
 12 13  2  0  0  0  0
M  END
>  <CHROM.1>
8.77533929,3.73648956,36.81798591,1.04341207,0.89696764,3.11538623

>  <Name>
1o15_lig

>  <RI>
0

>  <Rbt.Current_Directory>
/home/itssahil/PROJECTS/Mol_Feturizer/New_Systems/rnas/1o15

>  <Rbt.Executable>
rbdock ($Id: //depot/dev/client3/rdock/2013.1/src/exe/rbdock.cxx#4 $)

>  <Rbt.Library>
libRbt.so (2013.1, Build901 2013/11/27)

>  <Rbt.Parameter_File>
/export/apps/rDock/src/rDock_2013.1_src/data/scripts/dock_solv.prm

>  <Rbt.Receptor>
prm/pocket_docking_4.prm

>  <SCORE>
-23.5253

>  <SCORE.INTER>
-23.5253

>  <SCORE.INTER.CONST>
1

>  <SCORE.INTER.POLAR>
-2.1162

>  <SCORE.INTER.ROT>
0

>  <SCORE.INTER.SOLV>
6.69213

>  <SCORE.INTER.VDW>
-14.4602

>  <SCORE.INTER.norm>
-1.80964

>  <SCORE.INTRA>
0

>  <SCORE.INTRA.DIHEDRAL>
0

>  <SCORE.INTRA.DIHEDRAL.0>
0

>  <SCORE.INTRA.POLAR>
0

>  <SCORE.INTRA.POLAR.0>
0

>  <SCORE.INTRA.REPUL>
0

>  <SCORE.INTRA.REPUL.0>
0

>  <SCORE.INTRA.SOLV>
0

>  <SCORE.INTRA.SOLV.lig_0>
-12.9184

>  <SCORE.INTRA.VDW>
0

>  <SCORE.INTRA.VDW.0>
0

>  <SCORE.INTRA.norm>
0

>  <SCORE.RESTR>
0

>  <SCORE.RESTR.CAVITY>
0

>  <SCORE.RESTR.norm>
0

>  <SCORE.SYSTEM>
0

>  <SCORE.SYSTEM.CONST>
0

>  <SCORE.SYSTEM.DIHEDRAL>
0

>  <SCORE.SYSTEM.SOLV>
0

>  <SCORE.SYSTEM.norm>
0

>  <SCORE.heavy>
13

>  <SCORE.norm>
-1.80964

>  <RMSD>
1.089

$$$$
1o15_lig
 OpenBabel11021811403D
libRbt.so/2013.1/901 2013/11/27
 13 14  0  0  0  0  0  0  0  0999 V2000
    8.9605    0.8747   37.2903 C   0  0  0  0  0  0  0  0  0  0  0  0
    8.8591    2.2317   37.0766 N   0  0  0  0  0  0  0  0  0  0  0  0
    9.5554    3.0557   37.9030 C   0  0  0  0  0  0  0  0  0  0  0  0
   10.2161    2.5042   38.7794 O   0  0  0  0  0  0  0  0  0  0  0  0
   10.2723    5.2324   38.6752 C   0  0  0  0  0  0  0  0  0  0  0  0
    9.5582    4.4202   37.8203 N   0  0  0  0  0  0  0  0  0  0  0  0
    8.7840    4.8934   36.8065 C   0  0  0  0  0  0  0  0  0  0  0  0
    8.0914    4.0553   35.9817 C   0  0  0  0  0  0  0  0  0  0  0  0
    8.0808    2.6501   36.0579 C   0  0  0  0  0  0  0  0  0  0  0  0
    7.4831    1.8424   35.3514 O   0  0  0  0  0  0  0  0  0  0  0  0
    7.4241    4.8756   35.0834 N   0  0  0  0  0  0  0  0  0  0  0  0
    7.7571    6.1457   35.4232 C   0  0  0  0  0  0  0  0  0  0  0  0
    8.5658    6.2189   36.4457 N   0  0  0  0  0  0  0  0  0  0  0  0
  1  2  1  0  0  0  0
  2  3  1  0  0  0  0
  2  9  1  0  0  0  0
  3  4  2  0  0  0  0
  3  6  1  0  0  0  0
  6  5  1  0  0  0  0
  6  7  1  0  0  0  0
  7  8  2  0  0  0  0
  7 13  1  0  0  0  0
  8  9  1  0  0  0  0
  8 11  1  0  0  0  0
  9 10  2  0  0  0  0
 11 12  1  0  0  0  0
 12 13  2  0  0  0  0
M  END
>  <CHROM.1>
8.75113213,3.72179141,36.84106268,1.07605126,0.90259162,3.07736886

>  <Name>
1o15_lig

>  <RI>
0

>  <Rbt.Current_Directory>
/home/itssahil/PROJECTS/Mol_Feturizer/New_Systems/rnas/1o15

>  <Rbt.Executable>
rbdock ($Id: //depot/dev/client3/rdock/2013.1/src/exe/rbdock.cxx#4 $)

>  <Rbt.Library>
libRbt.so (2013.1, Build901 2013/11/27)

>  <Rbt.Parameter_File>
/export/apps/rDock/src/rDock_2013.1_src/data/scripts/dock_solv.prm

>  <Rbt.Receptor>
prm/pocket_docking_3.prm

>  <SCORE>
-23.4684

>  <SCORE.INTER>
-23.4684

>  <SCORE.INTER.CONST>
1

>  <SCORE.INTER.POLAR>
-2.13105

>  <SCORE.INTER.ROT>
0

>  <SCORE.INTER.SOLV>
6.81126

>  <SCORE.INTER.VDW>
-14.4125

>  <SCORE.INTER.norm>
-1.80526

>  <SCORE.INTRA>
0

>  <SCORE.INTRA.DIHEDRAL>
0

>  <SCORE.INTRA.DIHEDRAL.0>
0

>  <SCORE.INTRA.POLAR>
0

>  <SCORE.INTRA.POLAR.0>
0

>  <SCORE.INTRA.REPUL>
0

>  <SCORE.INTRA.REPUL.0>
0

>  <SCORE.INTRA.SOLV>
0

>  <SCORE.INTRA.SOLV.lig_0>
-12.9184

>  <SCORE.INTRA.VDW>
0

>  <SCORE.INTRA.VDW.0>
0

>  <SCORE.INTRA.norm>
0

>  <SCORE.RESTR>
0

>  <SCORE.RESTR.CAVITY>
0

>  <SCORE.RESTR.norm>
0

>  <SCORE.SYSTEM>
0

>  <SCORE.SYSTEM.CONST>
0

>  <SCORE.SYSTEM.DIHEDRAL>
0

>  <SCORE.SYSTEM.SOLV>
0

>  <SCORE.SYSTEM.norm>
0

>  <SCORE.heavy>
13

>  <SCORE.norm>
-1.80526

>  <RMSD>
1.091

$$$$
1o15_lig
 OpenBabel11021811403D
libRbt.so/2013.1/901 2013/11/27
 13 14  0  0  0  0  0  0  0  0999 V2000
    8.9543    0.8744   37.2946 C   0  0  0  0  0  0  0  0  0  0  0  0
    8.8547    2.2313   37.0799 N   0  0  0  0  0  0  0  0  0  0  0  0
    9.5512    3.0551   37.9064 C   0  0  0  0  0  0  0  0  0  0  0  0
   10.2104    2.5034   38.7839 O   0  0  0  0  0  0  0  0  0  0  0  0
   10.2699    5.2314   38.6779 C   0  0  0  0  0  0  0  0  0  0  0  0
    9.5557    4.4195   37.8228 N   0  0  0  0  0  0  0  0  0  0  0  0
    8.7831    4.8930   36.8079 C   0  0  0  0  0  0  0  0  0  0  0  0
    8.0904    4.0551   35.9829 C   0  0  0  0  0  0  0  0  0  0  0  0
    8.0780    2.6500   36.0602 C   0  0  0  0  0  0  0  0  0  0  0  0
    7.4799    1.8425   35.3536 O   0  0  0  0  0  0  0  0  0  0  0  0
    7.4250    4.8756   35.0834 N   0  0  0  0  0  0  0  0  0  0  0  0
    7.7592    6.1455   35.4227 C   0  0  0  0  0  0  0  0  0  0  0  0
    8.5669    6.2184   36.4459 N   0  0  0  0  0  0  0  0  0  0  0  0
  1  2  1  0  0  0  0
  2  3  1  0  0  0  0
  2  9  1  0  0  0  0
  3  4  2  0  0  0  0
  3  6  1  0  0  0  0
  6  5  1  0  0  0  0
  6  7  1  0  0  0  0
  7  8  2  0  0  0  0
  7 13  1  0  0  0  0
  8  9  1  0  0  0  0
  8 11  1  0  0  0  0
  9 10  2  0  0  0  0
 11 12  1  0  0  0  0
 12 13  2  0  0  0  0
M  END
>  <CHROM.1>
8.74878355,3.72140123,36.84321193,1.07812099,0.90350796,3.07504495

>  <Name>
1o15_lig

>  <RI>
0

>  <Rbt.Current_Directory>
/home/itssahil/PROJECTS/Mol_Feturizer/New_Systems/rnas/1o15

>  <Rbt.Executable>
rbdock ($Id: //depot/dev/client3/rdock/2013.1/src/exe/rbdock.cxx#4 $)

>  <Rbt.Library>
libRbt.so (2013.1, Build901 2013/11/27)

>  <Rbt.Parameter_File>
/export/apps/rDock/src/rDock_2013.1_src/data/scripts/dock_solv.prm

>  <Rbt.Receptor>
prm/pocket_docking_2.prm

>  <SCORE>
-23.4795

>  <SCORE.INTER>
-23.4795

>  <SCORE.INTER.CONST>
1

>  <SCORE.INTER.POLAR>
-2.13282

>  <SCORE.INTER.ROT>
0

>  <SCORE.INTER.SOLV>
6.82337

>  <SCORE.INTER.VDW>
-14.418

>  <SCORE.INTER.norm>
-1.80611

>  <SCORE.INTRA>
0

>  <SCORE.INTRA.DIHEDRAL>
0

>  <SCORE.INTRA.DIHEDRAL.0>
0

>  <SCORE.INTRA.POLAR>
0

>  <SCORE.INTRA.POLAR.0>
0

>  <SCORE.INTRA.REPUL>
0

>  <SCORE.INTRA.REPUL.0>
0

>  <SCORE.INTRA.SOLV>
0

>  <SCORE.INTRA.SOLV.lig_0>
-12.9184

>  <SCORE.INTRA.VDW>
0

>  <SCORE.INTRA.VDW.0>
0

>  <SCORE.INTRA.norm>
0

>  <SCORE.RESTR>
0

>  <SCORE.RESTR.CAVITY>
0

>  <SCORE.RESTR.norm>
0

>  <SCORE.SYSTEM>
0

>  <SCORE.SYSTEM.CONST>
0

>  <SCORE.SYSTEM.DIHEDRAL>
0

>  <SCORE.SYSTEM.SOLV>
0

>  <SCORE.SYSTEM.norm>
0

>  <SCORE.heavy>
13

>  <SCORE.norm>
-1.80611

>  <RMSD>
1.092

$$$$
1o15_lig
 OpenBabel11021811403D
libRbt.so/2013.1/901 2013/11/27
 13 14  0  0  0  0  0  0  0  0999 V2000
    9.0286    0.8945   37.2663 C   0  0  0  0  0  0  0  0  0  0  0  0
    8.9019    2.2506   37.0612 N   0  0  0  0  0  0  0  0  0  0  0  0
    9.5835    3.0822   37.8922 C   0  0  0  0  0  0  0  0  0  0  0  0
   10.2551    2.5377   38.7647 O   0  0  0  0  0  0  0  0  0  0  0  0
   10.2606    5.2670   38.6776 C   0  0  0  0  0  0  0  0  0  0  0  0
    9.5609    4.4471   37.8181 N   0  0  0  0  0  0  0  0  0  0  0  0
    8.7773    4.9122   36.8078 C   0  0  0  0  0  0  0  0  0  0  0  0
    8.0997    4.0665   35.9783 C   0  0  0  0  0  0  0  0  0  0  0  0
    8.1152    2.6609   36.0458 C   0  0  0  0  0  0  0  0  0  0  0  0
    7.5319    1.8467   35.3346 O   0  0  0  0  0  0  0  0  0  0  0  0
    7.4166    4.8799   35.0856 N   0  0  0  0  0  0  0  0  0  0  0  0
    7.7263    6.1538   35.4332 C   0  0  0  0  0  0  0  0  0  0  0  0
    8.5343    6.2356   36.4555 N   0  0  0  0  0  0  0  0  0  0  0  0
  1  2  1  0  0  0  0
  2  3  1  0  0  0  0
  2  9  1  0  0  0  0
  3  4  2  0  0  0  0
  3  6  1  0  0  0  0
  6  5  1  0  0  0  0
  6  7  1  0  0  0  0
  7  8  2  0  0  0  0
  7 13  1  0  0  0  0
  8  9  1  0  0  0  0
  8 11  1  0  0  0  0
  9 10  2  0  0  0  0
 11 12  1  0  0  0  0
 12 13  2  0  0  0  0
M  END
>  <CHROM.1>
8.76615590,3.73992691,36.83508979,1.04613082,0.90272619,3.10710342

>  <Name>
1o15_lig

>  <RI>
0

>  <Rbt.Current_Directory>
/home/itssahil/PROJECTS/Mol_Feturizer/New_Systems/rnas/1o15

>  <Rbt.Executable>
rbdock ($Id: //depot/dev/client3/rdock/2013.1/src/exe/rbdock.cxx#4 $)

>  <Rbt.Library>
libRbt.so (2013.1, Build901 2013/11/27)

>  <Rbt.Parameter_File>
/export/apps/rDock/src/rDock_2013.1_src/data/scripts/dock_solv.prm

>  <Rbt.Receptor>
prm/pocket_docking_5.prm

>  <SCORE>
-23.3838

>  <SCORE.INTER>
-23.3838

>  <SCORE.INTER.CONST>
1

>  <SCORE.INTER.POLAR>
-2.11863

>  <SCORE.INTER.ROT>
0

>  <SCORE.INTER.SOLV>
6.75735

>  <SCORE.INTER.VDW>
-14.3795

>  <SCORE.INTER.norm>
-1.79875

>  <SCORE.INTRA>
0

>  <SCORE.INTRA.DIHEDRAL>
0

>  <SCORE.INTRA.DIHEDRAL.0>
0

>  <SCORE.INTRA.POLAR>
0

>  <SCORE.INTRA.POLAR.0>
0

>  <SCORE.INTRA.REPUL>
0

>  <SCORE.INTRA.REPUL.0>
0

>  <SCORE.INTRA.SOLV>
0

>  <SCORE.INTRA.SOLV.lig_0>
-12.9184

>  <SCORE.INTRA.VDW>
0

>  <SCORE.INTRA.VDW.0>
0

>  <SCORE.INTRA.norm>
0

>  <SCORE.RESTR>
0

>  <SCORE.RESTR.CAVITY>
0

>  <SCORE.RESTR.norm>
0

>  <SCORE.SYSTEM>
0

>  <SCORE.SYSTEM.CONST>
0

>  <SCORE.SYSTEM.DIHEDRAL>
0

>  <SCORE.SYSTEM.SOLV>
0

>  <SCORE.SYSTEM.norm>
0

>  <SCORE.heavy>
13

>  <SCORE.norm>
-1.79875

>  <RMSD>
1.092

$$$$
1o15_lig
 OpenBabel11021811403D
libRbt.so/2013.1/901 2013/11/27
 13 14  0  0  0  0  0  0  0  0999 V2000
    8.9839    0.9020   37.3384 C   0  0  0  0  0  0  0  0  0  0  0  0
    8.8726    2.2560   37.1107 N   0  0  0  0  0  0  0  0  0  0  0  0
    9.5584    3.0937   37.9321 C   0  0  0  0  0  0  0  0  0  0  0  0
   10.2194    2.5563   38.8171 O   0  0  0  0  0  0  0  0  0  0  0  0
   10.2542    5.2836   38.6860 C   0  0  0  0  0  0  0  0  0  0  0  0
    9.5506    4.4573   37.8360 N   0  0  0  0  0  0  0  0  0  0  0  0
    8.7775    4.9142   36.8139 C   0  0  0  0  0  0  0  0  0  0  0  0
    8.0955    4.0624   35.9942 C   0  0  0  0  0  0  0  0  0  0  0  0
    8.0958    2.6580   36.0844 C   0  0  0  0  0  0  0  0  0  0  0  0
    7.5079    1.8385   35.3832 O   0  0  0  0  0  0  0  0  0  0  0  0
    7.4259    4.8684   35.0848 N   0  0  0  0  0  0  0  0  0  0  0  0
    7.7471    6.1444   35.4135 C   0  0  0  0  0  0  0  0  0  0  0  0
    8.5504    6.2342   36.4389 N   0  0  0  0  0  0  0  0  0  0  0  0
  1  2  1  0  0  0  0
  2  3  1  0  0  0  0
  2  9  1  0  0  0  0
  3  4  2  0  0  0  0
  3  6  1  0  0  0  0
  6  5  1  0  0  0  0
  6  7  1  0  0  0  0
  7  8  2  0  0  0  0
  7 13  1  0  0  0  0
  8  9  1  0  0  0  0
  8 11  1  0  0  0  0
  9 10  2  0  0  0  0
 11 12  1  0  0  0  0
 12 13  2  0  0  0  0
M  END
>  <CHROM.1>
8.75383146,3.74274494,36.85992545,1.06355923,0.90776965,3.07727952

>  <Name>
1o15_lig

>  <RI>
0

>  <Rbt.Current_Directory>
/home/itssahil/PROJECTS/Mol_Feturizer/New_Systems/rnas/1o15

>  <Rbt.Executable>
rbdock ($Id: //depot/dev/client3/rdock/2013.1/src/exe/rbdock.cxx#4 $)

>  <Rbt.Library>
libRbt.so (2013.1, Build901 2013/11/27)

>  <Rbt.Parameter_File>
/export/apps/rDock/src/rDock_2013.1_src/data/scripts/dock_solv.prm

>  <Rbt.Receptor>
prm/pocket_docking_2.prm

>  <SCORE>
-23.3976

>  <SCORE.INTER>
-23.3976

>  <SCORE.INTER.CONST>
1

>  <SCORE.INTER.POLAR>
-2.12905

>  <SCORE.INTER.ROT>
0

>  <SCORE.INTER.SOLV>
6.85324

>  <SCORE.INTER.VDW>
-14.386

>  <SCORE.INTER.norm>
-1.79981

>  <SCORE.INTRA>
0

>  <SCORE.INTRA.DIHEDRAL>
0

>  <SCORE.INTRA.DIHEDRAL.0>
0

>  <SCORE.INTRA.POLAR>
0

>  <SCORE.INTRA.POLAR.0>
0

>  <SCORE.INTRA.REPUL>
0

>  <SCORE.INTRA.REPUL.0>
0

>  <SCORE.INTRA.SOLV>
0

>  <SCORE.INTRA.SOLV.lig_0>
-12.9184

>  <SCORE.INTRA.VDW>
0

>  <SCORE.INTRA.VDW.0>
0

>  <SCORE.INTRA.norm>
0

>  <SCORE.RESTR>
0

>  <SCORE.RESTR.CAVITY>
0

>  <SCORE.RESTR.norm>
0

>  <SCORE.SYSTEM>
0

>  <SCORE.SYSTEM.CONST>
0

>  <SCORE.SYSTEM.DIHEDRAL>
0

>  <SCORE.SYSTEM.SOLV>
0

>  <SCORE.SYSTEM.norm>
0

>  <SCORE.heavy>
13

>  <SCORE.norm>
-1.79981

>  <RMSD>
1.093

$$$$
1o15_lig
 OpenBabel11021811403D
libRbt.so/2013.1/901 2013/11/27
 13 14  0  0  0  0  0  0  0  0999 V2000
    8.9414    0.8726   37.2960 C   0  0  0  0  0  0  0  0  0  0  0  0
    8.8456    2.2298   37.0810 N   0  0  0  0  0  0  0  0  0  0  0  0
    9.5438    3.0518   37.9078 C   0  0  0  0  0  0  0  0  0  0  0  0
   10.2010    2.4985   38.7858 O   0  0  0  0  0  0  0  0  0  0  0  0
   10.2680    5.2263   38.6793 C   0  0  0  0  0  0  0  0  0  0  0  0
    9.5521    4.4162   37.8240 N   0  0  0  0  0  0  0  0  0  0  0  0
    8.7814    4.8916   36.8085 C   0  0  0  0  0  0  0  0  0  0  0  0
    8.0868    4.0555   35.9833 C   0  0  0  0  0  0  0  0  0  0  0  0
    8.0706    2.6504   36.0608 C   0  0  0  0  0  0  0  0  0  0  0  0
    7.4708    1.8444   35.3540 O   0  0  0  0  0  0  0  0  0  0  0  0
    7.4242    4.8776   35.0833 N   0  0  0  0  0  0  0  0  0  0  0  0
    7.7616    6.1467   35.4225 C   0  0  0  0  0  0  0  0  0  0  0  0
    8.5689    6.2175   36.4463 N   0  0  0  0  0  0  0  0  0  0  0  0
  1  2  1  0  0  0  0
  2  3  1  0  0  0  0
  2  9  1  0  0  0  0
  3  4  2  0  0  0  0
  3  6  1  0  0  0  0
  6  5  1  0  0  0  0
  6  7  1  0  0  0  0
  7  8  2  0  0  0  0
  7 13  1  0  0  0  0
  8  9  1  0  0  0  0
  8 11  1  0  0  0  0
  9 10  2  0  0  0  0
 11 12  1  0  0  0  0
 12 13  2  0  0  0  0
M  END
>  <CHROM.1>
8.74386308,3.72011416,36.84402910,1.08253894,0.90390742,3.07141551

>  <Name>
1o15_lig

>  <RI>
0

>  <Rbt.Current_Directory>
/home/itssahil/PROJECTS/Mol_Feturizer/New_Systems/rnas/1o15

>  <Rbt.Executable>
rbdock ($Id: //depot/dev/client3/rdock/2013.1/src/exe/rbdock.cxx#4 $)

>  <Rbt.Library>
libRbt.so (2013.1, Build901 2013/11/27)

>  <Rbt.Parameter_File>
/export/apps/rDock/src/rDock_2013.1_src/data/scripts/dock_solv.prm

>  <Rbt.Receptor>
prm/pocket_docking_2.prm

>  <SCORE>
-23.4788

>  <SCORE.INTER>
-23.4788

>  <SCORE.INTER.CONST>
1

>  <SCORE.INTER.POLAR>
-2.13313

>  <SCORE.INTER.ROT>
0

>  <SCORE.INTER.SOLV>
6.84403

>  <SCORE.INTER.VDW>
-14.4235

>  <SCORE.INTER.norm>
-1.80606

>  <SCORE.INTRA>
0

>  <SCORE.INTRA.DIHEDRAL>
0

>  <SCORE.INTRA.DIHEDRAL.0>
0

>  <SCORE.INTRA.POLAR>
0

>  <SCORE.INTRA.POLAR.0>
0

>  <SCORE.INTRA.REPUL>
0

>  <SCORE.INTRA.REPUL.0>
0

>  <SCORE.INTRA.SOLV>
0

>  <SCORE.INTRA.SOLV.lig_0>
-12.9184

>  <SCORE.INTRA.VDW>
0

>  <SCORE.INTRA.VDW.0>
0

>  <SCORE.INTRA.norm>
0

>  <SCORE.RESTR>
0

>  <SCORE.RESTR.CAVITY>
0

>  <SCORE.RESTR.norm>
0

>  <SCORE.SYSTEM>
0

>  <SCORE.SYSTEM.CONST>
0

>  <SCORE.SYSTEM.DIHEDRAL>
0

>  <SCORE.SYSTEM.SOLV>
0

>  <SCORE.SYSTEM.norm>
0

>  <SCORE.heavy>
13

>  <SCORE.norm>
-1.80606

>  <RMSD>
1.095

$$$$
1o15_lig
 OpenBabel11021811403D
libRbt.so/2013.1/901 2013/11/27
 13 14  0  0  0  0  0  0  0  0999 V2000
    8.9690    0.8884   37.2942 C   0  0  0  0  0  0  0  0  0  0  0  0
    8.8635    2.2446   37.0776 N   0  0  0  0  0  0  0  0  0  0  0  0
    9.5599    3.0724   37.9000 C   0  0  0  0  0  0  0  0  0  0  0  0
   10.2246    2.5248   38.7760 O   0  0  0  0  0  0  0  0  0  0  0  0
   10.2733    5.2528   38.6651 C   0  0  0  0  0  0  0  0  0  0  0  0
    9.5590    4.4367   37.8142 N   0  0  0  0  0  0  0  0  0  0  0  0
    8.7808    4.9055   36.8013 C   0  0  0  0  0  0  0  0  0  0  0  0
    8.0880    4.0636   35.9805 C   0  0  0  0  0  0  0  0  0  0  0  0
    8.0813    2.6586   36.0601 C   0  0  0  0  0  0  0  0  0  0  0  0
    7.4837    1.8476   35.3572 O   0  0  0  0  0  0  0  0  0  0  0  0
    7.4161    4.8800   35.0821 N   0  0  0  0  0  0  0  0  0  0  0  0
    7.7468    6.1518   35.4180 C   0  0  0  0  0  0  0  0  0  0  0  0
    8.5581    6.2295   36.4380 N   0  0  0  0  0  0  0  0  0  0  0  0
  1  2  1  0  0  0  0
  2  3  1  0  0  0  0
  2  9  1  0  0  0  0
  3  4  2  0  0  0  0
  3  6  1  0  0  0  0
  6  5  1  0  0  0  0
  6  7  1  0  0  0  0
  7  8  2  0  0  0  0
  7 13  1  0  0  0  0
  8  9  1  0  0  0  0
  8 11  1  0  0  0  0
  9 10  2  0  0  0  0
 11 12  1  0  0  0  0
 12 13  2  0  0  0  0
M  END
>  <CHROM.1>
8.75100414,3.73386047,36.83880668,1.07158908,0.89996446,3.07848118

>  <Name>
1o15_lig

>  <RI>
0

>  <Rbt.Current_Directory>
/home/itssahil/PROJECTS/Mol_Feturizer/New_Systems/rnas/1o15

>  <Rbt.Executable>
rbdock ($Id: //depot/dev/client3/rdock/2013.1/src/exe/rbdock.cxx#4 $)

>  <Rbt.Library>
libRbt.so (2013.1, Build901 2013/11/27)

>  <Rbt.Parameter_File>
/export/apps/rDock/src/rDock_2013.1_src/data/scripts/dock_solv.prm

>  <Rbt.Receptor>
prm/pocket_docking_2.prm

>  <SCORE>
-23.441

>  <SCORE.INTER>
-23.441

>  <SCORE.INTER.CONST>
1

>  <SCORE.INTER.POLAR>
-2.12212

>  <SCORE.INTER.ROT>
0

>  <SCORE.INTER.SOLV>
6.82891

>  <SCORE.INTER.VDW>
-14.4299

>  <SCORE.INTER.norm>
-1.80316

>  <SCORE.INTRA>
0

>  <SCORE.INTRA.DIHEDRAL>
0

>  <SCORE.INTRA.DIHEDRAL.0>
0

>  <SCORE.INTRA.POLAR>
0

>  <SCORE.INTRA.POLAR.0>
0

>  <SCORE.INTRA.REPUL>
0

>  <SCORE.INTRA.REPUL.0>
0

>  <SCORE.INTRA.SOLV>
0

>  <SCORE.INTRA.SOLV.lig_0>
-12.9184

>  <SCORE.INTRA.VDW>
0

>  <SCORE.INTRA.VDW.0>
0

>  <SCORE.INTRA.norm>
0

>  <SCORE.RESTR>
0

>  <SCORE.RESTR.CAVITY>
0

>  <SCORE.RESTR.norm>
0

>  <SCORE.SYSTEM>
0

>  <SCORE.SYSTEM.CONST>
0

>  <SCORE.SYSTEM.DIHEDRAL>
0

>  <SCORE.SYSTEM.SOLV>
0

>  <SCORE.SYSTEM.norm>
0

>  <SCORE.heavy>
13

>  <SCORE.norm>
-1.80316

>  <RMSD>
1.097

$$$$
1o15_lig
 OpenBabel11021811403D
libRbt.so/2013.1/901 2013/11/27
 13 14  0  0  0  0  0  0  0  0999 V2000
    8.9769    0.8941   37.3036 C   0  0  0  0  0  0  0  0  0  0  0  0
    8.8683    2.2498   37.0853 N   0  0  0  0  0  0  0  0  0  0  0  0
    9.5601    3.0802   37.9089 C   0  0  0  0  0  0  0  0  0  0  0  0
   10.2237    2.5353   38.7873 O   0  0  0  0  0  0  0  0  0  0  0  0
   10.2654    5.2633   38.6739 C   0  0  0  0  0  0  0  0  0  0  0  0
    9.5557    4.4445   37.8217 N   0  0  0  0  0  0  0  0  0  0  0  0
    8.7792    4.9102   36.8062 C   0  0  0  0  0  0  0  0  0  0  0  0
    8.0911    4.0656   35.9841 C   0  0  0  0  0  0  0  0  0  0  0  0
    8.0879    2.6606   36.0652 C   0  0  0  0  0  0  0  0  0  0  0  0
    7.4945    1.8474   35.3614 O   0  0  0  0  0  0  0  0  0  0  0  0
    7.4195    4.8793   35.0831 N   0  0  0  0  0  0  0  0  0  0  0  0
    7.7458    6.1523   35.4186 C   0  0  0  0  0  0  0  0  0  0  0  0
    8.5539    6.2332   36.4409 N   0  0  0  0  0  0  0  0  0  0  0  0
  1  2  1  0  0  0  0
  2  3  1  0  0  0  0
  2  9  1  0  0  0  0
  3  4  2  0  0  0  0
  3  6  1  0  0  0  0
  6  5  1  0  0  0  0
  6  7  1  0  0  0  0
  7  8  2  0  0  0  0
  7 13  1  0  0  0  0
  8  9  1  0  0  0  0
  8 11  1  0  0  0  0
  9 10  2  0  0  0  0
 11 12  1  0  0  0  0
 12 13  2  0  0  0  0
M  END
>  <CHROM.1>
8.75244964,3.73848304,36.84470805,1.06753878,0.90299121,3.08066550

>  <Name>
1o15_lig

>  <RI>
0

>  <Rbt.Current_Directory>
/home/itssahil/PROJECTS/Mol_Feturizer/New_Systems/rnas/1o15

>  <Rbt.Executable>
rbdock ($Id: //depot/dev/client3/rdock/2013.1/src/exe/rbdock.cxx#4 $)

>  <Rbt.Library>
libRbt.so (2013.1, Build901 2013/11/27)

>  <Rbt.Parameter_File>
/export/apps/rDock/src/rDock_2013.1_src/data/scripts/dock_solv.prm

>  <Rbt.Receptor>
prm/pocket_docking_8.prm

>  <SCORE>
-23.4386

>  <SCORE.INTER>
-23.4386

>  <SCORE.INTER.CONST>
1

>  <SCORE.INTER.POLAR>
-2.12502

>  <SCORE.INTER.ROT>
0

>  <SCORE.INTER.SOLV>
6.83367

>  <SCORE.INTER.VDW>
-14.4202

>  <SCORE.INTER.norm>
-1.80297

>  <SCORE.INTRA>
0

>  <SCORE.INTRA.DIHEDRAL>
0

>  <SCORE.INTRA.DIHEDRAL.0>
0

>  <SCORE.INTRA.POLAR>
0

>  <SCORE.INTRA.POLAR.0>
0

>  <SCORE.INTRA.REPUL>
0

>  <SCORE.INTRA.REPUL.0>
0

>  <SCORE.INTRA.SOLV>
0

>  <SCORE.INTRA.SOLV.lig_0>
-12.9184

>  <SCORE.INTRA.VDW>
0

>  <SCORE.INTRA.VDW.0>
0

>  <SCORE.INTRA.norm>
0

>  <SCORE.RESTR>
0

>  <SCORE.RESTR.CAVITY>
0

>  <SCORE.RESTR.norm>
0

>  <SCORE.SYSTEM>
0

>  <SCORE.SYSTEM.CONST>
0

>  <SCORE.SYSTEM.DIHEDRAL>
0

>  <SCORE.SYSTEM.SOLV>
0

>  <SCORE.SYSTEM.norm>
0

>  <SCORE.heavy>
13

>  <SCORE.norm>
-1.80297

>  <RMSD>
1.097

$$$$
1o15_lig
 OpenBabel11021811403D
libRbt.so/2013.1/901 2013/11/27
 13 14  0  0  0  0  0  0  0  0999 V2000
    8.9928    0.8940   37.2958 C   0  0  0  0  0  0  0  0  0  0  0  0
    8.8762    2.2498   37.0820 N   0  0  0  0  0  0  0  0  0  0  0  0
    9.5612    3.0816   37.9100 C   0  0  0  0  0  0  0  0  0  0  0  0
   10.2264    2.5377   38.7878 O   0  0  0  0  0  0  0  0  0  0  0  0
   10.2514    5.2664   38.6839 C   0  0  0  0  0  0  0  0  0  0  0  0
    9.5485    4.4461   37.8275 N   0  0  0  0  0  0  0  0  0  0  0  0
    8.7712    4.9105   36.8120 C   0  0  0  0  0  0  0  0  0  0  0  0
    8.0900    4.0645   35.9856 C   0  0  0  0  0  0  0  0  0  0  0  0
    8.0954    2.6593   36.0617 C   0  0  0  0  0  0  0  0  0  0  0  0
    7.5085    1.8448   35.3539 O   0  0  0  0  0  0  0  0  0  0  0  0
    7.4153    4.8772   35.0860 N   0  0  0  0  0  0  0  0  0  0  0  0
    7.7329    6.1510   35.4266 C   0  0  0  0  0  0  0  0  0  0  0  0
    8.5385    6.2334   36.4508 N   0  0  0  0  0  0  0  0  0  0  0  0
  1  2  1  0  0  0  0
  2  3  1  0  0  0  0
  2  9  1  0  0  0  0
  3  4  2  0  0  0  0
  3  6  1  0  0  0  0
  6  5  1  0  0  0  0
  6  7  1  0  0  0  0
  7  8  2  0  0  0  0
  7 13  1  0  0  0  0
  8  9  1  0  0  0  0
  8 11  1  0  0  0  0
  9 10  2  0  0  0  0
 11 12  1  0  0  0  0
 12 13  2  0  0  0  0
M  END
>  <CHROM.1>
8.75165651,3.73855019,36.84638748,1.05769398,0.90538870,3.09187828

>  <Name>
1o15_lig

>  <RI>
0

>  <Rbt.Current_Directory>
/home/itssahil/PROJECTS/Mol_Feturizer/New_Systems/rnas/1o15

>  <Rbt.Executable>
rbdock ($Id: //depot/dev/client3/rdock/2013.1/src/exe/rbdock.cxx#4 $)

>  <Rbt.Library>
libRbt.so (2013.1, Build901 2013/11/27)

>  <Rbt.Parameter_File>
/export/apps/rDock/src/rDock_2013.1_src/data/scripts/dock_solv.prm

>  <Rbt.Receptor>
prm/pocket_docking_3.prm

>  <SCORE>
-23.4179

>  <SCORE.INTER>
-23.4179

>  <SCORE.INTER.CONST>
1

>  <SCORE.INTER.POLAR>
-2.12149

>  <SCORE.INTER.ROT>
0

>  <SCORE.INTER.SOLV>
6.83537

>  <SCORE.INTER.VDW>
-14.4188

>  <SCORE.INTER.norm>
-1.80138

>  <SCORE.INTRA>
0

>  <SCORE.INTRA.DIHEDRAL>
0

>  <SCORE.INTRA.DIHEDRAL.0>
0

>  <SCORE.INTRA.POLAR>
0

>  <SCORE.INTRA.POLAR.0>
0

>  <SCORE.INTRA.REPUL>
0

>  <SCORE.INTRA.REPUL.0>
0

>  <SCORE.INTRA.SOLV>
0

>  <SCORE.INTRA.SOLV.lig_0>
-12.9184

>  <SCORE.INTRA.VDW>
0

>  <SCORE.INTRA.VDW.0>
0

>  <SCORE.INTRA.norm>
0

>  <SCORE.RESTR>
0

>  <SCORE.RESTR.CAVITY>
0

>  <SCORE.RESTR.norm>
0

>  <SCORE.SYSTEM>
0

>  <SCORE.SYSTEM.CONST>
0

>  <SCORE.SYSTEM.DIHEDRAL>
0

>  <SCORE.SYSTEM.SOLV>
0

>  <SCORE.SYSTEM.norm>
0

>  <SCORE.heavy>
13

>  <SCORE.norm>
-1.80138

>  <RMSD>
1.098

$$$$
1o15_lig
 OpenBabel11021811403D
libRbt.so/2013.1/901 2013/11/27
 13 14  0  0  0  0  0  0  0  0999 V2000
    8.9894    0.8942   37.2992 C   0  0  0  0  0  0  0  0  0  0  0  0
    8.8738    2.2499   37.0846 N   0  0  0  0  0  0  0  0  0  0  0  0
    9.5587    3.0818   37.9126 C   0  0  0  0  0  0  0  0  0  0  0  0
   10.2229    2.5379   38.7912 O   0  0  0  0  0  0  0  0  0  0  0  0
   10.2495    5.2665   38.6860 C   0  0  0  0  0  0  0  0  0  0  0  0
    9.5468    4.4462   37.8294 N   0  0  0  0  0  0  0  0  0  0  0  0
    8.7705    4.9105   36.8131 C   0  0  0  0  0  0  0  0  0  0  0  0
    8.0894    4.0646   35.9867 C   0  0  0  0  0  0  0  0  0  0  0  0
    8.0939    2.6593   36.0635 C   0  0  0  0  0  0  0  0  0  0  0  0
    7.5071    1.8449   35.3556 O   0  0  0  0  0  0  0  0  0  0  0  0
    7.4158    4.8771   35.0861 N   0  0  0  0  0  0  0  0  0  0  0  0
    7.7339    6.1510   35.4263 C   0  0  0  0  0  0  0  0  0  0  0  0
    8.5388    6.2334   36.4511 N   0  0  0  0  0  0  0  0  0  0  0  0
  1  2  1  0  0  0  0
  2  3  1  0  0  0  0
  2  9  1  0  0  0  0
  3  4  2  0  0  0  0
  3  6  1  0  0  0  0
  6  5  1  0  0  0  0
  6  7  1  0  0  0  0
  7  8  2  0  0  0  0
  7 13  1  0  0  0  0
  8  9  1  0  0  0  0
  8 11  1  0  0  0  0
  9 10  2  0  0  0  0
 11 12  1  0  0  0  0
 12 13  2  0  0  0  0
M  END
>  <CHROM.1>
8.75025701,3.73862281,36.84809549,1.05869022,0.90608958,3.09058923

>  <Name>
1o15_lig

>  <RI>
0

>  <Rbt.Current_Directory>
/home/itssahil/PROJECTS/Mol_Feturizer/New_Systems/rnas/1o15

>  <Rbt.Executable>
rbdock ($Id: //depot/dev/client3/rdock/2013.1/src/exe/rbdock.cxx#4 $)

>  <Rbt.Library>
libRbt.so (2013.1, Build901 2013/11/27)

>  <Rbt.Parameter_File>
/export/apps/rDock/src/rDock_2013.1_src/data/scripts/dock_solv.prm

>  <Rbt.Receptor>
prm/pocket_docking_4.prm

>  <SCORE>
-23.4243

>  <SCORE.INTER>
-23.4243

>  <SCORE.INTER.CONST>
1

>  <SCORE.INTER.POLAR>
-2.12225

>  <SCORE.INTER.ROT>
0

>  <SCORE.INTER.SOLV>
6.84345

>  <SCORE.INTER.VDW>
-14.4231

>  <SCORE.INTER.norm>
-1.80187

>  <SCORE.INTRA>
0

>  <SCORE.INTRA.DIHEDRAL>
0

>  <SCORE.INTRA.DIHEDRAL.0>
0

>  <SCORE.INTRA.POLAR>
0

>  <SCORE.INTRA.POLAR.0>
0

>  <SCORE.INTRA.REPUL>
0

>  <SCORE.INTRA.REPUL.0>
0

>  <SCORE.INTRA.SOLV>
0

>  <SCORE.INTRA.SOLV.lig_0>
-12.9184

>  <SCORE.INTRA.VDW>
0

>  <SCORE.INTRA.VDW.0>
0

>  <SCORE.INTRA.norm>
0

>  <SCORE.RESTR>
0

>  <SCORE.RESTR.CAVITY>
0

>  <SCORE.RESTR.norm>
0

>  <SCORE.SYSTEM>
0

>  <SCORE.SYSTEM.CONST>
0

>  <SCORE.SYSTEM.DIHEDRAL>
0

>  <SCORE.SYSTEM.SOLV>
0

>  <SCORE.SYSTEM.norm>
0

>  <SCORE.heavy>
13

>  <SCORE.norm>
-1.80187

>  <RMSD>
1.098

$$$$
1o15_lig
 OpenBabel11021811403D
libRbt.so/2013.1/901 2013/11/27
 13 14  0  0  0  0  0  0  0  0999 V2000
    8.9647    0.8920   37.3089 C   0  0  0  0  0  0  0  0  0  0  0  0
    8.8594    2.2477   37.0892 N   0  0  0  0  0  0  0  0  0  0  0  0
    9.5522    3.0775   37.9127 C   0  0  0  0  0  0  0  0  0  0  0  0
   10.2136    2.5319   38.7924 O   0  0  0  0  0  0  0  0  0  0  0  0
   10.2616    5.2597   38.6763 C   0  0  0  0  0  0  0  0  0  0  0  0
    9.5509    4.4416   37.8241 N   0  0  0  0  0  0  0  0  0  0  0  0
    8.7765    4.9080   36.8073 C   0  0  0  0  0  0  0  0  0  0  0  0
    8.0874    4.0642   35.9854 C   0  0  0  0  0  0  0  0  0  0  0  0
    8.0810    2.6593   36.0678 C   0  0  0  0  0  0  0  0  0  0  0  0
    7.4865    1.8467   35.3642 O   0  0  0  0  0  0  0  0  0  0  0  0
    7.4186    4.8785   35.0828 N   0  0  0  0  0  0  0  0  0  0  0  0
    7.7474    6.1511   35.4174 C   0  0  0  0  0  0  0  0  0  0  0  0
    8.5547    6.2312   36.4405 N   0  0  0  0  0  0  0  0  0  0  0  0
  1  2  1  0  0  0  0
  2  3  1  0  0  0  0
  2  9  1  0  0  0  0
  3  4  2  0  0  0  0
  3  6  1  0  0  0  0
  6  5  1  0  0  0  0
  6  7  1  0  0  0  0
  7  8  2  0  0  0  0
  7 13  1  0  0  0  0
  8  9  1  0  0  0  0
  8 11  1  0  0  0  0
  9 10  2  0  0  0  0
 11 12  1  0  0  0  0
 12 13  2  0  0  0  0
M  END
>  <CHROM.1>
8.74712265,3.73645416,36.84700612,1.07126399,0.90392756,3.07674766

>  <Name>
1o15_lig

>  <RI>
0

>  <Rbt.Current_Directory>
/home/itssahil/PROJECTS/Mol_Feturizer/New_Systems/rnas/1o15

>  <Rbt.Executable>
rbdock ($Id: //depot/dev/client3/rdock/2013.1/src/exe/rbdock.cxx#4 $)

>  <Rbt.Library>
libRbt.so (2013.1, Build901 2013/11/27)

>  <Rbt.Parameter_File>
/export/apps/rDock/src/rDock_2013.1_src/data/scripts/dock_solv.prm

>  <Rbt.Receptor>
prm/pocket_docking_3.prm

>  <SCORE>
-23.4433

>  <SCORE.INTER>
-23.4433

>  <SCORE.INTER.CONST>
1

>  <SCORE.INTER.POLAR>
-2.12624

>  <SCORE.INTER.ROT>
0

>  <SCORE.INTER.SOLV>
6.85795

>  <SCORE.INTER.VDW>
-14.4274

>  <SCORE.INTER.norm>
-1.80333

>  <SCORE.INTRA>
0

>  <SCORE.INTRA.DIHEDRAL>
0

>  <SCORE.INTRA.DIHEDRAL.0>
0

>  <SCORE.INTRA.POLAR>
0

>  <SCORE.INTRA.POLAR.0>
0

>  <SCORE.INTRA.REPUL>
0

>  <SCORE.INTRA.REPUL.0>
0

>  <SCORE.INTRA.SOLV>
0

>  <SCORE.INTRA.SOLV.lig_0>
-12.9184

>  <SCORE.INTRA.VDW>
0

>  <SCORE.INTRA.VDW.0>
0

>  <SCORE.INTRA.norm>
0

>  <SCORE.RESTR>
0

>  <SCORE.RESTR.CAVITY>
0

>  <SCORE.RESTR.norm>
0

>  <SCORE.SYSTEM>
0

>  <SCORE.SYSTEM.CONST>
0

>  <SCORE.SYSTEM.DIHEDRAL>
0

>  <SCORE.SYSTEM.SOLV>
0

>  <SCORE.SYSTEM.norm>
0

>  <SCORE.heavy>
13

>  <SCORE.norm>
-1.80333

>  <RMSD>
1.099

$$$$
1o15_lig
 OpenBabel11021811403D
libRbt.so/2013.1/901 2013/11/27
 13 14  0  0  0  0  0  0  0  0999 V2000
    8.9668    0.8989   37.3287 C   0  0  0  0  0  0  0  0  0  0  0  0
    8.8607    2.2537   37.1039 N   0  0  0  0  0  0  0  0  0  0  0  0
    9.5500    3.0871   37.9266 C   0  0  0  0  0  0  0  0  0  0  0  0
   10.2094    2.5453   38.8102 O   0  0  0  0  0  0  0  0  0  0  0  0
   10.2547    5.2728   38.6847 C   0  0  0  0  0  0  0  0  0  0  0  0
    9.5476    4.4510   37.8333 N   0  0  0  0  0  0  0  0  0  0  0  0
    8.7758    4.9129   36.8125 C   0  0  0  0  0  0  0  0  0  0  0  0
    8.0901    4.0655   35.9914 C   0  0  0  0  0  0  0  0  0  0  0  0
    8.0850    2.6609   36.0787 C   0  0  0  0  0  0  0  0  0  0  0  0
    7.4936    1.8451   35.3761 O   0  0  0  0  0  0  0  0  0  0  0  0
    7.4232    4.8759   35.0839 N   0  0  0  0  0  0  0  0  0  0  0  0
    7.7496    6.1500   35.4151 C   0  0  0  0  0  0  0  0  0  0  0  0
    8.5536    6.2346   36.4404 N   0  0  0  0  0  0  0  0  0  0  0  0
  1  2  1  0  0  0  0
  2  3  1  0  0  0  0
  2  9  1  0  0  0  0
  3  4  2  0  0  0  0
  3  6  1  0  0  0  0
  6  5  1  0  0  0  0
  6  7  1  0  0  0  0
  7  8  2  0  0  0  0
  7 13  1  0  0  0  0
  8  9  1  0  0  0  0
  8 11  1  0  0  0  0
  9 10  2  0  0  0  0
 11 12  1  0  0  0  0
 12 13  2  0  0  0  0
M  END
>  <CHROM.1>
8.74754810,3.74147608,36.85615439,1.06981327,0.90706198,3.07439719

>  <Name>
1o15_lig

>  <RI>
0

>  <Rbt.Current_Directory>
/home/itssahil/PROJECTS/Mol_Feturizer/New_Systems/rnas/1o15

>  <Rbt.Executable>
rbdock ($Id: //depot/dev/client3/rdock/2013.1/src/exe/rbdock.cxx#4 $)

>  <Rbt.Library>
libRbt.so (2013.1, Build901 2013/11/27)

>  <Rbt.Parameter_File>
/export/apps/rDock/src/rDock_2013.1_src/data/scripts/dock_solv.prm

>  <Rbt.Receptor>
prm/pocket_docking_6.prm

>  <SCORE>
-23.4338

>  <SCORE.INTER>
-23.4338

>  <SCORE.INTER.CONST>
1

>  <SCORE.INTER.POLAR>
-2.12961

>  <SCORE.INTER.ROT>
0

>  <SCORE.INTER.SOLV>
6.87429

>  <SCORE.INTER.VDW>
-14.4153

>  <SCORE.INTER.norm>
-1.8026

>  <SCORE.INTRA>
0

>  <SCORE.INTRA.DIHEDRAL>
0

>  <SCORE.INTRA.DIHEDRAL.0>
0

>  <SCORE.INTRA.POLAR>
0

>  <SCORE.INTRA.POLAR.0>
0

>  <SCORE.INTRA.REPUL>
0

>  <SCORE.INTRA.REPUL.0>
0

>  <SCORE.INTRA.SOLV>
0

>  <SCORE.INTRA.SOLV.lig_0>
-12.9184

>  <SCORE.INTRA.VDW>
0

>  <SCORE.INTRA.VDW.0>
0

>  <SCORE.INTRA.norm>
0

>  <SCORE.RESTR>
0

>  <SCORE.RESTR.CAVITY>
0

>  <SCORE.RESTR.norm>
0

>  <SCORE.SYSTEM>
0

>  <SCORE.SYSTEM.CONST>
0

>  <SCORE.SYSTEM.DIHEDRAL>
0

>  <SCORE.SYSTEM.SOLV>
0

>  <SCORE.SYSTEM.norm>
0

>  <SCORE.heavy>
13

>  <SCORE.norm>
-1.8026

>  <RMSD>
1.099

$$$$
1o15_lig
 OpenBabel11021811403D
libRbt.so/2013.1/901 2013/11/27
 13 14  0  0  0  0  0  0  0  0999 V2000
    8.9732    0.8880   37.2779 C   0  0  0  0  0  0  0  0  0  0  0  0
    8.8655    2.2448   37.0661 N   0  0  0  0  0  0  0  0  0  0  0  0
    9.5622    3.0707   37.8903 C   0  0  0  0  0  0  0  0  0  0  0  0
   10.2289    2.5209   38.7633 O   0  0  0  0  0  0  0  0  0  0  0  0
   10.2740    5.2493   38.6618 C   0  0  0  0  0  0  0  0  0  0  0  0
    9.5593    4.4353   37.8092 N   0  0  0  0  0  0  0  0  0  0  0  0
    8.7789    4.9065   36.7992 C   0  0  0  0  0  0  0  0  0  0  0  0
    8.0860    4.0666   35.9765 C   0  0  0  0  0  0  0  0  0  0  0  0
    8.0812    2.6613   36.0513 C   0  0  0  0  0  0  0  0  0  0  0  0
    7.4835    1.8520   35.3466 O   0  0  0  0  0  0  0  0  0  0  0  0
    7.4116    4.8852   35.0821 N   0  0  0  0  0  0  0  0  0  0  0  0
    7.7411    6.1563   35.4218 C   0  0  0  0  0  0  0  0  0  0  0  0
    8.5540    6.2315   36.4408 N   0  0  0  0  0  0  0  0  0  0  0  0
  1  2  1  0  0  0  0
  2  3  1  0  0  0  0
  2  9  1  0  0  0  0
  3  4  2  0  0  0  0
  3  6  1  0  0  0  0
  6  5  1  0  0  0  0
  6  7  1  0  0  0  0
  7  8  2  0  0  0  0
  7 13  1  0  0  0  0
  8  9  1  0  0  0  0
  8 11  1  0  0  0  0
  9 10  2  0  0  0  0
 11 12  1  0  0  0  0
 12 13  2  0  0  0  0
M  END
>  <CHROM.1>
8.75074337,3.73474922,36.83267138,1.06937009,0.89846876,3.08367291

>  <Name>
1o15_lig

>  <RI>
0

>  <Rbt.Current_Directory>
/home/itssahil/PROJECTS/Mol_Feturizer/New_Systems/rnas/1o15

>  <Rbt.Executable>
rbdock ($Id: //depot/dev/client3/rdock/2013.1/src/exe/rbdock.cxx#4 $)

>  <Rbt.Library>
libRbt.so (2013.1, Build901 2013/11/27)

>  <Rbt.Parameter_File>
/export/apps/rDock/src/rDock_2013.1_src/data/scripts/dock_solv.prm

>  <Rbt.Receptor>
prm/pocket_docking_2.prm

>  <SCORE>
-23.4134

>  <SCORE.INTER>
-23.4134

>  <SCORE.INTER.CONST>
1

>  <SCORE.INTER.POLAR>
-2.11731

>  <SCORE.INTER.ROT>
0

>  <SCORE.INTER.SOLV>
6.82322

>  <SCORE.INTER.VDW>
-14.4257

>  <SCORE.INTER.norm>
-1.80103

>  <SCORE.INTRA>
0

>  <SCORE.INTRA.DIHEDRAL>
0

>  <SCORE.INTRA.DIHEDRAL.0>
0

>  <SCORE.INTRA.POLAR>
0

>  <SCORE.INTRA.POLAR.0>
0

>  <SCORE.INTRA.REPUL>
0

>  <SCORE.INTRA.REPUL.0>
0

>  <SCORE.INTRA.SOLV>
0

>  <SCORE.INTRA.SOLV.lig_0>
-12.9184

>  <SCORE.INTRA.VDW>
0

>  <SCORE.INTRA.VDW.0>
0

>  <SCORE.INTRA.norm>
0

>  <SCORE.RESTR>
0

>  <SCORE.RESTR.CAVITY>
0

>  <SCORE.RESTR.norm>
0

>  <SCORE.SYSTEM>
0

>  <SCORE.SYSTEM.CONST>
0

>  <SCORE.SYSTEM.DIHEDRAL>
0

>  <SCORE.SYSTEM.SOLV>
0

>  <SCORE.SYSTEM.norm>
0

>  <SCORE.heavy>
13

>  <SCORE.norm>
-1.80103

>  <RMSD>
1.100

$$$$
1o15_lig
 OpenBabel11021811403D
libRbt.so/2013.1/901 2013/11/27
 13 14  0  0  0  0  0  0  0  0999 V2000
    8.9600    0.8967   37.3160 C   0  0  0  0  0  0  0  0  0  0  0  0
    8.8560    2.2523   37.0948 N   0  0  0  0  0  0  0  0  0  0  0  0
    9.5478    3.0823   37.9190 C   0  0  0  0  0  0  0  0  0  0  0  0
   10.2072    2.5371   38.8003 O   0  0  0  0  0  0  0  0  0  0  0  0
   10.2572    5.2648   38.6819 C   0  0  0  0  0  0  0  0  0  0  0  0
    9.5476    4.4464   37.8292 N   0  0  0  0  0  0  0  0  0  0  0  0
    8.7754    4.9124   36.8105 C   0  0  0  0  0  0  0  0  0  0  0  0
    8.0873    4.0683   35.9880 C   0  0  0  0  0  0  0  0  0  0  0  0
    8.0798    2.6635   36.0717 C   0  0  0  0  0  0  0  0  0  0  0  0
    7.4861    1.8507   35.3676 O   0  0  0  0  0  0  0  0  0  0  0  0
    7.4208    4.8823   35.0834 N   0  0  0  0  0  0  0  0  0  0  0  0
    7.7498    6.1550   35.4175 C   0  0  0  0  0  0  0  0  0  0  0  0
    8.5552    6.2354   36.4421 N   0  0  0  0  0  0  0  0  0  0  0  0
  1  2  1  0  0  0  0
  2  3  1  0  0  0  0
  2  9  1  0  0  0  0
  3  4  2  0  0  0  0
  3  6  1  0  0  0  0
  6  5  1  0  0  0  0
  6  7  1  0  0  0  0
  7  8  2  0  0  0  0
  7 13  1  0  0  0  0
  8  9  1  0  0  0  0
  8 11  1  0  0  0  0
  9 10  2  0  0  0  0
 11 12  1  0  0  0  0
 12 13  2  0  0  0  0
M  END
>  <CHROM.1>
8.74520078,3.74090264,36.85114199,1.07254519,0.90576333,3.07485186

>  <Name>
1o15_lig

>  <RI>
0

>  <Rbt.Current_Directory>
/home/itssahil/PROJECTS/Mol_Feturizer/New_Systems/rnas/1o15

>  <Rbt.Executable>
rbdock ($Id: //depot/dev/client3/rdock/2013.1/src/exe/rbdock.cxx#4 $)

>  <Rbt.Library>
libRbt.so (2013.1, Build901 2013/11/27)

>  <Rbt.Parameter_File>
/export/apps/rDock/src/rDock_2013.1_src/data/scripts/dock_solv.prm

>  <Rbt.Receptor>
prm/pocket_docking_6.prm

>  <SCORE>
-23.4634

>  <SCORE.INTER>
-23.4634

>  <SCORE.INTER.CONST>
1

>  <SCORE.INTER.POLAR>
-2.12788

>  <SCORE.INTER.ROT>
0

>  <SCORE.INTER.SOLV>
6.87659

>  <SCORE.INTER.VDW>
-14.4415

>  <SCORE.INTER.norm>
-1.80488

>  <SCORE.INTRA>
0

>  <SCORE.INTRA.DIHEDRAL>
0

>  <SCORE.INTRA.DIHEDRAL.0>
0

>  <SCORE.INTRA.POLAR>
0

>  <SCORE.INTRA.POLAR.0>
0

>  <SCORE.INTRA.REPUL>
0

>  <SCORE.INTRA.REPUL.0>
0

>  <SCORE.INTRA.SOLV>
0

>  <SCORE.INTRA.SOLV.lig_0>
-12.9184

>  <SCORE.INTRA.VDW>
0

>  <SCORE.INTRA.VDW.0>
0

>  <SCORE.INTRA.norm>
0

>  <SCORE.RESTR>
0

>  <SCORE.RESTR.CAVITY>
0

>  <SCORE.RESTR.norm>
0

>  <SCORE.SYSTEM>
0

>  <SCORE.SYSTEM.CONST>
0

>  <SCORE.SYSTEM.DIHEDRAL>
0

>  <SCORE.SYSTEM.SOLV>
0

>  <SCORE.SYSTEM.norm>
0

>  <SCORE.heavy>
13

>  <SCORE.norm>
-1.80488

>  <RMSD>
1.102

$$$$
1o15_lig
 OpenBabel11021811403D
libRbt.so/2013.1/901 2013/11/27
 13 14  0  0  0  0  0  0  0  0999 V2000
    8.9540    0.8940   37.3156 C   0  0  0  0  0  0  0  0  0  0  0  0
    8.8517    2.2497   37.0943 N   0  0  0  0  0  0  0  0  0  0  0  0
    9.5452    3.0789   37.9178 C   0  0  0  0  0  0  0  0  0  0  0  0
   10.2044    2.5329   38.7989 O   0  0  0  0  0  0  0  0  0  0  0  0
   10.2581    5.2605   38.6800 C   0  0  0  0  0  0  0  0  0  0  0  0
    9.5468    4.4430   37.8278 N   0  0  0  0  0  0  0  0  0  0  0  0
    8.7746    4.9099   36.8095 C   0  0  0  0  0  0  0  0  0  0  0  0
    8.0849    4.0666   35.9876 C   0  0  0  0  0  0  0  0  0  0  0  0
    8.0755    2.6618   36.0715 C   0  0  0  0  0  0  0  0  0  0  0  0
    7.4802    1.8496   35.3680 O   0  0  0  0  0  0  0  0  0  0  0  0
    7.4189    4.8813   35.0833 N   0  0  0  0  0  0  0  0  0  0  0  0
    7.7498    6.1536   35.4170 C   0  0  0  0  0  0  0  0  0  0  0  0
    8.5559    6.2331   36.4410 N   0  0  0  0  0  0  0  0  0  0  0  0
  1  2  1  0  0  0  0
  2  3  1  0  0  0  0
  2  9  1  0  0  0  0
  3  4  2  0  0  0  0
  3  6  1  0  0  0  0
  6  5  1  0  0  0  0
  6  7  1  0  0  0  0
  7  8  2  0  0  0  0
  7 13  1  0  0  0  0
  8  9  1  0  0  0  0
  8 11  1  0  0  0  0
  9 10  2  0  0  0  0
 11 12  1  0  0  0  0
 12 13  2  0  0  0  0
M  END
>  <CHROM.1>
8.74284064,3.73840999,36.85039824,1.07467564,0.90504111,3.07300701

>  <Name>
1o15_lig

>  <RI>
0

>  <Rbt.Current_Directory>
/home/itssahil/PROJECTS/Mol_Feturizer/New_Systems/rnas/1o15

>  <Rbt.Executable>
rbdock ($Id: //depot/dev/client3/rdock/2013.1/src/exe/rbdock.cxx#4 $)

>  <Rbt.Library>
libRbt.so (2013.1, Build901 2013/11/27)

>  <Rbt.Parameter_File>
/export/apps/rDock/src/rDock_2013.1_src/data/scripts/dock_solv.prm

>  <Rbt.Receptor>
prm/pocket_docking_3.prm

>  <SCORE>
-23.4581

>  <SCORE.INTER>
-23.4581

>  <SCORE.INTER.CONST>
1

>  <SCORE.INTER.POLAR>
-2.12706

>  <SCORE.INTER.ROT>
0

>  <SCORE.INTER.SOLV>
6.88363

>  <SCORE.INTER.VDW>
-14.4431

>  <SCORE.INTER.norm>
-1.80447

>  <SCORE.INTRA>
0

>  <SCORE.INTRA.DIHEDRAL>
0

>  <SCORE.INTRA.DIHEDRAL.0>
0

>  <SCORE.INTRA.POLAR>
0

>  <SCORE.INTRA.POLAR.0>
0

>  <SCORE.INTRA.REPUL>
0

>  <SCORE.INTRA.REPUL.0>
0

>  <SCORE.INTRA.SOLV>
0

>  <SCORE.INTRA.SOLV.lig_0>
-12.9184

>  <SCORE.INTRA.VDW>
0

>  <SCORE.INTRA.VDW.0>
0

>  <SCORE.INTRA.norm>
0

>  <SCORE.RESTR>
0

>  <SCORE.RESTR.CAVITY>
0

>  <SCORE.RESTR.norm>
0

>  <SCORE.SYSTEM>
0

>  <SCORE.SYSTEM.CONST>
0

>  <SCORE.SYSTEM.DIHEDRAL>
0

>  <SCORE.SYSTEM.SOLV>
0

>  <SCORE.SYSTEM.norm>
0

>  <SCORE.heavy>
13

>  <SCORE.norm>
-1.80447

>  <RMSD>
1.103

$$$$
1o15_lig
 OpenBabel11021811403D
libRbt.so/2013.1/901 2013/11/27
 13 14  0  0  0  0  0  0  0  0999 V2000
    8.9578    0.8964   37.3164 C   0  0  0  0  0  0  0  0  0  0  0  0
    8.8546    2.2520   37.0951 N   0  0  0  0  0  0  0  0  0  0  0  0
    9.5466    3.0817   37.9195 C   0  0  0  0  0  0  0  0  0  0  0  0
   10.2054    2.5361   38.8011 O   0  0  0  0  0  0  0  0  0  0  0  0
   10.2568    5.2638   38.6826 C   0  0  0  0  0  0  0  0  0  0  0  0
    9.5471    4.4458   37.8297 N   0  0  0  0  0  0  0  0  0  0  0  0
    8.7755    4.9122   36.8107 C   0  0  0  0  0  0  0  0  0  0  0  0
    8.0872    4.0684   35.9881 C   0  0  0  0  0  0  0  0  0  0  0  0
    8.0790    2.6636   36.0717 C   0  0  0  0  0  0  0  0  0  0  0  0
    7.4851    1.8510   35.3675 O   0  0  0  0  0  0  0  0  0  0  0  0
    7.4214    4.8827   35.0833 N   0  0  0  0  0  0  0  0  0  0  0  0
    7.7509    6.1552   35.4175 C   0  0  0  0  0  0  0  0  0  0  0  0
    8.5560    6.2353   36.4423 N   0  0  0  0  0  0  0  0  0  0  0  0
  1  2  1  0  0  0  0
  2  3  1  0  0  0  0
  2  9  1  0  0  0  0
  3  4  2  0  0  0  0
  3  6  1  0  0  0  0
  6  5  1  0  0  0  0
  6  7  1  0  0  0  0
  7  8  2  0  0  0  0
  7 13  1  0  0  0  0
  8  9  1  0  0  0  0
  8 11  1  0  0  0  0
  9 10  2  0  0  0  0
 11 12  1  0  0  0  0
 12 13  2  0  0  0  0
M  END
>  <CHROM.1>
8.74464657,3.74066404,36.85140739,1.07339463,0.90605006,3.07417356

>  <Name>
1o15_lig

>  <RI>
0

>  <Rbt.Current_Directory>
/home/itssahil/PROJECTS/Mol_Feturizer/New_Systems/rnas/1o15

>  <Rbt.Executable>
rbdock ($Id: //depot/dev/client3/rdock/2013.1/src/exe/rbdock.cxx#4 $)

>  <Rbt.Library>
libRbt.so (2013.1, Build901 2013/11/27)

>  <Rbt.Parameter_File>
/export/apps/rDock/src/rDock_2013.1_src/data/scripts/dock_solv.prm

>  <Rbt.Receptor>
prm/pocket_docking_3.prm

>  <SCORE>
-23.466

>  <SCORE.INTER>
-23.466

>  <SCORE.INTER.CONST>
1

>  <SCORE.INTER.POLAR>
-2.12882

>  <SCORE.INTER.ROT>
0

>  <SCORE.INTER.SOLV>
6.87894

>  <SCORE.INTER.VDW>
-14.4409

>  <SCORE.INTER.norm>
-1.80508

>  <SCORE.INTRA>
0

>  <SCORE.INTRA.DIHEDRAL>
0

>  <SCORE.INTRA.DIHEDRAL.0>
0

>  <SCORE.INTRA.POLAR>
0

>  <SCORE.INTRA.POLAR.0>
0

>  <SCORE.INTRA.REPUL>
0

>  <SCORE.INTRA.REPUL.0>
0

>  <SCORE.INTRA.SOLV>
0

>  <SCORE.INTRA.SOLV.lig_0>
-12.9184

>  <SCORE.INTRA.VDW>
0

>  <SCORE.INTRA.VDW.0>
0

>  <SCORE.INTRA.norm>
0

>  <SCORE.RESTR>
0

>  <SCORE.RESTR.CAVITY>
0

>  <SCORE.RESTR.norm>
0

>  <SCORE.SYSTEM>
0

>  <SCORE.SYSTEM.CONST>
0

>  <SCORE.SYSTEM.DIHEDRAL>
0

>  <SCORE.SYSTEM.SOLV>
0

>  <SCORE.SYSTEM.norm>
0

>  <SCORE.heavy>
13

>  <SCORE.norm>
-1.80508

>  <RMSD>
1.103

$$$$
1o15_lig
 OpenBabel11021811403D
libRbt.so/2013.1/901 2013/11/27
 13 14  0  0  0  0  0  0  0  0999 V2000
    8.9526    0.8960   37.3186 C   0  0  0  0  0  0  0  0  0  0  0  0
    8.8509    2.2516   37.0966 N   0  0  0  0  0  0  0  0  0  0  0  0
    9.5437    3.0810   37.9206 C   0  0  0  0  0  0  0  0  0  0  0  0
   10.2018    2.5351   38.8025 O   0  0  0  0  0  0  0  0  0  0  0  0
   10.2562    5.2627   38.6827 C   0  0  0  0  0  0  0  0  0  0  0  0
    9.5457    4.4450   37.8301 N   0  0  0  0  0  0  0  0  0  0  0  0
    8.7747    4.9117   36.8108 C   0  0  0  0  0  0  0  0  0  0  0  0
    8.0856    4.0682   35.9885 C   0  0  0  0  0  0  0  0  0  0  0  0
    8.0758    2.6635   36.0729 C   0  0  0  0  0  0  0  0  0  0  0  0
    7.4811    1.8512   35.3691 O   0  0  0  0  0  0  0  0  0  0  0  0
    7.4207    4.8828   35.0832 N   0  0  0  0  0  0  0  0  0  0  0  0
    7.7516    6.1551   35.4168 C   0  0  0  0  0  0  0  0  0  0  0  0
    8.5567    6.2348   36.4416 N   0  0  0  0  0  0  0  0  0  0  0  0
  1  2  1  0  0  0  0
  2  3  1  0  0  0  0
  2  9  1  0  0  0  0
  3  4  2  0  0  0  0
  3  6  1  0  0  0  0
  6  5  1  0  0  0  0
  6  7  1  0  0  0  0
  7  8  2  0  0  0  0
  7 13  1  0  0  0  0
  8  9  1  0  0  0  0
  8 11  1  0  0  0  0
  9 10  2  0  0  0  0
 11 12  1  0  0  0  0
 12 13  2  0  0  0  0
M  END
>  <CHROM.1>
8.74256565,3.74023916,36.85210624,1.07516210,0.90607561,3.07225309

>  <Name>
1o15_lig

>  <RI>
0

>  <Rbt.Current_Directory>
/home/itssahil/PROJECTS/Mol_Feturizer/New_Systems/rnas/1o15

>  <Rbt.Executable>
rbdock ($Id: //depot/dev/client3/rdock/2013.1/src/exe/rbdock.cxx#4 $)

>  <Rbt.Library>
libRbt.so (2013.1, Build901 2013/11/27)

>  <Rbt.Parameter_File>
/export/apps/rDock/src/rDock_2013.1_src/data/scripts/dock_solv.prm

>  <Rbt.Receptor>
prm/pocket_docking_3.prm

>  <SCORE>
-23.4681

>  <SCORE.INTER>
-23.4681

>  <SCORE.INTER.CONST>
1

>  <SCORE.INTER.POLAR>
-2.12914

>  <SCORE.INTER.ROT>
0

>  <SCORE.INTER.SOLV>
6.88897

>  <SCORE.INTER.VDW>
-14.4446

>  <SCORE.INTER.norm>
-1.80524

>  <SCORE.INTRA>
0

>  <SCORE.INTRA.DIHEDRAL>
0

>  <SCORE.INTRA.DIHEDRAL.0>
0

>  <SCORE.INTRA.POLAR>
0

>  <SCORE.INTRA.POLAR.0>
0

>  <SCORE.INTRA.REPUL>
0

>  <SCORE.INTRA.REPUL.0>
0

>  <SCORE.INTRA.SOLV>
0

>  <SCORE.INTRA.SOLV.lig_0>
-12.9184

>  <SCORE.INTRA.VDW>
0

>  <SCORE.INTRA.VDW.0>
0

>  <SCORE.INTRA.norm>
0

>  <SCORE.RESTR>
0

>  <SCORE.RESTR.CAVITY>
0

>  <SCORE.RESTR.norm>
0

>  <SCORE.SYSTEM>
0

>  <SCORE.SYSTEM.CONST>
0

>  <SCORE.SYSTEM.DIHEDRAL>
0

>  <SCORE.SYSTEM.SOLV>
0

>  <SCORE.SYSTEM.norm>
0

>  <SCORE.heavy>
13

>  <SCORE.norm>
-1.80524

>  <RMSD>
1.104

$$$$
1o15_lig
 OpenBabel11021811403D
libRbt.so/2013.1/901 2013/11/27
 13 14  0  0  0  0  0  0  0  0999 V2000
    9.0891    0.9426   37.2961 C   0  0  0  0  0  0  0  0  0  0  0  0
    8.9368    2.2949   37.0831 N   0  0  0  0  0  0  0  0  0  0  0  0
    9.5991    3.1441   37.9119 C   0  0  0  0  0  0  0  0  0  0  0  0
   10.2781    2.6174   38.7896 O   0  0  0  0  0  0  0  0  0  0  0  0
   10.2308    5.3458   38.6876 C   0  0  0  0  0  0  0  0  0  0  0  0
    9.5502    4.5078   37.8303 N   0  0  0  0  0  0  0  0  0  0  0  0
    8.7612    4.9521   36.8148 C   0  0  0  0  0  0  0  0  0  0  0  0
    8.1031    4.0889   35.9876 C   0  0  0  0  0  0  0  0  0  0  0  0
    8.1457    2.6842   36.0628 C   0  0  0  0  0  0  0  0  0  0  0  0
    7.5809    1.8550   35.3542 O   0  0  0  0  0  0  0  0  0  0  0  0
    7.4074    4.8840   35.0882 N   0  0  0  0  0  0  0  0  0  0  0  0
    7.6910    6.1656   35.4298 C   0  0  0  0  0  0  0  0  0  0  0  0
    8.4937    6.2685   36.4544 N   0  0  0  0  0  0  0  0  0  0  0  0
  1  2  1  0  0  0  0
  2  3  1  0  0  0  0
  2  9  1  0  0  0  0
  3  4  2  0  0  0  0
  3  6  1  0  0  0  0
  6  5  1  0  0  0  0
  6  7  1  0  0  0  0
  7  8  2  0  0  0  0
  7 13  1  0  0  0  0
  8  9  1  0  0  0  0
  8 11  1  0  0  0  0
  9 10  2  0  0  0  0
 11 12  1  0  0  0  0
 12 13  2  0  0  0  0
M  END
>  <CHROM.1>
8.77281618,3.78000723,36.84840825,1.01473127,0.90664765,3.12635412

>  <Name>
1o15_lig

>  <RI>
0

>  <Rbt.Current_Directory>
/home/itssahil/PROJECTS/Mol_Feturizer/New_Systems/rnas/1o15

>  <Rbt.Executable>
rbdock ($Id: //depot/dev/client3/rdock/2013.1/src/exe/rbdock.cxx#4 $)

>  <Rbt.Library>
libRbt.so (2013.1, Build901 2013/11/27)

>  <Rbt.Parameter_File>
/export/apps/rDock/src/rDock_2013.1_src/data/scripts/dock_solv.prm

>  <Rbt.Receptor>
prm/pocket_docking_3.prm

>  <SCORE>
-23.413

>  <SCORE.INTER>
-23.413

>  <SCORE.INTER.CONST>
1

>  <SCORE.INTER.POLAR>
-2.0977

>  <SCORE.INTER.ROT>
0

>  <SCORE.INTER.SOLV>
6.79058

>  <SCORE.INTER.VDW>
-14.4799

>  <SCORE.INTER.norm>
-1.801

>  <SCORE.INTRA>
0

>  <SCORE.INTRA.DIHEDRAL>
0

>  <SCORE.INTRA.DIHEDRAL.0>
0

>  <SCORE.INTRA.POLAR>
0

>  <SCORE.INTRA.POLAR.0>
0

>  <SCORE.INTRA.REPUL>
0

>  <SCORE.INTRA.REPUL.0>
0

>  <SCORE.INTRA.SOLV>
0

>  <SCORE.INTRA.SOLV.lig_0>
-12.9184

>  <SCORE.INTRA.VDW>
0

>  <SCORE.INTRA.VDW.0>
0

>  <SCORE.INTRA.norm>
0

>  <SCORE.RESTR>
0

>  <SCORE.RESTR.CAVITY>
0

>  <SCORE.RESTR.norm>
0

>  <SCORE.SYSTEM>
0

>  <SCORE.SYSTEM.CONST>
0

>  <SCORE.SYSTEM.DIHEDRAL>
0

>  <SCORE.SYSTEM.SOLV>
0

>  <SCORE.SYSTEM.norm>
0

>  <SCORE.heavy>
13

>  <SCORE.norm>
-1.801

>  <RMSD>
1.105

$$$$
1o15_lig
 OpenBabel11021811403D
libRbt.so/2013.1/901 2013/11/27
 13 14  0  0  0  0  0  0  0  0999 V2000
    8.9772    0.8895   37.2688 C   0  0  0  0  0  0  0  0  0  0  0  0
    8.8643    2.2468   37.0634 N   0  0  0  0  0  0  0  0  0  0  0  0
    9.5526    3.0717   37.8956 C   0  0  0  0  0  0  0  0  0  0  0  0
   10.2172    2.5205   38.7693 O   0  0  0  0  0  0  0  0  0  0  0  0
   10.2500    5.2496   38.6821 C   0  0  0  0  0  0  0  0  0  0  0  0
    9.5438    4.4367   37.8214 N   0  0  0  0  0  0  0  0  0  0  0  0
    8.7666    4.9094   36.8097 C   0  0  0  0  0  0  0  0  0  0  0  0
    8.0820    4.0705   35.9790 C   0  0  0  0  0  0  0  0  0  0  0  0
    8.0834    2.6648   36.0466 C   0  0  0  0  0  0  0  0  0  0  0  0
    7.4934    1.8564   35.3344 O   0  0  0  0  0  0  0  0  0  0  0  0
    7.4086    4.8906   35.0851 N   0  0  0  0  0  0  0  0  0  0  0  0
    7.7303    6.1614   35.4331 C   0  0  0  0  0  0  0  0  0  0  0  0
    8.5373    6.2352   36.4569 N   0  0  0  0  0  0  0  0  0  0  0  0
  1  2  1  0  0  0  0
  2  3  1  0  0  0  0
  2  9  1  0  0  0  0
  3  4  2  0  0  0  0
  3  6  1  0  0  0  0
  6  5  1  0  0  0  0
  6  7  1  0  0  0  0
  7  8  2  0  0  0  0
  7 13  1  0  0  0  0
  8  9  1  0  0  0  0
  8 11  1  0  0  0  0
  9 10  2  0  0  0  0
 11 12  1  0  0  0  0
 12 13  2  0  0  0  0
M  END
>  <CHROM.1>
8.74372310,3.73737363,36.83698689,1.06226791,0.90409156,3.09436976

>  <Name>
1o15_lig

>  <RI>
0

>  <Rbt.Current_Directory>
/home/itssahil/PROJECTS/Mol_Feturizer/New_Systems/rnas/1o15

>  <Rbt.Executable>
rbdock ($Id: //depot/dev/client3/rdock/2013.1/src/exe/rbdock.cxx#4 $)

>  <Rbt.Library>
libRbt.so (2013.1, Build901 2013/11/27)

>  <Rbt.Parameter_File>
/export/apps/rDock/src/rDock_2013.1_src/data/scripts/dock_solv.prm

>  <Rbt.Receptor>
prm/pocket_docking_2.prm

>  <SCORE>
-23.3991

>  <SCORE.INTER>
-23.3991

>  <SCORE.INTER.CONST>
1

>  <SCORE.INTER.POLAR>
-2.11926

>  <SCORE.INTER.ROT>
0

>  <SCORE.INTER.SOLV>
6.85565

>  <SCORE.INTER.VDW>
-14.4204

>  <SCORE.INTER.norm>
-1.79993

>  <SCORE.INTRA>
0

>  <SCORE.INTRA.DIHEDRAL>
0

>  <SCORE.INTRA.DIHEDRAL.0>
0

>  <SCORE.INTRA.POLAR>
0

>  <SCORE.INTRA.POLAR.0>
0

>  <SCORE.INTRA.REPUL>
0

>  <SCORE.INTRA.REPUL.0>
0

>  <SCORE.INTRA.SOLV>
0

>  <SCORE.INTRA.SOLV.lig_0>
-12.9184

>  <SCORE.INTRA.VDW>
0

>  <SCORE.INTRA.VDW.0>
0

>  <SCORE.INTRA.norm>
0

>  <SCORE.RESTR>
0

>  <SCORE.RESTR.CAVITY>
0

>  <SCORE.RESTR.norm>
0

>  <SCORE.SYSTEM>
0

>  <SCORE.SYSTEM.CONST>
0

>  <SCORE.SYSTEM.DIHEDRAL>
0

>  <SCORE.SYSTEM.SOLV>
0

>  <SCORE.SYSTEM.norm>
0

>  <SCORE.heavy>
13

>  <SCORE.norm>
-1.79993

>  <RMSD>
1.107

$$$$
1o15_lig
 OpenBabel11021811403D
libRbt.so/2013.1/901 2013/11/27
 13 14  0  0  0  0  0  0  0  0999 V2000
    8.9840    0.9292   37.3560 C   0  0  0  0  0  0  0  0  0  0  0  0
    8.8706    2.2817   37.1211 N   0  0  0  0  0  0  0  0  0  0  0  0
    9.5561    3.1248   37.9373 C   0  0  0  0  0  0  0  0  0  0  0  0
   10.2187    2.5931   38.8245 O   0  0  0  0  0  0  0  0  0  0  0  0
   10.2496    5.3197   38.6787 C   0  0  0  0  0  0  0  0  0  0  0  0
    9.5464    4.4879   37.8338 N   0  0  0  0  0  0  0  0  0  0  0  0
    8.7716    4.9382   36.8100 C   0  0  0  0  0  0  0  0  0  0  0  0
    8.0900    4.0810   35.9957 C   0  0  0  0  0  0  0  0  0  0  0  0
    8.0923    2.6771   36.0934 C   0  0  0  0  0  0  0  0  0  0  0  0
    7.5048    1.8531   35.3972 O   0  0  0  0  0  0  0  0  0  0  0  0
    7.4184    4.8812   35.0825 N   0  0  0  0  0  0  0  0  0  0  0  0
    7.7382    6.1594   35.4041 C   0  0  0  0  0  0  0  0  0  0  0  0
    8.5423    6.2558   36.4282 N   0  0  0  0  0  0  0  0  0  0  0  0
  1  2  1  0  0  0  0
  2  3  1  0  0  0  0
  2  9  1  0  0  0  0
  3  4  2  0  0  0  0
  3  6  1  0  0  0  0
  6  5  1  0  0  0  0
  6  7  1  0  0  0  0
  7  8  2  0  0  0  0
  7 13  1  0  0  0  0
  8  9  1  0  0  0  0
  8 11  1  0  0  0  0
  9 10  2  0  0  0  0
 11 12  1  0  0  0  0
 12 13  2  0  0  0  0
M  END
>  <CHROM.1>
8.74957801,3.76695404,36.86243363,1.06125786,0.90687680,3.07369347

>  <Name>
1o15_lig

>  <RI>
0

>  <Rbt.Current_Directory>
/home/itssahil/PROJECTS/Mol_Feturizer/New_Systems/rnas/1o15

>  <Rbt.Executable>
rbdock ($Id: //depot/dev/client3/rdock/2013.1/src/exe/rbdock.cxx#4 $)

>  <Rbt.Library>
libRbt.so (2013.1, Build901 2013/11/27)

>  <Rbt.Parameter_File>
/export/apps/rDock/src/rDock_2013.1_src/data/scripts/dock_solv.prm

>  <Rbt.Receptor>
prm/pocket_docking_3.prm

>  <SCORE>
-23.4478

>  <SCORE.INTER>
-23.4478

>  <SCORE.INTER.CONST>
1

>  <SCORE.INTER.POLAR>
-2.11776

>  <SCORE.INTER.ROT>
0

>  <SCORE.INTER.SOLV>
6.91253

>  <SCORE.INTER.VDW>
-14.4768

>  <SCORE.INTER.norm>
-1.80368

>  <SCORE.INTRA>
0

>  <SCORE.INTRA.DIHEDRAL>
0

>  <SCORE.INTRA.DIHEDRAL.0>
0

>  <SCORE.INTRA.POLAR>
0

>  <SCORE.INTRA.POLAR.0>
0

>  <SCORE.INTRA.REPUL>
0

>  <SCORE.INTRA.REPUL.0>
0

>  <SCORE.INTRA.SOLV>
0

>  <SCORE.INTRA.SOLV.lig_0>
-12.9184

>  <SCORE.INTRA.VDW>
0

>  <SCORE.INTRA.VDW.0>
0

>  <SCORE.INTRA.norm>
0

>  <SCORE.RESTR>
0

>  <SCORE.RESTR.CAVITY>
0

>  <SCORE.RESTR.norm>
0

>  <SCORE.SYSTEM>
0

>  <SCORE.SYSTEM.CONST>
0

>  <SCORE.SYSTEM.DIHEDRAL>
0

>  <SCORE.SYSTEM.SOLV>
0

>  <SCORE.SYSTEM.norm>
0

>  <SCORE.heavy>
13

>  <SCORE.norm>
-1.80368

>  <RMSD>
1.108

$$$$
1o15_lig
 OpenBabel11021811403D
libRbt.so/2013.1/901 2013/11/27
 13 14  0  0  0  0  0  0  0  0999 V2000
    8.4376    0.7039   37.4319 C   0  0  0  0  0  0  0  0  0  0  0  0
    8.7600    1.9877   37.0506 N   0  0  0  0  0  0  0  0  0  0  0  0
    9.4198    2.7667   37.9475 C   0  0  0  0  0  0  0  0  0  0  0  0
    9.6662    2.2461   39.0324 O   0  0  0  0  0  0  0  0  0  0  0  0
   10.4742    4.8264   38.6506 C   0  0  0  0  0  0  0  0  0  0  0  0
    9.8081    4.0576   37.7202 N   0  0  0  0  0  0  0  0  0  0  0  0
    9.4699    4.5045   36.4804 C   0  0  0  0  0  0  0  0  0  0  0  0
    8.8093    3.7114   35.5877 C   0  0  0  0  0  0  0  0  0  0  0  0
    8.4045    2.3822   35.8111 C   0  0  0  0  0  0  0  0  0  0  0  0
    7.8104    1.6179   35.0549 O   0  0  0  0  0  0  0  0  0  0  0  0
    8.6342    4.4870   34.4507 N   0  0  0  0  0  0  0  0  0  0  0  0
    9.1980    5.6883   34.7309 C   0  0  0  0  0  0  0  0  0  0  0  0
    9.7123    5.7582   35.9290 N   0  0  0  0  0  0  0  0  0  0  0  0
  1  2  1  0  0  0  0
  2  3  1  0  0  0  0
  2  9  1  0  0  0  0
  3  4  2  0  0  0  0
  3  6  1  0  0  0  0
  6  5  1  0  0  0  0
  6  7  1  0  0  0  0
  7  8  2  0  0  0  0
  7 13  1  0  0  0  0
  8  9  1  0  0  0  0
  8 11  1  0  0  0  0
  9 10  2  0  0  0  0
 11 12  1  0  0  0  0
 12 13  2  0  0  0  0
M  END
>  <CHROM.1>
9.11732255,3.39650572,36.63218322,1.70079330,1.06569598,2.40007025

>  <Name>
1o15_lig

>  <RI>
0

>  <Rbt.Current_Directory>
/home/itssahil/PROJECTS/Mol_Feturizer/New_Systems/rnas/1o15

>  <Rbt.Executable>
rbdock ($Id: //depot/dev/client3/rdock/2013.1/src/exe/rbdock.cxx#4 $)

>  <Rbt.Library>
libRbt.so (2013.1, Build901 2013/11/27)

>  <Rbt.Parameter_File>
/export/apps/rDock/src/rDock_2013.1_src/data/scripts/dock_solv.prm

>  <Rbt.Receptor>
prm/pocket_docking_3.prm

>  <SCORE>
-22.743

>  <SCORE.INTER>
-22.743

>  <SCORE.INTER.CONST>
1

>  <SCORE.INTER.POLAR>
-2.13022

>  <SCORE.INTER.ROT>
0

>  <SCORE.INTER.SOLV>
6.29728

>  <SCORE.INTER.VDW>
-13.7603

>  <SCORE.INTER.norm>
-1.74946

>  <SCORE.INTRA>
0

>  <SCORE.INTRA.DIHEDRAL>
0

>  <SCORE.INTRA.DIHEDRAL.0>
0

>  <SCORE.INTRA.POLAR>
0

>  <SCORE.INTRA.POLAR.0>
0

>  <SCORE.INTRA.REPUL>
0

>  <SCORE.INTRA.REPUL.0>
0

>  <SCORE.INTRA.SOLV>
0

>  <SCORE.INTRA.SOLV.lig_0>
-12.9184

>  <SCORE.INTRA.VDW>
0

>  <SCORE.INTRA.VDW.0>
0

>  <SCORE.INTRA.norm>
0

>  <SCORE.RESTR>
0

>  <SCORE.RESTR.CAVITY>
0

>  <SCORE.RESTR.norm>
0

>  <SCORE.SYSTEM>
0

>  <SCORE.SYSTEM.CONST>
0

>  <SCORE.SYSTEM.DIHEDRAL>
0

>  <SCORE.SYSTEM.SOLV>
0

>  <SCORE.SYSTEM.norm>
0

>  <SCORE.heavy>
13

>  <SCORE.norm>
-1.74946

>  <RMSD>
1.109

$$$$
1o15_lig
 OpenBabel11021811403D
libRbt.so/2013.1/901 2013/11/27
 13 14  0  0  0  0  0  0  0  0999 V2000
    8.9263    0.9053   37.3597 C   0  0  0  0  0  0  0  0  0  0  0  0
    8.8324    2.2594   37.1251 N   0  0  0  0  0  0  0  0  0  0  0  0
    9.5268    3.0926   37.9437 C   0  0  0  0  0  0  0  0  0  0  0  0
   10.1792    2.5514   38.8328 O   0  0  0  0  0  0  0  0  0  0  0  0
   10.2483    5.2774   38.6882 C   0  0  0  0  0  0  0  0  0  0  0  0
    9.5363    4.4557   37.8408 N   0  0  0  0  0  0  0  0  0  0  0  0
    8.7711    4.9170   36.8147 C   0  0  0  0  0  0  0  0  0  0  0  0
    8.0803    4.0697   35.9979 C   0  0  0  0  0  0  0  0  0  0  0  0
    8.0628    2.6659   36.0951 C   0  0  0  0  0  0  0  0  0  0  0  0
    7.4662    1.8503   35.3967 O   0  0  0  0  0  0  0  0  0  0  0  0
    7.4227    4.8794   35.0830 N   0  0  0  0  0  0  0  0  0  0  0  0
    7.7591    6.1530   35.4060 C   0  0  0  0  0  0  0  0  0  0  0  0
    8.5612    6.2379   36.4327 N   0  0  0  0  0  0  0  0  0  0  0  0
  1  2  1  0  0  0  0
  2  3  1  0  0  0  0
  2  9  1  0  0  0  0
  3  4  2  0  0  0  0
  3  6  1  0  0  0  0
  6  5  1  0  0  0  0
  6  7  1  0  0  0  0
  7  8  2  0  0  0  0
  7 13  1  0  0  0  0
  8  9  1  0  0  0  0
  8 11  1  0  0  0  0
  9 10  2  0  0  0  0
 11 12  1  0  0  0  0
 12 13  2  0  0  0  0
M  END
>  <CHROM.1>
8.73270714,3.74621580,36.86659550,1.08404486,0.90896338,3.05611985

>  <Name>
1o15_lig

>  <RI>
0

>  <Rbt.Current_Directory>
/home/itssahil/PROJECTS/Mol_Feturizer/New_Systems/rnas/1o15

>  <Rbt.Executable>
rbdock ($Id: //depot/dev/client3/rdock/2013.1/src/exe/rbdock.cxx#4 $)

>  <Rbt.Library>
libRbt.so (2013.1, Build901 2013/11/27)

>  <Rbt.Parameter_File>
/export/apps/rDock/src/rDock_2013.1_src/data/scripts/dock_solv.prm

>  <Rbt.Receptor>
prm/pocket_docking_3.prm

>  <SCORE>
-23.3861

>  <SCORE.INTER>
-23.3861

>  <SCORE.INTER.CONST>
1

>  <SCORE.INTER.POLAR>
-2.13129

>  <SCORE.INTER.ROT>
0

>  <SCORE.INTER.SOLV>
6.96419

>  <SCORE.INTER.VDW>
-14.4078

>  <SCORE.INTER.norm>
-1.79893

>  <SCORE.INTRA>
0

>  <SCORE.INTRA.DIHEDRAL>
0

>  <SCORE.INTRA.DIHEDRAL.0>
0

>  <SCORE.INTRA.POLAR>
0

>  <SCORE.INTRA.POLAR.0>
0

>  <SCORE.INTRA.REPUL>
0

>  <SCORE.INTRA.REPUL.0>
0

>  <SCORE.INTRA.SOLV>
0

>  <SCORE.INTRA.SOLV.lig_0>
-12.9184

>  <SCORE.INTRA.VDW>
0

>  <SCORE.INTRA.VDW.0>
0

>  <SCORE.INTRA.norm>
0

>  <SCORE.RESTR>
0

>  <SCORE.RESTR.CAVITY>
0

>  <SCORE.RESTR.norm>
0

>  <SCORE.SYSTEM>
0

>  <SCORE.SYSTEM.CONST>
0

>  <SCORE.SYSTEM.DIHEDRAL>
0

>  <SCORE.SYSTEM.SOLV>
0

>  <SCORE.SYSTEM.norm>
0

>  <SCORE.heavy>
13

>  <SCORE.norm>
-1.79893

>  <RMSD>
1.110

$$$$
1o15_lig
 OpenBabel11021811403D
libRbt.so/2013.1/901 2013/11/27
 13 14  0  0  0  0  0  0  0  0999 V2000
    9.0247    0.9288   37.3138 C   0  0  0  0  0  0  0  0  0  0  0  0
    8.8948    2.2824   37.0941 N   0  0  0  0  0  0  0  0  0  0  0  0
    9.5702    3.1247   37.9194 C   0  0  0  0  0  0  0  0  0  0  0  0
   10.2396    2.5912   38.8004 O   0  0  0  0  0  0  0  0  0  0  0  0
   10.2372    5.3195   38.6851 C   0  0  0  0  0  0  0  0  0  0  0  0
    9.5438    4.4886   37.8312 N   0  0  0  0  0  0  0  0  0  0  0  0
    8.7631    4.9408   36.8127 C   0  0  0  0  0  0  0  0  0  0  0  0
    8.0917    4.0845   35.9890 C   0  0  0  0  0  0  0  0  0  0  0  0
    8.1112    2.6797   36.0711 C   0  0  0  0  0  0  0  0  0  0  0  0
    7.5335    1.8564   35.3659 O   0  0  0  0  0  0  0  0  0  0  0  0
    7.4100    4.8865   35.0851 N   0  0  0  0  0  0  0  0  0  0  0  0
    7.7143    6.1649   35.4207 C   0  0  0  0  0  0  0  0  0  0  0  0
    8.5176    6.2597   36.4457 N   0  0  0  0  0  0  0  0  0  0  0  0
  1  2  1  0  0  0  0
  2  3  1  0  0  0  0
  2  9  1  0  0  0  0
  3  4  2  0  0  0  0
  3  6  1  0  0  0  0
  6  5  1  0  0  0  0
  6  7  1  0  0  0  0
  7  8  2  0  0  0  0
  7 13  1  0  0  0  0
  8  9  1  0  0  0  0
  8 11  1  0  0  0  0
  9 10  2  0  0  0  0
 11 12  1  0  0  0  0
 12 13  2  0  0  0  0
M  END
>  <CHROM.1>
8.75545135,3.76886937,36.85203149,1.04139471,0.90718341,3.10049965

>  <Name>
1o15_lig

>  <RI>
0

>  <Rbt.Current_Directory>
/home/itssahil/PROJECTS/Mol_Feturizer/New_Systems/rnas/1o15

>  <Rbt.Executable>
rbdock ($Id: //depot/dev/client3/rdock/2013.1/src/exe/rbdock.cxx#4 $)

>  <Rbt.Library>
libRbt.so (2013.1, Build901 2013/11/27)

>  <Rbt.Parameter_File>
/export/apps/rDock/src/rDock_2013.1_src/data/scripts/dock_solv.prm

>  <Rbt.Receptor>
prm/pocket_docking_3.prm

>  <SCORE>
-23.4179

>  <SCORE.INTER>
-23.4179

>  <SCORE.INTER.CONST>
1

>  <SCORE.INTER.POLAR>
-2.1105

>  <SCORE.INTER.ROT>
0

>  <SCORE.INTER.SOLV>
6.86545

>  <SCORE.INTER.VDW>
-14.4654

>  <SCORE.INTER.norm>
-1.80137

>  <SCORE.INTRA>
0

>  <SCORE.INTRA.DIHEDRAL>
0

>  <SCORE.INTRA.DIHEDRAL.0>
0

>  <SCORE.INTRA.POLAR>
0

>  <SCORE.INTRA.POLAR.0>
0

>  <SCORE.INTRA.REPUL>
0

>  <SCORE.INTRA.REPUL.0>
0

>  <SCORE.INTRA.SOLV>
0

>  <SCORE.INTRA.SOLV.lig_0>
-12.9184

>  <SCORE.INTRA.VDW>
0

>  <SCORE.INTRA.VDW.0>
0

>  <SCORE.INTRA.norm>
0

>  <SCORE.RESTR>
0

>  <SCORE.RESTR.CAVITY>
0

>  <SCORE.RESTR.norm>
0

>  <SCORE.SYSTEM>
0

>  <SCORE.SYSTEM.CONST>
0

>  <SCORE.SYSTEM.DIHEDRAL>
0

>  <SCORE.SYSTEM.SOLV>
0

>  <SCORE.SYSTEM.norm>
0

>  <SCORE.heavy>
13

>  <SCORE.norm>
-1.80137

>  <RMSD>
1.110

$$$$
1o15_lig
 OpenBabel11021811403D
libRbt.so/2013.1/901 2013/11/27
 13 14  0  0  0  0  0  0  0  0999 V2000
   10.1780    0.9070   36.3042 C   0  0  0  0  0  0  0  0  0  0  0  0
    9.8055    2.2327   36.3404 N   0  0  0  0  0  0  0  0  0  0  0  0
   10.4654    3.0516   37.2011 C   0  0  0  0  0  0  0  0  0  0  0  0
   11.3423    2.5231   37.8797 O   0  0  0  0  0  0  0  0  0  0  0  0
   10.8970    5.1934   38.2378 C   0  0  0  0  0  0  0  0  0  0  0  0
   10.2133    4.3865   37.3536 N   0  0  0  0  0  0  0  0  0  0  0  0
    9.2185    4.8362   36.5416 C   0  0  0  0  0  0  0  0  0  0  0  0
    8.5650    4.0042   35.6796 C   0  0  0  0  0  0  0  0  0  0  0  0
    8.8157    2.6292   35.5149 C   0  0  0  0  0  0  0  0  0  0  0  0
    8.2674    1.8285   34.7618 O   0  0  0  0  0  0  0  0  0  0  0  0
    7.6306    4.7950   35.0265 N   0  0  0  0  0  0  0  0  0  0  0  0
    7.7823    6.0437   35.5339 C   0  0  0  0  0  0  0  0  0  0  0  0
    8.7151    6.1291   36.4435 N   0  0  0  0  0  0  0  0  0  0  0  0
  1  2  1  0  0  0  0
  2  3  1  0  0  0  0
  2  9  1  0  0  0  0
  3  4  2  0  0  0  0
  3  6  1  0  0  0  0
  6  5  1  0  0  0  0
  6  7  1  0  0  0  0
  7  8  2  0  0  0  0
  7 13  1  0  0  0  0
  8  9  1  0  0  0  0
  8 11  1  0  0  0  0
  9 10  2  0  0  0  0
 11 12  1  0  0  0  0
 12 13  2  0  0  0  0
M  END
>  <CHROM.1>
9.39963555,3.68915984,36.37898899,0.82060117,0.73816845,-2.85737018

>  <Name>
1o15_lig

>  <RI>
0

>  <Rbt.Current_Directory>
/home/itssahil/PROJECTS/Mol_Feturizer/New_Systems/rnas/1o15

>  <Rbt.Executable>
rbdock ($Id: //depot/dev/client3/rdock/2013.1/src/exe/rbdock.cxx#4 $)

>  <Rbt.Library>
libRbt.so (2013.1, Build901 2013/11/27)

>  <Rbt.Parameter_File>
/export/apps/rDock/src/rDock_2013.1_src/data/scripts/dock_solv.prm

>  <Rbt.Receptor>
prm/blind_docking_80.prm

>  <SCORE>
-22.6287

>  <SCORE.INTER>
-22.6287

>  <SCORE.INTER.CONST>
1

>  <SCORE.INTER.POLAR>
-2.13308

>  <SCORE.INTER.ROT>
0

>  <SCORE.INTER.SOLV>
5.38306

>  <SCORE.INTER.VDW>
-13.3699

>  <SCORE.INTER.norm>
-1.74067

>  <SCORE.INTRA>
0

>  <SCORE.INTRA.DIHEDRAL>
0

>  <SCORE.INTRA.DIHEDRAL.0>
0

>  <SCORE.INTRA.POLAR>
0

>  <SCORE.INTRA.POLAR.0>
0

>  <SCORE.INTRA.REPUL>
0

>  <SCORE.INTRA.REPUL.0>
0

>  <SCORE.INTRA.SOLV>
0

>  <SCORE.INTRA.SOLV.lig_0>
-12.9184

>  <SCORE.INTRA.VDW>
0

>  <SCORE.INTRA.VDW.0>
0

>  <SCORE.INTRA.norm>
0

>  <SCORE.RESTR>
0

>  <SCORE.RESTR.CAVITY>
0

>  <SCORE.RESTR.norm>
0

>  <SCORE.SYSTEM>
0

>  <SCORE.SYSTEM.CONST>
0

>  <SCORE.SYSTEM.DIHEDRAL>
0

>  <SCORE.SYSTEM.SOLV>
0

>  <SCORE.SYSTEM.norm>
0

>  <SCORE.heavy>
13

>  <SCORE.norm>
-1.74067

>  <RMSD>
1.111

$$$$
1o15_lig
 OpenBabel11021811403D
libRbt.so/2013.1/901 2013/11/27
 13 14  0  0  0  0  0  0  0  0999 V2000
   10.1403    1.0316   36.5088 C   0  0  0  0  0  0  0  0  0  0  0  0
    9.7421    2.3502   36.4948 N   0  0  0  0  0  0  0  0  0  0  0  0
   10.3616    3.2068   37.3486 C   0  0  0  0  0  0  0  0  0  0  0  0
   11.2286    2.7159   38.0671 O   0  0  0  0  0  0  0  0  0  0  0  0
   10.7232    5.3863   38.3322 C   0  0  0  0  0  0  0  0  0  0  0  0
   10.0803    4.5405   37.4538 N   0  0  0  0  0  0  0  0  0  0  0  0
    9.1009    4.9465   36.6012 C   0  0  0  0  0  0  0  0  0  0  0  0
    8.4880    4.0767   35.7466 C   0  0  0  0  0  0  0  0  0  0  0  0
    8.7690    2.7027   35.6304 C   0  0  0  0  0  0  0  0  0  0  0  0
    8.2576    1.8696   34.8865 O   0  0  0  0  0  0  0  0  0  0  0  0
    7.5580    4.8295   35.0441 N   0  0  0  0  0  0  0  0  0  0  0  0
    7.6716    6.0953   35.5178 C   0  0  0  0  0  0  0  0  0  0  0  0
    8.5763    6.2258   36.4502 N   0  0  0  0  0  0  0  0  0  0  0  0
  1  2  1  0  0  0  0
  2  3  1  0  0  0  0
  2  9  1  0  0  0  0
  3  4  2  0  0  0  0
  3  6  1  0  0  0  0
  6  5  1  0  0  0  0
  6  7  1  0  0  0  0
  7  8  2  0  0  0  0
  7 13  1  0  0  0  0
  8  9  1  0  0  0  0
  8 11  1  0  0  0  0
  9 10  2  0  0  0  0
 11 12  1  0  0  0  0
 12 13  2  0  0  0  0
M  END
>  <CHROM.1>
9.30803358,3.79889819,36.47820747,0.78469010,0.76002507,-2.86268475

>  <Name>
1o15_lig

>  <RI>
0

>  <Rbt.Current_Directory>
/home/itssahil/PROJECTS/Mol_Feturizer/New_Systems/rnas/1o15

>  <Rbt.Executable>
rbdock ($Id: //depot/dev/client3/rdock/2013.1/src/exe/rbdock.cxx#4 $)

>  <Rbt.Library>
libRbt.so (2013.1, Build901 2013/11/27)

>  <Rbt.Parameter_File>
/export/apps/rDock/src/rDock_2013.1_src/data/scripts/dock_solv.prm

>  <Rbt.Receptor>
prm/pocket_docking_2.prm

>  <SCORE>
-22.6812

>  <SCORE.INTER>
-22.6812

>  <SCORE.INTER.CONST>
1

>  <SCORE.INTER.POLAR>
-2.12395

>  <SCORE.INTER.ROT>
0

>  <SCORE.INTER.SOLV>
5.51115

>  <SCORE.INTER.VDW>
-13.4781

>  <SCORE.INTER.norm>
-1.74471

>  <SCORE.INTRA>
0

>  <SCORE.INTRA.DIHEDRAL>
0

>  <SCORE.INTRA.DIHEDRAL.0>
0

>  <SCORE.INTRA.POLAR>
0

>  <SCORE.INTRA.POLAR.0>
0

>  <SCORE.INTRA.REPUL>
0

>  <SCORE.INTRA.REPUL.0>
0

>  <SCORE.INTRA.SOLV>
0

>  <SCORE.INTRA.SOLV.lig_0>
-12.9184

>  <SCORE.INTRA.VDW>
0

>  <SCORE.INTRA.VDW.0>
0

>  <SCORE.INTRA.norm>
0

>  <SCORE.RESTR>
0

>  <SCORE.RESTR.CAVITY>
0

>  <SCORE.RESTR.norm>
0

>  <SCORE.SYSTEM>
0

>  <SCORE.SYSTEM.CONST>
0

>  <SCORE.SYSTEM.DIHEDRAL>
0

>  <SCORE.SYSTEM.SOLV>
0

>  <SCORE.SYSTEM.norm>
0

>  <SCORE.heavy>
13

>  <SCORE.norm>
-1.74471

>  <RMSD>
1.111

$$$$
1o15_lig
 OpenBabel11021811403D
libRbt.so/2013.1/901 2013/11/27
 13 14  0  0  0  0  0  0  0  0999 V2000
    9.0030    0.9296   37.3260 C   0  0  0  0  0  0  0  0  0  0  0  0
    8.8817    2.2832   37.1018 N   0  0  0  0  0  0  0  0  0  0  0  0
    9.5621    3.1240   37.9245 C   0  0  0  0  0  0  0  0  0  0  0  0
   10.2278    2.5893   38.8076 O   0  0  0  0  0  0  0  0  0  0  0  0
   10.2426    5.3171   38.6831 C   0  0  0  0  0  0  0  0  0  0  0  0
    9.5443    4.4877   37.8317 N   0  0  0  0  0  0  0  0  0  0  0  0
    8.7669    4.9414   36.8114 C   0  0  0  0  0  0  0  0  0  0  0  0
    8.0904    4.0866   35.9903 C   0  0  0  0  0  0  0  0  0  0  0  0
    8.1010    2.6820   36.0771 C   0  0  0  0  0  0  0  0  0  0  0  0
    7.5184    1.8600   35.3745 O   0  0  0  0  0  0  0  0  0  0  0  0
    7.4141    4.8899   35.0834 N   0  0  0  0  0  0  0  0  0  0  0  0
    7.7263    6.1675   35.4150 C   0  0  0  0  0  0  0  0  0  0  0  0
    8.5298    6.2606   36.4399 N   0  0  0  0  0  0  0  0  0  0  0  0
  1  2  1  0  0  0  0
  2  3  1  0  0  0  0
  2  9  1  0  0  0  0
  3  4  2  0  0  0  0
  3  6  1  0  0  0  0
  6  5  1  0  0  0  0
  6  7  1  0  0  0  0
  7  8  2  0  0  0  0
  7 13  1  0  0  0  0
  8  9  1  0  0  0  0
  8 11  1  0  0  0  0
  9 10  2  0  0  0  0
 11 12  1  0  0  0  0
 12 13  2  0  0  0  0
M  END
>  <CHROM.1>
8.75179210,3.76971124,36.85466541,1.05164332,0.90726925,3.08907785

>  <Name>
1o15_lig

>  <RI>
0

>  <Rbt.Current_Directory>
/home/itssahil/PROJECTS/Mol_Feturizer/New_Systems/rnas/1o15

>  <Rbt.Executable>
rbdock ($Id: //depot/dev/client3/rdock/2013.1/src/exe/rbdock.cxx#4 $)

>  <Rbt.Library>
libRbt.so (2013.1, Build901 2013/11/27)

>  <Rbt.Parameter_File>
/export/apps/rDock/src/rDock_2013.1_src/data/scripts/dock_solv.prm

>  <Rbt.Receptor>
prm/pocket_docking_3.prm

>  <SCORE>
-23.4397

>  <SCORE.INTER>
-23.4397

>  <SCORE.INTER.CONST>
1

>  <SCORE.INTER.POLAR>
-2.11559

>  <SCORE.INTER.ROT>
0

>  <SCORE.INTER.SOLV>
6.88973

>  <SCORE.INTER.VDW>
-14.4711

>  <SCORE.INTER.norm>
-1.80305

>  <SCORE.INTRA>
0

>  <SCORE.INTRA.DIHEDRAL>
0

>  <SCORE.INTRA.DIHEDRAL.0>
0

>  <SCORE.INTRA.POLAR>
0

>  <SCORE.INTRA.POLAR.0>
0

>  <SCORE.INTRA.REPUL>
0

>  <SCORE.INTRA.REPUL.0>
0

>  <SCORE.INTRA.SOLV>
0

>  <SCORE.INTRA.SOLV.lig_0>
-12.9184

>  <SCORE.INTRA.VDW>
0

>  <SCORE.INTRA.VDW.0>
0

>  <SCORE.INTRA.norm>
0

>  <SCORE.RESTR>
0

>  <SCORE.RESTR.CAVITY>
0

>  <SCORE.RESTR.norm>
0

>  <SCORE.SYSTEM>
0

>  <SCORE.SYSTEM.CONST>
0

>  <SCORE.SYSTEM.DIHEDRAL>
0

>  <SCORE.SYSTEM.SOLV>
0

>  <SCORE.SYSTEM.norm>
0

>  <SCORE.heavy>
13

>  <SCORE.norm>
-1.80305

>  <RMSD>
1.112

$$$$
1o15_lig
 OpenBabel11021811403D
libRbt.so/2013.1/901 2013/11/27
 13 14  0  0  0  0  0  0  0  0999 V2000
    8.9804    0.9269   37.3342 C   0  0  0  0  0  0  0  0  0  0  0  0
    8.8648    2.2808   37.1082 N   0  0  0  0  0  0  0  0  0  0  0  0
    9.5467    3.1197   37.9316 C   0  0  0  0  0  0  0  0  0  0  0  0
   10.2085    2.5834   38.8165 O   0  0  0  0  0  0  0  0  0  0  0  0
   10.2340    5.3110   38.6893 C   0  0  0  0  0  0  0  0  0  0  0  0
    9.5343    4.4835   37.8373 N   0  0  0  0  0  0  0  0  0  0  0  0
    8.7608    4.9391   36.8149 C   0  0  0  0  0  0  0  0  0  0  0  0
    8.0827    4.0861   35.9933 C   0  0  0  0  0  0  0  0  0  0  0  0
    8.0878    2.6815   36.0816 C   0  0  0  0  0  0  0  0  0  0  0  0
    7.5035    1.8610   35.3785 O   0  0  0  0  0  0  0  0  0  0  0  0
    7.4114    4.8910   35.0842 N   0  0  0  0  0  0  0  0  0  0  0  0
    7.7278    6.1677   35.4150 C   0  0  0  0  0  0  0  0  0  0  0  0
    8.5296    6.2588   36.4415 N   0  0  0  0  0  0  0  0  0  0  0  0
  1  2  1  0  0  0  0
  2  3  1  0  0  0  0
  2  9  1  0  0  0  0
  3  4  2  0  0  0  0
  3  6  1  0  0  0  0
  6  5  1  0  0  0  0
  6  7  1  0  0  0  0
  7  8  2  0  0  0  0
  7 13  1  0  0  0  0
  8  9  1  0  0  0  0
  8 11  1  0  0  0  0
  9 10  2  0  0  0  0
 11 12  1  0  0  0  0
 12 13  2  0  0  0  0
M  END
>  <CHROM.1>
8.74113406,3.76749650,36.85934527,1.05807700,0.90913071,3.08297557

>  <Name>
1o15_lig

>  <RI>
0

>  <Rbt.Current_Directory>
/home/itssahil/PROJECTS/Mol_Feturizer/New_Systems/rnas/1o15

>  <Rbt.Executable>
rbdock ($Id: //depot/dev/client3/rdock/2013.1/src/exe/rbdock.cxx#4 $)

>  <Rbt.Library>
libRbt.so (2013.1, Build901 2013/11/27)

>  <Rbt.Parameter_File>
/export/apps/rDock/src/rDock_2013.1_src/data/scripts/dock_solv.prm

>  <Rbt.Receptor>
prm/pocket_docking_5.prm

>  <SCORE>
-23.4193

>  <SCORE.INTER>
-23.4193

>  <SCORE.INTER.CONST>
1

>  <SCORE.INTER.POLAR>
-2.11577

>  <SCORE.INTER.ROT>
0

>  <SCORE.INTER.SOLV>
6.94106

>  <SCORE.INTER.VDW>
-14.474

>  <SCORE.INTER.norm>
-1.80148

>  <SCORE.INTRA>
0

>  <SCORE.INTRA.DIHEDRAL>
0

>  <SCORE.INTRA.DIHEDRAL.0>
0

>  <SCORE.INTRA.POLAR>
0

>  <SCORE.INTRA.POLAR.0>
0

>  <SCORE.INTRA.REPUL>
0

>  <SCORE.INTRA.REPUL.0>
0

>  <SCORE.INTRA.SOLV>
0

>  <SCORE.INTRA.SOLV.lig_0>
-12.9184

>  <SCORE.INTRA.VDW>
0

>  <SCORE.INTRA.VDW.0>
0

>  <SCORE.INTRA.norm>
0

>  <SCORE.RESTR>
0

>  <SCORE.RESTR.CAVITY>
0

>  <SCORE.RESTR.norm>
0

>  <SCORE.SYSTEM>
0

>  <SCORE.SYSTEM.CONST>
0

>  <SCORE.SYSTEM.DIHEDRAL>
0

>  <SCORE.SYSTEM.SOLV>
0

>  <SCORE.SYSTEM.norm>
0

>  <SCORE.heavy>
13

>  <SCORE.norm>
-1.80148

>  <RMSD>
1.117

$$$$
1o15_lig
 OpenBabel11021811403D
libRbt.so/2013.1/901 2013/11/27
 13 14  0  0  0  0  0  0  0  0999 V2000
    8.9516    0.9181   37.3299 C   0  0  0  0  0  0  0  0  0  0  0  0
    8.8472    2.2727   37.1032 N   0  0  0  0  0  0  0  0  0  0  0  0
    9.5405    3.1062   37.9225 C   0  0  0  0  0  0  0  0  0  0  0  0
   10.2015    2.5647   38.8049 O   0  0  0  0  0  0  0  0  0  0  0  0
   10.2513    5.2919   38.6748 C   0  0  0  0  0  0  0  0  0  0  0  0
    9.5401    4.4699   37.8268 N   0  0  0  0  0  0  0  0  0  0  0  0
    8.7661    4.9316   36.8076 C   0  0  0  0  0  0  0  0  0  0  0  0
    8.0765    4.0839   35.9900 C   0  0  0  0  0  0  0  0  0  0  0  0
    8.0691    2.6795   36.0797 C   0  0  0  0  0  0  0  0  0  0  0  0
    7.4741    1.8637   35.3802 O   0  0  0  0  0  0  0  0  0  0  0  0
    7.4083    4.8940   35.0832 N   0  0  0  0  0  0  0  0  0  0  0  0
    7.7378    6.1681   35.4113 C   0  0  0  0  0  0  0  0  0  0  0  0
    8.5451    6.2530   36.4340 N   0  0  0  0  0  0  0  0  0  0  0  0
  1  2  1  0  0  0  0
  2  3  1  0  0  0  0
  2  9  1  0  0  0  0
  3  4  2  0  0  0  0
  3  6  1  0  0  0  0
  6  5  1  0  0  0  0
  6  7  1  0  0  0  0
  7  8  2  0  0  0  0
  7 13  1  0  0  0  0
  8  9  1  0  0  0  0
  8 11  1  0  0  0  0
  9 10  2  0  0  0  0
 11 12  1  0  0  0  0
 12 13  2  0  0  0  0
M  END
>  <CHROM.1>
8.73592158,3.76023256,36.85332175,1.07233452,0.90392859,3.07075126

>  <Name>
1o15_lig

>  <RI>
0

>  <Rbt.Current_Directory>
/home/itssahil/PROJECTS/Mol_Feturizer/New_Systems/rnas/1o15

>  <Rbt.Executable>
rbdock ($Id: //depot/dev/client3/rdock/2013.1/src/exe/rbdock.cxx#4 $)

>  <Rbt.Library>
libRbt.so (2013.1, Build901 2013/11/27)

>  <Rbt.Parameter_File>
/export/apps/rDock/src/rDock_2013.1_src/data/scripts/dock_solv.prm

>  <Rbt.Receptor>
prm/pocket_docking_3.prm

>  <SCORE>
-23.3984

>  <SCORE.INTER>
-23.3984

>  <SCORE.INTER.CONST>
1

>  <SCORE.INTER.POLAR>
-2.10777

>  <SCORE.INTER.ROT>
0

>  <SCORE.INTER.SOLV>
6.9503

>  <SCORE.INTER.VDW>
-14.4898

>  <SCORE.INTER.norm>
-1.79987

>  <SCORE.INTRA>
0

>  <SCORE.INTRA.DIHEDRAL>
0

>  <SCORE.INTRA.DIHEDRAL.0>
0

>  <SCORE.INTRA.POLAR>
0

>  <SCORE.INTRA.POLAR.0>
0

>  <SCORE.INTRA.REPUL>
0

>  <SCORE.INTRA.REPUL.0>
0

>  <SCORE.INTRA.SOLV>
0

>  <SCORE.INTRA.SOLV.lig_0>
-12.9184

>  <SCORE.INTRA.VDW>
0

>  <SCORE.INTRA.VDW.0>
0

>  <SCORE.INTRA.norm>
0

>  <SCORE.RESTR>
0

>  <SCORE.RESTR.CAVITY>
0

>  <SCORE.RESTR.norm>
0

>  <SCORE.SYSTEM>
0

>  <SCORE.SYSTEM.CONST>
0

>  <SCORE.SYSTEM.DIHEDRAL>
0

>  <SCORE.SYSTEM.SOLV>
0

>  <SCORE.SYSTEM.norm>
0

>  <SCORE.heavy>
13

>  <SCORE.norm>
-1.79987

>  <RMSD>
1.118

$$$$
1o15_lig
 OpenBabel11021811403D
libRbt.so/2013.1/901 2013/11/27
 13 14  0  0  0  0  0  0  0  0999 V2000
    8.9462    0.9205   37.3259 C   0  0  0  0  0  0  0  0  0  0  0  0
    8.8445    2.2754   37.0993 N   0  0  0  0  0  0  0  0  0  0  0  0
    9.5370    3.1076   37.9206 C   0  0  0  0  0  0  0  0  0  0  0  0
   10.1950    2.5648   38.8046 O   0  0  0  0  0  0  0  0  0  0  0  0
   10.2493    5.2919   38.6755 C   0  0  0  0  0  0  0  0  0  0  0  0
    9.5390    4.4713   37.8254 N   0  0  0  0  0  0  0  0  0  0  0  0
    8.7682    4.9345   36.8044 C   0  0  0  0  0  0  0  0  0  0  0  0
    8.0794    4.0882   35.9848 C   0  0  0  0  0  0  0  0  0  0  0  0
    8.0696    2.6838   36.0740 C   0  0  0  0  0  0  0  0  0  0  0  0
    7.4752    1.8691   35.3727 O   0  0  0  0  0  0  0  0  0  0  0  0
    7.4147    4.8996   35.0765 N   0  0  0  0  0  0  0  0  0  0  0  0
    7.7454    6.1731   35.4059 C   0  0  0  0  0  0  0  0  0  0  0  0
    8.5503    6.2564   36.4306 N   0  0  0  0  0  0  0  0  0  0  0  0
  1  2  1  0  0  0  0
  2  3  1  0  0  0  0
  2  9  1  0  0  0  0
  3  4  2  0  0  0  0
  3  6  1  0  0  0  0
  6  5  1  0  0  0  0
  6  7  1  0  0  0  0
  7  8  2  0  0  0  0
  7 13  1  0  0  0  0
  8  9  1  0  0  0  0
  8 11  1  0  0  0  0
  9 10  2  0  0  0  0
 11 12  1  0  0  0  0
 12 13  2  0  0  0  0
M  END
>  <CHROM.1>
8.73615871,3.76319827,36.84966522,1.07511647,0.90634112,3.06888520

>  <Name>
1o15_lig

>  <RI>
0

>  <Rbt.Current_Directory>
/home/itssahil/PROJECTS/Mol_Feturizer/New_Systems/rnas/1o15

>  <Rbt.Executable>
rbdock ($Id: //depot/dev/client3/rdock/2013.1/src/exe/rbdock.cxx#4 $)

>  <Rbt.Library>
libRbt.so (2013.1, Build901 2013/11/27)

>  <Rbt.Parameter_File>
/export/apps/rDock/src/rDock_2013.1_src/data/scripts/dock_solv.prm

>  <Rbt.Receptor>
prm/pocket_docking_3.prm

>  <SCORE>
-23.3533

>  <SCORE.INTER>
-23.3533

>  <SCORE.INTER.CONST>
1

>  <SCORE.INTER.POLAR>
-2.12479

>  <SCORE.INTER.ROT>
0

>  <SCORE.INTER.SOLV>
6.94847

>  <SCORE.INTER.VDW>
-14.4024

>  <SCORE.INTER.norm>
-1.79641

>  <SCORE.INTRA>
0

>  <SCORE.INTRA.DIHEDRAL>
0

>  <SCORE.INTRA.DIHEDRAL.0>
0

>  <SCORE.INTRA.POLAR>
0

>  <SCORE.INTRA.POLAR.0>
0

>  <SCORE.INTRA.REPUL>
0

>  <SCORE.INTRA.REPUL.0>
0

>  <SCORE.INTRA.SOLV>
0

>  <SCORE.INTRA.SOLV.lig_0>
-12.9184

>  <SCORE.INTRA.VDW>
0

>  <SCORE.INTRA.VDW.0>
0

>  <SCORE.INTRA.norm>
0

>  <SCORE.RESTR>
0

>  <SCORE.RESTR.CAVITY>
0

>  <SCORE.RESTR.norm>
0

>  <SCORE.SYSTEM>
0

>  <SCORE.SYSTEM.CONST>
0

>  <SCORE.SYSTEM.DIHEDRAL>
0

>  <SCORE.SYSTEM.SOLV>
0

>  <SCORE.SYSTEM.norm>
0

>  <SCORE.heavy>
13

>  <SCORE.norm>
-1.79641

>  <RMSD>
1.122

$$$$
1o15_lig
 OpenBabel11021811403D
libRbt.so/2013.1/901 2013/11/27
 13 14  0  0  0  0  0  0  0  0999 V2000
    8.7960    0.9133   37.5423 C   0  0  0  0  0  0  0  0  0  0  0  0
    8.7419    2.2592   37.2542 N   0  0  0  0  0  0  0  0  0  0  0  0
    9.4434    3.1055   38.0532 C   0  0  0  0  0  0  0  0  0  0  0  0
   10.0654    2.5828   38.9744 O   0  0  0  0  0  0  0  0  0  0  0  0
   10.2088    5.2984   38.7268 C   0  0  0  0  0  0  0  0  0  0  0  0
    9.4906    4.4629   37.8982 N   0  0  0  0  0  0  0  0  0  0  0  0
    8.7561    4.9036   36.8411 C   0  0  0  0  0  0  0  0  0  0  0  0
    8.0578    4.0431   36.0445 C   0  0  0  0  0  0  0  0  0  0  0  0
    8.0018    2.6450   36.1951 C   0  0  0  0  0  0  0  0  0  0  0  0
    7.3964    1.8185   35.5174 O   0  0  0  0  0  0  0  0  0  0  0  0
    7.4381    4.8333   35.0870 N   0  0  0  0  0  0  0  0  0  0  0  0
    7.8021    6.1094   35.3673 C   0  0  0  0  0  0  0  0  0  0  0  0
    8.5879    6.2135   36.4049 N   0  0  0  0  0  0  0  0  0  0  0  0
  1  2  1  0  0  0  0
  2  3  1  0  0  0  0
  2  9  1  0  0  0  0
  3  4  2  0  0  0  0
  3  6  1  0  0  0  0
  6  5  1  0  0  0  0
  6  7  1  0  0  0  0
  7  8  2  0  0  0  0
  7 13  1  0  0  0  0
  8  9  1  0  0  0  0
  8 11  1  0  0  0  0
  9 10  2  0  0  0  0
 11 12  1  0  0  0  0
 12 13  2  0  0  0  0
M  END
>  <CHROM.1>
8.68600190,3.73699391,36.93704896,1.13006291,0.92390575,2.98101105

>  <Name>
1o15_lig

>  <RI>
0

>  <Rbt.Current_Directory>
/home/itssahil/PROJECTS/Mol_Feturizer/New_Systems/rnas/1o15

>  <Rbt.Executable>
rbdock ($Id: //depot/dev/client3/rdock/2013.1/src/exe/rbdock.cxx#4 $)

>  <Rbt.Library>
libRbt.so (2013.1, Build901 2013/11/27)

>  <Rbt.Parameter_File>
/export/apps/rDock/src/rDock_2013.1_src/data/scripts/dock_solv.prm

>  <Rbt.Receptor>
prm/pocket_docking_2.prm

>  <SCORE>
-23.3044

>  <SCORE.INTER>
-23.3044

>  <SCORE.INTER.CONST>
1

>  <SCORE.INTER.POLAR>
-2.12535

>  <SCORE.INTER.ROT>
0

>  <SCORE.INTER.SOLV>
7.29352

>  <SCORE.INTER.VDW>
-14.4829

>  <SCORE.INTER.norm>
-1.79265

>  <SCORE.INTRA>
0

>  <SCORE.INTRA.DIHEDRAL>
0

>  <SCORE.INTRA.DIHEDRAL.0>
0

>  <SCORE.INTRA.POLAR>
0

>  <SCORE.INTRA.POLAR.0>
0

>  <SCORE.INTRA.REPUL>
0

>  <SCORE.INTRA.REPUL.0>
0

>  <SCORE.INTRA.SOLV>
0

>  <SCORE.INTRA.SOLV.lig_0>
-12.9184

>  <SCORE.INTRA.VDW>
0

>  <SCORE.INTRA.VDW.0>
0

>  <SCORE.INTRA.norm>
0

>  <SCORE.RESTR>
0

>  <SCORE.RESTR.CAVITY>
0

>  <SCORE.RESTR.norm>
0

>  <SCORE.SYSTEM>
0

>  <SCORE.SYSTEM.CONST>
0

>  <SCORE.SYSTEM.DIHEDRAL>
0

>  <SCORE.SYSTEM.SOLV>
0

>  <SCORE.SYSTEM.norm>
0

>  <SCORE.heavy>
13

>  <SCORE.norm>
-1.79265

>  <RMSD>
1.125

$$$$
1o15_lig
 OpenBabel11021811403D
libRbt.so/2013.1/901 2013/11/27
 13 14  0  0  0  0  0  0  0  0999 V2000
   10.1680    1.0347   36.4597 C   0  0  0  0  0  0  0  0  0  0  0  0
    9.7616    2.3508   36.4617 N   0  0  0  0  0  0  0  0  0  0  0  0
   10.3781    3.2016   37.3236 C   0  0  0  0  0  0  0  0  0  0  0  0
   11.2500    2.7079   38.0341 O   0  0  0  0  0  0  0  0  0  0  0  0
   10.7288    5.3720   38.3310 C   0  0  0  0  0  0  0  0  0  0  0  0
   10.0888    4.5322   37.4447 N   0  0  0  0  0  0  0  0  0  0  0  0
    9.1045    4.9417   36.5994 C   0  0  0  0  0  0  0  0  0  0  0  0
    8.4947    4.0779   35.7366 C   0  0  0  0  0  0  0  0  0  0  0  0
    8.7840    2.7071   35.6040 C   0  0  0  0  0  0  0  0  0  0  0  0
    8.2757    1.8793   34.8520 O   0  0  0  0  0  0  0  0  0  0  0  0
    7.5581    4.8329   35.0452 N   0  0  0  0  0  0  0  0  0  0  0  0
    7.6652    6.0939   35.5330 C   0  0  0  0  0  0  0  0  0  0  0  0
    8.5716    6.2194   36.4644 N   0  0  0  0  0  0  0  0  0  0  0  0
  1  2  1  0  0  0  0
  2  3  1  0  0  0  0
  2  9  1  0  0  0  0
  3  4  2  0  0  0  0
  3  6  1  0  0  0  0
  6  5  1  0  0  0  0
  6  7  1  0  0  0  0
  7  8  2  0  0  0  0
  7 13  1  0  0  0  0
  8  9  1  0  0  0  0
  8 11  1  0  0  0  0
  9 10  2  0  0  0  0
 11 12  1  0  0  0  0
 12 13  2  0  0  0  0
M  END
>  <CHROM.1>
9.31848103,3.79693795,36.46280692,0.77751840,0.75567577,-2.84636510

>  <Name>
1o15_lig

>  <RI>
0

>  <Rbt.Current_Directory>
/home/itssahil/PROJECTS/Mol_Feturizer/New_Systems/rnas/1o15

>  <Rbt.Executable>
rbdock ($Id: //depot/dev/client3/rdock/2013.1/src/exe/rbdock.cxx#4 $)

>  <Rbt.Library>
libRbt.so (2013.1, Build901 2013/11/27)

>  <Rbt.Parameter_File>
/export/apps/rDock/src/rDock_2013.1_src/data/scripts/dock_solv.prm

>  <Rbt.Receptor>
prm/pocket_docking_5.prm

>  <SCORE>
-22.8612

>  <SCORE.INTER>
-22.8612

>  <SCORE.INTER.CONST>
1

>  <SCORE.INTER.POLAR>
-2.12699

>  <SCORE.INTER.ROT>
0

>  <SCORE.INTER.SOLV>
5.54932

>  <SCORE.INTER.VDW>
-13.6006

>  <SCORE.INTER.norm>
-1.75855

>  <SCORE.INTRA>
0

>  <SCORE.INTRA.DIHEDRAL>
0

>  <SCORE.INTRA.DIHEDRAL.0>
0

>  <SCORE.INTRA.POLAR>
0

>  <SCORE.INTRA.POLAR.0>
0

>  <SCORE.INTRA.REPUL>
0

>  <SCORE.INTRA.REPUL.0>
0

>  <SCORE.INTRA.SOLV>
0

>  <SCORE.INTRA.SOLV.lig_0>
-12.9184

>  <SCORE.INTRA.VDW>
0

>  <SCORE.INTRA.VDW.0>
0

>  <SCORE.INTRA.norm>
0

>  <SCORE.RESTR>
0

>  <SCORE.RESTR.CAVITY>
0

>  <SCORE.RESTR.norm>
0

>  <SCORE.SYSTEM>
0

>  <SCORE.SYSTEM.CONST>
0

>  <SCORE.SYSTEM.DIHEDRAL>
0

>  <SCORE.SYSTEM.SOLV>
0

>  <SCORE.SYSTEM.norm>
0

>  <SCORE.heavy>
13

>  <SCORE.norm>
-1.75855

>  <RMSD>
1.125

$$$$
1o15_lig
 OpenBabel11021811403D
libRbt.so/2013.1/901 2013/11/27
 13 14  0  0  0  0  0  0  0  0999 V2000
   10.1653    1.0358   36.4554 C   0  0  0  0  0  0  0  0  0  0  0  0
    9.7597    2.3522   36.4591 N   0  0  0  0  0  0  0  0  0  0  0  0
   10.3767    3.2015   37.3220 C   0  0  0  0  0  0  0  0  0  0  0  0
   11.2484    2.7064   38.0320 O   0  0  0  0  0  0  0  0  0  0  0  0
   10.7289    5.3704   38.3322 C   0  0  0  0  0  0  0  0  0  0  0  0
   10.0883    4.5321   37.4448 N   0  0  0  0  0  0  0  0  0  0  0  0
    9.1043    4.9433   36.6000 C   0  0  0  0  0  0  0  0  0  0  0  0
    8.4939    4.0810   35.7361 C   0  0  0  0  0  0  0  0  0  0  0  0
    8.7823    2.7101   35.6018 C   0  0  0  0  0  0  0  0  0  0  0  0
    8.2735    1.8836   34.8489 O   0  0  0  0  0  0  0  0  0  0  0  0
    7.5578    4.8373   35.0457 N   0  0  0  0  0  0  0  0  0  0  0  0
    7.6657    6.0977   35.5351 C   0  0  0  0  0  0  0  0  0  0  0  0
    8.5722    6.2214   36.4666 N   0  0  0  0  0  0  0  0  0  0  0  0
  1  2  1  0  0  0  0
  2  3  1  0  0  0  0
  2  9  1  0  0  0  0
  3  4  2  0  0  0  0
  3  6  1  0  0  0  0
  6  5  1  0  0  0  0
  6  7  1  0  0  0  0
  7  8  2  0  0  0  0
  7 13  1  0  0  0  0
  8  9  1  0  0  0  0
  8 11  1  0  0  0  0
  9 10  2  0  0  0  0
 11 12  1  0  0  0  0
 12 13  2  0  0  0  0
M  END
>  <CHROM.1>
9.31750631,3.79854172,36.46200046,0.77834993,0.75585133,-2.84569160

>  <Name>
1o15_lig

>  <RI>
0

>  <Rbt.Current_Directory>
/home/itssahil/PROJECTS/Mol_Feturizer/New_Systems/rnas/1o15

>  <Rbt.Executable>
rbdock ($Id: //depot/dev/client3/rdock/2013.1/src/exe/rbdock.cxx#4 $)

>  <Rbt.Library>
libRbt.so (2013.1, Build901 2013/11/27)

>  <Rbt.Parameter_File>
/export/apps/rDock/src/rDock_2013.1_src/data/scripts/dock_solv.prm

>  <Rbt.Receptor>
prm/pocket_docking_3.prm

>  <SCORE>
-22.8662

>  <SCORE.INTER>
-22.8662

>  <SCORE.INTER.CONST>
1

>  <SCORE.INTER.POLAR>
-2.12768

>  <SCORE.INTER.ROT>
0

>  <SCORE.INTER.SOLV>
5.55282

>  <SCORE.INTER.VDW>
-13.6028

>  <SCORE.INTER.norm>
-1.75894

>  <SCORE.INTRA>
0

>  <SCORE.INTRA.DIHEDRAL>
0

>  <SCORE.INTRA.DIHEDRAL.0>
0

>  <SCORE.INTRA.POLAR>
0

>  <SCORE.INTRA.POLAR.0>
0

>  <SCORE.INTRA.REPUL>
0

>  <SCORE.INTRA.REPUL.0>
0

>  <SCORE.INTRA.SOLV>
0

>  <SCORE.INTRA.SOLV.lig_0>
-12.9184

>  <SCORE.INTRA.VDW>
0

>  <SCORE.INTRA.VDW.0>
0

>  <SCORE.INTRA.norm>
0

>  <SCORE.RESTR>
0

>  <SCORE.RESTR.CAVITY>
0

>  <SCORE.RESTR.norm>
0

>  <SCORE.SYSTEM>
0

>  <SCORE.SYSTEM.CONST>
0

>  <SCORE.SYSTEM.DIHEDRAL>
0

>  <SCORE.SYSTEM.SOLV>
0

>  <SCORE.SYSTEM.norm>
0

>  <SCORE.heavy>
13

>  <SCORE.norm>
-1.75894

>  <RMSD>
1.127

$$$$
1o15_lig
 OpenBabel11021811403D
libRbt.so/2013.1/901 2013/11/27
 13 14  0  0  0  0  0  0  0  0999 V2000
   10.1591    1.0310   36.4543 C   0  0  0  0  0  0  0  0  0  0  0  0
    9.7569    2.3484   36.4552 N   0  0  0  0  0  0  0  0  0  0  0  0
   10.3763    3.1980   37.3162 C   0  0  0  0  0  0  0  0  0  0  0  0
   11.2468    2.7022   38.0271 O   0  0  0  0  0  0  0  0  0  0  0  0
   10.7342    5.3681   38.3216 C   0  0  0  0  0  0  0  0  0  0  0  0
   10.0913    4.5296   37.4362 N   0  0  0  0  0  0  0  0  0  0  0  0
    9.1082    4.9415   36.5907 C   0  0  0  0  0  0  0  0  0  0  0  0
    8.4954    4.0789   35.7287 C   0  0  0  0  0  0  0  0  0  0  0  0
    8.7803    2.7070   35.5973 C   0  0  0  0  0  0  0  0  0  0  0  0
    8.2693    1.8802   34.8462 O   0  0  0  0  0  0  0  0  0  0  0  0
    7.5612    4.8362   35.0369 N   0  0  0  0  0  0  0  0  0  0  0  0
    7.6723    6.0973   35.5236 C   0  0  0  0  0  0  0  0  0  0  0  0
    8.5793    6.2207   36.4547 N   0  0  0  0  0  0  0  0  0  0  0  0
  1  2  1  0  0  0  0
  2  3  1  0  0  0  0
  2  9  1  0  0  0  0
  3  4  2  0  0  0  0
  3  6  1  0  0  0  0
  6  5  1  0  0  0  0
  6  7  1  0  0  0  0
  7  8  2  0  0  0  0
  7 13  1  0  0  0  0
  8  9  1  0  0  0  0
  8 11  1  0  0  0  0
  9 10  2  0  0  0  0
 11 12  1  0  0  0  0
 12 13  2  0  0  0  0
M  END
>  <CHROM.1>
9.31844215,3.79591526,36.45508297,0.78178269,0.75642512,-2.85018267

>  <Name>
1o15_lig

>  <RI>
0

>  <Rbt.Current_Directory>
/home/itssahil/PROJECTS/Mol_Feturizer/New_Systems/rnas/1o15

>  <Rbt.Executable>
rbdock ($Id: //depot/dev/client3/rdock/2013.1/src/exe/rbdock.cxx#4 $)

>  <Rbt.Library>
libRbt.so (2013.1, Build901 2013/11/27)

>  <Rbt.Parameter_File>
/export/apps/rDock/src/rDock_2013.1_src/data/scripts/dock_solv.prm

>  <Rbt.Receptor>
prm/pocket_docking_6.prm

>  <SCORE>
-22.8357

>  <SCORE.INTER>
-22.8357

>  <SCORE.INTER.CONST>
1

>  <SCORE.INTER.POLAR>
-2.13312

>  <SCORE.INTER.ROT>
0

>  <SCORE.INTER.SOLV>
5.54474

>  <SCORE.INTER.VDW>
-13.5616

>  <SCORE.INTER.norm>
-1.75659

>  <SCORE.INTRA>
0

>  <SCORE.INTRA.DIHEDRAL>
0

>  <SCORE.INTRA.DIHEDRAL.0>
0

>  <SCORE.INTRA.POLAR>
0

>  <SCORE.INTRA.POLAR.0>
0

>  <SCORE.INTRA.REPUL>
0

>  <SCORE.INTRA.REPUL.0>
0

>  <SCORE.INTRA.SOLV>
0

>  <SCORE.INTRA.SOLV.lig_0>
-12.9184

>  <SCORE.INTRA.VDW>
0

>  <SCORE.INTRA.VDW.0>
0

>  <SCORE.INTRA.norm>
0

>  <SCORE.RESTR>
0

>  <SCORE.RESTR.CAVITY>
0

>  <SCORE.RESTR.norm>
0

>  <SCORE.SYSTEM>
0

>  <SCORE.SYSTEM.CONST>
0

>  <SCORE.SYSTEM.DIHEDRAL>
0

>  <SCORE.SYSTEM.SOLV>
0

>  <SCORE.SYSTEM.norm>
0

>  <SCORE.heavy>
13

>  <SCORE.norm>
-1.75659

>  <RMSD>
1.128

$$$$
1o15_lig
 OpenBabel11021811403D
libRbt.so/2013.1/901 2013/11/27
 13 14  0  0  0  0  0  0  0  0999 V2000
    8.8663    0.9187   37.4392 C   0  0  0  0  0  0  0  0  0  0  0  0
    8.7863    2.2699   37.1832 N   0  0  0  0  0  0  0  0  0  0  0  0
    9.4787    3.1096   37.9971 C   0  0  0  0  0  0  0  0  0  0  0  0
   10.1166    2.5765   38.9013 O   0  0  0  0  0  0  0  0  0  0  0  0
   10.2102    5.2994   38.7167 C   0  0  0  0  0  0  0  0  0  0  0  0
    9.5007    4.4709   37.8738 N   0  0  0  0  0  0  0  0  0  0  0  0
    8.7508    4.9230   36.8325 C   0  0  0  0  0  0  0  0  0  0  0  0
    8.0619    4.0691   36.0207 C   0  0  0  0  0  0  0  0  0  0  0  0
    8.0317    2.6671   36.1387 C   0  0  0  0  0  0  0  0  0  0  0  0
    7.4359    1.8460   35.4460 O   0  0  0  0  0  0  0  0  0  0  0  0
    7.4213    4.8703   35.0865 N   0  0  0  0  0  0  0  0  0  0  0  0
    7.7648    6.1458   35.3942 C   0  0  0  0  0  0  0  0  0  0  0  0
    8.5563    6.2396   36.4284 N   0  0  0  0  0  0  0  0  0  0  0  0
  1  2  1  0  0  0  0
  2  3  1  0  0  0  0
  2  9  1  0  0  0  0
  3  4  2  0  0  0  0
  3  6  1  0  0  0  0
  6  5  1  0  0  0  0
  6  7  1  0  0  0  0
  7  8  2  0  0  0  0
  7 13  1  0  0  0  0
  8  9  1  0  0  0  0
  8 11  1  0  0  0  0
  9 10  2  0  0  0  0
 11 12  1  0  0  0  0
 12 13  2  0  0  0  0
M  END
>  <CHROM.1>
8.70199127,3.75342242,36.90142772,1.09939394,0.91919744,3.02893345

>  <Name>
1o15_lig

>  <RI>
0

>  <Rbt.Current_Directory>
/home/itssahil/PROJECTS/Mol_Feturizer/New_Systems/rnas/1o15

>  <Rbt.Executable>
rbdock ($Id: //depot/dev/client3/rdock/2013.1/src/exe/rbdock.cxx#4 $)

>  <Rbt.Library>
libRbt.so (2013.1, Build901 2013/11/27)

>  <Rbt.Parameter_File>
/export/apps/rDock/src/rDock_2013.1_src/data/scripts/dock_solv.prm

>  <Rbt.Receptor>
prm/pocket_docking_2.prm

>  <SCORE>
-23.3212

>  <SCORE.INTER>
-23.3212

>  <SCORE.INTER.CONST>
1

>  <SCORE.INTER.POLAR>
-2.13287

>  <SCORE.INTER.ROT>
0

>  <SCORE.INTER.SOLV>
7.16975

>  <SCORE.INTER.VDW>
-14.4278

>  <SCORE.INTER.norm>
-1.79393

>  <SCORE.INTRA>
0

>  <SCORE.INTRA.DIHEDRAL>
0

>  <SCORE.INTRA.DIHEDRAL.0>
0

>  <SCORE.INTRA.POLAR>
0

>  <SCORE.INTRA.POLAR.0>
0

>  <SCORE.INTRA.REPUL>
0

>  <SCORE.INTRA.REPUL.0>
0

>  <SCORE.INTRA.SOLV>
0

>  <SCORE.INTRA.SOLV.lig_0>
-12.9184

>  <SCORE.INTRA.VDW>
0

>  <SCORE.INTRA.VDW.0>
0

>  <SCORE.INTRA.norm>
0

>  <SCORE.RESTR>
0

>  <SCORE.RESTR.CAVITY>
0

>  <SCORE.RESTR.norm>
0

>  <SCORE.SYSTEM>
0

>  <SCORE.SYSTEM.CONST>
0

>  <SCORE.SYSTEM.DIHEDRAL>
0

>  <SCORE.SYSTEM.SOLV>
0

>  <SCORE.SYSTEM.norm>
0

>  <SCORE.heavy>
13

>  <SCORE.norm>
-1.79393

>  <RMSD>
1.129

$$$$
1o15_lig
 OpenBabel11021811403D
libRbt.so/2013.1/901 2013/11/27
 13 14  0  0  0  0  0  0  0  0999 V2000
    8.8288    0.9307   37.5500 C   0  0  0  0  0  0  0  0  0  0  0  0
    8.7597    2.2755   37.2599 N   0  0  0  0  0  0  0  0  0  0  0  0
    9.4520    3.1307   38.0573 C   0  0  0  0  0  0  0  0  0  0  0  0
   10.0802    2.6164   38.9791 O   0  0  0  0  0  0  0  0  0  0  0  0
   10.1932    5.3331   38.7272 C   0  0  0  0  0  0  0  0  0  0  0  0
    9.4840    4.4884   37.9002 N   0  0  0  0  0  0  0  0  0  0  0  0
    8.7442    4.9192   36.8427 C   0  0  0  0  0  0  0  0  0  0  0  0
    8.0553    4.0498   36.0477 C   0  0  0  0  0  0  0  0  0  0  0  0
    8.0148    2.6514   36.2005 C   0  0  0  0  0  0  0  0  0  0  0  0
    7.4184    1.8171   35.5243 O   0  0  0  0  0  0  0  0  0  0  0  0
    7.4265    4.8315   35.0893 N   0  0  0  0  0  0  0  0  0  0  0  0
    7.7764    6.1120   35.3675 C   0  0  0  0  0  0  0  0  0  0  0  0
    8.5613    6.2265   36.4046 N   0  0  0  0  0  0  0  0  0  0  0  0
  1  2  1  0  0  0  0
  2  3  1  0  0  0  0
  2  9  1  0  0  0  0
  3  4  2  0  0  0  0
  3  6  1  0  0  0  0
  6  5  1  0  0  0  0
  6  7  1  0  0  0  0
  7  8  2  0  0  0  0
  7 13  1  0  0  0  0
  8  9  1  0  0  0  0
  8 11  1  0  0  0  0
  9 10  2  0  0  0  0
 11 12  1  0  0  0  0
 12 13  2  0  0  0  0
M  END
>  <CHROM.1>
8.68717718,3.75203454,36.94052919,1.11170524,0.92522898,2.99412854

>  <Name>
1o15_lig

>  <RI>
0

>  <Rbt.Current_Directory>
/home/itssahil/PROJECTS/Mol_Feturizer/New_Systems/rnas/1o15

>  <Rbt.Executable>
rbdock ($Id: //depot/dev/client3/rdock/2013.1/src/exe/rbdock.cxx#4 $)

>  <Rbt.Library>
libRbt.so (2013.1, Build901 2013/11/27)

>  <Rbt.Parameter_File>
/export/apps/rDock/src/rDock_2013.1_src/data/scripts/dock_solv.prm

>  <Rbt.Receptor>
prm/pocket_docking_2.prm

>  <SCORE>
-23.3305

>  <SCORE.INTER>
-23.3305

>  <SCORE.INTER.CONST>
1

>  <SCORE.INTER.POLAR>
-2.11701

>  <SCORE.INTER.ROT>
0

>  <SCORE.INTER.SOLV>
7.32288

>  <SCORE.INTER.VDW>
-14.5379

>  <SCORE.INTER.norm>
-1.79466

>  <SCORE.INTRA>
0

>  <SCORE.INTRA.DIHEDRAL>
0

>  <SCORE.INTRA.DIHEDRAL.0>
0

>  <SCORE.INTRA.POLAR>
0

>  <SCORE.INTRA.POLAR.0>
0

>  <SCORE.INTRA.REPUL>
0

>  <SCORE.INTRA.REPUL.0>
0

>  <SCORE.INTRA.SOLV>
0

>  <SCORE.INTRA.SOLV.lig_0>
-12.9184

>  <SCORE.INTRA.VDW>
0

>  <SCORE.INTRA.VDW.0>
0

>  <SCORE.INTRA.norm>
0

>  <SCORE.RESTR>
0

>  <SCORE.RESTR.CAVITY>
0

>  <SCORE.RESTR.norm>
0

>  <SCORE.SYSTEM>
0

>  <SCORE.SYSTEM.CONST>
0

>  <SCORE.SYSTEM.DIHEDRAL>
0

>  <SCORE.SYSTEM.SOLV>
0

>  <SCORE.SYSTEM.norm>
0

>  <SCORE.heavy>
13

>  <SCORE.norm>
-1.79466

>  <RMSD>
1.130

$$$$
1o15_lig
 OpenBabel11021811403D
libRbt.so/2013.1/901 2013/11/27
 13 14  0  0  0  0  0  0  0  0999 V2000
   10.1705    1.0432   36.4606 C   0  0  0  0  0  0  0  0  0  0  0  0
    9.7607    2.3582   36.4631 N   0  0  0  0  0  0  0  0  0  0  0  0
   10.3736    3.2099   37.3266 C   0  0  0  0  0  0  0  0  0  0  0  0
   11.2457    2.7179   38.0381 O   0  0  0  0  0  0  0  0  0  0  0  0
   10.7171    5.3804   38.3363 C   0  0  0  0  0  0  0  0  0  0  0  0
   10.0807    4.5396   37.4483 N   0  0  0  0  0  0  0  0  0  0  0  0
    9.0967    4.9473   36.6018 C   0  0  0  0  0  0  0  0  0  0  0  0
    8.4904    4.0826   35.7373 C   0  0  0  0  0  0  0  0  0  0  0  0
    8.7835    2.7126   35.6041 C   0  0  0  0  0  0  0  0  0  0  0  0
    8.2786    1.8841   34.8507 O   0  0  0  0  0  0  0  0  0  0  0  0
    7.5530    4.8356   35.0451 N   0  0  0  0  0  0  0  0  0  0  0  0
    7.6560    6.0965   35.5341 C   0  0  0  0  0  0  0  0  0  0  0  0
    8.5606    6.2236   36.4670 N   0  0  0  0  0  0  0  0  0  0  0  0
  1  2  1  0  0  0  0
  2  3  1  0  0  0  0
  2  9  1  0  0  0  0
  3  4  2  0  0  0  0
  3  6  1  0  0  0  0
  6  5  1  0  0  0  0
  6  7  1  0  0  0  0
  7  8  2  0  0  0  0
  7 13  1  0  0  0  0
  8  9  1  0  0  0  0
  8 11  1  0  0  0  0
  9 10  2  0  0  0  0
 11 12  1  0  0  0  0
 12 13  2  0  0  0  0
M  END
>  <CHROM.1>
9.31379685,3.80316146,36.46463077,0.77346712,0.75639557,-2.84278255

>  <Name>
1o15_lig

>  <RI>
0

>  <Rbt.Current_Directory>
/home/itssahil/PROJECTS/Mol_Feturizer/New_Systems/rnas/1o15

>  <Rbt.Executable>
rbdock ($Id: //depot/dev/client3/rdock/2013.1/src/exe/rbdock.cxx#4 $)

>  <Rbt.Library>
libRbt.so (2013.1, Build901 2013/11/27)

>  <Rbt.Parameter_File>
/export/apps/rDock/src/rDock_2013.1_src/data/scripts/dock_solv.prm

>  <Rbt.Receptor>
prm/pocket_docking_5.prm

>  <SCORE>
-22.8228

>  <SCORE.INTER>
-22.8228

>  <SCORE.INTER.CONST>
1

>  <SCORE.INTER.POLAR>
-2.1235

>  <SCORE.INTER.ROT>
0

>  <SCORE.INTER.SOLV>
5.56941

>  <SCORE.INTER.VDW>
-13.5934

>  <SCORE.INTER.norm>
-1.7556

>  <SCORE.INTRA>
0

>  <SCORE.INTRA.DIHEDRAL>
0

>  <SCORE.INTRA.DIHEDRAL.0>
0

>  <SCORE.INTRA.POLAR>
0

>  <SCORE.INTRA.POLAR.0>
0

>  <SCORE.INTRA.REPUL>
0

>  <SCORE.INTRA.REPUL.0>
0

>  <SCORE.INTRA.SOLV>
0

>  <SCORE.INTRA.SOLV.lig_0>
-12.9184

>  <SCORE.INTRA.VDW>
0

>  <SCORE.INTRA.VDW.0>
0

>  <SCORE.INTRA.norm>
0

>  <SCORE.RESTR>
0

>  <SCORE.RESTR.CAVITY>
0

>  <SCORE.RESTR.norm>
0

>  <SCORE.SYSTEM>
0

>  <SCORE.SYSTEM.CONST>
0

>  <SCORE.SYSTEM.DIHEDRAL>
0

>  <SCORE.SYSTEM.SOLV>
0

>  <SCORE.SYSTEM.norm>
0

>  <SCORE.heavy>
13

>  <SCORE.norm>
-1.7556

>  <RMSD>
1.130

$$$$
1o15_lig
 OpenBabel11021811403D
libRbt.so/2013.1/901 2013/11/27
 13 14  0  0  0  0  0  0  0  0999 V2000
    8.7883    0.9262   37.5426 C   0  0  0  0  0  0  0  0  0  0  0  0
    8.7372    2.2736   37.2607 N   0  0  0  0  0  0  0  0  0  0  0  0
    9.4403    3.1147   38.0637 C   0  0  0  0  0  0  0  0  0  0  0  0
   10.0610    2.5863   38.9827 O   0  0  0  0  0  0  0  0  0  0  0  0
   10.2102    5.3028   38.7476 C   0  0  0  0  0  0  0  0  0  0  0  0
    9.4904    4.4727   37.9151 N   0  0  0  0  0  0  0  0  0  0  0  0
    8.7570    4.9198   36.8598 C   0  0  0  0  0  0  0  0  0  0  0  0
    8.0571    4.0645   36.0591 C   0  0  0  0  0  0  0  0  0  0  0  0
    7.9980    2.6658   36.2032 C   0  0  0  0  0  0  0  0  0  0  0  0
    7.3910    1.8438   35.5216 O   0  0  0  0  0  0  0  0  0  0  0  0
    7.4393    4.8604   35.1052 N   0  0  0  0  0  0  0  0  0  0  0  0
    7.8060    6.1344   35.3914 C   0  0  0  0  0  0  0  0  0  0  0  0
    8.5917    6.2321   36.4296 N   0  0  0  0  0  0  0  0  0  0  0  0
  1  2  1  0  0  0  0
  2  3  1  0  0  0  0
  2  9  1  0  0  0  0
  3  4  2  0  0  0  0
  3  6  1  0  0  0  0
  6  5  1  0  0  0  0
  6  7  1  0  0  0  0
  7  8  2  0  0  0  0
  7 13  1  0  0  0  0
  8  9  1  0  0  0  0
  8 11  1  0  0  0  0
  9 10  2  0  0  0  0
 11 12  1  0  0  0  0
 12 13  2  0  0  0  0
M  END
>  <CHROM.1>
8.68443996,3.75291699,36.95039914,1.13361511,0.92376854,2.98280239

>  <Name>
1o15_lig

>  <RI>
0

>  <Rbt.Current_Directory>
/home/itssahil/PROJECTS/Mol_Feturizer/New_Systems/rnas/1o15

>  <Rbt.Executable>
rbdock ($Id: //depot/dev/client3/rdock/2013.1/src/exe/rbdock.cxx#4 $)

>  <Rbt.Library>
libRbt.so (2013.1, Build901 2013/11/27)

>  <Rbt.Parameter_File>
/export/apps/rDock/src/rDock_2013.1_src/data/scripts/dock_solv.prm

>  <Rbt.Receptor>
prm/pocket_docking_2.prm

>  <SCORE>
-23.3182

>  <SCORE.INTER>
-23.3182

>  <SCORE.INTER.CONST>
1

>  <SCORE.INTER.POLAR>
-2.06629

>  <SCORE.INTER.ROT>
0

>  <SCORE.INTER.SOLV>
7.33256

>  <SCORE.INTER.VDW>
-14.702

>  <SCORE.INTER.norm>
-1.79371

>  <SCORE.INTRA>
0

>  <SCORE.INTRA.DIHEDRAL>
0

>  <SCORE.INTRA.DIHEDRAL.0>
0

>  <SCORE.INTRA.POLAR>
0

>  <SCORE.INTRA.POLAR.0>
0

>  <SCORE.INTRA.REPUL>
0

>  <SCORE.INTRA.REPUL.0>
0

>  <SCORE.INTRA.SOLV>
0

>  <SCORE.INTRA.SOLV.lig_0>
-12.9184

>  <SCORE.INTRA.VDW>
0

>  <SCORE.INTRA.VDW.0>
0

>  <SCORE.INTRA.norm>
0

>  <SCORE.RESTR>
0

>  <SCORE.RESTR.CAVITY>
0

>  <SCORE.RESTR.norm>
0

>  <SCORE.SYSTEM>
0

>  <SCORE.SYSTEM.CONST>
0

>  <SCORE.SYSTEM.DIHEDRAL>
0

>  <SCORE.SYSTEM.SOLV>
0

>  <SCORE.SYSTEM.norm>
0

>  <SCORE.heavy>
13

>  <SCORE.norm>
-1.79371

>  <RMSD>
1.133

$$$$
1o15_lig
 OpenBabel11021811403D
libRbt.so/2013.1/901 2013/11/27
 13 14  0  0  0  0  0  0  0  0999 V2000
    8.8255    0.9343   37.5332 C   0  0  0  0  0  0  0  0  0  0  0  0
    8.7561    2.2811   37.2529 N   0  0  0  0  0  0  0  0  0  0  0  0
    9.4475    3.1308   38.0570 C   0  0  0  0  0  0  0  0  0  0  0  0
   10.0752    2.6100   38.9755 O   0  0  0  0  0  0  0  0  0  0  0  0
   10.1873    5.3285   38.7435 C   0  0  0  0  0  0  0  0  0  0  0  0
    9.4790    4.4896   37.9099 N   0  0  0  0  0  0  0  0  0  0  0  0
    8.7399    4.9278   36.8550 C   0  0  0  0  0  0  0  0  0  0  0  0
    8.0519    4.0640   36.0532 C   0  0  0  0  0  0  0  0  0  0  0  0
    8.0118    2.6645   36.1957 C   0  0  0  0  0  0  0  0  0  0  0  0
    7.4162    1.8349   35.5130 O   0  0  0  0  0  0  0  0  0  0  0  0
    7.4234    4.8524   35.1000 N   0  0  0  0  0  0  0  0  0  0  0  0
    7.7726    6.1310   35.3878 C   0  0  0  0  0  0  0  0  0  0  0  0
    8.5568    6.2382   36.4262 N   0  0  0  0  0  0  0  0  0  0  0  0
  1  2  1  0  0  0  0
  2  3  1  0  0  0  0
  2  9  1  0  0  0  0
  3  4  2  0  0  0  0
  3  6  1  0  0  0  0
  6  5  1  0  0  0  0
  6  7  1  0  0  0  0
  7  8  2  0  0  0  0
  7 13  1  0  0  0  0
  8  9  1  0  0  0  0
  8 11  1  0  0  0  0
  9 10  2  0  0  0  0
 11 12  1  0  0  0  0
 12 13  2  0  0  0  0
M  END
>  <CHROM.1>
8.68321494,3.75995272,36.94422726,1.11124409,0.92599344,3.00179064

>  <Name>
1o15_lig

>  <RI>
0

>  <Rbt.Current_Directory>
/home/itssahil/PROJECTS/Mol_Feturizer/New_Systems/rnas/1o15

>  <Rbt.Executable>
rbdock ($Id: //depot/dev/client3/rdock/2013.1/src/exe/rbdock.cxx#4 $)

>  <Rbt.Library>
libRbt.so (2013.1, Build901 2013/11/27)

>  <Rbt.Parameter_File>
/export/apps/rDock/src/rDock_2013.1_src/data/scripts/dock_solv.prm

>  <Rbt.Receptor>
prm/pocket_docking_2.prm

>  <SCORE>
-23.3453

>  <SCORE.INTER>
-23.3453

>  <SCORE.INTER.CONST>
1

>  <SCORE.INTER.POLAR>
-2.09164

>  <SCORE.INTER.ROT>
0

>  <SCORE.INTER.SOLV>
7.34655

>  <SCORE.INTER.VDW>
-14.6403

>  <SCORE.INTER.norm>
-1.7958

>  <SCORE.INTRA>
0

>  <SCORE.INTRA.DIHEDRAL>
0

>  <SCORE.INTRA.DIHEDRAL.0>
0

>  <SCORE.INTRA.POLAR>
0

>  <SCORE.INTRA.POLAR.0>
0

>  <SCORE.INTRA.REPUL>
0

>  <SCORE.INTRA.REPUL.0>
0

>  <SCORE.INTRA.SOLV>
0

>  <SCORE.INTRA.SOLV.lig_0>
-12.9184

>  <SCORE.INTRA.VDW>
0

>  <SCORE.INTRA.VDW.0>
0

>  <SCORE.INTRA.norm>
0

>  <SCORE.RESTR>
0

>  <SCORE.RESTR.CAVITY>
0

>  <SCORE.RESTR.norm>
0

>  <SCORE.SYSTEM>
0

>  <SCORE.SYSTEM.CONST>
0

>  <SCORE.SYSTEM.DIHEDRAL>
0

>  <SCORE.SYSTEM.SOLV>
0

>  <SCORE.SYSTEM.norm>
0

>  <SCORE.heavy>
13

>  <SCORE.norm>
-1.7958

>  <RMSD>
1.137

$$$$
1o15_lig
 OpenBabel11021811403D
libRbt.so/2013.1/901 2013/11/27
 13 14  0  0  0  0  0  0  0  0999 V2000
   10.1517    1.0292   36.4275 C   0  0  0  0  0  0  0  0  0  0  0  0
    9.7474    2.3460   36.4376 N   0  0  0  0  0  0  0  0  0  0  0  0
   10.3716    3.1924   37.2982 C   0  0  0  0  0  0  0  0  0  0  0  0
   11.2479    2.6947   38.0004 O   0  0  0  0  0  0  0  0  0  0  0  0
   10.7332    5.3584   38.3113 C   0  0  0  0  0  0  0  0  0  0  0  0
   10.0853    4.5230   37.4265 N   0  0  0  0  0  0  0  0  0  0  0  0
    9.0955    4.9373   36.5900 C   0  0  0  0  0  0  0  0  0  0  0  0
    8.4780    4.0778   35.7284 C   0  0  0  0  0  0  0  0  0  0  0  0
    8.7641    2.7070   35.5884 C   0  0  0  0  0  0  0  0  0  0  0  0
    8.2491    1.8829   34.8371 O   0  0  0  0  0  0  0  0  0  0  0  0
    7.5376    4.8368   35.0468 N   0  0  0  0  0  0  0  0  0  0  0  0
    7.6502    6.0958   35.5387 C   0  0  0  0  0  0  0  0  0  0  0  0
    8.5636    6.2163   36.4638 N   0  0  0  0  0  0  0  0  0  0  0  0
  1  2  1  0  0  0  0
  2  3  1  0  0  0  0
  2  9  1  0  0  0  0
  3  4  2  0  0  0  0
  3  6  1  0  0  0  0
  6  5  1  0  0  0  0
  6  7  1  0  0  0  0
  7  8  2  0  0  0  0
  7 13  1  0  0  0  0
  8  9  1  0  0  0  0
  8 11  1  0  0  0  0
  9 10  2  0  0  0  0
 11 12  1  0  0  0  0
 12 13  2  0  0  0  0
M  END
>  <CHROM.1>
9.30663692,3.79271329,36.44745910,0.78250233,0.74910323,-2.84593687

>  <Name>
1o15_lig

>  <RI>
0

>  <Rbt.Current_Directory>
/home/itssahil/PROJECTS/Mol_Feturizer/New_Systems/rnas/1o15

>  <Rbt.Executable>
rbdock ($Id: //depot/dev/client3/rdock/2013.1/src/exe/rbdock.cxx#4 $)

>  <Rbt.Library>
libRbt.so (2013.1, Build901 2013/11/27)

>  <Rbt.Parameter_File>
/export/apps/rDock/src/rDock_2013.1_src/data/scripts/dock_solv.prm

>  <Rbt.Receptor>
prm/pocket_docking_7.prm

>  <SCORE>
-22.8681

>  <SCORE.INTER>
-22.8681

>  <SCORE.INTER.CONST>
1

>  <SCORE.INTER.POLAR>
-2.10821

>  <SCORE.INTER.ROT>
0

>  <SCORE.INTER.SOLV>
5.60558

>  <SCORE.INTER.VDW>
-13.6866

>  <SCORE.INTER.norm>
-1.75909

>  <SCORE.INTRA>
0

>  <SCORE.INTRA.DIHEDRAL>
0

>  <SCORE.INTRA.DIHEDRAL.0>
0

>  <SCORE.INTRA.POLAR>
0

>  <SCORE.INTRA.POLAR.0>
0

>  <SCORE.INTRA.REPUL>
0

>  <SCORE.INTRA.REPUL.0>
0

>  <SCORE.INTRA.SOLV>
0

>  <SCORE.INTRA.SOLV.lig_0>
-12.9184

>  <SCORE.INTRA.VDW>
0

>  <SCORE.INTRA.VDW.0>
0

>  <SCORE.INTRA.norm>
0

>  <SCORE.RESTR>
0

>  <SCORE.RESTR.CAVITY>
0

>  <SCORE.RESTR.norm>
0

>  <SCORE.SYSTEM>
0

>  <SCORE.SYSTEM.CONST>
0

>  <SCORE.SYSTEM.DIHEDRAL>
0

>  <SCORE.SYSTEM.SOLV>
0

>  <SCORE.SYSTEM.norm>
0

>  <SCORE.heavy>
13

>  <SCORE.norm>
-1.75909

>  <RMSD>
1.137

$$$$
1o15_lig
 OpenBabel11021811403D
libRbt.so/2013.1/901 2013/11/27
 13 14  0  0  0  0  0  0  0  0999 V2000
   10.1486    1.0385   36.4364 C   0  0  0  0  0  0  0  0  0  0  0  0
    9.7447    2.3554   36.4442 N   0  0  0  0  0  0  0  0  0  0  0  0
   10.3675    3.2026   37.3050 C   0  0  0  0  0  0  0  0  0  0  0  0
   11.2424    2.7055   38.0094 O   0  0  0  0  0  0  0  0  0  0  0  0
   10.7279    5.3697   38.3162 C   0  0  0  0  0  0  0  0  0  0  0  0
   10.0814    4.5335   37.4312 N   0  0  0  0  0  0  0  0  0  0  0  0
    9.0934    4.9471   36.5923 C   0  0  0  0  0  0  0  0  0  0  0  0
    8.4772    4.0868   35.7305 C   0  0  0  0  0  0  0  0  0  0  0  0
    8.7631    2.7157   35.5927 C   0  0  0  0  0  0  0  0  0  0  0  0
    8.2493    1.8909   34.8414 O   0  0  0  0  0  0  0  0  0  0  0  0
    7.5384    4.8453   35.0463 N   0  0  0  0  0  0  0  0  0  0  0  0
    7.6505    6.1048   35.5368 C   0  0  0  0  0  0  0  0  0  0  0  0
    8.5622    6.2261   36.4636 N   0  0  0  0  0  0  0  0  0  0  0  0
  1  2  1  0  0  0  0
  2  3  1  0  0  0  0
  2  9  1  0  0  0  0
  3  4  2  0  0  0  0
  3  6  1  0  0  0  0
  6  5  1  0  0  0  0
  6  7  1  0  0  0  0
  7  8  2  0  0  0  0
  7 13  1  0  0  0  0
  8  9  1  0  0  0  0
  8 11  1  0  0  0  0
  9 10  2  0  0  0  0
 11 12  1  0  0  0  0
 12 13  2  0  0  0  0
M  END
>  <CHROM.1>
9.30440658,3.80227176,36.45152314,0.78217944,0.75101622,-2.84690535

>  <Name>
1o15_lig

>  <RI>
0

>  <Rbt.Current_Directory>
/home/itssahil/PROJECTS/Mol_Feturizer/New_Systems/rnas/1o15

>  <Rbt.Executable>
rbdock ($Id: //depot/dev/client3/rdock/2013.1/src/exe/rbdock.cxx#4 $)

>  <Rbt.Library>
libRbt.so (2013.1, Build901 2013/11/27)

>  <Rbt.Parameter_File>
/export/apps/rDock/src/rDock_2013.1_src/data/scripts/dock_solv.prm

>  <Rbt.Receptor>
prm/pocket_docking_7.prm

>  <SCORE>
-22.8438

>  <SCORE.INTER>
-22.8438

>  <SCORE.INTER.CONST>
1

>  <SCORE.INTER.POLAR>
-2.1098

>  <SCORE.INTER.ROT>
0

>  <SCORE.INTER.SOLV>
5.60792

>  <SCORE.INTER.VDW>
-13.6658

>  <SCORE.INTER.norm>
-1.75721

>  <SCORE.INTRA>
0

>  <SCORE.INTRA.DIHEDRAL>
0

>  <SCORE.INTRA.DIHEDRAL.0>
0

>  <SCORE.INTRA.POLAR>
0

>  <SCORE.INTRA.POLAR.0>
0

>  <SCORE.INTRA.REPUL>
0

>  <SCORE.INTRA.REPUL.0>
0

>  <SCORE.INTRA.SOLV>
0

>  <SCORE.INTRA.SOLV.lig_0>
-12.9184

>  <SCORE.INTRA.VDW>
0

>  <SCORE.INTRA.VDW.0>
0

>  <SCORE.INTRA.norm>
0

>  <SCORE.RESTR>
0

>  <SCORE.RESTR.CAVITY>
0

>  <SCORE.RESTR.norm>
0

>  <SCORE.SYSTEM>
0

>  <SCORE.SYSTEM.CONST>
0

>  <SCORE.SYSTEM.DIHEDRAL>
0

>  <SCORE.SYSTEM.SOLV>
0

>  <SCORE.SYSTEM.norm>
0

>  <SCORE.heavy>
13

>  <SCORE.norm>
-1.75721

>  <RMSD>
1.140

$$$$
1o15_lig
 OpenBabel11021811403D
libRbt.so/2013.1/901 2013/11/27
 13 14  0  0  0  0  0  0  0  0999 V2000
   10.1450    1.0343   36.4302 C   0  0  0  0  0  0  0  0  0  0  0  0
    9.7452    2.3524   36.4368 N   0  0  0  0  0  0  0  0  0  0  0  0
   10.3744    3.1998   37.2928 C   0  0  0  0  0  0  0  0  0  0  0  0
   11.2509    2.7016   37.9945 O   0  0  0  0  0  0  0  0  0  0  0  0
   10.7458    5.3680   38.2974 C   0  0  0  0  0  0  0  0  0  0  0  0
   10.0929    4.5318   37.4172 N   0  0  0  0  0  0  0  0  0  0  0  0
    9.1023    4.9465   36.5818 C   0  0  0  0  0  0  0  0  0  0  0  0
    8.4797    4.0860   35.7248 C   0  0  0  0  0  0  0  0  0  0  0  0
    8.7609    2.7138   35.5889 C   0  0  0  0  0  0  0  0  0  0  0  0
    8.2411    1.8889   34.8417 O   0  0  0  0  0  0  0  0  0  0  0  0
    7.5400    4.8458   35.0430 N   0  0  0  0  0  0  0  0  0  0  0  0
    7.6582    6.1061   35.5302 C   0  0  0  0  0  0  0  0  0  0  0  0
    8.5744    6.2268   36.4526 N   0  0  0  0  0  0  0  0  0  0  0  0
  1  2  1  0  0  0  0
  2  3  1  0  0  0  0
  2  9  1  0  0  0  0
  3  4  2  0  0  0  0
  3  6  1  0  0  0  0
  6  5  1  0  0  0  0
  6  7  1  0  0  0  0
  7  8  2  0  0  0  0
  7 13  1  0  0  0  0
  8  9  1  0  0  0  0
  8 11  1  0  0  0  0
  9 10  2  0  0  0  0
 11 12  1  0  0  0  0
 12 13  2  0  0  0  0
M  END
>  <CHROM.1>
9.30923667,3.80069975,36.44275052,0.78788086,0.74758957,-2.85307517

>  <Name>
1o15_lig

>  <RI>
0

>  <Rbt.Current_Directory>
/home/itssahil/PROJECTS/Mol_Feturizer/New_Systems/rnas/1o15

>  <Rbt.Executable>
rbdock ($Id: //depot/dev/client3/rdock/2013.1/src/exe/rbdock.cxx#4 $)

>  <Rbt.Library>
libRbt.so (2013.1, Build901 2013/11/27)

>  <Rbt.Parameter_File>
/export/apps/rDock/src/rDock_2013.1_src/data/scripts/dock_solv.prm

>  <Rbt.Receptor>
prm/pocket_docking_8.prm

>  <SCORE>
-22.835

>  <SCORE.INTER>
-22.835

>  <SCORE.INTER.CONST>
1

>  <SCORE.INTER.POLAR>
-2.10903

>  <SCORE.INTER.ROT>
0

>  <SCORE.INTER.SOLV>
5.60572

>  <SCORE.INTER.VDW>
-13.6618

>  <SCORE.INTER.norm>
-1.75654

>  <SCORE.INTRA>
0

>  <SCORE.INTRA.DIHEDRAL>
0

>  <SCORE.INTRA.DIHEDRAL.0>
0

>  <SCORE.INTRA.POLAR>
0

>  <SCORE.INTRA.POLAR.0>
0

>  <SCORE.INTRA.REPUL>
0

>  <SCORE.INTRA.REPUL.0>
0

>  <SCORE.INTRA.SOLV>
0

>  <SCORE.INTRA.SOLV.lig_0>
-12.9184

>  <SCORE.INTRA.VDW>
0

>  <SCORE.INTRA.VDW.0>
0

>  <SCORE.INTRA.norm>
0

>  <SCORE.RESTR>
0

>  <SCORE.RESTR.CAVITY>
0

>  <SCORE.RESTR.norm>
0

>  <SCORE.SYSTEM>
0

>  <SCORE.SYSTEM.CONST>
0

>  <SCORE.SYSTEM.DIHEDRAL>
0

>  <SCORE.SYSTEM.SOLV>
0

>  <SCORE.SYSTEM.norm>
0

>  <SCORE.heavy>
13

>  <SCORE.norm>
-1.75654

>  <RMSD>
1.142

$$$$
1o15_lig
 OpenBabel11021811403D
libRbt.so/2013.1/901 2013/11/27
 13 14  0  0  0  0  0  0  0  0999 V2000
   10.1919    1.0366   36.4146 C   0  0  0  0  0  0  0  0  0  0  0  0
    9.7840    2.3523   36.4258 N   0  0  0  0  0  0  0  0  0  0  0  0
   10.4072    3.2001   37.2858 C   0  0  0  0  0  0  0  0  0  0  0  0
   11.2860    2.7044   37.9865 O   0  0  0  0  0  0  0  0  0  0  0  0
   10.7646    5.3666   38.2992 C   0  0  0  0  0  0  0  0  0  0  0  0
   10.1176    4.5298   37.4151 N   0  0  0  0  0  0  0  0  0  0  0  0
    9.1254    4.9418   36.5802 C   0  0  0  0  0  0  0  0  0  0  0  0
    8.5089    4.0810   35.7192 C   0  0  0  0  0  0  0  0  0  0  0  0
    8.7985    2.7110   35.5783 C   0  0  0  0  0  0  0  0  0  0  0  0
    8.2845    1.8859   34.8274 O   0  0  0  0  0  0  0  0  0  0  0  0
    7.5654    4.8378   35.0394 N   0  0  0  0  0  0  0  0  0  0  0  0
    7.6755    6.0968   35.5316 C   0  0  0  0  0  0  0  0  0  0  0  0
    8.5899    6.2194   36.4554 N   0  0  0  0  0  0  0  0  0  0  0  0
  1  2  1  0  0  0  0
  2  3  1  0  0  0  0
  2  9  1  0  0  0  0
  3  4  2  0  0  0  0
  3  6  1  0  0  0  0
  6  5  1  0  0  0  0
  6  7  1  0  0  0  0
  7  8  2  0  0  0  0
  7 13  1  0  0  0  0
  8  9  1  0  0  0  0
  8 11  1  0  0  0  0
  9 10  2  0  0  0  0
 11 12  1  0  0  0  0
 12 13  2  0  0  0  0
M  END
>  <CHROM.1>
9.33940848,3.79785787,36.43694504,0.77960920,0.74687728,-2.84356619

>  <Name>
1o15_lig

>  <RI>
0

>  <Rbt.Current_Directory>
/home/itssahil/PROJECTS/Mol_Feturizer/New_Systems/rnas/1o15

>  <Rbt.Executable>
rbdock ($Id: //depot/dev/client3/rdock/2013.1/src/exe/rbdock.cxx#4 $)

>  <Rbt.Library>
libRbt.so (2013.1, Build901 2013/11/27)

>  <Rbt.Parameter_File>
/export/apps/rDock/src/rDock_2013.1_src/data/scripts/dock_solv.prm

>  <Rbt.Receptor>
prm/pocket_docking_8.prm

>  <SCORE>
-22.6951

>  <SCORE.INTER>
-22.6951

>  <SCORE.INTER.CONST>
1

>  <SCORE.INTER.POLAR>
-2.12624

>  <SCORE.INTER.ROT>
0

>  <SCORE.INTER.SOLV>
5.57611

>  <SCORE.INTER.VDW>
-13.5013

>  <SCORE.INTER.norm>
-1.74577

>  <SCORE.INTRA>
0

>  <SCORE.INTRA.DIHEDRAL>
0

>  <SCORE.INTRA.DIHEDRAL.0>
0

>  <SCORE.INTRA.POLAR>
0

>  <SCORE.INTRA.POLAR.0>
0

>  <SCORE.INTRA.REPUL>
0

>  <SCORE.INTRA.REPUL.0>
0

>  <SCORE.INTRA.SOLV>
0

>  <SCORE.INTRA.SOLV.lig_0>
-12.9184

>  <SCORE.INTRA.VDW>
0

>  <SCORE.INTRA.VDW.0>
0

>  <SCORE.INTRA.norm>
0

>  <SCORE.RESTR>
0

>  <SCORE.RESTR.CAVITY>
0

>  <SCORE.RESTR.norm>
0

>  <SCORE.SYSTEM>
0

>  <SCORE.SYSTEM.CONST>
0

>  <SCORE.SYSTEM.DIHEDRAL>
0

>  <SCORE.SYSTEM.SOLV>
0

>  <SCORE.SYSTEM.norm>
0

>  <SCORE.heavy>
13

>  <SCORE.norm>
-1.74577

>  <RMSD>
1.142

$$$$
1o15_lig
 OpenBabel11021811403D
libRbt.so/2013.1/901 2013/11/27
 13 14  0  0  0  0  0  0  0  0999 V2000
   10.1564    1.0449   36.4360 C   0  0  0  0  0  0  0  0  0  0  0  0
    9.7486    2.3606   36.4446 N   0  0  0  0  0  0  0  0  0  0  0  0
   10.3667    3.2085   37.3083 C   0  0  0  0  0  0  0  0  0  0  0  0
   11.2411    2.7128   38.0144 O   0  0  0  0  0  0  0  0  0  0  0  0
   10.7181    5.3751   38.3236 C   0  0  0  0  0  0  0  0  0  0  0  0
   10.0764    4.5383   37.4357 N   0  0  0  0  0  0  0  0  0  0  0  0
    9.0894    4.9503   36.5947 C   0  0  0  0  0  0  0  0  0  0  0  0
    8.4781    4.0894   35.7300 C   0  0  0  0  0  0  0  0  0  0  0  0
    8.7683    2.7194   35.5910 C   0  0  0  0  0  0  0  0  0  0  0  0
    8.2588    1.8942   34.8371 O   0  0  0  0  0  0  0  0  0  0  0  0
    7.5388    4.8462   35.0444 N   0  0  0  0  0  0  0  0  0  0  0  0
    7.6460    6.1053   35.5371 C   0  0  0  0  0  0  0  0  0  0  0  0
    8.5548    6.2279   36.4664 N   0  0  0  0  0  0  0  0  0  0  0  0
  1  2  1  0  0  0  0
  2  3  1  0  0  0  0
  2  9  1  0  0  0  0
  3  4  2  0  0  0  0
  3  6  1  0  0  0  0
  6  5  1  0  0  0  0
  6  7  1  0  0  0  0
  7  8  2  0  0  0  0
  7 13  1  0  0  0  0
  8  9  1  0  0  0  0
  8 11  1  0  0  0  0
  9 10  2  0  0  0  0
 11 12  1  0  0  0  0
 12 13  2  0  0  0  0
M  END
>  <CHROM.1>
9.30411645,3.80627131,36.45284147,0.77730979,0.75273998,-2.84212735

>  <Name>
1o15_lig

>  <RI>
0

>  <Rbt.Current_Directory>
/home/itssahil/PROJECTS/Mol_Feturizer/New_Systems/rnas/1o15

>  <Rbt.Executable>
rbdock ($Id: //depot/dev/client3/rdock/2013.1/src/exe/rbdock.cxx#4 $)

>  <Rbt.Library>
libRbt.so (2013.1, Build901 2013/11/27)

>  <Rbt.Parameter_File>
/export/apps/rDock/src/rDock_2013.1_src/data/scripts/dock_solv.prm

>  <Rbt.Receptor>
prm/blind_docking_80.prm

>  <SCORE>
-22.8497

>  <SCORE.INTER>
-22.8497

>  <SCORE.INTER.CONST>
1

>  <SCORE.INTER.POLAR>
-2.1128

>  <SCORE.INTER.ROT>
0

>  <SCORE.INTER.SOLV>
5.61612

>  <SCORE.INTER.VDW>
-13.6625

>  <SCORE.INTER.norm>
-1.75767

>  <SCORE.INTRA>
0

>  <SCORE.INTRA.DIHEDRAL>
0

>  <SCORE.INTRA.DIHEDRAL.0>
0

>  <SCORE.INTRA.POLAR>
0

>  <SCORE.INTRA.POLAR.0>
0

>  <SCORE.INTRA.REPUL>
0

>  <SCORE.INTRA.REPUL.0>
0

>  <SCORE.INTRA.SOLV>
0

>  <SCORE.INTRA.SOLV.lig_0>
-12.9184

>  <SCORE.INTRA.VDW>
0

>  <SCORE.INTRA.VDW.0>
0

>  <SCORE.INTRA.norm>
0

>  <SCORE.RESTR>
0

>  <SCORE.RESTR.CAVITY>
0

>  <SCORE.RESTR.norm>
0

>  <SCORE.SYSTEM>
0

>  <SCORE.SYSTEM.CONST>
0

>  <SCORE.SYSTEM.DIHEDRAL>
0

>  <SCORE.SYSTEM.SOLV>
0

>  <SCORE.SYSTEM.norm>
0

>  <SCORE.heavy>
13

>  <SCORE.norm>
-1.75767

>  <RMSD>
1.143

$$$$
1o15_lig
 OpenBabel11021811403D
libRbt.so/2013.1/901 2013/11/27
 13 14  0  0  0  0  0  0  0  0999 V2000
    8.8241    0.9288   37.4971 C   0  0  0  0  0  0  0  0  0  0  0  0
    8.7529    2.2775   37.2264 N   0  0  0  0  0  0  0  0  0  0  0  0
    9.4429    3.1223   38.0369 C   0  0  0  0  0  0  0  0  0  0  0  0
   10.0711    2.5957   38.9517 O   0  0  0  0  0  0  0  0  0  0  0  0
   10.1796    5.3160   38.7394 C   0  0  0  0  0  0  0  0  0  0  0  0
    9.4727    4.4821   37.8995 N   0  0  0  0  0  0  0  0  0  0  0  0
    8.7332    4.9269   36.8477 C   0  0  0  0  0  0  0  0  0  0  0  0
    8.0466    4.0680   36.0395 C   0  0  0  0  0  0  0  0  0  0  0  0
    8.0084    2.6674   36.1719 C   0  0  0  0  0  0  0  0  0  0  0  0
    7.4141    1.8421   35.4831 O   0  0  0  0  0  0  0  0  0  0  0  0
    7.4173    4.8624   35.0919 N   0  0  0  0  0  0  0  0  0  0  0  0
    7.7647    6.1394   35.3889 C   0  0  0  0  0  0  0  0  0  0  0  0
    8.5484    6.2402   36.4283 N   0  0  0  0  0  0  0  0  0  0  0  0
  1  2  1  0  0  0  0
  2  3  1  0  0  0  0
  2  9  1  0  0  0  0
  3  4  2  0  0  0  0
  3  6  1  0  0  0  0
  6  5  1  0  0  0  0
  6  7  1  0  0  0  0
  7  8  2  0  0  0  0
  7 13  1  0  0  0  0
  8  9  1  0  0  0  0
  8 11  1  0  0  0  0
  9 10  2  0  0  0  0
 11 12  1  0  0  0  0
 12 13  2  0  0  0  0
M  END
>  <CHROM.1>
8.67808254,3.75841170,36.92845501,1.10906755,0.92643650,3.01074688

>  <Name>
1o15_lig

>  <RI>
0

>  <Rbt.Current_Directory>
/home/itssahil/PROJECTS/Mol_Feturizer/New_Systems/rnas/1o15

>  <Rbt.Executable>
rbdock ($Id: //depot/dev/client3/rdock/2013.1/src/exe/rbdock.cxx#4 $)

>  <Rbt.Library>
libRbt.so (2013.1, Build901 2013/11/27)

>  <Rbt.Parameter_File>
/export/apps/rDock/src/rDock_2013.1_src/data/scripts/dock_solv.prm

>  <Rbt.Receptor>
prm/pocket_docking_3.prm

>  <SCORE>
-23.3501

>  <SCORE.INTER>
-23.3501

>  <SCORE.INTER.CONST>
1

>  <SCORE.INTER.POLAR>
-2.12394

>  <SCORE.INTER.ROT>
0

>  <SCORE.INTER.SOLV>
7.33589

>  <SCORE.INTER.VDW>
-14.5322

>  <SCORE.INTER.norm>
-1.79616

>  <SCORE.INTRA>
0

>  <SCORE.INTRA.DIHEDRAL>
0

>  <SCORE.INTRA.DIHEDRAL.0>
0

>  <SCORE.INTRA.POLAR>
0

>  <SCORE.INTRA.POLAR.0>
0

>  <SCORE.INTRA.REPUL>
0

>  <SCORE.INTRA.REPUL.0>
0

>  <SCORE.INTRA.SOLV>
0

>  <SCORE.INTRA.SOLV.lig_0>
-12.9184

>  <SCORE.INTRA.VDW>
0

>  <SCORE.INTRA.VDW.0>
0

>  <SCORE.INTRA.norm>
0

>  <SCORE.RESTR>
0

>  <SCORE.RESTR.CAVITY>
0

>  <SCORE.RESTR.norm>
0

>  <SCORE.SYSTEM>
0

>  <SCORE.SYSTEM.CONST>
0

>  <SCORE.SYSTEM.DIHEDRAL>
0

>  <SCORE.SYSTEM.SOLV>
0

>  <SCORE.SYSTEM.norm>
0

>  <SCORE.heavy>
13

>  <SCORE.norm>
-1.79616

>  <RMSD>
1.144

$$$$
1o15_lig
 OpenBabel11021811403D
libRbt.so/2013.1/901 2013/11/27
 13 14  0  0  0  0  0  0  0  0999 V2000
    8.8471    0.9433   37.4824 C   0  0  0  0  0  0  0  0  0  0  0  0
    8.7715    2.2919   37.2121 N   0  0  0  0  0  0  0  0  0  0  0  0
    9.4641    3.1382   38.0188 C   0  0  0  0  0  0  0  0  0  0  0  0
   10.0984    2.6129   38.9302 O   0  0  0  0  0  0  0  0  0  0  0  0
   10.2000    5.3334   38.7173 C   0  0  0  0  0  0  0  0  0  0  0  0
    9.4903    4.4981   37.8813 N   0  0  0  0  0  0  0  0  0  0  0  0
    8.7441    4.9413   36.8335 C   0  0  0  0  0  0  0  0  0  0  0  0
    8.0549    4.0809   36.0290 C   0  0  0  0  0  0  0  0  0  0  0  0
    8.0205    2.6803   36.1616 C   0  0  0  0  0  0  0  0  0  0  0  0
    7.4242    1.8536   35.4761 O   0  0  0  0  0  0  0  0  0  0  0  0
    7.4188    4.8740   35.0848 N   0  0  0  0  0  0  0  0  0  0  0  0
    7.7651    6.1517   35.3800 C   0  0  0  0  0  0  0  0  0  0  0  0
    8.5543    6.2541   36.4151 N   0  0  0  0  0  0  0  0  0  0  0  0
  1  2  1  0  0  0  0
  2  3  1  0  0  0  0
  2  9  1  0  0  0  0
  3  4  2  0  0  0  0
  3  6  1  0  0  0  0
  6  5  1  0  0  0  0
  6  7  1  0  0  0  0
  7  8  2  0  0  0  0
  7 13  1  0  0  0  0
  8  9  1  0  0  0  0
  8 11  1  0  0  0  0
  9 10  2  0  0  0  0
 11 12  1  0  0  0  0
 12 13  2  0  0  0  0
M  END
>  <CHROM.1>
8.69194672,3.77265418,36.91453828,1.10439534,0.92130820,3.01447727

>  <Name>
1o15_lig

>  <RI>
0

>  <Rbt.Current_Directory>
/home/itssahil/PROJECTS/Mol_Feturizer/New_Systems/rnas/1o15

>  <Rbt.Executable>
rbdock ($Id: //depot/dev/client3/rdock/2013.1/src/exe/rbdock.cxx#4 $)

>  <Rbt.Library>
libRbt.so (2013.1, Build901 2013/11/27)

>  <Rbt.Parameter_File>
/export/apps/rDock/src/rDock_2013.1_src/data/scripts/dock_solv.prm

>  <Rbt.Receptor>
prm/pocket_docking_8.prm

>  <SCORE>
-23.4082

>  <SCORE.INTER>
-23.4082

>  <SCORE.INTER.CONST>
1

>  <SCORE.INTER.POLAR>
-2.12986

>  <SCORE.INTER.ROT>
0

>  <SCORE.INTER.SOLV>
7.27163

>  <SCORE.INTER.VDW>
-14.5298

>  <SCORE.INTER.norm>
-1.80063

>  <SCORE.INTRA>
0

>  <SCORE.INTRA.DIHEDRAL>
0

>  <SCORE.INTRA.DIHEDRAL.0>
0

>  <SCORE.INTRA.POLAR>
0

>  <SCORE.INTRA.POLAR.0>
0

>  <SCORE.INTRA.REPUL>
0

>  <SCORE.INTRA.REPUL.0>
0

>  <SCORE.INTRA.SOLV>
0

>  <SCORE.INTRA.SOLV.lig_0>
-12.9184

>  <SCORE.INTRA.VDW>
0

>  <SCORE.INTRA.VDW.0>
0

>  <SCORE.INTRA.norm>
0

>  <SCORE.RESTR>
0

>  <SCORE.RESTR.CAVITY>
0

>  <SCORE.RESTR.norm>
0

>  <SCORE.SYSTEM>
0

>  <SCORE.SYSTEM.CONST>
0

>  <SCORE.SYSTEM.DIHEDRAL>
0

>  <SCORE.SYSTEM.SOLV>
0

>  <SCORE.SYSTEM.norm>
0

>  <SCORE.heavy>
13

>  <SCORE.norm>
-1.80063

>  <RMSD>
1.144

$$$$
1o15_lig
 OpenBabel11021811403D
libRbt.so/2013.1/901 2013/11/27
 13 14  0  0  0  0  0  0  0  0999 V2000
   10.1402    1.0341   36.4236 C   0  0  0  0  0  0  0  0  0  0  0  0
    9.7415    2.3525   36.4317 N   0  0  0  0  0  0  0  0  0  0  0  0
   10.3683    3.1974   37.2919 C   0  0  0  0  0  0  0  0  0  0  0  0
   11.2418    2.6969   37.9957 O   0  0  0  0  0  0  0  0  0  0  0  0
   10.7379    5.3631   38.3027 C   0  0  0  0  0  0  0  0  0  0  0  0
   10.0874    4.5294   37.4183 N   0  0  0  0  0  0  0  0  0  0  0  0
    9.1003    4.9468   36.5801 C   0  0  0  0  0  0  0  0  0  0  0  0
    8.4801    4.0888   35.7189 C   0  0  0  0  0  0  0  0  0  0  0  0
    8.7606    2.7167   35.5810 C   0  0  0  0  0  0  0  0  0  0  0  0
    8.2429    1.8938   34.8301 O   0  0  0  0  0  0  0  0  0  0  0  0
    7.5437    4.8510   35.0354 N   0  0  0  0  0  0  0  0  0  0  0  0
    7.6611    6.1100   35.5258 C   0  0  0  0  0  0  0  0  0  0  0  0
    8.5740    6.2278   36.4518 N   0  0  0  0  0  0  0  0  0  0  0  0
  1  2  1  0  0  0  0
  2  3  1  0  0  0  0
  2  9  1  0  0  0  0
  3  4  2  0  0  0  0
  3  6  1  0  0  0  0
  6  5  1  0  0  0  0
  6  7  1  0  0  0  0
  7  8  2  0  0  0  0
  7 13  1  0  0  0  0
  8  9  1  0  0  0  0
  8 11  1  0  0  0  0
  9 10  2  0  0  0  0
 11 12  1  0  0  0  0
 12 13  2  0  0  0  0
M  END
>  <CHROM.1>
9.30677674,3.80115248,36.43927152,0.78758736,0.75136023,-2.85064379

>  <Name>
1o15_lig

>  <RI>
0

>  <Rbt.Current_Directory>
/home/itssahil/PROJECTS/Mol_Feturizer/New_Systems/rnas/1o15

>  <Rbt.Executable>
rbdock ($Id: //depot/dev/client3/rdock/2013.1/src/exe/rbdock.cxx#4 $)

>  <Rbt.Library>
libRbt.so (2013.1, Build901 2013/11/27)

>  <Rbt.Parameter_File>
/export/apps/rDock/src/rDock_2013.1_src/data/scripts/dock_solv.prm

>  <Rbt.Receptor>
prm/pocket_docking_3.prm

>  <SCORE>
-22.8158

>  <SCORE.INTER>
-22.8158

>  <SCORE.INTER.CONST>
1

>  <SCORE.INTER.POLAR>
-2.12065

>  <SCORE.INTER.ROT>
0

>  <SCORE.INTER.SOLV>
5.60228

>  <SCORE.INTER.VDW>
-13.6092

>  <SCORE.INTER.norm>
-1.75506

>  <SCORE.INTRA>
0

>  <SCORE.INTRA.DIHEDRAL>
0

>  <SCORE.INTRA.DIHEDRAL.0>
0

>  <SCORE.INTRA.POLAR>
0

>  <SCORE.INTRA.POLAR.0>
0

>  <SCORE.INTRA.REPUL>
0

>  <SCORE.INTRA.REPUL.0>
0

>  <SCORE.INTRA.SOLV>
0

>  <SCORE.INTRA.SOLV.lig_0>
-12.9184

>  <SCORE.INTRA.VDW>
0

>  <SCORE.INTRA.VDW.0>
0

>  <SCORE.INTRA.norm>
0

>  <SCORE.RESTR>
0

>  <SCORE.RESTR.CAVITY>
0

>  <SCORE.RESTR.norm>
0

>  <SCORE.SYSTEM>
0

>  <SCORE.SYSTEM.CONST>
0

>  <SCORE.SYSTEM.DIHEDRAL>
0

>  <SCORE.SYSTEM.SOLV>
0

>  <SCORE.SYSTEM.norm>
0

>  <SCORE.heavy>
13

>  <SCORE.norm>
-1.75506

>  <RMSD>
1.145

$$$$
1o15_lig
 OpenBabel11021811403D
libRbt.so/2013.1/901 2013/11/27
 13 14  0  0  0  0  0  0  0  0999 V2000
    8.8265    0.9359   37.4869 C   0  0  0  0  0  0  0  0  0  0  0  0
    8.7562    2.2848   37.2169 N   0  0  0  0  0  0  0  0  0  0  0  0
    9.4494    3.1285   38.0258 C   0  0  0  0  0  0  0  0  0  0  0  0
   10.0792    2.6008   38.9389 O   0  0  0  0  0  0  0  0  0  0  0  0
   10.1905    5.3210   38.7272 C   0  0  0  0  0  0  0  0  0  0  0  0
    9.4804    4.4883   37.8889 N   0  0  0  0  0  0  0  0  0  0  0  0
    8.7388    4.9344   36.8390 C   0  0  0  0  0  0  0  0  0  0  0  0
    8.0490    4.0765   36.0323 C   0  0  0  0  0  0  0  0  0  0  0  0
    8.0095    2.6760   36.1644 C   0  0  0  0  0  0  0  0  0  0  0  0
    7.4125    1.8515   35.4768 O   0  0  0  0  0  0  0  0  0  0  0  0
    7.4183    4.8720   35.0866 N   0  0  0  0  0  0  0  0  0  0  0  0
    7.7680    6.1485   35.3832 C   0  0  0  0  0  0  0  0  0  0  0  0
    8.5545    6.2479   36.4206 N   0  0  0  0  0  0  0  0  0  0  0  0
  1  2  1  0  0  0  0
  2  3  1  0  0  0  0
  2  9  1  0  0  0  0
  3  4  2  0  0  0  0
  3  6  1  0  0  0  0
  6  5  1  0  0  0  0
  6  7  1  0  0  0  0
  7  8  2  0  0  0  0
  7 13  1  0  0  0  0
  8  9  1  0  0  0  0
  8 11  1  0  0  0  0
  9 10  2  0  0  0  0
 11 12  1  0  0  0  0
 12 13  2  0  0  0  0
M  END
>  <CHROM.1>
8.68247143,3.76588396,36.91958874,1.11049513,0.92373776,3.00993588

>  <Name>
1o15_lig

>  <RI>
0

>  <Rbt.Current_Directory>
/home/itssahil/PROJECTS/Mol_Feturizer/New_Systems/rnas/1o15

>  <Rbt.Executable>
rbdock ($Id: //depot/dev/client3/rdock/2013.1/src/exe/rbdock.cxx#4 $)

>  <Rbt.Library>
libRbt.so (2013.1, Build901 2013/11/27)

>  <Rbt.Parameter_File>
/export/apps/rDock/src/rDock_2013.1_src/data/scripts/dock_solv.prm

>  <Rbt.Receptor>
prm/pocket_docking_6.prm

>  <SCORE>
-23.4081

>  <SCORE.INTER>
-23.4081

>  <SCORE.INTER.CONST>
1

>  <SCORE.INTER.POLAR>
-2.13313

>  <SCORE.INTER.ROT>
0

>  <SCORE.INTER.SOLV>
7.31218

>  <SCORE.INTER.VDW>
-14.5323

>  <SCORE.INTER.norm>
-1.80062

>  <SCORE.INTRA>
0

>  <SCORE.INTRA.DIHEDRAL>
0

>  <SCORE.INTRA.DIHEDRAL.0>
0

>  <SCORE.INTRA.POLAR>
0

>  <SCORE.INTRA.POLAR.0>
0

>  <SCORE.INTRA.REPUL>
0

>  <SCORE.INTRA.REPUL.0>
0

>  <SCORE.INTRA.SOLV>
0

>  <SCORE.INTRA.SOLV.lig_0>
-12.9184

>  <SCORE.INTRA.VDW>
0

>  <SCORE.INTRA.VDW.0>
0

>  <SCORE.INTRA.norm>
0

>  <SCORE.RESTR>
0

>  <SCORE.RESTR.CAVITY>
0

>  <SCORE.RESTR.norm>
0

>  <SCORE.SYSTEM>
0

>  <SCORE.SYSTEM.CONST>
0

>  <SCORE.SYSTEM.DIHEDRAL>
0

>  <SCORE.SYSTEM.SOLV>
0

>  <SCORE.SYSTEM.norm>
0

>  <SCORE.heavy>
13

>  <SCORE.norm>
-1.80062

>  <RMSD>
1.147

$$$$
1o15_lig
 OpenBabel11021811403D
libRbt.so/2013.1/901 2013/11/27
 13 14  0  0  0  0  0  0  0  0999 V2000
    8.8429    0.9383   37.4764 C   0  0  0  0  0  0  0  0  0  0  0  0
    8.7653    2.2877   37.2108 N   0  0  0  0  0  0  0  0  0  0  0  0
    9.4533    3.1326   38.0228 C   0  0  0  0  0  0  0  0  0  0  0  0
   10.0857    2.6054   38.9344 O   0  0  0  0  0  0  0  0  0  0  0  0
   10.1820    5.3269   38.7316 C   0  0  0  0  0  0  0  0  0  0  0  0
    9.4770    4.4930   37.8903 N   0  0  0  0  0  0  0  0  0  0  0  0
    8.7334    4.9384   36.8415 C   0  0  0  0  0  0  0  0  0  0  0  0
    8.0488    4.0794   36.0317 C   0  0  0  0  0  0  0  0  0  0  0  0
    8.0169    2.6782   36.1591 C   0  0  0  0  0  0  0  0  0  0  0  0
    7.4248    1.8527   35.4686 O   0  0  0  0  0  0  0  0  0  0  0  0
    7.4141    4.8744   35.0882 N   0  0  0  0  0  0  0  0  0  0  0  0
    7.7566    6.1519   35.3891 C   0  0  0  0  0  0  0  0  0  0  0  0
    8.5420    6.2523   36.4273 N   0  0  0  0  0  0  0  0  0  0  0  0
  1  2  1  0  0  0  0
  2  3  1  0  0  0  0
  2  9  1  0  0  0  0
  3  4  2  0  0  0  0
  3  6  1  0  0  0  0
  6  5  1  0  0  0  0
  6  7  1  0  0  0  0
  7  8  2  0  0  0  0
  7 13  1  0  0  0  0
  8  9  1  0  0  0  0
  8 11  1  0  0  0  0
  9 10  2  0  0  0  0
 11 12  1  0  0  0  0
 12 13  2  0  0  0  0
M  END
>  <CHROM.1>
8.68346941,3.76934576,36.91825239,1.10148391,0.92491531,3.02038515

>  <Name>
1o15_lig

>  <RI>
0

>  <Rbt.Current_Directory>
/home/itssahil/PROJECTS/Mol_Feturizer/New_Systems/rnas/1o15

>  <Rbt.Executable>
rbdock ($Id: //depot/dev/client3/rdock/2013.1/src/exe/rbdock.cxx#4 $)

>  <Rbt.Library>
libRbt.so (2013.1, Build901 2013/11/27)

>  <Rbt.Parameter_File>
/export/apps/rDock/src/rDock_2013.1_src/data/scripts/dock_solv.prm

>  <Rbt.Receptor>
prm/pocket_docking_2.prm

>  <SCORE>
-23.4112

>  <SCORE.INTER>
-23.4112

>  <SCORE.INTER.CONST>
1

>  <SCORE.INTER.POLAR>
-2.12559

>  <SCORE.INTER.ROT>
0

>  <SCORE.INTER.SOLV>
7.308

>  <SCORE.INTER.VDW>
-14.5582

>  <SCORE.INTER.norm>
-1.80086

>  <SCORE.INTRA>
0

>  <SCORE.INTRA.DIHEDRAL>
0

>  <SCORE.INTRA.DIHEDRAL.0>
0

>  <SCORE.INTRA.POLAR>
0

>  <SCORE.INTRA.POLAR.0>
0

>  <SCORE.INTRA.REPUL>
0

>  <SCORE.INTRA.REPUL.0>
0

>  <SCORE.INTRA.SOLV>
0

>  <SCORE.INTRA.SOLV.lig_0>
-12.9184

>  <SCORE.INTRA.VDW>
0

>  <SCORE.INTRA.VDW.0>
0

>  <SCORE.INTRA.norm>
0

>  <SCORE.RESTR>
0

>  <SCORE.RESTR.CAVITY>
0

>  <SCORE.RESTR.norm>
0

>  <SCORE.SYSTEM>
0

>  <SCORE.SYSTEM.CONST>
0

>  <SCORE.SYSTEM.DIHEDRAL>
0

>  <SCORE.SYSTEM.SOLV>
0

>  <SCORE.SYSTEM.norm>
0

>  <SCORE.heavy>
13

>  <SCORE.norm>
-1.80086

>  <RMSD>
1.148

$$$$
1o15_lig
 OpenBabel11021811403D
libRbt.so/2013.1/901 2013/11/27
 13 14  0  0  0  0  0  0  0  0999 V2000
   10.3225    1.0554   36.3846 C   0  0  0  0  0  0  0  0  0  0  0  0
    9.8828    2.3606   36.4075 N   0  0  0  0  0  0  0  0  0  0  0  0
   10.4831    3.2148   37.2774 C   0  0  0  0  0  0  0  0  0  0  0  0
   11.3718    2.7338   37.9757 O   0  0  0  0  0  0  0  0  0  0  0  0
   10.7850    5.3793   38.3129 C   0  0  0  0  0  0  0  0  0  0  0  0
   10.1609    4.5358   37.4189 N   0  0  0  0  0  0  0  0  0  0  0  0
    9.1611    4.9318   36.5853 C   0  0  0  0  0  0  0  0  0  0  0  0
    8.5680    4.0648   35.7142 C   0  0  0  0  0  0  0  0  0  0  0  0
    8.8910    2.7037   35.5607 C   0  0  0  0  0  0  0  0  0  0  0  0
    8.3992    1.8737   34.8004 O   0  0  0  0  0  0  0  0  0  0  0  0
    7.6081    4.8050   35.0391 N   0  0  0  0  0  0  0  0  0  0  0  0
    7.6863    6.0615   35.5438 C   0  0  0  0  0  0  0  0  0  0  0  0
    8.5951    6.1972   36.4714 N   0  0  0  0  0  0  0  0  0  0  0  0
  1  2  1  0  0  0  0
  2  3  1  0  0  0  0
  2  9  1  0  0  0  0
  3  4  2  0  0  0  0
  3  6  1  0  0  0  0
  6  5  1  0  0  0  0
  6  7  1  0  0  0  0
  7  8  2  0  0  0  0
  7 13  1  0  0  0  0
  8  9  1  0  0  0  0
  8 11  1  0  0  0  0
  9 10  2  0  0  0  0
 11 12  1  0  0  0  0
 12 13  2  0  0  0  0
M  END
>  <CHROM.1>
9.40320630,3.79482512,36.43144117,0.74709222,0.74194175,-2.81177461

>  <Name>
1o15_lig

>  <RI>
0

>  <Rbt.Current_Directory>
/home/itssahil/PROJECTS/Mol_Feturizer/New_Systems/rnas/1o15

>  <Rbt.Executable>
rbdock ($Id: //depot/dev/client3/rdock/2013.1/src/exe/rbdock.cxx#4 $)

>  <Rbt.Library>
libRbt.so (2013.1, Build901 2013/11/27)

>  <Rbt.Parameter_File>
/export/apps/rDock/src/rDock_2013.1_src/data/scripts/dock_solv.prm

>  <Rbt.Receptor>
prm/pocket_docking_5.prm

>  <SCORE>
-22.6954

>  <SCORE.INTER>
-22.6954

>  <SCORE.INTER.CONST>
1

>  <SCORE.INTER.POLAR>
-2.13336

>  <SCORE.INTER.ROT>
0

>  <SCORE.INTER.SOLV>
5.5541

>  <SCORE.INTER.VDW>
-13.4705

>  <SCORE.INTER.norm>
-1.7458

>  <SCORE.INTRA>
0

>  <SCORE.INTRA.DIHEDRAL>
0

>  <SCORE.INTRA.DIHEDRAL.0>
0

>  <SCORE.INTRA.POLAR>
0

>  <SCORE.INTRA.POLAR.0>
0

>  <SCORE.INTRA.REPUL>
0

>  <SCORE.INTRA.REPUL.0>
0

>  <SCORE.INTRA.SOLV>
0

>  <SCORE.INTRA.SOLV.lig_0>
-12.9184

>  <SCORE.INTRA.VDW>
0

>  <SCORE.INTRA.VDW.0>
0

>  <SCORE.INTRA.norm>
0

>  <SCORE.RESTR>
0

>  <SCORE.RESTR.CAVITY>
0

>  <SCORE.RESTR.norm>
0

>  <SCORE.SYSTEM>
0

>  <SCORE.SYSTEM.CONST>
0

>  <SCORE.SYSTEM.DIHEDRAL>
0

>  <SCORE.SYSTEM.SOLV>
0

>  <SCORE.SYSTEM.norm>
0

>  <SCORE.heavy>
13

>  <SCORE.norm>
-1.7458

>  <RMSD>
1.148

$$$$
1o15_lig
 OpenBabel11021811403D
libRbt.so/2013.1/901 2013/11/27
 13 14  0  0  0  0  0  0  0  0999 V2000
   10.1497    1.0538   36.4503 C   0  0  0  0  0  0  0  0  0  0  0  0
    9.7483    2.3715   36.4489 N   0  0  0  0  0  0  0  0  0  0  0  0
   10.3756    3.2244   37.3008 C   0  0  0  0  0  0  0  0  0  0  0  0
   11.2519    2.7312   38.0063 O   0  0  0  0  0  0  0  0  0  0  0  0
   10.7434    5.3987   38.2936 C   0  0  0  0  0  0  0  0  0  0  0  0
   10.0924    4.5567   37.4175 N   0  0  0  0  0  0  0  0  0  0  0  0
    9.1023    4.9656   36.5786 C   0  0  0  0  0  0  0  0  0  0  0  0
    8.4816    4.0996   35.7258 C   0  0  0  0  0  0  0  0  0  0  0  0
    8.7645    2.7270   35.5979 C   0  0  0  0  0  0  0  0  0  0  0  0
    8.2466    1.8972   34.8549 O   0  0  0  0  0  0  0  0  0  0  0  0
    7.5419    4.8545   35.0387 N   0  0  0  0  0  0  0  0  0  0  0  0
    7.6580    6.1176   35.5189 C   0  0  0  0  0  0  0  0  0  0  0  0
    8.5730    6.2445   36.4416 N   0  0  0  0  0  0  0  0  0  0  0  0
  1  2  1  0  0  0  0
  2  3  1  0  0  0  0
  2  9  1  0  0  0  0
  3  4  2  0  0  0  0
  3  6  1  0  0  0  0
  6  5  1  0  0  0  0
  6  7  1  0  0  0  0
  7  8  2  0  0  0  0
  7 13  1  0  0  0  0
  8  9  1  0  0  0  0
  8 11  1  0  0  0  0
  9 10  2  0  0  0  0
 11 12  1  0  0  0  0
 12 13  2  0  0  0  0
M  END
>  <CHROM.1>
9.31070593,3.81928660,36.44626505,0.78594953,0.74831896,-2.85741035

>  <Name>
1o15_lig

>  <RI>
0

>  <Rbt.Current_Directory>
/home/itssahil/PROJECTS/Mol_Feturizer/New_Systems/rnas/1o15

>  <Rbt.Executable>
rbdock ($Id: //depot/dev/client3/rdock/2013.1/src/exe/rbdock.cxx#4 $)

>  <Rbt.Library>
libRbt.so (2013.1, Build901 2013/11/27)

>  <Rbt.Parameter_File>
/export/apps/rDock/src/rDock_2013.1_src/data/scripts/dock_solv.prm

>  <Rbt.Receptor>
prm/pocket_docking_8.prm

>  <SCORE>
-22.7768

>  <SCORE.INTER>
-22.7768

>  <SCORE.INTER.CONST>
1

>  <SCORE.INTER.POLAR>
-2.10856

>  <SCORE.INTER.ROT>
0

>  <SCORE.INTER.SOLV>
5.6134

>  <SCORE.INTER.VDW>
-13.6271

>  <SCORE.INTER.norm>
-1.75206

>  <SCORE.INTRA>
0

>  <SCORE.INTRA.DIHEDRAL>
0

>  <SCORE.INTRA.DIHEDRAL.0>
0

>  <SCORE.INTRA.POLAR>
0

>  <SCORE.INTRA.POLAR.0>
0

>  <SCORE.INTRA.REPUL>
0

>  <SCORE.INTRA.REPUL.0>
0

>  <SCORE.INTRA.SOLV>
0

>  <SCORE.INTRA.SOLV.lig_0>
-12.9184

>  <SCORE.INTRA.VDW>
0

>  <SCORE.INTRA.VDW.0>
0

>  <SCORE.INTRA.norm>
0

>  <SCORE.RESTR>
0

>  <SCORE.RESTR.CAVITY>
0

>  <SCORE.RESTR.norm>
0

>  <SCORE.SYSTEM>
0

>  <SCORE.SYSTEM.CONST>
0

>  <SCORE.SYSTEM.DIHEDRAL>
0

>  <SCORE.SYSTEM.SOLV>
0

>  <SCORE.SYSTEM.norm>
0

>  <SCORE.heavy>
13

>  <SCORE.norm>
-1.75206

>  <RMSD>
1.148

$$$$
1o15_lig
 OpenBabel11021811403D
libRbt.so/2013.1/901 2013/11/27
 13 14  0  0  0  0  0  0  0  0999 V2000
    8.8385    0.9376   37.4796 C   0  0  0  0  0  0  0  0  0  0  0  0
    8.7621    2.2868   37.2127 N   0  0  0  0  0  0  0  0  0  0  0  0
    9.4512    3.1318   38.0238 C   0  0  0  0  0  0  0  0  0  0  0  0
   10.0834    2.6048   38.9357 O   0  0  0  0  0  0  0  0  0  0  0  0
   10.1822    5.3260   38.7305 C   0  0  0  0  0  0  0  0  0  0  0  0
    9.4761    4.4921   37.8901 N   0  0  0  0  0  0  0  0  0  0  0  0
    8.7326    4.9372   36.8412 C   0  0  0  0  0  0  0  0  0  0  0  0
    8.0469    4.0781   36.0323 C   0  0  0  0  0  0  0  0  0  0  0  0
    8.0138    2.6771   36.1610 C   0  0  0  0  0  0  0  0  0  0  0  0
    7.4206    1.8516   35.4714 O   0  0  0  0  0  0  0  0  0  0  0  0
    7.4127    4.8730   35.0883 N   0  0  0  0  0  0  0  0  0  0  0  0
    7.7564    6.1503   35.3880 C   0  0  0  0  0  0  0  0  0  0  0  0
    8.5423    6.2509   36.4258 N   0  0  0  0  0  0  0  0  0  0  0  0
  1  2  1  0  0  0  0
  2  3  1  0  0  0  0
  2  9  1  0  0  0  0
  3  4  2  0  0  0  0
  3  6  1  0  0  0  0
  6  5  1  0  0  0  0
  6  7  1  0  0  0  0
  7  8  2  0  0  0  0
  7 13  1  0  0  0  0
  8  9  1  0  0  0  0
  8 11  1  0  0  0  0
  9 10  2  0  0  0  0
 11 12  1  0  0  0  0
 12 13  2  0  0  0  0
M  END
>  <CHROM.1>
8.68158444,3.76828386,36.91893364,1.10297649,0.92448785,3.01831030

>  <Name>
1o15_lig

>  <RI>
0

>  <Rbt.Current_Directory>
/home/itssahil/PROJECTS/Mol_Feturizer/New_Systems/rnas/1o15

>  <Rbt.Executable>
rbdock ($Id: //depot/dev/client3/rdock/2013.1/src/exe/rbdock.cxx#4 $)

>  <Rbt.Library>
libRbt.so (2013.1, Build901 2013/11/27)

>  <Rbt.Parameter_File>
/export/apps/rDock/src/rDock_2013.1_src/data/scripts/dock_solv.prm

>  <Rbt.Receptor>
prm/pocket_docking_2.prm

>  <SCORE>
-23.4173

>  <SCORE.INTER>
-23.4173

>  <SCORE.INTER.CONST>
1

>  <SCORE.INTER.POLAR>
-2.1265

>  <SCORE.INTER.ROT>
0

>  <SCORE.INTER.SOLV>
7.31723

>  <SCORE.INTER.VDW>
-14.5623

>  <SCORE.INTER.norm>
-1.80133

>  <SCORE.INTRA>
0

>  <SCORE.INTRA.DIHEDRAL>
0

>  <SCORE.INTRA.DIHEDRAL.0>
0

>  <SCORE.INTRA.POLAR>
0

>  <SCORE.INTRA.POLAR.0>
0

>  <SCORE.INTRA.REPUL>
0

>  <SCORE.INTRA.REPUL.0>
0

>  <SCORE.INTRA.SOLV>
0

>  <SCORE.INTRA.SOLV.lig_0>
-12.9184

>  <SCORE.INTRA.VDW>
0

>  <SCORE.INTRA.VDW.0>
0

>  <SCORE.INTRA.norm>
0

>  <SCORE.RESTR>
0

>  <SCORE.RESTR.CAVITY>
0

>  <SCORE.RESTR.norm>
0

>  <SCORE.SYSTEM>
0

>  <SCORE.SYSTEM.CONST>
0

>  <SCORE.SYSTEM.DIHEDRAL>
0

>  <SCORE.SYSTEM.SOLV>
0

>  <SCORE.SYSTEM.norm>
0

>  <SCORE.heavy>
13

>  <SCORE.norm>
-1.80133

>  <RMSD>
1.149

$$$$
1o15_lig
 OpenBabel11021811403D
libRbt.so/2013.1/901 2013/11/27
 13 14  0  0  0  0  0  0  0  0999 V2000
   10.1466    1.0408   36.4184 C   0  0  0  0  0  0  0  0  0  0  0  0
    9.7413    2.3572   36.4312 N   0  0  0  0  0  0  0  0  0  0  0  0
   10.3620    3.2015   37.2964 C   0  0  0  0  0  0  0  0  0  0  0  0
   11.2365    2.7022   38.0000 O   0  0  0  0  0  0  0  0  0  0  0  0
   10.7187    5.3646   38.3174 C   0  0  0  0  0  0  0  0  0  0  0  0
   10.0743    4.5314   37.4280 N   0  0  0  0  0  0  0  0  0  0  0  0
    9.0870    4.9476   36.5895 C   0  0  0  0  0  0  0  0  0  0  0  0
    8.4729    4.0903   35.7232 C   0  0  0  0  0  0  0  0  0  0  0  0
    8.7605    2.7202   35.5799 C   0  0  0  0  0  0  0  0  0  0  0  0
    8.2485    1.8980   34.8244 O   0  0  0  0  0  0  0  0  0  0  0  0
    7.5341    4.8508   35.0410 N   0  0  0  0  0  0  0  0  0  0  0  0
    7.6442    6.1083   35.5371 C   0  0  0  0  0  0  0  0  0  0  0  0
    8.5545    6.2266   36.4656 N   0  0  0  0  0  0  0  0  0  0  0  0
  1  2  1  0  0  0  0
  2  3  1  0  0  0  0
  2  9  1  0  0  0  0
  3  4  2  0  0  0  0
  3  6  1  0  0  0  0
  6  5  1  0  0  0  0
  6  7  1  0  0  0  0
  7  8  2  0  0  0  0
  7 13  1  0  0  0  0
  8  9  1  0  0  0  0
  8 11  1  0  0  0  0
  9 10  2  0  0  0  0
 11 12  1  0  0  0  0
 12 13  2  0  0  0  0
M  END
>  <CHROM.1>
9.29941511,3.80363331,36.44413758,0.78021234,0.75199079,-2.84127149

>  <Name>
1o15_lig

>  <RI>
0

>  <Rbt.Current_Directory>
/home/itssahil/PROJECTS/Mol_Feturizer/New_Systems/rnas/1o15

>  <Rbt.Executable>
rbdock ($Id: //depot/dev/client3/rdock/2013.1/src/exe/rbdock.cxx#4 $)

>  <Rbt.Library>
libRbt.so (2013.1, Build901 2013/11/27)

>  <Rbt.Parameter_File>
/export/apps/rDock/src/rDock_2013.1_src/data/scripts/dock_solv.prm

>  <Rbt.Receptor>
prm/pocket_docking_3.prm

>  <SCORE>
-22.8315

>  <SCORE.INTER>
-22.8315

>  <SCORE.INTER.CONST>
1

>  <SCORE.INTER.POLAR>
-2.11272

>  <SCORE.INTER.ROT>
0

>  <SCORE.INTER.SOLV>
5.63245

>  <SCORE.INTER.VDW>
-13.6561

>  <SCORE.INTER.norm>
-1.75627

>  <SCORE.INTRA>
0

>  <SCORE.INTRA.DIHEDRAL>
0

>  <SCORE.INTRA.DIHEDRAL.0>
0

>  <SCORE.INTRA.POLAR>
0

>  <SCORE.INTRA.POLAR.0>
0

>  <SCORE.INTRA.REPUL>
0

>  <SCORE.INTRA.REPUL.0>
0

>  <SCORE.INTRA.SOLV>
0

>  <SCORE.INTRA.SOLV.lig_0>
-12.9184

>  <SCORE.INTRA.VDW>
0

>  <SCORE.INTRA.VDW.0>
0

>  <SCORE.INTRA.norm>
0

>  <SCORE.RESTR>
0

>  <SCORE.RESTR.CAVITY>
0

>  <SCORE.RESTR.norm>
0

>  <SCORE.SYSTEM>
0

>  <SCORE.SYSTEM.CONST>
0

>  <SCORE.SYSTEM.DIHEDRAL>
0

>  <SCORE.SYSTEM.SOLV>
0

>  <SCORE.SYSTEM.norm>
0

>  <SCORE.heavy>
13

>  <SCORE.norm>
-1.75627

>  <RMSD>
1.149

$$$$
1o15_lig
 OpenBabel11021811403D
libRbt.so/2013.1/901 2013/11/27
 13 14  0  0  0  0  0  0  0  0999 V2000
    8.7861    0.9360   37.5479 C   0  0  0  0  0  0  0  0  0  0  0  0
    8.7280    2.2823   37.2624 N   0  0  0  0  0  0  0  0  0  0  0  0
    9.4242    3.1295   38.0651 C   0  0  0  0  0  0  0  0  0  0  0  0
   10.0457    2.6071   38.9869 O   0  0  0  0  0  0  0  0  0  0  0  0
   10.1799    5.3238   38.7452 C   0  0  0  0  0  0  0  0  0  0  0  0
    9.4669    4.4874   37.9130 N   0  0  0  0  0  0  0  0  0  0  0  0
    8.7336    4.9276   36.8549 C   0  0  0  0  0  0  0  0  0  0  0  0
    8.0406    4.0663   36.0546 C   0  0  0  0  0  0  0  0  0  0  0  0
    7.9892    2.6676   36.2022 C   0  0  0  0  0  0  0  0  0  0  0  0
    7.3886    1.8403   35.5212 O   0  0  0  0  0  0  0  0  0  0  0  0
    7.4205    4.8561   35.0972 N   0  0  0  0  0  0  0  0  0  0  0  0
    7.7792    6.1330   35.3810 C   0  0  0  0  0  0  0  0  0  0  0  0
    8.5618    6.2378   36.4209 N   0  0  0  0  0  0  0  0  0  0  0  0
  1  2  1  0  0  0  0
  2  3  1  0  0  0  0
  2  9  1  0  0  0  0
  3  4  2  0  0  0  0
  3  6  1  0  0  0  0
  6  5  1  0  0  0  0
  6  7  1  0  0  0  0
  7  8  2  0  0  0  0
  7 13  1  0  0  0  0
  8  9  1  0  0  0  0
  8 11  1  0  0  0  0
  9 10  2  0  0  0  0
 11 12  1  0  0  0  0
 12 13  2  0  0  0  0
M  END
>  <CHROM.1>
8.66748874,3.76054811,36.94824718,1.12479617,0.92709144,2.98729340

>  <Name>
1o15_lig

>  <RI>
0

>  <Rbt.Current_Directory>
/home/itssahil/PROJECTS/Mol_Feturizer/New_Systems/rnas/1o15

>  <Rbt.Executable>
rbdock ($Id: //depot/dev/client3/rdock/2013.1/src/exe/rbdock.cxx#4 $)

>  <Rbt.Library>
libRbt.so (2013.1, Build901 2013/11/27)

>  <Rbt.Parameter_File>
/export/apps/rDock/src/rDock_2013.1_src/data/scripts/dock_solv.prm

>  <Rbt.Receptor>
prm/pocket_docking_3.prm

>  <SCORE>
-23.3729

>  <SCORE.INTER>
-23.3729

>  <SCORE.INTER.CONST>
1

>  <SCORE.INTER.POLAR>
-2.09935

>  <SCORE.INTER.ROT>
0

>  <SCORE.INTER.SOLV>
7.43165

>  <SCORE.INTER.VDW>
-14.6614

>  <SCORE.INTER.norm>
-1.79792

>  <SCORE.INTRA>
0

>  <SCORE.INTRA.DIHEDRAL>
0

>  <SCORE.INTRA.DIHEDRAL.0>
0

>  <SCORE.INTRA.POLAR>
0

>  <SCORE.INTRA.POLAR.0>
0

>  <SCORE.INTRA.REPUL>
0

>  <SCORE.INTRA.REPUL.0>
0

>  <SCORE.INTRA.SOLV>
0

>  <SCORE.INTRA.SOLV.lig_0>
-12.9184

>  <SCORE.INTRA.VDW>
0

>  <SCORE.INTRA.VDW.0>
0

>  <SCORE.INTRA.norm>
0

>  <SCORE.RESTR>
0

>  <SCORE.RESTR.CAVITY>
0

>  <SCORE.RESTR.norm>
0

>  <SCORE.SYSTEM>
0

>  <SCORE.SYSTEM.CONST>
0

>  <SCORE.SYSTEM.DIHEDRAL>
0

>  <SCORE.SYSTEM.SOLV>
0

>  <SCORE.SYSTEM.norm>
0

>  <SCORE.heavy>
13

>  <SCORE.norm>
-1.79792

>  <RMSD>
1.150

$$$$
1o15_lig
 OpenBabel11021811403D
libRbt.so/2013.1/901 2013/11/27
 13 14  0  0  0  0  0  0  0  0999 V2000
    8.8266    0.9400   37.4919 C   0  0  0  0  0  0  0  0  0  0  0  0
    8.7553    2.2886   37.2206 N   0  0  0  0  0  0  0  0  0  0  0  0
    9.4471    3.1336   38.0293 C   0  0  0  0  0  0  0  0  0  0  0  0
   10.0768    2.6074   38.9433 O   0  0  0  0  0  0  0  0  0  0  0  0
   10.1857    5.3275   38.7291 C   0  0  0  0  0  0  0  0  0  0  0  0
    9.4770    4.4934   37.8911 N   0  0  0  0  0  0  0  0  0  0  0  0
    8.7358    4.9378   36.8403 C   0  0  0  0  0  0  0  0  0  0  0  0
    8.0474    4.0786   36.0338 C   0  0  0  0  0  0  0  0  0  0  0  0
    8.0090    2.6781   36.1672 C   0  0  0  0  0  0  0  0  0  0  0  0
    7.4132    1.8525   35.4800 O   0  0  0  0  0  0  0  0  0  0  0  0
    7.4166    4.8726   35.0869 N   0  0  0  0  0  0  0  0  0  0  0  0
    7.7650    6.1497   35.3826 C   0  0  0  0  0  0  0  0  0  0  0  0
    8.5506    6.2508   36.4205 N   0  0  0  0  0  0  0  0  0  0  0  0
  1  2  1  0  0  0  0
  2  3  1  0  0  0  0
  2  9  1  0  0  0  0
  3  4  2  0  0  0  0
  3  6  1  0  0  0  0
  6  5  1  0  0  0  0
  6  7  1  0  0  0  0
  7  8  2  0  0  0  0
  7 13  1  0  0  0  0
  8  9  1  0  0  0  0
  8 11  1  0  0  0  0
  9 10  2  0  0  0  0
 11 12  1  0  0  0  0
 12 13  2  0  0  0  0
M  END
>  <CHROM.1>
8.68043527,3.76932483,36.92187611,1.10917556,0.92458101,3.01006463

>  <Name>
1o15_lig

>  <RI>
0

>  <Rbt.Current_Directory>
/home/itssahil/PROJECTS/Mol_Feturizer/New_Systems/rnas/1o15

>  <Rbt.Executable>
rbdock ($Id: //depot/dev/client3/rdock/2013.1/src/exe/rbdock.cxx#4 $)

>  <Rbt.Library>
libRbt.so (2013.1, Build901 2013/11/27)

>  <Rbt.Parameter_File>
/export/apps/rDock/src/rDock_2013.1_src/data/scripts/dock_solv.prm

>  <Rbt.Receptor>
prm/pocket_docking_3.prm

>  <SCORE>
-23.4221

>  <SCORE.INTER>
-23.4221

>  <SCORE.INTER.CONST>
1

>  <SCORE.INTER.POLAR>
-2.13121

>  <SCORE.INTER.ROT>
0

>  <SCORE.INTER.SOLV>
7.33256

>  <SCORE.INTER.VDW>
-14.5549

>  <SCORE.INTER.norm>
-1.8017

>  <SCORE.INTRA>
0

>  <SCORE.INTRA.DIHEDRAL>
0

>  <SCORE.INTRA.DIHEDRAL.0>
0

>  <SCORE.INTRA.POLAR>
0

>  <SCORE.INTRA.POLAR.0>
0

>  <SCORE.INTRA.REPUL>
0

>  <SCORE.INTRA.REPUL.0>
0

>  <SCORE.INTRA.SOLV>
0

>  <SCORE.INTRA.SOLV.lig_0>
-12.9184

>  <SCORE.INTRA.VDW>
0

>  <SCORE.INTRA.VDW.0>
0

>  <SCORE.INTRA.norm>
0

>  <SCORE.RESTR>
0

>  <SCORE.RESTR.CAVITY>
0

>  <SCORE.RESTR.norm>
0

>  <SCORE.SYSTEM>
0

>  <SCORE.SYSTEM.CONST>
0

>  <SCORE.SYSTEM.DIHEDRAL>
0

>  <SCORE.SYSTEM.SOLV>
0

>  <SCORE.SYSTEM.norm>
0

>  <SCORE.heavy>
13

>  <SCORE.norm>
-1.8017

>  <RMSD>
1.150

$$$$
1o15_lig
 OpenBabel11021811403D
libRbt.so/2013.1/901 2013/11/27
 13 14  0  0  0  0  0  0  0  0999 V2000
    8.8285    0.9397   37.4900 C   0  0  0  0  0  0  0  0  0  0  0  0
    8.7565    2.2884   37.2194 N   0  0  0  0  0  0  0  0  0  0  0  0
    9.4478    3.1334   38.0285 C   0  0  0  0  0  0  0  0  0  0  0  0
   10.0778    2.6070   38.9422 O   0  0  0  0  0  0  0  0  0  0  0  0
   10.1853    5.3273   38.7296 C   0  0  0  0  0  0  0  0  0  0  0  0
    9.4770    4.4932   37.8911 N   0  0  0  0  0  0  0  0  0  0  0  0
    8.7355    4.9378   36.8406 C   0  0  0  0  0  0  0  0  0  0  0  0
    8.0476    4.0786   36.0337 C   0  0  0  0  0  0  0  0  0  0  0  0
    8.0100    2.6781   36.1662 C   0  0  0  0  0  0  0  0  0  0  0  0
    7.4146    1.8525   35.4786 O   0  0  0  0  0  0  0  0  0  0  0  0
    7.4163    4.8729   35.0872 N   0  0  0  0  0  0  0  0  0  0  0  0
    7.7640    6.1500   35.3836 C   0  0  0  0  0  0  0  0  0  0  0  0
    8.5496    6.2510   36.4215 N   0  0  0  0  0  0  0  0  0  0  0  0
  1  2  1  0  0  0  0
  2  3  1  0  0  0  0
  2  9  1  0  0  0  0
  3  4  2  0  0  0  0
  3  6  1  0  0  0  0
  6  5  1  0  0  0  0
  6  7  1  0  0  0  0
  7  8  2  0  0  0  0
  7 13  1  0  0  0  0
  8  9  1  0  0  0  0
  8 11  1  0  0  0  0
  9 10  2  0  0  0  0
 11 12  1  0  0  0  0
 12 13  2  0  0  0  0
M  END
>  <CHROM.1>
8.68080675,3.76926305,36.92152895,1.10825346,0.92463348,3.01136036

>  <Name>
1o15_lig

>  <RI>
0

>  <Rbt.Current_Directory>
/home/itssahil/PROJECTS/Mol_Feturizer/New_Systems/rnas/1o15

>  <Rbt.Executable>
rbdock ($Id: //depot/dev/client3/rdock/2013.1/src/exe/rbdock.cxx#4 $)

>  <Rbt.Library>
libRbt.so (2013.1, Build901 2013/11/27)

>  <Rbt.Parameter_File>
/export/apps/rDock/src/rDock_2013.1_src/data/scripts/dock_solv.prm

>  <Rbt.Receptor>
prm/pocket_docking_4.prm

>  <SCORE>
-23.4213

>  <SCORE.INTER>
-23.4213

>  <SCORE.INTER.CONST>
1

>  <SCORE.INTER.POLAR>
-2.13021

>  <SCORE.INTER.ROT>
0

>  <SCORE.INTER.SOLV>
7.32943

>  <SCORE.INTER.VDW>
-14.5567

>  <SCORE.INTER.norm>
-1.80164

>  <SCORE.INTRA>
0

>  <SCORE.INTRA.DIHEDRAL>
0

>  <SCORE.INTRA.DIHEDRAL.0>
0

>  <SCORE.INTRA.POLAR>
0

>  <SCORE.INTRA.POLAR.0>
0

>  <SCORE.INTRA.REPUL>
0

>  <SCORE.INTRA.REPUL.0>
0

>  <SCORE.INTRA.SOLV>
0

>  <SCORE.INTRA.SOLV.lig_0>
-12.9184

>  <SCORE.INTRA.VDW>
0

>  <SCORE.INTRA.VDW.0>
0

>  <SCORE.INTRA.norm>
0

>  <SCORE.RESTR>
0

>  <SCORE.RESTR.CAVITY>
0

>  <SCORE.RESTR.norm>
0

>  <SCORE.SYSTEM>
0

>  <SCORE.SYSTEM.CONST>
0

>  <SCORE.SYSTEM.DIHEDRAL>
0

>  <SCORE.SYSTEM.SOLV>
0

>  <SCORE.SYSTEM.norm>
0

>  <SCORE.heavy>
13

>  <SCORE.norm>
-1.80164

>  <RMSD>
1.150

$$$$
1o15_lig
 OpenBabel11021811403D
libRbt.so/2013.1/901 2013/11/27
 13 14  0  0  0  0  0  0  0  0999 V2000
    8.7873    0.9332   37.5471 C   0  0  0  0  0  0  0  0  0  0  0  0
    8.7274    2.2798   37.2633 N   0  0  0  0  0  0  0  0  0  0  0  0
    9.4197    3.1272   38.0692 C   0  0  0  0  0  0  0  0  0  0  0  0
   10.0394    2.6046   38.9921 O   0  0  0  0  0  0  0  0  0  0  0  0
   10.1692    5.3219   38.7547 C   0  0  0  0  0  0  0  0  0  0  0  0
    9.4603    4.4854   37.9192 N   0  0  0  0  0  0  0  0  0  0  0  0
    8.7294    4.9256   36.8594 C   0  0  0  0  0  0  0  0  0  0  0  0
    8.0404    4.0641   36.0559 C   0  0  0  0  0  0  0  0  0  0  0  0
    7.9911    2.6652   36.2014 C   0  0  0  0  0  0  0  0  0  0  0  0
    7.3941    1.8378   35.5175 O   0  0  0  0  0  0  0  0  0  0  0  0
    7.4217    4.8542   35.0977 N   0  0  0  0  0  0  0  0  0  0  0  0
    7.7771    6.1313   35.3844 C   0  0  0  0  0  0  0  0  0  0  0  0
    8.5564    6.2361   36.4268 N   0  0  0  0  0  0  0  0  0  0  0  0
  1  2  1  0  0  0  0
  2  3  1  0  0  0  0
  2  9  1  0  0  0  0
  3  4  2  0  0  0  0
  3  6  1  0  0  0  0
  6  5  1  0  0  0  0
  6  7  1  0  0  0  0
  7  8  2  0  0  0  0
  7 13  1  0  0  0  0
  8  9  1  0  0  0  0
  8 11  1  0  0  0  0
  9 10  2  0  0  0  0
 11 12  1  0  0  0  0
 12 13  2  0  0  0  0
M  END
>  <CHROM.1>
8.66514901,3.75834863,36.95098510,1.12248083,0.93033869,2.99053733

>  <Name>
1o15_lig

>  <RI>
0

>  <Rbt.Current_Directory>
/home/itssahil/PROJECTS/Mol_Feturizer/New_Systems/rnas/1o15

>  <Rbt.Executable>
rbdock ($Id: //depot/dev/client3/rdock/2013.1/src/exe/rbdock.cxx#4 $)

>  <Rbt.Library>
libRbt.so (2013.1, Build901 2013/11/27)

>  <Rbt.Parameter_File>
/export/apps/rDock/src/rDock_2013.1_src/data/scripts/dock_solv.prm

>  <Rbt.Receptor>
prm/pocket_docking_3.prm

>  <SCORE>
-23.4159

>  <SCORE.INTER>
-23.4159

>  <SCORE.INTER.CONST>
1

>  <SCORE.INTER.POLAR>
-2.10964

>  <SCORE.INTER.ROT>
0

>  <SCORE.INTER.SOLV>
7.44229

>  <SCORE.INTER.VDW>
-14.6593

>  <SCORE.INTER.norm>
-1.80122

>  <SCORE.INTRA>
0

>  <SCORE.INTRA.DIHEDRAL>
0

>  <SCORE.INTRA.DIHEDRAL.0>
0

>  <SCORE.INTRA.POLAR>
0

>  <SCORE.INTRA.POLAR.0>
0

>  <SCORE.INTRA.REPUL>
0

>  <SCORE.INTRA.REPUL.0>
0

>  <SCORE.INTRA.SOLV>
0

>  <SCORE.INTRA.SOLV.lig_0>
-12.9184

>  <SCORE.INTRA.VDW>
0

>  <SCORE.INTRA.VDW.0>
0

>  <SCORE.INTRA.norm>
0

>  <SCORE.RESTR>
0

>  <SCORE.RESTR.CAVITY>
0

>  <SCORE.RESTR.norm>
0

>  <SCORE.SYSTEM>
0

>  <SCORE.SYSTEM.CONST>
0

>  <SCORE.SYSTEM.DIHEDRAL>
0

>  <SCORE.SYSTEM.SOLV>
0

>  <SCORE.SYSTEM.norm>
0

>  <SCORE.heavy>
13

>  <SCORE.norm>
-1.80122

>  <RMSD>
1.151

$$$$
1o15_lig
 OpenBabel11021811403D
libRbt.so/2013.1/901 2013/11/27
 13 14  0  0  0  0  0  0  0  0999 V2000
    8.8269    0.9380   37.4896 C   0  0  0  0  0  0  0  0  0  0  0  0
    8.7543    2.2868   37.2197 N   0  0  0  0  0  0  0  0  0  0  0  0
    9.4447    3.1318   38.0297 C   0  0  0  0  0  0  0  0  0  0  0  0
   10.0745    2.6052   38.9435 O   0  0  0  0  0  0  0  0  0  0  0  0
   10.1806    5.3256   38.7324 C   0  0  0  0  0  0  0  0  0  0  0  0
    9.4733    4.4917   37.8930 N   0  0  0  0  0  0  0  0  0  0  0  0
    8.7321    4.9364   36.8423 C   0  0  0  0  0  0  0  0  0  0  0  0
    8.0451    4.0773   36.0345 C   0  0  0  0  0  0  0  0  0  0  0  0
    8.0082    2.6767   36.1663 C   0  0  0  0  0  0  0  0  0  0  0  0
    7.4137    1.8512   35.4779 O   0  0  0  0  0  0  0  0  0  0  0  0
    7.4140    4.8718   35.0881 N   0  0  0  0  0  0  0  0  0  0  0  0
    7.7608    6.1489   35.3853 C   0  0  0  0  0  0  0  0  0  0  0  0
    8.5458    6.2497   36.4238 N   0  0  0  0  0  0  0  0  0  0  0  0
  1  2  1  0  0  0  0
  2  3  1  0  0  0  0
  2  9  1  0  0  0  0
  3  4  2  0  0  0  0
  3  6  1  0  0  0  0
  6  5  1  0  0  0  0
  6  7  1  0  0  0  0
  7  8  2  0  0  0  0
  7 13  1  0  0  0  0
  8  9  1  0  0  0  0
  8 11  1  0  0  0  0
  9 10  2  0  0  0  0
 11 12  1  0  0  0  0
 12 13  2  0  0  0  0
M  END
>  <CHROM.1>
8.67800661,3.76781080,36.92257301,1.10750874,0.92527381,3.01248333

>  <Name>
1o15_lig

>  <RI>
0

>  <Rbt.Current_Directory>
/home/itssahil/PROJECTS/Mol_Feturizer/New_Systems/rnas/1o15

>  <Rbt.Executable>
rbdock ($Id: //depot/dev/client3/rdock/2013.1/src/exe/rbdock.cxx#4 $)

>  <Rbt.Library>
libRbt.so (2013.1, Build901 2013/11/27)

>  <Rbt.Parameter_File>
/export/apps/rDock/src/rDock_2013.1_src/data/scripts/dock_solv.prm

>  <Rbt.Receptor>
prm/pocket_docking_3.prm

>  <SCORE>
-23.4109

>  <SCORE.INTER>
-23.4109

>  <SCORE.INTER.CONST>
1

>  <SCORE.INTER.POLAR>
-2.129

>  <SCORE.INTER.ROT>
0

>  <SCORE.INTER.SOLV>
7.34157

>  <SCORE.INTER.VDW>
-14.5578

>  <SCORE.INTER.norm>
-1.80084

>  <SCORE.INTRA>
0

>  <SCORE.INTRA.DIHEDRAL>
0

>  <SCORE.INTRA.DIHEDRAL.0>
0

>  <SCORE.INTRA.POLAR>
0

>  <SCORE.INTRA.POLAR.0>
0

>  <SCORE.INTRA.REPUL>
0

>  <SCORE.INTRA.REPUL.0>
0

>  <SCORE.INTRA.SOLV>
0

>  <SCORE.INTRA.SOLV.lig_0>
-12.9184

>  <SCORE.INTRA.VDW>
0

>  <SCORE.INTRA.VDW.0>
0

>  <SCORE.INTRA.norm>
0

>  <SCORE.RESTR>
0

>  <SCORE.RESTR.CAVITY>
0

>  <SCORE.RESTR.norm>
0

>  <SCORE.SYSTEM>
0

>  <SCORE.SYSTEM.CONST>
0

>  <SCORE.SYSTEM.DIHEDRAL>
0

>  <SCORE.SYSTEM.SOLV>
0

>  <SCORE.SYSTEM.norm>
0

>  <SCORE.heavy>
13

>  <SCORE.norm>
-1.80084

>  <RMSD>
1.151

$$$$
1o15_lig
 OpenBabel11021811403D
libRbt.so/2013.1/901 2013/11/27
 13 14  0  0  0  0  0  0  0  0999 V2000
    8.8210    0.9406   37.4964 C   0  0  0  0  0  0  0  0  0  0  0  0
    8.7513    2.2889   37.2232 N   0  0  0  0  0  0  0  0  0  0  0  0
    9.4446    3.1342   38.0304 C   0  0  0  0  0  0  0  0  0  0  0  0
   10.0742    2.6083   38.9447 O   0  0  0  0  0  0  0  0  0  0  0  0
   10.1865    5.3280   38.7268 C   0  0  0  0  0  0  0  0  0  0  0  0
    9.4763    4.4937   37.8903 N   0  0  0  0  0  0  0  0  0  0  0  0
    8.7350    4.9376   36.8393 C   0  0  0  0  0  0  0  0  0  0  0  0
    8.0450    4.0782   36.0345 C   0  0  0  0  0  0  0  0  0  0  0  0
    8.0049    2.6780   36.1697 C   0  0  0  0  0  0  0  0  0  0  0  0
    7.4076    1.8522   35.4840 O   0  0  0  0  0  0  0  0  0  0  0  0
    7.4147    4.8718   35.0868 N   0  0  0  0  0  0  0  0  0  0  0  0
    7.7649    6.1488   35.3805 C   0  0  0  0  0  0  0  0  0  0  0  0
    8.5512    6.2503   36.4179 N   0  0  0  0  0  0  0  0  0  0  0  0
  1  2  1  0  0  0  0
  2  3  1  0  0  0  0
  2  9  1  0  0  0  0
  3  4  2  0  0  0  0
  3  6  1  0  0  0  0
  6  5  1  0  0  0  0
  6  7  1  0  0  0  0
  7  8  2  0  0  0  0
  7 13  1  0  0  0  0
  8  9  1  0  0  0  0
  8 11  1  0  0  0  0
  9 10  2  0  0  0  0
 11 12  1  0  0  0  0
 12 13  2  0  0  0  0
M  END
>  <CHROM.1>
8.67816741,3.76933085,36.92254544,1.11117039,0.92383485,3.00711684

>  <Name>
1o15_lig

>  <RI>
0

>  <Rbt.Current_Directory>
/home/itssahil/PROJECTS/Mol_Feturizer/New_Systems/rnas/1o15

>  <Rbt.Executable>
rbdock ($Id: //depot/dev/client3/rdock/2013.1/src/exe/rbdock.cxx#4 $)

>  <Rbt.Library>
libRbt.so (2013.1, Build901 2013/11/27)

>  <Rbt.Parameter_File>
/export/apps/rDock/src/rDock_2013.1_src/data/scripts/dock_solv.prm

>  <Rbt.Receptor>
prm/pocket_docking_5.prm

>  <SCORE>
-23.4096

>  <SCORE.INTER>
-23.4096

>  <SCORE.INTER.CONST>
1

>  <SCORE.INTER.POLAR>
-2.129

>  <SCORE.INTER.ROT>
0

>  <SCORE.INTER.SOLV>
7.34609

>  <SCORE.INTER.VDW>
-14.5584

>  <SCORE.INTER.norm>
-1.80074

>  <SCORE.INTRA>
0

>  <SCORE.INTRA.DIHEDRAL>
0

>  <SCORE.INTRA.DIHEDRAL.0>
0

>  <SCORE.INTRA.POLAR>
0

>  <SCORE.INTRA.POLAR.0>
0

>  <SCORE.INTRA.REPUL>
0

>  <SCORE.INTRA.REPUL.0>
0

>  <SCORE.INTRA.SOLV>
0

>  <SCORE.INTRA.SOLV.lig_0>
-12.9184

>  <SCORE.INTRA.VDW>
0

>  <SCORE.INTRA.VDW.0>
0

>  <SCORE.INTRA.norm>
0

>  <SCORE.RESTR>
0

>  <SCORE.RESTR.CAVITY>
0

>  <SCORE.RESTR.norm>
0

>  <SCORE.SYSTEM>
0

>  <SCORE.SYSTEM.CONST>
0

>  <SCORE.SYSTEM.DIHEDRAL>
0

>  <SCORE.SYSTEM.SOLV>
0

>  <SCORE.SYSTEM.norm>
0

>  <SCORE.heavy>
13

>  <SCORE.norm>
-1.80074

>  <RMSD>
1.151

$$$$
1o15_lig
 OpenBabel11021811403D
libRbt.so/2013.1/901 2013/11/27
 13 14  0  0  0  0  0  0  0  0999 V2000
    8.8175    0.9431   37.4965 C   0  0  0  0  0  0  0  0  0  0  0  0
    8.7501    2.2915   37.2231 N   0  0  0  0  0  0  0  0  0  0  0  0
    9.4444    3.1358   38.0305 C   0  0  0  0  0  0  0  0  0  0  0  0
   10.0727    2.6090   38.9452 O   0  0  0  0  0  0  0  0  0  0  0  0
   10.1894    5.3285   38.7270 C   0  0  0  0  0  0  0  0  0  0  0  0
    9.4782    4.4952   37.8903 N   0  0  0  0  0  0  0  0  0  0  0  0
    8.7381    4.9402   36.8389 C   0  0  0  0  0  0  0  0  0  0  0  0
    8.0472    4.0817   36.0338 C   0  0  0  0  0  0  0  0  0  0  0  0
    8.0048    2.6816   36.1692 C   0  0  0  0  0  0  0  0  0  0  0  0
    7.4065    1.8567   35.4833 O   0  0  0  0  0  0  0  0  0  0  0  0
    7.4186    4.8762   35.0858 N   0  0  0  0  0  0  0  0  0  0  0  0
    7.7706    6.1527   35.3795 C   0  0  0  0  0  0  0  0  0  0  0  0
    8.5566    6.2531   36.4172 N   0  0  0  0  0  0  0  0  0  0  0  0
  1  2  1  0  0  0  0
  2  3  1  0  0  0  0
  2  9  1  0  0  0  0
  3  4  2  0  0  0  0
  3  6  1  0  0  0  0
  6  5  1  0  0  0  0
  6  7  1  0  0  0  0
  7  8  2  0  0  0  0
  7 13  1  0  0  0  0
  8  9  1  0  0  0  0
  8 11  1  0  0  0  0
  9 10  2  0  0  0  0
 11 12  1  0  0  0  0
 12 13  2  0  0  0  0
M  END
>  <CHROM.1>
8.67942442,3.77199802,36.92223463,1.11386716,0.92408671,3.00483986

>  <Name>
1o15_lig

>  <RI>
0

>  <Rbt.Current_Directory>
/home/itssahil/PROJECTS/Mol_Feturizer/New_Systems/rnas/1o15

>  <Rbt.Executable>
rbdock ($Id: //depot/dev/client3/rdock/2013.1/src/exe/rbdock.cxx#4 $)

>  <Rbt.Library>
libRbt.so (2013.1, Build901 2013/11/27)

>  <Rbt.Parameter_File>
/export/apps/rDock/src/rDock_2013.1_src/data/scripts/dock_solv.prm

>  <Rbt.Receptor>
prm/pocket_docking_2.prm

>  <SCORE>
-23.3879

>  <SCORE.INTER>
-23.3879

>  <SCORE.INTER.CONST>
1

>  <SCORE.INTER.POLAR>
-2.13252

>  <SCORE.INTER.ROT>
0

>  <SCORE.INTER.SOLV>
7.34315

>  <SCORE.INTER.VDW>
-14.5312

>  <SCORE.INTER.norm>
-1.79907

>  <SCORE.INTRA>
0

>  <SCORE.INTRA.DIHEDRAL>
0

>  <SCORE.INTRA.DIHEDRAL.0>
0

>  <SCORE.INTRA.POLAR>
0

>  <SCORE.INTRA.POLAR.0>
0

>  <SCORE.INTRA.REPUL>
0

>  <SCORE.INTRA.REPUL.0>
0

>  <SCORE.INTRA.SOLV>
0

>  <SCORE.INTRA.SOLV.lig_0>
-12.9184

>  <SCORE.INTRA.VDW>
0

>  <SCORE.INTRA.VDW.0>
0

>  <SCORE.INTRA.norm>
0

>  <SCORE.RESTR>
0

>  <SCORE.RESTR.CAVITY>
0

>  <SCORE.RESTR.norm>
0

>  <SCORE.SYSTEM>
0

>  <SCORE.SYSTEM.CONST>
0

>  <SCORE.SYSTEM.DIHEDRAL>
0

>  <SCORE.SYSTEM.SOLV>
0

>  <SCORE.SYSTEM.norm>
0

>  <SCORE.heavy>
13

>  <SCORE.norm>
-1.79907

>  <RMSD>
1.152

$$$$
1o15_lig
 OpenBabel11021811403D
libRbt.so/2013.1/901 2013/11/27
 13 14  0  0  0  0  0  0  0  0999 V2000
    8.8173    0.9411   37.4976 C   0  0  0  0  0  0  0  0  0  0  0  0
    8.7490    2.2895   37.2245 N   0  0  0  0  0  0  0  0  0  0  0  0
    9.4421    3.1342   38.0325 C   0  0  0  0  0  0  0  0  0  0  0  0
   10.0701    2.6077   38.9476 O   0  0  0  0  0  0  0  0  0  0  0  0
   10.1850    5.3273   38.7301 C   0  0  0  0  0  0  0  0  0  0  0  0
    9.4750    4.4937   37.8927 N   0  0  0  0  0  0  0  0  0  0  0  0
    8.7353    4.9383   36.8409 C   0  0  0  0  0  0  0  0  0  0  0  0
    8.0455    4.0795   36.0351 C   0  0  0  0  0  0  0  0  0  0  0  0
    8.0041    2.6793   36.1702 C   0  0  0  0  0  0  0  0  0  0  0  0
    7.4070    1.8541   35.4837 O   0  0  0  0  0  0  0  0  0  0  0  0
    7.4170    4.8737   35.0869 N   0  0  0  0  0  0  0  0  0  0  0  0
    7.7678    6.1504   35.3811 C   0  0  0  0  0  0  0  0  0  0  0  0
    8.5531    6.2512   36.4194 N   0  0  0  0  0  0  0  0  0  0  0  0
  1  2  1  0  0  0  0
  2  3  1  0  0  0  0
  2  9  1  0  0  0  0
  3  4  2  0  0  0  0
  3  6  1  0  0  0  0
  6  5  1  0  0  0  0
  6  7  1  0  0  0  0
  7  8  2  0  0  0  0
  7 13  1  0  0  0  0
  8  9  1  0  0  0  0
  8 11  1  0  0  0  0
  9 10  2  0  0  0  0
 11 12  1  0  0  0  0
 12 13  2  0  0  0  0
M  END
>  <CHROM.1>
8.67741988,3.77007417,36.92390729,1.11276983,0.92487509,3.00594255

>  <Name>
1o15_lig

>  <RI>
0

>  <Rbt.Current_Directory>
/home/itssahil/PROJECTS/Mol_Feturizer/New_Systems/rnas/1o15

>  <Rbt.Executable>
rbdock ($Id: //depot/dev/client3/rdock/2013.1/src/exe/rbdock.cxx#4 $)

>  <Rbt.Library>
libRbt.so (2013.1, Build901 2013/11/27)

>  <Rbt.Parameter_File>
/export/apps/rDock/src/rDock_2013.1_src/data/scripts/dock_solv.prm

>  <Rbt.Receptor>
prm/pocket_docking_6.prm

>  <SCORE>
-23.4139

>  <SCORE.INTER>
-23.4139

>  <SCORE.INTER.CONST>
1

>  <SCORE.INTER.POLAR>
-2.13153

>  <SCORE.INTER.ROT>
0

>  <SCORE.INTER.SOLV>
7.35235

>  <SCORE.INTER.VDW>
-14.5549

>  <SCORE.INTER.norm>
-1.80107

>  <SCORE.INTRA>
0

>  <SCORE.INTRA.DIHEDRAL>
0

>  <SCORE.INTRA.DIHEDRAL.0>
0

>  <SCORE.INTRA.POLAR>
0

>  <SCORE.INTRA.POLAR.0>
0

>  <SCORE.INTRA.REPUL>
0

>  <SCORE.INTRA.REPUL.0>
0

>  <SCORE.INTRA.SOLV>
0

>  <SCORE.INTRA.SOLV.lig_0>
-12.9184

>  <SCORE.INTRA.VDW>
0

>  <SCORE.INTRA.VDW.0>
0

>  <SCORE.INTRA.norm>
0

>  <SCORE.RESTR>
0

>  <SCORE.RESTR.CAVITY>
0

>  <SCORE.RESTR.norm>
0

>  <SCORE.SYSTEM>
0

>  <SCORE.SYSTEM.CONST>
0

>  <SCORE.SYSTEM.DIHEDRAL>
0

>  <SCORE.SYSTEM.SOLV>
0

>  <SCORE.SYSTEM.norm>
0

>  <SCORE.heavy>
13

>  <SCORE.norm>
-1.80107

>  <RMSD>
1.152

$$$$
1o15_lig
 OpenBabel11021811403D
libRbt.so/2013.1/901 2013/11/27
 13 14  0  0  0  0  0  0  0  0999 V2000
    8.8170    0.9412   37.4972 C   0  0  0  0  0  0  0  0  0  0  0  0
    8.7485    2.2895   37.2237 N   0  0  0  0  0  0  0  0  0  0  0  0
    9.4426    3.1344   38.0307 C   0  0  0  0  0  0  0  0  0  0  0  0
   10.0717    2.6082   38.9451 O   0  0  0  0  0  0  0  0  0  0  0  0
   10.1864    5.3277   38.7266 C   0  0  0  0  0  0  0  0  0  0  0  0
    9.4754    4.4938   37.8903 N   0  0  0  0  0  0  0  0  0  0  0  0
    8.7345    4.9381   36.8392 C   0  0  0  0  0  0  0  0  0  0  0  0
    8.0437    4.0791   36.0346 C   0  0  0  0  0  0  0  0  0  0  0  0
    8.0024    2.6790   36.1701 C   0  0  0  0  0  0  0  0  0  0  0  0
    7.4044    1.8536   35.4846 O   0  0  0  0  0  0  0  0  0  0  0  0
    7.4141    4.8730   35.0868 N   0  0  0  0  0  0  0  0  0  0  0  0
    7.7654    6.1498   35.3801 C   0  0  0  0  0  0  0  0  0  0  0  0
    8.5519    6.2509   36.4174 N   0  0  0  0  0  0  0  0  0  0  0  0
  1  2  1  0  0  0  0
  2  3  1  0  0  0  0
  2  9  1  0  0  0  0
  3  4  2  0  0  0  0
  3  6  1  0  0  0  0
  6  5  1  0  0  0  0
  6  7  1  0  0  0  0
  7  8  2  0  0  0  0
  7 13  1  0  0  0  0
  8  9  1  0  0  0  0
  8 11  1  0  0  0  0
  9 10  2  0  0  0  0
 11 12  1  0  0  0  0
 12 13  2  0  0  0  0
M  END
>  <CHROM.1>
8.67662831,3.76993077,36.92270454,1.11261536,0.92369358,3.00571423

>  <Name>
1o15_lig

>  <RI>
0

>  <Rbt.Current_Directory>
/home/itssahil/PROJECTS/Mol_Feturizer/New_Systems/rnas/1o15

>  <Rbt.Executable>
rbdock ($Id: //depot/dev/client3/rdock/2013.1/src/exe/rbdock.cxx#4 $)

>  <Rbt.Library>
libRbt.so (2013.1, Build901 2013/11/27)

>  <Rbt.Parameter_File>
/export/apps/rDock/src/rDock_2013.1_src/data/scripts/dock_solv.prm

>  <Rbt.Receptor>
prm/pocket_docking_2.prm

>  <SCORE>
-23.4045

>  <SCORE.INTER>
-23.4045

>  <SCORE.INTER.CONST>
1

>  <SCORE.INTER.POLAR>
-2.12838

>  <SCORE.INTER.ROT>
0

>  <SCORE.INTER.SOLV>
7.3546

>  <SCORE.INTER.VDW>
-14.5599

>  <SCORE.INTER.norm>
-1.80035

>  <SCORE.INTRA>
0

>  <SCORE.INTRA.DIHEDRAL>
0

>  <SCORE.INTRA.DIHEDRAL.0>
0

>  <SCORE.INTRA.POLAR>
0

>  <SCORE.INTRA.POLAR.0>
0

>  <SCORE.INTRA.REPUL>
0

>  <SCORE.INTRA.REPUL.0>
0

>  <SCORE.INTRA.SOLV>
0

>  <SCORE.INTRA.SOLV.lig_0>
-12.9184

>  <SCORE.INTRA.VDW>
0

>  <SCORE.INTRA.VDW.0>
0

>  <SCORE.INTRA.norm>
0

>  <SCORE.RESTR>
0

>  <SCORE.RESTR.CAVITY>
0

>  <SCORE.RESTR.norm>
0

>  <SCORE.SYSTEM>
0

>  <SCORE.SYSTEM.CONST>
0

>  <SCORE.SYSTEM.DIHEDRAL>
0

>  <SCORE.SYSTEM.SOLV>
0

>  <SCORE.SYSTEM.norm>
0

>  <SCORE.heavy>
13

>  <SCORE.norm>
-1.80035

>  <RMSD>
1.153

$$$$
1o15_lig
 OpenBabel11021811403D
libRbt.so/2013.1/901 2013/11/27
 13 14  0  0  0  0  0  0  0  0999 V2000
    8.8008    0.9292   37.4899 C   0  0  0  0  0  0  0  0  0  0  0  0
    8.7371    2.2785   37.2199 N   0  0  0  0  0  0  0  0  0  0  0  0
    9.4328    3.1189   38.0301 C   0  0  0  0  0  0  0  0  0  0  0  0
   10.0588    2.5883   38.9441 O   0  0  0  0  0  0  0  0  0  0  0  0
   10.1829    5.3080   38.7329 C   0  0  0  0  0  0  0  0  0  0  0  0
    9.4703    4.4786   37.8933 N   0  0  0  0  0  0  0  0  0  0  0  0
    8.7324    4.9282   36.8424 C   0  0  0  0  0  0  0  0  0  0  0  0
    8.0401    4.0736   36.0344 C   0  0  0  0  0  0  0  0  0  0  0  0
    7.9939    2.6732   36.1663 C   0  0  0  0  0  0  0  0  0  0  0  0
    7.3942    1.8516   35.4777 O   0  0  0  0  0  0  0  0  0  0  0  0
    7.4145    4.8721   35.0878 N   0  0  0  0  0  0  0  0  0  0  0  0
    7.7695    6.1469   35.3851 C   0  0  0  0  0  0  0  0  0  0  0  0
    8.5548    6.2426   36.4238 N   0  0  0  0  0  0  0  0  0  0  0  0
  1  2  1  0  0  0  0
  2  3  1  0  0  0  0
  2  9  1  0  0  0  0
  3  4  2  0  0  0  0
  3  6  1  0  0  0  0
  6  5  1  0  0  0  0
  6  7  1  0  0  0  0
  7  8  2  0  0  0  0
  7 13  1  0  0  0  0
  8  9  1  0  0  0  0
  8 11  1  0  0  0  0
  9 10  2  0  0  0  0
 11 12  1  0  0  0  0
 12 13  2  0  0  0  0
M  END
>  <CHROM.1>
8.67063432,3.75994417,36.92270239,1.11836664,0.92470888,3.00376592

>  <Name>
1o15_lig

>  <RI>
0

>  <Rbt.Current_Directory>
/home/itssahil/PROJECTS/Mol_Feturizer/New_Systems/rnas/1o15

>  <Rbt.Executable>
rbdock ($Id: //depot/dev/client3/rdock/2013.1/src/exe/rbdock.cxx#4 $)

>  <Rbt.Library>
libRbt.so (2013.1, Build901 2013/11/27)

>  <Rbt.Parameter_File>
/export/apps/rDock/src/rDock_2013.1_src/data/scripts/dock_solv.prm

>  <Rbt.Receptor>
prm/pocket_docking_2.prm

>  <SCORE>
-23.3926

>  <SCORE.INTER>
-23.3926

>  <SCORE.INTER.CONST>
1

>  <SCORE.INTER.POLAR>
-2.13318

>  <SCORE.INTER.ROT>
0

>  <SCORE.INTER.SOLV>
7.36223

>  <SCORE.INTER.VDW>
-14.5385

>  <SCORE.INTER.norm>
-1.79943

>  <SCORE.INTRA>
0

>  <SCORE.INTRA.DIHEDRAL>
0

>  <SCORE.INTRA.DIHEDRAL.0>
0

>  <SCORE.INTRA.POLAR>
0

>  <SCORE.INTRA.POLAR.0>
0

>  <SCORE.INTRA.REPUL>
0

>  <SCORE.INTRA.REPUL.0>
0

>  <SCORE.INTRA.SOLV>
0

>  <SCORE.INTRA.SOLV.lig_0>
-12.9184

>  <SCORE.INTRA.VDW>
0

>  <SCORE.INTRA.VDW.0>
0

>  <SCORE.INTRA.norm>
0

>  <SCORE.RESTR>
0

>  <SCORE.RESTR.CAVITY>
0

>  <SCORE.RESTR.norm>
0

>  <SCORE.SYSTEM>
0

>  <SCORE.SYSTEM.CONST>
0

>  <SCORE.SYSTEM.DIHEDRAL>
0

>  <SCORE.SYSTEM.SOLV>
0

>  <SCORE.SYSTEM.norm>
0

>  <SCORE.heavy>
13

>  <SCORE.norm>
-1.79943

>  <RMSD>
1.153

$$$$
1o15_lig
 OpenBabel11021811403D
libRbt.so/2013.1/901 2013/11/27
 13 14  0  0  0  0  0  0  0  0999 V2000
    8.8138    0.9421   37.4917 C   0  0  0  0  0  0  0  0  0  0  0  0
    8.7452    2.2907   37.2200 N   0  0  0  0  0  0  0  0  0  0  0  0
    9.4396    3.1346   38.0277 C   0  0  0  0  0  0  0  0  0  0  0  0
   10.0691    2.6072   38.9413 O   0  0  0  0  0  0  0  0  0  0  0  0
   10.1838    5.3270   38.7261 C   0  0  0  0  0  0  0  0  0  0  0  0
    9.4724    4.4942   37.8890 N   0  0  0  0  0  0  0  0  0  0  0  0
    8.7311    4.9398   36.8388 C   0  0  0  0  0  0  0  0  0  0  0  0
    8.0400    4.0819   36.0333 C   0  0  0  0  0  0  0  0  0  0  0  0
    7.9988    2.6815   36.1672 C   0  0  0  0  0  0  0  0  0  0  0  0
    7.4005    1.8570   35.4808 O   0  0  0  0  0  0  0  0  0  0  0  0
    7.4101    4.8770   35.0868 N   0  0  0  0  0  0  0  0  0  0  0  0
    7.7615    6.1534   35.3816 C   0  0  0  0  0  0  0  0  0  0  0  0
    8.5484    6.2531   36.4187 N   0  0  0  0  0  0  0  0  0  0  0  0
  1  2  1  0  0  0  0
  2  3  1  0  0  0  0
  2  9  1  0  0  0  0
  3  4  2  0  0  0  0
  3  6  1  0  0  0  0
  6  5  1  0  0  0  0
  6  7  1  0  0  0  0
  7  8  2  0  0  0  0
  7 13  1  0  0  0  0
  8  9  1  0  0  0  0
  8 11  1  0  0  0  0
  9 10  2  0  0  0  0
 11 12  1  0  0  0  0
 12 13  2  0  0  0  0
M  END
>  <CHROM.1>
8.67329871,3.77154238,36.92083661,1.11256077,0.92331554,3.00701736

>  <Name>
1o15_lig

>  <RI>
0

>  <Rbt.Current_Directory>
/home/itssahil/PROJECTS/Mol_Feturizer/New_Systems/rnas/1o15

>  <Rbt.Executable>
rbdock ($Id: //depot/dev/client3/rdock/2013.1/src/exe/rbdock.cxx#4 $)

>  <Rbt.Library>
libRbt.so (2013.1, Build901 2013/11/27)

>  <Rbt.Parameter_File>
/export/apps/rDock/src/rDock_2013.1_src/data/scripts/dock_solv.prm

>  <Rbt.Receptor>
prm/pocket_docking_2.prm

>  <SCORE>
-23.3898

>  <SCORE.INTER>
-23.3898

>  <SCORE.INTER.CONST>
1

>  <SCORE.INTER.POLAR>
-2.12561

>  <SCORE.INTER.ROT>
0

>  <SCORE.INTER.SOLV>
7.36796

>  <SCORE.INTER.VDW>
-14.5638

>  <SCORE.INTER.norm>
-1.79922

>  <SCORE.INTRA>
0

>  <SCORE.INTRA.DIHEDRAL>
0

>  <SCORE.INTRA.DIHEDRAL.0>
0

>  <SCORE.INTRA.POLAR>
0

>  <SCORE.INTRA.POLAR.0>
0

>  <SCORE.INTRA.REPUL>
0

>  <SCORE.INTRA.REPUL.0>
0

>  <SCORE.INTRA.SOLV>
0

>  <SCORE.INTRA.SOLV.lig_0>
-12.9184

>  <SCORE.INTRA.VDW>
0

>  <SCORE.INTRA.VDW.0>
0

>  <SCORE.INTRA.norm>
0

>  <SCORE.RESTR>
0

>  <SCORE.RESTR.CAVITY>
0

>  <SCORE.RESTR.norm>
0

>  <SCORE.SYSTEM>
0

>  <SCORE.SYSTEM.CONST>
0

>  <SCORE.SYSTEM.DIHEDRAL>
0

>  <SCORE.SYSTEM.SOLV>
0

>  <SCORE.SYSTEM.norm>
0

>  <SCORE.heavy>
13

>  <SCORE.norm>
-1.79922

>  <RMSD>
1.157

$$$$
1o15_lig
 OpenBabel11021811403D
libRbt.so/2013.1/901 2013/11/27
 13 14  0  0  0  0  0  0  0  0999 V2000
    8.7687    0.9182   37.5033 C   0  0  0  0  0  0  0  0  0  0  0  0
    8.7137    2.2674   37.2312 N   0  0  0  0  0  0  0  0  0  0  0  0
    9.4111    3.1050   38.0429 C   0  0  0  0  0  0  0  0  0  0  0  0
   10.0305    2.5721   38.9600 O   0  0  0  0  0  0  0  0  0  0  0  0
   10.1708    5.2908   38.7455 C   0  0  0  0  0  0  0  0  0  0  0  0
    9.4568    4.4643   37.9044 N   0  0  0  0  0  0  0  0  0  0  0  0
    8.7256    4.9165   36.8499 C   0  0  0  0  0  0  0  0  0  0  0  0
    8.0314    4.0647   36.0405 C   0  0  0  0  0  0  0  0  0  0  0  0
    7.9769    2.6648   36.1741 C   0  0  0  0  0  0  0  0  0  0  0  0
    7.3751    1.8456   35.4844 O   0  0  0  0  0  0  0  0  0  0  0  0
    7.4141    4.8654   35.0904 N   0  0  0  0  0  0  0  0  0  0  0  0
    7.7752    6.1386   35.3872 C   0  0  0  0  0  0  0  0  0  0  0  0
    8.5570    6.2314   36.4288 N   0  0  0  0  0  0  0  0  0  0  0  0
  1  2  1  0  0  0  0
  2  3  1  0  0  0  0
  2  9  1  0  0  0  0
  3  4  2  0  0  0  0
  3  6  1  0  0  0  0
  6  5  1  0  0  0  0
  6  7  1  0  0  0  0
  7  8  2  0  0  0  0
  7 13  1  0  0  0  0
  8  9  1  0  0  0  0
  8 11  1  0  0  0  0
  9 10  2  0  0  0  0
 11 12  1  0  0  0  0
 12 13  2  0  0  0  0
M  END
>  <CHROM.1>
8.65680484,3.74878871,36.93164369,1.12864222,0.92772566,2.99414259

>  <Name>
1o15_lig

>  <RI>
0

>  <Rbt.Current_Directory>
/home/itssahil/PROJECTS/Mol_Feturizer/New_Systems/rnas/1o15

>  <Rbt.Executable>
rbdock ($Id: //depot/dev/client3/rdock/2013.1/src/exe/rbdock.cxx#4 $)

>  <Rbt.Library>
libRbt.so (2013.1, Build901 2013/11/27)

>  <Rbt.Parameter_File>
/export/apps/rDock/src/rDock_2013.1_src/data/scripts/dock_solv.prm

>  <Rbt.Receptor>
prm/pocket_docking_2.prm

>  <SCORE>
-23.4115

>  <SCORE.INTER>
-23.4115

>  <SCORE.INTER.CONST>
1

>  <SCORE.INTER.POLAR>
-2.13302

>  <SCORE.INTER.ROT>
0

>  <SCORE.INTER.SOLV>
7.42399

>  <SCORE.INTER.VDW>
-14.5723

>  <SCORE.INTER.norm>
-1.80089

>  <SCORE.INTRA>
0

>  <SCORE.INTRA.DIHEDRAL>
0

>  <SCORE.INTRA.DIHEDRAL.0>
0

>  <SCORE.INTRA.POLAR>
0

>  <SCORE.INTRA.POLAR.0>
0

>  <SCORE.INTRA.REPUL>
0

>  <SCORE.INTRA.REPUL.0>
0

>  <SCORE.INTRA.SOLV>
0

>  <SCORE.INTRA.SOLV.lig_0>
-12.9184

>  <SCORE.INTRA.VDW>
0

>  <SCORE.INTRA.VDW.0>
0

>  <SCORE.INTRA.norm>
0

>  <SCORE.RESTR>
0

>  <SCORE.RESTR.CAVITY>
0

>  <SCORE.RESTR.norm>
0

>  <SCORE.SYSTEM>
0

>  <SCORE.SYSTEM.CONST>
0

>  <SCORE.SYSTEM.DIHEDRAL>
0

>  <SCORE.SYSTEM.SOLV>
0

>  <SCORE.SYSTEM.norm>
0

>  <SCORE.heavy>
13

>  <SCORE.norm>
-1.80089

>  <RMSD>
1.157

$$$$
1o15_lig
 OpenBabel11021811403D
libRbt.so/2013.1/901 2013/11/27
 13 14  0  0  0  0  0  0  0  0999 V2000
    8.8461    0.9490   37.4486 C   0  0  0  0  0  0  0  0  0  0  0  0
    8.7678    2.2994   37.1886 N   0  0  0  0  0  0  0  0  0  0  0  0
    9.4609    3.1407   38.0000 C   0  0  0  0  0  0  0  0  0  0  0  0
   10.0981    2.6097   38.9060 O   0  0  0  0  0  0  0  0  0  0  0  0
   10.1949    5.3319   38.7133 C   0  0  0  0  0  0  0  0  0  0  0  0
    9.4846    4.5016   37.8727 N   0  0  0  0  0  0  0  0  0  0  0  0
    8.7354    4.9515   36.8299 C   0  0  0  0  0  0  0  0  0  0  0  0
    8.0457    4.0960   36.0206 C   0  0  0  0  0  0  0  0  0  0  0  0
    8.0137    2.6944   36.1428 C   0  0  0  0  0  0  0  0  0  0  0  0
    7.4172    1.8720   35.4524 O   0  0  0  0  0  0  0  0  0  0  0  0
    7.4062    4.8952   35.0839 N   0  0  0  0  0  0  0  0  0  0  0  0
    7.7511    6.1712   35.3878 C   0  0  0  0  0  0  0  0  0  0  0  0
    8.5424    6.2671   36.4219 N   0  0  0  0  0  0  0  0  0  0  0  0
  1  2  1  0  0  0  0
  2  3  1  0  0  0  0
  2  9  1  0  0  0  0
  3  4  2  0  0  0  0
  3  6  1  0  0  0  0
  6  5  1  0  0  0  0
  6  7  1  0  0  0  0
  7  8  2  0  0  0  0
  7 13  1  0  0  0  0
  8  9  1  0  0  0  0
  8 11  1  0  0  0  0
  9 10  2  0  0  0  0
 11 12  1  0  0  0  0
 12 13  2  0  0  0  0
M  END
>  <CHROM.1>
8.68521171,3.78222272,36.90234226,1.10132156,0.91923976,3.02441388

>  <Name>
1o15_lig

>  <RI>
0

>  <Rbt.Current_Directory>
/home/itssahil/PROJECTS/Mol_Feturizer/New_Systems/rnas/1o15

>  <Rbt.Executable>
rbdock ($Id: //depot/dev/client3/rdock/2013.1/src/exe/rbdock.cxx#4 $)

>  <Rbt.Library>
libRbt.so (2013.1, Build901 2013/11/27)

>  <Rbt.Parameter_File>
/export/apps/rDock/src/rDock_2013.1_src/data/scripts/dock_solv.prm

>  <Rbt.Receptor>
prm/pocket_docking_3.prm

>  <SCORE>
-23.3963

>  <SCORE.INTER>
-23.3963

>  <SCORE.INTER.CONST>
1

>  <SCORE.INTER.POLAR>
-2.12046

>  <SCORE.INTER.ROT>
0

>  <SCORE.INTER.SOLV>
7.29154

>  <SCORE.INTER.VDW>
-14.5599

>  <SCORE.INTER.norm>
-1.79972

>  <SCORE.INTRA>
0

>  <SCORE.INTRA.DIHEDRAL>
0

>  <SCORE.INTRA.DIHEDRAL.0>
0

>  <SCORE.INTRA.POLAR>
0

>  <SCORE.INTRA.POLAR.0>
0

>  <SCORE.INTRA.REPUL>
0

>  <SCORE.INTRA.REPUL.0>
0

>  <SCORE.INTRA.SOLV>
0

>  <SCORE.INTRA.SOLV.lig_0>
-12.9184

>  <SCORE.INTRA.VDW>
0

>  <SCORE.INTRA.VDW.0>
0

>  <SCORE.INTRA.norm>
0

>  <SCORE.RESTR>
0

>  <SCORE.RESTR.CAVITY>
0

>  <SCORE.RESTR.norm>
0

>  <SCORE.SYSTEM>
0

>  <SCORE.SYSTEM.CONST>
0

>  <SCORE.SYSTEM.DIHEDRAL>
0

>  <SCORE.SYSTEM.SOLV>
0

>  <SCORE.SYSTEM.norm>
0

>  <SCORE.heavy>
13

>  <SCORE.norm>
-1.79972

>  <RMSD>
1.157

$$$$
1o15_lig
 OpenBabel11021811403D
libRbt.so/2013.1/901 2013/11/27
 13 14  0  0  0  0  0  0  0  0999 V2000
    8.7663    0.9202   37.5016 C   0  0  0  0  0  0  0  0  0  0  0  0
    8.7125    2.2694   37.2290 N   0  0  0  0  0  0  0  0  0  0  0  0
    9.4120    3.1065   38.0394 C   0  0  0  0  0  0  0  0  0  0  0  0
   10.0321    2.5732   38.9559 O   0  0  0  0  0  0  0  0  0  0  0  0
   10.1754    5.2916   38.7402 C   0  0  0  0  0  0  0  0  0  0  0  0
    9.4592    4.4656   37.9004 N   0  0  0  0  0  0  0  0  0  0  0  0
    8.7270    4.9184   36.8468 C   0  0  0  0  0  0  0  0  0  0  0  0
    8.0307    4.0671   36.0387 C   0  0  0  0  0  0  0  0  0  0  0  0
    7.9746    2.6673   36.1729 C   0  0  0  0  0  0  0  0  0  0  0  0
    7.3709    1.8486   35.4843 O   0  0  0  0  0  0  0  0  0  0  0  0
    7.4129    4.8682   35.0891 N   0  0  0  0  0  0  0  0  0  0  0  0
    7.7760    6.1411   35.3850 C   0  0  0  0  0  0  0  0  0  0  0  0
    8.5594    6.2333   36.4255 N   0  0  0  0  0  0  0  0  0  0  0  0
  1  2  1  0  0  0  0
  2  3  1  0  0  0  0
  2  9  1  0  0  0  0
  3  4  2  0  0  0  0
  3  6  1  0  0  0  0
  6  5  1  0  0  0  0
  6  7  1  0  0  0  0
  7  8  2  0  0  0  0
  7 13  1  0  0  0  0
  8  9  1  0  0  0  0
  8 11  1  0  0  0  0
  9 10  2  0  0  0  0
 11 12  1  0  0  0  0
 12 13  2  0  0  0  0
M  END
>  <CHROM.1>
8.65693637,3.75075086,36.92903788,1.13026047,0.92613736,2.99250161

>  <Name>
1o15_lig

>  <RI>
0

>  <Rbt.Current_Directory>
/home/itssahil/PROJECTS/Mol_Feturizer/New_Systems/rnas/1o15

>  <Rbt.Executable>
rbdock ($Id: //depot/dev/client3/rdock/2013.1/src/exe/rbdock.cxx#4 $)

>  <Rbt.Library>
libRbt.so (2013.1, Build901 2013/11/27)

>  <Rbt.Parameter_File>
/export/apps/rDock/src/rDock_2013.1_src/data/scripts/dock_solv.prm

>  <Rbt.Receptor>
prm/pocket_docking_6.prm

>  <SCORE>
-23.4152

>  <SCORE.INTER>
-23.4152

>  <SCORE.INTER.CONST>
1

>  <SCORE.INTER.POLAR>
-2.13295

>  <SCORE.INTER.ROT>
0

>  <SCORE.INTER.SOLV>
7.42249

>  <SCORE.INTER.VDW>
-14.5745

>  <SCORE.INTER.norm>
-1.80117

>  <SCORE.INTRA>
0

>  <SCORE.INTRA.DIHEDRAL>
0

>  <SCORE.INTRA.DIHEDRAL.0>
0

>  <SCORE.INTRA.POLAR>
0

>  <SCORE.INTRA.POLAR.0>
0

>  <SCORE.INTRA.REPUL>
0

>  <SCORE.INTRA.REPUL.0>
0

>  <SCORE.INTRA.SOLV>
0

>  <SCORE.INTRA.SOLV.lig_0>
-12.9184

>  <SCORE.INTRA.VDW>
0

>  <SCORE.INTRA.VDW.0>
0

>  <SCORE.INTRA.norm>
0

>  <SCORE.RESTR>
0

>  <SCORE.RESTR.CAVITY>
0

>  <SCORE.RESTR.norm>
0

>  <SCORE.SYSTEM>
0

>  <SCORE.SYSTEM.CONST>
0

>  <SCORE.SYSTEM.DIHEDRAL>
0

>  <SCORE.SYSTEM.SOLV>
0

>  <SCORE.SYSTEM.norm>
0

>  <SCORE.heavy>
13

>  <SCORE.norm>
-1.80117

>  <RMSD>
1.158

$$$$
1o15_lig
 OpenBabel11021811403D
libRbt.so/2013.1/901 2013/11/27
 13 14  0  0  0  0  0  0  0  0999 V2000
   10.1497    1.0488   36.4081 C   0  0  0  0  0  0  0  0  0  0  0  0
    9.7474    2.3661   36.4195 N   0  0  0  0  0  0  0  0  0  0  0  0
   10.3742    3.2112   37.2795 C   0  0  0  0  0  0  0  0  0  0  0  0
   11.2510    2.7118   37.9800 O   0  0  0  0  0  0  0  0  0  0  0  0
   10.7407    5.3761   38.2932 C   0  0  0  0  0  0  0  0  0  0  0  0
   10.0901    4.5421   37.4090 N   0  0  0  0  0  0  0  0  0  0  0  0
    9.0996    4.9584   36.5743 C   0  0  0  0  0  0  0  0  0  0  0  0
    8.4794    4.1003   35.7133 C   0  0  0  0  0  0  0  0  0  0  0  0
    8.7632    2.7291   35.5721 C   0  0  0  0  0  0  0  0  0  0  0  0
    8.2457    1.9062   34.8212 O   0  0  0  0  0  0  0  0  0  0  0  0
    7.5390    4.8611   35.0336 N   0  0  0  0  0  0  0  0  0  0  0  0
    7.6544    6.1196   35.5260 C   0  0  0  0  0  0  0  0  0  0  0  0
    8.5695    6.2382   36.4497 N   0  0  0  0  0  0  0  0  0  0  0  0
  1  2  1  0  0  0  0
  2  3  1  0  0  0  0
  2  9  1  0  0  0  0
  3  4  2  0  0  0  0
  3  6  1  0  0  0  0
  6  5  1  0  0  0  0
  6  7  1  0  0  0  0
  7  8  2  0  0  0  0
  7 13  1  0  0  0  0
  8  9  1  0  0  0  0
  8 11  1  0  0  0  0
  9 10  2  0  0  0  0
 11 12  1  0  0  0  0
 12 13  2  0  0  0  0
M  END
>  <CHROM.1>
9.30880114,3.81355896,36.43085528,0.78511686,0.74798688,-2.84718707

>  <Name>
1o15_lig

>  <RI>
0

>  <Rbt.Current_Directory>
/home/itssahil/PROJECTS/Mol_Feturizer/New_Systems/rnas/1o15

>  <Rbt.Executable>
rbdock ($Id: //depot/dev/client3/rdock/2013.1/src/exe/rbdock.cxx#4 $)

>  <Rbt.Library>
libRbt.so (2013.1, Build901 2013/11/27)

>  <Rbt.Parameter_File>
/export/apps/rDock/src/rDock_2013.1_src/data/scripts/dock_solv.prm

>  <Rbt.Receptor>
prm/pocket_docking_5.prm

>  <SCORE>
-22.7777

>  <SCORE.INTER>
-22.7777

>  <SCORE.INTER.CONST>
1

>  <SCORE.INTER.POLAR>
-2.11506

>  <SCORE.INTER.ROT>
0

>  <SCORE.INTER.SOLV>
5.64377

>  <SCORE.INTER.VDW>
-13.6162

>  <SCORE.INTER.norm>
-1.75213

>  <SCORE.INTRA>
0

>  <SCORE.INTRA.DIHEDRAL>
0

>  <SCORE.INTRA.DIHEDRAL.0>
0

>  <SCORE.INTRA.POLAR>
0

>  <SCORE.INTRA.POLAR.0>
0

>  <SCORE.INTRA.REPUL>
0

>  <SCORE.INTRA.REPUL.0>
0

>  <SCORE.INTRA.SOLV>
0

>  <SCORE.INTRA.SOLV.lig_0>
-12.9184

>  <SCORE.INTRA.VDW>
0

>  <SCORE.INTRA.VDW.0>
0

>  <SCORE.INTRA.norm>
0

>  <SCORE.RESTR>
0

>  <SCORE.RESTR.CAVITY>
0

>  <SCORE.RESTR.norm>
0

>  <SCORE.SYSTEM>
0

>  <SCORE.SYSTEM.CONST>
0

>  <SCORE.SYSTEM.DIHEDRAL>
0

>  <SCORE.SYSTEM.SOLV>
0

>  <SCORE.SYSTEM.norm>
0

>  <SCORE.heavy>
13

>  <SCORE.norm>
-1.75213

>  <RMSD>
1.160

$$$$
1o15_lig
 OpenBabel11021811403D
libRbt.so/2013.1/901 2013/11/27
 13 14  0  0  0  0  0  0  0  0999 V2000
    8.7630    0.9220   37.4897 C   0  0  0  0  0  0  0  0  0  0  0  0
    8.7092    2.2719   37.2207 N   0  0  0  0  0  0  0  0  0  0  0  0
    9.4095    3.1068   38.0327 C   0  0  0  0  0  0  0  0  0  0  0  0
   10.0302    2.5710   38.9473 O   0  0  0  0  0  0  0  0  0  0  0  0
   10.1737    5.2899   38.7385 C   0  0  0  0  0  0  0  0  0  0  0  0
    9.4567    4.4662   37.8971 N   0  0  0  0  0  0  0  0  0  0  0  0
    8.7238    4.9218   36.8453 C   0  0  0  0  0  0  0  0  0  0  0  0
    8.0267    4.0727   36.0355 C   0  0  0  0  0  0  0  0  0  0  0  0
    7.9705    2.6726   36.1661 C   0  0  0  0  0  0  0  0  0  0  0  0
    7.3662    1.8558   35.4759 O   0  0  0  0  0  0  0  0  0  0  0  0
    7.4083    4.8763   35.0885 N   0  0  0  0  0  0  0  0  0  0  0  0
    7.7719    6.1484   35.3873 C   0  0  0  0  0  0  0  0  0  0  0  0
    8.5561    6.2378   36.4274 N   0  0  0  0  0  0  0  0  0  0  0  0
  1  2  1  0  0  0  0
  2  3  1  0  0  0  0
  2  9  1  0  0  0  0
  3  4  2  0  0  0  0
  3  6  1  0  0  0  0
  6  5  1  0  0  0  0
  6  7  1  0  0  0  0
  7  8  2  0  0  0  0
  7 13  1  0  0  0  0
  8  9  1  0  0  0  0
  8 11  1  0  0  0  0
  9 10  2  0  0  0  0
 11 12  1  0  0  0  0
 12 13  2  0  0  0  0
M  END
>  <CHROM.1>
8.65362234,3.75397964,36.92454469,1.13032266,0.92534778,2.99501023

>  <Name>
1o15_lig

>  <RI>
0

>  <Rbt.Current_Directory>
/home/itssahil/PROJECTS/Mol_Feturizer/New_Systems/rnas/1o15

>  <Rbt.Executable>
rbdock ($Id: //depot/dev/client3/rdock/2013.1/src/exe/rbdock.cxx#4 $)

>  <Rbt.Library>
libRbt.so (2013.1, Build901 2013/11/27)

>  <Rbt.Parameter_File>
/export/apps/rDock/src/rDock_2013.1_src/data/scripts/dock_solv.prm

>  <Rbt.Receptor>
prm/blind_docking_80.prm

>  <SCORE>
-23.3785

>  <SCORE.INTER>
-23.3785

>  <SCORE.INTER.CONST>
1

>  <SCORE.INTER.POLAR>
-2.13296

>  <SCORE.INTER.ROT>
0

>  <SCORE.INTER.SOLV>
7.43176

>  <SCORE.INTER.VDW>
-14.553

>  <SCORE.INTER.norm>
-1.79835

>  <SCORE.INTRA>
0

>  <SCORE.INTRA.DIHEDRAL>
0

>  <SCORE.INTRA.DIHEDRAL.0>
0

>  <SCORE.INTRA.POLAR>
0

>  <SCORE.INTRA.POLAR.0>
0

>  <SCORE.INTRA.REPUL>
0

>  <SCORE.INTRA.REPUL.0>
0

>  <SCORE.INTRA.SOLV>
0

>  <SCORE.INTRA.SOLV.lig_0>
-12.9184

>  <SCORE.INTRA.VDW>
0

>  <SCORE.INTRA.VDW.0>
0

>  <SCORE.INTRA.norm>
0

>  <SCORE.RESTR>
0

>  <SCORE.RESTR.CAVITY>
0

>  <SCORE.RESTR.norm>
0

>  <SCORE.SYSTEM>
0

>  <SCORE.SYSTEM.CONST>
0

>  <SCORE.SYSTEM.DIHEDRAL>
0

>  <SCORE.SYSTEM.SOLV>
0

>  <SCORE.SYSTEM.norm>
0

>  <SCORE.heavy>
13

>  <SCORE.norm>
-1.79835

>  <RMSD>
1.164

$$$$
1o15_lig
 OpenBabel11021811403D
libRbt.so/2013.1/901 2013/11/27
 13 14  0  0  0  0  0  0  0  0999 V2000
    8.7680    0.9305   37.4690 C   0  0  0  0  0  0  0  0  0  0  0  0
    8.7142    2.2815   37.2057 N   0  0  0  0  0  0  0  0  0  0  0  0
    9.4150    3.1129   38.0207 C   0  0  0  0  0  0  0  0  0  0  0  0
   10.0363    2.5732   38.9327 O   0  0  0  0  0  0  0  0  0  0  0  0
   10.1799    5.2930   38.7352 C   0  0  0  0  0  0  0  0  0  0  0  0
    9.4623    4.4729   37.8908 N   0  0  0  0  0  0  0  0  0  0  0  0
    8.7287    4.9330   36.8414 C   0  0  0  0  0  0  0  0  0  0  0  0
    8.0310    4.0873   36.0286 C   0  0  0  0  0  0  0  0  0  0  0  0
    7.9748    2.6867   36.1533 C   0  0  0  0  0  0  0  0  0  0  0  0
    7.3700    1.8728   35.4601 O   0  0  0  0  0  0  0  0  0  0  0  0
    7.4121    4.8950   35.0853 N   0  0  0  0  0  0  0  0  0  0  0  0
    7.7759    6.1657   35.3893 C   0  0  0  0  0  0  0  0  0  0  0  0
    8.5608    6.2507   36.4293 N   0  0  0  0  0  0  0  0  0  0  0  0
  1  2  1  0  0  0  0
  2  3  1  0  0  0  0
  2  9  1  0  0  0  0
  3  4  2  0  0  0  0
  3  6  1  0  0  0  0
  6  5  1  0  0  0  0
  6  7  1  0  0  0  0
  7  8  2  0  0  0  0
  7 13  1  0  0  0  0
  8  9  1  0  0  0  0
  8 11  1  0  0  0  0
  9 10  2  0  0  0  0
 11 12  1  0  0  0  0
 12 13  2  0  0  0  0
M  END
>  <CHROM.1>
8.65848189,3.76481794,36.91584423,1.13027098,0.92467851,2.99925725

>  <Name>
1o15_lig

>  <RI>
0

>  <Rbt.Current_Directory>
/home/itssahil/PROJECTS/Mol_Feturizer/New_Systems/rnas/1o15

>  <Rbt.Executable>
rbdock ($Id: //depot/dev/client3/rdock/2013.1/src/exe/rbdock.cxx#4 $)

>  <Rbt.Library>
libRbt.so (2013.1, Build901 2013/11/27)

>  <Rbt.Parameter_File>
/export/apps/rDock/src/rDock_2013.1_src/data/scripts/dock_solv.prm

>  <Rbt.Receptor>
prm/blind_docking_80.prm

>  <SCORE>
-23.3391

>  <SCORE.INTER>
-23.3391

>  <SCORE.INTER.CONST>
1

>  <SCORE.INTER.POLAR>
-2.13024

>  <SCORE.INTER.ROT>
0

>  <SCORE.INTER.SOLV>
7.4059

>  <SCORE.INTER.VDW>
-14.5273

>  <SCORE.INTER.norm>
-1.79532

>  <SCORE.INTRA>
0

>  <SCORE.INTRA.DIHEDRAL>
0

>  <SCORE.INTRA.DIHEDRAL.0>
0

>  <SCORE.INTRA.POLAR>
0

>  <SCORE.INTRA.POLAR.0>
0

>  <SCORE.INTRA.REPUL>
0

>  <SCORE.INTRA.REPUL.0>
0

>  <SCORE.INTRA.SOLV>
0

>  <SCORE.INTRA.SOLV.lig_0>
-12.9184

>  <SCORE.INTRA.VDW>
0

>  <SCORE.INTRA.VDW.0>
0

>  <SCORE.INTRA.norm>
0

>  <SCORE.RESTR>
0

>  <SCORE.RESTR.CAVITY>
0

>  <SCORE.RESTR.norm>
0

>  <SCORE.SYSTEM>
0

>  <SCORE.SYSTEM.CONST>
0

>  <SCORE.SYSTEM.DIHEDRAL>
0

>  <SCORE.SYSTEM.SOLV>
0

>  <SCORE.SYSTEM.norm>
0

>  <SCORE.heavy>
13

>  <SCORE.norm>
-1.79532

>  <RMSD>
1.168

$$$$
1o15_lig
 OpenBabel11021811403D
libRbt.so/2013.1/901 2013/11/27
 13 14  0  0  0  0  0  0  0  0999 V2000
   10.2171    1.0540   36.3693 C   0  0  0  0  0  0  0  0  0  0  0  0
    9.7970    2.3656   36.3934 N   0  0  0  0  0  0  0  0  0  0  0  0
   10.4149    3.2116   37.2590 C   0  0  0  0  0  0  0  0  0  0  0  0
   11.3004    2.7181   37.9527 O   0  0  0  0  0  0  0  0  0  0  0  0
   10.7550    5.3723   38.2905 C   0  0  0  0  0  0  0  0  0  0  0  0
   10.1132    4.5374   37.4010 N   0  0  0  0  0  0  0  0  0  0  0  0
    9.1146    4.9474   36.5727 C   0  0  0  0  0  0  0  0  0  0  0  0
    8.5036    4.0884   35.7060 C   0  0  0  0  0  0  0  0  0  0  0  0
    8.8055    2.7225   35.5520 C   0  0  0  0  0  0  0  0  0  0  0  0
    8.2970    1.8992   34.7954 O   0  0  0  0  0  0  0  0  0  0  0  0
    7.5510    4.8422   35.0357 N   0  0  0  0  0  0  0  0  0  0  0  0
    7.6507    6.0979   35.5387 C   0  0  0  0  0  0  0  0  0  0  0  0
    8.5668    6.2209   36.4608 N   0  0  0  0  0  0  0  0  0  0  0  0
  1  2  1  0  0  0  0
  2  3  1  0  0  0  0
  2  9  1  0  0  0  0
  3  4  2  0  0  0  0
  3  6  1  0  0  0  0
  6  5  1  0  0  0  0
  6  7  1  0  0  0  0
  7  8  2  0  0  0  0
  7 13  1  0  0  0  0
  8  9  1  0  0  0  0
  8 11  1  0  0  0  0
  9 10  2  0  0  0  0
 11 12  1  0  0  0  0
 12 13  2  0  0  0  0
M  END
>  <CHROM.1>
9.33888709,3.80677623,36.41868432,0.76867954,0.74115767,-2.82732859

>  <Name>
1o15_lig

>  <RI>
0

>  <Rbt.Current_Directory>
/home/itssahil/PROJECTS/Mol_Feturizer/New_Systems/rnas/1o15

>  <Rbt.Executable>
rbdock ($Id: //depot/dev/client3/rdock/2013.1/src/exe/rbdock.cxx#4 $)

>  <Rbt.Library>
libRbt.so (2013.1, Build901 2013/11/27)

>  <Rbt.Parameter_File>
/export/apps/rDock/src/rDock_2013.1_src/data/scripts/dock_solv.prm

>  <Rbt.Receptor>
prm/pocket_docking_5.prm

>  <SCORE>
-22.7336

>  <SCORE.INTER>
-22.7336

>  <SCORE.INTER.CONST>
1

>  <SCORE.INTER.POLAR>
-2.11987

>  <SCORE.INTER.ROT>
0

>  <SCORE.INTER.SOLV>
5.66389

>  <SCORE.INTER.VDW>
-13.5775

>  <SCORE.INTER.norm>
-1.74874

>  <SCORE.INTRA>
0

>  <SCORE.INTRA.DIHEDRAL>
0

>  <SCORE.INTRA.DIHEDRAL.0>
0

>  <SCORE.INTRA.POLAR>
0

>  <SCORE.INTRA.POLAR.0>
0

>  <SCORE.INTRA.REPUL>
0

>  <SCORE.INTRA.REPUL.0>
0

>  <SCORE.INTRA.SOLV>
0

>  <SCORE.INTRA.SOLV.lig_0>
-12.9184

>  <SCORE.INTRA.VDW>
0

>  <SCORE.INTRA.VDW.0>
0

>  <SCORE.INTRA.norm>
0

>  <SCORE.RESTR>
0

>  <SCORE.RESTR.CAVITY>
0

>  <SCORE.RESTR.norm>
0

>  <SCORE.SYSTEM>
0

>  <SCORE.SYSTEM.CONST>
0

>  <SCORE.SYSTEM.DIHEDRAL>
0

>  <SCORE.SYSTEM.SOLV>
0

>  <SCORE.SYSTEM.norm>
0

>  <SCORE.heavy>
13

>  <SCORE.norm>
-1.74874

>  <RMSD>
1.168

$$$$
1o15_lig
 OpenBabel11021811403D
libRbt.so/2013.1/901 2013/11/27
 13 14  0  0  0  0  0  0  0  0999 V2000
   10.2187    1.0292   36.3141 C   0  0  0  0  0  0  0  0  0  0  0  0
    9.8087    2.3436   36.3545 N   0  0  0  0  0  0  0  0  0  0  0  0
   10.4385    3.1758   37.2249 C   0  0  0  0  0  0  0  0  0  0  0  0
   11.3246    2.6684   37.9077 O   0  0  0  0  0  0  0  0  0  0  0  0
   10.8015    5.3230   38.2766 C   0  0  0  0  0  0  0  0  0  0  0  0
   10.1477    4.5023   37.3826 N   0  0  0  0  0  0  0  0  0  0  0  0
    9.1471    4.9284   36.5651 C   0  0  0  0  0  0  0  0  0  0  0  0
    8.5241    4.0832   35.6933 C   0  0  0  0  0  0  0  0  0  0  0  0
    8.8147    2.7168   35.5232 C   0  0  0  0  0  0  0  0  0  0  0  0
    8.2952    1.9053   34.7614 O   0  0  0  0  0  0  0  0  0  0  0  0
    7.5730    4.8512   35.0370 N   0  0  0  0  0  0  0  0  0  0  0  0
    7.6855    6.1007   35.5524 C   0  0  0  0  0  0  0  0  0  0  0  0
    8.6083    6.2072   36.4699 N   0  0  0  0  0  0  0  0  0  0  0  0
  1  2  1  0  0  0  0
  2  3  1  0  0  0  0
  2  9  1  0  0  0  0
  3  4  2  0  0  0  0
  3  6  1  0  0  0  0
  6  5  1  0  0  0  0
  6  7  1  0  0  0  0
  7  8  2  0  0  0  0
  7 13  1  0  0  0  0
  8  9  1  0  0  0  0
  8 11  1  0  0  0  0
  9 10  2  0  0  0  0
 11 12  1  0  0  0  0
 12 13  2  0  0  0  0
M  END
>  <CHROM.1>
9.36173270,3.78784575,36.39771140,0.78107963,0.73746133,-2.82525079

>  <Name>
1o15_lig

>  <RI>
0

>  <Rbt.Current_Directory>
/home/itssahil/PROJECTS/Mol_Feturizer/New_Systems/rnas/1o15

>  <Rbt.Executable>
rbdock ($Id: //depot/dev/client3/rdock/2013.1/src/exe/rbdock.cxx#4 $)

>  <Rbt.Library>
libRbt.so (2013.1, Build901 2013/11/27)

>  <Rbt.Parameter_File>
/export/apps/rDock/src/rDock_2013.1_src/data/scripts/dock_solv.prm

>  <Rbt.Receptor>
prm/pocket_docking_8.prm

>  <SCORE>
-22.7791

>  <SCORE.INTER>
-22.7791

>  <SCORE.INTER.CONST>
1

>  <SCORE.INTER.POLAR>
-2.13336

>  <SCORE.INTER.ROT>
0

>  <SCORE.INTER.SOLV>
5.63025

>  <SCORE.INTER.VDW>
-13.5516

>  <SCORE.INTER.norm>
-1.75224

>  <SCORE.INTRA>
0

>  <SCORE.INTRA.DIHEDRAL>
0

>  <SCORE.INTRA.DIHEDRAL.0>
0

>  <SCORE.INTRA.POLAR>
0

>  <SCORE.INTRA.POLAR.0>
0

>  <SCORE.INTRA.REPUL>
0

>  <SCORE.INTRA.REPUL.0>
0

>  <SCORE.INTRA.SOLV>
0

>  <SCORE.INTRA.SOLV.lig_0>
-12.9184

>  <SCORE.INTRA.VDW>
0

>  <SCORE.INTRA.VDW.0>
0

>  <SCORE.INTRA.norm>
0

>  <SCORE.RESTR>
0

>  <SCORE.RESTR.CAVITY>
0

>  <SCORE.RESTR.norm>
0

>  <SCORE.SYSTEM>
0

>  <SCORE.SYSTEM.CONST>
0

>  <SCORE.SYSTEM.DIHEDRAL>
0

>  <SCORE.SYSTEM.SOLV>
0

>  <SCORE.SYSTEM.norm>
0

>  <SCORE.heavy>
13

>  <SCORE.norm>
-1.75224

>  <RMSD>
1.169

$$$$
1o15_lig
 OpenBabel11021811403D
libRbt.so/2013.1/901 2013/11/27
 13 14  0  0  0  0  0  0  0  0999 V2000
   10.2182    1.0355   36.3180 C   0  0  0  0  0  0  0  0  0  0  0  0
    9.8080    2.3498   36.3576 N   0  0  0  0  0  0  0  0  0  0  0  0
   10.4365    3.1824   37.2285 C   0  0  0  0  0  0  0  0  0  0  0  0
   11.3218    2.6752   37.9126 O   0  0  0  0  0  0  0  0  0  0  0  0
   10.7979    5.3299   38.2802 C   0  0  0  0  0  0  0  0  0  0  0  0
   10.1454    4.5088   37.3855 N   0  0  0  0  0  0  0  0  0  0  0  0
    9.1458    4.9346   36.5666 C   0  0  0  0  0  0  0  0  0  0  0  0
    8.5240    4.0891   35.6943 C   0  0  0  0  0  0  0  0  0  0  0  0
    8.8150    2.7227   35.5249 C   0  0  0  0  0  0  0  0  0  0  0  0
    8.2965    1.9109   34.7626 O   0  0  0  0  0  0  0  0  0  0  0  0
    7.5736    4.8568   35.0366 N   0  0  0  0  0  0  0  0  0  0  0  0
    7.6852    6.1064   35.5518 C   0  0  0  0  0  0  0  0  0  0  0  0
    8.6069    6.2133   36.4705 N   0  0  0  0  0  0  0  0  0  0  0  0
  1  2  1  0  0  0  0
  2  3  1  0  0  0  0
  2  9  1  0  0  0  0
  3  4  2  0  0  0  0
  3  6  1  0  0  0  0
  6  5  1  0  0  0  0
  6  7  1  0  0  0  0
  7  8  2  0  0  0  0
  7 13  1  0  0  0  0
  8  9  1  0  0  0  0
  8 11  1  0  0  0  0
  9 10  2  0  0  0  0
 11 12  1  0  0  0  0
 12 13  2  0  0  0  0
M  END
>  <CHROM.1>
9.36074508,3.79402124,36.39982561,0.78036968,0.73863244,-2.82501222

>  <Name>
1o15_lig

>  <RI>
0

>  <Rbt.Current_Directory>
/home/itssahil/PROJECTS/Mol_Feturizer/New_Systems/rnas/1o15

>  <Rbt.Executable>
rbdock ($Id: //depot/dev/client3/rdock/2013.1/src/exe/rbdock.cxx#4 $)

>  <Rbt.Library>
libRbt.so (2013.1, Build901 2013/11/27)

>  <Rbt.Parameter_File>
/export/apps/rDock/src/rDock_2013.1_src/data/scripts/dock_solv.prm

>  <Rbt.Receptor>
prm/blind_docking_80.prm

>  <SCORE>
-22.7577

>  <SCORE.INTER>
-22.7577

>  <SCORE.INTER.CONST>
1

>  <SCORE.INTER.POLAR>
-2.13336

>  <SCORE.INTER.ROT>
0

>  <SCORE.INTER.SOLV>
5.63257

>  <SCORE.INTER.VDW>
-13.5381

>  <SCORE.INTER.norm>
-1.75059

>  <SCORE.INTRA>
0

>  <SCORE.INTRA.DIHEDRAL>
0

>  <SCORE.INTRA.DIHEDRAL.0>
0

>  <SCORE.INTRA.POLAR>
0

>  <SCORE.INTRA.POLAR.0>
0

>  <SCORE.INTRA.REPUL>
0

>  <SCORE.INTRA.REPUL.0>
0

>  <SCORE.INTRA.SOLV>
0

>  <SCORE.INTRA.SOLV.lig_0>
-12.9184

>  <SCORE.INTRA.VDW>
0

>  <SCORE.INTRA.VDW.0>
0

>  <SCORE.INTRA.norm>
0

>  <SCORE.RESTR>
0

>  <SCORE.RESTR.CAVITY>
0

>  <SCORE.RESTR.norm>
0

>  <SCORE.SYSTEM>
0

>  <SCORE.SYSTEM.CONST>
0

>  <SCORE.SYSTEM.DIHEDRAL>
0

>  <SCORE.SYSTEM.SOLV>
0

>  <SCORE.SYSTEM.norm>
0

>  <SCORE.heavy>
13

>  <SCORE.norm>
-1.75059

>  <RMSD>
1.171

$$$$
1o15_lig
 OpenBabel11021811403D
libRbt.so/2013.1/901 2013/11/27
 13 14  0  0  0  0  0  0  0  0999 V2000
    8.7535    0.9059   37.4116 C   0  0  0  0  0  0  0  0  0  0  0  0
    8.7033    2.2604   37.1664 N   0  0  0  0  0  0  0  0  0  0  0  0
    9.4097    3.0787   37.9898 C   0  0  0  0  0  0  0  0  0  0  0  0
   10.0324    2.5251   38.8923 O   0  0  0  0  0  0  0  0  0  0  0  0
   10.1843    5.2467   38.7302 C   0  0  0  0  0  0  0  0  0  0  0  0
    9.4610    4.4402   37.8776 N   0  0  0  0  0  0  0  0  0  0  0  0
    8.7252    4.9164   36.8370 C   0  0  0  0  0  0  0  0  0  0  0  0
    8.0220    4.0839   36.0155 C   0  0  0  0  0  0  0  0  0  0  0  0
    7.9616    2.6819   36.1220 C   0  0  0  0  0  0  0  0  0  0  0  0
    7.3516    1.8792   35.4203 O   0  0  0  0  0  0  0  0  0  0  0  0
    7.4024    4.9059   35.0852 N   0  0  0  0  0  0  0  0  0  0  0  0
    7.7714    6.1713   35.4046 C   0  0  0  0  0  0  0  0  0  0  0  0
    8.5603    6.2400   36.4428 N   0  0  0  0  0  0  0  0  0  0  0  0
  1  2  1  0  0  0  0
  2  3  1  0  0  0  0
  2  9  1  0  0  0  0
  3  4  2  0  0  0  0
  3  6  1  0  0  0  0
  6  5  1  0  0  0  0
  6  7  1  0  0  0  0
  7  8  2  0  0  0  0
  7 13  1  0  0  0  0
  8  9  1  0  0  0  0
  8 11  1  0  0  0  0
  9 10  2  0  0  0  0
 11 12  1  0  0  0  0
 12 13  2  0  0  0  0
M  END
>  <CHROM.1>
8.65145417,3.74762408,36.89624273,1.13485879,0.92073288,3.00878809

>  <Name>
1o15_lig

>  <RI>
0

>  <Rbt.Current_Directory>
/home/itssahil/PROJECTS/Mol_Feturizer/New_Systems/rnas/1o15

>  <Rbt.Executable>
rbdock ($Id: //depot/dev/client3/rdock/2013.1/src/exe/rbdock.cxx#4 $)

>  <Rbt.Library>
libRbt.so (2013.1, Build901 2013/11/27)

>  <Rbt.Parameter_File>
/export/apps/rDock/src/rDock_2013.1_src/data/scripts/dock_solv.prm

>  <Rbt.Receptor>
prm/blind_docking_80.prm

>  <SCORE>
-23.3404

>  <SCORE.INTER>
-23.3404

>  <SCORE.INTER.CONST>
1

>  <SCORE.INTER.POLAR>
-2.12843

>  <SCORE.INTER.ROT>
0

>  <SCORE.INTER.SOLV>
7.3734

>  <SCORE.INTER.VDW>
-14.5233

>  <SCORE.INTER.norm>
-1.79542

>  <SCORE.INTRA>
0

>  <SCORE.INTRA.DIHEDRAL>
0

>  <SCORE.INTRA.DIHEDRAL.0>
0

>  <SCORE.INTRA.POLAR>
0

>  <SCORE.INTRA.POLAR.0>
0

>  <SCORE.INTRA.REPUL>
0

>  <SCORE.INTRA.REPUL.0>
0

>  <SCORE.INTRA.SOLV>
0

>  <SCORE.INTRA.SOLV.lig_0>
-12.9184

>  <SCORE.INTRA.VDW>
0

>  <SCORE.INTRA.VDW.0>
0

>  <SCORE.INTRA.norm>
0

>  <SCORE.RESTR>
0

>  <SCORE.RESTR.CAVITY>
0

>  <SCORE.RESTR.norm>
0

>  <SCORE.SYSTEM>
0

>  <SCORE.SYSTEM.CONST>
0

>  <SCORE.SYSTEM.DIHEDRAL>
0

>  <SCORE.SYSTEM.SOLV>
0

>  <SCORE.SYSTEM.norm>
0

>  <SCORE.heavy>
13

>  <SCORE.norm>
-1.79542

>  <RMSD>
1.171

$$$$
1o15_lig
 OpenBabel11021811403D
libRbt.so/2013.1/901 2013/11/27
 13 14  0  0  0  0  0  0  0  0999 V2000
   10.2030    1.0120   36.2904 C   0  0  0  0  0  0  0  0  0  0  0  0
    9.8031    2.3294   36.3347 N   0  0  0  0  0  0  0  0  0  0  0  0
   10.4432    3.1556   37.2031 C   0  0  0  0  0  0  0  0  0  0  0  0
   11.3289    2.6407   37.8808 O   0  0  0  0  0  0  0  0  0  0  0  0
   10.8274    5.2986   38.2560 C   0  0  0  0  0  0  0  0  0  0  0  0
   10.1632    4.4840   37.3640 N   0  0  0  0  0  0  0  0  0  0  0  0
    9.1617    4.9187   36.5521 C   0  0  0  0  0  0  0  0  0  0  0  0
    8.5282    4.0794   35.6823 C   0  0  0  0  0  0  0  0  0  0  0  0
    8.8077    2.7111   35.5088 C   0  0  0  0  0  0  0  0  0  0  0  0
    8.2784    1.9046   34.7484 O   0  0  0  0  0  0  0  0  0  0  0  0
    7.5796    4.8553   35.0317 N   0  0  0  0  0  0  0  0  0  0  0  0
    7.7038    6.1033   35.5483 C   0  0  0  0  0  0  0  0  0  0  0  0
    8.6320    6.2016   36.4614 N   0  0  0  0  0  0  0  0  0  0  0  0
  1  2  1  0  0  0  0
  2  3  1  0  0  0  0
  2  9  1  0  0  0  0
  3  4  2  0  0  0  0
  3  6  1  0  0  0  0
  6  5  1  0  0  0  0
  6  7  1  0  0  0  0
  7  8  2  0  0  0  0
  7 13  1  0  0  0  0
  8  9  1  0  0  0  0
  8 11  1  0  0  0  0
  9 10  2  0  0  0  0
 11 12  1  0  0  0  0
 12 13  2  0  0  0  0
M  END
>  <CHROM.1>
9.36701966,3.77681060,36.38206666,0.79267999,0.73503930,-2.83162663

>  <Name>
1o15_lig

>  <RI>
0

>  <Rbt.Current_Directory>
/home/itssahil/PROJECTS/Mol_Feturizer/New_Systems/rnas/1o15

>  <Rbt.Executable>
rbdock ($Id: //depot/dev/client3/rdock/2013.1/src/exe/rbdock.cxx#4 $)

>  <Rbt.Library>
libRbt.so (2013.1, Build901 2013/11/27)

>  <Rbt.Parameter_File>
/export/apps/rDock/src/rDock_2013.1_src/data/scripts/dock_solv.prm

>  <Rbt.Receptor>
prm/pocket_docking_3.prm

>  <SCORE>
-22.7513

>  <SCORE.INTER>
-22.7513

>  <SCORE.INTER.CONST>
1

>  <SCORE.INTER.POLAR>
-2.13208

>  <SCORE.INTER.ROT>
0

>  <SCORE.INTER.SOLV>
5.61939

>  <SCORE.INTER.VDW>
-13.5337

>  <SCORE.INTER.norm>
-1.7501

>  <SCORE.INTRA>
0

>  <SCORE.INTRA.DIHEDRAL>
0

>  <SCORE.INTRA.DIHEDRAL.0>
0

>  <SCORE.INTRA.POLAR>
0

>  <SCORE.INTRA.POLAR.0>
0

>  <SCORE.INTRA.REPUL>
0

>  <SCORE.INTRA.REPUL.0>
0

>  <SCORE.INTRA.SOLV>
0

>  <SCORE.INTRA.SOLV.lig_0>
-12.9184

>  <SCORE.INTRA.VDW>
0

>  <SCORE.INTRA.VDW.0>
0

>  <SCORE.INTRA.norm>
0

>  <SCORE.RESTR>
0

>  <SCORE.RESTR.CAVITY>
0

>  <SCORE.RESTR.norm>
0

>  <SCORE.SYSTEM>
0

>  <SCORE.SYSTEM.CONST>
0

>  <SCORE.SYSTEM.DIHEDRAL>
0

>  <SCORE.SYSTEM.SOLV>
0

>  <SCORE.SYSTEM.norm>
0

>  <SCORE.heavy>
13

>  <SCORE.norm>
-1.7501

>  <RMSD>
1.171

$$$$
1o15_lig
 OpenBabel11021811403D
libRbt.so/2013.1/901 2013/11/27
 13 14  0  0  0  0  0  0  0  0999 V2000
   10.2031    1.0542   36.3667 C   0  0  0  0  0  0  0  0  0  0  0  0
    9.7857    2.3666   36.3914 N   0  0  0  0  0  0  0  0  0  0  0  0
   10.4061    3.2113   37.2566 C   0  0  0  0  0  0  0  0  0  0  0  0
   11.2913    2.7158   37.9493 O   0  0  0  0  0  0  0  0  0  0  0  0
   10.7516    5.3711   38.2881 C   0  0  0  0  0  0  0  0  0  0  0  0
   10.1072    4.5376   37.3990 N   0  0  0  0  0  0  0  0  0  0  0  0
    9.1088    4.9498   36.5718 C   0  0  0  0  0  0  0  0  0  0  0  0
    8.4952    4.0922   35.7055 C   0  0  0  0  0  0  0  0  0  0  0  0
    8.7942    2.7257   35.5510 C   0  0  0  0  0  0  0  0  0  0  0  0
    8.2833    1.9036   34.7948 O   0  0  0  0  0  0  0  0  0  0  0  0
    7.5434    4.8481   35.0362 N   0  0  0  0  0  0  0  0  0  0  0  0
    7.6462    6.1034   35.5393 C   0  0  0  0  0  0  0  0  0  0  0  0
    8.5634    6.2244   36.4606 N   0  0  0  0  0  0  0  0  0  0  0  0
  1  2  1  0  0  0  0
  2  3  1  0  0  0  0
  2  9  1  0  0  0  0
  3  4  2  0  0  0  0
  3  6  1  0  0  0  0
  6  5  1  0  0  0  0
  6  7  1  0  0  0  0
  7  8  2  0  0  0  0
  7 13  1  0  0  0  0
  8  9  1  0  0  0  0
  8 11  1  0  0  0  0
  9 10  2  0  0  0  0
 11 12  1  0  0  0  0
 12 13  2  0  0  0  0
M  END
>  <CHROM.1>
9.33055679,3.80874196,36.41735698,0.77169294,0.74088227,-2.82920302

>  <Name>
1o15_lig

>  <RI>
0

>  <Rbt.Current_Directory>
/home/itssahil/PROJECTS/Mol_Feturizer/New_Systems/rnas/1o15

>  <Rbt.Executable>
rbdock ($Id: //depot/dev/client3/rdock/2013.1/src/exe/rbdock.cxx#4 $)

>  <Rbt.Library>
libRbt.so (2013.1, Build901 2013/11/27)

>  <Rbt.Parameter_File>
/export/apps/rDock/src/rDock_2013.1_src/data/scripts/dock_solv.prm

>  <Rbt.Receptor>
prm/pocket_docking_4.prm

>  <SCORE>
-22.7421

>  <SCORE.INTER>
-22.7421

>  <SCORE.INTER.CONST>
1

>  <SCORE.INTER.POLAR>
-2.11418

>  <SCORE.INTER.ROT>
0

>  <SCORE.INTER.SOLV>
5.67884

>  <SCORE.INTER.VDW>
-13.6071

>  <SCORE.INTER.norm>
-1.74939

>  <SCORE.INTRA>
0

>  <SCORE.INTRA.DIHEDRAL>
0

>  <SCORE.INTRA.DIHEDRAL.0>
0

>  <SCORE.INTRA.POLAR>
0

>  <SCORE.INTRA.POLAR.0>
0

>  <SCORE.INTRA.REPUL>
0

>  <SCORE.INTRA.REPUL.0>
0

>  <SCORE.INTRA.SOLV>
0

>  <SCORE.INTRA.SOLV.lig_0>
-12.9184

>  <SCORE.INTRA.VDW>
0

>  <SCORE.INTRA.VDW.0>
0

>  <SCORE.INTRA.norm>
0

>  <SCORE.RESTR>
0

>  <SCORE.RESTR.CAVITY>
0

>  <SCORE.RESTR.norm>
0

>  <SCORE.SYSTEM>
0

>  <SCORE.SYSTEM.CONST>
0

>  <SCORE.SYSTEM.DIHEDRAL>
0

>  <SCORE.SYSTEM.SOLV>
0

>  <SCORE.SYSTEM.norm>
0

>  <SCORE.heavy>
13

>  <SCORE.norm>
-1.74939

>  <RMSD>
1.171

$$$$
1o15_lig
 OpenBabel11021811403D
libRbt.so/2013.1/901 2013/11/27
 13 14  0  0  0  0  0  0  0  0999 V2000
    8.7513    0.9237   37.4843 C   0  0  0  0  0  0  0  0  0  0  0  0
    8.6996    2.2744   37.2191 N   0  0  0  0  0  0  0  0  0  0  0  0
    9.3999    3.1061   38.0343 C   0  0  0  0  0  0  0  0  0  0  0  0
   10.0189    2.5669   38.9481 O   0  0  0  0  0  0  0  0  0  0  0  0
   10.1661    5.2862   38.7472 C   0  0  0  0  0  0  0  0  0  0  0  0
    9.4491    4.4659   37.9026 N   0  0  0  0  0  0  0  0  0  0  0  0
    8.7180    4.9254   36.8512 C   0  0  0  0  0  0  0  0  0  0  0  0
    8.0208    4.0795   36.0382 C   0  0  0  0  0  0  0  0  0  0  0  0
    7.9627    2.6791   36.1648 C   0  0  0  0  0  0  0  0  0  0  0  0
    7.3581    1.8650   35.4715 O   0  0  0  0  0  0  0  0  0  0  0  0
    7.4046    4.8866   35.0928 N   0  0  0  0  0  0  0  0  0  0  0  0
    7.7694    6.1574   35.3957 C   0  0  0  0  0  0  0  0  0  0  0  0
    8.5525    6.2428   36.4370 N   0  0  0  0  0  0  0  0  0  0  0  0
  1  2  1  0  0  0  0
  2  3  1  0  0  0  0
  2  9  1  0  0  0  0
  3  4  2  0  0  0  0
  3  6  1  0  0  0  0
  6  5  1  0  0  0  0
  6  7  1  0  0  0  0
  7  8  2  0  0  0  0
  7 13  1  0  0  0  0
  8  9  1  0  0  0  0
  8 11  1  0  0  0  0
  9 10  2  0  0  0  0
 11 12  1  0  0  0  0
 12 13  2  0  0  0  0
M  END
>  <CHROM.1>
8.64624666,3.75743071,36.92710148,1.13271091,0.92634023,2.99596432

>  <Name>
1o15_lig

>  <RI>
0

>  <Rbt.Current_Directory>
/home/itssahil/PROJECTS/Mol_Feturizer/New_Systems/rnas/1o15

>  <Rbt.Executable>
rbdock ($Id: //depot/dev/client3/rdock/2013.1/src/exe/rbdock.cxx#4 $)

>  <Rbt.Library>
libRbt.so (2013.1, Build901 2013/11/27)

>  <Rbt.Parameter_File>
/export/apps/rDock/src/rDock_2013.1_src/data/scripts/dock_solv.prm

>  <Rbt.Receptor>
prm/blind_docking_80.prm

>  <SCORE>
-23.3186

>  <SCORE.INTER>
-23.3186

>  <SCORE.INTER.CONST>
1

>  <SCORE.INTER.POLAR>
-2.11469

>  <SCORE.INTER.ROT>
0

>  <SCORE.INTER.SOLV>
7.46899

>  <SCORE.INTER.VDW>
-14.5865

>  <SCORE.INTER.norm>
-1.79374

>  <SCORE.INTRA>
0

>  <SCORE.INTRA.DIHEDRAL>
0

>  <SCORE.INTRA.DIHEDRAL.0>
0

>  <SCORE.INTRA.POLAR>
0

>  <SCORE.INTRA.POLAR.0>
0

>  <SCORE.INTRA.REPUL>
0

>  <SCORE.INTRA.REPUL.0>
0

>  <SCORE.INTRA.SOLV>
0

>  <SCORE.INTRA.SOLV.lig_0>
-12.9184

>  <SCORE.INTRA.VDW>
0

>  <SCORE.INTRA.VDW.0>
0

>  <SCORE.INTRA.norm>
0

>  <SCORE.RESTR>
0

>  <SCORE.RESTR.CAVITY>
0

>  <SCORE.RESTR.norm>
0

>  <SCORE.SYSTEM>
0

>  <SCORE.SYSTEM.CONST>
0

>  <SCORE.SYSTEM.DIHEDRAL>
0

>  <SCORE.SYSTEM.SOLV>
0

>  <SCORE.SYSTEM.norm>
0

>  <SCORE.heavy>
13

>  <SCORE.norm>
-1.79374

>  <RMSD>
1.172

$$$$
1o15_lig
 OpenBabel11021811403D
libRbt.so/2013.1/901 2013/11/27
 13 14  0  0  0  0  0  0  0  0999 V2000
   10.1838    1.0266   36.3251 C   0  0  0  0  0  0  0  0  0  0  0  0
    9.7763    2.3420   36.3588 N   0  0  0  0  0  0  0  0  0  0  0  0
   10.4108    3.1786   37.2214 C   0  0  0  0  0  0  0  0  0  0  0  0
   11.2986    2.6739   37.9040 O   0  0  0  0  0  0  0  0  0  0  0  0
   10.7816    5.3317   38.2582 C   0  0  0  0  0  0  0  0  0  0  0  0
   10.1230    4.5065   37.3718 N   0  0  0  0  0  0  0  0  0  0  0  0
    9.1200    4.9292   36.5555 C   0  0  0  0  0  0  0  0  0  0  0  0
    8.4922    4.0796   35.6915 C   0  0  0  0  0  0  0  0  0  0  0  0
    8.7797    2.7116   35.5290 C   0  0  0  0  0  0  0  0  0  0  0  0
    8.2559    1.8963   34.7742 O   0  0  0  0  0  0  0  0  0  0  0  0
    7.5399    4.8451   35.0340 N   0  0  0  0  0  0  0  0  0  0  0  0
    7.6565    6.0977   35.5411 C   0  0  0  0  0  0  0  0  0  0  0  0
    8.5830    6.2083   36.4543 N   0  0  0  0  0  0  0  0  0  0  0  0
  1  2  1  0  0  0  0
  2  3  1  0  0  0  0
  2  9  1  0  0  0  0
  3  4  2  0  0  0  0
  3  6  1  0  0  0  0
  6  5  1  0  0  0  0
  6  7  1  0  0  0  0
  7  8  2  0  0  0  0
  7 13  1  0  0  0  0
  8  9  1  0  0  0  0
  8 11  1  0  0  0  0
  9 10  2  0  0  0  0
 11 12  1  0  0  0  0
 12 13  2  0  0  0  0
M  END
>  <CHROM.1>
9.33197785,3.78724119,36.39453297,0.78491241,0.73434669,-2.83413403

>  <Name>
1o15_lig

>  <RI>
0

>  <Rbt.Current_Directory>
/home/itssahil/PROJECTS/Mol_Feturizer/New_Systems/rnas/1o15

>  <Rbt.Executable>
rbdock ($Id: //depot/dev/client3/rdock/2013.1/src/exe/rbdock.cxx#4 $)

>  <Rbt.Library>
libRbt.so (2013.1, Build901 2013/11/27)

>  <Rbt.Parameter_File>
/export/apps/rDock/src/rDock_2013.1_src/data/scripts/dock_solv.prm

>  <Rbt.Receptor>
prm/blind_docking_80.prm

>  <SCORE>
-22.7564

>  <SCORE.INTER>
-22.7564

>  <SCORE.INTER.CONST>
1

>  <SCORE.INTER.POLAR>
-2.10558

>  <SCORE.INTER.ROT>
0

>  <SCORE.INTER.SOLV>
5.68536

>  <SCORE.INTER.VDW>
-13.6474

>  <SCORE.INTER.norm>
-1.75049

>  <SCORE.INTRA>
0

>  <SCORE.INTRA.DIHEDRAL>
0

>  <SCORE.INTRA.DIHEDRAL.0>
0

>  <SCORE.INTRA.POLAR>
0

>  <SCORE.INTRA.POLAR.0>
0

>  <SCORE.INTRA.REPUL>
0

>  <SCORE.INTRA.REPUL.0>
0

>  <SCORE.INTRA.SOLV>
0

>  <SCORE.INTRA.SOLV.lig_0>
-12.9184

>  <SCORE.INTRA.VDW>
0

>  <SCORE.INTRA.VDW.0>
0

>  <SCORE.INTRA.norm>
0

>  <SCORE.RESTR>
0

>  <SCORE.RESTR.CAVITY>
0

>  <SCORE.RESTR.norm>
0

>  <SCORE.SYSTEM>
0

>  <SCORE.SYSTEM.CONST>
0

>  <SCORE.SYSTEM.DIHEDRAL>
0

>  <SCORE.SYSTEM.SOLV>
0

>  <SCORE.SYSTEM.norm>
0

>  <SCORE.heavy>
13

>  <SCORE.norm>
-1.75049

>  <RMSD>
1.174

$$$$
1o15_lig
 OpenBabel11021811403D
libRbt.so/2013.1/901 2013/11/27
 13 14  0  0  0  0  0  0  0  0999 V2000
   10.0627    1.0066   36.3230 C   0  0  0  0  0  0  0  0  0  0  0  0
    9.6885    2.3318   36.3593 N   0  0  0  0  0  0  0  0  0  0  0  0
   10.3429    3.1501   37.2246 C   0  0  0  0  0  0  0  0  0  0  0  0
   11.2169    2.6216   37.9071 O   0  0  0  0  0  0  0  0  0  0  0  0
   10.7667    5.2908   38.2668 C   0  0  0  0  0  0  0  0  0  0  0  0
   10.0886    4.4845   37.3778 N   0  0  0  0  0  0  0  0  0  0  0  0
    9.0976    4.9344   36.5612 C   0  0  0  0  0  0  0  0  0  0  0  0
    8.4496    4.1029   35.6946 C   0  0  0  0  0  0  0  0  0  0  0  0
    8.7027    2.7284   35.5292 C   0  0  0  0  0  0  0  0  0  0  0  0
    8.1593    1.9283   34.7719 O   0  0  0  0  0  0  0  0  0  0  0  0
    7.5178    4.8937   35.0377 N   0  0  0  0  0  0  0  0  0  0  0  0
    7.6654    6.1417   35.5478 C   0  0  0  0  0  0  0  0  0  0  0  0
    8.5933    6.2268   36.4624 N   0  0  0  0  0  0  0  0  0  0  0  0
  1  2  1  0  0  0  0
  2  3  1  0  0  0  0
  2  9  1  0  0  0  0
  3  4  2  0  0  0  0
  3  6  1  0  0  0  0
  6  5  1  0  0  0  0
  6  7  1  0  0  0  0
  7  8  2  0  0  0  0
  7 13  1  0  0  0  0
  8  9  1  0  0  0  0
  8 11  1  0  0  0  0
  9 10  2  0  0  0  0
 11 12  1  0  0  0  0
 12 13  2  0  0  0  0
M  END
>  <CHROM.1>
9.28085772,3.78776572,36.39787779,0.81712655,0.74291514,-2.85352189

>  <Name>
1o15_lig

>  <RI>
0

>  <Rbt.Current_Directory>
/home/itssahil/PROJECTS/Mol_Feturizer/New_Systems/rnas/1o15

>  <Rbt.Executable>
rbdock ($Id: //depot/dev/client3/rdock/2013.1/src/exe/rbdock.cxx#4 $)

>  <Rbt.Library>
libRbt.so (2013.1, Build901 2013/11/27)

>  <Rbt.Parameter_File>
/export/apps/rDock/src/rDock_2013.1_src/data/scripts/dock_solv.prm

>  <Rbt.Receptor>
prm/pocket_docking_6.prm

>  <SCORE>
-22.698

>  <SCORE.INTER>
-22.698

>  <SCORE.INTER.CONST>
1

>  <SCORE.INTER.POLAR>
-2.10333

>  <SCORE.INTER.ROT>
0

>  <SCORE.INTER.SOLV>
5.68041

>  <SCORE.INTER.VDW>
-13.6144

>  <SCORE.INTER.norm>
-1.746

>  <SCORE.INTRA>
0

>  <SCORE.INTRA.DIHEDRAL>
0

>  <SCORE.INTRA.DIHEDRAL.0>
0

>  <SCORE.INTRA.POLAR>
0

>  <SCORE.INTRA.POLAR.0>
0

>  <SCORE.INTRA.REPUL>
0

>  <SCORE.INTRA.REPUL.0>
0

>  <SCORE.INTRA.SOLV>
0

>  <SCORE.INTRA.SOLV.lig_0>
-12.9184

>  <SCORE.INTRA.VDW>
0

>  <SCORE.INTRA.VDW.0>
0

>  <SCORE.INTRA.norm>
0

>  <SCORE.RESTR>
0

>  <SCORE.RESTR.CAVITY>
0

>  <SCORE.RESTR.norm>
0

>  <SCORE.SYSTEM>
0

>  <SCORE.SYSTEM.CONST>
0

>  <SCORE.SYSTEM.DIHEDRAL>
0

>  <SCORE.SYSTEM.SOLV>
0

>  <SCORE.SYSTEM.norm>
0

>  <SCORE.heavy>
13

>  <SCORE.norm>
-1.746

>  <RMSD>
1.175

$$$$
1o15_lig
 OpenBabel11021811403D
libRbt.so/2013.1/901 2013/11/27
 13 14  0  0  0  0  0  0  0  0999 V2000
   10.4309    0.7172   36.0238 C   0  0  0  0  0  0  0  0  0  0  0  0
   10.0740    2.0447   36.1122 N   0  0  0  0  0  0  0  0  0  0  0  0
   10.7763    2.8325   36.9681 C   0  0  0  0  0  0  0  0  0  0  0  0
   11.6742    2.2769   37.5957 O   0  0  0  0  0  0  0  0  0  0  0  0
   11.2715    4.9399   38.0462 C   0  0  0  0  0  0  0  0  0  0  0  0
   10.5445    4.1649   37.1681 N   0  0  0  0  0  0  0  0  0  0  0  0
    9.5227    4.6468   36.4099 C   0  0  0  0  0  0  0  0  0  0  0  0
    8.8265    3.8457   35.5519 C   0  0  0  0  0  0  0  0  0  0  0  0
    9.0560    2.4736   35.3388 C   0  0  0  0  0  0  0  0  0  0  0  0
    8.4697    1.6999   34.5862 O   0  0  0  0  0  0  0  0  0  0  0  0
    7.8750    4.6634   34.9596 N   0  0  0  0  0  0  0  0  0  0  0  0
    8.0599    5.8957   35.4953 C   0  0  0  0  0  0  0  0  0  0  0  0
    9.0293    5.9465   36.3685 N   0  0  0  0  0  0  0  0  0  0  0  0
  1  2  1  0  0  0  0
  2  3  1  0  0  0  0
  2  9  1  0  0  0  0
  3  4  2  0  0  0  0
  3  6  1  0  0  0  0
  6  5  1  0  0  0  0
  6  7  1  0  0  0  0
  7  8  2  0  0  0  0
  7 13  1  0  0  0  0
  8  9  1  0  0  0  0
  8 11  1  0  0  0  0
  9 10  2  0  0  0  0
 11 12  1  0  0  0  0
 12 13  2  0  0  0  0
M  END
>  <CHROM.1>
9.68519315,3.50314126,36.20795340,0.84844699,0.70238738,-2.84746929

>  <Name>
1o15_lig

>  <RI>
0

>  <Rbt.Current_Directory>
/home/itssahil/PROJECTS/Mol_Feturizer/New_Systems/rnas/1o15

>  <Rbt.Executable>
rbdock ($Id: //depot/dev/client3/rdock/2013.1/src/exe/rbdock.cxx#4 $)

>  <Rbt.Library>
libRbt.so (2013.1, Build901 2013/11/27)

>  <Rbt.Parameter_File>
/export/apps/rDock/src/rDock_2013.1_src/data/scripts/dock_solv.prm

>  <Rbt.Receptor>
prm/blind_docking_80.prm

>  <SCORE>
-22.396

>  <SCORE.INTER>
-22.396

>  <SCORE.INTER.CONST>
1

>  <SCORE.INTER.POLAR>
-2.13336

>  <SCORE.INTER.ROT>
0

>  <SCORE.INTER.SOLV>
5.50184

>  <SCORE.INTER.VDW>
-13.2534

>  <SCORE.INTER.norm>
-1.72277

>  <SCORE.INTRA>
0

>  <SCORE.INTRA.DIHEDRAL>
0

>  <SCORE.INTRA.DIHEDRAL.0>
0

>  <SCORE.INTRA.POLAR>
0

>  <SCORE.INTRA.POLAR.0>
0

>  <SCORE.INTRA.REPUL>
0

>  <SCORE.INTRA.REPUL.0>
0

>  <SCORE.INTRA.SOLV>
0

>  <SCORE.INTRA.SOLV.lig_0>
-12.9184

>  <SCORE.INTRA.VDW>
0

>  <SCORE.INTRA.VDW.0>
0

>  <SCORE.INTRA.norm>
0

>  <SCORE.RESTR>
0

>  <SCORE.RESTR.CAVITY>
0

>  <SCORE.RESTR.norm>
0

>  <SCORE.SYSTEM>
0

>  <SCORE.SYSTEM.CONST>
0

>  <SCORE.SYSTEM.DIHEDRAL>
0

>  <SCORE.SYSTEM.SOLV>
0

>  <SCORE.SYSTEM.norm>
0

>  <SCORE.heavy>
13

>  <SCORE.norm>
-1.72277

>  <RMSD>
1.181

$$$$
1o15_lig
 OpenBabel11021811403D
libRbt.so/2013.1/901 2013/11/27
 13 14  0  0  0  0  0  0  0  0999 V2000
   10.3786    0.6388   36.0543 C   0  0  0  0  0  0  0  0  0  0  0  0
   10.0637    1.9788   36.1060 N   0  0  0  0  0  0  0  0  0  0  0  0
   10.8136    2.7737   36.9137 C   0  0  0  0  0  0  0  0  0  0  0  0
   11.7126    2.2128   37.5350 O   0  0  0  0  0  0  0  0  0  0  0  0
   11.4019    4.9007   37.9029 C   0  0  0  0  0  0  0  0  0  0  0  0
   10.6271    4.1186   37.0732 N   0  0  0  0  0  0  0  0  0  0  0  0
    9.5983    4.6051   36.3275 C   0  0  0  0  0  0  0  0  0  0  0  0
    8.8541    3.7967   35.5181 C   0  0  0  0  0  0  0  0  0  0  0  0
    9.0368    2.4118   35.3469 C   0  0  0  0  0  0  0  0  0  0  0  0
    8.4063    1.6309   34.6387 O   0  0  0  0  0  0  0  0  0  0  0  0
    7.9103    4.6223   34.9243 N   0  0  0  0  0  0  0  0  0  0  0  0
    8.1469    5.8660   35.4110 C   0  0  0  0  0  0  0  0  0  0  0  0
    9.1424    5.9171   36.2544 N   0  0  0  0  0  0  0  0  0  0  0  0
  1  2  1  0  0  0  0
  2  3  1  0  0  0  0
  2  9  1  0  0  0  0
  3  4  2  0  0  0  0
  3  6  1  0  0  0  0
  6  5  1  0  0  0  0
  6  7  1  0  0  0  0
  7  8  2  0  0  0  0
  7 13  1  0  0  0  0
  8  9  1  0  0  0  0
  8 11  1  0  0  0  0
  9 10  2  0  0  0  0
 11 12  1  0  0  0  0
 12 13  2  0  0  0  0
M  END
>  <CHROM.1>
9.72105013,3.45083121,36.16137902,0.89568898,0.68251588,-2.91233655

>  <Name>
1o15_lig

>  <RI>
0

>  <Rbt.Current_Directory>
/home/itssahil/PROJECTS/Mol_Feturizer/New_Systems/rnas/1o15

>  <Rbt.Executable>
rbdock ($Id: //depot/dev/client3/rdock/2013.1/src/exe/rbdock.cxx#4 $)

>  <Rbt.Library>
libRbt.so (2013.1, Build901 2013/11/27)

>  <Rbt.Parameter_File>
/export/apps/rDock/src/rDock_2013.1_src/data/scripts/dock_solv.prm

>  <Rbt.Receptor>
prm/blind_docking_80.prm

>  <SCORE>
-22.3724

>  <SCORE.INTER>
-22.3724

>  <SCORE.INTER.CONST>
1

>  <SCORE.INTER.POLAR>
-2.13264

>  <SCORE.INTER.ROT>
0

>  <SCORE.INTER.SOLV>
5.53992

>  <SCORE.INTER.VDW>
-13.2528

>  <SCORE.INTER.norm>
-1.72095

>  <SCORE.INTRA>
0

>  <SCORE.INTRA.DIHEDRAL>
0

>  <SCORE.INTRA.DIHEDRAL.0>
0

>  <SCORE.INTRA.POLAR>
0

>  <SCORE.INTRA.POLAR.0>
0

>  <SCORE.INTRA.REPUL>
0

>  <SCORE.INTRA.REPUL.0>
0

>  <SCORE.INTRA.SOLV>
0

>  <SCORE.INTRA.SOLV.lig_0>
-12.9184

>  <SCORE.INTRA.VDW>
0

>  <SCORE.INTRA.VDW.0>
0

>  <SCORE.INTRA.norm>
0

>  <SCORE.RESTR>
0

>  <SCORE.RESTR.CAVITY>
0

>  <SCORE.RESTR.norm>
0

>  <SCORE.SYSTEM>
0

>  <SCORE.SYSTEM.CONST>
0

>  <SCORE.SYSTEM.DIHEDRAL>
0

>  <SCORE.SYSTEM.SOLV>
0

>  <SCORE.SYSTEM.norm>
0

>  <SCORE.heavy>
13

>  <SCORE.norm>
-1.72095

>  <RMSD>
1.188

$$$$
1o15_lig
 OpenBabel11021811403D
libRbt.so/2013.1/901 2013/11/27
 13 14  0  0  0  0  0  0  0  0999 V2000
   10.2756    0.7070   36.0071 C   0  0  0  0  0  0  0  0  0  0  0  0
    9.9532    2.0433   36.0959 N   0  0  0  0  0  0  0  0  0  0  0  0
   10.6897    2.8169   36.9360 C   0  0  0  0  0  0  0  0  0  0  0  0
   11.5845    2.2416   37.5503 O   0  0  0  0  0  0  0  0  0  0  0  0
   11.2557    4.9156   37.9961 C   0  0  0  0  0  0  0  0  0  0  0  0
   10.4944    4.1554   37.1341 N   0  0  0  0  0  0  0  0  0  0  0  0
    9.4717    4.6594   36.3917 C   0  0  0  0  0  0  0  0  0  0  0  0
    8.7410    3.8724   35.5496 C   0  0  0  0  0  0  0  0  0  0  0  0
    8.9328    2.4943   35.3385 C   0  0  0  0  0  0  0  0  0  0  0  0
    8.3144    1.7323   34.5996 O   0  0  0  0  0  0  0  0  0  0  0  0
    7.7998    4.7112   34.9703 N   0  0  0  0  0  0  0  0  0  0  0  0
    8.0244    5.9406   35.4973 C   0  0  0  0  0  0  0  0  0  0  0  0
    9.0099    5.9708   36.3532 N   0  0  0  0  0  0  0  0  0  0  0  0
  1  2  1  0  0  0  0
  2  3  1  0  0  0  0
  2  9  1  0  0  0  0
  3  4  2  0  0  0  0
  3  6  1  0  0  0  0
  6  5  1  0  0  0  0
  6  7  1  0  0  0  0
  7  8  2  0  0  0  0
  7 13  1  0  0  0  0
  8  9  1  0  0  0  0
  8 11  1  0  0  0  0
  9 10  2  0  0  0  0
 11 12  1  0  0  0  0
 12 13  2  0  0  0  0
M  END
>  <CHROM.1>
9.60233384,3.51134194,36.19203822,0.88577574,0.69243952,-2.87562421

>  <Name>
1o15_lig

>  <RI>
0

>  <Rbt.Current_Directory>
/home/itssahil/PROJECTS/Mol_Feturizer/New_Systems/rnas/1o15

>  <Rbt.Executable>
rbdock ($Id: //depot/dev/client3/rdock/2013.1/src/exe/rbdock.cxx#4 $)

>  <Rbt.Library>
libRbt.so (2013.1, Build901 2013/11/27)

>  <Rbt.Parameter_File>
/export/apps/rDock/src/rDock_2013.1_src/data/scripts/dock_solv.prm

>  <Rbt.Receptor>
prm/pocket_docking_7.prm

>  <SCORE>
-22.503

>  <SCORE.INTER>
-22.503

>  <SCORE.INTER.CONST>
1

>  <SCORE.INTER.POLAR>
-2.13322

>  <SCORE.INTER.ROT>
0

>  <SCORE.INTER.SOLV>
5.51615

>  <SCORE.INTER.VDW>
-13.33

>  <SCORE.INTER.norm>
-1.731

>  <SCORE.INTRA>
0

>  <SCORE.INTRA.DIHEDRAL>
0

>  <SCORE.INTRA.DIHEDRAL.0>
0

>  <SCORE.INTRA.POLAR>
0

>  <SCORE.INTRA.POLAR.0>
0

>  <SCORE.INTRA.REPUL>
0

>  <SCORE.INTRA.REPUL.0>
0

>  <SCORE.INTRA.SOLV>
0

>  <SCORE.INTRA.SOLV.lig_0>
-12.9184

>  <SCORE.INTRA.VDW>
0

>  <SCORE.INTRA.VDW.0>
0

>  <SCORE.INTRA.norm>
0

>  <SCORE.RESTR>
0

>  <SCORE.RESTR.CAVITY>
0

>  <SCORE.RESTR.norm>
0

>  <SCORE.SYSTEM>
0

>  <SCORE.SYSTEM.CONST>
0

>  <SCORE.SYSTEM.DIHEDRAL>
0

>  <SCORE.SYSTEM.SOLV>
0

>  <SCORE.SYSTEM.norm>
0

>  <SCORE.heavy>
13

>  <SCORE.norm>
-1.731

>  <RMSD>
1.188

$$$$
1o15_lig
 OpenBabel11021811403D
libRbt.so/2013.1/901 2013/11/27
 13 14  0  0  0  0  0  0  0  0999 V2000
   10.0687    1.0047   36.2702 C   0  0  0  0  0  0  0  0  0  0  0  0
    9.6955    2.3295   36.3247 N   0  0  0  0  0  0  0  0  0  0  0  0
   10.3486    3.1348   37.2031 C   0  0  0  0  0  0  0  0  0  0  0  0
   11.2207    2.5959   37.8798 O   0  0  0  0  0  0  0  0  0  0  0  0
   10.7718    5.2600   38.2768 C   0  0  0  0  0  0  0  0  0  0  0  0
   10.0949    4.4671   37.3748 N   0  0  0  0  0  0  0  0  0  0  0  0
    9.1060    4.9294   36.5627 C   0  0  0  0  0  0  0  0  0  0  0  0
    8.4593    4.1109   35.6828 C   0  0  0  0  0  0  0  0  0  0  0  0
    8.7117    2.7387   35.4982 C   0  0  0  0  0  0  0  0  0  0  0  0
    8.1693    1.9500   34.7284 O   0  0  0  0  0  0  0  0  0  0  0  0
    7.5295    4.9117   35.0354 N   0  0  0  0  0  0  0  0  0  0  0  0
    7.6769    6.1522   35.5636 C   0  0  0  0  0  0  0  0  0  0  0  0
    8.6029    6.2235   36.4813 N   0  0  0  0  0  0  0  0  0  0  0  0
  1  2  1  0  0  0  0
  2  3  1  0  0  0  0
  2  9  1  0  0  0  0
  3  4  2  0  0  0  0
  3  6  1  0  0  0  0
  6  5  1  0  0  0  0
  6  7  1  0  0  0  0
  7  8  2  0  0  0  0
  7 13  1  0  0  0  0
  8  9  1  0  0  0  0
  8 11  1  0  0  0  0
  9 10  2  0  0  0  0
 11 12  1  0  0  0  0
 12 13  2  0  0  0  0
M  END
>  <CHROM.1>
9.28877795,3.78504708,36.38327545,0.81727241,0.74518686,-2.83927853

>  <Name>
1o15_lig

>  <RI>
0

>  <Rbt.Current_Directory>
/home/itssahil/PROJECTS/Mol_Feturizer/New_Systems/rnas/1o15

>  <Rbt.Executable>
rbdock ($Id: //depot/dev/client3/rdock/2013.1/src/exe/rbdock.cxx#4 $)

>  <Rbt.Library>
libRbt.so (2013.1, Build901 2013/11/27)

>  <Rbt.Parameter_File>
/export/apps/rDock/src/rDock_2013.1_src/data/scripts/dock_solv.prm

>  <Rbt.Receptor>
prm/blind_docking_80.prm

>  <SCORE>
-22.7316

>  <SCORE.INTER>
-22.7316

>  <SCORE.INTER.CONST>
1

>  <SCORE.INTER.POLAR>
-2.12188

>  <SCORE.INTER.ROT>
0

>  <SCORE.INTER.SOLV>
5.69078

>  <SCORE.INTER.VDW>
-13.5784

>  <SCORE.INTER.norm>
-1.74859

>  <SCORE.INTRA>
0

>  <SCORE.INTRA.DIHEDRAL>
0

>  <SCORE.INTRA.DIHEDRAL.0>
0

>  <SCORE.INTRA.POLAR>
0

>  <SCORE.INTRA.POLAR.0>
0

>  <SCORE.INTRA.REPUL>
0

>  <SCORE.INTRA.REPUL.0>
0

>  <SCORE.INTRA.SOLV>
0

>  <SCORE.INTRA.SOLV.lig_0>
-12.9184

>  <SCORE.INTRA.VDW>
0

>  <SCORE.INTRA.VDW.0>
0

>  <SCORE.INTRA.norm>
0

>  <SCORE.RESTR>
0

>  <SCORE.RESTR.CAVITY>
0

>  <SCORE.RESTR.norm>
0

>  <SCORE.SYSTEM>
0

>  <SCORE.SYSTEM.CONST>
0

>  <SCORE.SYSTEM.DIHEDRAL>
0

>  <SCORE.SYSTEM.SOLV>
0

>  <SCORE.SYSTEM.norm>
0

>  <SCORE.heavy>
13

>  <SCORE.norm>
-1.74859

>  <RMSD>
1.189

$$$$
1o15_lig
 OpenBabel11021811403D
libRbt.so/2013.1/901 2013/11/27
 13 14  0  0  0  0  0  0  0  0999 V2000
   10.2594    0.6928   35.9860 C   0  0  0  0  0  0  0  0  0  0  0  0
    9.9406    2.0293   36.0827 N   0  0  0  0  0  0  0  0  0  0  0  0
   10.6794    2.7960   36.9272 C   0  0  0  0  0  0  0  0  0  0  0  0
   11.5727    2.2148   37.5379 O   0  0  0  0  0  0  0  0  0  0  0  0
   11.2511    4.8869   37.9995 C   0  0  0  0  0  0  0  0  0  0  0  0
   10.4877    4.1338   37.1332 N   0  0  0  0  0  0  0  0  0  0  0  0
    9.4662    4.6449   36.3940 C   0  0  0  0  0  0  0  0  0  0  0  0
    8.7332    3.8649   35.5474 C   0  0  0  0  0  0  0  0  0  0  0  0
    8.9213    2.4875   35.3282 C   0  0  0  0  0  0  0  0  0  0  0  0
    8.3007    1.7316   34.5850 O   0  0  0  0  0  0  0  0  0  0  0  0
    7.7941    4.7095   34.9732 N   0  0  0  0  0  0  0  0  0  0  0  0
    8.0221    5.9352   35.5074 C   0  0  0  0  0  0  0  0  0  0  0  0
    9.0079    5.9578   36.3633 N   0  0  0  0  0  0  0  0  0  0  0  0
  1  2  1  0  0  0  0
  2  3  1  0  0  0  0
  2  9  1  0  0  0  0
  3  4  2  0  0  0  0
  3  6  1  0  0  0  0
  6  5  1  0  0  0  0
  6  7  1  0  0  0  0
  7  8  2  0  0  0  0
  7 13  1  0  0  0  0
  8  9  1  0  0  0  0
  8 11  1  0  0  0  0
  9 10  2  0  0  0  0
 11 12  1  0  0  0  0
 12 13  2  0  0  0  0
M  END
>  <CHROM.1>
9.59369935,3.49771908,36.18753862,0.88919790,0.69294398,-2.87193181

>  <Name>
1o15_lig

>  <RI>
0

>  <Rbt.Current_Directory>
/home/itssahil/PROJECTS/Mol_Feturizer/New_Systems/rnas/1o15

>  <Rbt.Executable>
rbdock ($Id: //depot/dev/client3/rdock/2013.1/src/exe/rbdock.cxx#4 $)

>  <Rbt.Library>
libRbt.so (2013.1, Build901 2013/11/27)

>  <Rbt.Parameter_File>
/export/apps/rDock/src/rDock_2013.1_src/data/scripts/dock_solv.prm

>  <Rbt.Receptor>
prm/pocket_docking_3.prm

>  <SCORE>
-22.4843

>  <SCORE.INTER>
-22.4843

>  <SCORE.INTER.CONST>
1

>  <SCORE.INTER.POLAR>
-2.13306

>  <SCORE.INTER.ROT>
0

>  <SCORE.INTER.SOLV>
5.51846

>  <SCORE.INTER.VDW>
-13.3188

>  <SCORE.INTER.norm>
-1.72956

>  <SCORE.INTRA>
0

>  <SCORE.INTRA.DIHEDRAL>
0

>  <SCORE.INTRA.DIHEDRAL.0>
0

>  <SCORE.INTRA.POLAR>
0

>  <SCORE.INTRA.POLAR.0>
0

>  <SCORE.INTRA.REPUL>
0

>  <SCORE.INTRA.REPUL.0>
0

>  <SCORE.INTRA.SOLV>
0

>  <SCORE.INTRA.SOLV.lig_0>
-12.9184

>  <SCORE.INTRA.VDW>
0

>  <SCORE.INTRA.VDW.0>
0

>  <SCORE.INTRA.norm>
0

>  <SCORE.RESTR>
0

>  <SCORE.RESTR.CAVITY>
0

>  <SCORE.RESTR.norm>
0

>  <SCORE.SYSTEM>
0

>  <SCORE.SYSTEM.CONST>
0

>  <SCORE.SYSTEM.DIHEDRAL>
0

>  <SCORE.SYSTEM.SOLV>
0

>  <SCORE.SYSTEM.norm>
0

>  <SCORE.heavy>
13

>  <SCORE.norm>
-1.72956

>  <RMSD>
1.191

$$$$
1o15_lig
 OpenBabel11021811403D
libRbt.so/2013.1/901 2013/11/27
 13 14  0  0  0  0  0  0  0  0999 V2000
   10.1923    1.0346   36.2763 C   0  0  0  0  0  0  0  0  0  0  0  0
    9.7815    2.3484   36.3277 N   0  0  0  0  0  0  0  0  0  0  0  0
   10.4164    3.1758   37.1989 C   0  0  0  0  0  0  0  0  0  0  0  0
   11.3077    2.6650   37.8723 O   0  0  0  0  0  0  0  0  0  0  0  0
   10.7848    5.3168   38.2613 C   0  0  0  0  0  0  0  0  0  0  0  0
   10.1256    4.5010   37.3668 N   0  0  0  0  0  0  0  0  0  0  0  0
    9.1189    4.9312   36.5589 C   0  0  0  0  0  0  0  0  0  0  0  0
    8.4907    4.0908   35.6863 C   0  0  0  0  0  0  0  0  0  0  0  0
    8.7813    2.7257   35.5057 C   0  0  0  0  0  0  0  0  0  0  0  0
    8.2573    1.9184   34.7424 O   0  0  0  0  0  0  0  0  0  0  0  0
    7.5343    4.8619   35.0413 N   0  0  0  0  0  0  0  0  0  0  0  0
    7.6492    6.1083   35.5637 C   0  0  0  0  0  0  0  0  0  0  0  0
    8.5783    6.2100   36.4754 N   0  0  0  0  0  0  0  0  0  0  0  0
  1  2  1  0  0  0  0
  2  3  1  0  0  0  0
  2  9  1  0  0  0  0
  3  4  2  0  0  0  0
  3  6  1  0  0  0  0
  6  5  1  0  0  0  0
  6  7  1  0  0  0  0
  7  8  2  0  0  0  0
  7 13  1  0  0  0  0
  8  9  1  0  0  0  0
  8 11  1  0  0  0  0
  9 10  2  0  0  0  0
 11 12  1  0  0  0  0
 12 13  2  0  0  0  0
M  END
>  <CHROM.1>
9.33342341,3.79187639,36.38296497,0.78280103,0.73057041,-2.82020769

>  <Name>
1o15_lig

>  <RI>
0

>  <Rbt.Current_Directory>
/home/itssahil/PROJECTS/Mol_Feturizer/New_Systems/rnas/1o15

>  <Rbt.Executable>
rbdock ($Id: //depot/dev/client3/rdock/2013.1/src/exe/rbdock.cxx#4 $)

>  <Rbt.Library>
libRbt.so (2013.1, Build901 2013/11/27)

>  <Rbt.Parameter_File>
/export/apps/rDock/src/rDock_2013.1_src/data/scripts/dock_solv.prm

>  <Rbt.Receptor>
prm/pocket_docking_3.prm

>  <SCORE>
-22.7468

>  <SCORE.INTER>
-22.7468

>  <SCORE.INTER.CONST>
1

>  <SCORE.INTER.POLAR>
-2.10663

>  <SCORE.INTER.ROT>
0

>  <SCORE.INTER.SOLV>
5.74469

>  <SCORE.INTER.VDW>
-13.6573

>  <SCORE.INTER.norm>
-1.74975

>  <SCORE.INTRA>
0

>  <SCORE.INTRA.DIHEDRAL>
0

>  <SCORE.INTRA.DIHEDRAL.0>
0

>  <SCORE.INTRA.POLAR>
0

>  <SCORE.INTRA.POLAR.0>
0

>  <SCORE.INTRA.REPUL>
0

>  <SCORE.INTRA.REPUL.0>
0

>  <SCORE.INTRA.SOLV>
0

>  <SCORE.INTRA.SOLV.lig_0>
-12.9184

>  <SCORE.INTRA.VDW>
0

>  <SCORE.INTRA.VDW.0>
0

>  <SCORE.INTRA.norm>
0

>  <SCORE.RESTR>
0

>  <SCORE.RESTR.CAVITY>
0

>  <SCORE.RESTR.norm>
0

>  <SCORE.SYSTEM>
0

>  <SCORE.SYSTEM.CONST>
0

>  <SCORE.SYSTEM.DIHEDRAL>
0

>  <SCORE.SYSTEM.SOLV>
0

>  <SCORE.SYSTEM.norm>
0

>  <SCORE.heavy>
13

>  <SCORE.norm>
-1.74975

>  <RMSD>
1.192

$$$$
1o15_lig
 OpenBabel11021811403D
libRbt.so/2013.1/901 2013/11/27
 13 14  0  0  0  0  0  0  0  0999 V2000
   10.3046    0.7173   36.0004 C   0  0  0  0  0  0  0  0  0  0  0  0
    9.9706    2.0505   36.0934 N   0  0  0  0  0  0  0  0  0  0  0  0
   10.6992    2.8274   36.9374 C   0  0  0  0  0  0  0  0  0  0  0  0
   11.5979    2.2576   37.5511 O   0  0  0  0  0  0  0  0  0  0  0  0
   11.2455    4.9271   38.0057 C   0  0  0  0  0  0  0  0  0  0  0  0
   10.4921    4.1634   37.1399 N   0  0  0  0  0  0  0  0  0  0  0  0
    9.4663    4.6613   36.3976 C   0  0  0  0  0  0  0  0  0  0  0  0
    8.7437    3.8711   35.5516 C   0  0  0  0  0  0  0  0  0  0  0  0
    8.9476    2.4954   35.3359 C   0  0  0  0  0  0  0  0  0  0  0  0
    8.3369    1.7308   34.5934 O   0  0  0  0  0  0  0  0  0  0  0  0
    7.7962    4.7038   34.9737 N   0  0  0  0  0  0  0  0  0  0  0  0
    8.0095    5.9332   35.5054 C   0  0  0  0  0  0  0  0  0  0  0  0
    8.9934    5.9688   36.3630 N   0  0  0  0  0  0  0  0  0  0  0  0
  1  2  1  0  0  0  0
  2  3  1  0  0  0  0
  2  9  1  0  0  0  0
  3  4  2  0  0  0  0
  3  6  1  0  0  0  0
  6  5  1  0  0  0  0
  6  7  1  0  0  0  0
  7  8  2  0  0  0  0
  7 13  1  0  0  0  0
  8  9  1  0  0  0  0
  8 11  1  0  0  0  0
  9 10  2  0  0  0  0
 11 12  1  0  0  0  0
 12 13  2  0  0  0  0
M  END
>  <CHROM.1>
9.60705576,3.51509544,36.19410951,0.87452059,0.69166573,-2.86492604

>  <Name>
1o15_lig

>  <RI>
0

>  <Rbt.Current_Directory>
/home/itssahil/PROJECTS/Mol_Feturizer/New_Systems/rnas/1o15

>  <Rbt.Executable>
rbdock ($Id: //depot/dev/client3/rdock/2013.1/src/exe/rbdock.cxx#4 $)

>  <Rbt.Library>
libRbt.so (2013.1, Build901 2013/11/27)

>  <Rbt.Parameter_File>
/export/apps/rDock/src/rDock_2013.1_src/data/scripts/dock_solv.prm

>  <Rbt.Receptor>
prm/pocket_docking_4.prm

>  <SCORE>
-22.456

>  <SCORE.INTER>
-22.456

>  <SCORE.INTER.CONST>
1

>  <SCORE.INTER.POLAR>
-2.13336

>  <SCORE.INTER.ROT>
0

>  <SCORE.INTER.SOLV>
5.5372

>  <SCORE.INTER.VDW>
-13.3052

>  <SCORE.INTER.norm>
-1.72739

>  <SCORE.INTRA>
0

>  <SCORE.INTRA.DIHEDRAL>
0

>  <SCORE.INTRA.DIHEDRAL.0>
0

>  <SCORE.INTRA.POLAR>
0

>  <SCORE.INTRA.POLAR.0>
0

>  <SCORE.INTRA.REPUL>
0

>  <SCORE.INTRA.REPUL.0>
0

>  <SCORE.INTRA.SOLV>
0

>  <SCORE.INTRA.SOLV.lig_0>
-12.9184

>  <SCORE.INTRA.VDW>
0

>  <SCORE.INTRA.VDW.0>
0

>  <SCORE.INTRA.norm>
0

>  <SCORE.RESTR>
0

>  <SCORE.RESTR.CAVITY>
0

>  <SCORE.RESTR.norm>
0

>  <SCORE.SYSTEM>
0

>  <SCORE.SYSTEM.CONST>
0

>  <SCORE.SYSTEM.DIHEDRAL>
0

>  <SCORE.SYSTEM.SOLV>
0

>  <SCORE.SYSTEM.norm>
0

>  <SCORE.heavy>
13

>  <SCORE.norm>
-1.72739

>  <RMSD>
1.192

$$$$
1o15_lig
 OpenBabel11021811403D
libRbt.so/2013.1/901 2013/11/27
 13 14  0  0  0  0  0  0  0  0999 V2000
   10.4423    0.6383   36.0464 C   0  0  0  0  0  0  0  0  0  0  0  0
   10.1082    1.9735   36.1023 N   0  0  0  0  0  0  0  0  0  0  0  0
   10.8443    2.7759   36.9154 C   0  0  0  0  0  0  0  0  0  0  0  0
   11.7493    2.2254   37.5372 O   0  0  0  0  0  0  0  0  0  0  0  0
   11.3993    4.9072   37.9144 C   0  0  0  0  0  0  0  0  0  0  0  0
   10.6382    4.1174   37.0794 N   0  0  0  0  0  0  0  0  0  0  0  0
    9.6049    4.5921   36.3324 C   0  0  0  0  0  0  0  0  0  0  0  0
    8.8747    3.7763   35.5176 C   0  0  0  0  0  0  0  0  0  0  0  0
    9.0776    2.3949   35.3417 C   0  0  0  0  0  0  0  0  0  0  0  0
    8.4603    1.6079   34.6286 O   0  0  0  0  0  0  0  0  0  0  0  0
    7.9210    4.5908   34.9241 N   0  0  0  0  0  0  0  0  0  0  0  0
    8.1385    5.8358   35.4163 C   0  0  0  0  0  0  0  0  0  0  0  0
    9.1306    5.8978   36.2629 N   0  0  0  0  0  0  0  0  0  0  0  0
  1  2  1  0  0  0  0
  2  3  1  0  0  0  0
  2  9  1  0  0  0  0
  3  4  2  0  0  0  0
  3  6  1  0  0  0  0
  6  5  1  0  0  0  0
  6  7  1  0  0  0  0
  7  8  2  0  0  0  0
  7 13  1  0  0  0  0
  8  9  1  0  0  0  0
  8 11  1  0  0  0  0
  9 10  2  0  0  0  0
 11 12  1  0  0  0  0
 12 13  2  0  0  0  0
M  END
>  <CHROM.1>
9.74450812,3.44035502,36.16225273,0.87697401,0.68214309,-2.89669681

>  <Name>
1o15_lig

>  <RI>
0

>  <Rbt.Current_Directory>
/home/itssahil/PROJECTS/Mol_Feturizer/New_Systems/rnas/1o15

>  <Rbt.Executable>
rbdock ($Id: //depot/dev/client3/rdock/2013.1/src/exe/rbdock.cxx#4 $)

>  <Rbt.Library>
libRbt.so (2013.1, Build901 2013/11/27)

>  <Rbt.Parameter_File>
/export/apps/rDock/src/rDock_2013.1_src/data/scripts/dock_solv.prm

>  <Rbt.Receptor>
prm/pocket_docking_7.prm

>  <SCORE>
-22.4639

>  <SCORE.INTER>
-22.4639

>  <SCORE.INTER.CONST>
1

>  <SCORE.INTER.POLAR>
-2.13336

>  <SCORE.INTER.ROT>
0

>  <SCORE.INTER.SOLV>
5.562

>  <SCORE.INTER.VDW>
-13.3188

>  <SCORE.INTER.norm>
-1.72799

>  <SCORE.INTRA>
0

>  <SCORE.INTRA.DIHEDRAL>
0

>  <SCORE.INTRA.DIHEDRAL.0>
0

>  <SCORE.INTRA.POLAR>
0

>  <SCORE.INTRA.POLAR.0>
0

>  <SCORE.INTRA.REPUL>
0

>  <SCORE.INTRA.REPUL.0>
0

>  <SCORE.INTRA.SOLV>
0

>  <SCORE.INTRA.SOLV.lig_0>
-12.9184

>  <SCORE.INTRA.VDW>
0

>  <SCORE.INTRA.VDW.0>
0

>  <SCORE.INTRA.norm>
0

>  <SCORE.RESTR>
0

>  <SCORE.RESTR.CAVITY>
0

>  <SCORE.RESTR.norm>
0

>  <SCORE.SYSTEM>
0

>  <SCORE.SYSTEM.CONST>
0

>  <SCORE.SYSTEM.DIHEDRAL>
0

>  <SCORE.SYSTEM.SOLV>
0

>  <SCORE.SYSTEM.norm>
0

>  <SCORE.heavy>
13

>  <SCORE.norm>
-1.72799

>  <RMSD>
1.192

$$$$
1o15_lig
 OpenBabel11021811403D
libRbt.so/2013.1/901 2013/11/27
 13 14  0  0  0  0  0  0  0  0999 V2000
   10.0458    1.0020   36.2714 C   0  0  0  0  0  0  0  0  0  0  0  0
    9.6777    2.3284   36.3220 N   0  0  0  0  0  0  0  0  0  0  0  0
   10.3392    3.1353   37.1926 C   0  0  0  0  0  0  0  0  0  0  0  0
   11.2135    2.5964   37.8664 O   0  0  0  0  0  0  0  0  0  0  0  0
   10.7767    5.2640   38.2537 C   0  0  0  0  0  0  0  0  0  0  0  0
   10.0914    4.4693   37.3597 N   0  0  0  0  0  0  0  0  0  0  0  0
    9.0992    4.9315   36.5515 C   0  0  0  0  0  0  0  0  0  0  0  0
    8.4441    4.1113   35.6794 C   0  0  0  0  0  0  0  0  0  0  0  0
    8.6903    2.7374   35.4997 C   0  0  0  0  0  0  0  0  0  0  0  0
    8.1404    1.9471   34.7369 O   0  0  0  0  0  0  0  0  0  0  0  0
    7.5132    4.9125   35.0340 N   0  0  0  0  0  0  0  0  0  0  0  0
    7.6684    6.1549   35.5555 C   0  0  0  0  0  0  0  0  0  0  0  0
    8.6003    6.2270   36.4672 N   0  0  0  0  0  0  0  0  0  0  0  0
  1  2  1  0  0  0  0
  2  3  1  0  0  0  0
  2  9  1  0  0  0  0
  3  4  2  0  0  0  0
  3  6  1  0  0  0  0
  6  5  1  0  0  0  0
  6  7  1  0  0  0  0
  7  8  2  0  0  0  0
  7 13  1  0  0  0  0
  8  9  1  0  0  0  0
  8 11  1  0  0  0  0
  9 10  2  0  0  0  0
 11 12  1  0  0  0  0
 12 13  2  0  0  0  0
M  END
>  <CHROM.1>
9.27670299,3.78567426,36.37629963,0.82445873,0.74037804,-2.84879369

>  <Name>
1o15_lig

>  <RI>
0

>  <Rbt.Current_Directory>
/home/itssahil/PROJECTS/Mol_Feturizer/New_Systems/rnas/1o15

>  <Rbt.Executable>
rbdock ($Id: //depot/dev/client3/rdock/2013.1/src/exe/rbdock.cxx#4 $)

>  <Rbt.Library>
libRbt.so (2013.1, Build901 2013/11/27)

>  <Rbt.Parameter_File>
/export/apps/rDock/src/rDock_2013.1_src/data/scripts/dock_solv.prm

>  <Rbt.Receptor>
prm/pocket_docking_5.prm

>  <SCORE>
-22.7339

>  <SCORE.INTER>
-22.7339

>  <SCORE.INTER.CONST>
1

>  <SCORE.INTER.POLAR>
-2.10338

>  <SCORE.INTER.ROT>
0

>  <SCORE.INTER.SOLV>
5.72263

>  <SCORE.INTER.VDW>
-13.6522

>  <SCORE.INTER.norm>
-1.74876

>  <SCORE.INTRA>
0

>  <SCORE.INTRA.DIHEDRAL>
0

>  <SCORE.INTRA.DIHEDRAL.0>
0

>  <SCORE.INTRA.POLAR>
0

>  <SCORE.INTRA.POLAR.0>
0

>  <SCORE.INTRA.REPUL>
0

>  <SCORE.INTRA.REPUL.0>
0

>  <SCORE.INTRA.SOLV>
0

>  <SCORE.INTRA.SOLV.lig_0>
-12.9184

>  <SCORE.INTRA.VDW>
0

>  <SCORE.INTRA.VDW.0>
0

>  <SCORE.INTRA.norm>
0

>  <SCORE.RESTR>
0

>  <SCORE.RESTR.CAVITY>
0

>  <SCORE.RESTR.norm>
0

>  <SCORE.SYSTEM>
0

>  <SCORE.SYSTEM.CONST>
0

>  <SCORE.SYSTEM.DIHEDRAL>
0

>  <SCORE.SYSTEM.SOLV>
0

>  <SCORE.SYSTEM.norm>
0

>  <SCORE.heavy>
13

>  <SCORE.norm>
-1.74876

>  <RMSD>
1.194

$$$$
1o15_lig
 OpenBabel11021811403D
libRbt.so/2013.1/901 2013/11/27
 13 14  0  0  0  0  0  0  0  0999 V2000
   10.2272    1.0691   36.2912 C   0  0  0  0  0  0  0  0  0  0  0  0
    9.8027    2.3785   36.3416 N   0  0  0  0  0  0  0  0  0  0  0  0
   10.4228    3.2109   37.2187 C   0  0  0  0  0  0  0  0  0  0  0  0
   11.3143    2.7081   37.8979 O   0  0  0  0  0  0  0  0  0  0  0  0
   10.7617    5.3538   38.2871 C   0  0  0  0  0  0  0  0  0  0  0  0
   10.1174    4.5328   37.3865 N   0  0  0  0  0  0  0  0  0  0  0  0
    9.1124    4.9542   36.5719 C   0  0  0  0  0  0  0  0  0  0  0  0
    8.4991    4.1088   35.6934 C   0  0  0  0  0  0  0  0  0  0  0  0
    8.8048    2.7471   35.5128 C   0  0  0  0  0  0  0  0  0  0  0  0
    8.2946    1.9358   34.7445 O   0  0  0  0  0  0  0  0  0  0  0  0
    7.5398    4.8713   35.0426 N   0  0  0  0  0  0  0  0  0  0  0  0
    7.6382    6.1180   35.5677 C   0  0  0  0  0  0  0  0  0  0  0  0
    8.5595    6.2275   36.4864 N   0  0  0  0  0  0  0  0  0  0  0  0
  1  2  1  0  0  0  0
  2  3  1  0  0  0  0
  2  9  1  0  0  0  0
  3  4  2  0  0  0  0
  3  6  1  0  0  0  0
  6  5  1  0  0  0  0
  6  7  1  0  0  0  0
  7  8  2  0  0  0  0
  7 13  1  0  0  0  0
  8  9  1  0  0  0  0
  8 11  1  0  0  0  0
  9 10  2  0  0  0  0
 11 12  1  0  0  0  0
 12 13  2  0  0  0  0
M  END
>  <CHROM.1>
9.33968318,3.81733641,36.39578441,0.76677022,0.73427720,-2.80791625

>  <Name>
1o15_lig

>  <RI>
0

>  <Rbt.Current_Directory>
/home/itssahil/PROJECTS/Mol_Feturizer/New_Systems/rnas/1o15

>  <Rbt.Executable>
rbdock ($Id: //depot/dev/client3/rdock/2013.1/src/exe/rbdock.cxx#4 $)

>  <Rbt.Library>
libRbt.so (2013.1, Build901 2013/11/27)

>  <Rbt.Parameter_File>
/export/apps/rDock/src/rDock_2013.1_src/data/scripts/dock_solv.prm

>  <Rbt.Receptor>
prm/pocket_docking_8.prm

>  <SCORE>
-22.7592

>  <SCORE.INTER>
-22.7592

>  <SCORE.INTER.CONST>
1

>  <SCORE.INTER.POLAR>
-2.11195

>  <SCORE.INTER.ROT>
0

>  <SCORE.INTER.SOLV>
5.76801

>  <SCORE.INTER.VDW>
-13.6556

>  <SCORE.INTER.norm>
-1.75071

>  <SCORE.INTRA>
0

>  <SCORE.INTRA.DIHEDRAL>
0

>  <SCORE.INTRA.DIHEDRAL.0>
0

>  <SCORE.INTRA.POLAR>
0

>  <SCORE.INTRA.POLAR.0>
0

>  <SCORE.INTRA.REPUL>
0

>  <SCORE.INTRA.REPUL.0>
0

>  <SCORE.INTRA.SOLV>
0

>  <SCORE.INTRA.SOLV.lig_0>
-12.9184

>  <SCORE.INTRA.VDW>
0

>  <SCORE.INTRA.VDW.0>
0

>  <SCORE.INTRA.norm>
0

>  <SCORE.RESTR>
0

>  <SCORE.RESTR.CAVITY>
0

>  <SCORE.RESTR.norm>
0

>  <SCORE.SYSTEM>
0

>  <SCORE.SYSTEM.CONST>
0

>  <SCORE.SYSTEM.DIHEDRAL>
0

>  <SCORE.SYSTEM.SOLV>
0

>  <SCORE.SYSTEM.norm>
0

>  <SCORE.heavy>
13

>  <SCORE.norm>
-1.75071

>  <RMSD>
1.200

$$$$
1o15_lig
 OpenBabel11021811403D
libRbt.so/2013.1/901 2013/11/27
 13 14  0  0  0  0  0  0  0  0999 V2000
   10.1944    1.0536   36.2912 C   0  0  0  0  0  0  0  0  0  0  0  0
    9.7838    2.3677   36.3342 N   0  0  0  0  0  0  0  0  0  0  0  0
   10.4184    3.2004   37.2006 C   0  0  0  0  0  0  0  0  0  0  0  0
   11.3092    2.6936   37.8778 O   0  0  0  0  0  0  0  0  0  0  0  0
   10.7866    5.3478   38.2500 C   0  0  0  0  0  0  0  0  0  0  0  0
   10.1278    4.5266   37.3601 N   0  0  0  0  0  0  0  0  0  0  0  0
    9.1217    4.9521   36.5490 C   0  0  0  0  0  0  0  0  0  0  0  0
    8.4938    4.1064   35.6812 C   0  0  0  0  0  0  0  0  0  0  0  0
    8.7842    2.7402   35.5093 C   0  0  0  0  0  0  0  0  0  0  0  0
    8.2604    1.9284   34.7507 O   0  0  0  0  0  0  0  0  0  0  0  0
    7.5380    4.8738   35.0309 N   0  0  0  0  0  0  0  0  0  0  0  0
    7.6528    6.1234   35.5456 C   0  0  0  0  0  0  0  0  0  0  0  0
    8.5814    6.2305   36.4572 N   0  0  0  0  0  0  0  0  0  0  0  0
  1  2  1  0  0  0  0
  2  3  1  0  0  0  0
  2  9  1  0  0  0  0
  3  4  2  0  0  0  0
  3  6  1  0  0  0  0
  6  5  1  0  0  0  0
  6  7  1  0  0  0  0
  7  8  2  0  0  0  0
  7 13  1  0  0  0  0
  8  9  1  0  0  0  0
  8 11  1  0  0  0  0
  9 10  2  0  0  0  0
 11 12  1  0  0  0  0
 12 13  2  0  0  0  0
M  END
>  <CHROM.1>
9.33604778,3.81166665,36.38025010,0.78284752,0.73122027,-2.82642775

>  <Name>
1o15_lig

>  <RI>
0

>  <Rbt.Current_Directory>
/home/itssahil/PROJECTS/Mol_Feturizer/New_Systems/rnas/1o15

>  <Rbt.Executable>
rbdock ($Id: //depot/dev/client3/rdock/2013.1/src/exe/rbdock.cxx#4 $)

>  <Rbt.Library>
libRbt.so (2013.1, Build901 2013/11/27)

>  <Rbt.Parameter_File>
/export/apps/rDock/src/rDock_2013.1_src/data/scripts/dock_solv.prm

>  <Rbt.Receptor>
prm/pocket_docking_5.prm

>  <SCORE>
-22.7328

>  <SCORE.INTER>
-22.7328

>  <SCORE.INTER.CONST>
1

>  <SCORE.INTER.POLAR>
-2.11084

>  <SCORE.INTER.ROT>
0

>  <SCORE.INTER.SOLV>
5.7557

>  <SCORE.INTER.VDW>
-13.6376

>  <SCORE.INTER.norm>
-1.74868

>  <SCORE.INTRA>
0

>  <SCORE.INTRA.DIHEDRAL>
0

>  <SCORE.INTRA.DIHEDRAL.0>
0

>  <SCORE.INTRA.POLAR>
0

>  <SCORE.INTRA.POLAR.0>
0

>  <SCORE.INTRA.REPUL>
0

>  <SCORE.INTRA.REPUL.0>
0

>  <SCORE.INTRA.SOLV>
0

>  <SCORE.INTRA.SOLV.lig_0>
-12.9184

>  <SCORE.INTRA.VDW>
0

>  <SCORE.INTRA.VDW.0>
0

>  <SCORE.INTRA.norm>
0

>  <SCORE.RESTR>
0

>  <SCORE.RESTR.CAVITY>
0

>  <SCORE.RESTR.norm>
0

>  <SCORE.SYSTEM>
0

>  <SCORE.SYSTEM.CONST>
0

>  <SCORE.SYSTEM.DIHEDRAL>
0

>  <SCORE.SYSTEM.SOLV>
0

>  <SCORE.SYSTEM.norm>
0

>  <SCORE.heavy>
13

>  <SCORE.norm>
-1.74868

>  <RMSD>
1.201

$$$$
1o15_lig
 OpenBabel11021811403D
libRbt.so/2013.1/901 2013/11/27
 13 14  0  0  0  0  0  0  0  0999 V2000
   10.0529    1.0123   36.2457 C   0  0  0  0  0  0  0  0  0  0  0  0
    9.6859    2.3386   36.3056 N   0  0  0  0  0  0  0  0  0  0  0  0
   10.3446    3.1378   37.1855 C   0  0  0  0  0  0  0  0  0  0  0  0
   11.2155    2.5925   37.8585 O   0  0  0  0  0  0  0  0  0  0  0  0
   10.7798    5.2573   38.2657 C   0  0  0  0  0  0  0  0  0  0  0  0
   10.0975    4.4707   37.3623 N   0  0  0  0  0  0  0  0  0  0  0  0
    9.1092    4.9404   36.5538 C   0  0  0  0  0  0  0  0  0  0  0  0
    8.4568    4.1280   35.6723 C   0  0  0  0  0  0  0  0  0  0  0  0
    8.7024    2.7554   35.4825 C   0  0  0  0  0  0  0  0  0  0  0  0
    8.1549    1.9719   34.7110 O   0  0  0  0  0  0  0  0  0  0  0  0
    7.5295    4.9355   35.0295 N   0  0  0  0  0  0  0  0  0  0  0  0
    7.6838    6.1734   35.5618 C   0  0  0  0  0  0  0  0  0  0  0  0
    8.6119    6.2371   36.4779 N   0  0  0  0  0  0  0  0  0  0  0  0
  1  2  1  0  0  0  0
  2  3  1  0  0  0  0
  2  9  1  0  0  0  0
  3  4  2  0  0  0  0
  3  6  1  0  0  0  0
  6  5  1  0  0  0  0
  6  7  1  0  0  0  0
  7  8  2  0  0  0  0
  7 13  1  0  0  0  0
  8  9  1  0  0  0  0
  8 11  1  0  0  0  0
  9 10  2  0  0  0  0
 11 12  1  0  0  0  0
 12 13  2  0  0  0  0
M  END
>  <CHROM.1>
9.28619621,3.79588527,36.37002497,0.82414997,0.74468995,-2.84045854

>  <Name>
1o15_lig

>  <RI>
0

>  <Rbt.Current_Directory>
/home/itssahil/PROJECTS/Mol_Feturizer/New_Systems/rnas/1o15

>  <Rbt.Executable>
rbdock ($Id: //depot/dev/client3/rdock/2013.1/src/exe/rbdock.cxx#4 $)

>  <Rbt.Library>
libRbt.so (2013.1, Build901 2013/11/27)

>  <Rbt.Parameter_File>
/export/apps/rDock/src/rDock_2013.1_src/data/scripts/dock_solv.prm

>  <Rbt.Receptor>
prm/pocket_docking_5.prm

>  <SCORE>
-22.7262

>  <SCORE.INTER>
-22.7262

>  <SCORE.INTER.CONST>
1

>  <SCORE.INTER.POLAR>
-2.12349

>  <SCORE.INTER.ROT>
0

>  <SCORE.INTER.SOLV>
5.72083

>  <SCORE.INTER.VDW>
-13.5795

>  <SCORE.INTER.norm>
-1.74817

>  <SCORE.INTRA>
0

>  <SCORE.INTRA.DIHEDRAL>
0

>  <SCORE.INTRA.DIHEDRAL.0>
0

>  <SCORE.INTRA.POLAR>
0

>  <SCORE.INTRA.POLAR.0>
0

>  <SCORE.INTRA.REPUL>
0

>  <SCORE.INTRA.REPUL.0>
0

>  <SCORE.INTRA.SOLV>
0

>  <SCORE.INTRA.SOLV.lig_0>
-12.9184

>  <SCORE.INTRA.VDW>
0

>  <SCORE.INTRA.VDW.0>
0

>  <SCORE.INTRA.norm>
0

>  <SCORE.RESTR>
0

>  <SCORE.RESTR.CAVITY>
0

>  <SCORE.RESTR.norm>
0

>  <SCORE.SYSTEM>
0

>  <SCORE.SYSTEM.CONST>
0

>  <SCORE.SYSTEM.DIHEDRAL>
0

>  <SCORE.SYSTEM.SOLV>
0

>  <SCORE.SYSTEM.norm>
0

>  <SCORE.heavy>
13

>  <SCORE.norm>
-1.74817

>  <RMSD>
1.206

$$$$
1o15_lig
 OpenBabel11021811403D
libRbt.so/2013.1/901 2013/11/27
 13 14  0  0  0  0  0  0  0  0999 V2000
   10.0882    1.0333   36.2764 C   0  0  0  0  0  0  0  0  0  0  0  0
    9.7002    2.3543   36.3197 N   0  0  0  0  0  0  0  0  0  0  0  0
   10.3574    3.1785   37.1772 C   0  0  0  0  0  0  0  0  0  0  0  0
   11.2462    2.6587   37.8469 O   0  0  0  0  0  0  0  0  0  0  0  0
   10.7720    5.3224   38.2166 C   0  0  0  0  0  0  0  0  0  0  0  0
   10.0906    4.5099   37.3357 N   0  0  0  0  0  0  0  0  0  0  0  0
    9.0838    4.9500   36.5334 C   0  0  0  0  0  0  0  0  0  0  0  0
    8.4331    4.1126   35.6744 C   0  0  0  0  0  0  0  0  0  0  0  0
    8.6988    2.7412   35.5036 C   0  0  0  0  0  0  0  0  0  0  0  0
    8.1539    1.9362   34.7527 O   0  0  0  0  0  0  0  0  0  0  0  0
    7.4839    4.8941   35.0314 N   0  0  0  0  0  0  0  0  0  0  0  0
    7.6248    6.1430   35.5412 C   0  0  0  0  0  0  0  0  0  0  0  0
    8.5641    6.2370   36.4433 N   0  0  0  0  0  0  0  0  0  0  0  0
  1  2  1  0  0  0  0
  2  3  1  0  0  0  0
  2  9  1  0  0  0  0
  3  4  2  0  0  0  0
  3  6  1  0  0  0  0
  6  5  1  0  0  0  0
  6  7  1  0  0  0  0
  7  8  2  0  0  0  0
  7 13  1  0  0  0  0
  8  9  1  0  0  0  0
  8 11  1  0  0  0  0
  9 10  2  0  0  0  0
 11 12  1  0  0  0  0
 12 13  2  0  0  0  0
M  END
>  <CHROM.1>
9.27726207,3.80564129,36.36587758,0.80835647,0.72674184,-2.84628370

>  <Name>
1o15_lig

>  <RI>
0

>  <Rbt.Current_Directory>
/home/itssahil/PROJECTS/Mol_Feturizer/New_Systems/rnas/1o15

>  <Rbt.Executable>
rbdock ($Id: //depot/dev/client3/rdock/2013.1/src/exe/rbdock.cxx#4 $)

>  <Rbt.Library>
libRbt.so (2013.1, Build901 2013/11/27)

>  <Rbt.Parameter_File>
/export/apps/rDock/src/rDock_2013.1_src/data/scripts/dock_solv.prm

>  <Rbt.Receptor>
prm/pocket_docking_5.prm

>  <SCORE>
-22.6663

>  <SCORE.INTER>
-22.6663

>  <SCORE.INTER.CONST>
1

>  <SCORE.INTER.POLAR>
-2.06436

>  <SCORE.INTER.ROT>
0

>  <SCORE.INTER.SOLV>
5.83813

>  <SCORE.INTER.VDW>
-13.7757

>  <SCORE.INTER.norm>
-1.74356

>  <SCORE.INTRA>
0

>  <SCORE.INTRA.DIHEDRAL>
0

>  <SCORE.INTRA.DIHEDRAL.0>
0

>  <SCORE.INTRA.POLAR>
0

>  <SCORE.INTRA.POLAR.0>
0

>  <SCORE.INTRA.REPUL>
0

>  <SCORE.INTRA.REPUL.0>
0

>  <SCORE.INTRA.SOLV>
0

>  <SCORE.INTRA.SOLV.lig_0>
-12.9184

>  <SCORE.INTRA.VDW>
0

>  <SCORE.INTRA.VDW.0>
0

>  <SCORE.INTRA.norm>
0

>  <SCORE.RESTR>
0

>  <SCORE.RESTR.CAVITY>
0

>  <SCORE.RESTR.norm>
0

>  <SCORE.SYSTEM>
0

>  <SCORE.SYSTEM.CONST>
0

>  <SCORE.SYSTEM.DIHEDRAL>
0

>  <SCORE.SYSTEM.SOLV>
0

>  <SCORE.SYSTEM.norm>
0

>  <SCORE.heavy>
13

>  <SCORE.norm>
-1.74356

>  <RMSD>
1.214

$$$$
1o15_lig
 OpenBabel11021811403D
libRbt.so/2013.1/901 2013/11/27
 13 14  0  0  0  0  0  0  0  0999 V2000
   10.2537    1.0374   36.1821 C   0  0  0  0  0  0  0  0  0  0  0  0
    9.8334    2.3469   36.2600 N   0  0  0  0  0  0  0  0  0  0  0  0
   10.4689    3.1636   37.1408 C   0  0  0  0  0  0  0  0  0  0  0  0
   11.3693    2.6478   37.7982 O   0  0  0  0  0  0  0  0  0  0  0  0
   10.8294    5.2882   38.2384 C   0  0  0  0  0  0  0  0  0  0  0  0
   10.1694    4.4833   37.3345 N   0  0  0  0  0  0  0  0  0  0  0  0
    9.1532    4.9200   36.5422 C   0  0  0  0  0  0  0  0  0  0  0  0
    8.5245    4.0904   35.6597 C   0  0  0  0  0  0  0  0  0  0  0  0
    8.8240    2.7310   35.4526 C   0  0  0  0  0  0  0  0  0  0  0  0
    8.3001    1.9334   34.6791 O   0  0  0  0  0  0  0  0  0  0  0  0
    7.5573    4.8654   35.0360 N   0  0  0  0  0  0  0  0  0  0  0  0
    7.6668    6.1032   35.5795 C   0  0  0  0  0  0  0  0  0  0  0  0
    8.6023    6.1959   36.4857 N   0  0  0  0  0  0  0  0  0  0  0  0
  1  2  1  0  0  0  0
  2  3  1  0  0  0  0
  2  9  1  0  0  0  0
  3  4  2  0  0  0  0
  3  6  1  0  0  0  0
  6  5  1  0  0  0  0
  6  7  1  0  0  0  0
  7  8  2  0  0  0  0
  7 13  1  0  0  0  0
  8  9  1  0  0  0  0
  8 11  1  0  0  0  0
  9 10  2  0  0  0  0
 11 12  1  0  0  0  0
 12 13  2  0  0  0  0
M  END
>  <CHROM.1>
9.37490303,3.78568733,36.34441506,0.77656615,0.72072050,-2.79829561

>  <Name>
1o15_lig

>  <RI>
0

>  <Rbt.Current_Directory>
/home/itssahil/PROJECTS/Mol_Feturizer/New_Systems/rnas/1o15

>  <Rbt.Executable>
rbdock ($Id: //depot/dev/client3/rdock/2013.1/src/exe/rbdock.cxx#4 $)

>  <Rbt.Library>
libRbt.so (2013.1, Build901 2013/11/27)

>  <Rbt.Parameter_File>
/export/apps/rDock/src/rDock_2013.1_src/data/scripts/dock_solv.prm

>  <Rbt.Receptor>
prm/pocket_docking_3.prm

>  <SCORE>
-22.6421

>  <SCORE.INTER>
-22.6421

>  <SCORE.INTER.CONST>
1

>  <SCORE.INTER.POLAR>
-2.12459

>  <SCORE.INTER.ROT>
0

>  <SCORE.INTER.SOLV>
5.80327

>  <SCORE.INTER.VDW>
-13.5472

>  <SCORE.INTER.norm>
-1.7417

>  <SCORE.INTRA>
0

>  <SCORE.INTRA.DIHEDRAL>
0

>  <SCORE.INTRA.DIHEDRAL.0>
0

>  <SCORE.INTRA.POLAR>
0

>  <SCORE.INTRA.POLAR.0>
0

>  <SCORE.INTRA.REPUL>
0

>  <SCORE.INTRA.REPUL.0>
0

>  <SCORE.INTRA.SOLV>
0

>  <SCORE.INTRA.SOLV.lig_0>
-12.9184

>  <SCORE.INTRA.VDW>
0

>  <SCORE.INTRA.VDW.0>
0

>  <SCORE.INTRA.norm>
0

>  <SCORE.RESTR>
0

>  <SCORE.RESTR.CAVITY>
0

>  <SCORE.RESTR.norm>
0

>  <SCORE.SYSTEM>
0

>  <SCORE.SYSTEM.CONST>
0

>  <SCORE.SYSTEM.DIHEDRAL>
0

>  <SCORE.SYSTEM.SOLV>
0

>  <SCORE.SYSTEM.norm>
0

>  <SCORE.heavy>
13

>  <SCORE.norm>
-1.7417

>  <RMSD>
1.221

$$$$
1o15_lig
 OpenBabel11021811403D
libRbt.so/2013.1/901 2013/11/27
 13 14  0  0  0  0  0  0  0  0999 V2000
   10.3389    0.7656   35.8997 C   0  0  0  0  0  0  0  0  0  0  0  0
    9.9876    2.0917   36.0247 N   0  0  0  0  0  0  0  0  0  0  0  0
   10.7109    2.8593   36.8817 C   0  0  0  0  0  0  0  0  0  0  0  0
   11.6210    2.2881   37.4770 O   0  0  0  0  0  0  0  0  0  0  0  0
   11.2356    4.9416   37.9938 C   0  0  0  0  0  0  0  0  0  0  0  0
   10.4872    4.1875   37.1154 N   0  0  0  0  0  0  0  0  0  0  0  0
    9.4502    4.6879   36.3907 C   0  0  0  0  0  0  0  0  0  0  0  0
    8.7330    3.9072   35.5314 C   0  0  0  0  0  0  0  0  0  0  0  0
    8.9540    2.5396   35.2835 C   0  0  0  0  0  0  0  0  0  0  0  0
    8.3490    1.7836   34.5276 O   0  0  0  0  0  0  0  0  0  0  0  0
    7.7708    4.7397   34.9781 N   0  0  0  0  0  0  0  0  0  0  0  0
    7.9708    5.9596   35.5361 C   0  0  0  0  0  0  0  0  0  0  0  0
    8.9595    5.9894   36.3884 N   0  0  0  0  0  0  0  0  0  0  0  0
  1  2  1  0  0  0  0
  2  3  1  0  0  0  0
  2  9  1  0  0  0  0
  3  4  2  0  0  0  0
  3  6  1  0  0  0  0
  6  5  1  0  0  0  0
  6  7  1  0  0  0  0
  7  8  2  0  0  0  0
  7 13  1  0  0  0  0
  8  9  1  0  0  0  0
  8 11  1  0  0  0  0
  9 10  2  0  0  0  0
 11 12  1  0  0  0  0
 12 13  2  0  0  0  0
M  END
>  <CHROM.1>
9.60503397,3.54859985,36.16058054,0.86006117,0.68192880,-2.83322961

>  <Name>
1o15_lig

>  <RI>
0

>  <Rbt.Current_Directory>
/home/itssahil/PROJECTS/Mol_Feturizer/New_Systems/rnas/1o15

>  <Rbt.Executable>
rbdock ($Id: //depot/dev/client3/rdock/2013.1/src/exe/rbdock.cxx#4 $)

>  <Rbt.Library>
libRbt.so (2013.1, Build901 2013/11/27)

>  <Rbt.Parameter_File>
/export/apps/rDock/src/rDock_2013.1_src/data/scripts/dock_solv.prm

>  <Rbt.Receptor>
prm/blind_docking_80.prm

>  <SCORE>
-22.4412

>  <SCORE.INTER>
-22.4412

>  <SCORE.INTER.CONST>
1

>  <SCORE.INTER.POLAR>
-2.13336

>  <SCORE.INTER.ROT>
0

>  <SCORE.INTER.SOLV>
5.76581

>  <SCORE.INTER.VDW>
-13.3716

>  <SCORE.INTER.norm>
-1.72625

>  <SCORE.INTRA>
0

>  <SCORE.INTRA.DIHEDRAL>
0

>  <SCORE.INTRA.DIHEDRAL.0>
0

>  <SCORE.INTRA.POLAR>
0

>  <SCORE.INTRA.POLAR.0>
0

>  <SCORE.INTRA.REPUL>
0

>  <SCORE.INTRA.REPUL.0>
0

>  <SCORE.INTRA.SOLV>
0

>  <SCORE.INTRA.SOLV.lig_0>
-12.9184

>  <SCORE.INTRA.VDW>
0

>  <SCORE.INTRA.VDW.0>
0

>  <SCORE.INTRA.norm>
0

>  <SCORE.RESTR>
0

>  <SCORE.RESTR.CAVITY>
0

>  <SCORE.RESTR.norm>
0

>  <SCORE.SYSTEM>
0

>  <SCORE.SYSTEM.CONST>
0

>  <SCORE.SYSTEM.DIHEDRAL>
0

>  <SCORE.SYSTEM.SOLV>
0

>  <SCORE.SYSTEM.norm>
0

>  <SCORE.heavy>
13

>  <SCORE.norm>
-1.72625

>  <RMSD>
1.250

$$$$
1o15_lig
 OpenBabel11021811403D
libRbt.so/2013.1/901 2013/11/27
 13 14  0  0  0  0  0  0  0  0999 V2000
   10.2869    0.6664   35.8572 C   0  0  0  0  0  0  0  0  0  0  0  0
    9.9771    2.0025   35.9847 N   0  0  0  0  0  0  0  0  0  0  0  0
   10.7318    2.7483   36.8337 C   0  0  0  0  0  0  0  0  0  0  0  0
   11.6302    2.1503   37.4203 O   0  0  0  0  0  0  0  0  0  0  0  0
   11.3302    4.8145   37.9388 C   0  0  0  0  0  0  0  0  0  0  0  0
   10.5506    4.0828   37.0686 N   0  0  0  0  0  0  0  0  0  0  0  0
    9.5219    4.6139   36.3540 C   0  0  0  0  0  0  0  0  0  0  0  0
    8.7728    3.8547   35.5025 C   0  0  0  0  0  0  0  0  0  0  0  0
    8.9500    2.4810   35.2536 C   0  0  0  0  0  0  0  0  0  0  0  0
    8.3150    1.7432   34.5044 O   0  0  0  0  0  0  0  0  0  0  0  0
    7.8306    4.7156   34.9582 N   0  0  0  0  0  0  0  0  0  0  0  0
    8.0730    5.9292   35.5132 C   0  0  0  0  0  0  0  0  0  0  0  0
    9.0706    5.9296   36.3555 N   0  0  0  0  0  0  0  0  0  0  0  0
  1  2  1  0  0  0  0
  2  3  1  0  0  0  0
  2  9  1  0  0  0  0
  3  4  2  0  0  0  0
  3  6  1  0  0  0  0
  6  5  1  0  0  0  0
  6  7  1  0  0  0  0
  7  8  2  0  0  0  0
  7 13  1  0  0  0  0
  8  9  1  0  0  0  0
  8 11  1  0  0  0  0
  9 10  2  0  0  0  0
 11 12  1  0  0  0  0
 12 13  2  0  0  0  0
M  END
>  <CHROM.1>
9.63996299,3.47034933,36.12321123,0.90098183,0.68108378,-2.85968196

>  <Name>
1o15_lig

>  <RI>
0

>  <Rbt.Current_Directory>
/home/itssahil/PROJECTS/Mol_Feturizer/New_Systems/rnas/1o15

>  <Rbt.Executable>
rbdock ($Id: //depot/dev/client3/rdock/2013.1/src/exe/rbdock.cxx#4 $)

>  <Rbt.Library>
libRbt.so (2013.1, Build901 2013/11/27)

>  <Rbt.Parameter_File>
/export/apps/rDock/src/rDock_2013.1_src/data/scripts/dock_solv.prm

>  <Rbt.Receptor>
prm/pocket_docking_6.prm

>  <SCORE>
-22.4252

>  <SCORE.INTER>
-22.4252

>  <SCORE.INTER.CONST>
1

>  <SCORE.INTER.POLAR>
-2.13297

>  <SCORE.INTER.ROT>
0

>  <SCORE.INTER.SOLV>
5.72364

>  <SCORE.INTER.VDW>
-13.3481

>  <SCORE.INTER.norm>
-1.72501

>  <SCORE.INTRA>
0

>  <SCORE.INTRA.DIHEDRAL>
0

>  <SCORE.INTRA.DIHEDRAL.0>
0

>  <SCORE.INTRA.POLAR>
0

>  <SCORE.INTRA.POLAR.0>
0

>  <SCORE.INTRA.REPUL>
0

>  <SCORE.INTRA.REPUL.0>
0

>  <SCORE.INTRA.SOLV>
0

>  <SCORE.INTRA.SOLV.lig_0>
-12.9184

>  <SCORE.INTRA.VDW>
0

>  <SCORE.INTRA.VDW.0>
0

>  <SCORE.INTRA.norm>
0

>  <SCORE.RESTR>
0

>  <SCORE.RESTR.CAVITY>
0

>  <SCORE.RESTR.norm>
0

>  <SCORE.SYSTEM>
0

>  <SCORE.SYSTEM.CONST>
0

>  <SCORE.SYSTEM.DIHEDRAL>
0

>  <SCORE.SYSTEM.SOLV>
0

>  <SCORE.SYSTEM.norm>
0

>  <SCORE.heavy>
13

>  <SCORE.norm>
-1.72501

>  <RMSD>
1.255

$$$$
1o15_lig
 OpenBabel11021811403D
libRbt.so/2013.1/901 2013/11/27
 13 14  0  0  0  0  0  0  0  0999 V2000
   10.2625    0.6469   35.8310 C   0  0  0  0  0  0  0  0  0  0  0  0
    9.9631    1.9848   35.9634 N   0  0  0  0  0  0  0  0  0  0  0  0
   10.7279    2.7231   36.8100 C   0  0  0  0  0  0  0  0  0  0  0  0
   11.6252    2.1172   37.3901 O   0  0  0  0  0  0  0  0  0  0  0  0
   11.3475    4.7822   37.9167 C   0  0  0  0  0  0  0  0  0  0  0  0
   10.5577    4.0583   37.0491 N   0  0  0  0  0  0  0  0  0  0  0  0
    9.5289    4.5986   36.3415 C   0  0  0  0  0  0  0  0  0  0  0  0
    8.7697    3.8470   35.4924 C   0  0  0  0  0  0  0  0  0  0  0  0
    8.9355    2.4726   35.2392 C   0  0  0  0  0  0  0  0  0  0  0  0
    8.2909    1.7413   34.4918 O   0  0  0  0  0  0  0  0  0  0  0  0
    7.8307    4.7160   34.9555 N   0  0  0  0  0  0  0  0  0  0  0  0
    8.0850    5.9265   35.5120 C   0  0  0  0  0  0  0  0  0  0  0  0
    9.0873    5.9175   36.3487 N   0  0  0  0  0  0  0  0  0  0  0  0
  1  2  1  0  0  0  0
  2  3  1  0  0  0  0
  2  9  1  0  0  0  0
  3  4  2  0  0  0  0
  3  6  1  0  0  0  0
  6  5  1  0  0  0  0
  6  7  1  0  0  0  0
  7  8  2  0  0  0  0
  7 13  1  0  0  0  0
  8  9  1  0  0  0  0
  8 11  1  0  0  0  0
  9 10  2  0  0  0  0
 11 12  1  0  0  0  0
 12 13  2  0  0  0  0
M  END
>  <CHROM.1>
9.63742865,3.45478625,36.10732857,0.91193557,0.67772000,-2.86413845

>  <Name>
1o15_lig

>  <RI>
0

>  <Rbt.Current_Directory>
/home/itssahil/PROJECTS/Mol_Feturizer/New_Systems/rnas/1o15

>  <Rbt.Executable>
rbdock ($Id: //depot/dev/client3/rdock/2013.1/src/exe/rbdock.cxx#4 $)

>  <Rbt.Library>
libRbt.so (2013.1, Build901 2013/11/27)

>  <Rbt.Parameter_File>
/export/apps/rDock/src/rDock_2013.1_src/data/scripts/dock_solv.prm

>  <Rbt.Receptor>
prm/blind_docking_80.prm

>  <SCORE>
-22.4355

>  <SCORE.INTER>
-22.4355

>  <SCORE.INTER.CONST>
1

>  <SCORE.INTER.POLAR>
-2.13336

>  <SCORE.INTER.ROT>
0

>  <SCORE.INTER.SOLV>
5.75164

>  <SCORE.INTER.VDW>
-13.363

>  <SCORE.INTER.norm>
-1.72581

>  <SCORE.INTRA>
0

>  <SCORE.INTRA.DIHEDRAL>
0

>  <SCORE.INTRA.DIHEDRAL.0>
0

>  <SCORE.INTRA.POLAR>
0

>  <SCORE.INTRA.POLAR.0>
0

>  <SCORE.INTRA.REPUL>
0

>  <SCORE.INTRA.REPUL.0>
0

>  <SCORE.INTRA.SOLV>
0

>  <SCORE.INTRA.SOLV.lig_0>
-12.9184

>  <SCORE.INTRA.VDW>
0

>  <SCORE.INTRA.VDW.0>
0

>  <SCORE.INTRA.norm>
0

>  <SCORE.RESTR>
0

>  <SCORE.RESTR.CAVITY>
0

>  <SCORE.RESTR.norm>
0

>  <SCORE.SYSTEM>
0

>  <SCORE.SYSTEM.CONST>
0

>  <SCORE.SYSTEM.DIHEDRAL>
0

>  <SCORE.SYSTEM.SOLV>
0

>  <SCORE.SYSTEM.norm>
0

>  <SCORE.heavy>
13

>  <SCORE.norm>
-1.72581

>  <RMSD>
1.267

$$$$
1o15_lig
 OpenBabel11021811403D
libRbt.so/2013.1/901 2013/11/27
 13 14  0  0  0  0  0  0  0  0999 V2000
   10.1266    1.0148   36.0537 C   0  0  0  0  0  0  0  0  0  0  0  0
    9.7364    2.3313   36.1637 N   0  0  0  0  0  0  0  0  0  0  0  0
   10.4021    3.1159   37.0513 C   0  0  0  0  0  0  0  0  0  0  0  0
   11.2998    2.5674   37.6854 O   0  0  0  0  0  0  0  0  0  0  0  0
   10.8248    5.2095   38.1856 C   0  0  0  0  0  0  0  0  0  0  0  0
   10.1346    4.4377   37.2755 N   0  0  0  0  0  0  0  0  0  0  0  0
    9.1175    4.9125   36.5066 C   0  0  0  0  0  0  0  0  0  0  0  0
    8.4583    4.1148   35.6168 C   0  0  0  0  0  0  0  0  0  0  0  0
    8.7247    2.7536   35.3785 C   0  0  0  0  0  0  0  0  0  0  0  0
    8.1726    1.9835   34.5970 O   0  0  0  0  0  0  0  0  0  0  0  0
    7.5000    4.9232   35.0226 N   0  0  0  0  0  0  0  0  0  0  0  0
    7.6445    6.1471   35.5890 C   0  0  0  0  0  0  0  0  0  0  0  0
    8.5942    6.2010   36.4833 N   0  0  0  0  0  0  0  0  0  0  0  0
  1  2  1  0  0  0  0
  2  3  1  0  0  0  0
  2  9  1  0  0  0  0
  3  4  2  0  0  0  0
  3  6  1  0  0  0  0
  6  5  1  0  0  0  0
  6  7  1  0  0  0  0
  7  8  2  0  0  0  0
  7 13  1  0  0  0  0
  8  9  1  0  0  0  0
  8 11  1  0  0  0  0
  9 10  2  0  0  0  0
 11 12  1  0  0  0  0
 12 13  2  0  0  0  0
M  END
>  <CHROM.1>
9.31119915,3.77778165,36.28315981,0.81040020,0.71484486,-2.80052383

>  <Name>
1o15_lig

>  <RI>
0

>  <Rbt.Current_Directory>
/home/itssahil/PROJECTS/Mol_Feturizer/New_Systems/rnas/1o15

>  <Rbt.Executable>
rbdock ($Id: //depot/dev/client3/rdock/2013.1/src/exe/rbdock.cxx#4 $)

>  <Rbt.Library>
libRbt.so (2013.1, Build901 2013/11/27)

>  <Rbt.Parameter_File>
/export/apps/rDock/src/rDock_2013.1_src/data/scripts/dock_solv.prm

>  <Rbt.Receptor>
prm/pocket_docking_3.prm

>  <SCORE>
-22.6318

>  <SCORE.INTER>
-22.6318

>  <SCORE.INTER.CONST>
1

>  <SCORE.INTER.POLAR>
-2.08887

>  <SCORE.INTER.ROT>
0

>  <SCORE.INTER.SOLV>
6.00631

>  <SCORE.INTER.VDW>
-13.727

>  <SCORE.INTER.norm>
-1.7409

>  <SCORE.INTRA>
0

>  <SCORE.INTRA.DIHEDRAL>
0

>  <SCORE.INTRA.DIHEDRAL.0>
0

>  <SCORE.INTRA.POLAR>
0

>  <SCORE.INTRA.POLAR.0>
0

>  <SCORE.INTRA.REPUL>
0

>  <SCORE.INTRA.REPUL.0>
0

>  <SCORE.INTRA.SOLV>
0

>  <SCORE.INTRA.SOLV.lig_0>
-12.9184

>  <SCORE.INTRA.VDW>
0

>  <SCORE.INTRA.VDW.0>
0

>  <SCORE.INTRA.norm>
0

>  <SCORE.RESTR>
0

>  <SCORE.RESTR.CAVITY>
0

>  <SCORE.RESTR.norm>
0

>  <SCORE.SYSTEM>
0

>  <SCORE.SYSTEM.CONST>
0

>  <SCORE.SYSTEM.DIHEDRAL>
0

>  <SCORE.SYSTEM.SOLV>
0

>  <SCORE.SYSTEM.norm>
0

>  <SCORE.heavy>
13

>  <SCORE.norm>
-1.7409

>  <RMSD>
1.279

$$$$
1o15_lig
 OpenBabel11021811403D
libRbt.so/2013.1/901 2013/11/27
 13 14  0  0  0  0  0  0  0  0999 V2000
    8.1586    0.8320   37.3402 C   0  0  0  0  0  0  0  0  0  0  0  0
    8.5812    2.0870   36.9609 N   0  0  0  0  0  0  0  0  0  0  0  0
    9.2617    2.8279   37.8745 C   0  0  0  0  0  0  0  0  0  0  0  0
    9.4344    2.3023   38.9712 O   0  0  0  0  0  0  0  0  0  0  0  0
   10.4301    4.8175   38.5988 C   0  0  0  0  0  0  0  0  0  0  0  0
    9.7452    4.0870   37.6514 N   0  0  0  0  0  0  0  0  0  0  0  0
    9.4813    4.5437   36.3972 C   0  0  0  0  0  0  0  0  0  0  0  0
    8.7989    3.7889   35.4878 C   0  0  0  0  0  0  0  0  0  0  0  0
    8.2964    2.4927   35.7068 C   0  0  0  0  0  0  0  0  0  0  0  0
    7.6776    1.7633   34.9361 O   0  0  0  0  0  0  0  0  0  0  0  0
    8.7165    4.5635   34.3397 N   0  0  0  0  0  0  0  0  0  0  0  0
    9.3514    5.7262   34.6306 C   0  0  0  0  0  0  0  0  0  0  0  0
    9.8278    5.7725   35.8454 N   0  0  0  0  0  0  0  0  0  0  0  0
  1  2  1  0  0  0  0
  2  3  1  0  0  0  0
  2  9  1  0  0  0  0
  3  4  2  0  0  0  0
  3  6  1  0  0  0  0
  6  5  1  0  0  0  0
  6  7  1  0  0  0  0
  7  8  2  0  0  0  0
  7 13  1  0  0  0  0
  8  9  1  0  0  0  0
  8 11  1  0  0  0  0
  9 10  2  0  0  0  0
 11 12  1  0  0  0  0
 12 13  2  0  0  0  0
M  END
>  <CHROM.1>
9.04848316,3.46393752,36.54477966,1.84703803,1.03997432,2.26432667

>  <Name>
1o15_lig

>  <RI>
0

>  <Rbt.Current_Directory>
/home/itssahil/PROJECTS/Mol_Feturizer/New_Systems/rnas/1o15

>  <Rbt.Executable>
rbdock ($Id: //depot/dev/client3/rdock/2013.1/src/exe/rbdock.cxx#4 $)

>  <Rbt.Library>
libRbt.so (2013.1, Build901 2013/11/27)

>  <Rbt.Parameter_File>
/export/apps/rDock/src/rDock_2013.1_src/data/scripts/dock_solv.prm

>  <Rbt.Receptor>
prm/blind_docking_60.prm

>  <SCORE>
-21.6863

>  <SCORE.INTER>
-21.9388

>  <SCORE.INTER.CONST>
1

>  <SCORE.INTER.POLAR>
-2.13132

>  <SCORE.INTER.ROT>
0

>  <SCORE.INTER.SOLV>
7.07983

>  <SCORE.INTER.VDW>
-13.4814

>  <SCORE.INTER.norm>
-1.6876

>  <SCORE.INTRA>
0

>  <SCORE.INTRA.DIHEDRAL>
0

>  <SCORE.INTRA.DIHEDRAL.0>
0

>  <SCORE.INTRA.POLAR>
0

>  <SCORE.INTRA.POLAR.0>
0

>  <SCORE.INTRA.REPUL>
0

>  <SCORE.INTRA.REPUL.0>
0

>  <SCORE.INTRA.SOLV>
0

>  <SCORE.INTRA.SOLV.lig_0>
-12.9184

>  <SCORE.INTRA.VDW>
0

>  <SCORE.INTRA.VDW.0>
0

>  <SCORE.INTRA.norm>
0

>  <SCORE.RESTR>
0.252437

>  <SCORE.RESTR.CAVITY>
0.252437

>  <SCORE.RESTR.norm>
0.0194182

>  <SCORE.SYSTEM>
0

>  <SCORE.SYSTEM.CONST>
0

>  <SCORE.SYSTEM.DIHEDRAL>
0

>  <SCORE.SYSTEM.SOLV>
0

>  <SCORE.SYSTEM.norm>
0

>  <SCORE.heavy>
13

>  <SCORE.norm>
-1.66818

>  <RMSD>
1.285

$$$$
1o15_lig
 OpenBabel11021811403D
libRbt.so/2013.1/901 2013/11/27
 13 14  0  0  0  0  0  0  0  0999 V2000
   10.1093    1.0185   36.0471 C   0  0  0  0  0  0  0  0  0  0  0  0
    9.7295    2.3380   36.1573 N   0  0  0  0  0  0  0  0  0  0  0  0
   10.3983    3.1161   37.0483 C   0  0  0  0  0  0  0  0  0  0  0  0
   11.2892    2.5595   37.6849 O   0  0  0  0  0  0  0  0  0  0  0  0
   10.8339    5.2048   38.1867 C   0  0  0  0  0  0  0  0  0  0  0  0
   10.1407    4.4397   37.2732 N   0  0  0  0  0  0  0  0  0  0  0  0
    9.1303    4.9237   36.5013 C   0  0  0  0  0  0  0  0  0  0  0  0
    8.4679    4.1325   35.6081 C   0  0  0  0  0  0  0  0  0  0  0  0
    8.7241    2.7695   35.3691 C   0  0  0  0  0  0  0  0  0  0  0  0
    8.1685    2.0048   34.5846 O   0  0  0  0  0  0  0  0  0  0  0  0
    7.5183    4.9494   35.0114 N   0  0  0  0  0  0  0  0  0  0  0  0
    7.6707    6.1714   35.5799 C   0  0  0  0  0  0  0  0  0  0  0  0
    8.6176    6.2164   36.4777 N   0  0  0  0  0  0  0  0  0  0  0  0
  1  2  1  0  0  0  0
  2  3  1  0  0  0  0
  2  9  1  0  0  0  0
  3  4  2  0  0  0  0
  3  6  1  0  0  0  0
  6  5  1  0  0  0  0
  6  7  1  0  0  0  0
  7  8  2  0  0  0  0
  7 13  1  0  0  0  0
  8  9  1  0  0  0  0
  8 11  1  0  0  0  0
  9 10  2  0  0  0  0
 11 12  1  0  0  0  0
 12 13  2  0  0  0  0
M  END
>  <CHROM.1>
9.31557262,3.78772620,36.27709484,0.81899320,0.72094150,-2.80494595

>  <Name>
1o15_lig

>  <RI>
0

>  <Rbt.Current_Directory>
/home/itssahil/PROJECTS/Mol_Feturizer/New_Systems/rnas/1o15

>  <Rbt.Executable>
rbdock ($Id: //depot/dev/client3/rdock/2013.1/src/exe/rbdock.cxx#4 $)

>  <Rbt.Library>
libRbt.so (2013.1, Build901 2013/11/27)

>  <Rbt.Parameter_File>
/export/apps/rDock/src/rDock_2013.1_src/data/scripts/dock_solv.prm

>  <Rbt.Receptor>
prm/pocket_docking_3.prm

>  <SCORE>
-22.6928

>  <SCORE.INTER>
-22.6928

>  <SCORE.INTER.CONST>
1

>  <SCORE.INTER.POLAR>
-2.10806

>  <SCORE.INTER.ROT>
0

>  <SCORE.INTER.SOLV>
5.98204

>  <SCORE.INTER.VDW>
-13.6957

>  <SCORE.INTER.norm>
-1.7456

>  <SCORE.INTRA>
0

>  <SCORE.INTRA.DIHEDRAL>
0

>  <SCORE.INTRA.DIHEDRAL.0>
0

>  <SCORE.INTRA.POLAR>
0

>  <SCORE.INTRA.POLAR.0>
0

>  <SCORE.INTRA.REPUL>
0

>  <SCORE.INTRA.REPUL.0>
0

>  <SCORE.INTRA.SOLV>
0

>  <SCORE.INTRA.SOLV.lig_0>
-12.9184

>  <SCORE.INTRA.VDW>
0

>  <SCORE.INTRA.VDW.0>
0

>  <SCORE.INTRA.norm>
0

>  <SCORE.RESTR>
0

>  <SCORE.RESTR.CAVITY>
0

>  <SCORE.RESTR.norm>
0

>  <SCORE.SYSTEM>
0

>  <SCORE.SYSTEM.CONST>
0

>  <SCORE.SYSTEM.DIHEDRAL>
0

>  <SCORE.SYSTEM.SOLV>
0

>  <SCORE.SYSTEM.norm>
0

>  <SCORE.heavy>
13

>  <SCORE.norm>
-1.7456

>  <RMSD>
1.285

$$$$
1o15_lig
 OpenBabel11021811403D
libRbt.so/2013.1/901 2013/11/27
 13 14  0  0  0  0  0  0  0  0999 V2000
    8.6241    0.8632   36.9995 C   0  0  0  0  0  0  0  0  0  0  0  0
    8.6010    2.2348   36.8745 N   0  0  0  0  0  0  0  0  0  0  0  0
    9.3328    2.9627   37.7584 C   0  0  0  0  0  0  0  0  0  0  0  0
    9.9519    2.3190   38.6018 O   0  0  0  0  0  0  0  0  0  0  0  0
   10.1614    5.0406   38.6772 C   0  0  0  0  0  0  0  0  0  0  0  0
    9.4127    4.3274   37.7655 N   0  0  0  0  0  0  0  0  0  0  0  0
    8.6776    4.9085   36.7791 C   0  0  0  0  0  0  0  0  0  0  0  0
    7.9486    4.1662   35.8958 C   0  0  0  0  0  0  0  0  0  0  0  0
    7.8587    2.7619   35.8797 C   0  0  0  0  0  0  0  0  0  0  0  0
    7.2248    2.0368   35.1172 O   0  0  0  0  0  0  0  0  0  0  0  0
    7.3382    5.0795   35.0483 N   0  0  0  0  0  0  0  0  0  0  0  0
    7.7378    6.3041   35.4732 C   0  0  0  0  0  0  0  0  0  0  0  0
    8.5377    6.2648   36.5044 N   0  0  0  0  0  0  0  0  0  0  0  0
  1  2  1  0  0  0  0
  2  3  1  0  0  0  0
  2  9  1  0  0  0  0
  3  4  2  0  0  0  0
  3  6  1  0  0  0  0
  6  5  1  0  0  0  0
  6  7  1  0  0  0  0
  7  8  2  0  0  0  0
  7 13  1  0  0  0  0
  8  9  1  0  0  0  0
  8 11  1  0  0  0  0
  9 10  2  0  0  0  0
 11 12  1  0  0  0  0
 12 13  2  0  0  0  0
M  END
>  <CHROM.1>
8.57897197,3.74079308,36.73646003,1.16788332,0.90816565,3.07053780

>  <Name>
1o15_lig

>  <RI>
224

>  <Rbt.Current_Directory>
/home/itssahil/PROJECTS/Mol_Feturizer/New_Systems/rnas/1o15

>  <Rbt.Executable>
rbdock ($Id: //depot/dev/client3/rdock/2013.1/src/exe/rbdock.cxx#4 $)

>  <Rbt.Library>
libRbt.so (2013.1, Build901 2013/11/27)

>  <Rbt.Parameter_File>
/export/apps/rDock/src/rDock_2013.1_src/data/scripts/dock_solv.prm

>  <Rbt.Receptor>
prm/blind_docking_100.prm

>  <SCORE>
-22.5213

>  <SCORE.INTER>
-22.6641

>  <SCORE.INTER.CONST>
1

>  <SCORE.INTER.POLAR>
-2.07885

>  <SCORE.INTER.ROT>
0

>  <SCORE.INTER.SOLV>
7.46135

>  <SCORE.INTER.VDW>
-14.267

>  <SCORE.INTER.norm>
-1.74339

>  <SCORE.INTRA>
0

>  <SCORE.INTRA.DIHEDRAL>
0

>  <SCORE.INTRA.DIHEDRAL.0>
0

>  <SCORE.INTRA.POLAR>
0

>  <SCORE.INTRA.POLAR.0>
0

>  <SCORE.INTRA.REPUL>
0

>  <SCORE.INTRA.REPUL.0>
0

>  <SCORE.INTRA.SOLV>
0

>  <SCORE.INTRA.SOLV.lig_0>
-12.9184

>  <SCORE.INTRA.VDW>
0

>  <SCORE.INTRA.VDW.0>
0

>  <SCORE.INTRA.norm>
0

>  <SCORE.RESTR>
0.14274

>  <SCORE.RESTR.CAVITY>
0.14274

>  <SCORE.RESTR.norm>
0.01098

>  <SCORE.SYSTEM>
0

>  <SCORE.SYSTEM.CONST>
0

>  <SCORE.SYSTEM.DIHEDRAL>
0

>  <SCORE.SYSTEM.SOLV>
0

>  <SCORE.SYSTEM.norm>
0

>  <SCORE.heavy>
13

>  <SCORE.norm>
-1.73241

>  <RMSD>
1.300

$$$$
1o15_lig
 OpenBabel11021811403D
libRbt.so/2013.1/901 2013/11/27
 13 14  0  0  0  0  0  0  0  0999 V2000
   10.1604    1.0356   36.0084 C   0  0  0  0  0  0  0  0  0  0  0  0
    9.7645    2.3492   36.1301 N   0  0  0  0  0  0  0  0  0  0  0  0
   10.4325    3.1313   37.0182 C   0  0  0  0  0  0  0  0  0  0  0  0
   11.3376    2.5832   37.6420 O   0  0  0  0  0  0  0  0  0  0  0  0
   10.8528    5.2194   38.1635 C   0  0  0  0  0  0  0  0  0  0  0  0
   10.1600    4.4502   37.2532 N   0  0  0  0  0  0  0  0  0  0  0  0
    9.1349    4.9249   36.4949 C   0  0  0  0  0  0  0  0  0  0  0  0
    8.4734    4.1298   35.6045 C   0  0  0  0  0  0  0  0  0  0  0  0
    8.7450    2.7717   35.3551 C   0  0  0  0  0  0  0  0  0  0  0  0
    8.1911    2.0040   34.5724 O   0  0  0  0  0  0  0  0  0  0  0  0
    7.5067    4.9373   35.0227 N   0  0  0  0  0  0  0  0  0  0  0  0
    7.6491    6.1581   35.5963 C   0  0  0  0  0  0  0  0  0  0  0  0
    8.6050    6.2108   36.4841 N   0  0  0  0  0  0  0  0  0  0  0  0
  1  2  1  0  0  0  0
  2  3  1  0  0  0  0
  2  9  1  0  0  0  0
  3  4  2  0  0  0  0
  3  6  1  0  0  0  0
  6  5  1  0  0  0  0
  6  7  1  0  0  0  0
  7  8  2  0  0  0  0
  7 13  1  0  0  0  0
  8  9  1  0  0  0  0
  8 11  1  0  0  0  0
  9 10  2  0  0  0  0
 11 12  1  0  0  0  0
 12 13  2  0  0  0  0
M  END
>  <CHROM.1>
9.33275725,3.79272801,36.26240559,0.80730133,0.70632239,-2.79176813

>  <Name>
1o15_lig

>  <RI>
0

>  <Rbt.Current_Directory>
/home/itssahil/PROJECTS/Mol_Feturizer/New_Systems/rnas/1o15

>  <Rbt.Executable>
rbdock ($Id: //depot/dev/client3/rdock/2013.1/src/exe/rbdock.cxx#4 $)

>  <Rbt.Library>
libRbt.so (2013.1, Build901 2013/11/27)

>  <Rbt.Parameter_File>
/export/apps/rDock/src/rDock_2013.1_src/data/scripts/dock_solv.prm

>  <Rbt.Receptor>
prm/pocket_docking_8.prm

>  <SCORE>
-22.7617

>  <SCORE.INTER>
-22.7617

>  <SCORE.INTER.CONST>
1

>  <SCORE.INTER.POLAR>
-2.08632

>  <SCORE.INTER.ROT>
0

>  <SCORE.INTER.SOLV>
6.08103

>  <SCORE.INTER.VDW>
-13.8471

>  <SCORE.INTER.norm>
-1.7509

>  <SCORE.INTRA>
0

>  <SCORE.INTRA.DIHEDRAL>
0

>  <SCORE.INTRA.DIHEDRAL.0>
0

>  <SCORE.INTRA.POLAR>
0

>  <SCORE.INTRA.POLAR.0>
0

>  <SCORE.INTRA.REPUL>
0

>  <SCORE.INTRA.REPUL.0>
0

>  <SCORE.INTRA.SOLV>
0

>  <SCORE.INTRA.SOLV.lig_0>
-12.9184

>  <SCORE.INTRA.VDW>
0

>  <SCORE.INTRA.VDW.0>
0

>  <SCORE.INTRA.norm>
0

>  <SCORE.RESTR>
0

>  <SCORE.RESTR.CAVITY>
0

>  <SCORE.RESTR.norm>
0

>  <SCORE.SYSTEM>
0

>  <SCORE.SYSTEM.CONST>
0

>  <SCORE.SYSTEM.DIHEDRAL>
0

>  <SCORE.SYSTEM.SOLV>
0

>  <SCORE.SYSTEM.norm>
0

>  <SCORE.heavy>
13

>  <SCORE.norm>
-1.7509

>  <RMSD>
1.304

$$$$
1o15_lig
 OpenBabel11021811403D
libRbt.so/2013.1/901 2013/11/27
 13 14  0  0  0  0  0  0  0  0999 V2000
    8.5867    0.8536   36.9880 C   0  0  0  0  0  0  0  0  0  0  0  0
    8.5780    2.2258   36.8678 N   0  0  0  0  0  0  0  0  0  0  0  0
    9.3117    2.9432   37.7588 C   0  0  0  0  0  0  0  0  0  0  0  0
    9.9192    2.2903   38.6035 O   0  0  0  0  0  0  0  0  0  0  0  0
   10.1553    5.0094   38.6901 C   0  0  0  0  0  0  0  0  0  0  0  0
    9.4051    4.3070   37.7713 N   0  0  0  0  0  0  0  0  0  0  0  0
    8.6818    4.8989   36.7826 C   0  0  0  0  0  0  0  0  0  0  0  0
    7.9509    4.1671   35.8922 C   0  0  0  0  0  0  0  0  0  0  0  0
    7.8471    2.7638   35.8704 C   0  0  0  0  0  0  0  0  0  0  0  0
    7.2107    2.0479   35.1015 O   0  0  0  0  0  0  0  0  0  0  0  0
    7.3548    5.0895   35.0443 N   0  0  0  0  0  0  0  0  0  0  0  0
    7.7639    6.3084   35.4761 C   0  0  0  0  0  0  0  0  0  0  0  0
    8.5572    6.2575   36.5120 N   0  0  0  0  0  0  0  0  0  0  0  0
  1  2  1  0  0  0  0
  2  3  1  0  0  0  0
  2  9  1  0  0  0  0
  3  4  2  0  0  0  0
  3  6  1  0  0  0  0
  6  5  1  0  0  0  0
  6  7  1  0  0  0  0
  7  8  2  0  0  0  0
  7 13  1  0  0  0  0
  8  9  1  0  0  0  0
  8 11  1  0  0  0  0
  9 10  2  0  0  0  0
 11 12  1  0  0  0  0
 12 13  2  0  0  0  0
M  END
>  <CHROM.1>
8.57185719,3.73240659,36.73510563,1.18484541,0.91347372,3.06074817

>  <Name>
1o15_lig

>  <RI>
224

>  <Rbt.Current_Directory>
/home/itssahil/PROJECTS/Mol_Feturizer/New_Systems/rnas/1o15

>  <Rbt.Executable>
rbdock ($Id: //depot/dev/client3/rdock/2013.1/src/exe/rbdock.cxx#4 $)

>  <Rbt.Library>
libRbt.so (2013.1, Build901 2013/11/27)

>  <Rbt.Parameter_File>
/export/apps/rDock/src/rDock_2013.1_src/data/scripts/dock_solv.prm

>  <Rbt.Receptor>
prm/blind_docking_100.prm

>  <SCORE>
-22.458

>  <SCORE.INTER>
-22.5795

>  <SCORE.INTER.CONST>
1

>  <SCORE.INTER.POLAR>
-2.0966

>  <SCORE.INTER.ROT>
0

>  <SCORE.INTER.SOLV>
7.47626

>  <SCORE.INTER.VDW>
-14.1564

>  <SCORE.INTER.norm>
-1.73688

>  <SCORE.INTRA>
0

>  <SCORE.INTRA.DIHEDRAL>
0

>  <SCORE.INTRA.DIHEDRAL.0>
0

>  <SCORE.INTRA.POLAR>
0

>  <SCORE.INTRA.POLAR.0>
0

>  <SCORE.INTRA.REPUL>
0

>  <SCORE.INTRA.REPUL.0>
0

>  <SCORE.INTRA.SOLV>
0

>  <SCORE.INTRA.SOLV.lig_0>
-12.9184

>  <SCORE.INTRA.VDW>
0

>  <SCORE.INTRA.VDW.0>
0

>  <SCORE.INTRA.norm>
0

>  <SCORE.RESTR>
0.121505

>  <SCORE.RESTR.CAVITY>
0.121505

>  <SCORE.RESTR.norm>
0.00934652

>  <SCORE.SYSTEM>
0

>  <SCORE.SYSTEM.CONST>
0

>  <SCORE.SYSTEM.DIHEDRAL>
0

>  <SCORE.SYSTEM.SOLV>
0

>  <SCORE.SYSTEM.norm>
0

>  <SCORE.heavy>
13

>  <SCORE.norm>
-1.72754

>  <RMSD>
1.308

$$$$
1o15_lig
 OpenBabel11021811403D
libRbt.so/2013.1/901 2013/11/27
 13 14  0  0  0  0  0  0  0  0999 V2000
   10.1583    1.0356   36.0065 C   0  0  0  0  0  0  0  0  0  0  0  0
    9.7630    2.3498   36.1249 N   0  0  0  0  0  0  0  0  0  0  0  0
   10.4377    3.1363   37.0042 C   0  0  0  0  0  0  0  0  0  0  0  0
   11.3477    2.5912   37.6237 O   0  0  0  0  0  0  0  0  0  0  0  0
   10.8663    5.2298   38.1362 C   0  0  0  0  0  0  0  0  0  0  0  0
   10.1667    4.4562   37.2349 N   0  0  0  0  0  0  0  0  0  0  0  0
    9.1358    4.9271   36.4823 C   0  0  0  0  0  0  0  0  0  0  0  0
    8.4676    4.1277   35.6008 C   0  0  0  0  0  0  0  0  0  0  0  0
    8.7375    2.7684   35.3558 C   0  0  0  0  0  0  0  0  0  0  0  0
    8.1778    1.9969   34.5810 O   0  0  0  0  0  0  0  0  0  0  0  0
    7.4963    4.9323   35.0226 N   0  0  0  0  0  0  0  0  0  0  0  0
    7.6428    6.1558   35.5892 C   0  0  0  0  0  0  0  0  0  0  0  0
    8.6055    6.2129   36.4694 N   0  0  0  0  0  0  0  0  0  0  0  0
  1  2  1  0  0  0  0
  2  3  1  0  0  0  0
  2  9  1  0  0  0  0
  3  4  2  0  0  0  0
  3  6  1  0  0  0  0
  6  5  1  0  0  0  0
  6  7  1  0  0  0  0
  7  8  2  0  0  0  0
  7 13  1  0  0  0  0
  8  9  1  0  0  0  0
  8 11  1  0  0  0  0
  9 10  2  0  0  0  0
 11 12  1  0  0  0  0
 12 13  2  0  0  0  0
M  END
>  <CHROM.1>
9.33205197,3.79387349,36.25368806,0.81050433,0.69904310,-2.79861256

>  <Name>
1o15_lig

>  <RI>
0

>  <Rbt.Current_Directory>
/home/itssahil/PROJECTS/Mol_Feturizer/New_Systems/rnas/1o15

>  <Rbt.Executable>
rbdock ($Id: //depot/dev/client3/rdock/2013.1/src/exe/rbdock.cxx#4 $)

>  <Rbt.Library>
libRbt.so (2013.1, Build901 2013/11/27)

>  <Rbt.Parameter_File>
/export/apps/rDock/src/rDock_2013.1_src/data/scripts/dock_solv.prm

>  <Rbt.Receptor>
prm/pocket_docking_7.prm

>  <SCORE>
-22.7481

>  <SCORE.INTER>
-22.7481

>  <SCORE.INTER.CONST>
1

>  <SCORE.INTER.POLAR>
-2.06555

>  <SCORE.INTER.ROT>
0

>  <SCORE.INTER.SOLV>
6.11407

>  <SCORE.INTER.VDW>
-13.9182

>  <SCORE.INTER.norm>
-1.74985

>  <SCORE.INTRA>
0

>  <SCORE.INTRA.DIHEDRAL>
0

>  <SCORE.INTRA.DIHEDRAL.0>
0

>  <SCORE.INTRA.POLAR>
0

>  <SCORE.INTRA.POLAR.0>
0

>  <SCORE.INTRA.REPUL>
0

>  <SCORE.INTRA.REPUL.0>
0

>  <SCORE.INTRA.SOLV>
0

>  <SCORE.INTRA.SOLV.lig_0>
-12.9184

>  <SCORE.INTRA.VDW>
0

>  <SCORE.INTRA.VDW.0>
0

>  <SCORE.INTRA.norm>
0

>  <SCORE.RESTR>
0

>  <SCORE.RESTR.CAVITY>
0

>  <SCORE.RESTR.norm>
0

>  <SCORE.SYSTEM>
0

>  <SCORE.SYSTEM.CONST>
0

>  <SCORE.SYSTEM.DIHEDRAL>
0

>  <SCORE.SYSTEM.SOLV>
0

>  <SCORE.SYSTEM.norm>
0

>  <SCORE.heavy>
13

>  <SCORE.norm>
-1.74985

>  <RMSD>
1.310

$$$$
1o15_lig
 OpenBabel11021811403D
libRbt.so/2013.1/901 2013/11/27
 13 14  0  0  0  0  0  0  0  0999 V2000
    8.5822    0.8551   36.9868 C   0  0  0  0  0  0  0  0  0  0  0  0
    8.5747    2.2273   36.8669 N   0  0  0  0  0  0  0  0  0  0  0  0
    9.3086    2.9439   37.7584 C   0  0  0  0  0  0  0  0  0  0  0  0
    9.9151    2.2903   38.6033 O   0  0  0  0  0  0  0  0  0  0  0  0
   10.1535    5.0092   38.6906 C   0  0  0  0  0  0  0  0  0  0  0  0
    9.4031    4.3076   37.7713 N   0  0  0  0  0  0  0  0  0  0  0  0
    8.6809    4.9003   36.7823 C   0  0  0  0  0  0  0  0  0  0  0  0
    7.9497    4.1693   35.8914 C   0  0  0  0  0  0  0  0  0  0  0  0
    7.8448    2.7661   35.8693 C   0  0  0  0  0  0  0  0  0  0  0  0
    7.2080    2.0509   35.0999 O   0  0  0  0  0  0  0  0  0  0  0  0
    7.3548    5.0925   35.0435 N   0  0  0  0  0  0  0  0  0  0  0  0
    7.7648    6.3109   35.4757 C   0  0  0  0  0  0  0  0  0  0  0  0
    8.5575    6.2591   36.5119 N   0  0  0  0  0  0  0  0  0  0  0  0
  1  2  1  0  0  0  0
  2  3  1  0  0  0  0
  2  9  1  0  0  0  0
  3  4  2  0  0  0  0
  3  6  1  0  0  0  0
  6  5  1  0  0  0  0
  6  7  1  0  0  0  0
  7  8  2  0  0  0  0
  7 13  1  0  0  0  0
  8  9  1  0  0  0  0
  8 11  1  0  0  0  0
  9 10  2  0  0  0  0
 11 12  1  0  0  0  0
 12 13  2  0  0  0  0
M  END
>  <CHROM.1>
8.56989002,3.73394984,36.73451984,1.18631140,0.91387670,3.05980380

>  <Name>
1o15_lig

>  <RI>
224

>  <Rbt.Current_Directory>
/home/itssahil/PROJECTS/Mol_Feturizer/New_Systems/rnas/1o15

>  <Rbt.Executable>
rbdock ($Id: //depot/dev/client3/rdock/2013.1/src/exe/rbdock.cxx#4 $)

>  <Rbt.Library>
libRbt.so (2013.1, Build901 2013/11/27)

>  <Rbt.Parameter_File>
/export/apps/rDock/src/rDock_2013.1_src/data/scripts/dock_solv.prm

>  <Rbt.Receptor>
prm/blind_docking_100.prm

>  <SCORE>
-22.4406

>  <SCORE.INTER>
-22.5567

>  <SCORE.INTER.CONST>
1

>  <SCORE.INTER.POLAR>
-2.09628

>  <SCORE.INTER.ROT>
0

>  <SCORE.INTER.SOLV>
7.48598

>  <SCORE.INTER.VDW>
-14.1456

>  <SCORE.INTER.norm>
-1.73513

>  <SCORE.INTRA>
0

>  <SCORE.INTRA.DIHEDRAL>
0

>  <SCORE.INTRA.DIHEDRAL.0>
0

>  <SCORE.INTRA.POLAR>
0

>  <SCORE.INTRA.POLAR.0>
0

>  <SCORE.INTRA.REPUL>
0

>  <SCORE.INTRA.REPUL.0>
0

>  <SCORE.INTRA.SOLV>
0

>  <SCORE.INTRA.SOLV.lig_0>
-12.9184

>  <SCORE.INTRA.VDW>
0

>  <SCORE.INTRA.VDW.0>
0

>  <SCORE.INTRA.norm>
0

>  <SCORE.RESTR>
0.116123

>  <SCORE.RESTR.CAVITY>
0.116123

>  <SCORE.RESTR.norm>
0.00893254

>  <SCORE.SYSTEM>
0

>  <SCORE.SYSTEM.CONST>
0

>  <SCORE.SYSTEM.DIHEDRAL>
0

>  <SCORE.SYSTEM.SOLV>
0

>  <SCORE.SYSTEM.norm>
0

>  <SCORE.heavy>
13

>  <SCORE.norm>
-1.7262

>  <RMSD>
1.311

$$$$
1o15_lig
 OpenBabel11021811403D
libRbt.so/2013.1/901 2013/11/27
 13 14  0  0  0  0  0  0  0  0999 V2000
    8.5847    0.8563   36.9859 C   0  0  0  0  0  0  0  0  0  0  0  0
    8.5763    2.2285   36.8663 N   0  0  0  0  0  0  0  0  0  0  0  0
    9.3097    2.9454   37.7578 C   0  0  0  0  0  0  0  0  0  0  0  0
    9.9167    2.2921   38.6026 O   0  0  0  0  0  0  0  0  0  0  0  0
   10.1532    5.0112   38.6903 C   0  0  0  0  0  0  0  0  0  0  0  0
    9.4033    4.3092   37.7709 N   0  0  0  0  0  0  0  0  0  0  0  0
    8.6805    4.9016   36.7821 C   0  0  0  0  0  0  0  0  0  0  0  0
    7.9498    4.1702   35.8912 C   0  0  0  0  0  0  0  0  0  0  0  0
    7.8459    2.7669   35.8688 C   0  0  0  0  0  0  0  0  0  0  0  0
    7.2096    2.0514   35.0993 O   0  0  0  0  0  0  0  0  0  0  0  0
    7.3543    5.0931   35.0434 N   0  0  0  0  0  0  0  0  0  0  0  0
    7.7634    6.3118   35.4758 C   0  0  0  0  0  0  0  0  0  0  0  0
    8.5562    6.2603   36.5119 N   0  0  0  0  0  0  0  0  0  0  0  0
  1  2  1  0  0  0  0
  2  3  1  0  0  0  0
  2  9  1  0  0  0  0
  3  4  2  0  0  0  0
  3  6  1  0  0  0  0
  6  5  1  0  0  0  0
  6  7  1  0  0  0  0
  7  8  2  0  0  0  0
  7 13  1  0  0  0  0
  8  9  1  0  0  0  0
  8 11  1  0  0  0  0
  9 10  2  0  0  0  0
 11 12  1  0  0  0  0
 12 13  2  0  0  0  0
M  END
>  <CHROM.1>
8.57039046,3.73514351,36.73413296,1.18515175,0.91387206,3.06088156

>  <Name>
1o15_lig

>  <RI>
224

>  <Rbt.Current_Directory>
/home/itssahil/PROJECTS/Mol_Feturizer/New_Systems/rnas/1o15

>  <Rbt.Executable>
rbdock ($Id: //depot/dev/client3/rdock/2013.1/src/exe/rbdock.cxx#4 $)

>  <Rbt.Library>
libRbt.so (2013.1, Build901 2013/11/27)

>  <Rbt.Parameter_File>
/export/apps/rDock/src/rDock_2013.1_src/data/scripts/dock_solv.prm

>  <Rbt.Receptor>
prm/blind_docking_100.prm

>  <SCORE>
-22.4407

>  <SCORE.INTER>
-22.5572

>  <SCORE.INTER.CONST>
1

>  <SCORE.INTER.POLAR>
-2.09569

>  <SCORE.INTER.ROT>
0

>  <SCORE.INTER.SOLV>
7.48473

>  <SCORE.INTER.VDW>
-14.1474

>  <SCORE.INTER.norm>
-1.73517

>  <SCORE.INTRA>
0

>  <SCORE.INTRA.DIHEDRAL>
0

>  <SCORE.INTRA.DIHEDRAL.0>
0

>  <SCORE.INTRA.POLAR>
0

>  <SCORE.INTRA.POLAR.0>
0

>  <SCORE.INTRA.REPUL>
0

>  <SCORE.INTRA.REPUL.0>
0

>  <SCORE.INTRA.SOLV>
0

>  <SCORE.INTRA.SOLV.lig_0>
-12.9184

>  <SCORE.INTRA.VDW>
0

>  <SCORE.INTRA.VDW.0>
0

>  <SCORE.INTRA.norm>
0

>  <SCORE.RESTR>
0.116466

>  <SCORE.RESTR.CAVITY>
0.116466

>  <SCORE.RESTR.norm>
0.00895896

>  <SCORE.SYSTEM>
0

>  <SCORE.SYSTEM.CONST>
0

>  <SCORE.SYSTEM.DIHEDRAL>
0

>  <SCORE.SYSTEM.SOLV>
0

>  <SCORE.SYSTEM.norm>
0

>  <SCORE.heavy>
13

>  <SCORE.norm>
-1.72621

>  <RMSD>
1.311

$$$$
1o15_lig
 OpenBabel11021811403D
libRbt.so/2013.1/901 2013/11/27
 13 14  0  0  0  0  0  0  0  0999 V2000
    8.5724    0.8510   36.9909 C   0  0  0  0  0  0  0  0  0  0  0  0
    8.5670    2.2231   36.8697 N   0  0  0  0  0  0  0  0  0  0  0  0
    9.3031    2.9393   37.7596 C   0  0  0  0  0  0  0  0  0  0  0  0
    9.9096    2.2856   38.6044 O   0  0  0  0  0  0  0  0  0  0  0  0
   10.1525    5.0042   38.6887 C   0  0  0  0  0  0  0  0  0  0  0  0
    9.3999    4.3029   37.7710 N   0  0  0  0  0  0  0  0  0  0  0  0
    8.6774    4.8958   36.7823 C   0  0  0  0  0  0  0  0  0  0  0  0
    7.9440    4.1652   35.8931 C   0  0  0  0  0  0  0  0  0  0  0  0
    7.8367    2.7621   35.8724 C   0  0  0  0  0  0  0  0  0  0  0  0
    7.1979    2.0472   35.1045 O   0  0  0  0  0  0  0  0  0  0  0  0
    7.3496    5.0885   35.0450 N   0  0  0  0  0  0  0  0  0  0  0  0
    7.7620    6.3067   35.4755 C   0  0  0  0  0  0  0  0  0  0  0  0
    8.5559    6.2545   36.5108 N   0  0  0  0  0  0  0  0  0  0  0  0
  1  2  1  0  0  0  0
  2  3  1  0  0  0  0
  2  9  1  0  0  0  0
  3  4  2  0  0  0  0
  3  6  1  0  0  0  0
  6  5  1  0  0  0  0
  6  7  1  0  0  0  0
  7  8  2  0  0  0  0
  7 13  1  0  0  0  0
  8  9  1  0  0  0  0
  8 11  1  0  0  0  0
  9 10  2  0  0  0  0
 11 12  1  0  0  0  0
 12 13  2  0  0  0  0
M  END
>  <CHROM.1>
8.56450063,3.72961516,36.73585300,1.18879304,0.91252613,3.05686854

>  <Name>
1o15_lig

>  <RI>
224

>  <Rbt.Current_Directory>
/home/itssahil/PROJECTS/Mol_Feturizer/New_Systems/rnas/1o15

>  <Rbt.Executable>
rbdock ($Id: //depot/dev/client3/rdock/2013.1/src/exe/rbdock.cxx#4 $)

>  <Rbt.Library>
libRbt.so (2013.1, Build901 2013/11/27)

>  <Rbt.Parameter_File>
/export/apps/rDock/src/rDock_2013.1_src/data/scripts/dock_solv.prm

>  <Rbt.Receptor>
prm/blind_docking_100.prm

>  <SCORE>
-22.4218

>  <SCORE.INTER>
-22.5348

>  <SCORE.INTER.CONST>
1

>  <SCORE.INTER.POLAR>
-2.0908

>  <SCORE.INTER.ROT>
0

>  <SCORE.INTER.SOLV>
7.50771

>  <SCORE.INTER.VDW>
-14.1564

>  <SCORE.INTER.norm>
-1.73345

>  <SCORE.INTRA>
0

>  <SCORE.INTRA.DIHEDRAL>
0

>  <SCORE.INTRA.DIHEDRAL.0>
0

>  <SCORE.INTRA.POLAR>
0

>  <SCORE.INTRA.POLAR.0>
0

>  <SCORE.INTRA.REPUL>
0

>  <SCORE.INTRA.REPUL.0>
0

>  <SCORE.INTRA.SOLV>
0

>  <SCORE.INTRA.SOLV.lig_0>
-12.9184

>  <SCORE.INTRA.VDW>
0

>  <SCORE.INTRA.VDW.0>
0

>  <SCORE.INTRA.norm>
0

>  <SCORE.RESTR>
0.112973

>  <SCORE.RESTR.CAVITY>
0.112973

>  <SCORE.RESTR.norm>
0.00869027

>  <SCORE.SYSTEM>
0

>  <SCORE.SYSTEM.CONST>
0

>  <SCORE.SYSTEM.DIHEDRAL>
0

>  <SCORE.SYSTEM.SOLV>
0

>  <SCORE.SYSTEM.norm>
0

>  <SCORE.heavy>
13

>  <SCORE.norm>
-1.72476

>  <RMSD>
1.312

$$$$
1o15_lig
 OpenBabel11021811403D
libRbt.so/2013.1/901 2013/11/27
 13 14  0  0  0  0  0  0  0  0999 V2000
    8.5651    0.8479   36.9931 C   0  0  0  0  0  0  0  0  0  0  0  0
    8.5628    2.2200   36.8711 N   0  0  0  0  0  0  0  0  0  0  0  0
    9.3004    2.9351   37.7606 C   0  0  0  0  0  0  0  0  0  0  0  0
    9.9054    2.2805   38.6059 O   0  0  0  0  0  0  0  0  0  0  0  0
   10.1544    4.9985   38.6887 C   0  0  0  0  0  0  0  0  0  0  0  0
    9.4003    4.2984   37.7713 N   0  0  0  0  0  0  0  0  0  0  0  0
    8.6792    4.8924   36.7822 C   0  0  0  0  0  0  0  0  0  0  0  0
    7.9442    4.1629   35.8933 C   0  0  0  0  0  0  0  0  0  0  0  0
    7.8338    2.7600   35.8734 C   0  0  0  0  0  0  0  0  0  0  0  0
    7.1935    2.0461   35.1059 O   0  0  0  0  0  0  0  0  0  0  0  0
    7.3520    5.0870   35.0446 N   0  0  0  0  0  0  0  0  0  0  0  0
    7.7671    6.3045   35.4745 C   0  0  0  0  0  0  0  0  0  0  0  0
    8.5607    6.2512   36.5099 N   0  0  0  0  0  0  0  0  0  0  0  0
  1  2  1  0  0  0  0
  2  3  1  0  0  0  0
  2  9  1  0  0  0  0
  3  4  2  0  0  0  0
  3  6  1  0  0  0  0
  6  5  1  0  0  0  0
  6  7  1  0  0  0  0
  7  8  2  0  0  0  0
  7 13  1  0  0  0  0
  8  9  1  0  0  0  0
  8 11  1  0  0  0  0
  9 10  2  0  0  0  0
 11 12  1  0  0  0  0
 12 13  2  0  0  0  0
M  END
>  <CHROM.1>
8.56367250,3.72639873,36.73636499,1.19243753,0.91243259,3.05340366

>  <Name>
1o15_lig

>  <RI>
224

>  <Rbt.Current_Directory>
/home/itssahil/PROJECTS/Mol_Feturizer/New_Systems/rnas/1o15

>  <Rbt.Executable>
rbdock ($Id: //depot/dev/client3/rdock/2013.1/src/exe/rbdock.cxx#4 $)

>  <Rbt.Library>
libRbt.so (2013.1, Build901 2013/11/27)

>  <Rbt.Parameter_File>
/export/apps/rDock/src/rDock_2013.1_src/data/scripts/dock_solv.prm

>  <Rbt.Receptor>
prm/blind_docking_100.prm

>  <SCORE>
-22.4145

>  <SCORE.INTER>
-22.5259

>  <SCORE.INTER.CONST>
1

>  <SCORE.INTER.POLAR>
-2.09452

>  <SCORE.INTER.ROT>
0

>  <SCORE.INTER.SOLV>
7.50817

>  <SCORE.INTER.VDW>
-14.1382

>  <SCORE.INTER.norm>
-1.73276

>  <SCORE.INTRA>
0

>  <SCORE.INTRA.DIHEDRAL>
0

>  <SCORE.INTRA.DIHEDRAL.0>
0

>  <SCORE.INTRA.POLAR>
0

>  <SCORE.INTRA.POLAR.0>
0

>  <SCORE.INTRA.REPUL>
0

>  <SCORE.INTRA.REPUL.0>
0

>  <SCORE.INTRA.SOLV>
0

>  <SCORE.INTRA.SOLV.lig_0>
-12.9184

>  <SCORE.INTRA.VDW>
0

>  <SCORE.INTRA.VDW.0>
0

>  <SCORE.INTRA.norm>
0

>  <SCORE.RESTR>
0.111351

>  <SCORE.RESTR.CAVITY>
0.111351

>  <SCORE.RESTR.norm>
0.00856543

>  <SCORE.SYSTEM>
0

>  <SCORE.SYSTEM.CONST>
0

>  <SCORE.SYSTEM.DIHEDRAL>
0

>  <SCORE.SYSTEM.SOLV>
0

>  <SCORE.SYSTEM.norm>
0

>  <SCORE.heavy>
13

>  <SCORE.norm>
-1.7242

>  <RMSD>
1.312

$$$$
1o15_lig
 OpenBabel11021811403D
libRbt.so/2013.1/901 2013/11/27
 13 14  0  0  0  0  0  0  0  0999 V2000
    8.5710    0.8538   36.9857 C   0  0  0  0  0  0  0  0  0  0  0  0
    8.5669    2.2260   36.8657 N   0  0  0  0  0  0  0  0  0  0  0  0
    9.3028    2.9409   37.7569 C   0  0  0  0  0  0  0  0  0  0  0  0
    9.9079    2.2859   38.6017 O   0  0  0  0  0  0  0  0  0  0  0  0
   10.1530    5.0042   38.6886 C   0  0  0  0  0  0  0  0  0  0  0  0
    9.4007    4.3043   37.7696 N   0  0  0  0  0  0  0  0  0  0  0  0
    8.6796    4.8988   36.7808 C   0  0  0  0  0  0  0  0  0  0  0  0
    7.9464    4.1695   35.8903 C   0  0  0  0  0  0  0  0  0  0  0  0
    7.8380    2.7666   35.8683 C   0  0  0  0  0  0  0  0  0  0  0  0
    7.1993    2.0528   35.0991 O   0  0  0  0  0  0  0  0  0  0  0  0
    7.3535    5.0940   35.0424 N   0  0  0  0  0  0  0  0  0  0  0  0
    7.7666    6.3115   35.4744 C   0  0  0  0  0  0  0  0  0  0  0  0
    8.5595    6.2578   36.5104 N   0  0  0  0  0  0  0  0  0  0  0  0
  1  2  1  0  0  0  0
  2  3  1  0  0  0  0
  2  9  1  0  0  0  0
  3  4  2  0  0  0  0
  3  6  1  0  0  0  0
  6  5  1  0  0  0  0
  6  7  1  0  0  0  0
  7  8  2  0  0  0  0
  7 13  1  0  0  0  0
  8  9  1  0  0  0  0
  8 11  1  0  0  0  0
  9 10  2  0  0  0  0
 11 12  1  0  0  0  0
 12 13  2  0  0  0  0
M  END
>  <CHROM.1>
8.56574358,3.73267330,36.73318994,1.19027864,0.91337251,3.05657292

>  <Name>
1o15_lig

>  <RI>
224

>  <Rbt.Current_Directory>
/home/itssahil/PROJECTS/Mol_Feturizer/New_Systems/rnas/1o15

>  <Rbt.Executable>
rbdock ($Id: //depot/dev/client3/rdock/2013.1/src/exe/rbdock.cxx#4 $)

>  <Rbt.Library>
libRbt.so (2013.1, Build901 2013/11/27)

>  <Rbt.Parameter_File>
/export/apps/rDock/src/rDock_2013.1_src/data/scripts/dock_solv.prm

>  <Rbt.Receptor>
prm/blind_docking_100.prm

>  <SCORE>
-22.4022

>  <SCORE.INTER>
-22.5087

>  <SCORE.INTER.CONST>
1

>  <SCORE.INTER.POLAR>
-2.09542

>  <SCORE.INTER.ROT>
0

>  <SCORE.INTER.SOLV>
7.50194

>  <SCORE.INTER.VDW>
-14.1217

>  <SCORE.INTER.norm>
-1.73144

>  <SCORE.INTRA>
0

>  <SCORE.INTRA.DIHEDRAL>
0

>  <SCORE.INTRA.DIHEDRAL.0>
0

>  <SCORE.INTRA.POLAR>
0

>  <SCORE.INTRA.POLAR.0>
0

>  <SCORE.INTRA.REPUL>
0

>  <SCORE.INTRA.REPUL.0>
0

>  <SCORE.INTRA.SOLV>
0

>  <SCORE.INTRA.SOLV.lig_0>
-12.9184

>  <SCORE.INTRA.VDW>
0

>  <SCORE.INTRA.VDW.0>
0

>  <SCORE.INTRA.norm>
0

>  <SCORE.RESTR>
0.106451

>  <SCORE.RESTR.CAVITY>
0.106451

>  <SCORE.RESTR.norm>
0.00818855

>  <SCORE.SYSTEM>
0

>  <SCORE.SYSTEM.CONST>
0

>  <SCORE.SYSTEM.DIHEDRAL>
0

>  <SCORE.SYSTEM.SOLV>
0

>  <SCORE.SYSTEM.norm>
0

>  <SCORE.heavy>
13

>  <SCORE.norm>
-1.72325

>  <RMSD>
1.314

$$$$
1o15_lig
 OpenBabel11021811403D
libRbt.so/2013.1/901 2013/11/27
 13 14  0  0  0  0  0  0  0  0999 V2000
    8.5844    0.8597   36.9992 C   0  0  0  0  0  0  0  0  0  0  0  0
    8.5725    2.2314   36.8741 N   0  0  0  0  0  0  0  0  0  0  0  0
    9.3092    2.9535   37.7587 C   0  0  0  0  0  0  0  0  0  0  0  0
    9.9221    2.3049   38.6029 O   0  0  0  0  0  0  0  0  0  0  0  0
   10.1535    5.0247   38.6783 C   0  0  0  0  0  0  0  0  0  0  0  0
    9.4001    4.3175   37.7658 N   0  0  0  0  0  0  0  0  0  0  0  0
    8.6708    4.9044   36.7785 C   0  0  0  0  0  0  0  0  0  0  0  0
    7.9368    4.1679   35.8945 C   0  0  0  0  0  0  0  0  0  0  0  0
    7.8356    2.7644   35.8784 C   0  0  0  0  0  0  0  0  0  0  0  0
    7.1967    2.0444   35.1153 O   0  0  0  0  0  0  0  0  0  0  0  0
    7.3348    5.0861   35.0462 N   0  0  0  0  0  0  0  0  0  0  0  0
    7.7437    6.3074   35.4715 C   0  0  0  0  0  0  0  0  0  0  0  0
    8.5422    6.2617   36.5035 N   0  0  0  0  0  0  0  0  0  0  0  0
  1  2  1  0  0  0  0
  2  3  1  0  0  0  0
  2  9  1  0  0  0  0
  3  4  2  0  0  0  0
  3  6  1  0  0  0  0
  6  5  1  0  0  0  0
  6  7  1  0  0  0  0
  7  8  2  0  0  0  0
  7 13  1  0  0  0  0
  8  9  1  0  0  0  0
  8 11  1  0  0  0  0
  9 10  2  0  0  0  0
 11 12  1  0  0  0  0
 12 13  2  0  0  0  0
M  END
>  <CHROM.1>
8.56279355,3.73753012,36.73587963,1.18110954,0.90866289,3.06001691

>  <Name>
1o15_lig

>  <RI>
224

>  <Rbt.Current_Directory>
/home/itssahil/PROJECTS/Mol_Feturizer/New_Systems/rnas/1o15

>  <Rbt.Executable>
rbdock ($Id: //depot/dev/client3/rdock/2013.1/src/exe/rbdock.cxx#4 $)

>  <Rbt.Library>
libRbt.so (2013.1, Build901 2013/11/27)

>  <Rbt.Parameter_File>
/export/apps/rDock/src/rDock_2013.1_src/data/scripts/dock_solv.prm

>  <Rbt.Receptor>
prm/blind_docking_100.prm

>  <SCORE>
-22.4289

>  <SCORE.INTER>
-22.5425

>  <SCORE.INTER.CONST>
1

>  <SCORE.INTER.POLAR>
-2.07508

>  <SCORE.INTER.ROT>
0

>  <SCORE.INTER.SOLV>
7.52861

>  <SCORE.INTER.VDW>
-14.2209

>  <SCORE.INTER.norm>
-1.73404

>  <SCORE.INTRA>
0

>  <SCORE.INTRA.DIHEDRAL>
0

>  <SCORE.INTRA.DIHEDRAL.0>
0

>  <SCORE.INTRA.POLAR>
0

>  <SCORE.INTRA.POLAR.0>
0

>  <SCORE.INTRA.REPUL>
0

>  <SCORE.INTRA.REPUL.0>
0

>  <SCORE.INTRA.SOLV>
0

>  <SCORE.INTRA.SOLV.lig_0>
-12.9184

>  <SCORE.INTRA.VDW>
0

>  <SCORE.INTRA.VDW.0>
0

>  <SCORE.INTRA.norm>
0

>  <SCORE.RESTR>
0.113634

>  <SCORE.RESTR.CAVITY>
0.113634

>  <SCORE.RESTR.norm>
0.00874104

>  <SCORE.SYSTEM>
0

>  <SCORE.SYSTEM.CONST>
0

>  <SCORE.SYSTEM.DIHEDRAL>
0

>  <SCORE.SYSTEM.SOLV>
0

>  <SCORE.SYSTEM.norm>
0

>  <SCORE.heavy>
13

>  <SCORE.norm>
-1.7253

>  <RMSD>
1.314

$$$$
1o15_lig
 OpenBabel11021811403D
libRbt.so/2013.1/901 2013/11/27
 13 14  0  0  0  0  0  0  0  0999 V2000
    8.5635    0.8534   36.9862 C   0  0  0  0  0  0  0  0  0  0  0  0
    8.5620    2.2256   36.8662 N   0  0  0  0  0  0  0  0  0  0  0  0
    9.2994    2.9390   37.7573 C   0  0  0  0  0  0  0  0  0  0  0  0
    9.9035    2.2829   38.6019 O   0  0  0  0  0  0  0  0  0  0  0  0
   10.1538    5.0007   38.6889 C   0  0  0  0  0  0  0  0  0  0  0  0
    9.4000    4.3023   37.7700 N   0  0  0  0  0  0  0  0  0  0  0  0
    8.6798    4.8981   36.7813 C   0  0  0  0  0  0  0  0  0  0  0  0
    7.9450    4.1703   35.8909 C   0  0  0  0  0  0  0  0  0  0  0  0
    7.8339    2.7676   35.8689 C   0  0  0  0  0  0  0  0  0  0  0  0
    7.1937    2.0551   35.0999 O   0  0  0  0  0  0  0  0  0  0  0  0
    7.3538    5.0959   35.0432 N   0  0  0  0  0  0  0  0  0  0  0  0
    7.7693    6.3127   35.4751 C   0  0  0  0  0  0  0  0  0  0  0  0
    8.5623    6.2574   36.5109 N   0  0  0  0  0  0  0  0  0  0  0  0
  1  2  1  0  0  0  0
  2  3  1  0  0  0  0
  2  9  1  0  0  0  0
  3  4  2  0  0  0  0
  3  6  1  0  0  0  0
  6  5  1  0  0  0  0
  6  7  1  0  0  0  0
  7  8  2  0  0  0  0
  7 13  1  0  0  0  0
  8  9  1  0  0  0  0
  8 11  1  0  0  0  0
  9 10  2  0  0  0  0
 11 12  1  0  0  0  0
 12 13  2  0  0  0  0
M  END
>  <CHROM.1>
8.56372603,3.73226212,36.73373164,1.19338002,0.91301499,3.05412579

>  <Name>
1o15_lig

>  <RI>
224

>  <Rbt.Current_Directory>
/home/itssahil/PROJECTS/Mol_Feturizer/New_Systems/rnas/1o15

>  <Rbt.Executable>
rbdock ($Id: //depot/dev/client3/rdock/2013.1/src/exe/rbdock.cxx#4 $)

>  <Rbt.Library>
libRbt.so (2013.1, Build901 2013/11/27)

>  <Rbt.Parameter_File>
/export/apps/rDock/src/rDock_2013.1_src/data/scripts/dock_solv.prm

>  <Rbt.Receptor>
prm/blind_docking_100.prm

>  <SCORE>
-22.3786

>  <SCORE.INTER>
-22.4796

>  <SCORE.INTER.CONST>
1

>  <SCORE.INTER.POLAR>
-2.08889

>  <SCORE.INTER.ROT>
0

>  <SCORE.INTER.SOLV>
7.51046

>  <SCORE.INTER.VDW>
-14.1269

>  <SCORE.INTER.norm>
-1.7292

>  <SCORE.INTRA>
0

>  <SCORE.INTRA.DIHEDRAL>
0

>  <SCORE.INTRA.DIHEDRAL.0>
0

>  <SCORE.INTRA.POLAR>
0

>  <SCORE.INTRA.POLAR.0>
0

>  <SCORE.INTRA.REPUL>
0

>  <SCORE.INTRA.REPUL.0>
0

>  <SCORE.INTRA.SOLV>
0

>  <SCORE.INTRA.SOLV.lig_0>
-12.9184

>  <SCORE.INTRA.VDW>
0

>  <SCORE.INTRA.VDW.0>
0

>  <SCORE.INTRA.norm>
0

>  <SCORE.RESTR>
0.100933

>  <SCORE.RESTR.CAVITY>
0.100933

>  <SCORE.RESTR.norm>
0.00776405

>  <SCORE.SYSTEM>
0

>  <SCORE.SYSTEM.CONST>
0

>  <SCORE.SYSTEM.DIHEDRAL>
0

>  <SCORE.SYSTEM.SOLV>
0

>  <SCORE.SYSTEM.norm>
0

>  <SCORE.heavy>
13

>  <SCORE.norm>
-1.72143

>  <RMSD>
1.316

$$$$
1o15_lig
 OpenBabel11021811403D
libRbt.so/2013.1/901 2013/11/27
 13 14  0  0  0  0  0  0  0  0999 V2000
    8.5595    0.8504   36.9863 C   0  0  0  0  0  0  0  0  0  0  0  0
    8.5596    2.2226   36.8663 N   0  0  0  0  0  0  0  0  0  0  0  0
    9.2980    2.9351   37.7572 C   0  0  0  0  0  0  0  0  0  0  0  0
    9.9013    2.2783   38.6019 O   0  0  0  0  0  0  0  0  0  0  0  0
   10.1550    4.9958   38.6887 C   0  0  0  0  0  0  0  0  0  0  0  0
    9.4002    4.2983   37.7699 N   0  0  0  0  0  0  0  0  0  0  0  0
    8.6807    4.8949   36.7812 C   0  0  0  0  0  0  0  0  0  0  0  0
    7.9450    4.1679   35.8909 C   0  0  0  0  0  0  0  0  0  0  0  0
    7.8322    2.7653   35.8690 C   0  0  0  0  0  0  0  0  0  0  0  0
    7.1911    2.0536   35.1000 O   0  0  0  0  0  0  0  0  0  0  0  0
    7.3549    5.0943   35.0431 N   0  0  0  0  0  0  0  0  0  0  0  0
    7.7719    6.3105   35.4749 C   0  0  0  0  0  0  0  0  0  0  0  0
    8.5648    6.2543   36.5107 N   0  0  0  0  0  0  0  0  0  0  0  0
  1  2  1  0  0  0  0
  2  3  1  0  0  0  0
  2  9  1  0  0  0  0
  3  4  2  0  0  0  0
  3  6  1  0  0  0  0
  6  5  1  0  0  0  0
  6  7  1  0  0  0  0
  7  8  2  0  0  0  0
  7 13  1  0  0  0  0
  8  9  1  0  0  0  0
  8 11  1  0  0  0  0
  9 10  2  0  0  0  0
 11 12  1  0  0  0  0
 12 13  2  0  0  0  0
M  END
>  <CHROM.1>
8.56320544,3.72920008,36.73367871,1.19537287,0.91286383,3.05248659

>  <Name>
1o15_lig

>  <RI>
224

>  <Rbt.Current_Directory>
/home/itssahil/PROJECTS/Mol_Feturizer/New_Systems/rnas/1o15

>  <Rbt.Executable>
rbdock ($Id: //depot/dev/client3/rdock/2013.1/src/exe/rbdock.cxx#4 $)

>  <Rbt.Library>
libRbt.so (2013.1, Build901 2013/11/27)

>  <Rbt.Parameter_File>
/export/apps/rDock/src/rDock_2013.1_src/data/scripts/dock_solv.prm

>  <Rbt.Receptor>
prm/blind_docking_100.prm

>  <SCORE>
-22.3753

>  <SCORE.INTER>
-22.4757

>  <SCORE.INTER.CONST>
1

>  <SCORE.INTER.POLAR>
-2.09127

>  <SCORE.INTER.ROT>
0

>  <SCORE.INTER.SOLV>
7.50899

>  <SCORE.INTER.VDW>
-14.1159

>  <SCORE.INTER.norm>
-1.7289

>  <SCORE.INTRA>
0

>  <SCORE.INTRA.DIHEDRAL>
0

>  <SCORE.INTRA.DIHEDRAL.0>
0

>  <SCORE.INTRA.POLAR>
0

>  <SCORE.INTRA.POLAR.0>
0

>  <SCORE.INTRA.REPUL>
0

>  <SCORE.INTRA.REPUL.0>
0

>  <SCORE.INTRA.SOLV>
0

>  <SCORE.INTRA.SOLV.lig_0>
-12.9184

>  <SCORE.INTRA.VDW>
0

>  <SCORE.INTRA.VDW.0>
0

>  <SCORE.INTRA.norm>
0

>  <SCORE.RESTR>
0.100407

>  <SCORE.RESTR.CAVITY>
0.100407

>  <SCORE.RESTR.norm>
0.00772364

>  <SCORE.SYSTEM>
0

>  <SCORE.SYSTEM.CONST>
0

>  <SCORE.SYSTEM.DIHEDRAL>
0

>  <SCORE.SYSTEM.SOLV>
0

>  <SCORE.SYSTEM.norm>
0

>  <SCORE.heavy>
13

>  <SCORE.norm>
-1.72118

>  <RMSD>
1.316

$$$$
1o15_lig
 OpenBabel11021811403D
libRbt.so/2013.1/901 2013/11/27
 13 14  0  0  0  0  0  0  0  0999 V2000
    8.5672    0.8544   36.9891 C   0  0  0  0  0  0  0  0  0  0  0  0
    8.5623    2.2265   36.8680 N   0  0  0  0  0  0  0  0  0  0  0  0
    9.2988    2.9424   37.7579 C   0  0  0  0  0  0  0  0  0  0  0  0
    9.9051    2.2884   38.6026 O   0  0  0  0  0  0  0  0  0  0  0  0
   10.1490    5.0069   38.6870 C   0  0  0  0  0  0  0  0  0  0  0  0
    9.3961    4.3059   37.7694 N   0  0  0  0  0  0  0  0  0  0  0  0
    8.6736    4.8992   36.7808 C   0  0  0  0  0  0  0  0  0  0  0  0
    7.9398    4.1688   35.8916 C   0  0  0  0  0  0  0  0  0  0  0  0
    7.8321    2.7658   35.8709 C   0  0  0  0  0  0  0  0  0  0  0  0
    7.1929    2.0512   35.1030 O   0  0  0  0  0  0  0  0  0  0  0  0
    7.3457    5.0924   35.0436 N   0  0  0  0  0  0  0  0  0  0  0  0
    7.7586    6.3104   35.4742 C   0  0  0  0  0  0  0  0  0  0  0  0
    8.5526    6.2579   36.5094 N   0  0  0  0  0  0  0  0  0  0  0  0
  1  2  1  0  0  0  0
  2  3  1  0  0  0  0
  2  9  1  0  0  0  0
  3  4  2  0  0  0  0
  3  6  1  0  0  0  0
  6  5  1  0  0  0  0
  6  7  1  0  0  0  0
  7  8  2  0  0  0  0
  7 13  1  0  0  0  0
  8  9  1  0  0  0  0
  8 11  1  0  0  0  0
  9 10  2  0  0  0  0
 11 12  1  0  0  0  0
 12 13  2  0  0  0  0
M  END
>  <CHROM.1>
8.56029093,3.73299821,36.73427473,1.18935355,0.91237704,3.05647664

>  <Name>
1o15_lig

>  <RI>
224

>  <Rbt.Current_Directory>
/home/itssahil/PROJECTS/Mol_Feturizer/New_Systems/rnas/1o15

>  <Rbt.Executable>
rbdock ($Id: //depot/dev/client3/rdock/2013.1/src/exe/rbdock.cxx#4 $)

>  <Rbt.Library>
libRbt.so (2013.1, Build901 2013/11/27)

>  <Rbt.Parameter_File>
/export/apps/rDock/src/rDock_2013.1_src/data/scripts/dock_solv.prm

>  <Rbt.Receptor>
prm/blind_docking_100.prm

>  <SCORE>
-22.3867

>  <SCORE.INTER>
-22.4905

>  <SCORE.INTER.CONST>
1

>  <SCORE.INTER.POLAR>
-2.08799

>  <SCORE.INTER.ROT>
0

>  <SCORE.INTER.SOLV>
7.52955

>  <SCORE.INTER.VDW>
-14.1435

>  <SCORE.INTER.norm>
-1.73003

>  <SCORE.INTRA>
0

>  <SCORE.INTRA.DIHEDRAL>
0

>  <SCORE.INTRA.DIHEDRAL.0>
0

>  <SCORE.INTRA.POLAR>
0

>  <SCORE.INTRA.POLAR.0>
0

>  <SCORE.INTRA.REPUL>
0

>  <SCORE.INTRA.REPUL.0>
0

>  <SCORE.INTRA.SOLV>
0

>  <SCORE.INTRA.SOLV.lig_0>
-12.9184

>  <SCORE.INTRA.VDW>
0

>  <SCORE.INTRA.VDW.0>
0

>  <SCORE.INTRA.norm>
0

>  <SCORE.RESTR>
0.103754

>  <SCORE.RESTR.CAVITY>
0.103754

>  <SCORE.RESTR.norm>
0.00798104

>  <SCORE.SYSTEM>
0

>  <SCORE.SYSTEM.CONST>
0

>  <SCORE.SYSTEM.DIHEDRAL>
0

>  <SCORE.SYSTEM.SOLV>
0

>  <SCORE.SYSTEM.norm>
0

>  <SCORE.heavy>
13

>  <SCORE.norm>
-1.72205

>  <RMSD>
1.318

$$$$
1o15_lig
 OpenBabel11021811403D
libRbt.so/2013.1/901 2013/11/27
 13 14  0  0  0  0  0  0  0  0999 V2000
   10.2401    1.0075   35.9276 C   0  0  0  0  0  0  0  0  0  0  0  0
    9.8341    2.3164   36.0671 N   0  0  0  0  0  0  0  0  0  0  0  0
   10.5109    3.0977   36.9491 C   0  0  0  0  0  0  0  0  0  0  0  0
   11.4324    2.5533   37.5520 O   0  0  0  0  0  0  0  0  0  0  0  0
   10.9325    5.1806   38.1034 C   0  0  0  0  0  0  0  0  0  0  0  0
   10.2304    4.4120   37.1997 N   0  0  0  0  0  0  0  0  0  0  0  0
    9.1872    4.8830   36.4640 C   0  0  0  0  0  0  0  0  0  0  0  0
    8.5170    4.0887   35.5795 C   0  0  0  0  0  0  0  0  0  0  0  0
    8.7967    2.7352   35.3142 C   0  0  0  0  0  0  0  0  0  0  0  0
    8.2358    1.9684   34.5355 O   0  0  0  0  0  0  0  0  0  0  0  0
    7.5324    4.8915   35.0218 N   0  0  0  0  0  0  0  0  0  0  0  0
    7.6737    6.1091   35.6025 C   0  0  0  0  0  0  0  0  0  0  0  0
    8.6452    6.1638   36.4732 N   0  0  0  0  0  0  0  0  0  0  0  0
  1  2  1  0  0  0  0
  2  3  1  0  0  0  0
  2  9  1  0  0  0  0
  3  4  2  0  0  0  0
  3  6  1  0  0  0  0
  6  5  1  0  0  0  0
  6  7  1  0  0  0  0
  7  8  2  0  0  0  0
  7 13  1  0  0  0  0
  8  9  1  0  0  0  0
  8 11  1  0  0  0  0
  9 10  2  0  0  0  0
 11 12  1  0  0  0  0
 12 13  2  0  0  0  0
M  END
>  <CHROM.1>
9.39140405,3.75458925,36.21884559,0.80403869,0.68593050,-2.78170881

>  <Name>
1o15_lig

>  <RI>
0

>  <Rbt.Current_Directory>
/home/itssahil/PROJECTS/Mol_Feturizer/New_Systems/rnas/1o15

>  <Rbt.Executable>
rbdock ($Id: //depot/dev/client3/rdock/2013.1/src/exe/rbdock.cxx#4 $)

>  <Rbt.Library>
libRbt.so (2013.1, Build901 2013/11/27)

>  <Rbt.Parameter_File>
/export/apps/rDock/src/rDock_2013.1_src/data/scripts/dock_solv.prm

>  <Rbt.Receptor>
prm/pocket_docking_5.prm

>  <SCORE>
-22.7433

>  <SCORE.INTER>
-22.7433

>  <SCORE.INTER.CONST>
1

>  <SCORE.INTER.POLAR>
-2.07067

>  <SCORE.INTER.ROT>
0

>  <SCORE.INTER.SOLV>
6.1461

>  <SCORE.INTER.VDW>
-13.9087

>  <SCORE.INTER.norm>
-1.74949

>  <SCORE.INTRA>
0

>  <SCORE.INTRA.DIHEDRAL>
0

>  <SCORE.INTRA.DIHEDRAL.0>
0

>  <SCORE.INTRA.POLAR>
0

>  <SCORE.INTRA.POLAR.0>
0

>  <SCORE.INTRA.REPUL>
0

>  <SCORE.INTRA.REPUL.0>
0

>  <SCORE.INTRA.SOLV>
0

>  <SCORE.INTRA.SOLV.lig_0>
-12.9184

>  <SCORE.INTRA.VDW>
0

>  <SCORE.INTRA.VDW.0>
0

>  <SCORE.INTRA.norm>
0

>  <SCORE.RESTR>
0

>  <SCORE.RESTR.CAVITY>
0

>  <SCORE.RESTR.norm>
0

>  <SCORE.SYSTEM>
0

>  <SCORE.SYSTEM.CONST>
0

>  <SCORE.SYSTEM.DIHEDRAL>
0

>  <SCORE.SYSTEM.SOLV>
0

>  <SCORE.SYSTEM.norm>
0

>  <SCORE.heavy>
13

>  <SCORE.norm>
-1.74949

>  <RMSD>
1.319

$$$$
1o15_lig
 OpenBabel11021811403D
libRbt.so/2013.1/901 2013/11/27
 13 14  0  0  0  0  0  0  0  0999 V2000
    8.5626    0.8607   36.9882 C   0  0  0  0  0  0  0  0  0  0  0  0
    8.5608    2.2329   36.8679 N   0  0  0  0  0  0  0  0  0  0  0  0
    9.2981    2.9468   37.7587 C   0  0  0  0  0  0  0  0  0  0  0  0
    9.9024    2.2910   38.6034 O   0  0  0  0  0  0  0  0  0  0  0  0
   10.1520    5.0089   38.6896 C   0  0  0  0  0  0  0  0  0  0  0  0
    9.3983    4.3101   37.7710 N   0  0  0  0  0  0  0  0  0  0  0  0
    8.6779    4.9054   36.7822 C   0  0  0  0  0  0  0  0  0  0  0  0
    7.9432    4.1771   35.8920 C   0  0  0  0  0  0  0  0  0  0  0  0
    7.8325    2.7743   35.8705 C   0  0  0  0  0  0  0  0  0  0  0  0
    7.1924    2.0615   35.1017 O   0  0  0  0  0  0  0  0  0  0  0  0
    7.3516    5.1024   35.0441 N   0  0  0  0  0  0  0  0  0  0  0  0
    7.7669    6.3193   35.4756 C   0  0  0  0  0  0  0  0  0  0  0  0
    8.5599    6.2646   36.5114 N   0  0  0  0  0  0  0  0  0  0  0  0
  1  2  1  0  0  0  0
  2  3  1  0  0  0  0
  2  9  1  0  0  0  0
  3  4  2  0  0  0  0
  3  6  1  0  0  0  0
  6  5  1  0  0  0  0
  6  7  1  0  0  0  0
  7  8  2  0  0  0  0
  7 13  1  0  0  0  0
  8  9  1  0  0  0  0
  8 11  1  0  0  0  0
  9 10  2  0  0  0  0
 11 12  1  0  0  0  0
 12 13  2  0  0  0  0
M  END
>  <CHROM.1>
8.56207990,3.73950524,36.73492560,1.19294074,0.91295544,3.05417867

>  <Name>
1o15_lig

>  <RI>
224

>  <Rbt.Current_Directory>
/home/itssahil/PROJECTS/Mol_Feturizer/New_Systems/rnas/1o15

>  <Rbt.Executable>
rbdock ($Id: //depot/dev/client3/rdock/2013.1/src/exe/rbdock.cxx#4 $)

>  <Rbt.Library>
libRbt.so (2013.1, Build901 2013/11/27)

>  <Rbt.Parameter_File>
/export/apps/rDock/src/rDock_2013.1_src/data/scripts/dock_solv.prm

>  <Rbt.Receptor>
prm/blind_docking_100.prm

>  <SCORE>
-22.3543

>  <SCORE.INTER>
-22.4493

>  <SCORE.INTER.CONST>
1

>  <SCORE.INTER.POLAR>
-2.0761

>  <SCORE.INTER.ROT>
0

>  <SCORE.INTER.SOLV>
7.5275

>  <SCORE.INTER.VDW>
-14.155

>  <SCORE.INTER.norm>
-1.72687

>  <SCORE.INTRA>
0

>  <SCORE.INTRA.DIHEDRAL>
0

>  <SCORE.INTRA.DIHEDRAL.0>
0

>  <SCORE.INTRA.POLAR>
0

>  <SCORE.INTRA.POLAR.0>
0

>  <SCORE.INTRA.REPUL>
0

>  <SCORE.INTRA.REPUL.0>
0

>  <SCORE.INTRA.SOLV>
0

>  <SCORE.INTRA.SOLV.lig_0>
-12.9184

>  <SCORE.INTRA.VDW>
0

>  <SCORE.INTRA.VDW.0>
0

>  <SCORE.INTRA.norm>
0

>  <SCORE.RESTR>
0.0949844

>  <SCORE.RESTR.CAVITY>
0.0949844

>  <SCORE.RESTR.norm>
0.0073065

>  <SCORE.SYSTEM>
0

>  <SCORE.SYSTEM.CONST>
0

>  <SCORE.SYSTEM.DIHEDRAL>
0

>  <SCORE.SYSTEM.SOLV>
0

>  <SCORE.SYSTEM.norm>
0

>  <SCORE.heavy>
13

>  <SCORE.norm>
-1.71956

>  <RMSD>
1.320

$$$$
1o15_lig
 OpenBabel11021811403D
libRbt.so/2013.1/901 2013/11/27
 13 14  0  0  0  0  0  0  0  0999 V2000
   10.1469    1.0132   35.9557 C   0  0  0  0  0  0  0  0  0  0  0  0
    9.7579    2.3279   36.0881 N   0  0  0  0  0  0  0  0  0  0  0  0
   10.4403    3.1033   36.9711 C   0  0  0  0  0  0  0  0  0  0  0  0
   11.3510    2.5487   37.5810 O   0  0  0  0  0  0  0  0  0  0  0  0
   10.8835    5.1846   38.1202 C   0  0  0  0  0  0  0  0  0  0  0  0
   10.1761    4.4222   37.2153 N   0  0  0  0  0  0  0  0  0  0  0  0
    9.1435    4.9044   36.4722 C   0  0  0  0  0  0  0  0  0  0  0  0
    8.4675    4.1160   35.5868 C   0  0  0  0  0  0  0  0  0  0  0  0
    8.7304    2.7579   35.3280 C   0  0  0  0  0  0  0  0  0  0  0  0
    8.1635    1.9959   34.5490 O   0  0  0  0  0  0  0  0  0  0  0  0
    7.4969    4.9299   35.0208 N   0  0  0  0  0  0  0  0  0  0  0  0
    7.6515    6.1476   35.5979 C   0  0  0  0  0  0  0  0  0  0  0  0
    8.6187    6.1925   36.4738 N   0  0  0  0  0  0  0  0  0  0  0  0
  1  2  1  0  0  0  0
  2  3  1  0  0  0  0
  2  9  1  0  0  0  0
  3  4  2  0  0  0  0
  3  6  1  0  0  0  0
  6  5  1  0  0  0  0
  6  7  1  0  0  0  0
  7  8  2  0  0  0  0
  7 13  1  0  0  0  0
  8  9  1  0  0  0  0
  8 11  1  0  0  0  0
  9 10  2  0  0  0  0
 11 12  1  0  0  0  0
 12 13  2  0  0  0  0
M  END
>  <CHROM.1>
9.33379568,3.77248120,36.23224388,0.81794172,0.69580073,-2.79421630

>  <Name>
1o15_lig

>  <RI>
0

>  <Rbt.Current_Directory>
/home/itssahil/PROJECTS/Mol_Feturizer/New_Systems/rnas/1o15

>  <Rbt.Executable>
rbdock ($Id: //depot/dev/client3/rdock/2013.1/src/exe/rbdock.cxx#4 $)

>  <Rbt.Library>
libRbt.so (2013.1, Build901 2013/11/27)

>  <Rbt.Parameter_File>
/export/apps/rDock/src/rDock_2013.1_src/data/scripts/dock_solv.prm

>  <Rbt.Receptor>
prm/pocket_docking_8.prm

>  <SCORE>
-22.7302

>  <SCORE.INTER>
-22.7302

>  <SCORE.INTER.CONST>
1

>  <SCORE.INTER.POLAR>
-2.06024

>  <SCORE.INTER.ROT>
0

>  <SCORE.INTER.SOLV>
6.15306

>  <SCORE.INTER.VDW>
-13.937

>  <SCORE.INTER.norm>
-1.74848

>  <SCORE.INTRA>
0

>  <SCORE.INTRA.DIHEDRAL>
0

>  <SCORE.INTRA.DIHEDRAL.0>
0

>  <SCORE.INTRA.POLAR>
0

>  <SCORE.INTRA.POLAR.0>
0

>  <SCORE.INTRA.REPUL>
0

>  <SCORE.INTRA.REPUL.0>
0

>  <SCORE.INTRA.SOLV>
0

>  <SCORE.INTRA.SOLV.lig_0>
-12.9184

>  <SCORE.INTRA.VDW>
0

>  <SCORE.INTRA.VDW.0>
0

>  <SCORE.INTRA.norm>
0

>  <SCORE.RESTR>
0

>  <SCORE.RESTR.CAVITY>
0

>  <SCORE.RESTR.norm>
0

>  <SCORE.SYSTEM>
0

>  <SCORE.SYSTEM.CONST>
0

>  <SCORE.SYSTEM.DIHEDRAL>
0

>  <SCORE.SYSTEM.SOLV>
0

>  <SCORE.SYSTEM.norm>
0

>  <SCORE.heavy>
13

>  <SCORE.norm>
-1.74848

>  <RMSD>
1.320

$$$$
1o15_lig
 OpenBabel11021811403D
libRbt.so/2013.1/901 2013/11/27
 13 14  0  0  0  0  0  0  0  0999 V2000
    8.5665    0.8642   36.9823 C   0  0  0  0  0  0  0  0  0  0  0  0
    8.5639    2.2366   36.8639 N   0  0  0  0  0  0  0  0  0  0  0  0
    9.3006    2.9496   37.7559 C   0  0  0  0  0  0  0  0  0  0  0  0
    9.9050    2.2930   38.6000 O   0  0  0  0  0  0  0  0  0  0  0  0
   10.1531    5.0109   38.6900 C   0  0  0  0  0  0  0  0  0  0  0  0
    9.4001    4.3129   37.7701 N   0  0  0  0  0  0  0  0  0  0  0  0
    8.6797    4.9093   36.7820 C   0  0  0  0  0  0  0  0  0  0  0  0
    7.9457    4.1818   35.8906 C   0  0  0  0  0  0  0  0  0  0  0  0
    7.8357    2.7790   35.8670 C   0  0  0  0  0  0  0  0  0  0  0  0
    7.1962    2.0669   35.0971 O   0  0  0  0  0  0  0  0  0  0  0  0
    7.3539    5.1080   35.0437 N   0  0  0  0  0  0  0  0  0  0  0  0
    7.7683    6.3245   35.4771 C   0  0  0  0  0  0  0  0  0  0  0  0
    8.5611    6.2688   36.5130 N   0  0  0  0  0  0  0  0  0  0  0  0
  1  2  1  0  0  0  0
  2  3  1  0  0  0  0
  2  9  1  0  0  0  0
  3  4  2  0  0  0  0
  3  6  1  0  0  0  0
  6  5  1  0  0  0  0
  6  7  1  0  0  0  0
  7  8  2  0  0  0  0
  7 13  1  0  0  0  0
  8  9  1  0  0  0  0
  8 11  1  0  0  0  0
  9 10  2  0  0  0  0
 11 12  1  0  0  0  0
 12 13  2  0  0  0  0
M  END
>  <CHROM.1>
8.56450782,3.74336806,36.73304281,1.19213321,0.91332753,3.05621215

>  <Name>
1o15_lig

>  <RI>
224

>  <Rbt.Current_Directory>
/home/itssahil/PROJECTS/Mol_Feturizer/New_Systems/rnas/1o15

>  <Rbt.Executable>
rbdock ($Id: //depot/dev/client3/rdock/2013.1/src/exe/rbdock.cxx#4 $)

>  <Rbt.Library>
libRbt.so (2013.1, Build901 2013/11/27)

>  <Rbt.Parameter_File>
/export/apps/rDock/src/rDock_2013.1_src/data/scripts/dock_solv.prm

>  <Rbt.Receptor>
prm/blind_docking_100.prm

>  <SCORE>
-22.3352

>  <SCORE.INTER>
-22.4266

>  <SCORE.INTER.CONST>
1

>  <SCORE.INTER.POLAR>
-2.07134

>  <SCORE.INTER.ROT>
0

>  <SCORE.INTER.SOLV>
7.51776

>  <SCORE.INTER.VDW>
-14.1525

>  <SCORE.INTER.norm>
-1.72513

>  <SCORE.INTRA>
0

>  <SCORE.INTRA.DIHEDRAL>
0

>  <SCORE.INTRA.DIHEDRAL.0>
0

>  <SCORE.INTRA.POLAR>
0

>  <SCORE.INTRA.POLAR.0>
0

>  <SCORE.INTRA.REPUL>
0

>  <SCORE.INTRA.REPUL.0>
0

>  <SCORE.INTRA.SOLV>
0

>  <SCORE.INTRA.SOLV.lig_0>
-12.9184

>  <SCORE.INTRA.VDW>
0

>  <SCORE.INTRA.VDW.0>
0

>  <SCORE.INTRA.norm>
0

>  <SCORE.RESTR>
0.0914269

>  <SCORE.RESTR.CAVITY>
0.0914269

>  <SCORE.RESTR.norm>
0.00703284

>  <SCORE.SYSTEM>
0

>  <SCORE.SYSTEM.CONST>
0

>  <SCORE.SYSTEM.DIHEDRAL>
0

>  <SCORE.SYSTEM.SOLV>
0

>  <SCORE.SYSTEM.norm>
0

>  <SCORE.heavy>
13

>  <SCORE.norm>
-1.71809

>  <RMSD>
1.321

$$$$
1o15_lig
 OpenBabel11021811403D
libRbt.so/2013.1/901 2013/11/27
 13 14  0  0  0  0  0  0  0  0999 V2000
   10.2153    1.0284   35.9412 C   0  0  0  0  0  0  0  0  0  0  0  0
    9.8102    2.3374   36.0816 N   0  0  0  0  0  0  0  0  0  0  0  0
   10.4794    3.1142   36.9736 C   0  0  0  0  0  0  0  0  0  0  0  0
   11.3937    2.5657   37.5836 O   0  0  0  0  0  0  0  0  0  0  0  0
   10.8927    5.1918   38.1403 C   0  0  0  0  0  0  0  0  0  0  0  0
   10.1985    4.4279   37.2264 N   0  0  0  0  0  0  0  0  0  0  0  0
    9.1637    4.9036   36.4821 C   0  0  0  0  0  0  0  0  0  0  0  0
    8.5012    4.1140   35.5876 C   0  0  0  0  0  0  0  0  0  0  0  0
    8.7812    2.7610   35.3199 C   0  0  0  0  0  0  0  0  0  0  0  0
    8.2270    1.9983   34.5326 O   0  0  0  0  0  0  0  0  0  0  0  0
    7.5236    4.9207   35.0232 N   0  0  0  0  0  0  0  0  0  0  0  0
    7.6612    6.1357   35.6101 C   0  0  0  0  0  0  0  0  0  0  0  0
    8.6238    6.1853   36.4908 N   0  0  0  0  0  0  0  0  0  0  0  0
  1  2  1  0  0  0  0
  2  3  1  0  0  0  0
  2  9  1  0  0  0  0
  3  4  2  0  0  0  0
  3  6  1  0  0  0  0
  6  5  1  0  0  0  0
  6  7  1  0  0  0  0
  7  8  2  0  0  0  0
  7 13  1  0  0  0  0
  8  9  1  0  0  0  0
  8 11  1  0  0  0  0
  9 10  2  0  0  0  0
 11 12  1  0  0  0  0
 12 13  2  0  0  0  0
M  END
>  <CHROM.1>
9.36844006,3.77581485,36.23455746,0.80144469,0.69605497,-2.77612559

>  <Name>
1o15_lig

>  <RI>
0

>  <Rbt.Current_Directory>
/home/itssahil/PROJECTS/Mol_Feturizer/New_Systems/rnas/1o15

>  <Rbt.Executable>
rbdock ($Id: //depot/dev/client3/rdock/2013.1/src/exe/rbdock.cxx#4 $)

>  <Rbt.Library>
libRbt.so (2013.1, Build901 2013/11/27)

>  <Rbt.Parameter_File>
/export/apps/rDock/src/rDock_2013.1_src/data/scripts/dock_solv.prm

>  <Rbt.Receptor>
prm/pocket_docking_6.prm

>  <SCORE>
-22.6908

>  <SCORE.INTER>
-22.6908

>  <SCORE.INTER.CONST>
1

>  <SCORE.INTER.POLAR>
-2.08825

>  <SCORE.INTER.ROT>
0

>  <SCORE.INTER.SOLV>
6.14416

>  <SCORE.INTER.VDW>
-13.8144

>  <SCORE.INTER.norm>
-1.74545

>  <SCORE.INTRA>
0

>  <SCORE.INTRA.DIHEDRAL>
0

>  <SCORE.INTRA.DIHEDRAL.0>
0

>  <SCORE.INTRA.POLAR>
0

>  <SCORE.INTRA.POLAR.0>
0

>  <SCORE.INTRA.REPUL>
0

>  <SCORE.INTRA.REPUL.0>
0

>  <SCORE.INTRA.SOLV>
0

>  <SCORE.INTRA.SOLV.lig_0>
-12.9184

>  <SCORE.INTRA.VDW>
0

>  <SCORE.INTRA.VDW.0>
0

>  <SCORE.INTRA.norm>
0

>  <SCORE.RESTR>
0

>  <SCORE.RESTR.CAVITY>
0

>  <SCORE.RESTR.norm>
0

>  <SCORE.SYSTEM>
0

>  <SCORE.SYSTEM.CONST>
0

>  <SCORE.SYSTEM.DIHEDRAL>
0

>  <SCORE.SYSTEM.SOLV>
0

>  <SCORE.SYSTEM.norm>
0

>  <SCORE.heavy>
13

>  <SCORE.norm>
-1.74545

>  <RMSD>
1.321

$$$$
1o15_lig
 OpenBabel11021811403D
libRbt.so/2013.1/901 2013/11/27
 13 14  0  0  0  0  0  0  0  0999 V2000
    8.6189    0.8886   36.9998 C   0  0  0  0  0  0  0  0  0  0  0  0
    8.5917    2.2602   36.8759 N   0  0  0  0  0  0  0  0  0  0  0  0
    9.3165    2.9898   37.7642 C   0  0  0  0  0  0  0  0  0  0  0  0
    9.9333    2.3475   38.6103 O   0  0  0  0  0  0  0  0  0  0  0  0
   10.1330    5.0697   38.6892 C   0  0  0  0  0  0  0  0  0  0  0  0
    9.3916    4.3548   37.7729 N   0  0  0  0  0  0  0  0  0  0  0  0
    8.6596    4.9342   36.7832 C   0  0  0  0  0  0  0  0  0  0  0  0
    7.9378    4.1902   35.8955 C   0  0  0  0  0  0  0  0  0  0  0  0
    7.8529    2.7856   35.8777 C   0  0  0  0  0  0  0  0  0  0  0  0
    7.2254    2.0590   35.1113 O   0  0  0  0  0  0  0  0  0  0  0  0
    7.3287    5.1022   35.0456 N   0  0  0  0  0  0  0  0  0  0  0  0
    7.7218    6.3277   35.4737 C   0  0  0  0  0  0  0  0  0  0  0  0
    8.5165    6.2902   36.5090 N   0  0  0  0  0  0  0  0  0  0  0  0
  1  2  1  0  0  0  0
  2  3  1  0  0  0  0
  2  9  1  0  0  0  0
  3  4  2  0  0  0  0
  3  6  1  0  0  0  0
  6  5  1  0  0  0  0
  6  7  1  0  0  0  0
  7  8  2  0  0  0  0
  7 13  1  0  0  0  0
  8  9  1  0  0  0  0
  8 11  1  0  0  0  0
  9 10  2  0  0  0  0
 11 12  1  0  0  0  0
 12 13  2  0  0  0  0
M  END
>  <CHROM.1>
8.56526111,3.76621214,36.73904136,1.16284752,0.91361131,3.07540733

>  <Name>
1o15_lig

>  <RI>
224

>  <Rbt.Current_Directory>
/home/itssahil/PROJECTS/Mol_Feturizer/New_Systems/rnas/1o15

>  <Rbt.Executable>
rbdock ($Id: //depot/dev/client3/rdock/2013.1/src/exe/rbdock.cxx#4 $)

>  <Rbt.Library>
libRbt.so (2013.1, Build901 2013/11/27)

>  <Rbt.Parameter_File>
/export/apps/rDock/src/rDock_2013.1_src/data/scripts/dock_solv.prm

>  <Rbt.Receptor>
prm/blind_docking_100.prm

>  <SCORE>
-22.4174

>  <SCORE.INTER>
-22.5425

>  <SCORE.INTER.CONST>
1

>  <SCORE.INTER.POLAR>
-2.06775

>  <SCORE.INTER.ROT>
0

>  <SCORE.INTER.SOLV>
7.55389

>  <SCORE.INTER.VDW>
-14.2538

>  <SCORE.INTER.norm>
-1.73404

>  <SCORE.INTRA>
0

>  <SCORE.INTRA.DIHEDRAL>
0

>  <SCORE.INTRA.DIHEDRAL.0>
0

>  <SCORE.INTRA.POLAR>
0

>  <SCORE.INTRA.POLAR.0>
0

>  <SCORE.INTRA.REPUL>
0

>  <SCORE.INTRA.REPUL.0>
0

>  <SCORE.INTRA.SOLV>
0

>  <SCORE.INTRA.SOLV.lig_0>
-12.9184

>  <SCORE.INTRA.VDW>
0

>  <SCORE.INTRA.VDW.0>
0

>  <SCORE.INTRA.norm>
0

>  <SCORE.RESTR>
0.12508

>  <SCORE.RESTR.CAVITY>
0.12508

>  <SCORE.RESTR.norm>
0.00962154

>  <SCORE.SYSTEM>
0

>  <SCORE.SYSTEM.CONST>
0

>  <SCORE.SYSTEM.DIHEDRAL>
0

>  <SCORE.SYSTEM.SOLV>
0

>  <SCORE.SYSTEM.norm>
0

>  <SCORE.heavy>
13

>  <SCORE.norm>
-1.72442

>  <RMSD>
1.322

$$$$
1o15_lig
 OpenBabel11021811403D
libRbt.so/2013.1/901 2013/11/27
 13 14  0  0  0  0  0  0  0  0999 V2000
    8.5718    0.8680   36.9993 C   0  0  0  0  0  0  0  0  0  0  0  0
    8.5626    2.2397   36.8740 N   0  0  0  0  0  0  0  0  0  0  0  0
    9.3022    2.9603   37.7574 C   0  0  0  0  0  0  0  0  0  0  0  0
    9.9150    2.3106   38.6007 O   0  0  0  0  0  0  0  0  0  0  0  0
   10.1522    5.0299   38.6754 C   0  0  0  0  0  0  0  0  0  0  0  0
    9.3959    4.3242   37.7641 N   0  0  0  0  0  0  0  0  0  0  0  0
    8.6664    4.9124   36.7778 C   0  0  0  0  0  0  0  0  0  0  0  0
    7.9296    4.1774   35.8950 C   0  0  0  0  0  0  0  0  0  0  0  0
    7.8254    2.7741   35.8793 C   0  0  0  0  0  0  0  0  0  0  0  0
    7.1839    2.0553   35.1172 O   0  0  0  0  0  0  0  0  0  0  0  0
    7.3283    5.0967   35.0475 N   0  0  0  0  0  0  0  0  0  0  0  0
    7.7404    6.3172   35.4720 C   0  0  0  0  0  0  0  0  0  0  0  0
    8.5403    6.2700   36.5028 N   0  0  0  0  0  0  0  0  0  0  0  0
  1  2  1  0  0  0  0
  2  3  1  0  0  0  0
  2  9  1  0  0  0  0
  3  4  2  0  0  0  0
  3  6  1  0  0  0  0
  6  5  1  0  0  0  0
  6  7  1  0  0  0  0
  7  8  2  0  0  0  0
  7 13  1  0  0  0  0
  8  9  1  0  0  0  0
  8 11  1  0  0  0  0
  9 10  2  0  0  0  0
 11 12  1  0  0  0  0
 12 13  2  0  0  0  0
M  END
>  <CHROM.1>
8.55591990,3.74582135,36.73553153,1.18432015,0.90702117,3.05734147

>  <Name>
1o15_lig

>  <RI>
224

>  <Rbt.Current_Directory>
/home/itssahil/PROJECTS/Mol_Feturizer/New_Systems/rnas/1o15

>  <Rbt.Executable>
rbdock ($Id: //depot/dev/client3/rdock/2013.1/src/exe/rbdock.cxx#4 $)

>  <Rbt.Library>
libRbt.so (2013.1, Build901 2013/11/27)

>  <Rbt.Parameter_File>
/export/apps/rDock/src/rDock_2013.1_src/data/scripts/dock_solv.prm

>  <Rbt.Receptor>
prm/blind_docking_100.prm

>  <SCORE>
-22.3412

>  <SCORE.INTER>
-22.4346

>  <SCORE.INTER.CONST>
1

>  <SCORE.INTER.POLAR>
-2.04925

>  <SCORE.INTER.ROT>
0

>  <SCORE.INTER.SOLV>
7.56875

>  <SCORE.INTER.VDW>
-14.2485

>  <SCORE.INTER.norm>
-1.72574

>  <SCORE.INTRA>
0

>  <SCORE.INTRA.DIHEDRAL>
0

>  <SCORE.INTRA.DIHEDRAL.0>
0

>  <SCORE.INTRA.POLAR>
0

>  <SCORE.INTRA.POLAR.0>
0

>  <SCORE.INTRA.REPUL>
0

>  <SCORE.INTRA.REPUL.0>
0

>  <SCORE.INTRA.SOLV>
0

>  <SCORE.INTRA.SOLV.lig_0>
-12.9184

>  <SCORE.INTRA.VDW>
0

>  <SCORE.INTRA.VDW.0>
0

>  <SCORE.INTRA.norm>
0

>  <SCORE.RESTR>
0.093421

>  <SCORE.RESTR.CAVITY>
0.093421

>  <SCORE.RESTR.norm>
0.00718623

>  <SCORE.SYSTEM>
0

>  <SCORE.SYSTEM.CONST>
0

>  <SCORE.SYSTEM.DIHEDRAL>
0

>  <SCORE.SYSTEM.SOLV>
0

>  <SCORE.SYSTEM.norm>
0

>  <SCORE.heavy>
13

>  <SCORE.norm>
-1.71855

>  <RMSD>
1.323

$$$$
1o15_lig
 OpenBabel11021811403D
libRbt.so/2013.1/901 2013/11/27
 13 14  0  0  0  0  0  0  0  0999 V2000
   10.2516    0.9869   35.9017 C   0  0  0  0  0  0  0  0  0  0  0  0
    9.8488    2.2966   36.0429 N   0  0  0  0  0  0  0  0  0  0  0  0
   10.5363    3.0789   36.9159 C   0  0  0  0  0  0  0  0  0  0  0  0
   11.4637    2.5346   37.5095 O   0  0  0  0  0  0  0  0  0  0  0  0
   10.9731    5.1636   38.0611 C   0  0  0  0  0  0  0  0  0  0  0  0
   10.2601    4.3941   37.1668 N   0  0  0  0  0  0  0  0  0  0  0  0
    9.2094    4.8647   36.4418 C   0  0  0  0  0  0  0  0  0  0  0  0
    8.5285    4.0695   35.5664 C   0  0  0  0  0  0  0  0  0  0  0  0
    8.8036    2.7151   35.3008 C   0  0  0  0  0  0  0  0  0  0  0  0
    8.2332    1.9475   34.5300 O   0  0  0  0  0  0  0  0  0  0  0  0
    7.5386    4.8724   35.0180 N   0  0  0  0  0  0  0  0  0  0  0  0
    7.6879    6.0909   35.5946 C   0  0  0  0  0  0  0  0  0  0  0  0
    8.6690    6.1463   36.4544 N   0  0  0  0  0  0  0  0  0  0  0  0
  1  2  1  0  0  0  0
  2  3  1  0  0  0  0
  2  9  1  0  0  0  0
  3  4  2  0  0  0  0
  3  6  1  0  0  0  0
  6  5  1  0  0  0  0
  6  7  1  0  0  0  0
  7  8  2  0  0  0  0
  7 13  1  0  0  0  0
  8  9  1  0  0  0  0
  8 11  1  0  0  0  0
  9 10  2  0  0  0  0
 11 12  1  0  0  0  0
 12 13  2  0  0  0  0
M  END
>  <CHROM.1>
9.40950933,3.73564156,36.19668637,0.81045837,0.67595853,-2.78778813

>  <Name>
1o15_lig

>  <RI>
0

>  <Rbt.Current_Directory>
/home/itssahil/PROJECTS/Mol_Feturizer/New_Systems/rnas/1o15

>  <Rbt.Executable>
rbdock ($Id: //depot/dev/client3/rdock/2013.1/src/exe/rbdock.cxx#4 $)

>  <Rbt.Library>
libRbt.so (2013.1, Build901 2013/11/27)

>  <Rbt.Parameter_File>
/export/apps/rDock/src/rDock_2013.1_src/data/scripts/dock_solv.prm

>  <Rbt.Receptor>
prm/pocket_docking_8.prm

>  <SCORE>
-22.7166

>  <SCORE.INTER>
-22.7166

>  <SCORE.INTER.CONST>
1

>  <SCORE.INTER.POLAR>
-2.05186

>  <SCORE.INTER.ROT>
0

>  <SCORE.INTER.SOLV>
6.17297

>  <SCORE.INTER.VDW>
-13.9625

>  <SCORE.INTER.norm>
-1.74743

>  <SCORE.INTRA>
0

>  <SCORE.INTRA.DIHEDRAL>
0

>  <SCORE.INTRA.DIHEDRAL.0>
0

>  <SCORE.INTRA.POLAR>
0

>  <SCORE.INTRA.POLAR.0>
0

>  <SCORE.INTRA.REPUL>
0

>  <SCORE.INTRA.REPUL.0>
0

>  <SCORE.INTRA.SOLV>
0

>  <SCORE.INTRA.SOLV.lig_0>
-12.9184

>  <SCORE.INTRA.VDW>
0

>  <SCORE.INTRA.VDW.0>
0

>  <SCORE.INTRA.norm>
0

>  <SCORE.RESTR>
0

>  <SCORE.RESTR.CAVITY>
0

>  <SCORE.RESTR.norm>
0

>  <SCORE.SYSTEM>
0

>  <SCORE.SYSTEM.CONST>
0

>  <SCORE.SYSTEM.DIHEDRAL>
0

>  <SCORE.SYSTEM.SOLV>
0

>  <SCORE.SYSTEM.norm>
0

>  <SCORE.heavy>
13

>  <SCORE.norm>
-1.74743

>  <RMSD>
1.325

$$$$
1o15_lig
 OpenBabel11021811403D
libRbt.so/2013.1/901 2013/11/27
 13 14  0  0  0  0  0  0  0  0999 V2000
   10.1674    1.0399   35.9415 C   0  0  0  0  0  0  0  0  0  0  0  0
    9.7699    2.3506   36.0875 N   0  0  0  0  0  0  0  0  0  0  0  0
   10.4332    3.1152   36.9942 C   0  0  0  0  0  0  0  0  0  0  0  0
   11.3358    2.5553   37.6113 O   0  0  0  0  0  0  0  0  0  0  0  0
   10.8465    5.1802   38.1830 C   0  0  0  0  0  0  0  0  0  0  0  0
   10.1586    4.4289   37.2542 N   0  0  0  0  0  0  0  0  0  0  0  0
    9.1368    4.9180   36.5008 C   0  0  0  0  0  0  0  0  0  0  0  0
    8.4800    4.1405   35.5916 C   0  0  0  0  0  0  0  0  0  0  0  0
    8.7538    2.7878   35.3163 C   0  0  0  0  0  0  0  0  0  0  0  0
    8.2042    2.0355   34.5158 O   0  0  0  0  0  0  0  0  0  0  0  0
    7.5155    4.9589   35.0214 N   0  0  0  0  0  0  0  0  0  0  0  0
    7.6543    6.1680   35.6199 C   0  0  0  0  0  0  0  0  0  0  0  0
    8.6059    6.2036   36.5131 N   0  0  0  0  0  0  0  0  0  0  0  0
  1  2  1  0  0  0  0
  2  3  1  0  0  0  0
  2  9  1  0  0  0  0
  3  4  2  0  0  0  0
  3  6  1  0  0  0  0
  6  5  1  0  0  0  0
  6  7  1  0  0  0  0
  7  8  2  0  0  0  0
  7 13  1  0  0  0  0
  8  9  1  0  0  0  0
  8 11  1  0  0  0  0
  9 10  2  0  0  0  0
 11 12  1  0  0  0  0
 12 13  2  0  0  0  0
M  END
>  <CHROM.1>
9.33655446,3.79087494,36.24661230,0.80425629,0.71049670,-2.76979902

>  <Name>
1o15_lig

>  <RI>
0

>  <Rbt.Current_Directory>
/home/itssahil/PROJECTS/Mol_Feturizer/New_Systems/rnas/1o15

>  <Rbt.Executable>
rbdock ($Id: //depot/dev/client3/rdock/2013.1/src/exe/rbdock.cxx#4 $)

>  <Rbt.Library>
libRbt.so (2013.1, Build901 2013/11/27)

>  <Rbt.Parameter_File>
/export/apps/rDock/src/rDock_2013.1_src/data/scripts/dock_solv.prm

>  <Rbt.Receptor>
prm/pocket_docking_8.prm

>  <SCORE>
-22.7893

>  <SCORE.INTER>
-22.7893

>  <SCORE.INTER.CONST>
1

>  <SCORE.INTER.POLAR>
-2.10132

>  <SCORE.INTER.ROT>
0

>  <SCORE.INTER.SOLV>
6.13881

>  <SCORE.INTER.VDW>
-13.8347

>  <SCORE.INTER.norm>
-1.75302

>  <SCORE.INTRA>
0

>  <SCORE.INTRA.DIHEDRAL>
0

>  <SCORE.INTRA.DIHEDRAL.0>
0

>  <SCORE.INTRA.POLAR>
0

>  <SCORE.INTRA.POLAR.0>
0

>  <SCORE.INTRA.REPUL>
0

>  <SCORE.INTRA.REPUL.0>
0

>  <SCORE.INTRA.SOLV>
0

>  <SCORE.INTRA.SOLV.lig_0>
-12.9184

>  <SCORE.INTRA.VDW>
0

>  <SCORE.INTRA.VDW.0>
0

>  <SCORE.INTRA.norm>
0

>  <SCORE.RESTR>
0

>  <SCORE.RESTR.CAVITY>
0

>  <SCORE.RESTR.norm>
0

>  <SCORE.SYSTEM>
0

>  <SCORE.SYSTEM.CONST>
0

>  <SCORE.SYSTEM.DIHEDRAL>
0

>  <SCORE.SYSTEM.SOLV>
0

>  <SCORE.SYSTEM.norm>
0

>  <SCORE.heavy>
13

>  <SCORE.norm>
-1.75302

>  <RMSD>
1.326

$$$$
1o15_lig
 OpenBabel11021811403D
libRbt.so/2013.1/901 2013/11/27
 13 14  0  0  0  0  0  0  0  0999 V2000
   10.1612    1.0351   35.9345 C   0  0  0  0  0  0  0  0  0  0  0  0
    9.7659    2.3463   36.0825 N   0  0  0  0  0  0  0  0  0  0  0  0
   10.4313    3.1088   36.9894 C   0  0  0  0  0  0  0  0  0  0  0  0
   11.3337    2.5467   37.6048 O   0  0  0  0  0  0  0  0  0  0  0  0
   10.8492    5.1718   38.1802 C   0  0  0  0  0  0  0  0  0  0  0  0
   10.1591    4.4226   37.2513 N   0  0  0  0  0  0  0  0  0  0  0  0
    9.1372    4.9142   36.4995 C   0  0  0  0  0  0  0  0  0  0  0  0
    8.4783    4.1388   35.5901 C   0  0  0  0  0  0  0  0  0  0  0  0
    8.7496    2.7860   35.3129 C   0  0  0  0  0  0  0  0  0  0  0  0
    8.1979    2.0356   34.5121 O   0  0  0  0  0  0  0  0  0  0  0  0
    7.5144    4.9594   35.0219 N   0  0  0  0  0  0  0  0  0  0  0  0
    7.6557    6.1676   35.6217 C   0  0  0  0  0  0  0  0  0  0  0  0
    8.6084    6.2006   36.5140 N   0  0  0  0  0  0  0  0  0  0  0  0
  1  2  1  0  0  0  0
  2  3  1  0  0  0  0
  2  9  1  0  0  0  0
  3  4  2  0  0  0  0
  3  6  1  0  0  0  0
  6  5  1  0  0  0  0
  6  7  1  0  0  0  0
  7  8  2  0  0  0  0
  7 13  1  0  0  0  0
  8  9  1  0  0  0  0
  8 11  1  0  0  0  0
  9 10  2  0  0  0  0
 11 12  1  0  0  0  0
 12 13  2  0  0  0  0
M  END
>  <CHROM.1>
9.33493382,3.78707360,36.24377611,0.80670376,0.71006746,-2.77020821

>  <Name>
1o15_lig

>  <RI>
0

>  <Rbt.Current_Directory>
/home/itssahil/PROJECTS/Mol_Feturizer/New_Systems/rnas/1o15

>  <Rbt.Executable>
rbdock ($Id: //depot/dev/client3/rdock/2013.1/src/exe/rbdock.cxx#4 $)

>  <Rbt.Library>
libRbt.so (2013.1, Build901 2013/11/27)

>  <Rbt.Parameter_File>
/export/apps/rDock/src/rDock_2013.1_src/data/scripts/dock_solv.prm

>  <Rbt.Receptor>
prm/pocket_docking_4.prm

>  <SCORE>
-22.7915

>  <SCORE.INTER>
-22.7915

>  <SCORE.INTER.CONST>
1

>  <SCORE.INTER.POLAR>
-2.09984

>  <SCORE.INTER.ROT>
0

>  <SCORE.INTER.SOLV>
6.14315

>  <SCORE.INTER.VDW>
-13.8426

>  <SCORE.INTER.norm>
-1.75319

>  <SCORE.INTRA>
0

>  <SCORE.INTRA.DIHEDRAL>
0

>  <SCORE.INTRA.DIHEDRAL.0>
0

>  <SCORE.INTRA.POLAR>
0

>  <SCORE.INTRA.POLAR.0>
0

>  <SCORE.INTRA.REPUL>
0

>  <SCORE.INTRA.REPUL.0>
0

>  <SCORE.INTRA.SOLV>
0

>  <SCORE.INTRA.SOLV.lig_0>
-12.9184

>  <SCORE.INTRA.VDW>
0

>  <SCORE.INTRA.VDW.0>
0

>  <SCORE.INTRA.norm>
0

>  <SCORE.RESTR>
0

>  <SCORE.RESTR.CAVITY>
0

>  <SCORE.RESTR.norm>
0

>  <SCORE.SYSTEM>
0

>  <SCORE.SYSTEM.CONST>
0

>  <SCORE.SYSTEM.DIHEDRAL>
0

>  <SCORE.SYSTEM.SOLV>
0

>  <SCORE.SYSTEM.norm>
0

>  <SCORE.heavy>
13

>  <SCORE.norm>
-1.75319

>  <RMSD>
1.327

$$$$
1o15_lig
 OpenBabel11021811403D
libRbt.so/2013.1/901 2013/11/27
 13 14  0  0  0  0  0  0  0  0999 V2000
    8.6058    0.8899   36.9989 C   0  0  0  0  0  0  0  0  0  0  0  0
    8.5821    2.2615   36.8747 N   0  0  0  0  0  0  0  0  0  0  0  0
    9.3087    2.9895   37.7628 C   0  0  0  0  0  0  0  0  0  0  0  0
    9.9240    2.3458   38.6090 O   0  0  0  0  0  0  0  0  0  0  0  0
   10.1306    5.0675   38.6872 C   0  0  0  0  0  0  0  0  0  0  0  0
    9.3873    4.3542   37.7712 N   0  0  0  0  0  0  0  0  0  0  0  0
    8.6568    4.9353   36.7813 C   0  0  0  0  0  0  0  0  0  0  0  0
    7.9330    4.1929   35.8939 C   0  0  0  0  0  0  0  0  0  0  0  0
    7.8445    2.7885   35.8764 C   0  0  0  0  0  0  0  0  0  0  0  0
    7.2152    2.0634   35.1102 O   0  0  0  0  0  0  0  0  0  0  0  0
    7.3263    5.1063   35.0438 N   0  0  0  0  0  0  0  0  0  0  0  0
    7.7225    6.3309   35.4715 C   0  0  0  0  0  0  0  0  0  0  0  0
    8.5172    6.2916   36.5068 N   0  0  0  0  0  0  0  0  0  0  0  0
  1  2  1  0  0  0  0
  2  3  1  0  0  0  0
  2  9  1  0  0  0  0
  3  4  2  0  0  0  0
  3  6  1  0  0  0  0
  6  5  1  0  0  0  0
  6  7  1  0  0  0  0
  7  8  2  0  0  0  0
  7 13  1  0  0  0  0
  8  9  1  0  0  0  0
  8 11  1  0  0  0  0
  9 10  2  0  0  0  0
 11 12  1  0  0  0  0
 12 13  2  0  0  0  0
M  END
>  <CHROM.1>
8.55943900,3.76755045,36.73746367,1.16702970,0.91338514,3.07184878

>  <Name>
1o15_lig

>  <RI>
224

>  <Rbt.Current_Directory>
/home/itssahil/PROJECTS/Mol_Feturizer/New_Systems/rnas/1o15

>  <Rbt.Executable>
rbdock ($Id: //depot/dev/client3/rdock/2013.1/src/exe/rbdock.cxx#4 $)

>  <Rbt.Library>
libRbt.so (2013.1, Build901 2013/11/27)

>  <Rbt.Parameter_File>
/export/apps/rDock/src/rDock_2013.1_src/data/scripts/dock_solv.prm

>  <Rbt.Receptor>
prm/blind_docking_100.prm

>  <SCORE>
-22.3722

>  <SCORE.INTER>
-22.4834

>  <SCORE.INTER.CONST>
1

>  <SCORE.INTER.POLAR>
-2.06607

>  <SCORE.INTER.ROT>
0

>  <SCORE.INTER.SOLV>
7.58056

>  <SCORE.INTER.VDW>
-14.2289

>  <SCORE.INTER.norm>
-1.72949

>  <SCORE.INTRA>
0

>  <SCORE.INTRA.DIHEDRAL>
0

>  <SCORE.INTRA.DIHEDRAL.0>
0

>  <SCORE.INTRA.POLAR>
0

>  <SCORE.INTRA.POLAR.0>
0

>  <SCORE.INTRA.REPUL>
0

>  <SCORE.INTRA.REPUL.0>
0

>  <SCORE.INTRA.SOLV>
0

>  <SCORE.INTRA.SOLV.lig_0>
-12.9184

>  <SCORE.INTRA.VDW>
0

>  <SCORE.INTRA.VDW.0>
0

>  <SCORE.INTRA.norm>
0

>  <SCORE.RESTR>
0.111183

>  <SCORE.RESTR.CAVITY>
0.111183

>  <SCORE.RESTR.norm>
0.00855251

>  <SCORE.SYSTEM>
0

>  <SCORE.SYSTEM.CONST>
0

>  <SCORE.SYSTEM.DIHEDRAL>
0

>  <SCORE.SYSTEM.SOLV>
0

>  <SCORE.SYSTEM.norm>
0

>  <SCORE.heavy>
13

>  <SCORE.norm>
-1.72094

>  <RMSD>
1.328

$$$$
1o15_lig
 OpenBabel11021811403D
libRbt.so/2013.1/901 2013/11/27
 13 14  0  0  0  0  0  0  0  0999 V2000
   10.2548    1.0252   35.9181 C   0  0  0  0  0  0  0  0  0  0  0  0
    9.8454    2.3329   36.0585 N   0  0  0  0  0  0  0  0  0  0  0  0
   10.5218    3.1161   36.9393 C   0  0  0  0  0  0  0  0  0  0  0  0
   11.4460    2.5742   37.5402 O   0  0  0  0  0  0  0  0  0  0  0  0
   10.9398    5.2000   38.0930 C   0  0  0  0  0  0  0  0  0  0  0  0
   10.2381    4.4295   37.1906 N   0  0  0  0  0  0  0  0  0  0  0  0
    9.1921    4.8976   36.4572 C   0  0  0  0  0  0  0  0  0  0  0  0
    8.5223    4.1016   35.5739 C   0  0  0  0  0  0  0  0  0  0  0  0
    8.8053    2.7489   35.3078 C   0  0  0  0  0  0  0  0  0  0  0  0
    8.2450    1.9807   34.5302 O   0  0  0  0  0  0  0  0  0  0  0  0
    7.5343    4.9017   35.0183 N   0  0  0  0  0  0  0  0  0  0  0  0
    7.6734    6.1195   35.5989 C   0  0  0  0  0  0  0  0  0  0  0  0
    8.6464    6.1769   36.4676 N   0  0  0  0  0  0  0  0  0  0  0  0
  1  2  1  0  0  0  0
  2  3  1  0  0  0  0
  2  9  1  0  0  0  0
  3  4  2  0  0  0  0
  3  6  1  0  0  0  0
  6  5  1  0  0  0  0
  6  7  1  0  0  0  0
  7  8  2  0  0  0  0
  7 13  1  0  0  0  0
  8  9  1  0  0  0  0
  8 11  1  0  0  0  0
  9 10  2  0  0  0  0
 11 12  1  0  0  0  0
 12 13  2  0  0  0  0
M  END
>  <CHROM.1>
9.39894662,3.76985827,36.21140580,0.80153624,0.68303946,-2.77998119

>  <Name>
1o15_lig

>  <RI>
0

>  <Rbt.Current_Directory>
/home/itssahil/PROJECTS/Mol_Feturizer/New_Systems/rnas/1o15

>  <Rbt.Executable>
rbdock ($Id: //depot/dev/client3/rdock/2013.1/src/exe/rbdock.cxx#4 $)

>  <Rbt.Library>
libRbt.so (2013.1, Build901 2013/11/27)

>  <Rbt.Parameter_File>
/export/apps/rDock/src/rDock_2013.1_src/data/scripts/dock_solv.prm

>  <Rbt.Receptor>
prm/pocket_docking_5.prm

>  <SCORE>
-22.7245

>  <SCORE.INTER>
-22.7245

>  <SCORE.INTER.CONST>
1

>  <SCORE.INTER.POLAR>
-2.07103

>  <SCORE.INTER.ROT>
0

>  <SCORE.INTER.SOLV>
6.18798

>  <SCORE.INTER.VDW>
-13.9089

>  <SCORE.INTER.norm>
-1.74804

>  <SCORE.INTRA>
0

>  <SCORE.INTRA.DIHEDRAL>
0

>  <SCORE.INTRA.DIHEDRAL.0>
0

>  <SCORE.INTRA.POLAR>
0

>  <SCORE.INTRA.POLAR.0>
0

>  <SCORE.INTRA.REPUL>
0

>  <SCORE.INTRA.REPUL.0>
0

>  <SCORE.INTRA.SOLV>
0

>  <SCORE.INTRA.SOLV.lig_0>
-12.9184

>  <SCORE.INTRA.VDW>
0

>  <SCORE.INTRA.VDW.0>
0

>  <SCORE.INTRA.norm>
0

>  <SCORE.RESTR>
0

>  <SCORE.RESTR.CAVITY>
0

>  <SCORE.RESTR.norm>
0

>  <SCORE.SYSTEM>
0

>  <SCORE.SYSTEM.CONST>
0

>  <SCORE.SYSTEM.DIHEDRAL>
0

>  <SCORE.SYSTEM.SOLV>
0

>  <SCORE.SYSTEM.norm>
0

>  <SCORE.heavy>
13

>  <SCORE.norm>
-1.74804

>  <RMSD>
1.332

$$$$
1o15_lig
 OpenBabel11021811403D
libRbt.so/2013.1/901 2013/11/27
 13 14  0  0  0  0  0  0  0  0999 V2000
   10.2593    0.9947   35.8941 C   0  0  0  0  0  0  0  0  0  0  0  0
    9.8525    2.3028   36.0374 N   0  0  0  0  0  0  0  0  0  0  0  0
   10.5389    3.0866   36.9099 C   0  0  0  0  0  0  0  0  0  0  0  0
   11.4691    2.5447   37.5015 O   0  0  0  0  0  0  0  0  0  0  0  0
   10.9708    5.1716   38.0564 C   0  0  0  0  0  0  0  0  0  0  0  0
   10.2588    4.4006   37.1626 N   0  0  0  0  0  0  0  0  0  0  0  0
    9.2054    4.8685   36.4398 C   0  0  0  0  0  0  0  0  0  0  0  0
    8.5256    4.0719   35.5647 C   0  0  0  0  0  0  0  0  0  0  0  0
    8.8047    2.7187   35.2974 C   0  0  0  0  0  0  0  0  0  0  0  0
    8.2355    1.9499   34.5268 O   0  0  0  0  0  0  0  0  0  0  0  0
    7.5322    4.8721   35.0189 N   0  0  0  0  0  0  0  0  0  0  0  0
    7.6785    6.0906   35.5964 C   0  0  0  0  0  0  0  0  0  0  0  0
    8.6608    6.1483   36.4546 N   0  0  0  0  0  0  0  0  0  0  0  0
  1  2  1  0  0  0  0
  2  3  1  0  0  0  0
  2  9  1  0  0  0  0
  3  4  2  0  0  0  0
  3  6  1  0  0  0  0
  6  5  1  0  0  0  0
  6  7  1  0  0  0  0
  7  8  2  0  0  0  0
  7 13  1  0  0  0  0
  8  9  1  0  0  0  0
  8 11  1  0  0  0  0
  9 10  2  0  0  0  0
 11 12  1  0  0  0  0
 12 13  2  0  0  0  0
M  END
>  <CHROM.1>
9.40875252,3.74031430,36.19324980,0.80730038,0.67323833,-2.78483891

>  <Name>
1o15_lig

>  <RI>
0

>  <Rbt.Current_Directory>
/home/itssahil/PROJECTS/Mol_Feturizer/New_Systems/rnas/1o15

>  <Rbt.Executable>
rbdock ($Id: //depot/dev/client3/rdock/2013.1/src/exe/rbdock.cxx#4 $)

>  <Rbt.Library>
libRbt.so (2013.1, Build901 2013/11/27)

>  <Rbt.Parameter_File>
/export/apps/rDock/src/rDock_2013.1_src/data/scripts/dock_solv.prm

>  <Rbt.Receptor>
prm/pocket_docking_6.prm

>  <SCORE>
-22.7375

>  <SCORE.INTER>
-22.7375

>  <SCORE.INTER.CONST>
1

>  <SCORE.INTER.POLAR>
-2.04653

>  <SCORE.INTER.ROT>
0

>  <SCORE.INTER.SOLV>
6.20767

>  <SCORE.INTER.VDW>
-14.0058

>  <SCORE.INTER.norm>
-1.74904

>  <SCORE.INTRA>
0

>  <SCORE.INTRA.DIHEDRAL>
0

>  <SCORE.INTRA.DIHEDRAL.0>
0

>  <SCORE.INTRA.POLAR>
0

>  <SCORE.INTRA.POLAR.0>
0

>  <SCORE.INTRA.REPUL>
0

>  <SCORE.INTRA.REPUL.0>
0

>  <SCORE.INTRA.SOLV>
0

>  <SCORE.INTRA.SOLV.lig_0>
-12.9184

>  <SCORE.INTRA.VDW>
0

>  <SCORE.INTRA.VDW.0>
0

>  <SCORE.INTRA.norm>
0

>  <SCORE.RESTR>
0

>  <SCORE.RESTR.CAVITY>
0

>  <SCORE.RESTR.norm>
0

>  <SCORE.SYSTEM>
0

>  <SCORE.SYSTEM.CONST>
0

>  <SCORE.SYSTEM.DIHEDRAL>
0

>  <SCORE.SYSTEM.SOLV>
0

>  <SCORE.SYSTEM.norm>
0

>  <SCORE.heavy>
13

>  <SCORE.norm>
-1.74904

>  <RMSD>
1.332

$$$$
1o15_lig
 OpenBabel11021811403D
libRbt.so/2013.1/901 2013/11/27
 13 14  0  0  0  0  0  0  0  0999 V2000
   10.2627    1.0260   35.9239 C   0  0  0  0  0  0  0  0  0  0  0  0
    9.8490    2.3327   36.0605 N   0  0  0  0  0  0  0  0  0  0  0  0
   10.5267    3.1224   36.9345 C   0  0  0  0  0  0  0  0  0  0  0  0
   11.4558    2.5866   37.5333 O   0  0  0  0  0  0  0  0  0  0  0  0
   10.9424    5.2130   38.0769 C   0  0  0  0  0  0  0  0  0  0  0  0
   10.2392    4.4359   37.1813 N   0  0  0  0  0  0  0  0  0  0  0  0
    9.1879    4.8967   36.4509 C   0  0  0  0  0  0  0  0  0  0  0  0
    8.5169    4.0942   35.5744 C   0  0  0  0  0  0  0  0  0  0  0  0
    8.8037    2.7414   35.3130 C   0  0  0  0  0  0  0  0  0  0  0  0
    8.2426    1.9676   34.5415 O   0  0  0  0  0  0  0  0  0  0  0  0
    7.5231    4.8881   35.0201 N   0  0  0  0  0  0  0  0  0  0  0  0
    7.6604    6.1090   35.5946 C   0  0  0  0  0  0  0  0  0  0  0  0
    8.6374    6.1740   36.4583 N   0  0  0  0  0  0  0  0  0  0  0  0
  1  2  1  0  0  0  0
  2  3  1  0  0  0  0
  2  9  1  0  0  0  0
  3  4  2  0  0  0  0
  3  6  1  0  0  0  0
  6  5  1  0  0  0  0
  6  7  1  0  0  0  0
  7  8  2  0  0  0  0
  7 13  1  0  0  0  0
  8  9  1  0  0  0  0
  8 11  1  0  0  0  0
  9 10  2  0  0  0  0
 11 12  1  0  0  0  0
 12 13  2  0  0  0  0
M  END
>  <CHROM.1>
9.39785281,3.76864698,36.20915208,0.79917619,0.67717261,-2.78295850

>  <Name>
1o15_lig

>  <RI>
0

>  <Rbt.Current_Directory>
/home/itssahil/PROJECTS/Mol_Feturizer/New_Systems/rnas/1o15

>  <Rbt.Executable>
rbdock ($Id: //depot/dev/client3/rdock/2013.1/src/exe/rbdock.cxx#4 $)

>  <Rbt.Library>
libRbt.so (2013.1, Build901 2013/11/27)

>  <Rbt.Parameter_File>
/export/apps/rDock/src/rDock_2013.1_src/data/scripts/dock_solv.prm

>  <Rbt.Receptor>
prm/pocket_docking_7.prm

>  <SCORE>
-22.7065

>  <SCORE.INTER>
-22.7065

>  <SCORE.INTER.CONST>
1

>  <SCORE.INTER.POLAR>
-2.05322

>  <SCORE.INTER.ROT>
0

>  <SCORE.INTER.SOLV>
6.21285

>  <SCORE.INTER.VDW>
-13.9646

>  <SCORE.INTER.norm>
-1.74666

>  <SCORE.INTRA>
0

>  <SCORE.INTRA.DIHEDRAL>
0

>  <SCORE.INTRA.DIHEDRAL.0>
0

>  <SCORE.INTRA.POLAR>
0

>  <SCORE.INTRA.POLAR.0>
0

>  <SCORE.INTRA.REPUL>
0

>  <SCORE.INTRA.REPUL.0>
0

>  <SCORE.INTRA.SOLV>
0

>  <SCORE.INTRA.SOLV.lig_0>
-12.9184

>  <SCORE.INTRA.VDW>
0

>  <SCORE.INTRA.VDW.0>
0

>  <SCORE.INTRA.norm>
0

>  <SCORE.RESTR>
0

>  <SCORE.RESTR.CAVITY>
0

>  <SCORE.RESTR.norm>
0

>  <SCORE.SYSTEM>
0

>  <SCORE.SYSTEM.CONST>
0

>  <SCORE.SYSTEM.DIHEDRAL>
0

>  <SCORE.SYSTEM.SOLV>
0

>  <SCORE.SYSTEM.norm>
0

>  <SCORE.heavy>
13

>  <SCORE.norm>
-1.74666

>  <RMSD>
1.333

$$$$
1o15_lig
 OpenBabel11021811403D
libRbt.so/2013.1/901 2013/11/27
 13 14  0  0  0  0  0  0  0  0999 V2000
   10.1879    0.9702   35.8638 C   0  0  0  0  0  0  0  0  0  0  0  0
    9.8024    2.2837   36.0176 N   0  0  0  0  0  0  0  0  0  0  0  0
   10.4990    3.0480   36.8992 C   0  0  0  0  0  0  0  0  0  0  0  0
   11.4182    2.4854   37.4886 O   0  0  0  0  0  0  0  0  0  0  0  0
   10.9619    5.1152   38.0657 C   0  0  0  0  0  0  0  0  0  0  0  0
   10.2400    4.3641   37.1629 N   0  0  0  0  0  0  0  0  0  0  0  0
    9.1968    4.8561   36.4412 C   0  0  0  0  0  0  0  0  0  0  0  0
    8.5066    4.0788   35.5570 C   0  0  0  0  0  0  0  0  0  0  0  0
    8.7640    2.7235   35.2783 C   0  0  0  0  0  0  0  0  0  0  0  0
    8.1845    1.9713   34.4990 O   0  0  0  0  0  0  0  0  0  0  0  0
    7.5284    4.9002   35.0153 N   0  0  0  0  0  0  0  0  0  0  0  0
    7.6931    6.1109   35.6043 C   0  0  0  0  0  0  0  0  0  0  0  0
    8.6736    6.1445   36.4659 N   0  0  0  0  0  0  0  0  0  0  0  0
  1  2  1  0  0  0  0
  2  3  1  0  0  0  0
  2  9  1  0  0  0  0
  3  4  2  0  0  0  0
  3  6  1  0  0  0  0
  6  5  1  0  0  0  0
  6  7  1  0  0  0  0
  7  8  2  0  0  0  0
  7 13  1  0  0  0  0
  8  9  1  0  0  0  0
  8 11  1  0  0  0  0
  9 10  2  0  0  0  0
 11 12  1  0  0  0  0
 12 13  2  0  0  0  0
M  END
>  <CHROM.1>
9.38214327,3.72687127,36.18508252,0.82595945,0.68190906,-2.78754439

>  <Name>
1o15_lig

>  <RI>
0

>  <Rbt.Current_Directory>
/home/itssahil/PROJECTS/Mol_Feturizer/New_Systems/rnas/1o15

>  <Rbt.Executable>
rbdock ($Id: //depot/dev/client3/rdock/2013.1/src/exe/rbdock.cxx#4 $)

>  <Rbt.Library>
libRbt.so (2013.1, Build901 2013/11/27)

>  <Rbt.Parameter_File>
/export/apps/rDock/src/rDock_2013.1_src/data/scripts/dock_solv.prm

>  <Rbt.Receptor>
prm/pocket_docking_4.prm

>  <SCORE>
-22.7406

>  <SCORE.INTER>
-22.7406

>  <SCORE.INTER.CONST>
1

>  <SCORE.INTER.POLAR>
-2.05396

>  <SCORE.INTER.ROT>
0

>  <SCORE.INTER.SOLV>
6.19371

>  <SCORE.INTER.VDW>
-13.9785

>  <SCORE.INTER.norm>
-1.74928

>  <SCORE.INTRA>
0

>  <SCORE.INTRA.DIHEDRAL>
0

>  <SCORE.INTRA.DIHEDRAL.0>
0

>  <SCORE.INTRA.POLAR>
0

>  <SCORE.INTRA.POLAR.0>
0

>  <SCORE.INTRA.REPUL>
0

>  <SCORE.INTRA.REPUL.0>
0

>  <SCORE.INTRA.SOLV>
0

>  <SCORE.INTRA.SOLV.lig_0>
-12.9184

>  <SCORE.INTRA.VDW>
0

>  <SCORE.INTRA.VDW.0>
0

>  <SCORE.INTRA.norm>
0

>  <SCORE.RESTR>
0

>  <SCORE.RESTR.CAVITY>
0

>  <SCORE.RESTR.norm>
0

>  <SCORE.SYSTEM>
0

>  <SCORE.SYSTEM.CONST>
0

>  <SCORE.SYSTEM.DIHEDRAL>
0

>  <SCORE.SYSTEM.SOLV>
0

>  <SCORE.SYSTEM.norm>
0

>  <SCORE.heavy>
13

>  <SCORE.norm>
-1.74928

>  <RMSD>
1.336

$$$$
1o15_lig
 OpenBabel11021811403D
libRbt.so/2013.1/901 2013/11/27
 13 14  0  0  0  0  0  0  0  0999 V2000
   10.1858    1.0203   35.9085 C   0  0  0  0  0  0  0  0  0  0  0  0
    9.7895    2.3315   36.0541 N   0  0  0  0  0  0  0  0  0  0  0  0
   10.4696    3.1026   36.9427 C   0  0  0  0  0  0  0  0  0  0  0  0
   11.3849    2.5476   37.5452 O   0  0  0  0  0  0  0  0  0  0  0  0
   10.9036    5.1756   38.1100 C   0  0  0  0  0  0  0  0  0  0  0  0
   10.1984    4.4176   37.1998 N   0  0  0  0  0  0  0  0  0  0  0  0
    9.1612    4.9007   36.4637 C   0  0  0  0  0  0  0  0  0  0  0  0
    8.4876    4.1166   35.5726 C   0  0  0  0  0  0  0  0  0  0  0  0
    8.7577    2.7626   35.3005 C   0  0  0  0  0  0  0  0  0  0  0  0
    8.1933    2.0046   34.5158 O   0  0  0  0  0  0  0  0  0  0  0  0
    7.5109    4.9302   35.0165 N   0  0  0  0  0  0  0  0  0  0  0  0
    7.6599    6.1433   35.6046 C   0  0  0  0  0  0  0  0  0  0  0  0
    8.6290    6.1856   36.4785 N   0  0  0  0  0  0  0  0  0  0  0  0
  1  2  1  0  0  0  0
  2  3  1  0  0  0  0
  2  9  1  0  0  0  0
  3  4  2  0  0  0  0
  3  6  1  0  0  0  0
  6  5  1  0  0  0  0
  6  7  1  0  0  0  0
  7  8  2  0  0  0  0
  7 13  1  0  0  0  0
  8  9  1  0  0  0  0
  8 11  1  0  0  0  0
  9 10  2  0  0  0  0
 11 12  1  0  0  0  0
 12 13  2  0  0  0  0
M  END
>  <CHROM.1>
9.35742958,3.77218572,36.21272745,0.81197749,0.69153388,-2.78108266

>  <Name>
1o15_lig

>  <RI>
0

>  <Rbt.Current_Directory>
/home/itssahil/PROJECTS/Mol_Feturizer/New_Systems/rnas/1o15

>  <Rbt.Executable>
rbdock ($Id: //depot/dev/client3/rdock/2013.1/src/exe/rbdock.cxx#4 $)

>  <Rbt.Library>
libRbt.so (2013.1, Build901 2013/11/27)

>  <Rbt.Parameter_File>
/export/apps/rDock/src/rDock_2013.1_src/data/scripts/dock_solv.prm

>  <Rbt.Receptor>
prm/blind_docking_80.prm

>  <SCORE>
-22.7168

>  <SCORE.INTER>
-22.7168

>  <SCORE.INTER.CONST>
1

>  <SCORE.INTER.POLAR>
-2.07025

>  <SCORE.INTER.ROT>
0

>  <SCORE.INTER.SOLV>
6.20619

>  <SCORE.INTER.VDW>
-13.9124

>  <SCORE.INTER.norm>
-1.74745

>  <SCORE.INTRA>
0

>  <SCORE.INTRA.DIHEDRAL>
0

>  <SCORE.INTRA.DIHEDRAL.0>
0

>  <SCORE.INTRA.POLAR>
0

>  <SCORE.INTRA.POLAR.0>
0

>  <SCORE.INTRA.REPUL>
0

>  <SCORE.INTRA.REPUL.0>
0

>  <SCORE.INTRA.SOLV>
0

>  <SCORE.INTRA.SOLV.lig_0>
-12.9184

>  <SCORE.INTRA.VDW>
0

>  <SCORE.INTRA.VDW.0>
0

>  <SCORE.INTRA.norm>
0

>  <SCORE.RESTR>
0

>  <SCORE.RESTR.CAVITY>
0

>  <SCORE.RESTR.norm>
0

>  <SCORE.SYSTEM>
0

>  <SCORE.SYSTEM.CONST>
0

>  <SCORE.SYSTEM.DIHEDRAL>
0

>  <SCORE.SYSTEM.SOLV>
0

>  <SCORE.SYSTEM.norm>
0

>  <SCORE.heavy>
13

>  <SCORE.norm>
-1.74745

>  <RMSD>
1.338

$$$$
1o15_lig
 OpenBabel11021811403D
libRbt.so/2013.1/901 2013/11/27
 13 14  0  0  0  0  0  0  0  0999 V2000
   10.1965    1.0575   35.9513 C   0  0  0  0  0  0  0  0  0  0  0  0
    9.7856    2.3653   36.0865 N   0  0  0  0  0  0  0  0  0  0  0  0
   10.4547    3.1499   36.9715 C   0  0  0  0  0  0  0  0  0  0  0  0
   11.3742    2.6092   37.5806 O   0  0  0  0  0  0  0  0  0  0  0  0
   10.8629    5.2357   38.1254 C   0  0  0  0  0  0  0  0  0  0  0  0
   10.1686    4.4637   37.2186 N   0  0  0  0  0  0  0  0  0  0  0  0
    9.1284    4.9304   36.4760 C   0  0  0  0  0  0  0  0  0  0  0  0
    8.4660    4.1328   35.5886 C   0  0  0  0  0  0  0  0  0  0  0  0
    8.7515    2.7798   35.3269 C   0  0  0  0  0  0  0  0  0  0  0  0
    8.1976    2.0103   34.5459 O   0  0  0  0  0  0  0  0  0  0  0  0
    7.4822    4.9318   35.0239 N   0  0  0  0  0  0  0  0  0  0  0  0
    7.6163    6.1506   35.6038 C   0  0  0  0  0  0  0  0  0  0  0  0
    8.5824    6.2096   36.4802 N   0  0  0  0  0  0  0  0  0  0  0  0
  1  2  1  0  0  0  0
  2  3  1  0  0  0  0
  2  9  1  0  0  0  0
  3  4  2  0  0  0  0
  3  6  1  0  0  0  0
  6  5  1  0  0  0  0
  6  7  1  0  0  0  0
  7  8  2  0  0  0  0
  7 13  1  0  0  0  0
  8  9  1  0  0  0  0
  8 11  1  0  0  0  0
  9 10  2  0  0  0  0
 11 12  1  0  0  0  0
 12 13  2  0  0  0  0
M  END
>  <CHROM.1>
9.33755273,3.80230649,36.23363606,0.79753134,0.69045566,-2.77894501

>  <Name>
1o15_lig

>  <RI>
0

>  <Rbt.Current_Directory>
/home/itssahil/PROJECTS/Mol_Feturizer/New_Systems/rnas/1o15

>  <Rbt.Executable>
rbdock ($Id: //depot/dev/client3/rdock/2013.1/src/exe/rbdock.cxx#4 $)

>  <Rbt.Library>
libRbt.so (2013.1, Build901 2013/11/27)

>  <Rbt.Parameter_File>
/export/apps/rDock/src/rDock_2013.1_src/data/scripts/dock_solv.prm

>  <Rbt.Receptor>
prm/pocket_docking_6.prm

>  <SCORE>
-22.6881

>  <SCORE.INTER>
-22.6881

>  <SCORE.INTER.CONST>
1

>  <SCORE.INTER.POLAR>
-2.05447

>  <SCORE.INTER.ROT>
0

>  <SCORE.INTER.SOLV>
6.24216

>  <SCORE.INTER.VDW>
-13.9579

>  <SCORE.INTER.norm>
-1.74524

>  <SCORE.INTRA>
0

>  <SCORE.INTRA.DIHEDRAL>
0

>  <SCORE.INTRA.DIHEDRAL.0>
0

>  <SCORE.INTRA.POLAR>
0

>  <SCORE.INTRA.POLAR.0>
0

>  <SCORE.INTRA.REPUL>
0

>  <SCORE.INTRA.REPUL.0>
0

>  <SCORE.INTRA.SOLV>
0

>  <SCORE.INTRA.SOLV.lig_0>
-12.9184

>  <SCORE.INTRA.VDW>
0

>  <SCORE.INTRA.VDW.0>
0

>  <SCORE.INTRA.norm>
0

>  <SCORE.RESTR>
0

>  <SCORE.RESTR.CAVITY>
0

>  <SCORE.RESTR.norm>
0

>  <SCORE.SYSTEM>
0

>  <SCORE.SYSTEM.CONST>
0

>  <SCORE.SYSTEM.DIHEDRAL>
0

>  <SCORE.SYSTEM.SOLV>
0

>  <SCORE.SYSTEM.norm>
0

>  <SCORE.heavy>
13

>  <SCORE.norm>
-1.74524

>  <RMSD>
1.339

$$$$
1o15_lig
 OpenBabel11021811403D
libRbt.so/2013.1/901 2013/11/27
 13 14  0  0  0  0  0  0  0  0999 V2000
   10.2294    1.0712   35.9445 C   0  0  0  0  0  0  0  0  0  0  0  0
    9.8119    2.3764   36.0842 N   0  0  0  0  0  0  0  0  0  0  0  0
   10.4738    3.1601   36.9755 C   0  0  0  0  0  0  0  0  0  0  0  0
   11.3934    2.6208   37.5857 O   0  0  0  0  0  0  0  0  0  0  0  0
   10.8675    5.2423   38.1407 C   0  0  0  0  0  0  0  0  0  0  0  0
   10.1805    4.4713   37.2275 N   0  0  0  0  0  0  0  0  0  0  0  0
    9.1411    4.9366   36.4830 C   0  0  0  0  0  0  0  0  0  0  0  0
    8.4859    4.1401   35.5893 C   0  0  0  0  0  0  0  0  0  0  0  0
    8.7788    2.7897   35.3224 C   0  0  0  0  0  0  0  0  0  0  0  0
    8.2317    2.0212   34.5357 O   0  0  0  0  0  0  0  0  0  0  0  0
    7.5006    4.9371   35.0244 N   0  0  0  0  0  0  0  0  0  0  0  0
    7.6267    6.1537   35.6105 C   0  0  0  0  0  0  0  0  0  0  0  0
    8.5889    6.2131   36.4910 N   0  0  0  0  0  0  0  0  0  0  0  0
  1  2  1  0  0  0  0
  2  3  1  0  0  0  0
  2  9  1  0  0  0  0
  3  4  2  0  0  0  0
  3  6  1  0  0  0  0
  6  5  1  0  0  0  0
  6  7  1  0  0  0  0
  7  8  2  0  0  0  0
  7 13  1  0  0  0  0
  8  9  1  0  0  0  0
  8 11  1  0  0  0  0
  9 10  2  0  0  0  0
 11 12  1  0  0  0  0
 12 13  2  0  0  0  0
M  END
>  <CHROM.1>
9.35646239,3.81064893,36.23623450,0.78997617,0.69245031,-2.76946208

>  <Name>
1o15_lig

>  <RI>
0

>  <Rbt.Current_Directory>
/home/itssahil/PROJECTS/Mol_Feturizer/New_Systems/rnas/1o15

>  <Rbt.Executable>
rbdock ($Id: //depot/dev/client3/rdock/2013.1/src/exe/rbdock.cxx#4 $)

>  <Rbt.Library>
libRbt.so (2013.1, Build901 2013/11/27)

>  <Rbt.Parameter_File>
/export/apps/rDock/src/rDock_2013.1_src/data/scripts/dock_solv.prm

>  <Rbt.Receptor>
prm/pocket_docking_5.prm

>  <SCORE>
-22.7117

>  <SCORE.INTER>
-22.7117

>  <SCORE.INTER.CONST>
1

>  <SCORE.INTER.POLAR>
-2.07188

>  <SCORE.INTER.ROT>
0

>  <SCORE.INTER.SOLV>
6.23372

>  <SCORE.INTER.VDW>
-13.9128

>  <SCORE.INTER.norm>
-1.74705

>  <SCORE.INTRA>
0

>  <SCORE.INTRA.DIHEDRAL>
0

>  <SCORE.INTRA.DIHEDRAL.0>
0

>  <SCORE.INTRA.POLAR>
0

>  <SCORE.INTRA.POLAR.0>
0

>  <SCORE.INTRA.REPUL>
0

>  <SCORE.INTRA.REPUL.0>
0

>  <SCORE.INTRA.SOLV>
0

>  <SCORE.INTRA.SOLV.lig_0>
-12.9184

>  <SCORE.INTRA.VDW>
0

>  <SCORE.INTRA.VDW.0>
0

>  <SCORE.INTRA.norm>
0

>  <SCORE.RESTR>
0

>  <SCORE.RESTR.CAVITY>
0

>  <SCORE.RESTR.norm>
0

>  <SCORE.SYSTEM>
0

>  <SCORE.SYSTEM.CONST>
0

>  <SCORE.SYSTEM.DIHEDRAL>
0

>  <SCORE.SYSTEM.SOLV>
0

>  <SCORE.SYSTEM.norm>
0

>  <SCORE.heavy>
13

>  <SCORE.norm>
-1.74705

>  <RMSD>
1.342

$$$$
1o15_lig
 OpenBabel11021811403D
libRbt.so/2013.1/901 2013/11/27
 13 14  0  0  0  0  0  0  0  0999 V2000
    8.5844    0.8898   36.9854 C   0  0  0  0  0  0  0  0  0  0  0  0
    8.5636    2.2619   36.8657 N   0  0  0  0  0  0  0  0  0  0  0  0
    9.2901    2.9855   37.7575 C   0  0  0  0  0  0  0  0  0  0  0  0
    9.9028    2.3378   38.6025 O   0  0  0  0  0  0  0  0  0  0  0  0
   10.1145    5.0589   38.6901 C   0  0  0  0  0  0  0  0  0  0  0  0
    9.3714    4.3500   37.7705 N   0  0  0  0  0  0  0  0  0  0  0  0
    8.6436    4.9358   36.7814 C   0  0  0  0  0  0  0  0  0  0  0  0
    7.9199    4.1978   35.8903 C   0  0  0  0  0  0  0  0  0  0  0  0
    7.8287    2.7936   35.8679 C   0  0  0  0  0  0  0  0  0  0  0  0
    7.1992    2.0723   35.0983 O   0  0  0  0  0  0  0  0  0  0  0  0
    7.3163    5.1151   35.0422 N   0  0  0  0  0  0  0  0  0  0  0  0
    7.7142    6.3375   35.4747 C   0  0  0  0  0  0  0  0  0  0  0  0
    8.5070    6.2933   36.5111 N   0  0  0  0  0  0  0  0  0  0  0  0
  1  2  1  0  0  0  0
  2  3  1  0  0  0  0
  2  9  1  0  0  0  0
  3  4  2  0  0  0  0
  3  6  1  0  0  0  0
  6  5  1  0  0  0  0
  6  7  1  0  0  0  0
  7  8  2  0  0  0  0
  7 13  1  0  0  0  0
  8  9  1  0  0  0  0
  8 11  1  0  0  0  0
  9 10  2  0  0  0  0
 11 12  1  0  0  0  0
 12 13  2  0  0  0  0
M  END
>  <CHROM.1>
8.54408293,3.76840007,36.73348773,1.17036189,0.91490808,3.07253993

>  <Name>
1o15_lig

>  <RI>
224

>  <Rbt.Current_Directory>
/home/itssahil/PROJECTS/Mol_Feturizer/New_Systems/rnas/1o15

>  <Rbt.Executable>
rbdock ($Id: //depot/dev/client3/rdock/2013.1/src/exe/rbdock.cxx#4 $)

>  <Rbt.Library>
libRbt.so (2013.1, Build901 2013/11/27)

>  <Rbt.Parameter_File>
/export/apps/rDock/src/rDock_2013.1_src/data/scripts/dock_solv.prm

>  <Rbt.Receptor>
prm/blind_docking_100.prm

>  <SCORE>
-22.2238

>  <SCORE.INTER>
-22.3098

>  <SCORE.INTER.CONST>
1

>  <SCORE.INTER.POLAR>
-2.05711

>  <SCORE.INTER.ROT>
0

>  <SCORE.INTER.SOLV>
7.64633

>  <SCORE.INTER.VDW>
-14.165

>  <SCORE.INTER.norm>
-1.71614

>  <SCORE.INTRA>
0

>  <SCORE.INTRA.DIHEDRAL>
0

>  <SCORE.INTRA.DIHEDRAL.0>
0

>  <SCORE.INTRA.POLAR>
0

>  <SCORE.INTRA.POLAR.0>
0

>  <SCORE.INTRA.REPUL>
0

>  <SCORE.INTRA.REPUL.0>
0

>  <SCORE.INTRA.SOLV>
0

>  <SCORE.INTRA.SOLV.lig_0>
-12.9184

>  <SCORE.INTRA.VDW>
0

>  <SCORE.INTRA.VDW.0>
0

>  <SCORE.INTRA.norm>
0

>  <SCORE.RESTR>
0.0860255

>  <SCORE.RESTR.CAVITY>
0.0860255

>  <SCORE.RESTR.norm>
0.00661734

>  <SCORE.SYSTEM>
0

>  <SCORE.SYSTEM.CONST>
0

>  <SCORE.SYSTEM.DIHEDRAL>
0

>  <SCORE.SYSTEM.SOLV>
0

>  <SCORE.SYSTEM.norm>
0

>  <SCORE.heavy>
13

>  <SCORE.norm>
-1.70952

>  <RMSD>
1.344

$$$$
1o15_lig
 OpenBabel11021811403D
libRbt.so/2013.1/901 2013/11/27
 13 14  0  0  0  0  0  0  0  0999 V2000
   10.2395    1.0765   35.9418 C   0  0  0  0  0  0  0  0  0  0  0  0
    9.8186    2.3805   36.0827 N   0  0  0  0  0  0  0  0  0  0  0  0
   10.4774    3.1645   36.9760 C   0  0  0  0  0  0  0  0  0  0  0  0
   11.3976    2.6266   37.5866 O   0  0  0  0  0  0  0  0  0  0  0  0
   10.8646    5.2461   38.1446 C   0  0  0  0  0  0  0  0  0  0  0  0
   10.1806    4.4746   37.2295 N   0  0  0  0  0  0  0  0  0  0  0  0
    9.1409    4.9384   36.4843 C   0  0  0  0  0  0  0  0  0  0  0  0
    8.4889    4.1415   35.5886 C   0  0  0  0  0  0  0  0  0  0  0  0
    8.7854    2.7923   35.3202 C   0  0  0  0  0  0  0  0  0  0  0  0
    8.2412    2.0235   34.5317 O   0  0  0  0  0  0  0  0  0  0  0  0
    7.5023    4.9369   35.0236 N   0  0  0  0  0  0  0  0  0  0  0  0
    7.6247    6.1530   35.6116 C   0  0  0  0  0  0  0  0  0  0  0  0
    8.5857    6.2136   36.4934 N   0  0  0  0  0  0  0  0  0  0  0  0
  1  2  1  0  0  0  0
  2  3  1  0  0  0  0
  2  9  1  0  0  0  0
  3  4  2  0  0  0  0
  3  6  1  0  0  0  0
  6  5  1  0  0  0  0
  6  7  1  0  0  0  0
  7  8  2  0  0  0  0
  7 13  1  0  0  0  0
  8  9  1  0  0  0  0
  8 11  1  0  0  0  0
  9 10  2  0  0  0  0
 11 12  1  0  0  0  0
 12 13  2  0  0  0  0
M  END
>  <CHROM.1>
9.35943248,3.81335352,36.23620727,0.78639859,0.69272774,-2.76577292

>  <Name>
1o15_lig

>  <RI>
0

>  <Rbt.Current_Directory>
/home/itssahil/PROJECTS/Mol_Feturizer/New_Systems/rnas/1o15

>  <Rbt.Executable>
rbdock ($Id: //depot/dev/client3/rdock/2013.1/src/exe/rbdock.cxx#4 $)

>  <Rbt.Library>
libRbt.so (2013.1, Build901 2013/11/27)

>  <Rbt.Parameter_File>
/export/apps/rDock/src/rDock_2013.1_src/data/scripts/dock_solv.prm

>  <Rbt.Receptor>
prm/pocket_docking_7.prm

>  <SCORE>
-22.7062

>  <SCORE.INTER>
-22.7062

>  <SCORE.INTER.CONST>
1

>  <SCORE.INTER.POLAR>
-2.07461

>  <SCORE.INTER.ROT>
0

>  <SCORE.INTER.SOLV>
6.24035

>  <SCORE.INTER.VDW>
-13.9022

>  <SCORE.INTER.norm>
-1.74663

>  <SCORE.INTRA>
0

>  <SCORE.INTRA.DIHEDRAL>
0

>  <SCORE.INTRA.DIHEDRAL.0>
0

>  <SCORE.INTRA.POLAR>
0

>  <SCORE.INTRA.POLAR.0>
0

>  <SCORE.INTRA.REPUL>
0

>  <SCORE.INTRA.REPUL.0>
0

>  <SCORE.INTRA.SOLV>
0

>  <SCORE.INTRA.SOLV.lig_0>
-12.9184

>  <SCORE.INTRA.VDW>
0

>  <SCORE.INTRA.VDW.0>
0

>  <SCORE.INTRA.norm>
0

>  <SCORE.RESTR>
0

>  <SCORE.RESTR.CAVITY>
0

>  <SCORE.RESTR.norm>
0

>  <SCORE.SYSTEM>
0

>  <SCORE.SYSTEM.CONST>
0

>  <SCORE.SYSTEM.DIHEDRAL>
0

>  <SCORE.SYSTEM.SOLV>
0

>  <SCORE.SYSTEM.norm>
0

>  <SCORE.heavy>
13

>  <SCORE.norm>
-1.74663

>  <RMSD>
1.344

$$$$
1o15_lig
 OpenBabel11021811403D
libRbt.so/2013.1/901 2013/11/27
 13 14  0  0  0  0  0  0  0  0999 V2000
   10.1946    1.0238   35.8926 C   0  0  0  0  0  0  0  0  0  0  0  0
    9.7961    2.3339   36.0423 N   0  0  0  0  0  0  0  0  0  0  0  0
   10.4773    3.1044   36.9305 C   0  0  0  0  0  0  0  0  0  0  0  0
   11.3955    2.5500   37.5291 O   0  0  0  0  0  0  0  0  0  0  0  0
   10.9106    5.1757   38.1011 C   0  0  0  0  0  0  0  0  0  0  0  0
   10.2042    4.4183   37.1913 N   0  0  0  0  0  0  0  0  0  0  0  0
    9.1638    4.9009   36.4593 C   0  0  0  0  0  0  0  0  0  0  0  0
    8.4892    4.1175   35.5685 C   0  0  0  0  0  0  0  0  0  0  0  0
    8.7612    2.7645   35.2927 C   0  0  0  0  0  0  0  0  0  0  0  0
    8.1960    2.0071   34.5080 O   0  0  0  0  0  0  0  0  0  0  0  0
    7.5092    4.9303   35.0171 N   0  0  0  0  0  0  0  0  0  0  0  0
    7.6575    6.1424   35.6073 C   0  0  0  0  0  0  0  0  0  0  0  0
    8.6291    6.1848   36.4785 N   0  0  0  0  0  0  0  0  0  0  0  0
  1  2  1  0  0  0  0
  2  3  1  0  0  0  0
  2  9  1  0  0  0  0
  3  4  2  0  0  0  0
  3  6  1  0  0  0  0
  6  5  1  0  0  0  0
  6  7  1  0  0  0  0
  7  8  2  0  0  0  0
  7 13  1  0  0  0  0
  8  9  1  0  0  0  0
  8 11  1  0  0  0  0
  9 10  2  0  0  0  0
 11 12  1  0  0  0  0
 12 13  2  0  0  0  0
M  END
>  <CHROM.1>
9.36157828,3.77336572,36.20531279,0.81090605,0.68805162,-2.77822328

>  <Name>
1o15_lig

>  <RI>
0

>  <Rbt.Current_Directory>
/home/itssahil/PROJECTS/Mol_Feturizer/New_Systems/rnas/1o15

>  <Rbt.Executable>
rbdock ($Id: //depot/dev/client3/rdock/2013.1/src/exe/rbdock.cxx#4 $)

>  <Rbt.Library>
libRbt.so (2013.1, Build901 2013/11/27)

>  <Rbt.Parameter_File>
/export/apps/rDock/src/rDock_2013.1_src/data/scripts/dock_solv.prm

>  <Rbt.Receptor>
prm/pocket_docking_7.prm

>  <SCORE>
-22.721

>  <SCORE.INTER>
-22.721

>  <SCORE.INTER.CONST>
1

>  <SCORE.INTER.POLAR>
-2.06577

>  <SCORE.INTER.ROT>
0

>  <SCORE.INTER.SOLV>
6.23878

>  <SCORE.INTER.VDW>
-13.9411

>  <SCORE.INTER.norm>
-1.74777

>  <SCORE.INTRA>
0

>  <SCORE.INTRA.DIHEDRAL>
0

>  <SCORE.INTRA.DIHEDRAL.0>
0

>  <SCORE.INTRA.POLAR>
0

>  <SCORE.INTRA.POLAR.0>
0

>  <SCORE.INTRA.REPUL>
0

>  <SCORE.INTRA.REPUL.0>
0

>  <SCORE.INTRA.SOLV>
0

>  <SCORE.INTRA.SOLV.lig_0>
-12.9184

>  <SCORE.INTRA.VDW>
0

>  <SCORE.INTRA.VDW.0>
0

>  <SCORE.INTRA.norm>
0

>  <SCORE.RESTR>
0

>  <SCORE.RESTR.CAVITY>
0

>  <SCORE.RESTR.norm>
0

>  <SCORE.SYSTEM>
0

>  <SCORE.SYSTEM.CONST>
0

>  <SCORE.SYSTEM.DIHEDRAL>
0

>  <SCORE.SYSTEM.SOLV>
0

>  <SCORE.SYSTEM.norm>
0

>  <SCORE.heavy>
13

>  <SCORE.norm>
-1.74777

>  <RMSD>
1.346

$$$$
1o15_lig
 OpenBabel11021811403D
libRbt.so/2013.1/901 2013/11/27
 13 14  0  0  0  0  0  0  0  0999 V2000
   10.2001    1.0290   35.8901 C   0  0  0  0  0  0  0  0  0  0  0  0
    9.7991    2.3383   36.0398 N   0  0  0  0  0  0  0  0  0  0  0  0
   10.4805    3.1109   36.9261 C   0  0  0  0  0  0  0  0  0  0  0  0
   11.4012    2.5588   37.5231 O   0  0  0  0  0  0  0  0  0  0  0  0
   10.9117    5.1838   38.0946 C   0  0  0  0  0  0  0  0  0  0  0  0
   10.2051    4.4243   37.1867 N   0  0  0  0  0  0  0  0  0  0  0  0
    9.1622    4.9042   36.4566 C   0  0  0  0  0  0  0  0  0  0  0  0
    8.4874    4.1188   35.5677 C   0  0  0  0  0  0  0  0  0  0  0  0
    8.7617    2.7663   35.2921 C   0  0  0  0  0  0  0  0  0  0  0  0
    8.1965    2.0072   34.5090 O   0  0  0  0  0  0  0  0  0  0  0  0
    7.5045    4.9291   35.0179 N   0  0  0  0  0  0  0  0  0  0  0  0
    7.6513    6.1419   35.6071 C   0  0  0  0  0  0  0  0  0  0  0  0
    8.6247    6.1869   36.4762 N   0  0  0  0  0  0  0  0  0  0  0  0
  1  2  1  0  0  0  0
  2  3  1  0  0  0  0
  2  9  1  0  0  0  0
  3  4  2  0  0  0  0
  3  6  1  0  0  0  0
  6  5  1  0  0  0  0
  6  7  1  0  0  0  0
  7  8  2  0  0  0  0
  7 13  1  0  0  0  0
  8  9  1  0  0  0  0
  8 11  1  0  0  0  0
  9 10  2  0  0  0  0
 11 12  1  0  0  0  0
 12 13  2  0  0  0  0
M  END
>  <CHROM.1>
9.36181796,3.77694780,36.20288141,0.80924782,0.68531820,-2.77775999

>  <Name>
1o15_lig

>  <RI>
0

>  <Rbt.Current_Directory>
/home/itssahil/PROJECTS/Mol_Feturizer/New_Systems/rnas/1o15

>  <Rbt.Executable>
rbdock ($Id: //depot/dev/client3/rdock/2013.1/src/exe/rbdock.cxx#4 $)

>  <Rbt.Library>
libRbt.so (2013.1, Build901 2013/11/27)

>  <Rbt.Parameter_File>
/export/apps/rDock/src/rDock_2013.1_src/data/scripts/dock_solv.prm

>  <Rbt.Receptor>
prm/pocket_docking_7.prm

>  <SCORE>
-22.7158

>  <SCORE.INTER>
-22.7158

>  <SCORE.INTER.CONST>
1

>  <SCORE.INTER.POLAR>
-2.05977

>  <SCORE.INTER.ROT>
0

>  <SCORE.INTER.SOLV>
6.26077

>  <SCORE.INTER.VDW>
-13.9649

>  <SCORE.INTER.norm>
-1.74737

>  <SCORE.INTRA>
0

>  <SCORE.INTRA.DIHEDRAL>
0

>  <SCORE.INTRA.DIHEDRAL.0>
0

>  <SCORE.INTRA.POLAR>
0

>  <SCORE.INTRA.POLAR.0>
0

>  <SCORE.INTRA.REPUL>
0

>  <SCORE.INTRA.REPUL.0>
0

>  <SCORE.INTRA.SOLV>
0

>  <SCORE.INTRA.SOLV.lig_0>
-12.9184

>  <SCORE.INTRA.VDW>
0

>  <SCORE.INTRA.VDW.0>
0

>  <SCORE.INTRA.norm>
0

>  <SCORE.RESTR>
0

>  <SCORE.RESTR.CAVITY>
0

>  <SCORE.RESTR.norm>
0

>  <SCORE.SYSTEM>
0

>  <SCORE.SYSTEM.CONST>
0

>  <SCORE.SYSTEM.DIHEDRAL>
0

>  <SCORE.SYSTEM.SOLV>
0

>  <SCORE.SYSTEM.norm>
0

>  <SCORE.heavy>
13

>  <SCORE.norm>
-1.74737

>  <RMSD>
1.350

$$$$
1o15_lig
 OpenBabel11021811403D
libRbt.so/2013.1/901 2013/11/27
 13 14  0  0  0  0  0  0  0  0999 V2000
    8.6509    0.9662   37.0088 C   0  0  0  0  0  0  0  0  0  0  0  0
    8.5947    2.3360   36.8751 N   0  0  0  0  0  0  0  0  0  0  0  0
    9.3141    3.0867   37.7501 C   0  0  0  0  0  0  0  0  0  0  0  0
    9.9528    2.4634   38.5941 O   0  0  0  0  0  0  0  0  0  0  0  0
   10.0984    5.1896   38.6507 C   0  0  0  0  0  0  0  0  0  0  0  0
    9.3618    4.4530   37.7479 N   0  0  0  0  0  0  0  0  0  0  0  0
    8.6078    5.0100   36.7618 C   0  0  0  0  0  0  0  0  0  0  0  0
    7.8917    4.2450   35.8876 C   0  0  0  0  0  0  0  0  0  0  0  0
    7.8348    2.8388   35.8810 C   0  0  0  0  0  0  0  0  0  0  0  0
    7.2140    2.0941   35.1269 O   0  0  0  0  0  0  0  0  0  0  0  0
    7.2553    5.1381   35.0376 N   0  0  0  0  0  0  0  0  0  0  0  0
    7.6282    6.3744   35.4523 C   0  0  0  0  0  0  0  0  0  0  0  0
    8.4345    6.3608   36.4792 N   0  0  0  0  0  0  0  0  0  0  0  0
  1  2  1  0  0  0  0
  2  3  1  0  0  0  0
  2  9  1  0  0  0  0
  3  4  2  0  0  0  0
  3  6  1  0  0  0  0
  6  5  1  0  0  0  0
  6  7  1  0  0  0  0
  7  8  2  0  0  0  0
  7 13  1  0  0  0  0
  8  9  1  0  0  0  0
  8 11  1  0  0  0  0
  9 10  2  0  0  0  0
 11 12  1  0  0  0  0
 12 13  2  0  0  0  0
M  END
>  <CHROM.1>
8.53648464,3.84009862,36.72736719,1.12920762,0.90401746,3.09443510

>  <Name>
1o15_lig

>  <RI>
0

>  <Rbt.Current_Directory>
/home/itssahil/PROJECTS/Mol_Feturizer/New_Systems/rnas/1o15

>  <Rbt.Executable>
rbdock ($Id: //depot/dev/client3/rdock/2013.1/src/exe/rbdock.cxx#4 $)

>  <Rbt.Library>
libRbt.so (2013.1, Build901 2013/11/27)

>  <Rbt.Parameter_File>
/export/apps/rDock/src/rDock_2013.1_src/data/scripts/dock_solv.prm

>  <Rbt.Receptor>
prm/blind_docking_60.prm

>  <SCORE>
-21.8605

>  <SCORE.INTER>
-21.9644

>  <SCORE.INTER.CONST>
1

>  <SCORE.INTER.POLAR>
-1.96559

>  <SCORE.INTER.ROT>
0

>  <SCORE.INTER.SOLV>
7.77478

>  <SCORE.INTER.VDW>
-14.2826

>  <SCORE.INTER.norm>
-1.68957

>  <SCORE.INTRA>
0

>  <SCORE.INTRA.DIHEDRAL>
0

>  <SCORE.INTRA.DIHEDRAL.0>
0

>  <SCORE.INTRA.POLAR>
0

>  <SCORE.INTRA.POLAR.0>
0

>  <SCORE.INTRA.REPUL>
0

>  <SCORE.INTRA.REPUL.0>
0

>  <SCORE.INTRA.SOLV>
0

>  <SCORE.INTRA.SOLV.lig_0>
-12.9184

>  <SCORE.INTRA.VDW>
0

>  <SCORE.INTRA.VDW.0>
0

>  <SCORE.INTRA.norm>
0

>  <SCORE.RESTR>
0.10389

>  <SCORE.RESTR.CAVITY>
0.10389

>  <SCORE.RESTR.norm>
0.00799157

>  <SCORE.SYSTEM>
0

>  <SCORE.SYSTEM.CONST>
0

>  <SCORE.SYSTEM.DIHEDRAL>
0

>  <SCORE.SYSTEM.SOLV>
0

>  <SCORE.SYSTEM.norm>
0

>  <SCORE.heavy>
13

>  <SCORE.norm>
-1.68158

>  <RMSD>
1.375

$$$$
1o15_lig
 OpenBabel11021811403D
libRbt.so/2013.1/901 2013/11/27
 13 14  0  0  0  0  0  0  0  0999 V2000
    8.6320    0.9752   37.0011 C   0  0  0  0  0  0  0  0  0  0  0  0
    8.5834    2.3455   36.8697 N   0  0  0  0  0  0  0  0  0  0  0  0
    9.3028    3.0909   37.7493 C   0  0  0  0  0  0  0  0  0  0  0  0
    9.9346    2.4627   38.5949 O   0  0  0  0  0  0  0  0  0  0  0  0
   10.0940    5.1880   38.6573 C   0  0  0  0  0  0  0  0  0  0  0  0
    9.3575    4.4569   37.7499 N   0  0  0  0  0  0  0  0  0  0  0  0
    8.6107    5.0197   36.7617 C   0  0  0  0  0  0  0  0  0  0  0  0
    7.8945    4.2599   35.8828 C   0  0  0  0  0  0  0  0  0  0  0  0
    7.8305    2.8541   35.8733 C   0  0  0  0  0  0  0  0  0  0  0  0
    7.2091    2.1140   35.1151 O   0  0  0  0  0  0  0  0  0  0  0  0
    7.2664    5.1579   35.0318 N   0  0  0  0  0  0  0  0  0  0  0  0
    7.6438    6.3915   35.4505 C   0  0  0  0  0  0  0  0  0  0  0  0
    8.4455    6.3718   36.4808 N   0  0  0  0  0  0  0  0  0  0  0  0
  1  2  1  0  0  0  0
  2  3  1  0  0  0  0
  2  9  1  0  0  0  0
  3  4  2  0  0  0  0
  3  6  1  0  0  0  0
  6  5  1  0  0  0  0
  6  7  1  0  0  0  0
  7  8  2  0  0  0  0
  7 13  1  0  0  0  0
  8  9  1  0  0  0  0
  8 11  1  0  0  0  0
  9 10  2  0  0  0  0
 11 12  1  0  0  0  0
 12 13  2  0  0  0  0
M  END
>  <CHROM.1>
8.53354145,3.85018025,36.72463903,1.13786299,0.90810013,3.08951704

>  <Name>
1o15_lig

>  <RI>
0

>  <Rbt.Current_Directory>
/home/itssahil/PROJECTS/Mol_Feturizer/New_Systems/rnas/1o15

>  <Rbt.Executable>
rbdock ($Id: //depot/dev/client3/rdock/2013.1/src/exe/rbdock.cxx#4 $)

>  <Rbt.Library>
libRbt.so (2013.1, Build901 2013/11/27)

>  <Rbt.Parameter_File>
/export/apps/rDock/src/rDock_2013.1_src/data/scripts/dock_solv.prm

>  <Rbt.Receptor>
prm/blind_docking_60.prm

>  <SCORE>
-21.7924

>  <SCORE.INTER>
-21.8624

>  <SCORE.INTER.CONST>
1

>  <SCORE.INTER.POLAR>
-1.96433

>  <SCORE.INTER.ROT>
0

>  <SCORE.INTER.SOLV>
7.79497

>  <SCORE.INTER.VDW>
-14.2255

>  <SCORE.INTER.norm>
-1.68172

>  <SCORE.INTRA>
0

>  <SCORE.INTRA.DIHEDRAL>
0

>  <SCORE.INTRA.DIHEDRAL.0>
0

>  <SCORE.INTRA.POLAR>
0

>  <SCORE.INTRA.POLAR.0>
0

>  <SCORE.INTRA.REPUL>
0

>  <SCORE.INTRA.REPUL.0>
0

>  <SCORE.INTRA.SOLV>
0

>  <SCORE.INTRA.SOLV.lig_0>
-12.9184

>  <SCORE.INTRA.VDW>
0

>  <SCORE.INTRA.VDW.0>
0

>  <SCORE.INTRA.norm>
0

>  <SCORE.RESTR>
0.0700267

>  <SCORE.RESTR.CAVITY>
0.0700267

>  <SCORE.RESTR.norm>
0.00538667

>  <SCORE.SYSTEM>
0

>  <SCORE.SYSTEM.CONST>
0

>  <SCORE.SYSTEM.DIHEDRAL>
0

>  <SCORE.SYSTEM.SOLV>
0

>  <SCORE.SYSTEM.norm>
0

>  <SCORE.heavy>
13

>  <SCORE.norm>
-1.67634

>  <RMSD>
1.386

$$$$
1o15_lig
 OpenBabel11021811403D
libRbt.so/2013.1/901 2013/11/27
 13 14  0  0  0  0  0  0  0  0999 V2000
   10.1208    1.1038   35.9091 C   0  0  0  0  0  0  0  0  0  0  0  0
    9.7111    2.4114   36.0498 N   0  0  0  0  0  0  0  0  0  0  0  0
   10.3924    3.1968   36.9248 C   0  0  0  0  0  0  0  0  0  0  0  0
   11.3210    2.6568   37.5206 O   0  0  0  0  0  0  0  0  0  0  0  0
   10.8159    5.2832   38.0719 C   0  0  0  0  0  0  0  0  0  0  0  0
   10.1090    4.5104   37.1755 N   0  0  0  0  0  0  0  0  0  0  0  0
    9.0579    4.9762   36.4480 C   0  0  0  0  0  0  0  0  0  0  0  0
    8.3832    4.1779   35.5705 C   0  0  0  0  0  0  0  0  0  0  0  0
    8.6657    2.8250   35.3051 C   0  0  0  0  0  0  0  0  0  0  0  0
    8.1012    2.0548   34.5325 O   0  0  0  0  0  0  0  0  0  0  0  0
    7.3908    4.9761   35.0199 N   0  0  0  0  0  0  0  0  0  0  0  0
    7.5325    6.1951   35.5974 C   0  0  0  0  0  0  0  0  0  0  0  0
    8.5111    6.2550   36.4597 N   0  0  0  0  0  0  0  0  0  0  0  0
  1  2  1  0  0  0  0
  2  3  1  0  0  0  0
  2  9  1  0  0  0  0
  3  4  2  0  0  0  0
  3  6  1  0  0  0  0
  6  5  1  0  0  0  0
  6  7  1  0  0  0  0
  7  8  2  0  0  0  0
  7 13  1  0  0  0  0
  8  9  1  0  0  0  0
  8 11  1  0  0  0  0
  9 10  2  0  0  0  0
 11 12  1  0  0  0  0
 12 13  2  0  0  0  0
M  END
>  <CHROM.1>
9.26423984,3.84816660,36.20293864,0.80332834,0.67664534,-2.78293035

>  <Name>
1o15_lig

>  <RI>
0

>  <Rbt.Current_Directory>
/home/itssahil/PROJECTS/Mol_Feturizer/New_Systems/rnas/1o15

>  <Rbt.Executable>
rbdock ($Id: //depot/dev/client3/rdock/2013.1/src/exe/rbdock.cxx#4 $)

>  <Rbt.Library>
libRbt.so (2013.1, Build901 2013/11/27)

>  <Rbt.Parameter_File>
/export/apps/rDock/src/rDock_2013.1_src/data/scripts/dock_solv.prm

>  <Rbt.Receptor>
prm/blind_docking_60.prm

>  <SCORE>
-21.9995

>  <SCORE.INTER>
-22.4436

>  <SCORE.INTER.CONST>
1

>  <SCORE.INTER.POLAR>
-1.96075

>  <SCORE.INTER.ROT>
0

>  <SCORE.INTER.SOLV>
6.50814

>  <SCORE.INTER.VDW>
-14.196

>  <SCORE.INTER.norm>
-1.72643

>  <SCORE.INTRA>
0

>  <SCORE.INTRA.DIHEDRAL>
0

>  <SCORE.INTRA.DIHEDRAL.0>
0

>  <SCORE.INTRA.POLAR>
0

>  <SCORE.INTRA.POLAR.0>
0

>  <SCORE.INTRA.REPUL>
0

>  <SCORE.INTRA.REPUL.0>
0

>  <SCORE.INTRA.SOLV>
0

>  <SCORE.INTRA.SOLV.lig_0>
-12.9184

>  <SCORE.INTRA.VDW>
0

>  <SCORE.INTRA.VDW.0>
0

>  <SCORE.INTRA.norm>
0

>  <SCORE.RESTR>
0.444148

>  <SCORE.RESTR.CAVITY>
0.444148

>  <SCORE.RESTR.norm>
0.0341652

>  <SCORE.SYSTEM>
0

>  <SCORE.SYSTEM.CONST>
0

>  <SCORE.SYSTEM.DIHEDRAL>
0

>  <SCORE.SYSTEM.SOLV>
0

>  <SCORE.SYSTEM.norm>
0

>  <SCORE.heavy>
13

>  <SCORE.norm>
-1.69227

>  <RMSD>
1.402

$$$$
1o15_lig
 OpenBabel11021811403D
libRbt.so/2013.1/901 2013/11/27
 13 14  0  0  0  0  0  0  0  0999 V2000
    8.5986    0.9765   37.0005 C   0  0  0  0  0  0  0  0  0  0  0  0
    8.5557    2.3469   36.8675 N   0  0  0  0  0  0  0  0  0  0  0  0
    9.2834    3.0901   37.7420 C   0  0  0  0  0  0  0  0  0  0  0  0
    9.9170    2.4602   38.5849 O   0  0  0  0  0  0  0  0  0  0  0  0
   10.0893    5.1849   38.6426 C   0  0  0  0  0  0  0  0  0  0  0  0
    9.3445    4.4558   37.7403 N   0  0  0  0  0  0  0  0  0  0  0  0
    8.5948    5.0207   36.7554 C   0  0  0  0  0  0  0  0  0  0  0  0
    7.8702    4.2631   35.8816 C   0  0  0  0  0  0  0  0  0  0  0  0
    7.7996    2.8576   35.8745 C   0  0  0  0  0  0  0  0  0  0  0  0
    7.1706    2.1192   35.1208 O   0  0  0  0  0  0  0  0  0  0  0  0
    7.2416    5.1627   35.0328 N   0  0  0  0  0  0  0  0  0  0  0  0
    7.6270    6.3952   35.4476 C   0  0  0  0  0  0  0  0  0  0  0  0
    8.4344    6.3732   36.4735 N   0  0  0  0  0  0  0  0  0  0  0  0
  1  2  1  0  0  0  0
  2  3  1  0  0  0  0
  2  9  1  0  0  0  0
  3  4  2  0  0  0  0
  3  6  1  0  0  0  0
  6  5  1  0  0  0  0
  6  7  1  0  0  0  0
  7  8  2  0  0  0  0
  7 13  1  0  0  0  0
  8  9  1  0  0  0  0
  8 11  1  0  0  0  0
  9 10  2  0  0  0  0
 11 12  1  0  0  0  0
 12 13  2  0  0  0  0
M  END
>  <CHROM.1>
8.51201467,3.85153397,36.72049122,1.14487753,0.90230933,3.08257222

>  <Name>
1o15_lig

>  <RI>
0

>  <Rbt.Current_Directory>
/home/itssahil/PROJECTS/Mol_Feturizer/New_Systems/rnas/1o15

>  <Rbt.Executable>
rbdock ($Id: //depot/dev/client3/rdock/2013.1/src/exe/rbdock.cxx#4 $)

>  <Rbt.Library>
libRbt.so (2013.1, Build901 2013/11/27)

>  <Rbt.Parameter_File>
/export/apps/rDock/src/rDock_2013.1_src/data/scripts/dock_solv.prm

>  <Rbt.Receptor>
prm/blind_docking_60.prm

>  <SCORE>
-21.6277

>  <SCORE.INTER>
-21.655

>  <SCORE.INTER.CONST>
1

>  <SCORE.INTER.POLAR>
-1.91093

>  <SCORE.INTER.ROT>
0

>  <SCORE.INTER.SOLV>
7.89022

>  <SCORE.INTER.VDW>
-14.297

>  <SCORE.INTER.norm>
-1.66577

>  <SCORE.INTRA>
0

>  <SCORE.INTRA.DIHEDRAL>
0

>  <SCORE.INTRA.DIHEDRAL.0>
0

>  <SCORE.INTRA.POLAR>
0

>  <SCORE.INTRA.POLAR.0>
0

>  <SCORE.INTRA.REPUL>
0

>  <SCORE.INTRA.REPUL.0>
0

>  <SCORE.INTRA.SOLV>
0

>  <SCORE.INTRA.SOLV.lig_0>
-12.9184

>  <SCORE.INTRA.VDW>
0

>  <SCORE.INTRA.VDW.0>
0

>  <SCORE.INTRA.norm>
0

>  <SCORE.RESTR>
0.0272123

>  <SCORE.RESTR.CAVITY>
0.0272123

>  <SCORE.RESTR.norm>
0.00209325

>  <SCORE.SYSTEM>
0

>  <SCORE.SYSTEM.CONST>
0

>  <SCORE.SYSTEM.DIHEDRAL>
0

>  <SCORE.SYSTEM.SOLV>
0

>  <SCORE.SYSTEM.norm>
0

>  <SCORE.heavy>
13

>  <SCORE.norm>
-1.66367

>  <RMSD>
1.404

$$$$
1o15_lig
 OpenBabel11021811403D
libRbt.so/2013.1/901 2013/11/27
 13 14  0  0  0  0  0  0  0  0999 V2000
   10.1232    1.1135   35.9064 C   0  0  0  0  0  0  0  0  0  0  0  0
    9.7108    2.4201   36.0483 N   0  0  0  0  0  0  0  0  0  0  0  0
   10.3898    3.2058   36.9249 C   0  0  0  0  0  0  0  0  0  0  0  0
   11.3190    2.6669   37.5209 O   0  0  0  0  0  0  0  0  0  0  0  0
   10.8082    5.2916   38.0750 C   0  0  0  0  0  0  0  0  0  0  0  0
   10.1037    4.5185   37.1770 N   0  0  0  0  0  0  0  0  0  0  0  0
    9.0523    4.9832   36.4491 C   0  0  0  0  0  0  0  0  0  0  0  0
    8.3799    4.1847   35.5700 C   0  0  0  0  0  0  0  0  0  0  0  0
    8.6653    2.8327   35.3032 C   0  0  0  0  0  0  0  0  0  0  0  0
    8.1029    2.0624   34.5292 O   0  0  0  0  0  0  0  0  0  0  0  0
    7.3865    4.9816   35.0196 N   0  0  0  0  0  0  0  0  0  0  0  0
    7.5253    6.2002   35.5987 C   0  0  0  0  0  0  0  0  0  0  0  0
    8.5030    6.2609   36.4619 N   0  0  0  0  0  0  0  0  0  0  0  0
  1  2  1  0  0  0  0
  2  3  1  0  0  0  0
  2  9  1  0  0  0  0
  3  4  2  0  0  0  0
  3  6  1  0  0  0  0
  6  5  1  0  0  0  0
  6  7  1  0  0  0  0
  7  8  2  0  0  0  0
  7 13  1  0  0  0  0
  8  9  1  0  0  0  0
  8 11  1  0  0  0  0
  9 10  2  0  0  0  0
 11 12  1  0  0  0  0
 12 13  2  0  0  0  0
M  END
>  <CHROM.1>
9.26103775,3.85586147,36.20287321,0.80059380,0.67678971,-2.77997952

>  <Name>
1o15_lig

>  <RI>
0

>  <Rbt.Current_Directory>
/home/itssahil/PROJECTS/Mol_Feturizer/New_Systems/rnas/1o15

>  <Rbt.Executable>
rbdock ($Id: //depot/dev/client3/rdock/2013.1/src/exe/rbdock.cxx#4 $)

>  <Rbt.Library>
libRbt.so (2013.1, Build901 2013/11/27)

>  <Rbt.Parameter_File>
/export/apps/rDock/src/rDock_2013.1_src/data/scripts/dock_solv.prm

>  <Rbt.Receptor>
prm/blind_docking_60.prm

>  <SCORE>
-21.9699

>  <SCORE.INTER>
-22.4069

>  <SCORE.INTER.CONST>
1

>  <SCORE.INTER.POLAR>
-1.95799

>  <SCORE.INTER.ROT>
0

>  <SCORE.INTER.SOLV>
6.52889

>  <SCORE.INTER.VDW>
-14.1876

>  <SCORE.INTER.norm>
-1.72361

>  <SCORE.INTRA>
0

>  <SCORE.INTRA.DIHEDRAL>
0

>  <SCORE.INTRA.DIHEDRAL.0>
0

>  <SCORE.INTRA.POLAR>
0

>  <SCORE.INTRA.POLAR.0>
0

>  <SCORE.INTRA.REPUL>
0

>  <SCORE.INTRA.REPUL.0>
0

>  <SCORE.INTRA.SOLV>
0

>  <SCORE.INTRA.SOLV.lig_0>
-12.9184

>  <SCORE.INTRA.VDW>
0

>  <SCORE.INTRA.VDW.0>
0

>  <SCORE.INTRA.norm>
0

>  <SCORE.RESTR>
0.436996

>  <SCORE.RESTR.CAVITY>
0.436996

>  <SCORE.RESTR.norm>
0.033615

>  <SCORE.SYSTEM>
0

>  <SCORE.SYSTEM.CONST>
0

>  <SCORE.SYSTEM.DIHEDRAL>
0

>  <SCORE.SYSTEM.SOLV>
0

>  <SCORE.SYSTEM.norm>
0

>  <SCORE.heavy>
13

>  <SCORE.norm>
-1.68999

>  <RMSD>
1.408

$$$$
1o15_lig
 OpenBabel11021811403D
libRbt.so/2013.1/901 2013/11/27
 13 14  0  0  0  0  0  0  0  0999 V2000
   10.0895    1.1286   35.9377 C   0  0  0  0  0  0  0  0  0  0  0  0
    9.6800    2.4369   36.0727 N   0  0  0  0  0  0  0  0  0  0  0  0
   10.3551    3.2231   36.9518 C   0  0  0  0  0  0  0  0  0  0  0  0
   11.2783    2.6833   37.5561 O   0  0  0  0  0  0  0  0  0  0  0  0
   10.7715    5.3112   38.0986 C   0  0  0  0  0  0  0  0  0  0  0  0
   10.0711    4.5375   37.1979 N   0  0  0  0  0  0  0  0  0  0  0  0
    9.0263    5.0030   36.4610 C   0  0  0  0  0  0  0  0  0  0  0  0
    8.3579    4.2039   35.5795 C   0  0  0  0  0  0  0  0  0  0  0  0
    8.6411    2.8502   35.3189 C   0  0  0  0  0  0  0  0  0  0  0  0
    8.0820    2.0792   34.5431 O   0  0  0  0  0  0  0  0  0  0  0  0
    7.3708    5.0021   35.0195 N   0  0  0  0  0  0  0  0  0  0  0  0
    7.5091    6.2220   35.5959 C   0  0  0  0  0  0  0  0  0  0  0  0
    8.4808    6.2825   36.4660 N   0  0  0  0  0  0  0  0  0  0  0  0
  1  2  1  0  0  0  0
  2  3  1  0  0  0  0
  2  9  1  0  0  0  0
  3  4  2  0  0  0  0
  3  6  1  0  0  0  0
  6  5  1  0  0  0  0
  6  7  1  0  0  0  0
  7  8  2  0  0  0  0
  7 13  1  0  0  0  0
  8  9  1  0  0  0  0
  8 11  1  0  0  0  0
  9 10  2  0  0  0  0
 11 12  1  0  0  0  0
 12 13  2  0  0  0  0
M  END
>  <CHROM.1>
9.23345466,3.87438835,36.21970246,0.80093058,0.68456988,-2.78322948

>  <Name>
1o15_lig

>  <RI>
0

>  <Rbt.Current_Directory>
/home/itssahil/PROJECTS/Mol_Feturizer/New_Systems/rnas/1o15

>  <Rbt.Executable>
rbdock ($Id: //depot/dev/client3/rdock/2013.1/src/exe/rbdock.cxx#4 $)

>  <Rbt.Library>
libRbt.so (2013.1, Build901 2013/11/27)

>  <Rbt.Parameter_File>
/export/apps/rDock/src/rDock_2013.1_src/data/scripts/dock_solv.prm

>  <Rbt.Receptor>
prm/blind_docking_60.prm

>  <SCORE>
-21.9117

>  <SCORE.INTER>
-22.3301

>  <SCORE.INTER.CONST>
1

>  <SCORE.INTER.POLAR>
-1.94741

>  <SCORE.INTER.ROT>
0

>  <SCORE.INTER.SOLV>
6.52978

>  <SCORE.INTER.VDW>
-14.172

>  <SCORE.INTER.norm>
-1.7177

>  <SCORE.INTRA>
0

>  <SCORE.INTRA.DIHEDRAL>
0

>  <SCORE.INTRA.DIHEDRAL.0>
0

>  <SCORE.INTRA.POLAR>
0

>  <SCORE.INTRA.POLAR.0>
0

>  <SCORE.INTRA.REPUL>
0

>  <SCORE.INTRA.REPUL.0>
0

>  <SCORE.INTRA.SOLV>
0

>  <SCORE.INTRA.SOLV.lig_0>
-12.9184

>  <SCORE.INTRA.VDW>
0

>  <SCORE.INTRA.VDW.0>
0

>  <SCORE.INTRA.norm>
0

>  <SCORE.RESTR>
0.418389

>  <SCORE.RESTR.CAVITY>
0.418389

>  <SCORE.RESTR.norm>
0.0321838

>  <SCORE.SYSTEM>
0

>  <SCORE.SYSTEM.CONST>
0

>  <SCORE.SYSTEM.DIHEDRAL>
0

>  <SCORE.SYSTEM.SOLV>
0

>  <SCORE.SYSTEM.norm>
0

>  <SCORE.heavy>
13

>  <SCORE.norm>
-1.68552

>  <RMSD>
1.408

$$$$
1o15_lig
 OpenBabel11021811403D
libRbt.so/2013.1/901 2013/11/27
 13 14  0  0  0  0  0  0  0  0999 V2000
    8.5666    0.9864   37.0280 C   0  0  0  0  0  0  0  0  0  0  0  0
    8.5375    2.3562   36.8855 N   0  0  0  0  0  0  0  0  0  0  0  0
    9.2684    3.0984   37.7582 C   0  0  0  0  0  0  0  0  0  0  0  0
    9.8922    2.4681   38.6082 O   0  0  0  0  0  0  0  0  0  0  0  0
   10.0906    5.1913   38.6482 C   0  0  0  0  0  0  0  0  0  0  0  0
    9.3427    4.4634   37.7475 N   0  0  0  0  0  0  0  0  0  0  0  0
    8.6029    5.0287   36.7555 C   0  0  0  0  0  0  0  0  0  0  0  0
    7.8749    4.2722   35.8836 C   0  0  0  0  0  0  0  0  0  0  0  0
    7.7908    2.8674   35.8857 C   0  0  0  0  0  0  0  0  0  0  0  0
    7.1580    2.1300   35.1342 O   0  0  0  0  0  0  0  0  0  0  0  0
    7.2588    5.1720   35.0259 N   0  0  0  0  0  0  0  0  0  0  0  0
    7.6542    6.4035   35.4341 C   0  0  0  0  0  0  0  0  0  0  0  0
    8.4568    6.3808   36.4637 N   0  0  0  0  0  0  0  0  0  0  0  0
  1  2  1  0  0  0  0
  2  3  1  0  0  0  0
  2  9  1  0  0  0  0
  3  4  2  0  0  0  0
  3  6  1  0  0  0  0
  6  5  1  0  0  0  0
  6  7  1  0  0  0  0
  7  8  2  0  0  0  0
  7 13  1  0  0  0  0
  8  9  1  0  0  0  0
  8 11  1  0  0  0  0
  9 10  2  0  0  0  0
 11 12  1  0  0  0  0
 12 13  2  0  0  0  0
M  END
>  <CHROM.1>
8.50897971,3.86017518,36.72812046,1.16094005,0.90609835,3.06316108

>  <Name>
1o15_lig

>  <RI>
0

>  <Rbt.Current_Directory>
/home/itssahil/PROJECTS/Mol_Feturizer/New_Systems/rnas/1o15

>  <Rbt.Executable>
rbdock ($Id: //depot/dev/client3/rdock/2013.1/src/exe/rbdock.cxx#4 $)

>  <Rbt.Library>
libRbt.so (2013.1, Build901 2013/11/27)

>  <Rbt.Parameter_File>
/export/apps/rDock/src/rDock_2013.1_src/data/scripts/dock_solv.prm

>  <Rbt.Receptor>
prm/blind_docking_60.prm

>  <SCORE>
-21.5369

>  <SCORE.INTER>
-21.5551

>  <SCORE.INTER.CONST>
1

>  <SCORE.INTER.POLAR>
-1.93669

>  <SCORE.INTER.ROT>
0

>  <SCORE.INTER.SOLV>
7.93225

>  <SCORE.INTER.VDW>
-14.1585

>  <SCORE.INTER.norm>
-1.65808

>  <SCORE.INTRA>
0

>  <SCORE.INTRA.DIHEDRAL>
0

>  <SCORE.INTRA.DIHEDRAL.0>
0

>  <SCORE.INTRA.POLAR>
0

>  <SCORE.INTRA.POLAR.0>
0

>  <SCORE.INTRA.REPUL>
0

>  <SCORE.INTRA.REPUL.0>
0

>  <SCORE.INTRA.SOLV>
0

>  <SCORE.INTRA.SOLV.lig_0>
-12.9184

>  <SCORE.INTRA.VDW>
0

>  <SCORE.INTRA.VDW.0>
0

>  <SCORE.INTRA.norm>
0

>  <SCORE.RESTR>
0.0181345

>  <SCORE.RESTR.CAVITY>
0.0181345

>  <SCORE.RESTR.norm>
0.00139496

>  <SCORE.SYSTEM>
0

>  <SCORE.SYSTEM.CONST>
0

>  <SCORE.SYSTEM.DIHEDRAL>
0

>  <SCORE.SYSTEM.SOLV>
0

>  <SCORE.SYSTEM.norm>
0

>  <SCORE.heavy>
13

>  <SCORE.norm>
-1.65669

>  <RMSD>
1.409

$$$$
1o15_lig
 OpenBabel11021811403D
libRbt.so/2013.1/901 2013/11/27
 13 14  0  0  0  0  0  0  0  0999 V2000
   10.1239    1.0965   35.9021 C   0  0  0  0  0  0  0  0  0  0  0  0
    9.7148    2.4051   36.0346 N   0  0  0  0  0  0  0  0  0  0  0  0
   10.4096    3.2013   36.8890 C   0  0  0  0  0  0  0  0  0  0  0  0
   11.3487    2.6693   37.4755 O   0  0  0  0  0  0  0  0  0  0  0  0
   10.8493    5.3012   38.0050 C   0  0  0  0  0  0  0  0  0  0  0  0
   10.1287    4.5174   37.1294 N   0  0  0  0  0  0  0  0  0  0  0  0
    9.0649    4.9736   36.4142 C   0  0  0  0  0  0  0  0  0  0  0  0
    8.3767    4.1645   35.5573 C   0  0  0  0  0  0  0  0  0  0  0  0
    8.6566    2.8090   35.3028 C   0  0  0  0  0  0  0  0  0  0  0  0
    8.0803    2.0293   34.5486 O   0  0  0  0  0  0  0  0  0  0  0  0
    7.3742    4.9551   35.0142 N   0  0  0  0  0  0  0  0  0  0  0  0
    7.5239    6.1809   35.5753 C   0  0  0  0  0  0  0  0  0  0  0  0
    8.5166    6.2518   36.4204 N   0  0  0  0  0  0  0  0  0  0  0  0
  1  2  1  0  0  0  0
  2  3  1  0  0  0  0
  2  9  1  0  0  0  0
  3  4  2  0  0  0  0
  3  6  1  0  0  0  0
  6  5  1  0  0  0  0
  6  7  1  0  0  0  0
  7  8  2  0  0  0  0
  7 13  1  0  0  0  0
  8  9  1  0  0  0  0
  8 11  1  0  0  0  0
  9 10  2  0  0  0  0
 11 12  1  0  0  0  0
 12 13  2  0  0  0  0
M  END
>  <CHROM.1>
9.26864723,3.84305247,36.17871243,0.80913930,0.66055112,-2.79800442

>  <Name>
1o15_lig

>  <RI>
0

>  <Rbt.Current_Directory>
/home/itssahil/PROJECTS/Mol_Feturizer/New_Systems/rnas/1o15

>  <Rbt.Executable>
rbdock ($Id: //depot/dev/client3/rdock/2013.1/src/exe/rbdock.cxx#4 $)

>  <Rbt.Library>
libRbt.so (2013.1, Build901 2013/11/27)

>  <Rbt.Parameter_File>
/export/apps/rDock/src/rDock_2013.1_src/data/scripts/dock_solv.prm

>  <Rbt.Receptor>
prm/blind_docking_60.prm

>  <SCORE>
-21.9624

>  <SCORE.INTER>
-22.3971

>  <SCORE.INTER.CONST>
1

>  <SCORE.INTER.POLAR>
-1.93475

>  <SCORE.INTER.ROT>
0

>  <SCORE.INTER.SOLV>
6.57468

>  <SCORE.INTER.VDW>
-14.2738

>  <SCORE.INTER.norm>
-1.72286

>  <SCORE.INTRA>
0

>  <SCORE.INTRA.DIHEDRAL>
0

>  <SCORE.INTRA.DIHEDRAL.0>
0

>  <SCORE.INTRA.POLAR>
0

>  <SCORE.INTRA.POLAR.0>
0

>  <SCORE.INTRA.REPUL>
0

>  <SCORE.INTRA.REPUL.0>
0

>  <SCORE.INTRA.SOLV>
0

>  <SCORE.INTRA.SOLV.lig_0>
-12.9184

>  <SCORE.INTRA.VDW>
0

>  <SCORE.INTRA.VDW.0>
0

>  <SCORE.INTRA.norm>
0

>  <SCORE.RESTR>
0.434706

>  <SCORE.RESTR.CAVITY>
0.434706

>  <SCORE.RESTR.norm>
0.0334389

>  <SCORE.SYSTEM>
0

>  <SCORE.SYSTEM.CONST>
0

>  <SCORE.SYSTEM.DIHEDRAL>
0

>  <SCORE.SYSTEM.SOLV>
0

>  <SCORE.SYSTEM.norm>
0

>  <SCORE.heavy>
13

>  <SCORE.norm>
-1.68942

>  <RMSD>
1.413

$$$$
1o15_lig
 OpenBabel11021811403D
libRbt.so/2013.1/901 2013/11/27
 13 14  0  0  0  0  0  0  0  0999 V2000
    8.5360    0.9883   37.0568 C   0  0  0  0  0  0  0  0  0  0  0  0
    8.5157    2.3575   36.9082 N   0  0  0  0  0  0  0  0  0  0  0  0
    9.2461    3.0992   37.7818 C   0  0  0  0  0  0  0  0  0  0  0  0
    9.8614    2.4690   38.6380 O   0  0  0  0  0  0  0  0  0  0  0  0
   10.0755    5.1912   38.6674 C   0  0  0  0  0  0  0  0  0  0  0  0
    9.3284    4.4637   37.7657 N   0  0  0  0  0  0  0  0  0  0  0  0
    8.5974    5.0290   36.7672 C   0  0  0  0  0  0  0  0  0  0  0  0
    7.8698    4.2730   35.8945 C   0  0  0  0  0  0  0  0  0  0  0  0
    7.7775    2.8687   35.9022 C   0  0  0  0  0  0  0  0  0  0  0  0
    7.1446    2.1318   35.1503 O   0  0  0  0  0  0  0  0  0  0  0  0
    7.2637    5.1727   35.0296 N   0  0  0  0  0  0  0  0  0  0  0  0
    7.6640    6.4036   35.4347 C   0  0  0  0  0  0  0  0  0  0  0  0
    8.4607    6.3807   36.4688 N   0  0  0  0  0  0  0  0  0  0  0  0
  1  2  1  0  0  0  0
  2  3  1  0  0  0  0
  2  9  1  0  0  0  0
  3  4  2  0  0  0  0
  3  6  1  0  0  0  0
  6  5  1  0  0  0  0
  6  7  1  0  0  0  0
  7  8  2  0  0  0  0
  7 13  1  0  0  0  0
  8  9  1  0  0  0  0
  8 11  1  0  0  0  0
  9 10  2  0  0  0  0
 11 12  1  0  0  0  0
 12 13  2  0  0  0  0
M  END
>  <CHROM.1>
8.49679746,3.86096245,36.74427854,1.17111991,0.91112263,3.05083617

>  <Name>
1o15_lig

>  <RI>
0

>  <Rbt.Current_Directory>
/home/itssahil/PROJECTS/Mol_Feturizer/New_Systems/rnas/1o15

>  <Rbt.Executable>
rbdock ($Id: //depot/dev/client3/rdock/2013.1/src/exe/rbdock.cxx#4 $)

>  <Rbt.Library>
libRbt.so (2013.1, Build901 2013/11/27)

>  <Rbt.Parameter_File>
/export/apps/rDock/src/rDock_2013.1_src/data/scripts/dock_solv.prm

>  <Rbt.Receptor>
prm/blind_docking_60.prm

>  <SCORE>
-21.5676

>  <SCORE.INTER>
-21.5957

>  <SCORE.INTER.CONST>
1

>  <SCORE.INTER.POLAR>
-1.94052

>  <SCORE.INTER.ROT>
0

>  <SCORE.INTER.SOLV>
8.01141

>  <SCORE.INTER.VDW>
-14.1992

>  <SCORE.INTER.norm>
-1.6612

>  <SCORE.INTRA>
0

>  <SCORE.INTRA.DIHEDRAL>
0

>  <SCORE.INTRA.DIHEDRAL.0>
0

>  <SCORE.INTRA.POLAR>
0

>  <SCORE.INTRA.POLAR.0>
0

>  <SCORE.INTRA.REPUL>
0

>  <SCORE.INTRA.REPUL.0>
0

>  <SCORE.INTRA.SOLV>
0

>  <SCORE.INTRA.SOLV.lig_0>
-12.9184

>  <SCORE.INTRA.VDW>
0

>  <SCORE.INTRA.VDW.0>
0

>  <SCORE.INTRA.norm>
0

>  <SCORE.RESTR>
0.0280147

>  <SCORE.RESTR.CAVITY>
0.0280147

>  <SCORE.RESTR.norm>
0.00215498

>  <SCORE.SYSTEM>
0

>  <SCORE.SYSTEM.CONST>
0

>  <SCORE.SYSTEM.DIHEDRAL>
0

>  <SCORE.SYSTEM.SOLV>
0

>  <SCORE.SYSTEM.norm>
0

>  <SCORE.heavy>
13

>  <SCORE.norm>
-1.65905

>  <RMSD>
1.414

$$$$
1o15_lig
 OpenBabel11021811403D
libRbt.so/2013.1/901 2013/11/27
 13 14  0  0  0  0  0  0  0  0999 V2000
   10.1190    1.0938   35.8952 C   0  0  0  0  0  0  0  0  0  0  0  0
    9.7109    2.4026   36.0289 N   0  0  0  0  0  0  0  0  0  0  0  0
   10.4078    3.1982   36.8821 C   0  0  0  0  0  0  0  0  0  0  0  0
   11.3479    2.6656   37.4665 O   0  0  0  0  0  0  0  0  0  0  0  0
   10.8510    5.2977   37.9976 C   0  0  0  0  0  0  0  0  0  0  0  0
   10.1281    4.5144   37.1233 N   0  0  0  0  0  0  0  0  0  0  0  0
    9.0631    4.9713   36.4104 C   0  0  0  0  0  0  0  0  0  0  0  0
    8.3728    4.1628   35.5547 C   0  0  0  0  0  0  0  0  0  0  0  0
    8.6515    2.8072   35.2993 C   0  0  0  0  0  0  0  0  0  0  0  0
    8.0732    2.0280   34.5461 O   0  0  0  0  0  0  0  0  0  0  0  0
    7.3696    4.9541   35.0138 N   0  0  0  0  0  0  0  0  0  0  0  0
    7.5211    6.1796   35.5748 C   0  0  0  0  0  0  0  0  0  0  0  0
    8.5156    6.2498   36.4179 N   0  0  0  0  0  0  0  0  0  0  0  0
  1  2  1  0  0  0  0
  2  3  1  0  0  0  0
  2  9  1  0  0  0  0
  3  4  2  0  0  0  0
  3  6  1  0  0  0  0
  6  5  1  0  0  0  0
  6  7  1  0  0  0  0
  7  8  2  0  0  0  0
  7 13  1  0  0  0  0
  8  9  1  0  0  0  0
  8 11  1  0  0  0  0
  9 10  2  0  0  0  0
 11 12  1  0  0  0  0
 12 13  2  0  0  0  0
M  END
>  <CHROM.1>
9.26580938,3.84074714,36.17420853,0.81064849,0.65881292,-2.79871364

>  <Name>
1o15_lig

>  <RI>
0

>  <Rbt.Current_Directory>
/home/itssahil/PROJECTS/Mol_Feturizer/New_Systems/rnas/1o15

>  <Rbt.Executable>
rbdock ($Id: //depot/dev/client3/rdock/2013.1/src/exe/rbdock.cxx#4 $)

>  <Rbt.Library>
libRbt.so (2013.1, Build901 2013/11/27)

>  <Rbt.Parameter_File>
/export/apps/rDock/src/rDock_2013.1_src/data/scripts/dock_solv.prm

>  <Rbt.Receptor>
prm/blind_docking_60.prm

>  <SCORE>
-21.9507

>  <SCORE.INTER>
-22.3834

>  <SCORE.INTER.CONST>
1

>  <SCORE.INTER.POLAR>
-1.9298

>  <SCORE.INTER.ROT>
0

>  <SCORE.INTER.SOLV>
6.59214

>  <SCORE.INTER.VDW>
-14.287

>  <SCORE.INTER.norm>
-1.7218

>  <SCORE.INTRA>
0

>  <SCORE.INTRA.DIHEDRAL>
0

>  <SCORE.INTRA.DIHEDRAL.0>
0

>  <SCORE.INTRA.POLAR>
0

>  <SCORE.INTRA.POLAR.0>
0

>  <SCORE.INTRA.REPUL>
0

>  <SCORE.INTRA.REPUL.0>
0

>  <SCORE.INTRA.SOLV>
0

>  <SCORE.INTRA.SOLV.lig_0>
-12.9184

>  <SCORE.INTRA.VDW>
0

>  <SCORE.INTRA.VDW.0>
0

>  <SCORE.INTRA.norm>
0

>  <SCORE.RESTR>
0.432702

>  <SCORE.RESTR.CAVITY>
0.432702

>  <SCORE.RESTR.norm>
0.0332848

>  <SCORE.SYSTEM>
0

>  <SCORE.SYSTEM.CONST>
0

>  <SCORE.SYSTEM.DIHEDRAL>
0

>  <SCORE.SYSTEM.SOLV>
0

>  <SCORE.SYSTEM.norm>
0

>  <SCORE.heavy>
13

>  <SCORE.norm>
-1.68851

>  <RMSD>
1.416

$$$$
1o15_lig
 OpenBabel11021811403D
libRbt.so/2013.1/901 2013/11/27
 13 14  0  0  0  0  0  0  0  0999 V2000
   10.1263    1.1191   35.8951 C   0  0  0  0  0  0  0  0  0  0  0  0
    9.7115    2.4251   36.0361 N   0  0  0  0  0  0  0  0  0  0  0  0
   10.3953    3.2154   36.9047 C   0  0  0  0  0  0  0  0  0  0  0  0
   11.3306    2.6810   37.4951 O   0  0  0  0  0  0  0  0  0  0  0  0
   10.8171    5.3061   38.0447 C   0  0  0  0  0  0  0  0  0  0  0  0
   10.1076    4.5282   37.1548 N   0  0  0  0  0  0  0  0  0  0  0  0
    9.0493    4.9876   36.4337 C   0  0  0  0  0  0  0  0  0  0  0  0
    8.3722    4.1845   35.5626 C   0  0  0  0  0  0  0  0  0  0  0  0
    8.6591    2.8324   35.2979 C   0  0  0  0  0  0  0  0  0  0  0  0
    8.0927    2.0580   34.5308 O   0  0  0  0  0  0  0  0  0  0  0  0
    7.3722    4.9769   35.0174 N   0  0  0  0  0  0  0  0  0  0  0  0
    7.5123    6.1978   35.5914 C   0  0  0  0  0  0  0  0  0  0  0  0
    8.4966    6.2639   36.4467 N   0  0  0  0  0  0  0  0  0  0  0  0
  1  2  1  0  0  0  0
  2  3  1  0  0  0  0
  2  9  1  0  0  0  0
  3  4  2  0  0  0  0
  3  6  1  0  0  0  0
  6  5  1  0  0  0  0
  6  7  1  0  0  0  0
  7  8  2  0  0  0  0
  7 13  1  0  0  0  0
  8  9  1  0  0  0  0
  8 11  1  0  0  0  0
  9 10  2  0  0  0  0
 11 12  1  0  0  0  0
 12 13  2  0  0  0  0
M  END
>  <CHROM.1>
9.25912811,3.86010305,36.18949403,0.80092219,0.66846108,-2.78344853

>  <Name>
1o15_lig

>  <RI>
0

>  <Rbt.Current_Directory>
/home/itssahil/PROJECTS/Mol_Feturizer/New_Systems/rnas/1o15

>  <Rbt.Executable>
rbdock ($Id: //depot/dev/client3/rdock/2013.1/src/exe/rbdock.cxx#4 $)

>  <Rbt.Library>
libRbt.so (2013.1, Build901 2013/11/27)

>  <Rbt.Parameter_File>
/export/apps/rDock/src/rDock_2013.1_src/data/scripts/dock_solv.prm

>  <Rbt.Receptor>
prm/blind_docking_60.prm

>  <SCORE>
-21.9416

>  <SCORE.INTER>
-22.3657

>  <SCORE.INTER.CONST>
1

>  <SCORE.INTER.POLAR>
-1.93903

>  <SCORE.INTER.ROT>
0

>  <SCORE.INTER.SOLV>
6.58535

>  <SCORE.INTER.VDW>
-14.2422

>  <SCORE.INTER.norm>
-1.72044

>  <SCORE.INTRA>
0

>  <SCORE.INTRA.DIHEDRAL>
0

>  <SCORE.INTRA.DIHEDRAL.0>
0

>  <SCORE.INTRA.POLAR>
0

>  <SCORE.INTRA.POLAR.0>
0

>  <SCORE.INTRA.REPUL>
0

>  <SCORE.INTRA.REPUL.0>
0

>  <SCORE.INTRA.SOLV>
0

>  <SCORE.INTRA.SOLV.lig_0>
-12.9184

>  <SCORE.INTRA.VDW>
0

>  <SCORE.INTRA.VDW.0>
0

>  <SCORE.INTRA.norm>
0

>  <SCORE.RESTR>
0.42414

>  <SCORE.RESTR.CAVITY>
0.42414

>  <SCORE.RESTR.norm>
0.0326261

>  <SCORE.SYSTEM>
0

>  <SCORE.SYSTEM.CONST>
0

>  <SCORE.SYSTEM.DIHEDRAL>
0

>  <SCORE.SYSTEM.SOLV>
0

>  <SCORE.SYSTEM.norm>
0

>  <SCORE.heavy>
13

>  <SCORE.norm>
-1.68781

>  <RMSD>
1.421

$$$$
1o15_lig
 OpenBabel11021811403D
libRbt.so/2013.1/901 2013/11/27
 13 14  0  0  0  0  0  0  0  0999 V2000
   10.1256    1.1323   35.8952 C   0  0  0  0  0  0  0  0  0  0  0  0
    9.7072    2.4371   36.0358 N   0  0  0  0  0  0  0  0  0  0  0  0
   10.3892    3.2298   36.9036 C   0  0  0  0  0  0  0  0  0  0  0  0
   11.3264    2.6983   37.4937 O   0  0  0  0  0  0  0  0  0  0  0  0
   10.8057    5.3222   38.0424 C   0  0  0  0  0  0  0  0  0  0  0  0
   10.0979    4.5419   37.1533 N   0  0  0  0  0  0  0  0  0  0  0  0
    9.0378    4.9979   36.4327 C   0  0  0  0  0  0  0  0  0  0  0  0
    8.3624    4.1924   35.5623 C   0  0  0  0  0  0  0  0  0  0  0  0
    8.6531    2.8410   35.2981 C   0  0  0  0  0  0  0  0  0  0  0  0
    8.0885    2.0647   34.5317 O   0  0  0  0  0  0  0  0  0  0  0  0
    7.3599    4.9817   35.0174 N   0  0  0  0  0  0  0  0  0  0  0  0
    7.4968    6.2032   35.5908 C   0  0  0  0  0  0  0  0  0  0  0  0
    8.4815    6.2726   36.4454 N   0  0  0  0  0  0  0  0  0  0  0  0
  1  2  1  0  0  0  0
  2  3  1  0  0  0  0
  2  9  1  0  0  0  0
  3  4  2  0  0  0  0
  3  6  1  0  0  0  0
  6  5  1  0  0  0  0
  6  7  1  0  0  0  0
  7  8  2  0  0  0  0
  7 13  1  0  0  0  0
  8  9  1  0  0  0  0
  8 11  1  0  0  0  0
  9 10  2  0  0  0  0
 11 12  1  0  0  0  0
 12 13  2  0  0  0  0
M  END
>  <CHROM.1>
9.25071259,3.87089012,36.18885081,0.79776850,0.66686891,-2.78194805

>  <Name>
1o15_lig

>  <RI>
0

>  <Rbt.Current_Directory>
/home/itssahil/PROJECTS/Mol_Feturizer/New_Systems/rnas/1o15

>  <Rbt.Executable>
rbdock ($Id: //depot/dev/client3/rdock/2013.1/src/exe/rbdock.cxx#4 $)

>  <Rbt.Library>
libRbt.so (2013.1, Build901 2013/11/27)

>  <Rbt.Parameter_File>
/export/apps/rDock/src/rDock_2013.1_src/data/scripts/dock_solv.prm

>  <Rbt.Receptor>
prm/blind_docking_60.prm

>  <SCORE>
-21.9017

>  <SCORE.INTER>
-22.3121

>  <SCORE.INTER.CONST>
1

>  <SCORE.INTER.POLAR>
-1.9263

>  <SCORE.INTER.ROT>
0

>  <SCORE.INTER.SOLV>
6.62209

>  <SCORE.INTER.VDW>
-14.2611

>  <SCORE.INTER.norm>
-1.71631

>  <SCORE.INTRA>
0

>  <SCORE.INTRA.DIHEDRAL>
0

>  <SCORE.INTRA.DIHEDRAL.0>
0

>  <SCORE.INTRA.POLAR>
0

>  <SCORE.INTRA.POLAR.0>
0

>  <SCORE.INTRA.REPUL>
0

>  <SCORE.INTRA.REPUL.0>
0

>  <SCORE.INTRA.SOLV>
0

>  <SCORE.INTRA.SOLV.lig_0>
-12.9184

>  <SCORE.INTRA.VDW>
0

>  <SCORE.INTRA.VDW.0>
0

>  <SCORE.INTRA.norm>
0

>  <SCORE.RESTR>
0.410351

>  <SCORE.RESTR.CAVITY>
0.410351

>  <SCORE.RESTR.norm>
0.0315655

>  <SCORE.SYSTEM>
0

>  <SCORE.SYSTEM.CONST>
0

>  <SCORE.SYSTEM.DIHEDRAL>
0

>  <SCORE.SYSTEM.SOLV>
0

>  <SCORE.SYSTEM.norm>
0

>  <SCORE.heavy>
13

>  <SCORE.norm>
-1.68475

>  <RMSD>
1.429

$$$$
1o15_lig
 OpenBabel11021811403D
libRbt.so/2013.1/901 2013/11/27
 13 14  0  0  0  0  0  0  0  0999 V2000
   10.1353    1.1413   35.8692 C   0  0  0  0  0  0  0  0  0  0  0  0
    9.7155    2.4444   36.0212 N   0  0  0  0  0  0  0  0  0  0  0  0
   10.3924    3.2282   36.9010 C   0  0  0  0  0  0  0  0  0  0  0  0
   11.3265    2.6909   37.4906 O   0  0  0  0  0  0  0  0  0  0  0  0
   10.8017    5.3087   38.0640 C   0  0  0  0  0  0  0  0  0  0  0  0
   10.0991    4.5375   37.1628 N   0  0  0  0  0  0  0  0  0  0  0  0
    9.0427    5.0006   36.4413 C   0  0  0  0  0  0  0  0  0  0  0  0
    8.3725    4.2040   35.5588 C   0  0  0  0  0  0  0  0  0  0  0  0
    8.6653    2.8556   35.2820 C   0  0  0  0  0  0  0  0  0  0  0  0
    8.1052    2.0871   34.5044 O   0  0  0  0  0  0  0  0  0  0  0  0
    7.3726    4.9986   35.0167 N   0  0  0  0  0  0  0  0  0  0  0  0
    7.5059    6.2141   35.6036 C   0  0  0  0  0  0  0  0  0  0  0  0
    8.4858    6.2749   36.4643 N   0  0  0  0  0  0  0  0  0  0  0  0
  1  2  1  0  0  0  0
  2  3  1  0  0  0  0
  2  9  1  0  0  0  0
  3  4  2  0  0  0  0
  3  6  1  0  0  0  0
  6  5  1  0  0  0  0
  6  7  1  0  0  0  0
  7  8  2  0  0  0  0
  7 13  1  0  0  0  0
  8  9  1  0  0  0  0
  8 11  1  0  0  0  0
  9 10  2  0  0  0  0
 11 12  1  0  0  0  0
 12 13  2  0  0  0  0
M  END
>  <CHROM.1>
9.25751975,3.87627670,36.18676354,0.79475896,0.67182816,-2.76958615

>  <Name>
1o15_lig

>  <RI>
0

>  <Rbt.Current_Directory>
/home/itssahil/PROJECTS/Mol_Feturizer/New_Systems/rnas/1o15

>  <Rbt.Executable>
rbdock ($Id: //depot/dev/client3/rdock/2013.1/src/exe/rbdock.cxx#4 $)

>  <Rbt.Library>
libRbt.so (2013.1, Build901 2013/11/27)

>  <Rbt.Parameter_File>
/export/apps/rDock/src/rDock_2013.1_src/data/scripts/dock_solv.prm

>  <Rbt.Receptor>
prm/blind_docking_60.prm

>  <SCORE>
-21.8858

>  <SCORE.INTER>
-22.2996

>  <SCORE.INTER.CONST>
1

>  <SCORE.INTER.POLAR>
-1.94262

>  <SCORE.INTER.ROT>
0

>  <SCORE.INTER.SOLV>
6.62921

>  <SCORE.INTER.VDW>
-14.2007

>  <SCORE.INTER.norm>
-1.71535

>  <SCORE.INTRA>
0

>  <SCORE.INTRA.DIHEDRAL>
0

>  <SCORE.INTRA.DIHEDRAL.0>
0

>  <SCORE.INTRA.POLAR>
0

>  <SCORE.INTRA.POLAR.0>
0

>  <SCORE.INTRA.REPUL>
0

>  <SCORE.INTRA.REPUL.0>
0

>  <SCORE.INTRA.SOLV>
0

>  <SCORE.INTRA.SOLV.lig_0>
-12.9184

>  <SCORE.INTRA.VDW>
0

>  <SCORE.INTRA.VDW.0>
0

>  <SCORE.INTRA.norm>
0

>  <SCORE.RESTR>
0.413793

>  <SCORE.RESTR.CAVITY>
0.413793

>  <SCORE.RESTR.norm>
0.0318302

>  <SCORE.SYSTEM>
0

>  <SCORE.SYSTEM.CONST>
0

>  <SCORE.SYSTEM.DIHEDRAL>
0

>  <SCORE.SYSTEM.SOLV>
0

>  <SCORE.SYSTEM.norm>
0

>  <SCORE.heavy>
13

>  <SCORE.norm>
-1.68352

>  <RMSD>
1.437

$$$$
1o15_lig
 OpenBabel11021811403D
libRbt.so/2013.1/901 2013/11/27
 13 14  0  0  0  0  0  0  0  0999 V2000
   10.1391    1.1389   35.8596 C   0  0  0  0  0  0  0  0  0  0  0  0
    9.7191    2.4418   36.0128 N   0  0  0  0  0  0  0  0  0  0  0  0
   10.3988    3.2263   36.8899 C   0  0  0  0  0  0  0  0  0  0  0  0
   11.3354    2.6897   37.4762 O   0  0  0  0  0  0  0  0  0  0  0  0
   10.8111    5.3073   38.0507 C   0  0  0  0  0  0  0  0  0  0  0  0
   10.1057    4.5355   37.1524 N   0  0  0  0  0  0  0  0  0  0  0  0
    9.0464    4.9978   36.4345 C   0  0  0  0  0  0  0  0  0  0  0  0
    8.3735    4.2005   35.5548 C   0  0  0  0  0  0  0  0  0  0  0  0
    8.6660    2.8522   35.2773 C   0  0  0  0  0  0  0  0  0  0  0  0
    8.1035    2.0832   34.5020 O   0  0  0  0  0  0  0  0  0  0  0  0
    7.3711    4.9944   35.0161 N   0  0  0  0  0  0  0  0  0  0  0  0
    7.5058    6.2101   35.6022 C   0  0  0  0  0  0  0  0  0  0  0  0
    8.4888    6.2718   36.4593 N   0  0  0  0  0  0  0  0  0  0  0  0
  1  2  1  0  0  0  0
  2  3  1  0  0  0  0
  2  9  1  0  0  0  0
  3  4  2  0  0  0  0
  3  6  1  0  0  0  0
  6  5  1  0  0  0  0
  6  7  1  0  0  0  0
  7  8  2  0  0  0  0
  7 13  1  0  0  0  0
  8  9  1  0  0  0  0
  8 11  1  0  0  0  0
  9 10  2  0  0  0  0
 11 12  1  0  0  0  0
 12 13  2  0  0  0  0
M  END
>  <CHROM.1>
9.26094398,3.87350435,36.17959657,0.79576511,0.66820002,-2.77050720

>  <Name>
1o15_lig

>  <RI>
0

>  <Rbt.Current_Directory>
/home/itssahil/PROJECTS/Mol_Feturizer/New_Systems/rnas/1o15

>  <Rbt.Executable>
rbdock ($Id: //depot/dev/client3/rdock/2013.1/src/exe/rbdock.cxx#4 $)

>  <Rbt.Library>
libRbt.so (2013.1, Build901 2013/11/27)

>  <Rbt.Parameter_File>
/export/apps/rDock/src/rDock_2013.1_src/data/scripts/dock_solv.prm

>  <Rbt.Receptor>
prm/blind_docking_60.prm

>  <SCORE>
-21.8892

>  <SCORE.INTER>
-22.3041

>  <SCORE.INTER.CONST>
1

>  <SCORE.INTER.POLAR>
-1.93841

>  <SCORE.INTER.ROT>
0

>  <SCORE.INTER.SOLV>
6.64622

>  <SCORE.INTER.VDW>
-14.2234

>  <SCORE.INTER.norm>
-1.7157

>  <SCORE.INTRA>
0

>  <SCORE.INTRA.DIHEDRAL>
0

>  <SCORE.INTRA.DIHEDRAL.0>
0

>  <SCORE.INTRA.POLAR>
0

>  <SCORE.INTRA.POLAR.0>
0

>  <SCORE.INTRA.REPUL>
0

>  <SCORE.INTRA.REPUL.0>
0

>  <SCORE.INTRA.SOLV>
0

>  <SCORE.INTRA.SOLV.lig_0>
-12.9184

>  <SCORE.INTRA.VDW>
0

>  <SCORE.INTRA.VDW.0>
0

>  <SCORE.INTRA.norm>
0

>  <SCORE.RESTR>
0.414846

>  <SCORE.RESTR.CAVITY>
0.414846

>  <SCORE.RESTR.norm>
0.0319112

>  <SCORE.SYSTEM>
0

>  <SCORE.SYSTEM.CONST>
0

>  <SCORE.SYSTEM.DIHEDRAL>
0

>  <SCORE.SYSTEM.SOLV>
0

>  <SCORE.SYSTEM.norm>
0

>  <SCORE.heavy>
13

>  <SCORE.norm>
-1.68379

>  <RMSD>
1.441

$$$$
1o15_lig
 OpenBabel11021811403D
libRbt.so/2013.1/901 2013/11/27
 13 14  0  0  0  0  0  0  0  0999 V2000
   10.1088    1.1244   35.8738 C   0  0  0  0  0  0  0  0  0  0  0  0
    9.6946    2.4303   36.0165 N   0  0  0  0  0  0  0  0  0  0  0  0
   10.3853    3.2221   36.8783 C   0  0  0  0  0  0  0  0  0  0  0  0
   11.3257    2.6889   37.4616 O   0  0  0  0  0  0  0  0  0  0  0  0
   10.8157    5.3145   38.0119 C   0  0  0  0  0  0  0  0  0  0  0  0
   10.0991    4.5352   37.1290 N   0  0  0  0  0  0  0  0  0  0  0  0
    9.0345    4.9931   36.4162 C   0  0  0  0  0  0  0  0  0  0  0  0
    8.3505    4.1885   35.5519 C   0  0  0  0  0  0  0  0  0  0  0  0
    8.6359    2.8362   35.2867 C   0  0  0  0  0  0  0  0  0  0  0  0
    8.0634    2.0605   34.5254 O   0  0  0  0  0  0  0  0  0  0  0  0
    7.3457    4.9798   35.0140 N   0  0  0  0  0  0  0  0  0  0  0  0
    7.4900    6.2014   35.5852 C   0  0  0  0  0  0  0  0  0  0  0  0
    8.4814    6.2692   36.4321 N   0  0  0  0  0  0  0  0  0  0  0  0
  1  2  1  0  0  0  0
  2  3  1  0  0  0  0
  2  9  1  0  0  0  0
  3  4  2  0  0  0  0
  3  6  1  0  0  0  0
  6  5  1  0  0  0  0
  6  7  1  0  0  0  0
  7  8  2  0  0  0  0
  7 13  1  0  0  0  0
  8  9  1  0  0  0  0
  8 11  1  0  0  0  0
  9 10  2  0  0  0  0
 11 12  1  0  0  0  0
 12 13  2  0  0  0  0
M  END
>  <CHROM.1>
9.24285105,3.86536255,36.17178245,0.80409506,0.66045175,-2.78674671

>  <Name>
1o15_lig

>  <RI>
0

>  <Rbt.Current_Directory>
/home/itssahil/PROJECTS/Mol_Feturizer/New_Systems/rnas/1o15

>  <Rbt.Executable>
rbdock ($Id: //depot/dev/client3/rdock/2013.1/src/exe/rbdock.cxx#4 $)

>  <Rbt.Library>
libRbt.so (2013.1, Build901 2013/11/27)

>  <Rbt.Parameter_File>
/export/apps/rDock/src/rDock_2013.1_src/data/scripts/dock_solv.prm

>  <Rbt.Receptor>
prm/blind_docking_60.prm

>  <SCORE>
-21.8365

>  <SCORE.INTER>
-22.2398

>  <SCORE.INTER.CONST>
1

>  <SCORE.INTER.POLAR>
-1.90996

>  <SCORE.INTER.ROT>
0

>  <SCORE.INTER.SOLV>
6.67707

>  <SCORE.INTER.VDW>
-14.2857

>  <SCORE.INTER.norm>
-1.71076

>  <SCORE.INTRA>
0

>  <SCORE.INTRA.DIHEDRAL>
0

>  <SCORE.INTRA.DIHEDRAL.0>
0

>  <SCORE.INTRA.POLAR>
0

>  <SCORE.INTRA.POLAR.0>
0

>  <SCORE.INTRA.REPUL>
0

>  <SCORE.INTRA.REPUL.0>
0

>  <SCORE.INTRA.SOLV>
0

>  <SCORE.INTRA.SOLV.lig_0>
-12.9184

>  <SCORE.INTRA.VDW>
0

>  <SCORE.INTRA.VDW.0>
0

>  <SCORE.INTRA.norm>
0

>  <SCORE.RESTR>
0.403305

>  <SCORE.RESTR.CAVITY>
0.403305

>  <SCORE.RESTR.norm>
0.0310235

>  <SCORE.SYSTEM>
0

>  <SCORE.SYSTEM.CONST>
0

>  <SCORE.SYSTEM.DIHEDRAL>
0

>  <SCORE.SYSTEM.SOLV>
0

>  <SCORE.SYSTEM.norm>
0

>  <SCORE.heavy>
13

>  <SCORE.norm>
-1.67973

>  <RMSD>
1.441

$$$$
1o15_lig
 OpenBabel11021811403D
libRbt.so/2013.1/901 2013/11/27
 13 14  0  0  0  0  0  0  0  0999 V2000
   10.1331    1.0497   35.7238 C   0  0  0  0  0  0  0  0  0  0  0  0
    9.7385    2.3565   35.9082 N   0  0  0  0  0  0  0  0  0  0  0  0
   10.4497    3.1140   36.7841 C   0  0  0  0  0  0  0  0  0  0  0  0
   11.3891    2.5518   37.3411 O   0  0  0  0  0  0  0  0  0  0  0  0
   10.9214    5.1673   37.9715 C   0  0  0  0  0  0  0  0  0  0  0  0
   10.1844    4.4231   37.0752 N   0  0  0  0  0  0  0  0  0  0  0  0
    9.1183    4.9154   36.3881 C   0  0  0  0  0  0  0  0  0  0  0  0
    8.4136    4.1450   35.5092 C   0  0  0  0  0  0  0  0  0  0  0  0
    8.6773    2.7971   35.2025 C   0  0  0  0  0  0  0  0  0  0  0  0
    8.0858    2.0512   34.4262 O   0  0  0  0  0  0  0  0  0  0  0  0
    7.4138    4.9647   35.0057 N   0  0  0  0  0  0  0  0  0  0  0  0
    7.5813    6.1676   35.6095 C   0  0  0  0  0  0  0  0  0  0  0  0
    8.5830    6.1979   36.4465 N   0  0  0  0  0  0  0  0  0  0  0  0
  1  2  1  0  0  0  0
  2  3  1  0  0  0  0
  2  9  1  0  0  0  0
  3  4  2  0  0  0  0
  3  6  1  0  0  0  0
  6  5  1  0  0  0  0
  6  7  1  0  0  0  0
  7  8  2  0  0  0  0
  7 13  1  0  0  0  0
  8  9  1  0  0  0  0
  8 11  1  0  0  0  0
  9 10  2  0  0  0  0
 11 12  1  0  0  0  0
 12 13  2  0  0  0  0
M  END
>  <CHROM.1>
9.30830669,3.79241284,36.10933247,0.82524888,0.65461647,-2.77124756

>  <Name>
1o15_lig

>  <RI>
0

>  <Rbt.Current_Directory>
/home/itssahil/PROJECTS/Mol_Feturizer/New_Systems/rnas/1o15

>  <Rbt.Executable>
rbdock ($Id: //depot/dev/client3/rdock/2013.1/src/exe/rbdock.cxx#4 $)

>  <Rbt.Library>
libRbt.so (2013.1, Build901 2013/11/27)

>  <Rbt.Parameter_File>
/export/apps/rDock/src/rDock_2013.1_src/data/scripts/dock_solv.prm

>  <Rbt.Receptor>
prm/blind_docking_60.prm

>  <SCORE>
-21.9977

>  <SCORE.INTER>
-22.4532

>  <SCORE.INTER.CONST>
1

>  <SCORE.INTER.POLAR>
-1.96395

>  <SCORE.INTER.ROT>
0

>  <SCORE.INTER.SOLV>
6.68132

>  <SCORE.INTER.VDW>
-14.2494

>  <SCORE.INTER.norm>
-1.72717

>  <SCORE.INTRA>
0

>  <SCORE.INTRA.DIHEDRAL>
0

>  <SCORE.INTRA.DIHEDRAL.0>
0

>  <SCORE.INTRA.POLAR>
0

>  <SCORE.INTRA.POLAR.0>
0

>  <SCORE.INTRA.REPUL>
0

>  <SCORE.INTRA.REPUL.0>
0

>  <SCORE.INTRA.SOLV>
0

>  <SCORE.INTRA.SOLV.lig_0>
-12.9184

>  <SCORE.INTRA.VDW>
0

>  <SCORE.INTRA.VDW.0>
0

>  <SCORE.INTRA.norm>
0

>  <SCORE.RESTR>
0.455449

>  <SCORE.RESTR.CAVITY>
0.455449

>  <SCORE.RESTR.norm>
0.0350346

>  <SCORE.SYSTEM>
0

>  <SCORE.SYSTEM.CONST>
0

>  <SCORE.SYSTEM.DIHEDRAL>
0

>  <SCORE.SYSTEM.SOLV>
0

>  <SCORE.SYSTEM.norm>
0

>  <SCORE.heavy>
13

>  <SCORE.norm>
-1.69213

>  <RMSD>
1.453

$$$$
1o15_lig
 OpenBabel11021811403D
libRbt.so/2013.1/901 2013/11/27
 13 14  0  0  0  0  0  0  0  0999 V2000
   10.1313    1.0590   35.6944 C   0  0  0  0  0  0  0  0  0  0  0  0
    9.7382    2.3649   35.8875 N   0  0  0  0  0  0  0  0  0  0  0  0
   10.4499    3.1158   36.7687 C   0  0  0  0  0  0  0  0  0  0  0  0
   11.3884    2.5487   37.3223 O   0  0  0  0  0  0  0  0  0  0  0  0
   10.9235    5.1605   37.9701 C   0  0  0  0  0  0  0  0  0  0  0  0
   10.1860    4.4232   37.0685 N   0  0  0  0  0  0  0  0  0  0  0  0
    9.1207    4.9214   36.3843 C   0  0  0  0  0  0  0  0  0  0  0  0
    8.4155    4.1577   35.5000 C   0  0  0  0  0  0  0  0  0  0  0  0
    8.6778    2.8115   35.1843 C   0  0  0  0  0  0  0  0  0  0  0  0
    8.0857    2.0716   34.4028 O   0  0  0  0  0  0  0  0  0  0  0  0
    7.4169    4.9819   35.0016 N   0  0  0  0  0  0  0  0  0  0  0  0
    7.5855    6.1805   35.6136 C   0  0  0  0  0  0  0  0  0  0  0  0
    8.5869    6.2040   36.4511 N   0  0  0  0  0  0  0  0  0  0  0  0
  1  2  1  0  0  0  0
  2  3  1  0  0  0  0
  2  9  1  0  0  0  0
  3  4  2  0  0  0  0
  3  6  1  0  0  0  0
  6  5  1  0  0  0  0
  6  7  1  0  0  0  0
  7  8  2  0  0  0  0
  7 13  1  0  0  0  0
  8  9  1  0  0  0  0
  8 11  1  0  0  0  0
  9 10  2  0  0  0  0
 11 12  1  0  0  0  0
 12 13  2  0  0  0  0
M  END
>  <CHROM.1>
9.30956167,3.80000207,36.09809160,0.82643250,0.65541824,-2.76524711

>  <Name>
1o15_lig

>  <RI>
0

>  <Rbt.Current_Directory>
/home/itssahil/PROJECTS/Mol_Feturizer/New_Systems/rnas/1o15

>  <Rbt.Executable>
rbdock ($Id: //depot/dev/client3/rdock/2013.1/src/exe/rbdock.cxx#4 $)

>  <Rbt.Library>
libRbt.so (2013.1, Build901 2013/11/27)

>  <Rbt.Parameter_File>
/export/apps/rDock/src/rDock_2013.1_src/data/scripts/dock_solv.prm

>  <Rbt.Receptor>
prm/blind_docking_60.prm

>  <SCORE>
-21.9538

>  <SCORE.INTER>
-22.4007

>  <SCORE.INTER.CONST>
1

>  <SCORE.INTER.POLAR>
-1.96969

>  <SCORE.INTER.ROT>
0

>  <SCORE.INTER.SOLV>
6.7201

>  <SCORE.INTER.VDW>
-14.2082

>  <SCORE.INTER.norm>
-1.72313

>  <SCORE.INTRA>
0

>  <SCORE.INTRA.DIHEDRAL>
0

>  <SCORE.INTRA.DIHEDRAL.0>
0

>  <SCORE.INTRA.POLAR>
0

>  <SCORE.INTRA.POLAR.0>
0

>  <SCORE.INTRA.REPUL>
0

>  <SCORE.INTRA.REPUL.0>
0

>  <SCORE.INTRA.SOLV>
0

>  <SCORE.INTRA.SOLV.lig_0>
-12.9184

>  <SCORE.INTRA.VDW>
0

>  <SCORE.INTRA.VDW.0>
0

>  <SCORE.INTRA.norm>
0

>  <SCORE.RESTR>
0.446919

>  <SCORE.RESTR.CAVITY>
0.446919

>  <SCORE.RESTR.norm>
0.0343784

>  <SCORE.SYSTEM>
0

>  <SCORE.SYSTEM.CONST>
0

>  <SCORE.SYSTEM.DIHEDRAL>
0

>  <SCORE.SYSTEM.SOLV>
0

>  <SCORE.SYSTEM.norm>
0

>  <SCORE.heavy>
13

>  <SCORE.norm>
-1.68875

>  <RMSD>
1.469

$$$$
1o15_lig
 OpenBabel11021811403D
libRbt.so/2013.1/901 2013/11/27
 13 14  0  0  0  0  0  0  0  0999 V2000
   10.1022    1.0256   35.6618 C   0  0  0  0  0  0  0  0  0  0  0  0
    9.7212    2.3343   35.8611 N   0  0  0  0  0  0  0  0  0  0  0  0
   10.4455    3.0771   36.7388 C   0  0  0  0  0  0  0  0  0  0  0  0
   11.3836    2.5010   37.2839 O   0  0  0  0  0  0  0  0  0  0  0  0
   10.9448    5.1148   37.9416 C   0  0  0  0  0  0  0  0  0  0  0  0
   10.1946    4.3858   37.0438 N   0  0  0  0  0  0  0  0  0  0  0  0
    9.1284    4.8944   36.3688 C   0  0  0  0  0  0  0  0  0  0  0  0
    8.4104    4.1387   35.4879 C   0  0  0  0  0  0  0  0  0  0  0  0
    8.6593    2.7913   35.1669 C   0  0  0  0  0  0  0  0  0  0  0  0
    8.0554    2.0582   34.3880 O   0  0  0  0  0  0  0  0  0  0  0  0
    7.4148    4.9723   34.9990 N   0  0  0  0  0  0  0  0  0  0  0  0
    7.5978    6.1679   35.6127 C   0  0  0  0  0  0  0  0  0  0  0  0
    8.6055    6.1811   36.4428 N   0  0  0  0  0  0  0  0  0  0  0  0
  1  2  1  0  0  0  0
  2  3  1  0  0  0  0
  2  9  1  0  0  0  0
  3  4  2  0  0  0  0
  3  6  1  0  0  0  0
  6  5  1  0  0  0  0
  6  7  1  0  0  0  0
  7  8  2  0  0  0  0
  7 13  1  0  0  0  0
  8  9  1  0  0  0  0
  8 11  1  0  0  0  0
  9 10  2  0  0  0  0
 11 12  1  0  0  0  0
 12 13  2  0  0  0  0
M  END
>  <CHROM.1>
9.30590574,3.77225740,36.07840555,0.83943094,0.65143367,-2.77064397

>  <Name>
1o15_lig

>  <RI>
0

>  <Rbt.Current_Directory>
/home/itssahil/PROJECTS/Mol_Feturizer/New_Systems/rnas/1o15

>  <Rbt.Executable>
rbdock ($Id: //depot/dev/client3/rdock/2013.1/src/exe/rbdock.cxx#4 $)

>  <Rbt.Library>
libRbt.so (2013.1, Build901 2013/11/27)

>  <Rbt.Parameter_File>
/export/apps/rDock/src/rDock_2013.1_src/data/scripts/dock_solv.prm

>  <Rbt.Receptor>
prm/blind_docking_60.prm

>  <SCORE>
-21.9852

>  <SCORE.INTER>
-22.4248

>  <SCORE.INTER.CONST>
1

>  <SCORE.INTER.POLAR>
-1.95296

>  <SCORE.INTER.ROT>
0

>  <SCORE.INTER.SOLV>
6.73213

>  <SCORE.INTER.VDW>
-14.284

>  <SCORE.INTER.norm>
-1.72498

>  <SCORE.INTRA>
0

>  <SCORE.INTRA.DIHEDRAL>
0

>  <SCORE.INTRA.DIHEDRAL.0>
0

>  <SCORE.INTRA.POLAR>
0

>  <SCORE.INTRA.POLAR.0>
0

>  <SCORE.INTRA.REPUL>
0

>  <SCORE.INTRA.REPUL.0>
0

>  <SCORE.INTRA.SOLV>
0

>  <SCORE.INTRA.SOLV.lig_0>
-12.9184

>  <SCORE.INTRA.VDW>
0

>  <SCORE.INTRA.VDW.0>
0

>  <SCORE.INTRA.norm>
0

>  <SCORE.RESTR>
0.439566

>  <SCORE.RESTR.CAVITY>
0.439566

>  <SCORE.RESTR.norm>
0.0338128

>  <SCORE.SYSTEM>
0

>  <SCORE.SYSTEM.CONST>
0

>  <SCORE.SYSTEM.DIHEDRAL>
0

>  <SCORE.SYSTEM.SOLV>
0

>  <SCORE.SYSTEM.norm>
0

>  <SCORE.heavy>
13

>  <SCORE.norm>
-1.69117

>  <RMSD>
1.474

$$$$
1o15_lig
 OpenBabel11021811403D
libRbt.so/2013.1/901 2013/11/27
 13 14  0  0  0  0  0  0  0  0999 V2000
   10.1119    1.0424   35.6698 C   0  0  0  0  0  0  0  0  0  0  0  0
    9.7245    2.3494   35.8670 N   0  0  0  0  0  0  0  0  0  0  0  0
   10.4448    3.0970   36.7439 C   0  0  0  0  0  0  0  0  0  0  0  0
   11.3854    2.5263   37.2903 O   0  0  0  0  0  0  0  0  0  0  0  0
   10.9337    5.1389   37.9440 C   0  0  0  0  0  0  0  0  0  0  0  0
   10.1874    4.4050   37.0469 N   0  0  0  0  0  0  0  0  0  0  0  0
    9.1190    4.9074   36.3707 C   0  0  0  0  0  0  0  0  0  0  0  0
    8.4050    4.1470   35.4906 C   0  0  0  0  0  0  0  0  0  0  0  0
    8.6607    2.8003   35.1718 C   0  0  0  0  0  0  0  0  0  0  0  0
    8.0606    2.0631   34.3937 O   0  0  0  0  0  0  0  0  0  0  0  0
    7.4057    4.9750   35.0001 N   0  0  0  0  0  0  0  0  0  0  0  0
    7.5826    6.1724   35.6121 C   0  0  0  0  0  0  0  0  0  0  0  0
    8.5899    6.1917   36.4426 N   0  0  0  0  0  0  0  0  0  0  0  0
  1  2  1  0  0  0  0
  2  3  1  0  0  0  0
  2  9  1  0  0  0  0
  3  4  2  0  0  0  0
  3  6  1  0  0  0  0
  6  5  1  0  0  0  0
  6  7  1  0  0  0  0
  7  8  2  0  0  0  0
  7 13  1  0  0  0  0
  8  9  1  0  0  0  0
  8 11  1  0  0  0  0
  9 10  2  0  0  0  0
 11 12  1  0  0  0  0
 12 13  2  0  0  0  0
M  END
>  <CHROM.1>
9.30209552,3.78570265,36.08206463,0.83355384,0.65007466,-2.76854093

>  <Name>
1o15_lig

>  <RI>
0

>  <Rbt.Current_Directory>
/home/itssahil/PROJECTS/Mol_Feturizer/New_Systems/rnas/1o15

>  <Rbt.Executable>
rbdock ($Id: //depot/dev/client3/rdock/2013.1/src/exe/rbdock.cxx#4 $)

>  <Rbt.Library>
libRbt.so (2013.1, Build901 2013/11/27)

>  <Rbt.Parameter_File>
/export/apps/rDock/src/rDock_2013.1_src/data/scripts/dock_solv.prm

>  <Rbt.Receptor>
prm/blind_docking_60.prm

>  <SCORE>
-21.9626

>  <SCORE.INTER>
-22.3988

>  <SCORE.INTER.CONST>
1

>  <SCORE.INTER.POLAR>
-1.94991

>  <SCORE.INTER.ROT>
0

>  <SCORE.INTER.SOLV>
6.75865

>  <SCORE.INTER.VDW>
-14.2857

>  <SCORE.INTER.norm>
-1.72298

>  <SCORE.INTRA>
0

>  <SCORE.INTRA.DIHEDRAL>
0

>  <SCORE.INTRA.DIHEDRAL.0>
0

>  <SCORE.INTRA.POLAR>
0

>  <SCORE.INTRA.POLAR.0>
0

>  <SCORE.INTRA.REPUL>
0

>  <SCORE.INTRA.REPUL.0>
0

>  <SCORE.INTRA.SOLV>
0

>  <SCORE.INTRA.SOLV.lig_0>
-12.9184

>  <SCORE.INTRA.VDW>
0

>  <SCORE.INTRA.VDW.0>
0

>  <SCORE.INTRA.norm>
0

>  <SCORE.RESTR>
0.436221

>  <SCORE.RESTR.CAVITY>
0.436221

>  <SCORE.RESTR.norm>
0.0335555

>  <SCORE.SYSTEM>
0

>  <SCORE.SYSTEM.CONST>
0

>  <SCORE.SYSTEM.DIHEDRAL>
0

>  <SCORE.SYSTEM.SOLV>
0

>  <SCORE.SYSTEM.norm>
0

>  <SCORE.heavy>
13

>  <SCORE.norm>
-1.68943

>  <RMSD>
1.478

$$$$
1o15_lig
 OpenBabel11021811403D
libRbt.so/2013.1/901 2013/11/27
 13 14  0  0  0  0  0  0  0  0999 V2000
   10.0989    1.0507   35.6631 C   0  0  0  0  0  0  0  0  0  0  0  0
    9.7119    2.3576   35.8619 N   0  0  0  0  0  0  0  0  0  0  0  0
   10.4326    3.1039   36.7394 C   0  0  0  0  0  0  0  0  0  0  0  0
   11.3732    2.5323   37.2849 O   0  0  0  0  0  0  0  0  0  0  0  0
   10.9225    5.1443   37.9418 C   0  0  0  0  0  0  0  0  0  0  0  0
   10.1757    4.4116   37.0440 N   0  0  0  0  0  0  0  0  0  0  0  0
    9.1072    4.9151   36.3687 C   0  0  0  0  0  0  0  0  0  0  0  0
    8.3928    4.1559   35.4879 C   0  0  0  0  0  0  0  0  0  0  0  0
    8.6480    2.8096   35.1674 C   0  0  0  0  0  0  0  0  0  0  0  0
    8.0475    2.0735   34.3887 O   0  0  0  0  0  0  0  0  0  0  0  0
    7.3936    4.9848   34.9986 N   0  0  0  0  0  0  0  0  0  0  0  0
    7.5710    6.1814   35.6120 C   0  0  0  0  0  0  0  0  0  0  0  0
    8.5785    6.1995   36.4423 N   0  0  0  0  0  0  0  0  0  0  0  0
  1  2  1  0  0  0  0
  2  3  1  0  0  0  0
  2  9  1  0  0  0  0
  3  4  2  0  0  0  0
  3  6  1  0  0  0  0
  6  5  1  0  0  0  0
  6  7  1  0  0  0  0
  7  8  2  0  0  0  0
  7 13  1  0  0  0  0
  8  9  1  0  0  0  0
  8 11  1  0  0  0  0
  9 10  2  0  0  0  0
 11 12  1  0  0  0  0
 12 13  2  0  0  0  0
M  END
>  <CHROM.1>
9.28995150,3.79373417,36.07869898,0.83402471,0.64992035,-2.76767103

>  <Name>
1o15_lig

>  <RI>
0

>  <Rbt.Current_Directory>
/home/itssahil/PROJECTS/Mol_Feturizer/New_Systems/rnas/1o15

>  <Rbt.Executable>
rbdock ($Id: //depot/dev/client3/rdock/2013.1/src/exe/rbdock.cxx#4 $)

>  <Rbt.Library>
libRbt.so (2013.1, Build901 2013/11/27)

>  <Rbt.Parameter_File>
/export/apps/rDock/src/rDock_2013.1_src/data/scripts/dock_solv.prm

>  <Rbt.Receptor>
prm/blind_docking_60.prm

>  <SCORE>
-21.9055

>  <SCORE.INTER>
-22.3286

>  <SCORE.INTER.CONST>
1

>  <SCORE.INTER.POLAR>
-1.94368

>  <SCORE.INTER.ROT>
0

>  <SCORE.INTER.SOLV>
6.79464

>  <SCORE.INTER.VDW>
-14.2717

>  <SCORE.INTER.norm>
-1.71759

>  <SCORE.INTRA>
0

>  <SCORE.INTRA.DIHEDRAL>
0

>  <SCORE.INTRA.DIHEDRAL.0>
0

>  <SCORE.INTRA.POLAR>
0

>  <SCORE.INTRA.POLAR.0>
0

>  <SCORE.INTRA.REPUL>
0

>  <SCORE.INTRA.REPUL.0>
0

>  <SCORE.INTRA.SOLV>
0

>  <SCORE.INTRA.SOLV.lig_0>
-12.9184

>  <SCORE.INTRA.VDW>
0

>  <SCORE.INTRA.VDW.0>
0

>  <SCORE.INTRA.norm>
0

>  <SCORE.RESTR>
0.423155

>  <SCORE.RESTR.CAVITY>
0.423155

>  <SCORE.RESTR.norm>
0.0325503

>  <SCORE.SYSTEM>
0

>  <SCORE.SYSTEM.CONST>
0

>  <SCORE.SYSTEM.DIHEDRAL>
0

>  <SCORE.SYSTEM.SOLV>
0

>  <SCORE.SYSTEM.norm>
0

>  <SCORE.heavy>
13

>  <SCORE.norm>
-1.68504

>  <RMSD>
1.487

$$$$
1o15_lig
 OpenBabel11021811403D
libRbt.so/2013.1/901 2013/11/27
 13 14  0  0  0  0  0  0  0  0999 V2000
   10.0909    1.0737   35.6813 C   0  0  0  0  0  0  0  0  0  0  0  0
    9.7022    2.3808   35.8762 N   0  0  0  0  0  0  0  0  0  0  0  0
   10.4183    3.1289   36.7560 C   0  0  0  0  0  0  0  0  0  0  0  0
   11.3566    2.5587   37.3068 O   0  0  0  0  0  0  0  0  0  0  0  0
   10.9012    5.1714   37.9575 C   0  0  0  0  0  0  0  0  0  0  0  0
   10.1591    4.4369   37.0574 N   0  0  0  0  0  0  0  0  0  0  0  0
    9.0936    4.9387   36.3762 C   0  0  0  0  0  0  0  0  0  0  0  0
    8.3838    4.1777   35.4933 C   0  0  0  0  0  0  0  0  0  0  0  0
    8.6413    2.8310   35.1760 C   0  0  0  0  0  0  0  0  0  0  0  0
    8.0450    2.0933   34.3956 O   0  0  0  0  0  0  0  0  0  0  0  0
    7.3864    5.0052   34.9980 N   0  0  0  0  0  0  0  0  0  0  0  0
    7.5602    6.2029   35.6103 C   0  0  0  0  0  0  0  0  0  0  0  0
    8.5638    6.2228   36.4453 N   0  0  0  0  0  0  0  0  0  0  0  0
  1  2  1  0  0  0  0
  2  3  1  0  0  0  0
  2  9  1  0  0  0  0
  3  4  2  0  0  0  0
  3  6  1  0  0  0  0
  6  5  1  0  0  0  0
  6  7  1  0  0  0  0
  7  8  2  0  0  0  0
  7 13  1  0  0  0  0
  8  9  1  0  0  0  0
  8 11  1  0  0  0  0
  9 10  2  0  0  0  0
 11 12  1  0  0  0  0
 12 13  2  0  0  0  0
M  END
>  <CHROM.1>
9.27835567,3.81696254,36.08881319,0.83112228,0.65409901,-2.76745079

>  <Name>
1o15_lig

>  <RI>
0

>  <Rbt.Current_Directory>
/home/itssahil/PROJECTS/Mol_Feturizer/New_Systems/rnas/1o15

>  <Rbt.Executable>
rbdock ($Id: //depot/dev/client3/rdock/2013.1/src/exe/rbdock.cxx#4 $)

>  <Rbt.Library>
libRbt.so (2013.1, Build901 2013/11/27)

>  <Rbt.Parameter_File>
/export/apps/rDock/src/rDock_2013.1_src/data/scripts/dock_solv.prm

>  <Rbt.Receptor>
prm/blind_docking_60.prm

>  <SCORE>
-21.8606

>  <SCORE.INTER>
-22.2749

>  <SCORE.INTER.CONST>
1

>  <SCORE.INTER.POLAR>
-1.94653

>  <SCORE.INTER.ROT>
0

>  <SCORE.INTER.SOLV>
6.80268

>  <SCORE.INTER.VDW>
-14.229

>  <SCORE.INTER.norm>
-1.71345

>  <SCORE.INTRA>
0

>  <SCORE.INTRA.DIHEDRAL>
0

>  <SCORE.INTRA.DIHEDRAL.0>
0

>  <SCORE.INTRA.POLAR>
0

>  <SCORE.INTRA.POLAR.0>
0

>  <SCORE.INTRA.REPUL>
0

>  <SCORE.INTRA.REPUL.0>
0

>  <SCORE.INTRA.SOLV>
0

>  <SCORE.INTRA.SOLV.lig_0>
-12.9184

>  <SCORE.INTRA.VDW>
0

>  <SCORE.INTRA.VDW.0>
0

>  <SCORE.INTRA.norm>
0

>  <SCORE.RESTR>
0.414272

>  <SCORE.RESTR.CAVITY>
0.414272

>  <SCORE.RESTR.norm>
0.031867

>  <SCORE.SYSTEM>
0

>  <SCORE.SYSTEM.CONST>
0

>  <SCORE.SYSTEM.DIHEDRAL>
0

>  <SCORE.SYSTEM.SOLV>
0

>  <SCORE.SYSTEM.norm>
0

>  <SCORE.heavy>
13

>  <SCORE.norm>
-1.68158

>  <RMSD>
1.490

$$$$
1o15_lig
 OpenBabel11021811403D
libRbt.so/2013.1/901 2013/11/27
 13 14  0  0  0  0  0  0  0  0999 V2000
   10.1990    1.2641   35.9236 C   0  0  0  0  0  0  0  0  0  0  0  0
    9.7376    2.5557   36.0512 N   0  0  0  0  0  0  0  0  0  0  0  0
   10.3962    3.3807   36.9069 C   0  0  0  0  0  0  0  0  0  0  0  0
   11.3530    2.8878   37.4988 O   0  0  0  0  0  0  0  0  0  0  0  0
   10.7470    5.4989   38.0199 C   0  0  0  0  0  0  0  0  0  0  0  0
   10.0621    4.6851   37.1429 N   0  0  0  0  0  0  0  0  0  0  0  0
    8.9843    5.0971   36.4218 C   0  0  0  0  0  0  0  0  0  0  0  0
    8.3328    4.2594   35.5637 C   0  0  0  0  0  0  0  0  0  0  0  0
    8.6676    2.9156   35.3137 C   0  0  0  0  0  0  0  0  0  0  0  0
    8.1262    2.1120   34.5587 O   0  0  0  0  0  0  0  0  0  0  0  0
    7.3022    5.0084   35.0143 N   0  0  0  0  0  0  0  0  0  0  0  0
    7.4004    6.2403   35.5731 C   0  0  0  0  0  0  0  0  0  0  0  0
    8.3857    6.3525   36.4225 N   0  0  0  0  0  0  0  0  0  0  0  0
  1  2  1  0  0  0  0
  2  3  1  0  0  0  0
  2  9  1  0  0  0  0
  3  4  2  0  0  0  0
  3  6  1  0  0  0  0
  6  5  1  0  0  0  0
  6  7  1  0  0  0  0
  7  8  2  0  0  0  0
  7 13  1  0  0  0  0
  8  9  1  0  0  0  0
  8 11  1  0  0  0  0
  9 10  2  0  0  0  0
 11 12  1  0  0  0  0
 12 13  2  0  0  0  0
M  END
>  <CHROM.1>
9.23395155,3.97505191,36.18990982,0.76012001,0.65090292,-2.77037078

>  <Name>
1o15_lig

>  <RI>
224

>  <Rbt.Current_Directory>
/home/itssahil/PROJECTS/Mol_Feturizer/New_Systems/rnas/1o15

>  <Rbt.Executable>
rbdock ($Id: //depot/dev/client3/rdock/2013.1/src/exe/rbdock.cxx#4 $)

>  <Rbt.Library>
libRbt.so (2013.1, Build901 2013/11/27)

>  <Rbt.Parameter_File>
/export/apps/rDock/src/rDock_2013.1_src/data/scripts/dock_solv.prm

>  <Rbt.Receptor>
prm/blind_docking_100.prm

>  <SCORE>
-21.234

>  <SCORE.INTER>
-21.5208

>  <SCORE.INTER.CONST>
1

>  <SCORE.INTER.POLAR>
-1.85395

>  <SCORE.INTER.ROT>
0

>  <SCORE.INTER.SOLV>
6.8604

>  <SCORE.INTER.VDW>
-14.0541

>  <SCORE.INTER.norm>
-1.65545

>  <SCORE.INTRA>
0

>  <SCORE.INTRA.DIHEDRAL>
0

>  <SCORE.INTRA.DIHEDRAL.0>
0

>  <SCORE.INTRA.POLAR>
0

>  <SCORE.INTRA.POLAR.0>
0

>  <SCORE.INTRA.REPUL>
0

>  <SCORE.INTRA.REPUL.0>
0

>  <SCORE.INTRA.SOLV>
0

>  <SCORE.INTRA.SOLV.lig_0>
-12.9184

>  <SCORE.INTRA.VDW>
0

>  <SCORE.INTRA.VDW.0>
0

>  <SCORE.INTRA.norm>
0

>  <SCORE.RESTR>
0.286775

>  <SCORE.RESTR.CAVITY>
0.286775

>  <SCORE.RESTR.norm>
0.0220597

>  <SCORE.SYSTEM>
0

>  <SCORE.SYSTEM.CONST>
0

>  <SCORE.SYSTEM.DIHEDRAL>
0

>  <SCORE.SYSTEM.SOLV>
0

>  <SCORE.SYSTEM.norm>
0

>  <SCORE.heavy>
13

>  <SCORE.norm>
-1.63339

>  <RMSD>
1.496

$$$$
1o15_lig
 OpenBabel11021811403D
libRbt.so/2013.1/901 2013/11/27
 13 14  0  0  0  0  0  0  0  0999 V2000
   10.2469    1.2781   35.9037 C   0  0  0  0  0  0  0  0  0  0  0  0
    9.7752    2.5648   36.0422 N   0  0  0  0  0  0  0  0  0  0  0  0
   10.4237    3.3861   36.9091 C   0  0  0  0  0  0  0  0  0  0  0  0
   11.3815    2.8945   37.5004 O   0  0  0  0  0  0  0  0  0  0  0  0
   10.7533    5.4956   38.0449 C   0  0  0  0  0  0  0  0  0  0  0  0
   10.0786    4.6855   37.1567 N   0  0  0  0  0  0  0  0  0  0  0  0
    9.0010    5.0966   36.4349 C   0  0  0  0  0  0  0  0  0  0  0  0
    8.3597    4.2627   35.5655 C   0  0  0  0  0  0  0  0  0  0  0  0
    8.7058    2.9240   35.3035 C   0  0  0  0  0  0  0  0  0  0  0  0
    8.1739    2.1240   34.5380 O   0  0  0  0  0  0  0  0  0  0  0  0
    7.3259    5.0094   35.0189 N   0  0  0  0  0  0  0  0  0  0  0  0
    7.4122    6.2363   35.5905 C   0  0  0  0  0  0  0  0  0  0  0  0
    8.3928    6.3474   36.4455 N   0  0  0  0  0  0  0  0  0  0  0  0
  1  2  1  0  0  0  0
  2  3  1  0  0  0  0
  2  9  1  0  0  0  0
  3  4  2  0  0  0  0
  3  6  1  0  0  0  0
  6  5  1  0  0  0  0
  6  7  1  0  0  0  0
  7  8  2  0  0  0  0
  7 13  1  0  0  0  0
  8  9  1  0  0  0  0
  8 11  1  0  0  0  0
  9 10  2  0  0  0  0
 11 12  1  0  0  0  0
 12 13  2  0  0  0  0
M  END
>  <CHROM.1>
9.26014846,3.97887154,36.19287927,0.74916779,0.65229320,-2.75366796

>  <Name>
1o15_lig

>  <RI>
224

>  <Rbt.Current_Directory>
/home/itssahil/PROJECTS/Mol_Feturizer/New_Systems/rnas/1o15

>  <Rbt.Executable>
rbdock ($Id: //depot/dev/client3/rdock/2013.1/src/exe/rbdock.cxx#4 $)

>  <Rbt.Library>
libRbt.so (2013.1, Build901 2013/11/27)

>  <Rbt.Parameter_File>
/export/apps/rDock/src/rDock_2013.1_src/data/scripts/dock_solv.prm

>  <Rbt.Receptor>
prm/blind_docking_100.prm

>  <SCORE>
-21.2745

>  <SCORE.INTER>
-21.5763

>  <SCORE.INTER.CONST>
1

>  <SCORE.INTER.POLAR>
-1.87809

>  <SCORE.INTER.ROT>
0

>  <SCORE.INTER.SOLV>
6.86356

>  <SCORE.INTER.VDW>
-14.0117

>  <SCORE.INTER.norm>
-1.65971

>  <SCORE.INTRA>
0

>  <SCORE.INTRA.DIHEDRAL>
0

>  <SCORE.INTRA.DIHEDRAL.0>
0

>  <SCORE.INTRA.POLAR>
0

>  <SCORE.INTRA.POLAR.0>
0

>  <SCORE.INTRA.REPUL>
0

>  <SCORE.INTRA.REPUL.0>
0

>  <SCORE.INTRA.SOLV>
0

>  <SCORE.INTRA.SOLV.lig_0>
-12.9184

>  <SCORE.INTRA.VDW>
0

>  <SCORE.INTRA.VDW.0>
0

>  <SCORE.INTRA.norm>
0

>  <SCORE.RESTR>
0.301785

>  <SCORE.RESTR.CAVITY>
0.301785

>  <SCORE.RESTR.norm>
0.0232142

>  <SCORE.SYSTEM>
0

>  <SCORE.SYSTEM.CONST>
0

>  <SCORE.SYSTEM.DIHEDRAL>
0

>  <SCORE.SYSTEM.SOLV>
0

>  <SCORE.SYSTEM.norm>
0

>  <SCORE.heavy>
13

>  <SCORE.norm>
-1.6365

>  <RMSD>
1.497

$$$$
1o15_lig
 OpenBabel11021811403D
libRbt.so/2013.1/901 2013/11/27
 13 14  0  0  0  0  0  0  0  0999 V2000
   10.1941    1.2750   35.9257 C   0  0  0  0  0  0  0  0  0  0  0  0
    9.7302    2.5657   36.0534 N   0  0  0  0  0  0  0  0  0  0  0  0
   10.3869    3.3919   36.9094 C   0  0  0  0  0  0  0  0  0  0  0  0
   11.3445    2.9007   37.5016 O   0  0  0  0  0  0  0  0  0  0  0  0
   10.7332    5.5105   38.0228 C   0  0  0  0  0  0  0  0  0  0  0  0
   10.0502    4.6956   37.1455 N   0  0  0  0  0  0  0  0  0  0  0  0
    8.9719    5.1056   36.4241 C   0  0  0  0  0  0  0  0  0  0  0  0
    8.3223    4.2668   35.5657 C   0  0  0  0  0  0  0  0  0  0  0  0
    8.6597    2.9236   35.3155 C   0  0  0  0  0  0  0  0  0  0  0  0
    8.1201    2.1191   34.5602 O   0  0  0  0  0  0  0  0  0  0  0  0
    7.2904    5.0139   35.0160 N   0  0  0  0  0  0  0  0  0  0  0  0
    7.3861    6.2459   35.5750 C   0  0  0  0  0  0  0  0  0  0  0  0
    8.3708    6.3599   36.4248 N   0  0  0  0  0  0  0  0  0  0  0  0
  1  2  1  0  0  0  0
  2  3  1  0  0  0  0
  2  9  1  0  0  0  0
  3  4  2  0  0  0  0
  3  6  1  0  0  0  0
  6  5  1  0  0  0  0
  6  7  1  0  0  0  0
  7  8  2  0  0  0  0
  7 13  1  0  0  0  0
  8  9  1  0  0  0  0
  8 11  1  0  0  0  0
  9 10  2  0  0  0  0
 11 12  1  0  0  0  0
 12 13  2  0  0  0  0
M  END
>  <CHROM.1>
9.22375256,3.98407125,36.19212650,0.75770251,0.65053444,-2.76876224

>  <Name>
1o15_lig

>  <RI>
224

>  <Rbt.Current_Directory>
/home/itssahil/PROJECTS/Mol_Feturizer/New_Systems/rnas/1o15

>  <Rbt.Executable>
rbdock ($Id: //depot/dev/client3/rdock/2013.1/src/exe/rbdock.cxx#4 $)

>  <Rbt.Library>
libRbt.so (2013.1, Build901 2013/11/27)

>  <Rbt.Parameter_File>
/export/apps/rDock/src/rDock_2013.1_src/data/scripts/dock_solv.prm

>  <Rbt.Receptor>
prm/blind_docking_100.prm

>  <SCORE>
-21.1736

>  <SCORE.INTER>
-21.4369

>  <SCORE.INTER.CONST>
1

>  <SCORE.INTER.POLAR>
-1.84213

>  <SCORE.INTER.ROT>
0

>  <SCORE.INTER.SOLV>
6.88832

>  <SCORE.INTER.VDW>
-14.0469

>  <SCORE.INTER.norm>
-1.64899

>  <SCORE.INTRA>
0

>  <SCORE.INTRA.DIHEDRAL>
0

>  <SCORE.INTRA.DIHEDRAL.0>
0

>  <SCORE.INTRA.POLAR>
0

>  <SCORE.INTRA.POLAR.0>
0

>  <SCORE.INTRA.REPUL>
0

>  <SCORE.INTRA.REPUL.0>
0

>  <SCORE.INTRA.SOLV>
0

>  <SCORE.INTRA.SOLV.lig_0>
-12.9184

>  <SCORE.INTRA.VDW>
0

>  <SCORE.INTRA.VDW.0>
0

>  <SCORE.INTRA.norm>
0

>  <SCORE.RESTR>
0.263298

>  <SCORE.RESTR.CAVITY>
0.263298

>  <SCORE.RESTR.norm>
0.0202537

>  <SCORE.SYSTEM>
0

>  <SCORE.SYSTEM.CONST>
0

>  <SCORE.SYSTEM.DIHEDRAL>
0

>  <SCORE.SYSTEM.SOLV>
0

>  <SCORE.SYSTEM.norm>
0

>  <SCORE.heavy>
13

>  <SCORE.norm>
-1.62874

>  <RMSD>
1.503

$$$$
1o15_lig
 OpenBabel11021811403D
libRbt.so/2013.1/901 2013/11/27
 13 14  0  0  0  0  0  0  0  0999 V2000
   10.0760    1.0524   35.6426 C   0  0  0  0  0  0  0  0  0  0  0  0
    9.6925    2.3599   35.8445 N   0  0  0  0  0  0  0  0  0  0  0  0
   10.4192    3.1041   36.7190 C   0  0  0  0  0  0  0  0  0  0  0  0
   11.3615    2.5303   37.2591 O   0  0  0  0  0  0  0  0  0  0  0  0
   10.9191    5.1425   37.9205 C   0  0  0  0  0  0  0  0  0  0  0  0
   10.1663    4.4120   37.0260 N   0  0  0  0  0  0  0  0  0  0  0  0
    9.0953    4.9181   36.3566 C   0  0  0  0  0  0  0  0  0  0  0  0
    8.3750    4.1610   35.4789 C   0  0  0  0  0  0  0  0  0  0  0  0
    8.6259    2.8145   35.1560 C   0  0  0  0  0  0  0  0  0  0  0  0
    8.0200    2.0802   34.3797 O   0  0  0  0  0  0  0  0  0  0  0  0
    7.3747    4.9922   34.9955 N   0  0  0  0  0  0  0  0  0  0  0  0
    7.5576    6.1880   35.6089 C   0  0  0  0  0  0  0  0  0  0  0  0
    8.5694    6.2034   36.4340 N   0  0  0  0  0  0  0  0  0  0  0  0
  1  2  1  0  0  0  0
  2  3  1  0  0  0  0
  2  9  1  0  0  0  0
  3  4  2  0  0  0  0
  3  6  1  0  0  0  0
  6  5  1  0  0  0  0
  6  7  1  0  0  0  0
  7  8  2  0  0  0  0
  7 13  1  0  0  0  0
  8  9  1  0  0  0  0
  8 11  1  0  0  0  0
  9 10  2  0  0  0  0
 11 12  1  0  0  0  0
 12 13  2  0  0  0  0
M  END
>  <CHROM.1>
9.27441614,3.79663640,36.06472204,0.83858493,0.64579676,-2.76957481

>  <Name>
1o15_lig

>  <RI>
0

>  <Rbt.Current_Directory>
/home/itssahil/PROJECTS/Mol_Feturizer/New_Systems/rnas/1o15

>  <Rbt.Executable>
rbdock ($Id: //depot/dev/client3/rdock/2013.1/src/exe/rbdock.cxx#4 $)

>  <Rbt.Library>
libRbt.so (2013.1, Build901 2013/11/27)

>  <Rbt.Parameter_File>
/export/apps/rDock/src/rDock_2013.1_src/data/scripts/dock_solv.prm

>  <Rbt.Receptor>
prm/blind_docking_60.prm

>  <SCORE>
-21.7719

>  <SCORE.INTER>
-22.1737

>  <SCORE.INTER.CONST>
1

>  <SCORE.INTER.POLAR>
-1.92342

>  <SCORE.INTER.ROT>
0

>  <SCORE.INTER.SOLV>
6.86143

>  <SCORE.INTER.VDW>
-14.2582

>  <SCORE.INTER.norm>
-1.70567

>  <SCORE.INTRA>
0

>  <SCORE.INTRA.DIHEDRAL>
0

>  <SCORE.INTRA.DIHEDRAL.0>
0

>  <SCORE.INTRA.POLAR>
0

>  <SCORE.INTRA.POLAR.0>
0

>  <SCORE.INTRA.REPUL>
0

>  <SCORE.INTRA.REPUL.0>
0

>  <SCORE.INTRA.SOLV>
0

>  <SCORE.INTRA.SOLV.lig_0>
-12.9184

>  <SCORE.INTRA.VDW>
0

>  <SCORE.INTRA.VDW.0>
0

>  <SCORE.INTRA.norm>
0

>  <SCORE.RESTR>
0.401784

>  <SCORE.RESTR.CAVITY>
0.401784

>  <SCORE.RESTR.norm>
0.0309065

>  <SCORE.SYSTEM>
0

>  <SCORE.SYSTEM.CONST>
0

>  <SCORE.SYSTEM.DIHEDRAL>
0

>  <SCORE.SYSTEM.SOLV>
0

>  <SCORE.SYSTEM.norm>
0

>  <SCORE.heavy>
13

>  <SCORE.norm>
-1.67477

>  <RMSD>
1.503

$$$$
1o15_lig
 OpenBabel11021811403D
libRbt.so/2013.1/901 2013/11/27
 13 14  0  0  0  0  0  0  0  0999 V2000
   10.1175    1.2538   35.9269 C   0  0  0  0  0  0  0  0  0  0  0  0
    9.6714    2.5509   36.0525 N   0  0  0  0  0  0  0  0  0  0  0  0
   10.3395    3.3693   36.9072 C   0  0  0  0  0  0  0  0  0  0  0  0
   11.2903    2.8659   37.5001 O   0  0  0  0  0  0  0  0  0  0  0  0
   10.7150    5.4848   38.0172 C   0  0  0  0  0  0  0  0  0  0  0  0
   10.0208    4.6780   37.1412 N   0  0  0  0  0  0  0  0  0  0  0  0
    8.9482    5.1016   36.4192 C   0  0  0  0  0  0  0  0  0  0  0  0
    8.2871    4.2705   35.5621 C   0  0  0  0  0  0  0  0  0  0  0  0
    8.6059    2.9224   35.3141 C   0  0  0  0  0  0  0  0  0  0  0  0
    8.0553    2.1242   34.5601 O   0  0  0  0  0  0  0  0  0  0  0  0
    7.2655    5.0308   35.0113 N   0  0  0  0  0  0  0  0  0  0  0  0
    7.3782    6.2623   35.5684 C   0  0  0  0  0  0  0  0  0  0  0  0
    8.3645    6.3641   36.4179 N   0  0  0  0  0  0  0  0  0  0  0  0
  1  2  1  0  0  0  0
  2  3  1  0  0  0  0
  2  9  1  0  0  0  0
  3  4  2  0  0  0  0
  3  6  1  0  0  0  0
  6  5  1  0  0  0  0
  6  7  1  0  0  0  0
  7  8  2  0  0  0  0
  7 13  1  0  0  0  0
  8  9  1  0  0  0  0
  8 11  1  0  0  0  0
  9 10  2  0  0  0  0
 11 12  1  0  0  0  0
 12 13  2  0  0  0  0
M  END
>  <CHROM.1>
9.18458955,3.97637537,36.18900197,0.77392133,0.65542527,-2.78020798

>  <Name>
1o15_lig

>  <RI>
224

>  <Rbt.Current_Directory>
/home/itssahil/PROJECTS/Mol_Feturizer/New_Systems/rnas/1o15

>  <Rbt.Executable>
rbdock ($Id: //depot/dev/client3/rdock/2013.1/src/exe/rbdock.cxx#4 $)

>  <Rbt.Library>
libRbt.so (2013.1, Build901 2013/11/27)

>  <Rbt.Parameter_File>
/export/apps/rDock/src/rDock_2013.1_src/data/scripts/dock_solv.prm

>  <Rbt.Receptor>
prm/blind_docking_100.prm

>  <SCORE>
-21.1296

>  <SCORE.INTER>
-21.39

>  <SCORE.INTER.CONST>
1

>  <SCORE.INTER.POLAR>
-1.82348

>  <SCORE.INTER.ROT>
0

>  <SCORE.INTER.SOLV>
6.9019

>  <SCORE.INTER.VDW>
-14.0824

>  <SCORE.INTER.norm>
-1.64539

>  <SCORE.INTRA>
0

>  <SCORE.INTRA.DIHEDRAL>
0

>  <SCORE.INTRA.DIHEDRAL.0>
0

>  <SCORE.INTRA.POLAR>
0

>  <SCORE.INTRA.POLAR.0>
0

>  <SCORE.INTRA.REPUL>
0

>  <SCORE.INTRA.REPUL.0>
0

>  <SCORE.INTRA.SOLV>
0

>  <SCORE.INTRA.SOLV.lig_0>
-12.9184

>  <SCORE.INTRA.VDW>
0

>  <SCORE.INTRA.VDW.0>
0

>  <SCORE.INTRA.norm>
0

>  <SCORE.RESTR>
0.260462

>  <SCORE.RESTR.CAVITY>
0.260462

>  <SCORE.RESTR.norm>
0.0200355

>  <SCORE.SYSTEM>
0

>  <SCORE.SYSTEM.CONST>
0

>  <SCORE.SYSTEM.DIHEDRAL>
0

>  <SCORE.SYSTEM.SOLV>
0

>  <SCORE.SYSTEM.norm>
0

>  <SCORE.heavy>
13

>  <SCORE.norm>
-1.62535

>  <RMSD>
1.504

$$$$
1o15_lig
 OpenBabel11021811403D
libRbt.so/2013.1/901 2013/11/27
 13 14  0  0  0  0  0  0  0  0999 V2000
   10.1928    1.2759   35.9239 C   0  0  0  0  0  0  0  0  0  0  0  0
    9.7290    2.5666   36.0521 N   0  0  0  0  0  0  0  0  0  0  0  0
   10.3858    3.3923   36.9086 C   0  0  0  0  0  0  0  0  0  0  0  0
   11.3432    2.9007   37.5007 O   0  0  0  0  0  0  0  0  0  0  0  0
   10.7322    5.5104   38.0231 C   0  0  0  0  0  0  0  0  0  0  0  0
   10.0492    4.6959   37.1453 N   0  0  0  0  0  0  0  0  0  0  0  0
    8.9710    5.1064   36.4241 C   0  0  0  0  0  0  0  0  0  0  0  0
    8.3214    4.2681   35.5651 C   0  0  0  0  0  0  0  0  0  0  0  0
    8.6587    2.9250   35.3144 C   0  0  0  0  0  0  0  0  0  0  0  0
    8.1191    2.1209   34.5586 O   0  0  0  0  0  0  0  0  0  0  0  0
    7.2896    5.0155   35.0157 N   0  0  0  0  0  0  0  0  0  0  0  0
    7.3853    6.2473   35.5754 C   0  0  0  0  0  0  0  0  0  0  0  0
    8.3700    6.3607   36.4253 N   0  0  0  0  0  0  0  0  0  0  0  0
  1  2  1  0  0  0  0
  2  3  1  0  0  0  0
  2  9  1  0  0  0  0
  3  4  2  0  0  0  0
  3  6  1  0  0  0  0
  6  5  1  0  0  0  0
  6  7  1  0  0  0  0
  7  8  2  0  0  0  0
  7 13  1  0  0  0  0
  8  9  1  0  0  0  0
  8 11  1  0  0  0  0
  9 10  2  0  0  0  0
 11 12  1  0  0  0  0
 12 13  2  0  0  0  0
M  END
>  <CHROM.1>
9.22274061,3.98495625,36.19153125,0.75777721,0.65064855,-2.76832146

>  <Name>
1o15_lig

>  <RI>
224

>  <Rbt.Current_Directory>
/home/itssahil/PROJECTS/Mol_Feturizer/New_Systems/rnas/1o15

>  <Rbt.Executable>
rbdock ($Id: //depot/dev/client3/rdock/2013.1/src/exe/rbdock.cxx#4 $)

>  <Rbt.Library>
libRbt.so (2013.1, Build901 2013/11/27)

>  <Rbt.Parameter_File>
/export/apps/rDock/src/rDock_2013.1_src/data/scripts/dock_solv.prm

>  <Rbt.Receptor>
prm/blind_docking_100.prm

>  <SCORE>
-21.1674

>  <SCORE.INTER>
-21.4282

>  <SCORE.INTER.CONST>
1

>  <SCORE.INTER.POLAR>
-1.84173

>  <SCORE.INTER.ROT>
0

>  <SCORE.INTER.SOLV>
6.89228

>  <SCORE.INTER.VDW>
-14.0438

>  <SCORE.INTER.norm>
-1.64832

>  <SCORE.INTRA>
0

>  <SCORE.INTRA.DIHEDRAL>
0

>  <SCORE.INTRA.DIHEDRAL.0>
0

>  <SCORE.INTRA.POLAR>
0

>  <SCORE.INTRA.POLAR.0>
0

>  <SCORE.INTRA.REPUL>
0

>  <SCORE.INTRA.REPUL.0>
0

>  <SCORE.INTRA.SOLV>
0

>  <SCORE.INTRA.SOLV.lig_0>
-12.9184

>  <SCORE.INTRA.VDW>
0

>  <SCORE.INTRA.VDW.0>
0

>  <SCORE.INTRA.norm>
0

>  <SCORE.RESTR>
0.260841

>  <SCORE.RESTR.CAVITY>
0.260841

>  <SCORE.RESTR.norm>
0.0200647

>  <SCORE.SYSTEM>
0

>  <SCORE.SYSTEM.CONST>
0

>  <SCORE.SYSTEM.DIHEDRAL>
0

>  <SCORE.SYSTEM.SOLV>
0

>  <SCORE.SYSTEM.norm>
0

>  <SCORE.heavy>
13

>  <SCORE.norm>
-1.62826

>  <RMSD>
1.504

$$$$
1o15_lig
 OpenBabel11021811403D
libRbt.so/2013.1/901 2013/11/27
 13 14  0  0  0  0  0  0  0  0999 V2000
   10.1773    1.2793   35.9256 C   0  0  0  0  0  0  0  0  0  0  0  0
    9.7156    2.5708   36.0531 N   0  0  0  0  0  0  0  0  0  0  0  0
   10.3730    3.3956   36.9100 C   0  0  0  0  0  0  0  0  0  0  0  0
   11.3291    2.9026   37.5029 O   0  0  0  0  0  0  0  0  0  0  0  0
   10.7220    5.5134   38.0243 C   0  0  0  0  0  0  0  0  0  0  0  0
   10.0383    4.6999   37.1461 N   0  0  0  0  0  0  0  0  0  0  0  0
    8.9614    5.1119   36.4238 C   0  0  0  0  0  0  0  0  0  0  0  0
    8.3112    4.2745   35.5645 C   0  0  0  0  0  0  0  0  0  0  0  0
    8.6464    2.9308   35.3144 C   0  0  0  0  0  0  0  0  0  0  0  0
    8.1061    2.1274   34.5584 O   0  0  0  0  0  0  0  0  0  0  0  0
    7.2811    5.0235   35.0141 N   0  0  0  0  0  0  0  0  0  0  0  0
    7.3784    6.2553   35.5735 C   0  0  0  0  0  0  0  0  0  0  0  0
    8.3626    6.3673   36.4242 N   0  0  0  0  0  0  0  0  0  0  0  0
  1  2  1  0  0  0  0
  2  3  1  0  0  0  0
  2  9  1  0  0  0  0
  3  4  2  0  0  0  0
  3  6  1  0  0  0  0
  6  5  1  0  0  0  0
  6  7  1  0  0  0  0
  7  8  2  0  0  0  0
  7 13  1  0  0  0  0
  8  9  1  0  0  0  0
  8 11  1  0  0  0  0
  9 10  2  0  0  0  0
 11 12  1  0  0  0  0
 12 13  2  0  0  0  0
M  END
>  <CHROM.1>
9.21153791,3.99003452,36.19177191,0.75934718,0.65203731,-2.76951111

>  <Name>
1o15_lig

>  <RI>
224

>  <Rbt.Current_Directory>
/home/itssahil/PROJECTS/Mol_Feturizer/New_Systems/rnas/1o15

>  <Rbt.Executable>
rbdock ($Id: //depot/dev/client3/rdock/2013.1/src/exe/rbdock.cxx#4 $)

>  <Rbt.Library>
libRbt.so (2013.1, Build901 2013/11/27)

>  <Rbt.Parameter_File>
/export/apps/rDock/src/rDock_2013.1_src/data/scripts/dock_solv.prm

>  <Rbt.Receptor>
prm/blind_docking_100.prm

>  <SCORE>
-21.1085

>  <SCORE.INTER>
-21.3559

>  <SCORE.INTER.CONST>
1

>  <SCORE.INTER.POLAR>
-1.83504

>  <SCORE.INTER.ROT>
0

>  <SCORE.INTER.SOLV>
6.90685

>  <SCORE.INTER.VDW>
-14.0227

>  <SCORE.INTER.norm>
-1.64276

>  <SCORE.INTRA>
0

>  <SCORE.INTRA.DIHEDRAL>
0

>  <SCORE.INTRA.DIHEDRAL.0>
0

>  <SCORE.INTRA.POLAR>
0

>  <SCORE.INTRA.POLAR.0>
0

>  <SCORE.INTRA.REPUL>
0

>  <SCORE.INTRA.REPUL.0>
0

>  <SCORE.INTRA.SOLV>
0

>  <SCORE.INTRA.SOLV.lig_0>
-12.9184

>  <SCORE.INTRA.VDW>
0

>  <SCORE.INTRA.VDW.0>
0

>  <SCORE.INTRA.norm>
0

>  <SCORE.RESTR>
0.247376

>  <SCORE.RESTR.CAVITY>
0.247376

>  <SCORE.RESTR.norm>
0.0190289

>  <SCORE.SYSTEM>
0

>  <SCORE.SYSTEM.CONST>
0

>  <SCORE.SYSTEM.DIHEDRAL>
0

>  <SCORE.SYSTEM.SOLV>
0

>  <SCORE.SYSTEM.norm>
0

>  <SCORE.heavy>
13

>  <SCORE.norm>
-1.62373

>  <RMSD>
1.508

$$$$
1o15_lig
 OpenBabel11021811403D
libRbt.so/2013.1/901 2013/11/27
 13 14  0  0  0  0  0  0  0  0999 V2000
   10.1771    1.2825   35.9151 C   0  0  0  0  0  0  0  0  0  0  0  0
    9.7156    2.5736   36.0470 N   0  0  0  0  0  0  0  0  0  0  0  0
   10.3721    3.3949   36.9079 C   0  0  0  0  0  0  0  0  0  0  0  0
   11.3273    2.8993   37.5002 O   0  0  0  0  0  0  0  0  0  0  0  0
   10.7202    5.5083   38.0309 C   0  0  0  0  0  0  0  0  0  0  0  0
   10.0375    4.6984   37.1486 N   0  0  0  0  0  0  0  0  0  0  0  0
    8.9617    5.1135   36.4265 C   0  0  0  0  0  0  0  0  0  0  0  0
    8.3123    4.2796   35.5632 C   0  0  0  0  0  0  0  0  0  0  0  0
    8.6475    2.9368   35.3082 C   0  0  0  0  0  0  0  0  0  0  0  0
    8.1080    2.1365   34.5484 O   0  0  0  0  0  0  0  0  0  0  0  0
    7.2832    5.0310   35.0143 N   0  0  0  0  0  0  0  0  0  0  0  0
    7.3801    6.2606   35.5786 C   0  0  0  0  0  0  0  0  0  0  0  0
    8.3631    6.3690   36.4310 N   0  0  0  0  0  0  0  0  0  0  0  0
  1  2  1  0  0  0  0
  2  3  1  0  0  0  0
  2  9  1  0  0  0  0
  3  4  2  0  0  0  0
  3  6  1  0  0  0  0
  6  5  1  0  0  0  0
  6  7  1  0  0  0  0
  7  8  2  0  0  0  0
  7 13  1  0  0  0  0
  8  9  1  0  0  0  0
  8 11  1  0  0  0  0
  9 10  2  0  0  0  0
 11 12  1  0  0  0  0
 12 13  2  0  0  0  0
M  END
>  <CHROM.1>
9.21174077,3.99245438,36.19047573,0.75906309,0.65337394,-2.76545945

>  <Name>
1o15_lig

>  <RI>
224

>  <Rbt.Current_Directory>
/home/itssahil/PROJECTS/Mol_Feturizer/New_Systems/rnas/1o15

>  <Rbt.Executable>
rbdock ($Id: //depot/dev/client3/rdock/2013.1/src/exe/rbdock.cxx#4 $)

>  <Rbt.Library>
libRbt.so (2013.1, Build901 2013/11/27)

>  <Rbt.Parameter_File>
/export/apps/rDock/src/rDock_2013.1_src/data/scripts/dock_solv.prm

>  <Rbt.Receptor>
prm/blind_docking_100.prm

>  <SCORE>
-21.0738

>  <SCORE.INTER>
-21.3187

>  <SCORE.INTER.CONST>
1

>  <SCORE.INTER.POLAR>
-1.83802

>  <SCORE.INTER.ROT>
0

>  <SCORE.INTER.SOLV>
6.91536

>  <SCORE.INTER.VDW>
-13.9909

>  <SCORE.INTER.norm>
-1.6399

>  <SCORE.INTRA>
0

>  <SCORE.INTRA.DIHEDRAL>
0

>  <SCORE.INTRA.DIHEDRAL.0>
0

>  <SCORE.INTRA.POLAR>
0

>  <SCORE.INTRA.POLAR.0>
0

>  <SCORE.INTRA.REPUL>
0

>  <SCORE.INTRA.REPUL.0>
0

>  <SCORE.INTRA.SOLV>
0

>  <SCORE.INTRA.SOLV.lig_0>
-12.9184

>  <SCORE.INTRA.VDW>
0

>  <SCORE.INTRA.VDW.0>
0

>  <SCORE.INTRA.norm>
0

>  <SCORE.RESTR>
0.244944

>  <SCORE.RESTR.CAVITY>
0.244944

>  <SCORE.RESTR.norm>
0.0188419

>  <SCORE.SYSTEM>
0

>  <SCORE.SYSTEM.CONST>
0

>  <SCORE.SYSTEM.DIHEDRAL>
0

>  <SCORE.SYSTEM.SOLV>
0

>  <SCORE.SYSTEM.norm>
0

>  <SCORE.heavy>
13

>  <SCORE.norm>
-1.62106

>  <RMSD>
1.512

$$$$
1o15_lig
 OpenBabel11021811403D
libRbt.so/2013.1/901 2013/11/27
 13 14  0  0  0  0  0  0  0  0999 V2000
   10.1879    1.2918   35.8979 C   0  0  0  0  0  0  0  0  0  0  0  0
    9.7240    2.5812   36.0379 N   0  0  0  0  0  0  0  0  0  0  0  0
   10.3759    3.3967   36.9079 C   0  0  0  0  0  0  0  0  0  0  0  0
   11.3293    2.8978   37.5003 O   0  0  0  0  0  0  0  0  0  0  0  0
   10.7164    5.5017   38.0487 C   0  0  0  0  0  0  0  0  0  0  0  0
   10.0385    4.6978   37.1573 N   0  0  0  0  0  0  0  0  0  0  0  0
    8.9651    5.1171   36.4340 C   0  0  0  0  0  0  0  0  0  0  0  0
    8.3205    4.2891   35.5615 C   0  0  0  0  0  0  0  0  0  0  0  0
    8.6586    2.9487   35.2976 C   0  0  0  0  0  0  0  0  0  0  0  0
    8.1233    2.1536   34.5294 O   0  0  0  0  0  0  0  0  0  0  0  0
    7.2926    5.0434   35.0142 N   0  0  0  0  0  0  0  0  0  0  0  0
    7.3855    6.2686   35.5884 C   0  0  0  0  0  0  0  0  0  0  0  0
    8.3649    6.3717   36.4458 N   0  0  0  0  0  0  0  0  0  0  0  0
  1  2  1  0  0  0  0
  2  3  1  0  0  0  0
  2  9  1  0  0  0  0
  3  4  2  0  0  0  0
  3  6  1  0  0  0  0
  6  5  1  0  0  0  0
  6  7  1  0  0  0  0
  7  8  2  0  0  0  0
  7 13  1  0  0  0  0
  8  9  1  0  0  0  0
  8 11  1  0  0  0  0
  9 10  2  0  0  0  0
 11 12  1  0  0  0  0
 12 13  2  0  0  0  0
M  END
>  <CHROM.1>
9.21771667,3.99825628,36.19032176,0.75555531,0.65672247,-2.75556395

>  <Name>
1o15_lig

>  <RI>
224

>  <Rbt.Current_Directory>
/home/itssahil/PROJECTS/Mol_Feturizer/New_Systems/rnas/1o15

>  <Rbt.Executable>
rbdock ($Id: //depot/dev/client3/rdock/2013.1/src/exe/rbdock.cxx#4 $)

>  <Rbt.Library>
libRbt.so (2013.1, Build901 2013/11/27)

>  <Rbt.Parameter_File>
/export/apps/rDock/src/rDock_2013.1_src/data/scripts/dock_solv.prm

>  <Rbt.Receptor>
prm/blind_docking_100.prm

>  <SCORE>
-21.0646

>  <SCORE.INTER>
-21.3108

>  <SCORE.INTER.CONST>
1

>  <SCORE.INTER.POLAR>
-1.8511

>  <SCORE.INTER.ROT>
0

>  <SCORE.INTER.SOLV>
6.92208

>  <SCORE.INTER.VDW>
-13.9442

>  <SCORE.INTER.norm>
-1.63929

>  <SCORE.INTRA>
0

>  <SCORE.INTRA.DIHEDRAL>
0

>  <SCORE.INTRA.DIHEDRAL.0>
0

>  <SCORE.INTRA.POLAR>
0

>  <SCORE.INTRA.POLAR.0>
0

>  <SCORE.INTRA.REPUL>
0

>  <SCORE.INTRA.REPUL.0>
0

>  <SCORE.INTRA.SOLV>
0

>  <SCORE.INTRA.SOLV.lig_0>
-12.9184

>  <SCORE.INTRA.VDW>
0

>  <SCORE.INTRA.VDW.0>
0

>  <SCORE.INTRA.norm>
0

>  <SCORE.RESTR>
0.246141

>  <SCORE.RESTR.CAVITY>
0.246141

>  <SCORE.RESTR.norm>
0.0189339

>  <SCORE.SYSTEM>
0

>  <SCORE.SYSTEM.CONST>
0

>  <SCORE.SYSTEM.DIHEDRAL>
0

>  <SCORE.SYSTEM.SOLV>
0

>  <SCORE.SYSTEM.norm>
0

>  <SCORE.heavy>
13

>  <SCORE.norm>
-1.62036

>  <RMSD>
1.518

$$$$
1o15_lig
 OpenBabel11021811403D
libRbt.so/2013.1/901 2013/11/27
 13 14  0  0  0  0  0  0  0  0999 V2000
   10.1696    1.2904   35.9067 C   0  0  0  0  0  0  0  0  0  0  0  0
    9.7098    2.5818   36.0418 N   0  0  0  0  0  0  0  0  0  0  0  0
   10.3657    3.3992   36.9070 C   0  0  0  0  0  0  0  0  0  0  0  0
   11.3187    2.9001   37.4998 O   0  0  0  0  0  0  0  0  0  0  0  0
   10.7145    5.5082   38.0377 C   0  0  0  0  0  0  0  0  0  0  0  0
   10.0326    4.7023   37.1512 N   0  0  0  0  0  0  0  0  0  0  0  0
    8.9591    5.1216   36.4280 C   0  0  0  0  0  0  0  0  0  0  0  0
    8.3104    4.2916   35.5604 C   0  0  0  0  0  0  0  0  0  0  0  0
    8.6441    2.9491   35.3018 C   0  0  0  0  0  0  0  0  0  0  0  0
    8.1050    2.1522   34.5381 O   0  0  0  0  0  0  0  0  0  0  0  0
    7.2838    5.0465   35.0116 N   0  0  0  0  0  0  0  0  0  0  0  0
    7.3814    6.2740   35.5802 C   0  0  0  0  0  0  0  0  0  0  0  0
    8.3626    6.3781   36.4352 N   0  0  0  0  0  0  0  0  0  0  0  0
  1  2  1  0  0  0  0
  2  3  1  0  0  0  0
  2  9  1  0  0  0  0
  3  4  2  0  0  0  0
  3  6  1  0  0  0  0
  6  5  1  0  0  0  0
  6  7  1  0  0  0  0
  7  8  2  0  0  0  0
  7 13  1  0  0  0  0
  8  9  1  0  0  0  0
  8 11  1  0  0  0  0
  9 10  2  0  0  0  0
 11 12  1  0  0  0  0
 12 13  2  0  0  0  0
M  END
>  <CHROM.1>
9.20795561,4.00094873,36.18882274,0.75988419,0.65611833,-2.76266501

>  <Name>
1o15_lig

>  <RI>
224

>  <Rbt.Current_Directory>
/home/itssahil/PROJECTS/Mol_Feturizer/New_Systems/rnas/1o15

>  <Rbt.Executable>
rbdock ($Id: //depot/dev/client3/rdock/2013.1/src/exe/rbdock.cxx#4 $)

>  <Rbt.Library>
libRbt.so (2013.1, Build901 2013/11/27)

>  <Rbt.Parameter_File>
/export/apps/rDock/src/rDock_2013.1_src/data/scripts/dock_solv.prm

>  <Rbt.Receptor>
prm/blind_docking_100.prm

>  <SCORE>
-21.0196

>  <SCORE.INTER>
-21.2517

>  <SCORE.INTER.CONST>
1

>  <SCORE.INTER.POLAR>
-1.84119

>  <SCORE.INTER.ROT>
0

>  <SCORE.INTER.SOLV>
6.92944

>  <SCORE.INTER.VDW>
-13.9403

>  <SCORE.INTER.norm>
-1.63474

>  <SCORE.INTRA>
0

>  <SCORE.INTRA.DIHEDRAL>
0

>  <SCORE.INTRA.DIHEDRAL.0>
0

>  <SCORE.INTRA.POLAR>
0

>  <SCORE.INTRA.POLAR.0>
0

>  <SCORE.INTRA.REPUL>
0

>  <SCORE.INTRA.REPUL.0>
0

>  <SCORE.INTRA.SOLV>
0

>  <SCORE.INTRA.SOLV.lig_0>
-12.9184

>  <SCORE.INTRA.VDW>
0

>  <SCORE.INTRA.VDW.0>
0

>  <SCORE.INTRA.norm>
0

>  <SCORE.RESTR>
0.232089

>  <SCORE.RESTR.CAVITY>
0.232089

>  <SCORE.RESTR.norm>
0.017853

>  <SCORE.SYSTEM>
0

>  <SCORE.SYSTEM.CONST>
0

>  <SCORE.SYSTEM.DIHEDRAL>
0

>  <SCORE.SYSTEM.SOLV>
0

>  <SCORE.SYSTEM.norm>
0

>  <SCORE.heavy>
13

>  <SCORE.norm>
-1.61689

>  <RMSD>
1.520

$$$$
1o15_lig
 OpenBabel11021811403D
libRbt.so/2013.1/901 2013/11/27
 13 14  0  0  0  0  0  0  0  0999 V2000
   10.0683    1.0609   35.6043 C   0  0  0  0  0  0  0  0  0  0  0  0
    9.6870    2.3670   35.8189 N   0  0  0  0  0  0  0  0  0  0  0  0
   10.4137    3.1009   36.7021 C   0  0  0  0  0  0  0  0  0  0  0  0
   11.3540    2.5197   37.2378 O   0  0  0  0  0  0  0  0  0  0  0  0
   10.9155    5.1259   37.9252 C   0  0  0  0  0  0  0  0  0  0  0  0
   10.1628    4.4060   37.0221 N   0  0  0  0  0  0  0  0  0  0  0  0
    9.0939    4.9210   36.3562 C   0  0  0  0  0  0  0  0  0  0  0  0
    8.3735    4.1743   35.4697 C   0  0  0  0  0  0  0  0  0  0  0  0
    8.6224    2.8307   35.1333 C   0  0  0  0  0  0  0  0  0  0  0  0
    8.0164    2.1055   34.3486 O   0  0  0  0  0  0  0  0  0  0  0  0
    7.3756    5.0123   34.9932 N   0  0  0  0  0  0  0  0  0  0  0  0
    7.5598    6.2014   35.6191 C   0  0  0  0  0  0  0  0  0  0  0  0
    8.5703    6.2065   36.4459 N   0  0  0  0  0  0  0  0  0  0  0  0
  1  2  1  0  0  0  0
  2  3  1  0  0  0  0
  2  9  1  0  0  0  0
  3  4  2  0  0  0  0
  3  6  1  0  0  0  0
  6  5  1  0  0  0  0
  6  7  1  0  0  0  0
  7  8  2  0  0  0  0
  7 13  1  0  0  0  0
  8  9  1  0  0  0  0
  8 11  1  0  0  0  0
  9 10  2  0  0  0  0
 11 12  1  0  0  0  0
 12 13  2  0  0  0  0
M  END
>  <CHROM.1>
9.27131222,3.80223601,36.05315053,0.84007453,0.64799506,-2.76024194

>  <Name>
1o15_lig

>  <RI>
0

>  <Rbt.Current_Directory>
/home/itssahil/PROJECTS/Mol_Feturizer/New_Systems/rnas/1o15

>  <Rbt.Executable>
rbdock ($Id: //depot/dev/client3/rdock/2013.1/src/exe/rbdock.cxx#4 $)

>  <Rbt.Library>
libRbt.so (2013.1, Build901 2013/11/27)

>  <Rbt.Parameter_File>
/export/apps/rDock/src/rDock_2013.1_src/data/scripts/dock_solv.prm

>  <Rbt.Receptor>
prm/blind_docking_60.prm

>  <SCORE>
-21.7516

>  <SCORE.INTER>
-22.1393

>  <SCORE.INTER.CONST>
1

>  <SCORE.INTER.POLAR>
-1.9257

>  <SCORE.INTER.ROT>
0

>  <SCORE.INTER.SOLV>
6.90405

>  <SCORE.INTER.VDW>
-14.2419

>  <SCORE.INTER.norm>
-1.70303

>  <SCORE.INTRA>
0

>  <SCORE.INTRA.DIHEDRAL>
0

>  <SCORE.INTRA.DIHEDRAL.0>
0

>  <SCORE.INTRA.POLAR>
0

>  <SCORE.INTRA.POLAR.0>
0

>  <SCORE.INTRA.REPUL>
0

>  <SCORE.INTRA.REPUL.0>
0

>  <SCORE.INTRA.SOLV>
0

>  <SCORE.INTRA.SOLV.lig_0>
-12.9184

>  <SCORE.INTRA.VDW>
0

>  <SCORE.INTRA.VDW.0>
0

>  <SCORE.INTRA.norm>
0

>  <SCORE.RESTR>
0.387706

>  <SCORE.RESTR.CAVITY>
0.387706

>  <SCORE.RESTR.norm>
0.0298236

>  <SCORE.SYSTEM>
0

>  <SCORE.SYSTEM.CONST>
0

>  <SCORE.SYSTEM.DIHEDRAL>
0

>  <SCORE.SYSTEM.SOLV>
0

>  <SCORE.SYSTEM.norm>
0

>  <SCORE.heavy>
13

>  <SCORE.norm>
-1.6732

>  <RMSD>
1.521

$$$$
1o15_lig
 OpenBabel11021811403D
libRbt.so/2013.1/901 2013/11/27
 13 14  0  0  0  0  0  0  0  0999 V2000
    9.9968    1.0598   35.5529 C   0  0  0  0  0  0  0  0  0  0  0  0
    9.6278    2.3684   35.7738 N   0  0  0  0  0  0  0  0  0  0  0  0
   10.3732    3.0969   36.6459 C   0  0  0  0  0  0  0  0  0  0  0  0
   11.3177    2.5091   37.1667 O   0  0  0  0  0  0  0  0  0  0  0  0
   10.9079    5.1180   37.8616 C   0  0  0  0  0  0  0  0  0  0  0  0
   10.1362    4.4037   36.9701 N   0  0  0  0  0  0  0  0  0  0  0  0
    9.0607    4.9262   36.3211 C   0  0  0  0  0  0  0  0  0  0  0  0
    8.3215    4.1849   35.4456 C   0  0  0  0  0  0  0  0  0  0  0  0
    8.5559    2.8396   35.1051 C   0  0  0  0  0  0  0  0  0  0  0  0
    7.9328    2.1190   34.3296 O   0  0  0  0  0  0  0  0  0  0  0  0
    7.3221    5.0299   34.9849 N   0  0  0  0  0  0  0  0  0  0  0  0
    7.5241    6.2174   35.6083 C   0  0  0  0  0  0  0  0  0  0  0  0
    8.5474    6.2152   36.4193 N   0  0  0  0  0  0  0  0  0  0  0  0
  1  2  1  0  0  0  0
  2  3  1  0  0  0  0
  2  9  1  0  0  0  0
  3  4  2  0  0  0  0
  3  6  1  0  0  0  0
  6  5  1  0  0  0  0
  6  7  1  0  0  0  0
  7  8  2  0  0  0  0
  7 13  1  0  0  0  0
  8  9  1  0  0  0  0
  8 11  1  0  0  0  0
  9 10  2  0  0  0  0
 11 12  1  0  0  0  0
 12 13  2  0  0  0  0
M  END
>  <CHROM.1>
9.22569275,3.80637905,36.01495857,0.85519314,0.63606930,-2.76894612

>  <Name>
1o15_lig

>  <RI>
0

>  <Rbt.Current_Directory>
/home/itssahil/PROJECTS/Mol_Feturizer/New_Systems/rnas/1o15

>  <Rbt.Executable>
rbdock ($Id: //depot/dev/client3/rdock/2013.1/src/exe/rbdock.cxx#4 $)

>  <Rbt.Library>
libRbt.so (2013.1, Build901 2013/11/27)

>  <Rbt.Parameter_File>
/export/apps/rDock/src/rDock_2013.1_src/data/scripts/dock_solv.prm

>  <Rbt.Receptor>
prm/blind_docking_60.prm

>  <SCORE>
-21.4518

>  <SCORE.INTER>
-21.7722

>  <SCORE.INTER.CONST>
1

>  <SCORE.INTER.POLAR>
-1.8581

>  <SCORE.INTER.ROT>
0

>  <SCORE.INTER.SOLV>
7.0864

>  <SCORE.INTER.VDW>
-14.2833

>  <SCORE.INTER.norm>
-1.67479

>  <SCORE.INTRA>
0

>  <SCORE.INTRA.DIHEDRAL>
0

>  <SCORE.INTRA.DIHEDRAL.0>
0

>  <SCORE.INTRA.POLAR>
0

>  <SCORE.INTRA.POLAR.0>
0

>  <SCORE.INTRA.REPUL>
0

>  <SCORE.INTRA.REPUL.0>
0

>  <SCORE.INTRA.SOLV>
0

>  <SCORE.INTRA.SOLV.lig_0>
-12.9184

>  <SCORE.INTRA.VDW>
0

>  <SCORE.INTRA.VDW.0>
0

>  <SCORE.INTRA.norm>
0

>  <SCORE.RESTR>
0.320458

>  <SCORE.RESTR.CAVITY>
0.320458

>  <SCORE.RESTR.norm>
0.0246506

>  <SCORE.SYSTEM>
0

>  <SCORE.SYSTEM.CONST>
0

>  <SCORE.SYSTEM.DIHEDRAL>
0

>  <SCORE.SYSTEM.SOLV>
0

>  <SCORE.SYSTEM.norm>
0

>  <SCORE.heavy>
13

>  <SCORE.norm>
-1.65014

>  <RMSD>
1.564

$$$$
1o15_lig
 OpenBabel11021811403D
libRbt.so/2013.1/901 2013/11/27
 13 14  0  0  0  0  0  0  0  0999 V2000
    9.9813    1.0672   35.5355 C   0  0  0  0  0  0  0  0  0  0  0  0
    9.6138    2.3757   35.7593 N   0  0  0  0  0  0  0  0  0  0  0  0
   10.3598    3.1014   36.6331 C   0  0  0  0  0  0  0  0  0  0  0  0
   11.3036    2.5114   37.1527 O   0  0  0  0  0  0  0  0  0  0  0  0
   10.8965    5.1191   37.8534 C   0  0  0  0  0  0  0  0  0  0  0  0
   10.1242    4.4077   36.9602 N   0  0  0  0  0  0  0  0  0  0  0  0
    9.0493    4.9328   36.3122 C   0  0  0  0  0  0  0  0  0  0  0  0
    8.3094    4.1942   35.4350 C   0  0  0  0  0  0  0  0  0  0  0  0
    8.5424    2.8495   35.0914 C   0  0  0  0  0  0  0  0  0  0  0  0
    7.9186    2.1313   34.3143 O   0  0  0  0  0  0  0  0  0  0  0  0
    7.3110    5.0414   34.9761 N   0  0  0  0  0  0  0  0  0  0  0  0
    7.5143    6.2273   35.6021 C   0  0  0  0  0  0  0  0  0  0  0  0
    8.5374    6.2222   36.4132 N   0  0  0  0  0  0  0  0  0  0  0  0
  1  2  1  0  0  0  0
  2  3  1  0  0  0  0
  2  9  1  0  0  0  0
  3  4  2  0  0  0  0
  3  6  1  0  0  0  0
  6  5  1  0  0  0  0
  6  7  1  0  0  0  0
  7  8  2  0  0  0  0
  7 13  1  0  0  0  0
  8  9  1  0  0  0  0
  8 11  1  0  0  0  0
  9 10  2  0  0  0  0
 11 12  1  0  0  0  0
 12 13  2  0  0  0  0
M  END
>  <CHROM.1>
9.21314754,3.81350648,36.00359410,0.85639106,0.63658940,-2.76741462

>  <Name>
1o15_lig

>  <RI>
0

>  <Rbt.Current_Directory>
/home/itssahil/PROJECTS/Mol_Feturizer/New_Systems/rnas/1o15

>  <Rbt.Executable>
rbdock ($Id: //depot/dev/client3/rdock/2013.1/src/exe/rbdock.cxx#4 $)

>  <Rbt.Library>
libRbt.so (2013.1, Build901 2013/11/27)

>  <Rbt.Parameter_File>
/export/apps/rDock/src/rDock_2013.1_src/data/scripts/dock_solv.prm

>  <Rbt.Receptor>
prm/blind_docking_60.prm

>  <SCORE>
-21.4343

>  <SCORE.INTER>
-21.7341

>  <SCORE.INTER.CONST>
1

>  <SCORE.INTER.POLAR>
-1.86689

>  <SCORE.INTER.ROT>
0

>  <SCORE.INTER.SOLV>
7.13535

>  <SCORE.INTER.VDW>
-14.2449

>  <SCORE.INTER.norm>
-1.67185

>  <SCORE.INTRA>
0

>  <SCORE.INTRA.DIHEDRAL>
0

>  <SCORE.INTRA.DIHEDRAL.0>
0

>  <SCORE.INTRA.POLAR>
0

>  <SCORE.INTRA.POLAR.0>
0

>  <SCORE.INTRA.REPUL>
0

>  <SCORE.INTRA.REPUL.0>
0

>  <SCORE.INTRA.SOLV>
0

>  <SCORE.INTRA.SOLV.lig_0>
-12.9184

>  <SCORE.INTRA.VDW>
0

>  <SCORE.INTRA.VDW.0>
0

>  <SCORE.INTRA.norm>
0

>  <SCORE.RESTR>
0.299748

>  <SCORE.RESTR.CAVITY>
0.299748

>  <SCORE.RESTR.norm>
0.0230576

>  <SCORE.SYSTEM>
0

>  <SCORE.SYSTEM.CONST>
0

>  <SCORE.SYSTEM.DIHEDRAL>
0

>  <SCORE.SYSTEM.SOLV>
0

>  <SCORE.SYSTEM.norm>
0

>  <SCORE.heavy>
13

>  <SCORE.norm>
-1.64879

>  <RMSD>
1.580

$$$$
1o15_lig
 OpenBabel11021811403D
libRbt.so/2013.1/901 2013/11/27
 13 14  0  0  0  0  0  0  0  0999 V2000
    9.9912    1.0643   35.5589 C   0  0  0  0  0  0  0  0  0  0  0  0
    9.6176    2.3736   35.7677 N   0  0  0  0  0  0  0  0  0  0  0  0
   10.3709    3.1179   36.6193 C   0  0  0  0  0  0  0  0  0  0  0  0
   11.3261    2.5426   37.1344 O   0  0  0  0  0  0  0  0  0  0  0  0
   10.9106    5.1580   37.8004 C   0  0  0  0  0  0  0  0  0  0  0  0
   10.1307    4.4274   36.9295 N   0  0  0  0  0  0  0  0  0  0  0  0
    9.0429    4.9351   36.2891 C   0  0  0  0  0  0  0  0  0  0  0  0
    8.2958    4.1778   35.4341 C   0  0  0  0  0  0  0  0  0  0  0  0
    8.5334    2.8296   35.1081 C   0  0  0  0  0  0  0  0  0  0  0  0
    7.9037    2.0950   34.3512 O   0  0  0  0  0  0  0  0  0  0  0  0
    7.2850    5.0108   34.9766 N   0  0  0  0  0  0  0  0  0  0  0  0
    7.4887    6.2077   35.5812 C   0  0  0  0  0  0  0  0  0  0  0  0
    8.5234    6.2222   36.3775 N   0  0  0  0  0  0  0  0  0  0  0  0
  1  2  1  0  0  0  0
  2  3  1  0  0  0  0
  2  9  1  0  0  0  0
  3  4  2  0  0  0  0
  3  6  1  0  0  0  0
  6  5  1  0  0  0  0
  6  7  1  0  0  0  0
  7  8  2  0  0  0  0
  7 13  1  0  0  0  0
  8  9  1  0  0  0  0
  8 11  1  0  0  0  0
  9 10  2  0  0  0  0
 11 12  1  0  0  0  0
 12 13  2  0  0  0  0
M  END
>  <CHROM.1>
9.21026905,3.81221072,35.99546788,0.85467101,0.62067531,-2.78191702

>  <Name>
1o15_lig

>  <RI>
0

>  <Rbt.Current_Directory>
/home/itssahil/PROJECTS/Mol_Feturizer/New_Systems/rnas/1o15

>  <Rbt.Executable>
rbdock ($Id: //depot/dev/client3/rdock/2013.1/src/exe/rbdock.cxx#4 $)

>  <Rbt.Library>
libRbt.so (2013.1, Build901 2013/11/27)

>  <Rbt.Parameter_File>
/export/apps/rDock/src/rDock_2013.1_src/data/scripts/dock_solv.prm

>  <Rbt.Receptor>
prm/blind_docking_60.prm

>  <SCORE>
-21.3926

>  <SCORE.INTER>
-21.6947

>  <SCORE.INTER.CONST>
1

>  <SCORE.INTER.POLAR>
-1.82716

>  <SCORE.INTER.ROT>
0

>  <SCORE.INTER.SOLV>
7.19867

>  <SCORE.INTER.VDW>
-14.3722

>  <SCORE.INTER.norm>
-1.66882

>  <SCORE.INTRA>
0

>  <SCORE.INTRA.DIHEDRAL>
0

>  <SCORE.INTRA.DIHEDRAL.0>
0

>  <SCORE.INTRA.POLAR>
0

>  <SCORE.INTRA.POLAR.0>
0

>  <SCORE.INTRA.REPUL>
0

>  <SCORE.INTRA.REPUL.0>
0

>  <SCORE.INTRA.SOLV>
0

>  <SCORE.INTRA.SOLV.lig_0>
-12.9184

>  <SCORE.INTRA.VDW>
0

>  <SCORE.INTRA.VDW.0>
0

>  <SCORE.INTRA.norm>
0

>  <SCORE.RESTR>
0.30209

>  <SCORE.RESTR.CAVITY>
0.30209

>  <SCORE.RESTR.norm>
0.0232377

>  <SCORE.SYSTEM>
0

>  <SCORE.SYSTEM.CONST>
0

>  <SCORE.SYSTEM.DIHEDRAL>
0

>  <SCORE.SYSTEM.SOLV>
0

>  <SCORE.SYSTEM.norm>
0

>  <SCORE.heavy>
13

>  <SCORE.norm>
-1.64559

>  <RMSD>
1.581

$$$$
1o15_lig
 OpenBabel11021811403D
libRbt.so/2013.1/901 2013/11/27
 13 14  0  0  0  0  0  0  0  0999 V2000
   10.0032    1.0825   35.5399 C   0  0  0  0  0  0  0  0  0  0  0  0
    9.6268    2.3891   35.7602 N   0  0  0  0  0  0  0  0  0  0  0  0
   10.3722    3.1244   36.6264 C   0  0  0  0  0  0  0  0  0  0  0  0
   11.3236    2.5439   37.1431 O   0  0  0  0  0  0  0  0  0  0  0  0
   10.9004    5.1514   37.8349 C   0  0  0  0  0  0  0  0  0  0  0  0
   10.1284    4.4302   36.9493 N   0  0  0  0  0  0  0  0  0  0  0  0
    9.0458    4.9442   36.3054 C   0  0  0  0  0  0  0  0  0  0  0  0
    8.3065    4.1961   35.4357 C   0  0  0  0  0  0  0  0  0  0  0  0
    8.5479    2.8518   35.0966 C   0  0  0  0  0  0  0  0  0  0  0  0
    7.9252    2.1254   34.3262 O   0  0  0  0  0  0  0  0  0  0  0  0
    7.2990    5.0335   34.9790 N   0  0  0  0  0  0  0  0  0  0  0  0
    7.4966    6.2237   35.5987 C   0  0  0  0  0  0  0  0  0  0  0  0
    8.5245    6.2300   36.4038 N   0  0  0  0  0  0  0  0  0  0  0  0
  1  2  1  0  0  0  0
  2  3  1  0  0  0  0
  2  9  1  0  0  0  0
  3  4  2  0  0  0  0
  3  6  1  0  0  0  0
  6  5  1  0  0  0  0
  6  7  1  0  0  0  0
  7  8  2  0  0  0  0
  7 13  1  0  0  0  0
  8  9  1  0  0  0  0
  8 11  1  0  0  0  0
  9 10  2  0  0  0  0
 11 12  1  0  0  0  0
 12 13  2  0  0  0  0
M  END
>  <CHROM.1>
9.21646501,3.82484037,36.00063297,0.85009910,0.62834082,-2.76802328

>  <Name>
1o15_lig

>  <RI>
0

>  <Rbt.Current_Directory>
/home/itssahil/PROJECTS/Mol_Feturizer/New_Systems/rnas/1o15

>  <Rbt.Executable>
rbdock ($Id: //depot/dev/client3/rdock/2013.1/src/exe/rbdock.cxx#4 $)

>  <Rbt.Library>
libRbt.so (2013.1, Build901 2013/11/27)

>  <Rbt.Parameter_File>
/export/apps/rDock/src/rDock_2013.1_src/data/scripts/dock_solv.prm

>  <Rbt.Receptor>
prm/blind_docking_60.prm

>  <SCORE>
-21.4542

>  <SCORE.INTER>
-21.7589

>  <SCORE.INTER.CONST>
1

>  <SCORE.INTER.POLAR>
-1.84722

>  <SCORE.INTER.ROT>
0

>  <SCORE.INTER.SOLV>
7.1864

>  <SCORE.INTER.VDW>
-14.344

>  <SCORE.INTER.norm>
-1.67376

>  <SCORE.INTRA>
0

>  <SCORE.INTRA.DIHEDRAL>
0

>  <SCORE.INTRA.DIHEDRAL.0>
0

>  <SCORE.INTRA.POLAR>
0

>  <SCORE.INTRA.POLAR.0>
0

>  <SCORE.INTRA.REPUL>
0

>  <SCORE.INTRA.REPUL.0>
0

>  <SCORE.INTRA.SOLV>
0

>  <SCORE.INTRA.SOLV.lig_0>
-12.9184

>  <SCORE.INTRA.VDW>
0

>  <SCORE.INTRA.VDW.0>
0

>  <SCORE.INTRA.norm>
0

>  <SCORE.RESTR>
0.304633

>  <SCORE.RESTR.CAVITY>
0.304633

>  <SCORE.RESTR.norm>
0.0234333

>  <SCORE.SYSTEM>
0

>  <SCORE.SYSTEM.CONST>
0

>  <SCORE.SYSTEM.DIHEDRAL>
0

>  <SCORE.SYSTEM.SOLV>
0

>  <SCORE.SYSTEM.norm>
0

>  <SCORE.heavy>
13

>  <SCORE.norm>
-1.65033

>  <RMSD>
1.586

$$$$
1o15_lig
 OpenBabel11021811403D
libRbt.so/2013.1/901 2013/11/27
 13 14  0  0  0  0  0  0  0  0999 V2000
   10.0080    1.0855   35.5328 C   0  0  0  0  0  0  0  0  0  0  0  0
    9.6303    2.3912   35.7560 N   0  0  0  0  0  0  0  0  0  0  0  0
   10.3735    3.1245   36.6259 C   0  0  0  0  0  0  0  0  0  0  0  0
   11.3241    2.5431   37.1429 O   0  0  0  0  0  0  0  0  0  0  0  0
   10.8979    5.1484   37.8413 C   0  0  0  0  0  0  0  0  0  0  0  0
   10.1283    4.4292   36.9520 N   0  0  0  0  0  0  0  0  0  0  0  0
    9.0466    4.9444   36.3072 C   0  0  0  0  0  0  0  0  0  0  0  0
    8.3097    4.1984   35.4338 C   0  0  0  0  0  0  0  0  0  0  0  0
    8.5526    2.8552   35.0914 C   0  0  0  0  0  0  0  0  0  0  0  0
    7.9320    2.1306   34.3177 O   0  0  0  0  0  0  0  0  0  0  0  0
    7.3026    5.0365   34.9774 N   0  0  0  0  0  0  0  0  0  0  0  0
    7.4982    6.2250   35.6009 C   0  0  0  0  0  0  0  0  0  0  0  0
    8.5244    6.2296   36.4082 N   0  0  0  0  0  0  0  0  0  0  0  0
  1  2  1  0  0  0  0
  2  3  1  0  0  0  0
  2  9  1  0  0  0  0
  3  4  2  0  0  0  0
  3  6  1  0  0  0  0
  6  5  1  0  0  0  0
  6  7  1  0  0  0  0
  7  8  2  0  0  0  0
  7 13  1  0  0  0  0
  8  9  1  0  0  0  0
  8 11  1  0  0  0  0
  9 10  2  0  0  0  0
 11 12  1  0  0  0  0
 12 13  2  0  0  0  0
M  END
>  <CHROM.1>
9.21866284,3.82604241,35.99965287,0.84845211,0.63007897,-2.76419941

>  <Name>
1o15_lig

>  <RI>
0

>  <Rbt.Current_Directory>
/home/itssahil/PROJECTS/Mol_Feturizer/New_Systems/rnas/1o15

>  <Rbt.Executable>
rbdock ($Id: //depot/dev/client3/rdock/2013.1/src/exe/rbdock.cxx#4 $)

>  <Rbt.Library>
libRbt.so (2013.1, Build901 2013/11/27)

>  <Rbt.Parameter_File>
/export/apps/rDock/src/rDock_2013.1_src/data/scripts/dock_solv.prm

>  <Rbt.Receptor>
prm/blind_docking_60.prm

>  <SCORE>
-21.4737

>  <SCORE.INTER>
-21.7788

>  <SCORE.INTER.CONST>
1

>  <SCORE.INTER.POLAR>
-1.85892

>  <SCORE.INTER.ROT>
0

>  <SCORE.INTER.SOLV>
7.18523

>  <SCORE.INTER.VDW>
-14.3179

>  <SCORE.INTER.norm>
-1.67529

>  <SCORE.INTRA>
0

>  <SCORE.INTRA.DIHEDRAL>
0

>  <SCORE.INTRA.DIHEDRAL.0>
0

>  <SCORE.INTRA.POLAR>
0

>  <SCORE.INTRA.POLAR.0>
0

>  <SCORE.INTRA.REPUL>
0

>  <SCORE.INTRA.REPUL.0>
0

>  <SCORE.INTRA.SOLV>
0

>  <SCORE.INTRA.SOLV.lig_0>
-12.9184

>  <SCORE.INTRA.VDW>
0

>  <SCORE.INTRA.VDW.0>
0

>  <SCORE.INTRA.norm>
0

>  <SCORE.RESTR>
0.305135

>  <SCORE.RESTR.CAVITY>
0.305135

>  <SCORE.RESTR.norm>
0.0234719

>  <SCORE.SYSTEM>
0

>  <SCORE.SYSTEM.CONST>
0

>  <SCORE.SYSTEM.DIHEDRAL>
0

>  <SCORE.SYSTEM.SOLV>
0

>  <SCORE.SYSTEM.norm>
0

>  <SCORE.heavy>
13

>  <SCORE.norm>
-1.65182

>  <RMSD>
1.588

$$$$
1o15_lig
 OpenBabel11021811403D
libRbt.so/2013.1/901 2013/11/27
 13 14  0  0  0  0  0  0  0  0999 V2000
    9.9739    1.0779   35.5059 C   0  0  0  0  0  0  0  0  0  0  0  0
    9.6052    2.3856   35.7328 N   0  0  0  0  0  0  0  0  0  0  0  0
   10.3576    3.1133   36.5994 C   0  0  0  0  0  0  0  0  0  0  0  0
   11.3076    2.5257   37.1104 O   0  0  0  0  0  0  0  0  0  0  0  0
   10.9007    5.1326   37.8142 C   0  0  0  0  0  0  0  0  0  0  0  0
   10.1219    4.4191   36.9284 N   0  0  0  0  0  0  0  0  0  0  0  0
    9.0397    4.9415   36.2903 C   0  0  0  0  0  0  0  0  0  0  0  0
    8.2935    4.2009   35.4202 C   0  0  0  0  0  0  0  0  0  0  0  0
    8.5266    2.8567   35.0748 C   0  0  0  0  0  0  0  0  0  0  0  0
    7.8973    2.1367   34.3037 O   0  0  0  0  0  0  0  0  0  0  0  0
    7.2889    5.0455   34.9704 N   0  0  0  0  0  0  0  0  0  0  0  0
    7.4950    6.2320   35.5943 C   0  0  0  0  0  0  0  0  0  0  0  0
    8.5257    6.2296   36.3958 N   0  0  0  0  0  0  0  0  0  0  0  0
  1  2  1  0  0  0  0
  2  3  1  0  0  0  0
  2  9  1  0  0  0  0
  3  4  2  0  0  0  0
  3  6  1  0  0  0  0
  6  5  1  0  0  0  0
  6  7  1  0  0  0  0
  7  8  2  0  0  0  0
  7 13  1  0  0  0  0
  8  9  1  0  0  0  0
  8 11  1  0  0  0  0
  9 10  2  0  0  0  0
 11 12  1  0  0  0  0
 12 13  2  0  0  0  0
M  END
>  <CHROM.1>
9.20341509,3.82248060,35.98046399,0.85779948,0.62704467,-2.76847487

>  <Name>
1o15_lig

>  <RI>
0

>  <Rbt.Current_Directory>
/home/itssahil/PROJECTS/Mol_Feturizer/New_Systems/rnas/1o15

>  <Rbt.Executable>
rbdock ($Id: //depot/dev/client3/rdock/2013.1/src/exe/rbdock.cxx#4 $)

>  <Rbt.Library>
libRbt.so (2013.1, Build901 2013/11/27)

>  <Rbt.Parameter_File>
/export/apps/rDock/src/rDock_2013.1_src/data/scripts/dock_solv.prm

>  <Rbt.Receptor>
prm/blind_docking_60.prm

>  <SCORE>
-21.3236

>  <SCORE.INTER>
-21.5982

>  <SCORE.INTER.CONST>
1

>  <SCORE.INTER.POLAR>
-1.84011

>  <SCORE.INTER.ROT>
0

>  <SCORE.INTER.SOLV>
7.24433

>  <SCORE.INTER.VDW>
-14.2799

>  <SCORE.INTER.norm>
-1.6614

>  <SCORE.INTRA>
0

>  <SCORE.INTRA.DIHEDRAL>
0

>  <SCORE.INTRA.DIHEDRAL.0>
0

>  <SCORE.INTRA.POLAR>
0

>  <SCORE.INTRA.POLAR.0>
0

>  <SCORE.INTRA.REPUL>
0

>  <SCORE.INTRA.REPUL.0>
0

>  <SCORE.INTRA.SOLV>
0

>  <SCORE.INTRA.SOLV.lig_0>
-12.9184

>  <SCORE.INTRA.VDW>
0

>  <SCORE.INTRA.VDW.0>
0

>  <SCORE.INTRA.norm>
0

>  <SCORE.RESTR>
0.274578

>  <SCORE.RESTR.CAVITY>
0.274578

>  <SCORE.RESTR.norm>
0.0211214

>  <SCORE.SYSTEM>
0

>  <SCORE.SYSTEM.CONST>
0

>  <SCORE.SYSTEM.DIHEDRAL>
0

>  <SCORE.SYSTEM.SOLV>
0

>  <SCORE.SYSTEM.norm>
0

>  <SCORE.heavy>
13

>  <SCORE.norm>
-1.64028

>  <RMSD>
1.606

$$$$
1o15_lig
 OpenBabel11021811403D
libRbt.so/2013.1/901 2013/11/27
 13 14  0  0  0  0  0  0  0  0999 V2000
    9.4473    0.8757   35.1183 C   0  0  0  0  0  0  0  0  0  0  0  0
    9.2534    2.2031   35.4312 N   0  0  0  0  0  0  0  0  0  0  0  0
   10.1383    2.7882   36.2804 C   0  0  0  0  0  0  0  0  0  0  0  0
   11.0390    2.0657   36.6994 O   0  0  0  0  0  0  0  0  0  0  0  0
   10.9925    4.6594   37.5523 C   0  0  0  0  0  0  0  0  0  0  0  0
   10.0821    4.0925   36.6863 N   0  0  0  0  0  0  0  0  0  0  0  0
    9.0350    4.7730   36.1461 C   0  0  0  0  0  0  0  0  0  0  0  0
    8.1545    4.1745   35.2923 C   0  0  0  0  0  0  0  0  0  0  0  0
    8.2025    2.8334   34.8685 C   0  0  0  0  0  0  0  0  0  0  0  0
    7.4463    2.2362   34.1067 O   0  0  0  0  0  0  0  0  0  0  0  0
    7.2344    5.1550   34.9502 N   0  0  0  0  0  0  0  0  0  0  0  0
    7.6190    6.2728   35.6153 C   0  0  0  0  0  0  0  0  0  0  0  0
    8.6876    6.1048   36.3465 N   0  0  0  0  0  0  0  0  0  0  0  0
  1  2  1  0  0  0  0
  2  3  1  0  0  0  0
  2  9  1  0  0  0  0
  3  4  2  0  0  0  0
  3  6  1  0  0  0  0
  6  5  1  0  0  0  0
  6  7  1  0  0  0  0
  7  8  2  0  0  0  0
  7 13  1  0  0  0  0
  8  9  1  0  0  0  0
  8 11  1  0  0  0  0
  9 10  2  0  0  0  0
 11 12  1  0  0  0  0
 12 13  2  0  0  0  0
M  END
>  <CHROM.1>
9.04361756,3.66135916,35.77305091,1.02212589,0.60937975,-2.81204183

>  <Name>
1o15_lig

>  <RI>
224

>  <Rbt.Current_Directory>
/home/itssahil/PROJECTS/Mol_Feturizer/New_Systems/rnas/1o15

>  <Rbt.Executable>
rbdock ($Id: //depot/dev/client3/rdock/2013.1/src/exe/rbdock.cxx#4 $)

>  <Rbt.Library>
libRbt.so (2013.1, Build901 2013/11/27)

>  <Rbt.Parameter_File>
/export/apps/rDock/src/rDock_2013.1_src/data/scripts/dock_solv.prm

>  <Rbt.Receptor>
prm/blind_docking_100.prm

>  <SCORE>
-18.6034

>  <SCORE.INTER>
-18.9569

>  <SCORE.INTER.CONST>
1

>  <SCORE.INTER.POLAR>
-1.6171

>  <SCORE.INTER.ROT>
0

>  <SCORE.INTER.SOLV>
7.66419

>  <SCORE.INTER.VDW>
-13.4023

>  <SCORE.INTER.norm>
-1.45822

>  <SCORE.INTRA>
0

>  <SCORE.INTRA.DIHEDRAL>
0

>  <SCORE.INTRA.DIHEDRAL.0>
0

>  <SCORE.INTRA.POLAR>
0

>  <SCORE.INTRA.POLAR.0>
0

>  <SCORE.INTRA.REPUL>
0

>  <SCORE.INTRA.REPUL.0>
0

>  <SCORE.INTRA.SOLV>
0

>  <SCORE.INTRA.SOLV.lig_0>
-12.9184

>  <SCORE.INTRA.VDW>
0

>  <SCORE.INTRA.VDW.0>
0

>  <SCORE.INTRA.norm>
0

>  <SCORE.RESTR>
0.353484

>  <SCORE.RESTR.CAVITY>
0.353484

>  <SCORE.RESTR.norm>
0.0271911

>  <SCORE.SYSTEM>
0

>  <SCORE.SYSTEM.CONST>
0

>  <SCORE.SYSTEM.DIHEDRAL>
0

>  <SCORE.SYSTEM.SOLV>
0

>  <SCORE.SYSTEM.norm>
0

>  <SCORE.heavy>
13

>  <SCORE.norm>
-1.43103

>  <RMSD>
1.803

$$$$
1o15_lig
 OpenBabel11021811403D
libRbt.so/2013.1/901 2013/11/27
 13 14  0  0  0  0  0  0  0  0999 V2000
    9.1105    0.1350   35.1080 C   0  0  0  0  0  0  0  0  0  0  0  0
    8.8498    1.4188   35.5338 N   0  0  0  0  0  0  0  0  0  0  0  0
    9.4862    1.8554   36.6523 C   0  0  0  0  0  0  0  0  0  0  0  0
   10.2421    1.0499   37.1893 O   0  0  0  0  0  0  0  0  0  0  0  0
    9.9905    3.5143   38.3381 C   0  0  0  0  0  0  0  0  0  0  0  0
    9.3338    3.0989   37.1994 N   0  0  0  0  0  0  0  0  0  0  0  0
    8.4679    3.8841   36.5032 C   0  0  0  0  0  0  0  0  0  0  0  0
    7.8368    3.4346   35.3797 C   0  0  0  0  0  0  0  0  0  0  0  0
    7.9856    2.1572   34.8083 C   0  0  0  0  0  0  0  0  0  0  0  0
    7.4506    1.6923   33.8051 O   0  0  0  0  0  0  0  0  0  0  0  0
    7.0435    4.4869   34.9455 N   0  0  0  0  0  0  0  0  0  0  0  0
    7.2482    5.4949   35.8295 C   0  0  0  0  0  0  0  0  0  0  0  0
    8.0882    5.1927   36.7824 N   0  0  0  0  0  0  0  0  0  0  0  0
  1  2  1  0  0  0  0
  2  3  1  0  0  0  0
  2  9  1  0  0  0  0
  3  4  2  0  0  0  0
  3  6  1  0  0  0  0
  6  5  1  0  0  0  0
  6  7  1  0  0  0  0
  7  8  2  0  0  0  0
  7 13  1  0  0  0  0
  8  9  1  0  0  0  0
  8 11  1  0  0  0  0
  9 10  2  0  0  0  0
 11 12  1  0  0  0  0
 12 13  2  0  0  0  0
M  END
>  <CHROM.1>
8.56679608,2.82924293,36.00066640,0.90150579,0.85777647,-2.59816898

>  <Name>
1o15_lig

>  <RI>
224

>  <Rbt.Current_Directory>
/home/itssahil/PROJECTS/Mol_Feturizer/New_Systems/rnas/1o15

>  <Rbt.Executable>
rbdock ($Id: //depot/dev/client3/rdock/2013.1/src/exe/rbdock.cxx#4 $)

>  <Rbt.Library>
libRbt.so (2013.1, Build901 2013/11/27)

>  <Rbt.Parameter_File>
/export/apps/rDock/src/rDock_2013.1_src/data/scripts/dock_solv.prm

>  <Rbt.Receptor>
prm/blind_docking_100.prm

>  <SCORE>
-21.9698

>  <SCORE.INTER>
-22.4343

>  <SCORE.INTER.CONST>
1

>  <SCORE.INTER.POLAR>
-2.12501

>  <SCORE.INTER.ROT>
0

>  <SCORE.INTER.SOLV>
7.28713

>  <SCORE.INTER.VDW>
-13.9019

>  <SCORE.INTER.norm>
-1.72572

>  <SCORE.INTRA>
0

>  <SCORE.INTRA.DIHEDRAL>
0

>  <SCORE.INTRA.DIHEDRAL.0>
0

>  <SCORE.INTRA.POLAR>
0

>  <SCORE.INTRA.POLAR.0>
0

>  <SCORE.INTRA.REPUL>
0

>  <SCORE.INTRA.REPUL.0>
0

>  <SCORE.INTRA.SOLV>
0

>  <SCORE.INTRA.SOLV.lig_0>
-12.9184

>  <SCORE.INTRA.VDW>
0

>  <SCORE.INTRA.VDW.0>
0

>  <SCORE.INTRA.norm>
0

>  <SCORE.RESTR>
0.464584

>  <SCORE.RESTR.CAVITY>
0.464584

>  <SCORE.RESTR.norm>
0.0357372

>  <SCORE.SYSTEM>
0

>  <SCORE.SYSTEM.CONST>
0

>  <SCORE.SYSTEM.DIHEDRAL>
0

>  <SCORE.SYSTEM.SOLV>
0

>  <SCORE.SYSTEM.norm>
0

>  <SCORE.heavy>
13

>  <SCORE.norm>
-1.68998

>  <RMSD>
1.865

$$$$
1o15_lig
 OpenBabel11021811403D
libRbt.so/2013.1/901 2013/11/27
 13 14  0  0  0  0  0  0  0  0999 V2000
    9.1209    0.1415   35.1126 C   0  0  0  0  0  0  0  0  0  0  0  0
    8.8528    1.4259   35.5319 N   0  0  0  0  0  0  0  0  0  0  0  0
    9.4840    1.8706   36.6502 C   0  0  0  0  0  0  0  0  0  0  0  0
   10.2423    1.0711   37.1929 O   0  0  0  0  0  0  0  0  0  0  0  0
    9.9757    3.5395   38.3299 C   0  0  0  0  0  0  0  0  0  0  0  0
    9.3242    3.1158   37.1913 N   0  0  0  0  0  0  0  0  0  0  0  0
    8.4565    3.8937   36.4891 C   0  0  0  0  0  0  0  0  0  0  0  0
    7.8307    3.4362   35.3659 C   0  0  0  0  0  0  0  0  0  0  0  0
    7.9872    2.1569   34.8007 C   0  0  0  0  0  0  0  0  0  0  0  0
    7.4571    1.6850   33.7981 O   0  0  0  0  0  0  0  0  0  0  0  0
    7.0336    4.4826   34.9248 N   0  0  0  0  0  0  0  0  0  0  0  0
    7.2309    5.4956   35.8049 C   0  0  0  0  0  0  0  0  0  0  0  0
    8.0697    5.2017   36.7614 N   0  0  0  0  0  0  0  0  0  0  0  0
  1  2  1  0  0  0  0
  2  3  1  0  0  0  0
  2  9  1  0  0  0  0
  3  4  2  0  0  0  0
  3  6  1  0  0  0  0
  6  5  1  0  0  0  0
  6  7  1  0  0  0  0
  7  8  2  0  0  0  0
  7 13  1  0  0  0  0
  8  9  1  0  0  0  0
  8 11  1  0  0  0  0
  9 10  2  0  0  0  0
 11 12  1  0  0  0  0
 12 13  2  0  0  0  0
M  END
>  <CHROM.1>
8.56180455,2.83707721,35.99161880,0.89303974,0.85765746,-2.59626532

>  <Name>
1o15_lig

>  <RI>
224

>  <Rbt.Current_Directory>
/home/itssahil/PROJECTS/Mol_Feturizer/New_Systems/rnas/1o15

>  <Rbt.Executable>
rbdock ($Id: //depot/dev/client3/rdock/2013.1/src/exe/rbdock.cxx#4 $)

>  <Rbt.Library>
libRbt.so (2013.1, Build901 2013/11/27)

>  <Rbt.Parameter_File>
/export/apps/rDock/src/rDock_2013.1_src/data/scripts/dock_solv.prm

>  <Rbt.Receptor>
prm/blind_docking_100.prm

>  <SCORE>
-21.8624

>  <SCORE.INTER>
-22.3119

>  <SCORE.INTER.CONST>
1

>  <SCORE.INTER.POLAR>
-2.12868

>  <SCORE.INTER.ROT>
0

>  <SCORE.INTER.SOLV>
7.31841

>  <SCORE.INTER.VDW>
-13.8184

>  <SCORE.INTER.norm>
-1.7163

>  <SCORE.INTRA>
0

>  <SCORE.INTRA.DIHEDRAL>
0

>  <SCORE.INTRA.DIHEDRAL.0>
0

>  <SCORE.INTRA.POLAR>
0

>  <SCORE.INTRA.POLAR.0>
0

>  <SCORE.INTRA.REPUL>
0

>  <SCORE.INTRA.REPUL.0>
0

>  <SCORE.INTRA.SOLV>
0

>  <SCORE.INTRA.SOLV.lig_0>
-12.9184

>  <SCORE.INTRA.VDW>
0

>  <SCORE.INTRA.VDW.0>
0

>  <SCORE.INTRA.norm>
0

>  <SCORE.RESTR>
0.449456

>  <SCORE.RESTR.CAVITY>
0.449456

>  <SCORE.RESTR.norm>
0.0345736

>  <SCORE.SYSTEM>
0

>  <SCORE.SYSTEM.CONST>
0

>  <SCORE.SYSTEM.DIHEDRAL>
0

>  <SCORE.SYSTEM.SOLV>
0

>  <SCORE.SYSTEM.norm>
0

>  <SCORE.heavy>
13

>  <SCORE.norm>
-1.68173

>  <RMSD>
1.868

$$$$
1o15_lig
 OpenBabel11021811403D
libRbt.so/2013.1/901 2013/11/27
 13 14  0  0  0  0  0  0  0  0999 V2000
    9.1215    0.0322   34.9799 C   0  0  0  0  0  0  0  0  0  0  0  0
    8.9092    1.3045   35.4632 N   0  0  0  0  0  0  0  0  0  0  0  0
    9.5955    1.6816   36.5739 C   0  0  0  0  0  0  0  0  0  0  0  0
   10.3486    0.8374   37.0524 O   0  0  0  0  0  0  0  0  0  0  0  0
   10.2014    3.2609   38.3023 C   0  0  0  0  0  0  0  0  0  0  0  0
    9.4947    2.9063   37.1730 N   0  0  0  0  0  0  0  0  0  0  0  0
    8.6257    3.7390   36.5386 C   0  0  0  0  0  0  0  0  0  0  0  0
    7.9442    3.3492   35.4223 C   0  0  0  0  0  0  0  0  0  0  0  0
    8.0397    2.0916   34.7979 C   0  0  0  0  0  0  0  0  0  0  0  0
    7.4579    1.6794   33.7976 O   0  0  0  0  0  0  0  0  0  0  0  0
    7.1638    4.4367   35.0571 N   0  0  0  0  0  0  0  0  0  0  0  0
    7.4254    5.4043   35.9709 C   0  0  0  0  0  0  0  0  0  0  0  0
    8.2901    5.0447   36.8807 N   0  0  0  0  0  0  0  0  0  0  0  0
  1  2  1  0  0  0  0
  2  3  1  0  0  0  0
  2  9  1  0  0  0  0
  3  4  2  0  0  0  0
  3  6  1  0  0  0  0
  6  5  1  0  0  0  0
  6  7  1  0  0  0  0
  7  8  2  0  0  0  0
  7 13  1  0  0  0  0
  8  9  1  0  0  0  0
  8 11  1  0  0  0  0
  9 10  2  0  0  0  0
 11 12  1  0  0  0  0
 12 13  2  0  0  0  0
M  END
>  <CHROM.1>
8.67948105,2.70235847,35.99318368,0.96199005,0.84033465,-2.60515229

>  <Name>
1o15_lig

>  <RI>
0

>  <Rbt.Current_Directory>
/home/itssahil/PROJECTS/Mol_Feturizer/New_Systems/rnas/1o15

>  <Rbt.Executable>
rbdock ($Id: //depot/dev/client3/rdock/2013.1/src/exe/rbdock.cxx#4 $)

>  <Rbt.Library>
libRbt.so (2013.1, Build901 2013/11/27)

>  <Rbt.Parameter_File>
/export/apps/rDock/src/rDock_2013.1_src/data/scripts/dock_solv.prm

>  <Rbt.Receptor>
prm/pocket_docking_3.prm

>  <SCORE>
-22.7623

>  <SCORE.INTER>
-22.8647

>  <SCORE.INTER.CONST>
1

>  <SCORE.INTER.POLAR>
-2.13051

>  <SCORE.INTER.ROT>
0

>  <SCORE.INTER.SOLV>
6.90401

>  <SCORE.INTER.VDW>
-14.0428

>  <SCORE.INTER.norm>
-1.75882

>  <SCORE.INTRA>
0

>  <SCORE.INTRA.DIHEDRAL>
0

>  <SCORE.INTRA.DIHEDRAL.0>
0

>  <SCORE.INTRA.POLAR>
0

>  <SCORE.INTRA.POLAR.0>
0

>  <SCORE.INTRA.REPUL>
0

>  <SCORE.INTRA.REPUL.0>
0

>  <SCORE.INTRA.SOLV>
0

>  <SCORE.INTRA.SOLV.lig_0>
-12.9184

>  <SCORE.INTRA.VDW>
0

>  <SCORE.INTRA.VDW.0>
0

>  <SCORE.INTRA.norm>
0

>  <SCORE.RESTR>
0.102405

>  <SCORE.RESTR.CAVITY>
0.102405

>  <SCORE.RESTR.norm>
0.0078773

>  <SCORE.SYSTEM>
0

>  <SCORE.SYSTEM.CONST>
0

>  <SCORE.SYSTEM.DIHEDRAL>
0

>  <SCORE.SYSTEM.SOLV>
0

>  <SCORE.SYSTEM.norm>
0

>  <SCORE.heavy>
13

>  <SCORE.norm>
-1.75094

>  <RMSD>
1.882

$$$$
1o15_lig
 OpenBabel11021811403D
libRbt.so/2013.1/901 2013/11/27
 13 14  0  0  0  0  0  0  0  0999 V2000
    9.2037    0.6795   34.9543 C   0  0  0  0  0  0  0  0  0  0  0  0
    9.1418    2.0129   35.2944 N   0  0  0  0  0  0  0  0  0  0  0  0
   10.1152    2.5044   36.1053 C   0  0  0  0  0  0  0  0  0  0  0  0
   10.9692    1.6995   36.4682 O   0  0  0  0  0  0  0  0  0  0  0  0
   11.1910    4.2720   37.3570 C   0  0  0  0  0  0  0  0  0  0  0  0
   10.1928    3.8012   36.5310 N   0  0  0  0  0  0  0  0  0  0  0  0
    9.1835    4.5790   36.0540 C   0  0  0  0  0  0  0  0  0  0  0  0
    8.2130    4.0739   35.2382 C   0  0  0  0  0  0  0  0  0  0  0  0
    8.1231    2.7414   34.7945 C   0  0  0  0  0  0  0  0  0  0  0  0
    7.2809    2.2253   34.0643 O   0  0  0  0  0  0  0  0  0  0  0  0
    7.3658    5.1360   34.9565 N   0  0  0  0  0  0  0  0  0  0  0  0
    7.8788    6.2044   35.6161 C   0  0  0  0  0  0  0  0  0  0  0  0
    8.9636    5.9320   36.2897 N   0  0  0  0  0  0  0  0  0  0  0  0
  1  2  1  0  0  0  0
  2  3  1  0  0  0  0
  2  9  1  0  0  0  0
  3  4  2  0  0  0  0
  3  6  1  0  0  0  0
  6  5  1  0  0  0  0
  6  7  1  0  0  0  0
  7  8  2  0  0  0  0
  7 13  1  0  0  0  0
  8  9  1  0  0  0  0
  8 11  1  0  0  0  0
  9 10  2  0  0  0  0
 11 12  1  0  0  0  0
 12 13  2  0  0  0  0
M  END
>  <CHROM.1>
9.07682700,3.47754013,35.66609852,1.14055719,0.58730514,-2.86317412

>  <Name>
1o15_lig

>  <RI>
0

>  <Rbt.Current_Directory>
/home/itssahil/PROJECTS/Mol_Feturizer/New_Systems/rnas/1o15

>  <Rbt.Executable>
rbdock ($Id: //depot/dev/client3/rdock/2013.1/src/exe/rbdock.cxx#4 $)

>  <Rbt.Library>
libRbt.so (2013.1, Build901 2013/11/27)

>  <Rbt.Parameter_File>
/export/apps/rDock/src/rDock_2013.1_src/data/scripts/dock_solv.prm

>  <Rbt.Receptor>
prm/pocket_docking_4.prm

>  <SCORE>
-19.9953

>  <SCORE.INTER>
-19.9953

>  <SCORE.INTER.CONST>
1

>  <SCORE.INTER.POLAR>
-1.78503

>  <SCORE.INTER.ROT>
0

>  <SCORE.INTER.SOLV>
7.66295

>  <SCORE.INTER.VDW>
-13.5344

>  <SCORE.INTER.norm>
-1.5381

>  <SCORE.INTRA>
0

>  <SCORE.INTRA.DIHEDRAL>
0

>  <SCORE.INTRA.DIHEDRAL.0>
0

>  <SCORE.INTRA.POLAR>
0

>  <SCORE.INTRA.POLAR.0>
0

>  <SCORE.INTRA.REPUL>
0

>  <SCORE.INTRA.REPUL.0>
0

>  <SCORE.INTRA.SOLV>
0

>  <SCORE.INTRA.SOLV.lig_0>
-12.9184

>  <SCORE.INTRA.VDW>
0

>  <SCORE.INTRA.VDW.0>
0

>  <SCORE.INTRA.norm>
0

>  <SCORE.RESTR>
0

>  <SCORE.RESTR.CAVITY>
0

>  <SCORE.RESTR.norm>
0

>  <SCORE.SYSTEM>
0

>  <SCORE.SYSTEM.CONST>
0

>  <SCORE.SYSTEM.DIHEDRAL>
0

>  <SCORE.SYSTEM.SOLV>
0

>  <SCORE.SYSTEM.norm>
0

>  <SCORE.heavy>
13

>  <SCORE.norm>
-1.5381

>  <RMSD>
1.883

$$$$
1o15_lig
 OpenBabel11021811403D
libRbt.so/2013.1/901 2013/11/27
 13 14  0  0  0  0  0  0  0  0999 V2000
    9.2090    0.6819   34.9441 C   0  0  0  0  0  0  0  0  0  0  0  0
    9.1466    2.0137   35.2901 N   0  0  0  0  0  0  0  0  0  0  0  0
   10.1173    2.5010   36.1067 C   0  0  0  0  0  0  0  0  0  0  0  0
   10.9697    1.6941   36.4689 O   0  0  0  0  0  0  0  0  0  0  0  0
   11.1895    4.2623   37.3703 C   0  0  0  0  0  0  0  0  0  0  0  0
   10.1940    3.7958   36.5386 N   0  0  0  0  0  0  0  0  0  0  0  0
    9.1868    4.5763   36.0616 C   0  0  0  0  0  0  0  0  0  0  0  0
    8.2190    4.0755   35.2400 C   0  0  0  0  0  0  0  0  0  0  0  0
    8.1300    2.7451   34.7899 C   0  0  0  0  0  0  0  0  0  0  0  0
    7.2902    2.2327   34.0543 O   0  0  0  0  0  0  0  0  0  0  0  0
    7.3734    5.1393   34.9602 N   0  0  0  0  0  0  0  0  0  0  0  0
    7.8845    6.2044   35.6265 C   0  0  0  0  0  0  0  0  0  0  0  0
    8.9667    5.9283   36.3027 N   0  0  0  0  0  0  0  0  0  0  0  0
  1  2  1  0  0  0  0
  2  3  1  0  0  0  0
  2  9  1  0  0  0  0
  3  4  2  0  0  0  0
  3  6  1  0  0  0  0
  6  5  1  0  0  0  0
  6  7  1  0  0  0  0
  7  8  2  0  0  0  0
  7 13  1  0  0  0  0
  8  9  1  0  0  0  0
  8 11  1  0  0  0  0
  9 10  2  0  0  0  0
 11 12  1  0  0  0  0
 12 13  2  0  0  0  0
M  END
>  <CHROM.1>
9.08098333,3.47668857,35.66823634,1.13994038,0.59087181,-2.85823597

>  <Name>
1o15_lig

>  <RI>
0

>  <Rbt.Current_Directory>
/home/itssahil/PROJECTS/Mol_Feturizer/New_Systems/rnas/1o15

>  <Rbt.Executable>
rbdock ($Id: //depot/dev/client3/rdock/2013.1/src/exe/rbdock.cxx#4 $)

>  <Rbt.Library>
libRbt.so (2013.1, Build901 2013/11/27)

>  <Rbt.Parameter_File>
/export/apps/rDock/src/rDock_2013.1_src/data/scripts/dock_solv.prm

>  <Rbt.Receptor>
prm/pocket_docking_4.prm

>  <SCORE>
-19.9953

>  <SCORE.INTER>
-19.9953

>  <SCORE.INTER.CONST>
1

>  <SCORE.INTER.POLAR>
-1.76941

>  <SCORE.INTER.ROT>
0

>  <SCORE.INTER.SOLV>
7.64493

>  <SCORE.INTER.VDW>
-13.5805

>  <SCORE.INTER.norm>
-1.5381

>  <SCORE.INTRA>
0

>  <SCORE.INTRA.DIHEDRAL>
0

>  <SCORE.INTRA.DIHEDRAL.0>
0

>  <SCORE.INTRA.POLAR>
0

>  <SCORE.INTRA.POLAR.0>
0

>  <SCORE.INTRA.REPUL>
0

>  <SCORE.INTRA.REPUL.0>
0

>  <SCORE.INTRA.SOLV>
0

>  <SCORE.INTRA.SOLV.lig_0>
-12.9184

>  <SCORE.INTRA.VDW>
0

>  <SCORE.INTRA.VDW.0>
0

>  <SCORE.INTRA.norm>
0

>  <SCORE.RESTR>
0

>  <SCORE.RESTR.CAVITY>
0

>  <SCORE.RESTR.norm>
0

>  <SCORE.SYSTEM>
0

>  <SCORE.SYSTEM.CONST>
0

>  <SCORE.SYSTEM.DIHEDRAL>
0

>  <SCORE.SYSTEM.SOLV>
0

>  <SCORE.SYSTEM.norm>
0

>  <SCORE.heavy>
13

>  <SCORE.norm>
-1.5381

>  <RMSD>
1.883

$$$$
1o15_lig
 OpenBabel11021811403D
libRbt.so/2013.1/901 2013/11/27
 13 14  0  0  0  0  0  0  0  0999 V2000
    9.1209    0.0360   34.9698 C   0  0  0  0  0  0  0  0  0  0  0  0
    8.9113    1.3067   35.4584 N   0  0  0  0  0  0  0  0  0  0  0  0
    9.5972    1.6772   36.5716 C   0  0  0  0  0  0  0  0  0  0  0  0
   10.3475    0.8290   37.0474 O   0  0  0  0  0  0  0  0  0  0  0  0
   10.2050    3.2474   38.3075 C   0  0  0  0  0  0  0  0  0  0  0  0
    9.4988    2.8995   37.1758 N   0  0  0  0  0  0  0  0  0  0  0  0
    8.6326    3.7372   36.5440 C   0  0  0  0  0  0  0  0  0  0  0  0
    7.9515    3.3540   35.4252 C   0  0  0  0  0  0  0  0  0  0  0  0
    8.0446    2.0989   34.7954 C   0  0  0  0  0  0  0  0  0  0  0  0
    7.4631    1.6925   33.7926 O   0  0  0  0  0  0  0  0  0  0  0  0
    7.1744    4.4451   35.0638 N   0  0  0  0  0  0  0  0  0  0  0  0
    7.4373    5.4080   35.9820 C   0  0  0  0  0  0  0  0  0  0  0  0
    8.2999    5.0422   36.8914 N   0  0  0  0  0  0  0  0  0  0  0  0
  1  2  1  0  0  0  0
  2  3  1  0  0  0  0
  2  9  1  0  0  0  0
  3  4  2  0  0  0  0
  3  6  1  0  0  0  0
  6  5  1  0  0  0  0
  6  7  1  0  0  0  0
  7  8  2  0  0  0  0
  7 13  1  0  0  0  0
  8  9  1  0  0  0  0
  8 11  1  0  0  0  0
  9 10  2  0  0  0  0
 11 12  1  0  0  0  0
 12 13  2  0  0  0  0
M  END
>  <CHROM.1>
8.68448005,2.70278615,35.99414930,0.96431553,0.84269904,-2.60254695

>  <Name>
1o15_lig

>  <RI>
0

>  <Rbt.Current_Directory>
/home/itssahil/PROJECTS/Mol_Feturizer/New_Systems/rnas/1o15

>  <Rbt.Executable>
rbdock ($Id: //depot/dev/client3/rdock/2013.1/src/exe/rbdock.cxx#4 $)

>  <Rbt.Library>
libRbt.so (2013.1, Build901 2013/11/27)

>  <Rbt.Parameter_File>
/export/apps/rDock/src/rDock_2013.1_src/data/scripts/dock_solv.prm

>  <Rbt.Receptor>
prm/pocket_docking_3.prm

>  <SCORE>
-22.7629

>  <SCORE.INTER>
-22.8702

>  <SCORE.INTER.CONST>
1

>  <SCORE.INTER.POLAR>
-2.12596

>  <SCORE.INTER.ROT>
0

>  <SCORE.INTER.SOLV>
6.88399

>  <SCORE.INTER.VDW>
-14.055

>  <SCORE.INTER.norm>
-1.75925

>  <SCORE.INTRA>
0

>  <SCORE.INTRA.DIHEDRAL>
0

>  <SCORE.INTRA.DIHEDRAL.0>
0

>  <SCORE.INTRA.POLAR>
0

>  <SCORE.INTRA.POLAR.0>
0

>  <SCORE.INTRA.REPUL>
0

>  <SCORE.INTRA.REPUL.0>
0

>  <SCORE.INTRA.SOLV>
0

>  <SCORE.INTRA.SOLV.lig_0>
-12.9184

>  <SCORE.INTRA.VDW>
0

>  <SCORE.INTRA.VDW.0>
0

>  <SCORE.INTRA.norm>
0

>  <SCORE.RESTR>
0.107362

>  <SCORE.RESTR.CAVITY>
0.107362

>  <SCORE.RESTR.norm>
0.0082586

>  <SCORE.SYSTEM>
0

>  <SCORE.SYSTEM.CONST>
0

>  <SCORE.SYSTEM.DIHEDRAL>
0

>  <SCORE.SYSTEM.SOLV>
0

>  <SCORE.SYSTEM.norm>
0

>  <SCORE.heavy>
13

>  <SCORE.norm>
-1.75099

>  <RMSD>
1.884

$$$$
1o15_lig
 OpenBabel11021811403D
libRbt.so/2013.1/901 2013/11/27
 13 14  0  0  0  0  0  0  0  0999 V2000
    9.2064    0.6800   34.9456 C   0  0  0  0  0  0  0  0  0  0  0  0
    9.1450    2.0123   35.2897 N   0  0  0  0  0  0  0  0  0  0  0  0
   10.1176    2.5006   36.1037 C   0  0  0  0  0  0  0  0  0  0  0  0
   10.9705    1.6939   36.4653 O   0  0  0  0  0  0  0  0  0  0  0  0
   11.1928    4.2634   37.3625 C   0  0  0  0  0  0  0  0  0  0  0  0
   10.1955    3.7960   36.5334 N   0  0  0  0  0  0  0  0  0  0  0  0
    9.1875    4.5760   36.0573 C   0  0  0  0  0  0  0  0  0  0  0  0
    8.2179    4.0742   35.2385 C   0  0  0  0  0  0  0  0  0  0  0  0
    8.1277    2.7432   34.7905 C   0  0  0  0  0  0  0  0  0  0  0  0
    7.2863    2.2300   34.0574 O   0  0  0  0  0  0  0  0  0  0  0  0
    7.3720    5.1378   34.9588 N   0  0  0  0  0  0  0  0  0  0  0  0
    7.8848    6.2038   35.6225 C   0  0  0  0  0  0  0  0  0  0  0  0
    8.9683    5.9284   36.2969 N   0  0  0  0  0  0  0  0  0  0  0  0
  1  2  1  0  0  0  0
  2  3  1  0  0  0  0
  2  9  1  0  0  0  0
  3  4  2  0  0  0  0
  3  6  1  0  0  0  0
  6  5  1  0  0  0  0
  6  7  1  0  0  0  0
  7  8  2  0  0  0  0
  7 13  1  0  0  0  0
  8  9  1  0  0  0  0
  8 11  1  0  0  0  0
  9 10  2  0  0  0  0
 11 12  1  0  0  0  0
 12 13  2  0  0  0  0
M  END
>  <CHROM.1>
9.08063761,3.47585268,35.66585022,1.14093319,0.58899212,-2.86028026

>  <Name>
1o15_lig

>  <RI>
0

>  <Rbt.Current_Directory>
/home/itssahil/PROJECTS/Mol_Feturizer/New_Systems/rnas/1o15

>  <Rbt.Executable>
rbdock ($Id: //depot/dev/client3/rdock/2013.1/src/exe/rbdock.cxx#4 $)

>  <Rbt.Library>
libRbt.so (2013.1, Build901 2013/11/27)

>  <Rbt.Parameter_File>
/export/apps/rDock/src/rDock_2013.1_src/data/scripts/dock_solv.prm

>  <Rbt.Receptor>
prm/pocket_docking_8.prm

>  <SCORE>
-19.9937

>  <SCORE.INTER>
-19.9937

>  <SCORE.INTER.CONST>
1

>  <SCORE.INTER.POLAR>
-1.77633

>  <SCORE.INTER.ROT>
0

>  <SCORE.INTER.SOLV>
7.65435

>  <SCORE.INTER.VDW>
-13.5595

>  <SCORE.INTER.norm>
-1.53798

>  <SCORE.INTRA>
0

>  <SCORE.INTRA.DIHEDRAL>
0

>  <SCORE.INTRA.DIHEDRAL.0>
0

>  <SCORE.INTRA.POLAR>
0

>  <SCORE.INTRA.POLAR.0>
0

>  <SCORE.INTRA.REPUL>
0

>  <SCORE.INTRA.REPUL.0>
0

>  <SCORE.INTRA.SOLV>
0

>  <SCORE.INTRA.SOLV.lig_0>
-12.9184

>  <SCORE.INTRA.VDW>
0

>  <SCORE.INTRA.VDW.0>
0

>  <SCORE.INTRA.norm>
0

>  <SCORE.RESTR>
0

>  <SCORE.RESTR.CAVITY>
0

>  <SCORE.RESTR.norm>
0

>  <SCORE.SYSTEM>
0

>  <SCORE.SYSTEM.CONST>
0

>  <SCORE.SYSTEM.DIHEDRAL>
0

>  <SCORE.SYSTEM.SOLV>
0

>  <SCORE.SYSTEM.norm>
0

>  <SCORE.heavy>
13

>  <SCORE.norm>
-1.53798

>  <RMSD>
1.884

$$$$
1o15_lig
 OpenBabel11021811403D
libRbt.so/2013.1/901 2013/11/27
 13 14  0  0  0  0  0  0  0  0999 V2000
    9.1298    0.0311   34.9737 C   0  0  0  0  0  0  0  0  0  0  0  0
    8.9151    1.3036   35.4555 N   0  0  0  0  0  0  0  0  0  0  0  0
    9.5975    1.6819   36.5681 C   0  0  0  0  0  0  0  0  0  0  0  0
   10.3496    0.8385   37.0497 O   0  0  0  0  0  0  0  0  0  0  0  0
   10.1966    3.2627   38.2974 C   0  0  0  0  0  0  0  0  0  0  0  0
    9.4939    2.9069   37.1660 N   0  0  0  0  0  0  0  0  0  0  0  0
    8.6263    3.7385   36.5283 C   0  0  0  0  0  0  0  0  0  0  0  0
    7.9488    3.3475   35.4100 C   0  0  0  0  0  0  0  0  0  0  0  0
    8.0472    2.0896   34.7867 C   0  0  0  0  0  0  0  0  0  0  0  0
    7.4690    1.6763   33.7848 O   0  0  0  0  0  0  0  0  0  0  0  0
    7.1689    4.4343   35.0415 N   0  0  0  0  0  0  0  0  0  0  0  0
    7.4268    5.4026   35.9555 C   0  0  0  0  0  0  0  0  0  0  0  0
    8.2887    5.0442   36.8684 N   0  0  0  0  0  0  0  0  0  0  0  0
  1  2  1  0  0  0  0
  2  3  1  0  0  0  0
  2  9  1  0  0  0  0
  3  4  2  0  0  0  0
  3  6  1  0  0  0  0
  6  5  1  0  0  0  0
  6  7  1  0  0  0  0
  7  8  2  0  0  0  0
  7 13  1  0  0  0  0
  8  9  1  0  0  0  0
  8 11  1  0  0  0  0
  9 10  2  0  0  0  0
 11 12  1  0  0  0  0
 12 13  2  0  0  0  0
M  END
>  <CHROM.1>
8.68266728,2.70156636,35.98371129,0.95857222,0.84278584,-2.60327587

>  <Name>
1o15_lig

>  <RI>
0

>  <Rbt.Current_Directory>
/home/itssahil/PROJECTS/Mol_Feturizer/New_Systems/rnas/1o15

>  <Rbt.Executable>
rbdock ($Id: //depot/dev/client3/rdock/2013.1/src/exe/rbdock.cxx#4 $)

>  <Rbt.Library>
libRbt.so (2013.1, Build901 2013/11/27)

>  <Rbt.Parameter_File>
/export/apps/rDock/src/rDock_2013.1_src/data/scripts/dock_solv.prm

>  <Rbt.Receptor>
prm/pocket_docking_3.prm

>  <SCORE>
-22.8165

>  <SCORE.INTER>
-22.9317

>  <SCORE.INTER.CONST>
1

>  <SCORE.INTER.POLAR>
-2.1407

>  <SCORE.INTER.ROT>
0

>  <SCORE.INTER.SOLV>
6.89895

>  <SCORE.INTER.VDW>
-14.0517

>  <SCORE.INTER.norm>
-1.76397

>  <SCORE.INTRA>
0

>  <SCORE.INTRA.DIHEDRAL>
0

>  <SCORE.INTRA.DIHEDRAL.0>
0

>  <SCORE.INTRA.POLAR>
0

>  <SCORE.INTRA.POLAR.0>
0

>  <SCORE.INTRA.REPUL>
0

>  <SCORE.INTRA.REPUL.0>
0

>  <SCORE.INTRA.SOLV>
0

>  <SCORE.INTRA.SOLV.lig_0>
-12.9184

>  <SCORE.INTRA.VDW>
0

>  <SCORE.INTRA.VDW.0>
0

>  <SCORE.INTRA.norm>
0

>  <SCORE.RESTR>
0.115172

>  <SCORE.RESTR.CAVITY>
0.115172

>  <SCORE.RESTR.norm>
0.0088594

>  <SCORE.SYSTEM>
0

>  <SCORE.SYSTEM.CONST>
0

>  <SCORE.SYSTEM.DIHEDRAL>
0

>  <SCORE.SYSTEM.SOLV>
0

>  <SCORE.SYSTEM.norm>
0

>  <SCORE.heavy>
13

>  <SCORE.norm>
-1.75511

>  <RMSD>
1.885

$$$$
1o15_lig
 OpenBabel11021811403D
libRbt.so/2013.1/901 2013/11/27
 13 14  0  0  0  0  0  0  0  0999 V2000
    9.1192    0.0219   34.9698 C   0  0  0  0  0  0  0  0  0  0  0  0
    8.9111    1.2932   35.4576 N   0  0  0  0  0  0  0  0  0  0  0  0
    9.5983    1.6640   36.5699 C   0  0  0  0  0  0  0  0  0  0  0  0
   10.3484    0.8155   37.0456 O   0  0  0  0  0  0  0  0  0  0  0  0
   10.2090    3.2349   38.3041 C   0  0  0  0  0  0  0  0  0  0  0  0
    9.5015    2.8868   37.1733 N   0  0  0  0  0  0  0  0  0  0  0  0
    8.6354    3.7247   36.5417 C   0  0  0  0  0  0  0  0  0  0  0  0
    7.9530    3.3412   35.4238 C   0  0  0  0  0  0  0  0  0  0  0  0
    8.0444    2.0856   34.7949 C   0  0  0  0  0  0  0  0  0  0  0  0
    7.4616    1.6790   33.7929 O   0  0  0  0  0  0  0  0  0  0  0  0
    7.1764    4.4327   35.0623 N   0  0  0  0  0  0  0  0  0  0  0  0
    7.4409    5.3961   35.9797 C   0  0  0  0  0  0  0  0  0  0  0  0
    8.3041    5.0303   36.8885 N   0  0  0  0  0  0  0  0  0  0  0  0
  1  2  1  0  0  0  0
  2  3  1  0  0  0  0
  2  9  1  0  0  0  0
  3  4  2  0  0  0  0
  3  6  1  0  0  0  0
  6  5  1  0  0  0  0
  6  7  1  0  0  0  0
  7  8  2  0  0  0  0
  7 13  1  0  0  0  0
  8  9  1  0  0  0  0
  8 11  1  0  0  0  0
  9 10  2  0  0  0  0
 11 12  1  0  0  0  0
 12 13  2  0  0  0  0
M  END
>  <CHROM.1>
8.68588807,2.68984257,35.99257864,0.96608914,0.84232000,-2.60458926

>  <Name>
1o15_lig

>  <RI>
0

>  <Rbt.Current_Directory>
/home/itssahil/PROJECTS/Mol_Feturizer/New_Systems/rnas/1o15

>  <Rbt.Executable>
rbdock ($Id: //depot/dev/client3/rdock/2013.1/src/exe/rbdock.cxx#4 $)

>  <Rbt.Library>
libRbt.so (2013.1, Build901 2013/11/27)

>  <Rbt.Parameter_File>
/export/apps/rDock/src/rDock_2013.1_src/data/scripts/dock_solv.prm

>  <Rbt.Receptor>
prm/pocket_docking_3.prm

>  <SCORE>
-22.7499

>  <SCORE.INTER>
-22.8569

>  <SCORE.INTER.CONST>
1

>  <SCORE.INTER.POLAR>
-2.13773

>  <SCORE.INTER.ROT>
0

>  <SCORE.INTER.SOLV>
6.87574

>  <SCORE.INTER.VDW>
-14.0041

>  <SCORE.INTER.norm>
-1.75823

>  <SCORE.INTRA>
0

>  <SCORE.INTRA.DIHEDRAL>
0

>  <SCORE.INTRA.DIHEDRAL.0>
0

>  <SCORE.INTRA.POLAR>
0

>  <SCORE.INTRA.POLAR.0>
0

>  <SCORE.INTRA.REPUL>
0

>  <SCORE.INTRA.REPUL.0>
0

>  <SCORE.INTRA.SOLV>
0

>  <SCORE.INTRA.SOLV.lig_0>
-12.9184

>  <SCORE.INTRA.VDW>
0

>  <SCORE.INTRA.VDW.0>
0

>  <SCORE.INTRA.norm>
0

>  <SCORE.RESTR>
0.107068

>  <SCORE.RESTR.CAVITY>
0.107068

>  <SCORE.RESTR.norm>
0.00823603

>  <SCORE.SYSTEM>
0

>  <SCORE.SYSTEM.CONST>
0

>  <SCORE.SYSTEM.DIHEDRAL>
0

>  <SCORE.SYSTEM.SOLV>
0

>  <SCORE.SYSTEM.norm>
0

>  <SCORE.heavy>
13

>  <SCORE.norm>
-1.74999

>  <RMSD>
1.886

$$$$
1o15_lig
 OpenBabel11021811403D
libRbt.so/2013.1/901 2013/11/27
 13 14  0  0  0  0  0  0  0  0999 V2000
    9.1862    0.6909   34.9541 C   0  0  0  0  0  0  0  0  0  0  0  0
    9.1280    2.0247   35.2933 N   0  0  0  0  0  0  0  0  0  0  0  0
   10.1036    2.5144   36.1027 C   0  0  0  0  0  0  0  0  0  0  0  0
   10.9560    1.7077   36.4652 O   0  0  0  0  0  0  0  0  0  0  0  0
   11.1851    4.2802   37.3519 C   0  0  0  0  0  0  0  0  0  0  0  0
   10.1848    3.8113   36.5273 N   0  0  0  0  0  0  0  0  0  0  0  0
    9.1769    4.5912   36.0510 C   0  0  0  0  0  0  0  0  0  0  0  0
    8.2042    4.0880   35.2366 C   0  0  0  0  0  0  0  0  0  0  0  0
    8.1105    2.7554   34.7940 C   0  0  0  0  0  0  0  0  0  0  0  0
    7.2663    2.2408   34.0651 O   0  0  0  0  0  0  0  0  0  0  0  0
    7.3594    5.1520   34.9552 N   0  0  0  0  0  0  0  0  0  0  0  0
    7.8757    6.2196   35.6134 C   0  0  0  0  0  0  0  0  0  0  0  0
    8.9606    5.9449   36.2860 N   0  0  0  0  0  0  0  0  0  0  0  0
  1  2  1  0  0  0  0
  2  3  1  0  0  0  0
  2  9  1  0  0  0  0
  3  4  2  0  0  0  0
  3  6  1  0  0  0  0
  6  5  1  0  0  0  0
  6  7  1  0  0  0  0
  7  8  2  0  0  0  0
  7 13  1  0  0  0  0
  8  9  1  0  0  0  0
  8 11  1  0  0  0  0
  9 10  2  0  0  0  0
 11 12  1  0  0  0  0
 12 13  2  0  0  0  0
M  END
>  <CHROM.1>
9.06707311,3.48976841,35.66398812,1.14377301,0.58687761,-2.86566539

>  <Name>
1o15_lig

>  <RI>
0

>  <Rbt.Current_Directory>
/home/itssahil/PROJECTS/Mol_Feturizer/New_Systems/rnas/1o15

>  <Rbt.Executable>
rbdock ($Id: //depot/dev/client3/rdock/2013.1/src/exe/rbdock.cxx#4 $)

>  <Rbt.Library>
libRbt.so (2013.1, Build901 2013/11/27)

>  <Rbt.Parameter_File>
/export/apps/rDock/src/rDock_2013.1_src/data/scripts/dock_solv.prm

>  <Rbt.Receptor>
prm/pocket_docking_6.prm

>  <SCORE>
-19.9875

>  <SCORE.INTER>
-19.9875

>  <SCORE.INTER.CONST>
1

>  <SCORE.INTER.POLAR>
-1.80766

>  <SCORE.INTER.ROT>
0

>  <SCORE.INTER.SOLV>
7.68282

>  <SCORE.INTER.VDW>
-13.4604

>  <SCORE.INTER.norm>
-1.5375

>  <SCORE.INTRA>
0

>  <SCORE.INTRA.DIHEDRAL>
0

>  <SCORE.INTRA.DIHEDRAL.0>
0

>  <SCORE.INTRA.POLAR>
0

>  <SCORE.INTRA.POLAR.0>
0

>  <SCORE.INTRA.REPUL>
0

>  <SCORE.INTRA.REPUL.0>
0

>  <SCORE.INTRA.SOLV>
0

>  <SCORE.INTRA.SOLV.lig_0>
-12.9184

>  <SCORE.INTRA.VDW>
0

>  <SCORE.INTRA.VDW.0>
0

>  <SCORE.INTRA.norm>
0

>  <SCORE.RESTR>
0

>  <SCORE.RESTR.CAVITY>
0

>  <SCORE.RESTR.norm>
0

>  <SCORE.SYSTEM>
0

>  <SCORE.SYSTEM.CONST>
0

>  <SCORE.SYSTEM.DIHEDRAL>
0

>  <SCORE.SYSTEM.SOLV>
0

>  <SCORE.SYSTEM.norm>
0

>  <SCORE.heavy>
13

>  <SCORE.norm>
-1.5375

>  <RMSD>
1.890

$$$$
1o15_lig
 OpenBabel11021811403D
libRbt.so/2013.1/901 2013/11/27
 13 14  0  0  0  0  0  0  0  0999 V2000
    9.1279    0.0133   34.9526 C   0  0  0  0  0  0  0  0  0  0  0  0
    8.9229    1.2836   35.4444 N   0  0  0  0  0  0  0  0  0  0  0  0
    9.6140    1.6506   36.5555 C   0  0  0  0  0  0  0  0  0  0  0  0
   10.3645    0.7999   37.0266 O   0  0  0  0  0  0  0  0  0  0  0  0
   10.2322    3.2162   38.2919 C   0  0  0  0  0  0  0  0  0  0  0  0
    9.5207    2.8719   37.1624 N   0  0  0  0  0  0  0  0  0  0  0  0
    8.6537    3.7126   36.5357 C   0  0  0  0  0  0  0  0  0  0  0  0
    7.9673    3.3329   35.4189 C   0  0  0  0  0  0  0  0  0  0  0  0
    8.0552    2.0788   34.7864 C   0  0  0  0  0  0  0  0  0  0  0  0
    7.4687    1.6755   33.7852 O   0  0  0  0  0  0  0  0  0  0  0  0
    7.1910    4.4263   35.0627 N   0  0  0  0  0  0  0  0  0  0  0  0
    7.4597    5.3869   35.9817 C   0  0  0  0  0  0  0  0  0  0  0  0
    8.3252    5.0177   36.8868 N   0  0  0  0  0  0  0  0  0  0  0  0
  1  2  1  0  0  0  0
  2  3  1  0  0  0  0
  2  9  1  0  0  0  0
  3  4  2  0  0  0  0
  3  6  1  0  0  0  0
  6  5  1  0  0  0  0
  6  7  1  0  0  0  0
  7  8  2  0  0  0  0
  7 13  1  0  0  0  0
  8  9  1  0  0  0  0
  8 11  1  0  0  0  0
  9 10  2  0  0  0  0
 11 12  1  0  0  0  0
 12 13  2  0  0  0  0
M  END
>  <CHROM.1>
8.70119029,2.67911563,35.98367924,0.97013701,0.84029651,-2.60501060

>  <Name>
1o15_lig

>  <RI>
0

>  <Rbt.Current_Directory>
/home/itssahil/PROJECTS/Mol_Feturizer/New_Systems/rnas/1o15

>  <Rbt.Executable>
rbdock ($Id: //depot/dev/client3/rdock/2013.1/src/exe/rbdock.cxx#4 $)

>  <Rbt.Library>
libRbt.so (2013.1, Build901 2013/11/27)

>  <Rbt.Parameter_File>
/export/apps/rDock/src/rDock_2013.1_src/data/scripts/dock_solv.prm

>  <Rbt.Receptor>
prm/pocket_docking_3.prm

>  <SCORE>
-22.7955

>  <SCORE.INTER>
-22.9103

>  <SCORE.INTER.CONST>
1

>  <SCORE.INTER.POLAR>
-2.14079

>  <SCORE.INTER.ROT>
0

>  <SCORE.INTER.SOLV>
6.84153

>  <SCORE.INTER.VDW>
-14.0181

>  <SCORE.INTER.norm>
-1.76233

>  <SCORE.INTRA>
0

>  <SCORE.INTRA.DIHEDRAL>
0

>  <SCORE.INTRA.DIHEDRAL.0>
0

>  <SCORE.INTRA.POLAR>
0

>  <SCORE.INTRA.POLAR.0>
0

>  <SCORE.INTRA.REPUL>
0

>  <SCORE.INTRA.REPUL.0>
0

>  <SCORE.INTRA.SOLV>
0

>  <SCORE.INTRA.SOLV.lig_0>
-12.9184

>  <SCORE.INTRA.VDW>
0

>  <SCORE.INTRA.VDW.0>
0

>  <SCORE.INTRA.norm>
0

>  <SCORE.RESTR>
0.114752

>  <SCORE.RESTR.CAVITY>
0.114752

>  <SCORE.RESTR.norm>
0.0088271

>  <SCORE.SYSTEM>
0

>  <SCORE.SYSTEM.CONST>
0

>  <SCORE.SYSTEM.DIHEDRAL>
0

>  <SCORE.SYSTEM.SOLV>
0

>  <SCORE.SYSTEM.norm>
0

>  <SCORE.heavy>
13

>  <SCORE.norm>
-1.7535

>  <RMSD>
1.891

$$$$
1o15_lig
 OpenBabel11021811403D
libRbt.so/2013.1/901 2013/11/27
 13 14  0  0  0  0  0  0  0  0999 V2000
    9.2298    0.6618   34.9161 C   0  0  0  0  0  0  0  0  0  0  0  0
    9.1619    1.9923   35.2664 N   0  0  0  0  0  0  0  0  0  0  0  0
   10.1296    2.4805   36.0861 C   0  0  0  0  0  0  0  0  0  0  0  0
   10.9844    1.6756   36.4469 O   0  0  0  0  0  0  0  0  0  0  0  0
   11.1932    4.2416   37.3571 C   0  0  0  0  0  0  0  0  0  0  0  0
   10.2008    3.7741   36.5223 N   0  0  0  0  0  0  0  0  0  0  0  0
    9.1913    4.5524   36.0464 C   0  0  0  0  0  0  0  0  0  0  0  0
    8.2266    4.0507   35.2216 C   0  0  0  0  0  0  0  0  0  0  0  0
    8.1433    2.7214   34.7670 C   0  0  0  0  0  0  0  0  0  0  0  0
    7.3066    2.2083   34.0285 O   0  0  0  0  0  0  0  0  0  0  0  0
    7.3774    5.1122   34.9441 N   0  0  0  0  0  0  0  0  0  0  0  0
    7.8835    6.1770   35.6146 C   0  0  0  0  0  0  0  0  0  0  0  0
    8.9658    5.9028   36.2916 N   0  0  0  0  0  0  0  0  0  0  0  0
  1  2  1  0  0  0  0
  2  3  1  0  0  0  0
  2  9  1  0  0  0  0
  3  4  2  0  0  0  0
  3  6  1  0  0  0  0
  6  5  1  0  0  0  0
  6  7  1  0  0  0  0
  7  8  2  0  0  0  0
  7 13  1  0  0  0  0
  8  9  1  0  0  0  0
  8 11  1  0  0  0  0
  9 10  2  0  0  0  0
 11 12  1  0  0  0  0
 12 13  2  0  0  0  0
M  END
>  <CHROM.1>
9.09023816,3.45370877,35.64922667,1.13508945,0.59126166,-2.85224386

>  <Name>
1o15_lig

>  <RI>
0

>  <Rbt.Current_Directory>
/home/itssahil/PROJECTS/Mol_Feturizer/New_Systems/rnas/1o15

>  <Rbt.Executable>
rbdock ($Id: //depot/dev/client3/rdock/2013.1/src/exe/rbdock.cxx#4 $)

>  <Rbt.Library>
libRbt.so (2013.1, Build901 2013/11/27)

>  <Rbt.Parameter_File>
/export/apps/rDock/src/rDock_2013.1_src/data/scripts/dock_solv.prm

>  <Rbt.Receptor>
prm/pocket_docking_4.prm

>  <SCORE>
-19.9621

>  <SCORE.INTER>
-19.9621

>  <SCORE.INTER.CONST>
1

>  <SCORE.INTER.POLAR>
-1.79666

>  <SCORE.INTER.ROT>
0

>  <SCORE.INTER.SOLV>
7.67115

>  <SCORE.INTER.VDW>
-13.4762

>  <SCORE.INTER.norm>
-1.53554

>  <SCORE.INTRA>
0

>  <SCORE.INTRA.DIHEDRAL>
0

>  <SCORE.INTRA.DIHEDRAL.0>
0

>  <SCORE.INTRA.POLAR>
0

>  <SCORE.INTRA.POLAR.0>
0

>  <SCORE.INTRA.REPUL>
0

>  <SCORE.INTRA.REPUL.0>
0

>  <SCORE.INTRA.SOLV>
0

>  <SCORE.INTRA.SOLV.lig_0>
-12.9184

>  <SCORE.INTRA.VDW>
0

>  <SCORE.INTRA.VDW.0>
0

>  <SCORE.INTRA.norm>
0

>  <SCORE.RESTR>
0

>  <SCORE.RESTR.CAVITY>
0

>  <SCORE.RESTR.norm>
0

>  <SCORE.SYSTEM>
0

>  <SCORE.SYSTEM.CONST>
0

>  <SCORE.SYSTEM.DIHEDRAL>
0

>  <SCORE.SYSTEM.SOLV>
0

>  <SCORE.SYSTEM.norm>
0

>  <SCORE.heavy>
13

>  <SCORE.norm>
-1.53554

>  <RMSD>
1.892

$$$$
1o15_lig
 OpenBabel11021811403D
libRbt.so/2013.1/901 2013/11/27
 13 14  0  0  0  0  0  0  0  0999 V2000
    9.1811    0.1232   35.0480 C   0  0  0  0  0  0  0  0  0  0  0  0
    8.8918    1.3968   35.4858 N   0  0  0  0  0  0  0  0  0  0  0  0
    9.5114    1.8337   36.6136 C   0  0  0  0  0  0  0  0  0  0  0  0
   10.2795    1.0375   37.1474 O   0  0  0  0  0  0  0  0  0  0  0  0
    9.9705    3.4837   38.3211 C   0  0  0  0  0  0  0  0  0  0  0  0
    9.3304    3.0678   37.1732 N   0  0  0  0  0  0  0  0  0  0  0  0
    8.4539    3.8432   36.4792 C   0  0  0  0  0  0  0  0  0  0  0  0
    7.8399    3.3937   35.3463 C   0  0  0  0  0  0  0  0  0  0  0  0
    8.0182    2.1258   34.7621 C   0  0  0  0  0  0  0  0  0  0  0  0
    7.4997    1.6615   33.7500 O   0  0  0  0  0  0  0  0  0  0  0  0
    7.0288    4.4347   34.9177 N   0  0  0  0  0  0  0  0  0  0  0  0
    7.2071    5.4368   35.8142 C   0  0  0  0  0  0  0  0  0  0  0  0
    8.0461    5.1408   36.7698 N   0  0  0  0  0  0  0  0  0  0  0  0
  1  2  1  0  0  0  0
  2  3  1  0  0  0  0
  2  9  1  0  0  0  0
  3  4  2  0  0  0  0
  3  6  1  0  0  0  0
  6  5  1  0  0  0  0
  6  7  1  0  0  0  0
  7  8  2  0  0  0  0
  7 13  1  0  0  0  0
  8  9  1  0  0  0  0
  8 11  1  0  0  0  0
  9 10  2  0  0  0  0
 11 12  1  0  0  0  0
 12 13  2  0  0  0  0
M  END
>  <CHROM.1>
8.57738469,2.79614734,35.96594394,0.86992820,0.85326938,-2.56338923

>  <Name>
1o15_lig

>  <RI>
224

>  <Rbt.Current_Directory>
/home/itssahil/PROJECTS/Mol_Feturizer/New_Systems/rnas/1o15

>  <Rbt.Executable>
rbdock ($Id: //depot/dev/client3/rdock/2013.1/src/exe/rbdock.cxx#4 $)

>  <Rbt.Library>
libRbt.so (2013.1, Build901 2013/11/27)

>  <Rbt.Parameter_File>
/export/apps/rDock/src/rDock_2013.1_src/data/scripts/dock_solv.prm

>  <Rbt.Receptor>
prm/blind_docking_100.prm

>  <SCORE>
-22.073

>  <SCORE.INTER>
-22.5636

>  <SCORE.INTER.CONST>
1

>  <SCORE.INTER.POLAR>
-2.14055

>  <SCORE.INTER.ROT>
0

>  <SCORE.INTER.SOLV>
7.33633

>  <SCORE.INTER.VDW>
-13.9526

>  <SCORE.INTER.norm>
-1.73566

>  <SCORE.INTRA>
0

>  <SCORE.INTRA.DIHEDRAL>
0

>  <SCORE.INTRA.DIHEDRAL.0>
0

>  <SCORE.INTRA.POLAR>
0

>  <SCORE.INTRA.POLAR.0>
0

>  <SCORE.INTRA.REPUL>
0

>  <SCORE.INTRA.REPUL.0>
0

>  <SCORE.INTRA.SOLV>
0

>  <SCORE.INTRA.SOLV.lig_0>
-12.9184

>  <SCORE.INTRA.VDW>
0

>  <SCORE.INTRA.VDW.0>
0

>  <SCORE.INTRA.norm>
0

>  <SCORE.RESTR>
0.490561

>  <SCORE.RESTR.CAVITY>
0.490561

>  <SCORE.RESTR.norm>
0.0377355

>  <SCORE.SYSTEM>
0

>  <SCORE.SYSTEM.CONST>
0

>  <SCORE.SYSTEM.DIHEDRAL>
0

>  <SCORE.SYSTEM.SOLV>
0

>  <SCORE.SYSTEM.norm>
0

>  <SCORE.heavy>
13

>  <SCORE.norm>
-1.69792

>  <RMSD>
1.896

$$$$
1o15_lig
 OpenBabel11021811403D
libRbt.so/2013.1/901 2013/11/27
 13 14  0  0  0  0  0  0  0  0999 V2000
    9.1803    0.0435   34.9536 C   0  0  0  0  0  0  0  0  0  0  0  0
    8.9392    1.3110   35.4362 N   0  0  0  0  0  0  0  0  0  0  0  0
    9.6134    1.7026   36.5492 C   0  0  0  0  0  0  0  0  0  0  0  0
   10.3827    0.8746   37.0304 O   0  0  0  0  0  0  0  0  0  0  0  0
   10.1794    3.2943   38.2797 C   0  0  0  0  0  0  0  0  0  0  0  0
    9.4844    2.9247   37.1479 N   0  0  0  0  0  0  0  0  0  0  0  0
    8.6000    3.7387   36.5105 C   0  0  0  0  0  0  0  0  0  0  0  0
    7.9309    3.3345   35.3918 C   0  0  0  0  0  0  0  0  0  0  0  0
    8.0554    2.0793   34.7678 C   0  0  0  0  0  0  0  0  0  0  0  0
    7.4861    1.6549   33.7655 O   0  0  0  0  0  0  0  0  0  0  0  0
    7.1287    4.4052   35.0239 N   0  0  0  0  0  0  0  0  0  0  0  0
    7.3664    5.3781   35.9386 C   0  0  0  0  0  0  0  0  0  0  0  0
    8.2354    5.0369   36.8515 N   0  0  0  0  0  0  0  0  0  0  0  0
  1  2  1  0  0  0  0
  2  3  1  0  0  0  0
  2  9  1  0  0  0  0
  3  4  2  0  0  0  0
  3  6  1  0  0  0  0
  6  5  1  0  0  0  0
  6  7  1  0  0  0  0
  7  8  2  0  0  0  0
  7 13  1  0  0  0  0
  8  9  1  0  0  0  0
  8 11  1  0  0  0  0
  9 10  2  0  0  0  0
 11 12  1  0  0  0  0
 12 13  2  0  0  0  0
M  END
>  <CHROM.1>
8.67781506,2.70350996,35.96530229,0.93206410,0.83218677,-2.58291042

>  <Name>
1o15_lig

>  <RI>
0

>  <Rbt.Current_Directory>
/home/itssahil/PROJECTS/Mol_Feturizer/New_Systems/rnas/1o15

>  <Rbt.Executable>
rbdock ($Id: //depot/dev/client3/rdock/2013.1/src/exe/rbdock.cxx#4 $)

>  <Rbt.Library>
libRbt.so (2013.1, Build901 2013/11/27)

>  <Rbt.Parameter_File>
/export/apps/rDock/src/rDock_2013.1_src/data/scripts/dock_solv.prm

>  <Rbt.Receptor>
prm/pocket_docking_3.prm

>  <SCORE>
-22.9124

>  <SCORE.INTER>
-23.0469

>  <SCORE.INTER.CONST>
1

>  <SCORE.INTER.POLAR>
-2.12491

>  <SCORE.INTER.ROT>
0

>  <SCORE.INTER.SOLV>
7.00341

>  <SCORE.INTER.VDW>
-14.216

>  <SCORE.INTER.norm>
-1.77284

>  <SCORE.INTRA>
0

>  <SCORE.INTRA.DIHEDRAL>
0

>  <SCORE.INTRA.DIHEDRAL.0>
0

>  <SCORE.INTRA.POLAR>
0

>  <SCORE.INTRA.POLAR.0>
0

>  <SCORE.INTRA.REPUL>
0

>  <SCORE.INTRA.REPUL.0>
0

>  <SCORE.INTRA.SOLV>
0

>  <SCORE.INTRA.SOLV.lig_0>
-12.9184

>  <SCORE.INTRA.VDW>
0

>  <SCORE.INTRA.VDW.0>
0

>  <SCORE.INTRA.norm>
0

>  <SCORE.RESTR>
0.134526

>  <SCORE.RESTR.CAVITY>
0.134526

>  <SCORE.RESTR.norm>
0.0103481

>  <SCORE.SYSTEM>
0

>  <SCORE.SYSTEM.CONST>
0

>  <SCORE.SYSTEM.DIHEDRAL>
0

>  <SCORE.SYSTEM.SOLV>
0

>  <SCORE.SYSTEM.norm>
0

>  <SCORE.heavy>
13

>  <SCORE.norm>
-1.76249

>  <RMSD>
1.896

$$$$
1o15_lig
 OpenBabel11021811403D
libRbt.so/2013.1/901 2013/11/27
 13 14  0  0  0  0  0  0  0  0999 V2000
    9.1661    0.6967   34.9521 C   0  0  0  0  0  0  0  0  0  0  0  0
    9.1131    2.0303   35.2927 N   0  0  0  0  0  0  0  0  0  0  0  0
   10.0946    2.5170   36.0967 C   0  0  0  0  0  0  0  0  0  0  0  0
   10.9473    1.7080   36.4534 O   0  0  0  0  0  0  0  0  0  0  0  0
   11.1879    4.2793   37.3407 C   0  0  0  0  0  0  0  0  0  0  0  0
   10.1816    3.8134   36.5218 N   0  0  0  0  0  0  0  0  0  0  0  0
    9.1727    4.5961   36.0520 C   0  0  0  0  0  0  0  0  0  0  0  0
    8.1940    4.0958   35.2431 C   0  0  0  0  0  0  0  0  0  0  0  0
    8.0944    2.7638   34.8001 C   0  0  0  0  0  0  0  0  0  0  0  0
    7.2446    2.2518   34.0758 O   0  0  0  0  0  0  0  0  0  0  0  0
    7.3500    5.1620   34.9675 N   0  0  0  0  0  0  0  0  0  0  0  0
    7.8728    6.2279   35.6234 C   0  0  0  0  0  0  0  0  0  0  0  0
    8.9610    5.9501   36.2893 N   0  0  0  0  0  0  0  0  0  0  0  0
  1  2  1  0  0  0  0
  2  3  1  0  0  0  0
  2  9  1  0  0  0  0
  3  4  2  0  0  0  0
  3  6  1  0  0  0  0
  6  5  1  0  0  0  0
  6  7  1  0  0  0  0
  7  8  2  0  0  0  0
  7 13  1  0  0  0  0
  8  9  1  0  0  0  0
  8 11  1  0  0  0  0
  9 10  2  0  0  0  0
 11 12  1  0  0  0  0
 12 13  2  0  0  0  0
M  END
>  <CHROM.1>
9.05790126,3.49521765,35.66485171,1.14848726,0.58178264,-2.86750209

>  <Name>
1o15_lig

>  <RI>
0

>  <Rbt.Current_Directory>
/home/itssahil/PROJECTS/Mol_Feturizer/New_Systems/rnas/1o15

>  <Rbt.Executable>
rbdock ($Id: //depot/dev/client3/rdock/2013.1/src/exe/rbdock.cxx#4 $)

>  <Rbt.Library>
libRbt.so (2013.1, Build901 2013/11/27)

>  <Rbt.Parameter_File>
/export/apps/rDock/src/rDock_2013.1_src/data/scripts/dock_solv.prm

>  <Rbt.Receptor>
prm/pocket_docking_7.prm

>  <SCORE>
-19.9723

>  <SCORE.INTER>
-19.9723

>  <SCORE.INTER.CONST>
1

>  <SCORE.INTER.POLAR>
-1.78596

>  <SCORE.INTER.ROT>
0

>  <SCORE.INTER.SOLV>
7.70771

>  <SCORE.INTER.VDW>
-13.5309

>  <SCORE.INTER.norm>
-1.53633

>  <SCORE.INTRA>
0

>  <SCORE.INTRA.DIHEDRAL>
0

>  <SCORE.INTRA.DIHEDRAL.0>
0

>  <SCORE.INTRA.POLAR>
0

>  <SCORE.INTRA.POLAR.0>
0

>  <SCORE.INTRA.REPUL>
0

>  <SCORE.INTRA.REPUL.0>
0

>  <SCORE.INTRA.SOLV>
0

>  <SCORE.INTRA.SOLV.lig_0>
-12.9184

>  <SCORE.INTRA.VDW>
0

>  <SCORE.INTRA.VDW.0>
0

>  <SCORE.INTRA.norm>
0

>  <SCORE.RESTR>
0

>  <SCORE.RESTR.CAVITY>
0

>  <SCORE.RESTR.norm>
0

>  <SCORE.SYSTEM>
0

>  <SCORE.SYSTEM.CONST>
0

>  <SCORE.SYSTEM.DIHEDRAL>
0

>  <SCORE.SYSTEM.SOLV>
0

>  <SCORE.SYSTEM.norm>
0

>  <SCORE.heavy>
13

>  <SCORE.norm>
-1.53633

>  <RMSD>
1.896

$$$$
1o15_lig
 OpenBabel11021811403D
libRbt.so/2013.1/901 2013/11/27
 13 14  0  0  0  0  0  0  0  0999 V2000
    9.1696    0.6990   34.9466 C   0  0  0  0  0  0  0  0  0  0  0  0
    9.1159    2.0320   35.2895 N   0  0  0  0  0  0  0  0  0  0  0  0
   10.0978    2.5181   36.0935 C   0  0  0  0  0  0  0  0  0  0  0  0
   10.9514    1.7090   36.4481 O   0  0  0  0  0  0  0  0  0  0  0  0
   11.1908    4.2790   37.3396 C   0  0  0  0  0  0  0  0  0  0  0  0
   10.1842    3.8138   36.5207 N   0  0  0  0  0  0  0  0  0  0  0  0
    9.1743    4.5965   36.0532 C   0  0  0  0  0  0  0  0  0  0  0  0
    8.1953    4.0970   35.2442 C   0  0  0  0  0  0  0  0  0  0  0  0
    8.0963    2.7656   34.7990 C   0  0  0  0  0  0  0  0  0  0  0  0
    7.2463    2.2542   34.0746 O   0  0  0  0  0  0  0  0  0  0  0  0
    7.3503    5.1630   34.9712 N   0  0  0  0  0  0  0  0  0  0  0  0
    7.8729    6.2281   35.6285 C   0  0  0  0  0  0  0  0  0  0  0  0
    8.9619    5.9500   36.2929 N   0  0  0  0  0  0  0  0  0  0  0  0
  1  2  1  0  0  0  0
  2  3  1  0  0  0  0
  2  9  1  0  0  0  0
  3  4  2  0  0  0  0
  3  6  1  0  0  0  0
  6  5  1  0  0  0  0
  6  7  1  0  0  0  0
  7  8  2  0  0  0  0
  7 13  1  0  0  0  0
  8  9  1  0  0  0  0
  8 11  1  0  0  0  0
  9 10  2  0  0  0  0
 11 12  1  0  0  0  0
 12 13  2  0  0  0  0
M  END
>  <CHROM.1>
9.06001290,3.49624690,35.66421626,1.14793358,0.58077695,-2.86549489

>  <Name>
1o15_lig

>  <RI>
0

>  <Rbt.Current_Directory>
/home/itssahil/PROJECTS/Mol_Feturizer/New_Systems/rnas/1o15

>  <Rbt.Executable>
rbdock ($Id: //depot/dev/client3/rdock/2013.1/src/exe/rbdock.cxx#4 $)

>  <Rbt.Library>
libRbt.so (2013.1, Build901 2013/11/27)

>  <Rbt.Parameter_File>
/export/apps/rDock/src/rDock_2013.1_src/data/scripts/dock_solv.prm

>  <Rbt.Receptor>
prm/pocket_docking_6.prm

>  <SCORE>
-19.9717

>  <SCORE.INTER>
-19.9717

>  <SCORE.INTER.CONST>
1

>  <SCORE.INTER.POLAR>
-1.77642

>  <SCORE.INTER.ROT>
0

>  <SCORE.INTER.SOLV>
7.7154

>  <SCORE.INTER.VDW>
-13.5649

>  <SCORE.INTER.norm>
-1.53629

>  <SCORE.INTRA>
0

>  <SCORE.INTRA.DIHEDRAL>
0

>  <SCORE.INTRA.DIHEDRAL.0>
0

>  <SCORE.INTRA.POLAR>
0

>  <SCORE.INTRA.POLAR.0>
0

>  <SCORE.INTRA.REPUL>
0

>  <SCORE.INTRA.REPUL.0>
0

>  <SCORE.INTRA.SOLV>
0

>  <SCORE.INTRA.SOLV.lig_0>
-12.9184

>  <SCORE.INTRA.VDW>
0

>  <SCORE.INTRA.VDW.0>
0

>  <SCORE.INTRA.norm>
0

>  <SCORE.RESTR>
0

>  <SCORE.RESTR.CAVITY>
0

>  <SCORE.RESTR.norm>
0

>  <SCORE.SYSTEM>
0

>  <SCORE.SYSTEM.CONST>
0

>  <SCORE.SYSTEM.DIHEDRAL>
0

>  <SCORE.SYSTEM.SOLV>
0

>  <SCORE.SYSTEM.norm>
0

>  <SCORE.heavy>
13

>  <SCORE.norm>
-1.53629

>  <RMSD>
1.898

$$$$
1o15_lig
 OpenBabel11021811403D
libRbt.so/2013.1/901 2013/11/27
 13 14  0  0  0  0  0  0  0  0999 V2000
    9.1632    0.6994   34.9341 C   0  0  0  0  0  0  0  0  0  0  0  0
    9.1126    2.0308   35.2835 N   0  0  0  0  0  0  0  0  0  0  0  0
   10.0944    2.5102   36.0915 C   0  0  0  0  0  0  0  0  0  0  0  0
   10.9452    1.6972   36.4435 O   0  0  0  0  0  0  0  0  0  0  0  0
   11.1900    4.2620   37.3482 C   0  0  0  0  0  0  0  0  0  0  0  0
   10.1835    3.8035   36.5254 N   0  0  0  0  0  0  0  0  0  0  0  0
    9.1765    4.5913   36.0601 C   0  0  0  0  0  0  0  0  0  0  0  0
    8.1975    4.0984   35.2471 C   0  0  0  0  0  0  0  0  0  0  0  0
    8.0957    2.7695   34.7950 C   0  0  0  0  0  0  0  0  0  0  0  0
    7.2455    2.2641   34.0667 O   0  0  0  0  0  0  0  0  0  0  0  0
    7.3558    5.1681   34.9780 N   0  0  0  0  0  0  0  0  0  0  0  0
    7.8801    6.2285   35.6414 C   0  0  0  0  0  0  0  0  0  0  0  0
    8.9672    5.9442   36.3063 N   0  0  0  0  0  0  0  0  0  0  0  0
  1  2  1  0  0  0  0
  2  3  1  0  0  0  0
  2  9  1  0  0  0  0
  3  4  2  0  0  0  0
  3  6  1  0  0  0  0
  6  5  1  0  0  0  0
  6  7  1  0  0  0  0
  7  8  2  0  0  0  0
  7 13  1  0  0  0  0
  8  9  1  0  0  0  0
  8 11  1  0  0  0  0
  9 10  2  0  0  0  0
 11 12  1  0  0  0  0
 12 13  2  0  0  0  0
M  END
>  <CHROM.1>
9.05989005,3.49328685,35.66546965,1.15045374,0.58308021,-2.86187716

>  <Name>
1o15_lig

>  <RI>
0

>  <Rbt.Current_Directory>
/home/itssahil/PROJECTS/Mol_Feturizer/New_Systems/rnas/1o15

>  <Rbt.Executable>
rbdock ($Id: //depot/dev/client3/rdock/2013.1/src/exe/rbdock.cxx#4 $)

>  <Rbt.Library>
libRbt.so (2013.1, Build901 2013/11/27)

>  <Rbt.Parameter_File>
/export/apps/rDock/src/rDock_2013.1_src/data/scripts/dock_solv.prm

>  <Rbt.Receptor>
prm/pocket_docking_7.prm

>  <SCORE>
-19.9757

>  <SCORE.INTER>
-19.9757

>  <SCORE.INTER.CONST>
1

>  <SCORE.INTER.POLAR>
-1.75522

>  <SCORE.INTER.ROT>
0

>  <SCORE.INTER.SOLV>
7.70346

>  <SCORE.INTER.VDW>
-13.6342

>  <SCORE.INTER.norm>
-1.53659

>  <SCORE.INTRA>
0

>  <SCORE.INTRA.DIHEDRAL>
0

>  <SCORE.INTRA.DIHEDRAL.0>
0

>  <SCORE.INTRA.POLAR>
0

>  <SCORE.INTRA.POLAR.0>
0

>  <SCORE.INTRA.REPUL>
0

>  <SCORE.INTRA.REPUL.0>
0

>  <SCORE.INTRA.SOLV>
0

>  <SCORE.INTRA.SOLV.lig_0>
-12.9184

>  <SCORE.INTRA.VDW>
0

>  <SCORE.INTRA.VDW.0>
0

>  <SCORE.INTRA.norm>
0

>  <SCORE.RESTR>
0

>  <SCORE.RESTR.CAVITY>
0

>  <SCORE.RESTR.norm>
0

>  <SCORE.SYSTEM>
0

>  <SCORE.SYSTEM.CONST>
0

>  <SCORE.SYSTEM.DIHEDRAL>
0

>  <SCORE.SYSTEM.SOLV>
0

>  <SCORE.SYSTEM.norm>
0

>  <SCORE.heavy>
13

>  <SCORE.norm>
-1.53659

>  <RMSD>
1.901

$$$$
1o15_lig
 OpenBabel11021811403D
libRbt.so/2013.1/901 2013/11/27
 13 14  0  0  0  0  0  0  0  0999 V2000
    9.1993    0.6783   34.9062 C   0  0  0  0  0  0  0  0  0  0  0  0
    9.1391    2.0080   35.2607 N   0  0  0  0  0  0  0  0  0  0  0  0
   10.1123    2.4891   36.0781 C   0  0  0  0  0  0  0  0  0  0  0  0
   10.9646    1.6790   36.4332 O   0  0  0  0  0  0  0  0  0  0  0  0
   11.1892    4.2413   37.3502 C   0  0  0  0  0  0  0  0  0  0  0  0
   10.1913    3.7811   36.5179 N   0  0  0  0  0  0  0  0  0  0  0  0
    9.1838    4.5656   36.0483 C   0  0  0  0  0  0  0  0  0  0  0  0
    8.2135    4.0709   35.2259 C   0  0  0  0  0  0  0  0  0  0  0  0
    8.1221    2.7435   34.7676 C   0  0  0  0  0  0  0  0  0  0  0  0
    7.2800    2.2366   34.0308 O   0  0  0  0  0  0  0  0  0  0  0  0
    7.3683    5.1373   34.9548 N   0  0  0  0  0  0  0  0  0  0  0  0
    7.8821    6.1977   35.6266 C   0  0  0  0  0  0  0  0  0  0  0  0
    8.9657    5.9163   36.2984 N   0  0  0  0  0  0  0  0  0  0  0  0
  1  2  1  0  0  0  0
  2  3  1  0  0  0  0
  2  9  1  0  0  0  0
  3  4  2  0  0  0  0
  3  6  1  0  0  0  0
  6  5  1  0  0  0  0
  6  7  1  0  0  0  0
  7  8  2  0  0  0  0
  7 13  1  0  0  0  0
  8  9  1  0  0  0  0
  8 11  1  0  0  0  0
  9 10  2  0  0  0  0
 11 12  1  0  0  0  0
 12 13  2  0  0  0  0
M  END
>  <CHROM.1>
9.07589456,3.46858603,35.64827097,1.14193114,0.58885776,-2.85304133

>  <Name>
1o15_lig

>  <RI>
0

>  <Rbt.Current_Directory>
/home/itssahil/PROJECTS/Mol_Feturizer/New_Systems/rnas/1o15

>  <Rbt.Executable>
rbdock ($Id: //depot/dev/client3/rdock/2013.1/src/exe/rbdock.cxx#4 $)

>  <Rbt.Library>
libRbt.so (2013.1, Build901 2013/11/27)

>  <Rbt.Parameter_File>
/export/apps/rDock/src/rDock_2013.1_src/data/scripts/dock_solv.prm

>  <Rbt.Receptor>
prm/pocket_docking_6.prm

>  <SCORE>
-19.9904

>  <SCORE.INTER>
-19.9904

>  <SCORE.INTER.CONST>
1

>  <SCORE.INTER.POLAR>
-1.79032

>  <SCORE.INTER.ROT>
0

>  <SCORE.INTER.SOLV>
7.7032

>  <SCORE.INTER.VDW>
-13.5269

>  <SCORE.INTER.norm>
-1.53772

>  <SCORE.INTRA>
0

>  <SCORE.INTRA.DIHEDRAL>
0

>  <SCORE.INTRA.DIHEDRAL.0>
0

>  <SCORE.INTRA.POLAR>
0

>  <SCORE.INTRA.POLAR.0>
0

>  <SCORE.INTRA.REPUL>
0

>  <SCORE.INTRA.REPUL.0>
0

>  <SCORE.INTRA.SOLV>
0

>  <SCORE.INTRA.SOLV.lig_0>
-12.9184

>  <SCORE.INTRA.VDW>
0

>  <SCORE.INTRA.VDW.0>
0

>  <SCORE.INTRA.norm>
0

>  <SCORE.RESTR>
0

>  <SCORE.RESTR.CAVITY>
0

>  <SCORE.RESTR.norm>
0

>  <SCORE.SYSTEM>
0

>  <SCORE.SYSTEM.CONST>
0

>  <SCORE.SYSTEM.DIHEDRAL>
0

>  <SCORE.SYSTEM.SOLV>
0

>  <SCORE.SYSTEM.norm>
0

>  <SCORE.heavy>
13

>  <SCORE.norm>
-1.53772

>  <RMSD>
1.905

$$$$
1o15_lig
 OpenBabel11021811403D
libRbt.so/2013.1/901 2013/11/27
 13 14  0  0  0  0  0  0  0  0999 V2000
    9.2123    0.6932   34.9058 C   0  0  0  0  0  0  0  0  0  0  0  0
    9.1422    2.0223   35.2609 N   0  0  0  0  0  0  0  0  0  0  0  0
   10.1115    2.5101   36.0789 C   0  0  0  0  0  0  0  0  0  0  0  0
   10.9696    1.7061   36.4341 O   0  0  0  0  0  0  0  0  0  0  0  0
   11.1751    4.2696   37.3523 C   0  0  0  0  0  0  0  0  0  0  0  0
   10.1810    3.8024   36.5193 N   0  0  0  0  0  0  0  0  0  0  0  0
    9.1680    4.5798   36.0496 C   0  0  0  0  0  0  0  0  0  0  0  0
    8.2017    4.0784   35.2265 C   0  0  0  0  0  0  0  0  0  0  0  0
    8.1201    2.7505   34.7676 C   0  0  0  0  0  0  0  0  0  0  0  0
    7.2821    2.2379   34.0302 O   0  0  0  0  0  0  0  0  0  0  0  0
    7.3489    5.1388   34.9555 N   0  0  0  0  0  0  0  0  0  0  0  0
    7.8546    6.2026   35.6279 C   0  0  0  0  0  0  0  0  0  0  0  0
    8.9399    5.9287   36.3002 N   0  0  0  0  0  0  0  0  0  0  0  0
  1  2  1  0  0  0  0
  2  3  1  0  0  0  0
  2  9  1  0  0  0  0
  3  4  2  0  0  0  0
  3  6  1  0  0  0  0
  6  5  1  0  0  0  0
  6  7  1  0  0  0  0
  7  8  2  0  0  0  0
  7 13  1  0  0  0  0
  8  9  1  0  0  0  0
  8 11  1  0  0  0  0
  9 10  2  0  0  0  0
 11 12  1  0  0  0  0
 12 13  2  0  0  0  0
M  END
>  <CHROM.1>
9.06826600,3.48219709,35.64903164,1.13338883,0.58722563,-2.84787770

>  <Name>
1o15_lig

>  <RI>
0

>  <Rbt.Current_Directory>
/home/itssahil/PROJECTS/Mol_Feturizer/New_Systems/rnas/1o15

>  <Rbt.Executable>
rbdock ($Id: //depot/dev/client3/rdock/2013.1/src/exe/rbdock.cxx#4 $)

>  <Rbt.Library>
libRbt.so (2013.1, Build901 2013/11/27)

>  <Rbt.Parameter_File>
/export/apps/rDock/src/rDock_2013.1_src/data/scripts/dock_solv.prm

>  <Rbt.Receptor>
prm/pocket_docking_3.prm

>  <SCORE>
-19.9877

>  <SCORE.INTER>
-19.9877

>  <SCORE.INTER.CONST>
1

>  <SCORE.INTER.POLAR>
-1.78926

>  <SCORE.INTER.ROT>
0

>  <SCORE.INTER.SOLV>
7.74363

>  <SCORE.INTER.VDW>
-13.5422

>  <SCORE.INTER.norm>
-1.53752

>  <SCORE.INTRA>
0

>  <SCORE.INTRA.DIHEDRAL>
0

>  <SCORE.INTRA.DIHEDRAL.0>
0

>  <SCORE.INTRA.POLAR>
0

>  <SCORE.INTRA.POLAR.0>
0

>  <SCORE.INTRA.REPUL>
0

>  <SCORE.INTRA.REPUL.0>
0

>  <SCORE.INTRA.SOLV>
0

>  <SCORE.INTRA.SOLV.lig_0>
-12.9184

>  <SCORE.INTRA.VDW>
0

>  <SCORE.INTRA.VDW.0>
0

>  <SCORE.INTRA.norm>
0

>  <SCORE.RESTR>
0

>  <SCORE.RESTR.CAVITY>
0

>  <SCORE.RESTR.norm>
0

>  <SCORE.SYSTEM>
0

>  <SCORE.SYSTEM.CONST>
0

>  <SCORE.SYSTEM.DIHEDRAL>
0

>  <SCORE.SYSTEM.SOLV>
0

>  <SCORE.SYSTEM.norm>
0

>  <SCORE.heavy>
13

>  <SCORE.norm>
-1.53752

>  <RMSD>
1.907

$$$$
1o15_lig
 OpenBabel11021811403D
libRbt.so/2013.1/901 2013/11/27
 13 14  0  0  0  0  0  0  0  0999 V2000
    9.2023    0.6875   34.9075 C   0  0  0  0  0  0  0  0  0  0  0  0
    9.1360    2.0172   35.2610 N   0  0  0  0  0  0  0  0  0  0  0  0
   10.1064    2.5031   36.0789 C   0  0  0  0  0  0  0  0  0  0  0  0
   10.9620    1.6970   36.4352 O   0  0  0  0  0  0  0  0  0  0  0  0
   11.1746    4.2609   37.3507 C   0  0  0  0  0  0  0  0  0  0  0  0
   10.1794    3.7957   36.5179 N   0  0  0  0  0  0  0  0  0  0  0  0
    9.1688    4.5754   36.0469 C   0  0  0  0  0  0  0  0  0  0  0  0
    8.2014    4.0760   35.2240 C   0  0  0  0  0  0  0  0  0  0  0  0
    8.1162    2.7478   34.7666 C   0  0  0  0  0  0  0  0  0  0  0  0
    7.2770    2.2368   34.0294 O   0  0  0  0  0  0  0  0  0  0  0  0
    7.3518    5.1385   34.9516 N   0  0  0  0  0  0  0  0  0  0  0  0
    7.8603    6.2015   35.6230 C   0  0  0  0  0  0  0  0  0  0  0  0
    8.9446    5.9253   36.2960 N   0  0  0  0  0  0  0  0  0  0  0  0
  1  2  1  0  0  0  0
  2  3  1  0  0  0  0
  2  9  1  0  0  0  0
  3  4  2  0  0  0  0
  3  6  1  0  0  0  0
  6  5  1  0  0  0  0
  6  7  1  0  0  0  0
  7  8  2  0  0  0  0
  7 13  1  0  0  0  0
  8  9  1  0  0  0  0
  8 11  1  0  0  0  0
  9 10  2  0  0  0  0
 11 12  1  0  0  0  0
 12 13  2  0  0  0  0
M  END
>  <CHROM.1>
9.06610090,3.47771888,35.64754254,1.13659236,0.58839296,-2.85074466

>  <Name>
1o15_lig

>  <RI>
0

>  <Rbt.Current_Directory>
/home/itssahil/PROJECTS/Mol_Feturizer/New_Systems/rnas/1o15

>  <Rbt.Executable>
rbdock ($Id: //depot/dev/client3/rdock/2013.1/src/exe/rbdock.cxx#4 $)

>  <Rbt.Library>
libRbt.so (2013.1, Build901 2013/11/27)

>  <Rbt.Parameter_File>
/export/apps/rDock/src/rDock_2013.1_src/data/scripts/dock_solv.prm

>  <Rbt.Receptor>
prm/pocket_docking_5.prm

>  <SCORE>
-19.9894

>  <SCORE.INTER>
-19.9894

>  <SCORE.INTER.CONST>
1

>  <SCORE.INTER.POLAR>
-1.8019

>  <SCORE.INTER.ROT>
0

>  <SCORE.INTER.SOLV>
7.73373

>  <SCORE.INTER.VDW>
-13.4979

>  <SCORE.INTER.norm>
-1.53765

>  <SCORE.INTRA>
0

>  <SCORE.INTRA.DIHEDRAL>
0

>  <SCORE.INTRA.DIHEDRAL.0>
0

>  <SCORE.INTRA.POLAR>
0

>  <SCORE.INTRA.POLAR.0>
0

>  <SCORE.INTRA.REPUL>
0

>  <SCORE.INTRA.REPUL.0>
0

>  <SCORE.INTRA.SOLV>
0

>  <SCORE.INTRA.SOLV.lig_0>
-12.9184

>  <SCORE.INTRA.VDW>
0

>  <SCORE.INTRA.VDW.0>
0

>  <SCORE.INTRA.norm>
0

>  <SCORE.RESTR>
0

>  <SCORE.RESTR.CAVITY>
0

>  <SCORE.RESTR.norm>
0

>  <SCORE.SYSTEM>
0

>  <SCORE.SYSTEM.CONST>
0

>  <SCORE.SYSTEM.DIHEDRAL>
0

>  <SCORE.SYSTEM.SOLV>
0

>  <SCORE.SYSTEM.norm>
0

>  <SCORE.heavy>
13

>  <SCORE.norm>
-1.53765

>  <RMSD>
1.907

$$$$
1o15_lig
 OpenBabel11021811403D
libRbt.so/2013.1/901 2013/11/27
 13 14  0  0  0  0  0  0  0  0999 V2000
    9.2043    0.6913   34.9090 C   0  0  0  0  0  0  0  0  0  0  0  0
    9.1427    2.0216   35.2612 N   0  0  0  0  0  0  0  0  0  0  0  0
   10.1163    2.5055   36.0764 C   0  0  0  0  0  0  0  0  0  0  0  0
   10.9702    1.6972   36.4319 O   0  0  0  0  0  0  0  0  0  0  0  0
   11.1925    4.2615   37.3439 C   0  0  0  0  0  0  0  0  0  0  0  0
   10.1942    3.7984   36.5137 N   0  0  0  0  0  0  0  0  0  0  0  0
    9.1850    4.5806   36.0439 C   0  0  0  0  0  0  0  0  0  0  0  0
    8.2143    4.0832   35.2236 C   0  0  0  0  0  0  0  0  0  0  0  0
    8.1241    2.7547   34.7679 C   0  0  0  0  0  0  0  0  0  0  0  0
    7.2818    2.2454   34.0331 O   0  0  0  0  0  0  0  0  0  0  0  0
    7.3674    5.1479   34.9516 N   0  0  0  0  0  0  0  0  0  0  0  0
    7.8806    6.2102   35.6208 C   0  0  0  0  0  0  0  0  0  0  0  0
    8.9654    5.9315   36.2918 N   0  0  0  0  0  0  0  0  0  0  0  0
  1  2  1  0  0  0  0
  2  3  1  0  0  0  0
  2  9  1  0  0  0  0
  3  4  2  0  0  0  0
  3  6  1  0  0  0  0
  6  5  1  0  0  0  0
  6  7  1  0  0  0  0
  7  8  2  0  0  0  0
  7 13  1  0  0  0  0
  8  9  1  0  0  0  0
  8 11  1  0  0  0  0
  9 10  2  0  0  0  0
 11 12  1  0  0  0  0
 12 13  2  0  0  0  0
M  END
>  <CHROM.1>
9.07808191,3.48278128,35.64603868,1.14081206,0.58727196,-2.85428545

>  <Name>
1o15_lig

>  <RI>
0

>  <Rbt.Current_Directory>
/home/itssahil/PROJECTS/Mol_Feturizer/New_Systems/rnas/1o15

>  <Rbt.Executable>
rbdock ($Id: //depot/dev/client3/rdock/2013.1/src/exe/rbdock.cxx#4 $)

>  <Rbt.Library>
libRbt.so (2013.1, Build901 2013/11/27)

>  <Rbt.Parameter_File>
/export/apps/rDock/src/rDock_2013.1_src/data/scripts/dock_solv.prm

>  <Rbt.Receptor>
prm/pocket_docking_6.prm

>  <SCORE>
-19.9894

>  <SCORE.INTER>
-19.9894

>  <SCORE.INTER.CONST>
1

>  <SCORE.INTER.POLAR>
-1.8139

>  <SCORE.INTER.ROT>
0

>  <SCORE.INTER.SOLV>
7.7238

>  <SCORE.INTER.VDW>
-13.4546

>  <SCORE.INTER.norm>
-1.53765

>  <SCORE.INTRA>
0

>  <SCORE.INTRA.DIHEDRAL>
0

>  <SCORE.INTRA.DIHEDRAL.0>
0

>  <SCORE.INTRA.POLAR>
0

>  <SCORE.INTRA.POLAR.0>
0

>  <SCORE.INTRA.REPUL>
0

>  <SCORE.INTRA.REPUL.0>
0

>  <SCORE.INTRA.SOLV>
0

>  <SCORE.INTRA.SOLV.lig_0>
-12.9184

>  <SCORE.INTRA.VDW>
0

>  <SCORE.INTRA.VDW.0>
0

>  <SCORE.INTRA.norm>
0

>  <SCORE.RESTR>
0

>  <SCORE.RESTR.CAVITY>
0

>  <SCORE.RESTR.norm>
0

>  <SCORE.SYSTEM>
0

>  <SCORE.SYSTEM.CONST>
0

>  <SCORE.SYSTEM.DIHEDRAL>
0

>  <SCORE.SYSTEM.SOLV>
0

>  <SCORE.SYSTEM.norm>
0

>  <SCORE.heavy>
13

>  <SCORE.norm>
-1.53765

>  <RMSD>
1.907

$$$$
1o15_lig
 OpenBabel11021811403D
libRbt.so/2013.1/901 2013/11/27
 13 14  0  0  0  0  0  0  0  0999 V2000
    9.2019    0.6834   34.9039 C   0  0  0  0  0  0  0  0  0  0  0  0
    9.1352    2.0125   35.2595 N   0  0  0  0  0  0  0  0  0  0  0  0
   10.1055    2.4974   36.0781 C   0  0  0  0  0  0  0  0  0  0  0  0
   10.9613    1.6909   36.4332 O   0  0  0  0  0  0  0  0  0  0  0  0
   11.1734    4.2534   37.3527 C   0  0  0  0  0  0  0  0  0  0  0  0
   10.1783    3.7893   36.5191 N   0  0  0  0  0  0  0  0  0  0  0  0
    9.1675    4.5695   36.0494 C   0  0  0  0  0  0  0  0  0  0  0  0
    8.2002    4.0712   35.2257 C   0  0  0  0  0  0  0  0  0  0  0  0
    8.1152    2.7437   34.7662 C   0  0  0  0  0  0  0  0  0  0  0  0
    7.2761    2.2336   34.0283 O   0  0  0  0  0  0  0  0  0  0  0  0
    7.3503    5.1339   34.9549 N   0  0  0  0  0  0  0  0  0  0  0  0
    7.8586    6.1960   35.6280 C   0  0  0  0  0  0  0  0  0  0  0  0
    8.9430    5.9190   36.3005 N   0  0  0  0  0  0  0  0  0  0  0  0
  1  2  1  0  0  0  0
  2  3  1  0  0  0  0
  2  9  1  0  0  0  0
  3  4  2  0  0  0  0
  3  6  1  0  0  0  0
  6  5  1  0  0  0  0
  6  7  1  0  0  0  0
  7  8  2  0  0  0  0
  7 13  1  0  0  0  0
  8  9  1  0  0  0  0
  8 11  1  0  0  0  0
  9 10  2  0  0  0  0
 11 12  1  0  0  0  0
 12 13  2  0  0  0  0
M  END
>  <CHROM.1>
9.06500825,3.47244025,35.64830161,1.13634382,0.58832698,-2.84906205

>  <Name>
1o15_lig

>  <RI>
0

>  <Rbt.Current_Directory>
/home/itssahil/PROJECTS/Mol_Feturizer/New_Systems/rnas/1o15

>  <Rbt.Executable>
rbdock ($Id: //depot/dev/client3/rdock/2013.1/src/exe/rbdock.cxx#4 $)

>  <Rbt.Library>
libRbt.so (2013.1, Build901 2013/11/27)

>  <Rbt.Parameter_File>
/export/apps/rDock/src/rDock_2013.1_src/data/scripts/dock_solv.prm

>  <Rbt.Receptor>
prm/pocket_docking_8.prm

>  <SCORE>
-19.9916

>  <SCORE.INTER>
-19.9916

>  <SCORE.INTER.CONST>
1

>  <SCORE.INTER.POLAR>
-1.78604

>  <SCORE.INTER.ROT>
0

>  <SCORE.INTER.SOLV>
7.73162

>  <SCORE.INTER.VDW>
-13.5515

>  <SCORE.INTER.norm>
-1.53782

>  <SCORE.INTRA>
0

>  <SCORE.INTRA.DIHEDRAL>
0

>  <SCORE.INTRA.DIHEDRAL.0>
0

>  <SCORE.INTRA.POLAR>
0

>  <SCORE.INTRA.POLAR.0>
0

>  <SCORE.INTRA.REPUL>
0

>  <SCORE.INTRA.REPUL.0>
0

>  <SCORE.INTRA.SOLV>
0

>  <SCORE.INTRA.SOLV.lig_0>
-12.9184

>  <SCORE.INTRA.VDW>
0

>  <SCORE.INTRA.VDW.0>
0

>  <SCORE.INTRA.norm>
0

>  <SCORE.RESTR>
0

>  <SCORE.RESTR.CAVITY>
0

>  <SCORE.RESTR.norm>
0

>  <SCORE.SYSTEM>
0

>  <SCORE.SYSTEM.CONST>
0

>  <SCORE.SYSTEM.DIHEDRAL>
0

>  <SCORE.SYSTEM.SOLV>
0

>  <SCORE.SYSTEM.norm>
0

>  <SCORE.heavy>
13

>  <SCORE.norm>
-1.53782

>  <RMSD>
1.907

$$$$
1o15_lig
 OpenBabel11021811403D
libRbt.so/2013.1/901 2013/11/27
 13 14  0  0  0  0  0  0  0  0999 V2000
    9.0604    0.0817   35.1506 C   0  0  0  0  0  0  0  0  0  0  0  0
    8.7827    1.3632   35.5725 N   0  0  0  0  0  0  0  0  0  0  0  0
    9.3612    1.7883   36.7263 C   0  0  0  0  0  0  0  0  0  0  0  0
   10.0848    0.9753   37.2958 O   0  0  0  0  0  0  0  0  0  0  0  0
    9.7829    3.4318   38.4496 C   0  0  0  0  0  0  0  0  0  0  0  0
    9.1853    3.0281   37.2748 N   0  0  0  0  0  0  0  0  0  0  0  0
    8.3601    3.8225   36.5404 C   0  0  0  0  0  0  0  0  0  0  0  0
    7.7871    3.3846   35.3818 C   0  0  0  0  0  0  0  0  0  0  0  0
    7.9607    2.1110   34.8087 C   0  0  0  0  0  0  0  0  0  0  0  0
    7.4772    1.6564   33.7751 O   0  0  0  0  0  0  0  0  0  0  0  0
    7.0218    4.4436   34.9151 N   0  0  0  0  0  0  0  0  0  0  0  0
    7.1837    5.4438   35.8167 C   0  0  0  0  0  0  0  0  0  0  0  0
    7.9714    5.1305   36.8098 N   0  0  0  0  0  0  0  0  0  0  0  0
  1  2  1  0  0  0  0
  2  3  1  0  0  0  0
  2  9  1  0  0  0  0
  3  4  2  0  0  0  0
  3  6  1  0  0  0  0
  6  5  1  0  0  0  0
  6  7  1  0  0  0  0
  7  8  2  0  0  0  0
  7 13  1  0  0  0  0
  8  9  1  0  0  0  0
  8 11  1  0  0  0  0
  9 10  2  0  0  0  0
 11 12  1  0  0  0  0
 12 13  2  0  0  0  0
M  END
>  <CHROM.1>
8.48111658,2.77118519,36.03528169,0.86302233,0.90437382,-2.56051670

>  <Name>
1o15_lig

>  <RI>
0

>  <Rbt.Current_Directory>
/home/itssahil/PROJECTS/Mol_Feturizer/New_Systems/rnas/1o15

>  <Rbt.Executable>
rbdock ($Id: //depot/dev/client3/rdock/2013.1/src/exe/rbdock.cxx#4 $)

>  <Rbt.Library>
libRbt.so (2013.1, Build901 2013/11/27)

>  <Rbt.Parameter_File>
/export/apps/rDock/src/rDock_2013.1_src/data/scripts/dock_solv.prm

>  <Rbt.Receptor>
prm/blind_docking_40.prm

>  <SCORE>
-22.1606

>  <SCORE.INTER>
-22.3416

>  <SCORE.INTER.CONST>
1

>  <SCORE.INTER.POLAR>
-2.21048

>  <SCORE.INTER.ROT>
0

>  <SCORE.INTER.SOLV>
7.46259

>  <SCORE.INTER.VDW>
-13.6137

>  <SCORE.INTER.norm>
-1.71859

>  <SCORE.INTRA>
0

>  <SCORE.INTRA.DIHEDRAL>
0

>  <SCORE.INTRA.DIHEDRAL.0>
0

>  <SCORE.INTRA.POLAR>
0

>  <SCORE.INTRA.POLAR.0>
0

>  <SCORE.INTRA.REPUL>
0

>  <SCORE.INTRA.REPUL.0>
0

>  <SCORE.INTRA.SOLV>
0

>  <SCORE.INTRA.SOLV.lig_0>
-12.9184

>  <SCORE.INTRA.VDW>
0

>  <SCORE.INTRA.VDW.0>
0

>  <SCORE.INTRA.norm>
0

>  <SCORE.RESTR>
0.181019

>  <SCORE.RESTR.CAVITY>
0.181019

>  <SCORE.RESTR.norm>
0.0139246

>  <SCORE.SYSTEM>
0

>  <SCORE.SYSTEM.CONST>
0

>  <SCORE.SYSTEM.DIHEDRAL>
0

>  <SCORE.SYSTEM.SOLV>
0

>  <SCORE.SYSTEM.norm>
0

>  <SCORE.heavy>
13

>  <SCORE.norm>
-1.70466

>  <RMSD>
1.910

$$$$
1o15_lig
 OpenBabel11021811403D
libRbt.so/2013.1/901 2013/11/27
 13 14  0  0  0  0  0  0  0  0999 V2000
    9.0602    0.0790   35.1484 C   0  0  0  0  0  0  0  0  0  0  0  0
    8.7824    1.3601   35.5715 N   0  0  0  0  0  0  0  0  0  0  0  0
    9.3595    1.7836   36.7266 C   0  0  0  0  0  0  0  0  0  0  0  0
   10.0821    0.9696   37.2960 O   0  0  0  0  0  0  0  0  0  0  0  0
    9.7795    3.4248   38.4524 C   0  0  0  0  0  0  0  0  0  0  0  0
    9.1833    3.0228   37.2763 N   0  0  0  0  0  0  0  0  0  0  0  0
    8.3594    3.8184   36.5418 C   0  0  0  0  0  0  0  0  0  0  0  0
    7.7878    3.3821   35.3819 C   0  0  0  0  0  0  0  0  0  0  0  0
    7.9616    2.1092   34.8075 C   0  0  0  0  0  0  0  0  0  0  0  0
    7.4793    1.6560   33.7727 O   0  0  0  0  0  0  0  0  0  0  0  0
    7.0235    4.4420   34.9155 N   0  0  0  0  0  0  0  0  0  0  0  0
    7.1847    5.4410   35.8186 C   0  0  0  0  0  0  0  0  0  0  0  0
    7.9708    5.1262   36.8124 N   0  0  0  0  0  0  0  0  0  0  0  0
  1  2  1  0  0  0  0
  2  3  1  0  0  0  0
  2  9  1  0  0  0  0
  3  4  2  0  0  0  0
  3  6  1  0  0  0  0
  6  5  1  0  0  0  0
  6  7  1  0  0  0  0
  7  8  2  0  0  0  0
  7 13  1  0  0  0  0
  8  9  1  0  0  0  0
  8 11  1  0  0  0  0
  9 10  2  0  0  0  0
 11 12  1  0  0  0  0
 12 13  2  0  0  0  0
M  END
>  <CHROM.1>
8.48071874,2.76765265,36.03556424,0.86235833,0.90568699,-2.55875593

>  <Name>
1o15_lig

>  <RI>
0

>  <Rbt.Current_Directory>
/home/itssahil/PROJECTS/Mol_Feturizer/New_Systems/rnas/1o15

>  <Rbt.Executable>
rbdock ($Id: //depot/dev/client3/rdock/2013.1/src/exe/rbdock.cxx#4 $)

>  <Rbt.Library>
libRbt.so (2013.1, Build901 2013/11/27)

>  <Rbt.Parameter_File>
/export/apps/rDock/src/rDock_2013.1_src/data/scripts/dock_solv.prm

>  <Rbt.Receptor>
prm/blind_docking_40.prm

>  <SCORE>
-22.1731

>  <SCORE.INTER>
-22.3561

>  <SCORE.INTER.CONST>
1

>  <SCORE.INTER.POLAR>
-2.21367

>  <SCORE.INTER.ROT>
0

>  <SCORE.INTER.SOLV>
7.4617

>  <SCORE.INTER.VDW>
-13.6124

>  <SCORE.INTER.norm>
-1.7197

>  <SCORE.INTRA>
0

>  <SCORE.INTRA.DIHEDRAL>
0

>  <SCORE.INTRA.DIHEDRAL.0>
0

>  <SCORE.INTRA.POLAR>
0

>  <SCORE.INTRA.POLAR.0>
0

>  <SCORE.INTRA.REPUL>
0

>  <SCORE.INTRA.REPUL.0>
0

>  <SCORE.INTRA.SOLV>
0

>  <SCORE.INTRA.SOLV.lig_0>
-12.9184

>  <SCORE.INTRA.VDW>
0

>  <SCORE.INTRA.VDW.0>
0

>  <SCORE.INTRA.norm>
0

>  <SCORE.RESTR>
0.182969

>  <SCORE.RESTR.CAVITY>
0.182969

>  <SCORE.RESTR.norm>
0.0140745

>  <SCORE.SYSTEM>
0

>  <SCORE.SYSTEM.CONST>
0

>  <SCORE.SYSTEM.DIHEDRAL>
0

>  <SCORE.SYSTEM.SOLV>
0

>  <SCORE.SYSTEM.norm>
0

>  <SCORE.heavy>
13

>  <SCORE.norm>
-1.70562

>  <RMSD>
1.912

$$$$
1o15_lig
 OpenBabel11021811403D
libRbt.so/2013.1/901 2013/11/27
 13 14  0  0  0  0  0  0  0  0999 V2000
    9.2041    0.4820   34.8562 C   0  0  0  0  0  0  0  0  0  0  0  0
    9.1265    1.8091   35.2173 N   0  0  0  0  0  0  0  0  0  0  0  0
   10.0766    2.2915   36.0607 C   0  0  0  0  0  0  0  0  0  0  0  0
   10.9256    1.4848   36.4312 O   0  0  0  0  0  0  0  0  0  0  0  0
   11.1110    4.0428   37.3689 C   0  0  0  0  0  0  0  0  0  0  0  0
   10.1364    3.5812   36.5101 N   0  0  0  0  0  0  0  0  0  0  0  0
    9.1351    4.3619   36.0212 C   0  0  0  0  0  0  0  0  0  0  0  0
    8.1882    3.8661   35.1727 C   0  0  0  0  0  0  0  0  0  0  0  0
    8.1167    2.5409   34.7044 C   0  0  0  0  0  0  0  0  0  0  0  0
    7.2959    2.0331   33.9445 O   0  0  0  0  0  0  0  0  0  0  0  0
    7.3426    4.9286   34.8879 N   0  0  0  0  0  0  0  0  0  0  0  0
    7.8330    5.9881   35.5782 C   0  0  0  0  0  0  0  0  0  0  0  0
    8.9020    5.7096   36.2742 N   0  0  0  0  0  0  0  0  0  0  0  0
  1  2  1  0  0  0  0
  2  3  1  0  0  0  0
  2  9  1  0  0  0  0
  3  4  2  0  0  0  0
  3  6  1  0  0  0  0
  6  5  1  0  0  0  0
  6  7  1  0  0  0  0
  7  8  2  0  0  0  0
  7 13  1  0  0  0  0
  8  9  1  0  0  0  0
  8 11  1  0  0  0  0
  9 10  2  0  0  0  0
 11 12  1  0  0  0  0
 12 13  2  0  0  0  0
M  END
>  <CHROM.1>
9.04425071,3.26678141,35.61203509,1.12575279,0.60986267,-2.83776714

>  <Name>
1o15_lig

>  <RI>
0

>  <Rbt.Current_Directory>
/home/itssahil/PROJECTS/Mol_Feturizer/New_Systems/rnas/1o15

>  <Rbt.Executable>
rbdock ($Id: //depot/dev/client3/rdock/2013.1/src/exe/rbdock.cxx#4 $)

>  <Rbt.Library>
libRbt.so (2013.1, Build901 2013/11/27)

>  <Rbt.Parameter_File>
/export/apps/rDock/src/rDock_2013.1_src/data/scripts/dock_solv.prm

>  <Rbt.Receptor>
prm/pocket_docking_3.prm

>  <SCORE>
-19.8626

>  <SCORE.INTER>
-19.8626

>  <SCORE.INTER.CONST>
1

>  <SCORE.INTER.POLAR>
-1.82175

>  <SCORE.INTER.ROT>
0

>  <SCORE.INTER.SOLV>
7.58349

>  <SCORE.INTER.VDW>
-13.2971

>  <SCORE.INTER.norm>
-1.52789

>  <SCORE.INTRA>
0

>  <SCORE.INTRA.DIHEDRAL>
0

>  <SCORE.INTRA.DIHEDRAL.0>
0

>  <SCORE.INTRA.POLAR>
0

>  <SCORE.INTRA.POLAR.0>
0

>  <SCORE.INTRA.REPUL>
0

>  <SCORE.INTRA.REPUL.0>
0

>  <SCORE.INTRA.SOLV>
0

>  <SCORE.INTRA.SOLV.lig_0>
-12.9184

>  <SCORE.INTRA.VDW>
0

>  <SCORE.INTRA.VDW.0>
0

>  <SCORE.INTRA.norm>
0

>  <SCORE.RESTR>
0

>  <SCORE.RESTR.CAVITY>
0

>  <SCORE.RESTR.norm>
0

>  <SCORE.SYSTEM>
0

>  <SCORE.SYSTEM.CONST>
0

>  <SCORE.SYSTEM.DIHEDRAL>
0

>  <SCORE.SYSTEM.SOLV>
0

>  <SCORE.SYSTEM.norm>
0

>  <SCORE.heavy>
13

>  <SCORE.norm>
-1.52789

>  <RMSD>
1.913

$$$$
1o15_lig
 OpenBabel11021811403D
libRbt.so/2013.1/901 2013/11/27
 13 14  0  0  0  0  0  0  0  0999 V2000
    9.1818    0.6936   34.8975 C   0  0  0  0  0  0  0  0  0  0  0  0
    9.1259    2.0226   35.2554 N   0  0  0  0  0  0  0  0  0  0  0  0
   10.1018    2.4989   36.0725 C   0  0  0  0  0  0  0  0  0  0  0  0
   10.9523    1.6855   36.4243 O   0  0  0  0  0  0  0  0  0  0  0  0
   11.1857    4.2448   37.3473 C   0  0  0  0  0  0  0  0  0  0  0  0
   10.1853    3.7895   36.5153 N   0  0  0  0  0  0  0  0  0  0  0  0
    9.1793    4.5781   36.0492 C   0  0  0  0  0  0  0  0  0  0  0  0
    8.2064    4.0883   35.2270 C   0  0  0  0  0  0  0  0  0  0  0  0
    8.1104    2.7623   34.7656 C   0  0  0  0  0  0  0  0  0  0  0  0
    7.2657    2.2597   34.0288 O   0  0  0  0  0  0  0  0  0  0  0  0
    7.3639    5.1579   34.9598 N   0  0  0  0  0  0  0  0  0  0  0  0
    7.8817    6.2150   35.6334 C   0  0  0  0  0  0  0  0  0  0  0  0
    8.9655    5.9288   36.3030 N   0  0  0  0  0  0  0  0  0  0  0  0
  1  2  1  0  0  0  0
  2  3  1  0  0  0  0
  2  9  1  0  0  0  0
  3  4  2  0  0  0  0
  3  6  1  0  0  0  0
  6  5  1  0  0  0  0
  6  7  1  0  0  0  0
  7  8  2  0  0  0  0
  7 13  1  0  0  0  0
  8  9  1  0  0  0  0
  8 11  1  0  0  0  0
  9 10  2  0  0  0  0
 11 12  1  0  0  0  0
 12 13  2  0  0  0  0
M  END
>  <CHROM.1>
9.06762211,3.48243063,35.64660967,1.14580305,0.58825909,-2.85272040

>  <Name>
1o15_lig

>  <RI>
0

>  <Rbt.Current_Directory>
/home/itssahil/PROJECTS/Mol_Feturizer/New_Systems/rnas/1o15

>  <Rbt.Executable>
rbdock ($Id: //depot/dev/client3/rdock/2013.1/src/exe/rbdock.cxx#4 $)

>  <Rbt.Library>
libRbt.so (2013.1, Build901 2013/11/27)

>  <Rbt.Parameter_File>
/export/apps/rDock/src/rDock_2013.1_src/data/scripts/dock_solv.prm

>  <Rbt.Receptor>
prm/pocket_docking_6.prm

>  <SCORE>
-19.98

>  <SCORE.INTER>
-19.98

>  <SCORE.INTER.CONST>
1

>  <SCORE.INTER.POLAR>
-1.79491

>  <SCORE.INTER.ROT>
0

>  <SCORE.INTER.SOLV>
7.72583

>  <SCORE.INTER.VDW>
-13.5123

>  <SCORE.INTER.norm>
-1.53692

>  <SCORE.INTRA>
0

>  <SCORE.INTRA.DIHEDRAL>
0

>  <SCORE.INTRA.DIHEDRAL.0>
0

>  <SCORE.INTRA.POLAR>
0

>  <SCORE.INTRA.POLAR.0>
0

>  <SCORE.INTRA.REPUL>
0

>  <SCORE.INTRA.REPUL.0>
0

>  <SCORE.INTRA.SOLV>
0

>  <SCORE.INTRA.SOLV.lig_0>
-12.9184

>  <SCORE.INTRA.VDW>
0

>  <SCORE.INTRA.VDW.0>
0

>  <SCORE.INTRA.norm>
0

>  <SCORE.RESTR>
0

>  <SCORE.RESTR.CAVITY>
0

>  <SCORE.RESTR.norm>
0

>  <SCORE.SYSTEM>
0

>  <SCORE.SYSTEM.CONST>
0

>  <SCORE.SYSTEM.DIHEDRAL>
0

>  <SCORE.SYSTEM.SOLV>
0

>  <SCORE.SYSTEM.norm>
0

>  <SCORE.heavy>
13

>  <SCORE.norm>
-1.53692

>  <RMSD>
1.914

$$$$
1o15_lig
 OpenBabel11021811403D
libRbt.so/2013.1/901 2013/11/27
 13 14  0  0  0  0  0  0  0  0999 V2000
    9.0709    0.0826   35.1389 C   0  0  0  0  0  0  0  0  0  0  0  0
    8.7876    1.3617   35.5646 N   0  0  0  0  0  0  0  0  0  0  0  0
    9.3608    1.7843   36.7220 C   0  0  0  0  0  0  0  0  0  0  0  0
   10.0850    0.9714   37.2909 O   0  0  0  0  0  0  0  0  0  0  0  0
    9.7713    3.4226   38.4529 C   0  0  0  0  0  0  0  0  0  0  0  0
    9.1790    3.0215   37.2745 N   0  0  0  0  0  0  0  0  0  0  0  0
    8.3539    3.8159   36.5402 C   0  0  0  0  0  0  0  0  0  0  0  0
    7.7863    3.3806   35.3780 C   0  0  0  0  0  0  0  0  0  0  0  0
    7.9659    2.1097   34.8008 C   0  0  0  0  0  0  0  0  0  0  0  0
    7.4874    1.6574   33.7638 O   0  0  0  0  0  0  0  0  0  0  0  0
    7.0192    4.4389   34.9126 N   0  0  0  0  0  0  0  0  0  0  0  0
    7.1749    5.4362   35.8186 C   0  0  0  0  0  0  0  0  0  0  0  0
    7.9601    5.1217   36.8132 N   0  0  0  0  0  0  0  0  0  0  0  0
  1  2  1  0  0  0  0
  2  3  1  0  0  0  0
  2  9  1  0  0  0  0
  3  4  2  0  0  0  0
  3  6  1  0  0  0  0
  6  5  1  0  0  0  0
  6  7  1  0  0  0  0
  7  8  2  0  0  0  0
  7 13  1  0  0  0  0
  8  9  1  0  0  0  0
  8 11  1  0  0  0  0
  9 10  2  0  0  0  0
 11 12  1  0  0  0  0
 12 13  2  0  0  0  0
M  END
>  <CHROM.1>
8.47997812,2.76694057,36.03159135,0.85563827,0.90550451,-2.55096464

>  <Name>
1o15_lig

>  <RI>
0

>  <Rbt.Current_Directory>
/home/itssahil/PROJECTS/Mol_Feturizer/New_Systems/rnas/1o15

>  <Rbt.Executable>
rbdock ($Id: //depot/dev/client3/rdock/2013.1/src/exe/rbdock.cxx#4 $)

>  <Rbt.Library>
libRbt.so (2013.1, Build901 2013/11/27)

>  <Rbt.Parameter_File>
/export/apps/rDock/src/rDock_2013.1_src/data/scripts/dock_solv.prm

>  <Rbt.Receptor>
prm/blind_docking_40.prm

>  <SCORE>
-22.1454

>  <SCORE.INTER>
-22.3232

>  <SCORE.INTER.CONST>
1

>  <SCORE.INTER.POLAR>
-2.21502

>  <SCORE.INTER.ROT>
0

>  <SCORE.INTER.SOLV>
7.4793

>  <SCORE.INTER.VDW>
-13.5918

>  <SCORE.INTER.norm>
-1.71717

>  <SCORE.INTRA>
0

>  <SCORE.INTRA.DIHEDRAL>
0

>  <SCORE.INTRA.DIHEDRAL.0>
0

>  <SCORE.INTRA.POLAR>
0

>  <SCORE.INTRA.POLAR.0>
0

>  <SCORE.INTRA.REPUL>
0

>  <SCORE.INTRA.REPUL.0>
0

>  <SCORE.INTRA.SOLV>
0

>  <SCORE.INTRA.SOLV.lig_0>
-12.9184

>  <SCORE.INTRA.VDW>
0

>  <SCORE.INTRA.VDW.0>
0

>  <SCORE.INTRA.norm>
0

>  <SCORE.RESTR>
0.177789

>  <SCORE.RESTR.CAVITY>
0.177789

>  <SCORE.RESTR.norm>
0.0136761

>  <SCORE.SYSTEM>
0

>  <SCORE.SYSTEM.CONST>
0

>  <SCORE.SYSTEM.DIHEDRAL>
0

>  <SCORE.SYSTEM.SOLV>
0

>  <SCORE.SYSTEM.norm>
0

>  <SCORE.heavy>
13

>  <SCORE.norm>
-1.70349

>  <RMSD>
1.917

$$$$
1o15_lig
 OpenBabel11021811403D
libRbt.so/2013.1/901 2013/11/27
 13 14  0  0  0  0  0  0  0  0999 V2000
    9.2100    0.0339   34.9158 C   0  0  0  0  0  0  0  0  0  0  0  0
    8.9582    1.2961   35.4064 N   0  0  0  0  0  0  0  0  0  0  0  0
    9.6171    1.6804   36.5311 C   0  0  0  0  0  0  0  0  0  0  0  0
   10.3835    0.8511   37.0145 O   0  0  0  0  0  0  0  0  0  0  0  0
   10.1557    3.2589   38.2823 C   0  0  0  0  0  0  0  0  0  0  0  0
    9.4762    2.8968   37.1389 N   0  0  0  0  0  0  0  0  0  0  0  0
    8.5966    3.7131   36.4977 C   0  0  0  0  0  0  0  0  0  0  0  0
    7.9429    3.3163   35.3673 C   0  0  0  0  0  0  0  0  0  0  0  0
    8.0798    2.0671   34.7339 C   0  0  0  0  0  0  0  0  0  0  0  0
    7.5245    1.6494   33.7210 O   0  0  0  0  0  0  0  0  0  0  0  0
    7.1413    4.3872   34.9989 N   0  0  0  0  0  0  0  0  0  0  0  0
    7.3640    5.3529   35.9249 C   0  0  0  0  0  0  0  0  0  0  0  0
    8.2229    5.0069   36.8454 N   0  0  0  0  0  0  0  0  0  0  0  0
  1  2  1  0  0  0  0
  2  3  1  0  0  0  0
  2  9  1  0  0  0  0
  3  4  2  0  0  0  0
  3  6  1  0  0  0  0
  6  5  1  0  0  0  0
  6  7  1  0  0  0  0
  7  8  2  0  0  0  0
  7 13  1  0  0  0  0
  8  9  1  0  0  0  0
  8 11  1  0  0  0  0
  9 10  2  0  0  0  0
 11 12  1  0  0  0  0
 12 13  2  0  0  0  0
M  END
>  <CHROM.1>
8.68505474,2.68299611,35.94445149,0.91746093,0.84060442,-2.56330860

>  <Name>
1o15_lig

>  <RI>
0

>  <Rbt.Current_Directory>
/home/itssahil/PROJECTS/Mol_Feturizer/New_Systems/rnas/1o15

>  <Rbt.Executable>
rbdock ($Id: //depot/dev/client3/rdock/2013.1/src/exe/rbdock.cxx#4 $)

>  <Rbt.Library>
libRbt.so (2013.1, Build901 2013/11/27)

>  <Rbt.Parameter_File>
/export/apps/rDock/src/rDock_2013.1_src/data/scripts/dock_solv.prm

>  <Rbt.Receptor>
prm/blind_docking_80.prm

>  <SCORE>
-23.1569

>  <SCORE.INTER>
-23.1569

>  <SCORE.INTER.CONST>
1

>  <SCORE.INTER.POLAR>
-2.15422

>  <SCORE.INTER.ROT>
0

>  <SCORE.INTER.SOLV>
7.00106

>  <SCORE.INTER.VDW>
-14.1909

>  <SCORE.INTER.norm>
-1.7813

>  <SCORE.INTRA>
0

>  <SCORE.INTRA.DIHEDRAL>
0

>  <SCORE.INTRA.DIHEDRAL.0>
0

>  <SCORE.INTRA.POLAR>
0

>  <SCORE.INTRA.POLAR.0>
0

>  <SCORE.INTRA.REPUL>
0

>  <SCORE.INTRA.REPUL.0>
0

>  <SCORE.INTRA.SOLV>
0

>  <SCORE.INTRA.SOLV.lig_0>
-12.9184

>  <SCORE.INTRA.VDW>
0

>  <SCORE.INTRA.VDW.0>
0

>  <SCORE.INTRA.norm>
0

>  <SCORE.RESTR>
0

>  <SCORE.RESTR.CAVITY>
0

>  <SCORE.RESTR.norm>
0

>  <SCORE.SYSTEM>
0

>  <SCORE.SYSTEM.CONST>
0

>  <SCORE.SYSTEM.DIHEDRAL>
0

>  <SCORE.SYSTEM.SOLV>
0

>  <SCORE.SYSTEM.norm>
0

>  <SCORE.heavy>
13

>  <SCORE.norm>
-1.7813

>  <RMSD>
1.918

$$$$
1o15_lig
 OpenBabel11021811403D
libRbt.so/2013.1/901 2013/11/27
 13 14  0  0  0  0  0  0  0  0999 V2000
    9.0617    0.0300   35.1750 C   0  0  0  0  0  0  0  0  0  0  0  0
    8.7780    1.3169   35.5761 N   0  0  0  0  0  0  0  0  0  0  0  0
    9.3525    1.7625   36.7241 C   0  0  0  0  0  0  0  0  0  0  0  0
   10.0783    0.9615   37.3077 O   0  0  0  0  0  0  0  0  0  0  0  0
    9.7642    3.4347   38.4220 C   0  0  0  0  0  0  0  0  0  0  0  0
    9.1705    3.0101   37.2525 N   0  0  0  0  0  0  0  0  0  0  0  0
    8.3437    3.7894   36.5042 C   0  0  0  0  0  0  0  0  0  0  0  0
    7.7747    3.3310   35.3515 C   0  0  0  0  0  0  0  0  0  0  0  0
    7.9545    2.0492   34.7990 C   0  0  0  0  0  0  0  0  0  0  0  0
    7.4748    1.5764   33.7718 O   0  0  0  0  0  0  0  0  0  0  0  0
    7.0061    4.3794   34.8667 N   0  0  0  0  0  0  0  0  0  0  0  0
    7.1622    5.3944   35.7527 C   0  0  0  0  0  0  0  0  0  0  0  0
    7.9492    5.0999   36.7522 N   0  0  0  0  0  0  0  0  0  0  0  0
  1  2  1  0  0  0  0
  2  3  1  0  0  0  0
  2  9  1  0  0  0  0
  3  4  2  0  0  0  0
  3  6  1  0  0  0  0
  6  5  1  0  0  0  0
  6  7  1  0  0  0  0
  7  8  2  0  0  0  0
  7 13  1  0  0  0  0
  8  9  1  0  0  0  0
  8 11  1  0  0  0  0
  9 10  2  0  0  0  0
 11 12  1  0  0  0  0
 12 13  2  0  0  0  0
M  END
>  <CHROM.1>
8.46986654,2.73079745,36.01594846,0.85586793,0.90379997,-2.57069351

>  <Name>
1o15_lig

>  <RI>
0

>  <Rbt.Current_Directory>
/home/itssahil/PROJECTS/Mol_Feturizer/New_Systems/rnas/1o15

>  <Rbt.Executable>
rbdock ($Id: //depot/dev/client3/rdock/2013.1/src/exe/rbdock.cxx#4 $)

>  <Rbt.Library>
libRbt.so (2013.1, Build901 2013/11/27)

>  <Rbt.Parameter_File>
/export/apps/rDock/src/rDock_2013.1_src/data/scripts/dock_solv.prm

>  <Rbt.Receptor>
prm/blind_docking_40.prm

>  <SCORE>
-21.9197

>  <SCORE.INTER>
-22.0687

>  <SCORE.INTER.CONST>
1

>  <SCORE.INTER.POLAR>
-2.21326

>  <SCORE.INTER.ROT>
0

>  <SCORE.INTER.SOLV>
7.51648

>  <SCORE.INTER.VDW>
-13.4404

>  <SCORE.INTER.norm>
-1.69759

>  <SCORE.INTRA>
0

>  <SCORE.INTRA.DIHEDRAL>
0

>  <SCORE.INTRA.DIHEDRAL.0>
0

>  <SCORE.INTRA.POLAR>
0

>  <SCORE.INTRA.POLAR.0>
0

>  <SCORE.INTRA.REPUL>
0

>  <SCORE.INTRA.REPUL.0>
0

>  <SCORE.INTRA.SOLV>
0

>  <SCORE.INTRA.SOLV.lig_0>
-12.9184

>  <SCORE.INTRA.VDW>
0

>  <SCORE.INTRA.VDW.0>
0

>  <SCORE.INTRA.norm>
0

>  <SCORE.RESTR>
0.149015

>  <SCORE.RESTR.CAVITY>
0.149015

>  <SCORE.RESTR.norm>
0.0114627

>  <SCORE.SYSTEM>
0

>  <SCORE.SYSTEM.CONST>
0

>  <SCORE.SYSTEM.DIHEDRAL>
0

>  <SCORE.SYSTEM.SOLV>
0

>  <SCORE.SYSTEM.norm>
0

>  <SCORE.heavy>
13

>  <SCORE.norm>
-1.68613

>  <RMSD>
1.921

$$$$
1o15_lig
 OpenBabel11021811403D
libRbt.so/2013.1/901 2013/11/27
 13 14  0  0  0  0  0  0  0  0999 V2000
    9.1722    0.6849   34.8935 C   0  0  0  0  0  0  0  0  0  0  0  0
    9.1179    2.0149   35.2476 N   0  0  0  0  0  0  0  0  0  0  0  0
   10.0973    2.4938   36.0589 C   0  0  0  0  0  0  0  0  0  0  0  0
   10.9494    1.6814   36.4094 O   0  0  0  0  0  0  0  0  0  0  0  0
   11.1868    4.2436   37.3236 C   0  0  0  0  0  0  0  0  0  0  0  0
   10.1827    3.7857   36.4975 N   0  0  0  0  0  0  0  0  0  0  0  0
    9.1746    4.5728   36.0334 C   0  0  0  0  0  0  0  0  0  0  0  0
    8.1980    4.0805   35.2171 C   0  0  0  0  0  0  0  0  0  0  0  0
    8.1001    2.7531   34.7601 C   0  0  0  0  0  0  0  0  0  0  0  0
    7.2522    2.2482   34.0286 O   0  0  0  0  0  0  0  0  0  0  0  0
    7.3543    5.1492   34.9504 N   0  0  0  0  0  0  0  0  0  0  0  0
    7.8751    6.2084   35.6185 C   0  0  0  0  0  0  0  0  0  0  0  0
    8.9618    5.9243   36.2841 N   0  0  0  0  0  0  0  0  0  0  0  0
  1  2  1  0  0  0  0
  2  3  1  0  0  0  0
  2  9  1  0  0  0  0
  3  4  2  0  0  0  0
  3  6  1  0  0  0  0
  6  5  1  0  0  0  0
  6  7  1  0  0  0  0
  7  8  2  0  0  0  0
  7 13  1  0  0  0  0
  8  9  1  0  0  0  0
  8 11  1  0  0  0  0
  9 10  2  0  0  0  0
 11 12  1  0  0  0  0
 12 13  2  0  0  0  0
M  END
>  <CHROM.1>
9.06118558,3.47593419,35.63469614,1.14723509,0.58398114,-2.85654449

>  <Name>
1o15_lig

>  <RI>
0

>  <Rbt.Current_Directory>
/home/itssahil/PROJECTS/Mol_Feturizer/New_Systems/rnas/1o15

>  <Rbt.Executable>
rbdock ($Id: //depot/dev/client3/rdock/2013.1/src/exe/rbdock.cxx#4 $)

>  <Rbt.Library>
libRbt.so (2013.1, Build901 2013/11/27)

>  <Rbt.Parameter_File>
/export/apps/rDock/src/rDock_2013.1_src/data/scripts/dock_solv.prm

>  <Rbt.Receptor>
prm/pocket_docking_7.prm

>  <SCORE>
-19.9906

>  <SCORE.INTER>
-19.9906

>  <SCORE.INTER.CONST>
1

>  <SCORE.INTER.POLAR>
-1.82697

>  <SCORE.INTER.ROT>
0

>  <SCORE.INTER.SOLV>
7.76535

>  <SCORE.INTER.VDW>
-13.4256

>  <SCORE.INTER.norm>
-1.53774

>  <SCORE.INTRA>
0

>  <SCORE.INTRA.DIHEDRAL>
0

>  <SCORE.INTRA.DIHEDRAL.0>
0

>  <SCORE.INTRA.POLAR>
0

>  <SCORE.INTRA.POLAR.0>
0

>  <SCORE.INTRA.REPUL>
0

>  <SCORE.INTRA.REPUL.0>
0

>  <SCORE.INTRA.SOLV>
0

>  <SCORE.INTRA.SOLV.lig_0>
-12.9184

>  <SCORE.INTRA.VDW>
0

>  <SCORE.INTRA.VDW.0>
0

>  <SCORE.INTRA.norm>
0

>  <SCORE.RESTR>
0

>  <SCORE.RESTR.CAVITY>
0

>  <SCORE.RESTR.norm>
0

>  <SCORE.SYSTEM>
0

>  <SCORE.SYSTEM.CONST>
0

>  <SCORE.SYSTEM.DIHEDRAL>
0

>  <SCORE.SYSTEM.SOLV>
0

>  <SCORE.SYSTEM.norm>
0

>  <SCORE.heavy>
13

>  <SCORE.norm>
-1.53774

>  <RMSD>
1.923

$$$$
1o15_lig
 OpenBabel11021811403D
libRbt.so/2013.1/901 2013/11/27
 13 14  0  0  0  0  0  0  0  0999 V2000
    9.2218    0.0303   34.9385 C   0  0  0  0  0  0  0  0  0  0  0  0
    8.9584    1.3014   35.3994 N   0  0  0  0  0  0  0  0  0  0  0  0
    9.6018    1.7123   36.5235 C   0  0  0  0  0  0  0  0  0  0  0  0
   10.3661    0.8970   37.0335 O   0  0  0  0  0  0  0  0  0  0  0  0
   10.1119    3.3299   38.2474 C   0  0  0  0  0  0  0  0  0  0  0  0
    9.4480    2.9406   37.1038 N   0  0  0  0  0  0  0  0  0  0  0  0
    8.5725    3.7390   36.4350 C   0  0  0  0  0  0  0  0  0  0  0  0
    7.9344    3.3154   35.3055 C   0  0  0  0  0  0  0  0  0  0  0  0
    8.0847    2.0539   34.7002 C   0  0  0  0  0  0  0  0  0  0  0  0
    7.5436    1.6123   33.6897 O   0  0  0  0  0  0  0  0  0  0  0  0
    7.1325    4.3745   34.9050 N   0  0  0  0  0  0  0  0  0  0  0  0
    7.3395    5.3604   35.8130 C   0  0  0  0  0  0  0  0  0  0  0  0
    8.1888    5.0380   36.7509 N   0  0  0  0  0  0  0  0  0  0  0  0
  1  2  1  0  0  0  0
  2  3  1  0  0  0  0
  2  9  1  0  0  0  0
  3  4  2  0  0  0  0
  3  6  1  0  0  0  0
  6  5  1  0  0  0  0
  6  7  1  0  0  0  0
  7  8  2  0  0  0  0
  7 13  1  0  0  0  0
  8  9  1  0  0  0  0
  8 11  1  0  0  0  0
  9 10  2  0  0  0  0
 11 12  1  0  0  0  0
 12 13  2  0  0  0  0
M  END
>  <CHROM.1>
8.67239129,2.69793827,35.90470432,0.90166746,0.84822398,-2.57253493

>  <Name>
1o15_lig

>  <RI>
0

>  <Rbt.Current_Directory>
/home/itssahil/PROJECTS/Mol_Feturizer/New_Systems/rnas/1o15

>  <Rbt.Executable>
rbdock ($Id: //depot/dev/client3/rdock/2013.1/src/exe/rbdock.cxx#4 $)

>  <Rbt.Library>
libRbt.so (2013.1, Build901 2013/11/27)

>  <Rbt.Parameter_File>
/export/apps/rDock/src/rDock_2013.1_src/data/scripts/dock_solv.prm

>  <Rbt.Receptor>
prm/blind_docking_40.prm

>  <SCORE>
-22.6047

>  <SCORE.INTER>
-23.0221

>  <SCORE.INTER.CONST>
1

>  <SCORE.INTER.POLAR>
-2.17983

>  <SCORE.INTER.ROT>
0

>  <SCORE.INTER.SOLV>
7.04376

>  <SCORE.INTER.VDW>
-14.0299

>  <SCORE.INTER.norm>
-1.77093

>  <SCORE.INTRA>
0

>  <SCORE.INTRA.DIHEDRAL>
0

>  <SCORE.INTRA.DIHEDRAL.0>
0

>  <SCORE.INTRA.POLAR>
0

>  <SCORE.INTRA.POLAR.0>
0

>  <SCORE.INTRA.REPUL>
0

>  <SCORE.INTRA.REPUL.0>
0

>  <SCORE.INTRA.SOLV>
0

>  <SCORE.INTRA.SOLV.lig_0>
-12.9184

>  <SCORE.INTRA.VDW>
0

>  <SCORE.INTRA.VDW.0>
0

>  <SCORE.INTRA.norm>
0

>  <SCORE.RESTR>
0.417446

>  <SCORE.RESTR.CAVITY>
0.417446

>  <SCORE.RESTR.norm>
0.0321112

>  <SCORE.SYSTEM>
0

>  <SCORE.SYSTEM.CONST>
0

>  <SCORE.SYSTEM.DIHEDRAL>
0

>  <SCORE.SYSTEM.SOLV>
0

>  <SCORE.SYSTEM.norm>
0

>  <SCORE.heavy>
13

>  <SCORE.norm>
-1.73882

>  <RMSD>
1.924

$$$$
1o15_lig
 OpenBabel11021811403D
libRbt.so/2013.1/901 2013/11/27
 13 14  0  0  0  0  0  0  0  0999 V2000
    9.0686    0.0392   35.1659 C   0  0  0  0  0  0  0  0  0  0  0  0
    8.7788    1.3222   35.5750 N   0  0  0  0  0  0  0  0  0  0  0  0
    9.3499    1.7628   36.7267 C   0  0  0  0  0  0  0  0  0  0  0  0
   10.0784    0.9612   37.3060 O   0  0  0  0  0  0  0  0  0  0  0  0
    9.7521    3.4256   38.4360 C   0  0  0  0  0  0  0  0  0  0  0  0
    9.1618    3.0061   37.2630 N   0  0  0  0  0  0  0  0  0  0  0  0
    8.3324    3.7867   36.5186 C   0  0  0  0  0  0  0  0  0  0  0  0
    7.7669    3.3333   35.3623 C   0  0  0  0  0  0  0  0  0  0  0  0
    7.9530    2.0560   34.8016 C   0  0  0  0  0  0  0  0  0  0  0  0
    7.4768    1.5877   33.7707 O   0  0  0  0  0  0  0  0  0  0  0  0
    6.9944    4.3815   34.8833 N   0  0  0  0  0  0  0  0  0  0  0  0
    7.1450    5.3913   35.7762 C   0  0  0  0  0  0  0  0  0  0  0  0
    7.9319    5.0938   36.7747 N   0  0  0  0  0  0  0  0  0  0  0  0
  1  2  1  0  0  0  0
  2  3  1  0  0  0  0
  2  9  1  0  0  0  0
  3  4  2  0  0  0  0
  3  6  1  0  0  0  0
  6  5  1  0  0  0  0
  6  7  1  0  0  0  0
  7  8  2  0  0  0  0
  7 13  1  0  0  0  0
  8  9  1  0  0  0  0
  8 11  1  0  0  0  0
  9 10  2  0  0  0  0
 11 12  1  0  0  0  0
 12 13  2  0  0  0  0
M  END
>  <CHROM.1>
8.46390082,2.73181248,36.02368385,0.84882390,0.90250087,-2.55863111

>  <Name>
1o15_lig

>  <RI>
0

>  <Rbt.Current_Directory>
/home/itssahil/PROJECTS/Mol_Feturizer/New_Systems/rnas/1o15

>  <Rbt.Executable>
rbdock ($Id: //depot/dev/client3/rdock/2013.1/src/exe/rbdock.cxx#4 $)

>  <Rbt.Library>
libRbt.so (2013.1, Build901 2013/11/27)

>  <Rbt.Parameter_File>
/export/apps/rDock/src/rDock_2013.1_src/data/scripts/dock_solv.prm

>  <Rbt.Receptor>
prm/blind_docking_40.prm

>  <SCORE>
-21.9439

>  <SCORE.INTER>
-22.0959

>  <SCORE.INTER.CONST>
1

>  <SCORE.INTER.POLAR>
-2.20735

>  <SCORE.INTER.ROT>
0

>  <SCORE.INTER.SOLV>
7.55332

>  <SCORE.INTER.VDW>
-13.4905

>  <SCORE.INTER.norm>
-1.69969

>  <SCORE.INTRA>
0

>  <SCORE.INTRA.DIHEDRAL>
0

>  <SCORE.INTRA.DIHEDRAL.0>
0

>  <SCORE.INTRA.POLAR>
0

>  <SCORE.INTRA.POLAR.0>
0

>  <SCORE.INTRA.REPUL>
0

>  <SCORE.INTRA.REPUL.0>
0

>  <SCORE.INTRA.SOLV>
0

>  <SCORE.INTRA.SOLV.lig_0>
-12.9184

>  <SCORE.INTRA.VDW>
0

>  <SCORE.INTRA.VDW.0>
0

>  <SCORE.INTRA.norm>
0

>  <SCORE.RESTR>
0.151992

>  <SCORE.RESTR.CAVITY>
0.151992

>  <SCORE.RESTR.norm>
0.0116917

>  <SCORE.SYSTEM>
0

>  <SCORE.SYSTEM.CONST>
0

>  <SCORE.SYSTEM.DIHEDRAL>
0

>  <SCORE.SYSTEM.SOLV>
0

>  <SCORE.SYSTEM.norm>
0

>  <SCORE.heavy>
13

>  <SCORE.norm>
-1.68799

>  <RMSD>
1.925

$$$$
1o15_lig
 OpenBabel11021811403D
libRbt.so/2013.1/901 2013/11/27
 13 14  0  0  0  0  0  0  0  0999 V2000
    9.1924    0.6961   34.8760 C   0  0  0  0  0  0  0  0  0  0  0  0
    9.1279    2.0231   35.2398 N   0  0  0  0  0  0  0  0  0  0  0  0
   10.1010    2.5022   36.0586 C   0  0  0  0  0  0  0  0  0  0  0  0
   10.9570    1.6928   36.4065 O   0  0  0  0  0  0  0  0  0  0  0  0
   11.1739    4.2495   37.3407 C   0  0  0  0  0  0  0  0  0  0  0  0
   10.1761    3.7913   36.5072 N   0  0  0  0  0  0  0  0  0  0  0  0
    9.1648    4.5753   36.0449 C   0  0  0  0  0  0  0  0  0  0  0  0
    8.1948    4.0828   35.2209 C   0  0  0  0  0  0  0  0  0  0  0  0
    8.1073    2.7582   34.7537 C   0  0  0  0  0  0  0  0  0  0  0  0
    7.2657    2.2533   34.0150 O   0  0  0  0  0  0  0  0  0  0  0  0
    7.3451    5.1479   34.9588 N   0  0  0  0  0  0  0  0  0  0  0  0
    7.8563    6.2055   35.6369 C   0  0  0  0  0  0  0  0  0  0  0  0
    8.9422    5.9235   36.3047 N   0  0  0  0  0  0  0  0  0  0  0  0
  1  2  1  0  0  0  0
  2  3  1  0  0  0  0
  2  9  1  0  0  0  0
  3  4  2  0  0  0  0
  3  6  1  0  0  0  0
  6  5  1  0  0  0  0
  6  7  1  0  0  0  0
  7  8  2  0  0  0  0
  7 13  1  0  0  0  0
  8  9  1  0  0  0  0
  8 11  1  0  0  0  0
  9 10  2  0  0  0  0
 11 12  1  0  0  0  0
 12 13  2  0  0  0  0
M  END
>  <CHROM.1>
9.06017041,3.48073726,35.63750678,1.13837306,0.58596551,-2.84418501

>  <Name>
1o15_lig

>  <RI>
0

>  <Rbt.Current_Directory>
/home/itssahil/PROJECTS/Mol_Feturizer/New_Systems/rnas/1o15

>  <Rbt.Executable>
rbdock ($Id: //depot/dev/client3/rdock/2013.1/src/exe/rbdock.cxx#4 $)

>  <Rbt.Library>
libRbt.so (2013.1, Build901 2013/11/27)

>  <Rbt.Parameter_File>
/export/apps/rDock/src/rDock_2013.1_src/data/scripts/dock_solv.prm

>  <Rbt.Receptor>
prm/pocket_docking_5.prm

>  <SCORE>
-19.9906

>  <SCORE.INTER>
-19.9906

>  <SCORE.INTER.CONST>
1

>  <SCORE.INTER.POLAR>
-1.78982

>  <SCORE.INTER.ROT>
0

>  <SCORE.INTER.SOLV>
7.78165

>  <SCORE.INTER.VDW>
-13.5549

>  <SCORE.INTER.norm>
-1.53773

>  <SCORE.INTRA>
0

>  <SCORE.INTRA.DIHEDRAL>
0

>  <SCORE.INTRA.DIHEDRAL.0>
0

>  <SCORE.INTRA.POLAR>
0

>  <SCORE.INTRA.POLAR.0>
0

>  <SCORE.INTRA.REPUL>
0

>  <SCORE.INTRA.REPUL.0>
0

>  <SCORE.INTRA.SOLV>
0

>  <SCORE.INTRA.SOLV.lig_0>
-12.9184

>  <SCORE.INTRA.VDW>
0

>  <SCORE.INTRA.VDW.0>
0

>  <SCORE.INTRA.norm>
0

>  <SCORE.RESTR>
0

>  <SCORE.RESTR.CAVITY>
0

>  <SCORE.RESTR.norm>
0

>  <SCORE.SYSTEM>
0

>  <SCORE.SYSTEM.CONST>
0

>  <SCORE.SYSTEM.DIHEDRAL>
0

>  <SCORE.SYSTEM.SOLV>
0

>  <SCORE.SYSTEM.norm>
0

>  <SCORE.heavy>
13

>  <SCORE.norm>
-1.53773

>  <RMSD>
1.925

$$$$
1o15_lig
 OpenBabel11021811403D
libRbt.so/2013.1/901 2013/11/27
 13 14  0  0  0  0  0  0  0  0999 V2000
    9.1751    0.7113   34.8828 C   0  0  0  0  0  0  0  0  0  0  0  0
    9.1188    2.0387   35.2464 N   0  0  0  0  0  0  0  0  0  0  0  0
   10.0971    2.5130   36.0617 C   0  0  0  0  0  0  0  0  0  0  0  0
   10.9501    1.6993   36.4069 O   0  0  0  0  0  0  0  0  0  0  0  0
   11.1835    4.2551   37.3396 C   0  0  0  0  0  0  0  0  0  0  0  0
   10.1805    3.8019   36.5096 N   0  0  0  0  0  0  0  0  0  0  0  0
    9.1717    4.5909   36.0505 C   0  0  0  0  0  0  0  0  0  0  0  0
    8.1963    4.1032   35.2300 C   0  0  0  0  0  0  0  0  0  0  0  0
    8.1004    2.7789   34.7635 C   0  0  0  0  0  0  0  0  0  0  0  0
    7.2536    2.2782   34.0279 O   0  0  0  0  0  0  0  0  0  0  0  0
    7.3513    5.1726   34.9704 N   0  0  0  0  0  0  0  0  0  0  0  0
    7.8703    6.2278   35.6464 C   0  0  0  0  0  0  0  0  0  0  0  0
    8.9570    5.9403   36.3107 N   0  0  0  0  0  0  0  0  0  0  0  0
  1  2  1  0  0  0  0
  2  3  1  0  0  0  0
  2  9  1  0  0  0  0
  3  4  2  0  0  0  0
  3  6  1  0  0  0  0
  6  5  1  0  0  0  0
  6  7  1  0  0  0  0
  7  8  2  0  0  0  0
  7 13  1  0  0  0  0
  8  9  1  0  0  0  0
  8 11  1  0  0  0  0
  9 10  2  0  0  0  0
 11 12  1  0  0  0  0
 12 13  2  0  0  0  0
M  END
>  <CHROM.1>
9.05998952,3.49678105,35.64382726,1.14551358,0.58421644,-2.84844262

>  <Name>
1o15_lig

>  <RI>
0

>  <Rbt.Current_Directory>
/home/itssahil/PROJECTS/Mol_Feturizer/New_Systems/rnas/1o15

>  <Rbt.Executable>
rbdock ($Id: //depot/dev/client3/rdock/2013.1/src/exe/rbdock.cxx#4 $)

>  <Rbt.Library>
libRbt.so (2013.1, Build901 2013/11/27)

>  <Rbt.Parameter_File>
/export/apps/rDock/src/rDock_2013.1_src/data/scripts/dock_solv.prm

>  <Rbt.Receptor>
prm/pocket_docking_8.prm

>  <SCORE>
-19.9825

>  <SCORE.INTER>
-19.9825

>  <SCORE.INTER.CONST>
1

>  <SCORE.INTER.POLAR>
-1.7802

>  <SCORE.INTER.ROT>
0

>  <SCORE.INTER.SOLV>
7.77429

>  <SCORE.INTER.VDW>
-13.5791

>  <SCORE.INTER.norm>
-1.53712

>  <SCORE.INTRA>
0

>  <SCORE.INTRA.DIHEDRAL>
0

>  <SCORE.INTRA.DIHEDRAL.0>
0

>  <SCORE.INTRA.POLAR>
0

>  <SCORE.INTRA.POLAR.0>
0

>  <SCORE.INTRA.REPUL>
0

>  <SCORE.INTRA.REPUL.0>
0

>  <SCORE.INTRA.SOLV>
0

>  <SCORE.INTRA.SOLV.lig_0>
-12.9184

>  <SCORE.INTRA.VDW>
0

>  <SCORE.INTRA.VDW.0>
0

>  <SCORE.INTRA.norm>
0

>  <SCORE.RESTR>
0

>  <SCORE.RESTR.CAVITY>
0

>  <SCORE.RESTR.norm>
0

>  <SCORE.SYSTEM>
0

>  <SCORE.SYSTEM.CONST>
0

>  <SCORE.SYSTEM.DIHEDRAL>
0

>  <SCORE.SYSTEM.SOLV>
0

>  <SCORE.SYSTEM.norm>
0

>  <SCORE.heavy>
13

>  <SCORE.norm>
-1.53712

>  <RMSD>
1.925

$$$$
1o15_lig
 OpenBabel11021811403D
libRbt.so/2013.1/901 2013/11/27
 13 14  0  0  0  0  0  0  0  0999 V2000
    9.2027    0.6913   34.8738 C   0  0  0  0  0  0  0  0  0  0  0  0
    9.1329    2.0183   35.2367 N   0  0  0  0  0  0  0  0  0  0  0  0
   10.1048    2.5024   36.0538 C   0  0  0  0  0  0  0  0  0  0  0  0
   10.9650    1.6971   36.4010 O   0  0  0  0  0  0  0  0  0  0  0  0
   11.1718    4.2555   37.3330 C   0  0  0  0  0  0  0  0  0  0  0  0
   10.1749    3.7922   36.5012 N   0  0  0  0  0  0  0  0  0  0  0  0
    9.1594    4.5713   36.0397 C   0  0  0  0  0  0  0  0  0  0  0  0
    8.1904    4.0738   35.2175 C   0  0  0  0  0  0  0  0  0  0  0  0
    8.1083    2.7484   34.7514 C   0  0  0  0  0  0  0  0  0  0  0  0
    7.2679    2.2392   34.0143 O   0  0  0  0  0  0  0  0  0  0  0  0
    7.3357    5.1349   34.9558 N   0  0  0  0  0  0  0  0  0  0  0  0
    7.8430    6.1953   35.6323 C   0  0  0  0  0  0  0  0  0  0  0  0
    8.9311    5.9186   36.2989 N   0  0  0  0  0  0  0  0  0  0  0  0
  1  2  1  0  0  0  0
  2  3  1  0  0  0  0
  2  9  1  0  0  0  0
  3  4  2  0  0  0  0
  3  6  1  0  0  0  0
  6  5  1  0  0  0  0
  6  7  1  0  0  0  0
  7  8  2  0  0  0  0
  7 13  1  0  0  0  0
  8  9  1  0  0  0  0
  8 11  1  0  0  0  0
  9 10  2  0  0  0  0
 11 12  1  0  0  0  0
 12 13  2  0  0  0  0
M  END
>  <CHROM.1>
9.05910233,3.47592405,35.63335381,1.13372206,0.58332310,-2.84238809

>  <Name>
1o15_lig

>  <RI>
0

>  <Rbt.Current_Directory>
/home/itssahil/PROJECTS/Mol_Feturizer/New_Systems/rnas/1o15

>  <Rbt.Executable>
rbdock ($Id: //depot/dev/client3/rdock/2013.1/src/exe/rbdock.cxx#4 $)

>  <Rbt.Library>
libRbt.so (2013.1, Build901 2013/11/27)

>  <Rbt.Parameter_File>
/export/apps/rDock/src/rDock_2013.1_src/data/scripts/dock_solv.prm

>  <Rbt.Receptor>
prm/pocket_docking_7.prm

>  <SCORE>
-19.9933

>  <SCORE.INTER>
-19.9933

>  <SCORE.INTER.CONST>
1

>  <SCORE.INTER.POLAR>
-1.79077

>  <SCORE.INTER.ROT>
0

>  <SCORE.INTER.SOLV>
7.8068

>  <SCORE.INTER.VDW>
-13.5619

>  <SCORE.INTER.norm>
-1.53795

>  <SCORE.INTRA>
0

>  <SCORE.INTRA.DIHEDRAL>
0

>  <SCORE.INTRA.DIHEDRAL.0>
0

>  <SCORE.INTRA.POLAR>
0

>  <SCORE.INTRA.POLAR.0>
0

>  <SCORE.INTRA.REPUL>
0

>  <SCORE.INTRA.REPUL.0>
0

>  <SCORE.INTRA.SOLV>
0

>  <SCORE.INTRA.SOLV.lig_0>
-12.9184

>  <SCORE.INTRA.VDW>
0

>  <SCORE.INTRA.VDW.0>
0

>  <SCORE.INTRA.norm>
0

>  <SCORE.RESTR>
0

>  <SCORE.RESTR.CAVITY>
0

>  <SCORE.RESTR.norm>
0

>  <SCORE.SYSTEM>
0

>  <SCORE.SYSTEM.CONST>
0

>  <SCORE.SYSTEM.DIHEDRAL>
0

>  <SCORE.SYSTEM.SOLV>
0

>  <SCORE.SYSTEM.norm>
0

>  <SCORE.heavy>
13

>  <SCORE.norm>
-1.53795

>  <RMSD>
1.926

$$$$
1o15_lig
 OpenBabel11021811403D
libRbt.so/2013.1/901 2013/11/27
 13 14  0  0  0  0  0  0  0  0999 V2000
    9.1912    0.6986   34.8766 C   0  0  0  0  0  0  0  0  0  0  0  0
    9.1270    2.0258   35.2397 N   0  0  0  0  0  0  0  0  0  0  0  0
   10.0995    2.5049   36.0591 C   0  0  0  0  0  0  0  0  0  0  0  0
   10.9549    1.6954   36.4081 O   0  0  0  0  0  0  0  0  0  0  0  0
   11.1721    4.2524   37.3414 C   0  0  0  0  0  0  0  0  0  0  0  0
   10.1748    3.7943   36.5071 N   0  0  0  0  0  0  0  0  0  0  0  0
    9.1641    4.5784   36.0436 C   0  0  0  0  0  0  0  0  0  0  0  0
    8.1946    4.0859   35.2191 C   0  0  0  0  0  0  0  0  0  0  0  0
    8.1070    2.7611   34.7524 C   0  0  0  0  0  0  0  0  0  0  0  0
    7.2659    2.2562   34.0132 O   0  0  0  0  0  0  0  0  0  0  0  0
    7.3456    5.1512   34.9558 N   0  0  0  0  0  0  0  0  0  0  0  0
    7.8566    6.2089   35.6338 C   0  0  0  0  0  0  0  0  0  0  0  0
    8.9419    5.9268   36.3027 N   0  0  0  0  0  0  0  0  0  0  0  0
  1  2  1  0  0  0  0
  2  3  1  0  0  0  0
  2  9  1  0  0  0  0
  3  4  2  0  0  0  0
  3  6  1  0  0  0  0
  6  5  1  0  0  0  0
  6  7  1  0  0  0  0
  7  8  2  0  0  0  0
  7 13  1  0  0  0  0
  8  9  1  0  0  0  0
  8 11  1  0  0  0  0
  9 10  2  0  0  0  0
 11 12  1  0  0  0  0
 12 13  2  0  0  0  0
M  END
>  <CHROM.1>
9.05943906,3.48368138,35.63668561,1.13851047,0.58689675,-2.84472194

>  <Name>
1o15_lig

>  <RI>
0

>  <Rbt.Current_Directory>
/home/itssahil/PROJECTS/Mol_Feturizer/New_Systems/rnas/1o15

>  <Rbt.Executable>
rbdock ($Id: //depot/dev/client3/rdock/2013.1/src/exe/rbdock.cxx#4 $)

>  <Rbt.Library>
libRbt.so (2013.1, Build901 2013/11/27)

>  <Rbt.Parameter_File>
/export/apps/rDock/src/rDock_2013.1_src/data/scripts/dock_solv.prm

>  <Rbt.Receptor>
prm/pocket_docking_8.prm

>  <SCORE>
-19.9885

>  <SCORE.INTER>
-19.9885

>  <SCORE.INTER.CONST>
1

>  <SCORE.INTER.POLAR>
-1.8016

>  <SCORE.INTER.ROT>
0

>  <SCORE.INTER.SOLV>
7.78186

>  <SCORE.INTER.VDW>
-13.5143

>  <SCORE.INTER.norm>
-1.53758

>  <SCORE.INTRA>
0

>  <SCORE.INTRA.DIHEDRAL>
0

>  <SCORE.INTRA.DIHEDRAL.0>
0

>  <SCORE.INTRA.POLAR>
0

>  <SCORE.INTRA.POLAR.0>
0

>  <SCORE.INTRA.REPUL>
0

>  <SCORE.INTRA.REPUL.0>
0

>  <SCORE.INTRA.SOLV>
0

>  <SCORE.INTRA.SOLV.lig_0>
-12.9184

>  <SCORE.INTRA.VDW>
0

>  <SCORE.INTRA.VDW.0>
0

>  <SCORE.INTRA.norm>
0

>  <SCORE.RESTR>
0

>  <SCORE.RESTR.CAVITY>
0

>  <SCORE.RESTR.norm>
0

>  <SCORE.SYSTEM>
0

>  <SCORE.SYSTEM.CONST>
0

>  <SCORE.SYSTEM.DIHEDRAL>
0

>  <SCORE.SYSTEM.SOLV>
0

>  <SCORE.SYSTEM.norm>
0

>  <SCORE.heavy>
13

>  <SCORE.norm>
-1.53758

>  <RMSD>
1.926

$$$$
1o15_lig
 OpenBabel11021811403D
libRbt.so/2013.1/901 2013/11/27
 13 14  0  0  0  0  0  0  0  0999 V2000
    9.1971    0.6971   34.8766 C   0  0  0  0  0  0  0  0  0  0  0  0
    9.1326    2.0248   35.2379 N   0  0  0  0  0  0  0  0  0  0  0  0
   10.1099    2.5075   36.0494 C   0  0  0  0  0  0  0  0  0  0  0  0
   10.9696    1.7004   36.3937 O   0  0  0  0  0  0  0  0  0  0  0  0
   11.1878    4.2596   37.3208 C   0  0  0  0  0  0  0  0  0  0  0  0
   10.1856    3.7978   36.4946 N   0  0  0  0  0  0  0  0  0  0  0  0
    9.1699    4.5789   36.0370 C   0  0  0  0  0  0  0  0  0  0  0  0
    8.1956    4.0828   35.2203 C   0  0  0  0  0  0  0  0  0  0  0  0
    8.1076    2.7570   34.7566 C   0  0  0  0  0  0  0  0  0  0  0  0
    7.2622    2.2490   34.0244 O   0  0  0  0  0  0  0  0  0  0  0  0
    7.3424    5.1458   34.9612 N   0  0  0  0  0  0  0  0  0  0  0  0
    7.8559    6.2058   35.6337 C   0  0  0  0  0  0  0  0  0  0  0  0
    8.9466    5.9272   36.2953 N   0  0  0  0  0  0  0  0  0  0  0  0
  1  2  1  0  0  0  0
  2  3  1  0  0  0  0
  2  9  1  0  0  0  0
  3  4  2  0  0  0  0
  3  6  1  0  0  0  0
  6  5  1  0  0  0  0
  6  7  1  0  0  0  0
  7  8  2  0  0  0  0
  7 13  1  0  0  0  0
  8  9  1  0  0  0  0
  8 11  1  0  0  0  0
  9 10  2  0  0  0  0
 11 12  1  0  0  0  0
 12 13  2  0  0  0  0
M  END
>  <CHROM.1>
9.06472422,3.48323415,35.63275470,1.13851452,0.57938199,-2.84649527

>  <Name>
1o15_lig

>  <RI>
0

>  <Rbt.Current_Directory>
/home/itssahil/PROJECTS/Mol_Feturizer/New_Systems/rnas/1o15

>  <Rbt.Executable>
rbdock ($Id: //depot/dev/client3/rdock/2013.1/src/exe/rbdock.cxx#4 $)

>  <Rbt.Library>
libRbt.so (2013.1, Build901 2013/11/27)

>  <Rbt.Parameter_File>
/export/apps/rDock/src/rDock_2013.1_src/data/scripts/dock_solv.prm

>  <Rbt.Receptor>
prm/pocket_docking_4.prm

>  <SCORE>
-19.9687

>  <SCORE.INTER>
-19.9687

>  <SCORE.INTER.CONST>
1

>  <SCORE.INTER.POLAR>
-1.79212

>  <SCORE.INTER.ROT>
0

>  <SCORE.INTER.SOLV>
7.81395

>  <SCORE.INTER.VDW>
-13.5434

>  <SCORE.INTER.norm>
-1.53606

>  <SCORE.INTRA>
0

>  <SCORE.INTRA.DIHEDRAL>
0

>  <SCORE.INTRA.DIHEDRAL.0>
0

>  <SCORE.INTRA.POLAR>
0

>  <SCORE.INTRA.POLAR.0>
0

>  <SCORE.INTRA.REPUL>
0

>  <SCORE.INTRA.REPUL.0>
0

>  <SCORE.INTRA.SOLV>
0

>  <SCORE.INTRA.SOLV.lig_0>
-12.9184

>  <SCORE.INTRA.VDW>
0

>  <SCORE.INTRA.VDW.0>
0

>  <SCORE.INTRA.norm>
0

>  <SCORE.RESTR>
0

>  <SCORE.RESTR.CAVITY>
0

>  <SCORE.RESTR.norm>
0

>  <SCORE.SYSTEM>
0

>  <SCORE.SYSTEM.CONST>
0

>  <SCORE.SYSTEM.DIHEDRAL>
0

>  <SCORE.SYSTEM.SOLV>
0

>  <SCORE.SYSTEM.norm>
0

>  <SCORE.heavy>
13

>  <SCORE.norm>
-1.53606

>  <RMSD>
1.927

$$$$
1o15_lig
 OpenBabel11021811403D
libRbt.so/2013.1/901 2013/11/27
 13 14  0  0  0  0  0  0  0  0999 V2000
    9.0703    0.0308   35.1660 C   0  0  0  0  0  0  0  0  0  0  0  0
    8.7801    1.3152   35.5703 N   0  0  0  0  0  0  0  0  0  0  0  0
    9.3475    1.7587   36.7227 C   0  0  0  0  0  0  0  0  0  0  0  0
   10.0733    0.9582   37.3069 O   0  0  0  0  0  0  0  0  0  0  0  0
    9.7451    3.4261   38.4286 C   0  0  0  0  0  0  0  0  0  0  0  0
    9.1585    3.0037   37.2547 N   0  0  0  0  0  0  0  0  0  0  0  0
    8.3325    3.7828   36.5051 C   0  0  0  0  0  0  0  0  0  0  0  0
    7.7708    3.3265   35.3481 C   0  0  0  0  0  0  0  0  0  0  0  0
    7.9578    2.0474   34.7918 C   0  0  0  0  0  0  0  0  0  0  0  0
    7.4848    1.5766   33.7606 O   0  0  0  0  0  0  0  0  0  0  0  0
    7.0008    4.3740   34.8633 N   0  0  0  0  0  0  0  0  0  0  0  0
    7.1491    5.3862   35.7538 C   0  0  0  0  0  0  0  0  0  0  0  0
    7.9322    5.0910   36.7559 N   0  0  0  0  0  0  0  0  0  0  0  0
  1  2  1  0  0  0  0
  2  3  1  0  0  0  0
  2  9  1  0  0  0  0
  3  4  2  0  0  0  0
  3  6  1  0  0  0  0
  6  5  1  0  0  0  0
  6  7  1  0  0  0  0
  7  8  2  0  0  0  0
  7 13  1  0  0  0  0
  8  9  1  0  0  0  0
  8 11  1  0  0  0  0
  9 10  2  0  0  0  0
 11 12  1  0  0  0  0
 12 13  2  0  0  0  0
M  END
>  <CHROM.1>
8.46485932,2.72638286,36.01372602,0.84679128,0.90593145,-2.55995436

>  <Name>
1o15_lig

>  <RI>
0

>  <Rbt.Current_Directory>
/home/itssahil/PROJECTS/Mol_Feturizer/New_Systems/rnas/1o15

>  <Rbt.Executable>
rbdock ($Id: //depot/dev/client3/rdock/2013.1/src/exe/rbdock.cxx#4 $)

>  <Rbt.Library>
libRbt.so (2013.1, Build901 2013/11/27)

>  <Rbt.Parameter_File>
/export/apps/rDock/src/rDock_2013.1_src/data/scripts/dock_solv.prm

>  <Rbt.Receptor>
prm/blind_docking_40.prm

>  <SCORE>
-21.9129

>  <SCORE.INTER>
-22.0552

>  <SCORE.INTER.CONST>
1

>  <SCORE.INTER.POLAR>
-2.21908

>  <SCORE.INTER.ROT>
0

>  <SCORE.INTER.SOLV>
7.54934

>  <SCORE.INTER.VDW>
-13.423

>  <SCORE.INTER.norm>
-1.69655

>  <SCORE.INTRA>
0

>  <SCORE.INTRA.DIHEDRAL>
0

>  <SCORE.INTRA.DIHEDRAL.0>
0

>  <SCORE.INTRA.POLAR>
0

>  <SCORE.INTRA.POLAR.0>
0

>  <SCORE.INTRA.REPUL>
0

>  <SCORE.INTRA.REPUL.0>
0

>  <SCORE.INTRA.SOLV>
0

>  <SCORE.INTRA.SOLV.lig_0>
-12.9184

>  <SCORE.INTRA.VDW>
0

>  <SCORE.INTRA.VDW.0>
0

>  <SCORE.INTRA.norm>
0

>  <SCORE.RESTR>
0.142324

>  <SCORE.RESTR.CAVITY>
0.142324

>  <SCORE.RESTR.norm>
0.010948

>  <SCORE.SYSTEM>
0

>  <SCORE.SYSTEM.CONST>
0

>  <SCORE.SYSTEM.DIHEDRAL>
0

>  <SCORE.SYSTEM.SOLV>
0

>  <SCORE.SYSTEM.norm>
0

>  <SCORE.heavy>
13

>  <SCORE.norm>
-1.68561

>  <RMSD>
1.929

$$$$
1o15_lig
 OpenBabel11021811403D
libRbt.so/2013.1/901 2013/11/27
 13 14  0  0  0  0  0  0  0  0999 V2000
    9.1683    0.7076   34.8788 C   0  0  0  0  0  0  0  0  0  0  0  0
    9.1166    2.0352   35.2422 N   0  0  0  0  0  0  0  0  0  0  0  0
   10.0990    2.5074   36.0538 C   0  0  0  0  0  0  0  0  0  0  0  0
   10.9513    1.6917   36.3961 O   0  0  0  0  0  0  0  0  0  0  0  0
   11.1944    4.2472   37.3272 C   0  0  0  0  0  0  0  0  0  0  0  0
   10.1872    3.7962   36.5010 N   0  0  0  0  0  0  0  0  0  0  0  0
    9.1786    4.5876   36.0454 C   0  0  0  0  0  0  0  0  0  0  0  0
    8.1990    4.1020   35.2287 C   0  0  0  0  0  0  0  0  0  0  0  0
    8.0981    2.7778   34.7629 C   0  0  0  0  0  0  0  0  0  0  0  0
    7.2475    2.2790   34.0305 O   0  0  0  0  0  0  0  0  0  0  0  0
    7.3556    5.1734   34.9720 N   0  0  0  0  0  0  0  0  0  0  0  0
    7.8797    6.2275   35.6457 C   0  0  0  0  0  0  0  0  0  0  0  0
    8.9681    5.9375   36.3060 N   0  0  0  0  0  0  0  0  0  0  0  0
  1  2  1  0  0  0  0
  2  3  1  0  0  0  0
  2  9  1  0  0  0  0
  3  4  2  0  0  0  0
  3  6  1  0  0  0  0
  6  5  1  0  0  0  0
  6  7  1  0  0  0  0
  7  8  2  0  0  0  0
  7 13  1  0  0  0  0
  8  9  1  0  0  0  0
  8 11  1  0  0  0  0
  9 10  2  0  0  0  0
 11 12  1  0  0  0  0
 12 13  2  0  0  0  0
M  END
>  <CHROM.1>
9.06273774,3.49358497,35.63949640,1.14957109,0.58137479,-2.85094426

>  <Name>
1o15_lig

>  <RI>
0

>  <Rbt.Current_Directory>
/home/itssahil/PROJECTS/Mol_Feturizer/New_Systems/rnas/1o15

>  <Rbt.Executable>
rbdock ($Id: //depot/dev/client3/rdock/2013.1/src/exe/rbdock.cxx#4 $)

>  <Rbt.Library>
libRbt.so (2013.1, Build901 2013/11/27)

>  <Rbt.Parameter_File>
/export/apps/rDock/src/rDock_2013.1_src/data/scripts/dock_solv.prm

>  <Rbt.Receptor>
prm/pocket_docking_6.prm

>  <SCORE>
-20.0079

>  <SCORE.INTER>
-20.0079

>  <SCORE.INTER.CONST>
1

>  <SCORE.INTER.POLAR>
-1.78228

>  <SCORE.INTER.ROT>
0

>  <SCORE.INTER.SOLV>
7.78279

>  <SCORE.INTER.VDW>
-13.592

>  <SCORE.INTER.norm>
-1.53907

>  <SCORE.INTRA>
0

>  <SCORE.INTRA.DIHEDRAL>
0

>  <SCORE.INTRA.DIHEDRAL.0>
0

>  <SCORE.INTRA.POLAR>
0

>  <SCORE.INTRA.POLAR.0>
0

>  <SCORE.INTRA.REPUL>
0

>  <SCORE.INTRA.REPUL.0>
0

>  <SCORE.INTRA.SOLV>
0

>  <SCORE.INTRA.SOLV.lig_0>
-12.9184

>  <SCORE.INTRA.VDW>
0

>  <SCORE.INTRA.VDW.0>
0

>  <SCORE.INTRA.norm>
0

>  <SCORE.RESTR>
0

>  <SCORE.RESTR.CAVITY>
0

>  <SCORE.RESTR.norm>
0

>  <SCORE.SYSTEM>
0

>  <SCORE.SYSTEM.CONST>
0

>  <SCORE.SYSTEM.DIHEDRAL>
0

>  <SCORE.SYSTEM.SOLV>
0

>  <SCORE.SYSTEM.norm>
0

>  <SCORE.heavy>
13

>  <SCORE.norm>
-1.53907

>  <RMSD>
1.929

$$$$
1o15_lig
 OpenBabel11021811403D
libRbt.so/2013.1/901 2013/11/27
 13 14  0  0  0  0  0  0  0  0999 V2000
    9.1637    0.7151   34.8813 C   0  0  0  0  0  0  0  0  0  0  0  0
    9.1119    2.0434   35.2426 N   0  0  0  0  0  0  0  0  0  0  0  0
   10.0942    2.5167   36.0537 C   0  0  0  0  0  0  0  0  0  0  0  0
   10.9463    1.7015   36.3975 O   0  0  0  0  0  0  0  0  0  0  0  0
   11.1892    4.2585   37.3246 C   0  0  0  0  0  0  0  0  0  0  0  0
   10.1823    3.8062   36.4989 N   0  0  0  0  0  0  0  0  0  0  0  0
    9.1738    4.5970   36.0418 C   0  0  0  0  0  0  0  0  0  0  0  0
    8.1944    4.1101   35.2255 C   0  0  0  0  0  0  0  0  0  0  0  0
    8.0937    2.7852   34.7618 C   0  0  0  0  0  0  0  0  0  0  0  0
    7.2432    2.2853   34.0300 O   0  0  0  0  0  0  0  0  0  0  0  0
    7.3512    5.1812   34.9669 N   0  0  0  0  0  0  0  0  0  0  0  0
    7.8751    6.2363   35.6391 C   0  0  0  0  0  0  0  0  0  0  0  0
    8.9634    5.9473   36.3002 N   0  0  0  0  0  0  0  0  0  0  0  0
  1  2  1  0  0  0  0
  2  3  1  0  0  0  0
  2  9  1  0  0  0  0
  3  4  2  0  0  0  0
  3  6  1  0  0  0  0
  6  5  1  0  0  0  0
  6  7  1  0  0  0  0
  7  8  2  0  0  0  0
  7 13  1  0  0  0  0
  8  9  1  0  0  0  0
  8 11  1  0  0  0  0
  9 10  2  0  0  0  0
 11 12  1  0  0  0  0
 12 13  2  0  0  0  0
M  END
>  <CHROM.1>
9.05804777,3.50233493,35.63753955,1.14953569,0.58165625,-2.85251062

>  <Name>
1o15_lig

>  <RI>
0

>  <Rbt.Current_Directory>
/home/itssahil/PROJECTS/Mol_Feturizer/New_Systems/rnas/1o15

>  <Rbt.Executable>
rbdock ($Id: //depot/dev/client3/rdock/2013.1/src/exe/rbdock.cxx#4 $)

>  <Rbt.Library>
libRbt.so (2013.1, Build901 2013/11/27)

>  <Rbt.Parameter_File>
/export/apps/rDock/src/rDock_2013.1_src/data/scripts/dock_solv.prm

>  <Rbt.Receptor>
prm/pocket_docking_4.prm

>  <SCORE>
-20.0134

>  <SCORE.INTER>
-20.0134

>  <SCORE.INTER.CONST>
1

>  <SCORE.INTER.POLAR>
-1.80665

>  <SCORE.INTER.ROT>
0

>  <SCORE.INTER.SOLV>
7.79577

>  <SCORE.INTER.VDW>
-13.5187

>  <SCORE.INTER.norm>
-1.53949

>  <SCORE.INTRA>
0

>  <SCORE.INTRA.DIHEDRAL>
0

>  <SCORE.INTRA.DIHEDRAL.0>
0

>  <SCORE.INTRA.POLAR>
0

>  <SCORE.INTRA.POLAR.0>
0

>  <SCORE.INTRA.REPUL>
0

>  <SCORE.INTRA.REPUL.0>
0

>  <SCORE.INTRA.SOLV>
0

>  <SCORE.INTRA.SOLV.lig_0>
-12.9184

>  <SCORE.INTRA.VDW>
0

>  <SCORE.INTRA.VDW.0>
0

>  <SCORE.INTRA.norm>
0

>  <SCORE.RESTR>
0

>  <SCORE.RESTR.CAVITY>
0

>  <SCORE.RESTR.norm>
0

>  <SCORE.SYSTEM>
0

>  <SCORE.SYSTEM.CONST>
0

>  <SCORE.SYSTEM.DIHEDRAL>
0

>  <SCORE.SYSTEM.SOLV>
0

>  <SCORE.SYSTEM.norm>
0

>  <SCORE.heavy>
13

>  <SCORE.norm>
-1.53949

>  <RMSD>
1.932

$$$$
1o15_lig
 OpenBabel11021811403D
libRbt.so/2013.1/901 2013/11/27
 13 14  0  0  0  0  0  0  0  0999 V2000
    9.4054    0.1343   34.6842 C   0  0  0  0  0  0  0  0  0  0  0  0
    9.1701    1.3858   35.2093 N   0  0  0  0  0  0  0  0  0  0  0  0
    9.9391    1.7874   36.2553 C   0  0  0  0  0  0  0  0  0  0  0  0
   10.7815    0.9819   36.6432 O   0  0  0  0  0  0  0  0  0  0  0  0
   10.6208    3.3763   37.9461 C   0  0  0  0  0  0  0  0  0  0  0  0
    9.8285    2.9963   36.8840 N   0  0  0  0  0  0  0  0  0  0  0  0
    8.8564    3.7856   36.3520 C   0  0  0  0  0  0  0  0  0  0  0  0
    8.0923    3.3717   35.2997 C   0  0  0  0  0  0  0  0  0  0  0  0
    8.1970    2.1300   34.6457 C   0  0  0  0  0  0  0  0  0  0  0  0
    7.5447    1.6979   33.6988 O   0  0  0  0  0  0  0  0  0  0  0  0
    7.2202    4.4170   35.0318 N   0  0  0  0  0  0  0  0  0  0  0  0
    7.5148    5.3861   35.9339 C   0  0  0  0  0  0  0  0  0  0  0  0
    8.4829    5.0652   36.7492 N   0  0  0  0  0  0  0  0  0  0  0  0
  1  2  1  0  0  0  0
  2  3  1  0  0  0  0
  2  9  1  0  0  0  0
  3  4  2  0  0  0  0
  3  6  1  0  0  0  0
  6  5  1  0  0  0  0
  6  7  1  0  0  0  0
  7  8  2  0  0  0  0
  7 13  1  0  0  0  0
  8  9  1  0  0  0  0
  8 11  1  0  0  0  0
  9 10  2  0  0  0  0
 11 12  1  0  0  0  0
 12 13  2  0  0  0  0
M  END
>  <CHROM.1>
8.91494781,2.76100006,35.78482166,0.96399557,0.72761348,-2.59072795

>  <Name>
1o15_lig

>  <RI>
0

>  <Rbt.Current_Directory>
/home/itssahil/PROJECTS/Mol_Feturizer/New_Systems/rnas/1o15

>  <Rbt.Executable>
rbdock ($Id: //depot/dev/client3/rdock/2013.1/src/exe/rbdock.cxx#4 $)

>  <Rbt.Library>
libRbt.so (2013.1, Build901 2013/11/27)

>  <Rbt.Parameter_File>
/export/apps/rDock/src/rDock_2013.1_src/data/scripts/dock_solv.prm

>  <Rbt.Receptor>
prm/pocket_docking_6.prm

>  <SCORE>
-22.6655

>  <SCORE.INTER>
-22.6655

>  <SCORE.INTER.CONST>
1

>  <SCORE.INTER.POLAR>
-1.97502

>  <SCORE.INTER.ROT>
0

>  <SCORE.INTER.SOLV>
7.07678

>  <SCORE.INTER.VDW>
-14.4859

>  <SCORE.INTER.norm>
-1.7435

>  <SCORE.INTRA>
0

>  <SCORE.INTRA.DIHEDRAL>
0

>  <SCORE.INTRA.DIHEDRAL.0>
0

>  <SCORE.INTRA.POLAR>
0

>  <SCORE.INTRA.POLAR.0>
0

>  <SCORE.INTRA.REPUL>
0

>  <SCORE.INTRA.REPUL.0>
0

>  <SCORE.INTRA.SOLV>
0

>  <SCORE.INTRA.SOLV.lig_0>
-12.9184

>  <SCORE.INTRA.VDW>
0

>  <SCORE.INTRA.VDW.0>
0

>  <SCORE.INTRA.norm>
0

>  <SCORE.RESTR>
0

>  <SCORE.RESTR.CAVITY>
0

>  <SCORE.RESTR.norm>
0

>  <SCORE.SYSTEM>
0

>  <SCORE.SYSTEM.CONST>
0

>  <SCORE.SYSTEM.DIHEDRAL>
0

>  <SCORE.SYSTEM.SOLV>
0

>  <SCORE.SYSTEM.norm>
0

>  <SCORE.heavy>
13

>  <SCORE.norm>
-1.7435

>  <RMSD>
1.933

$$$$
1o15_lig
 OpenBabel11021811403D
libRbt.so/2013.1/901 2013/11/27
 13 14  0  0  0  0  0  0  0  0999 V2000
    9.1730    0.7002   34.8771 C   0  0  0  0  0  0  0  0  0  0  0  0
    9.1183    2.0290   35.2359 N   0  0  0  0  0  0  0  0  0  0  0  0
   10.0987    2.5056   36.0473 C   0  0  0  0  0  0  0  0  0  0  0  0
   10.9519    1.6926   36.3937 O   0  0  0  0  0  0  0  0  0  0  0  0
   11.1890    4.2517   37.3164 C   0  0  0  0  0  0  0  0  0  0  0  0
   10.1839    3.7961   36.4902 N   0  0  0  0  0  0  0  0  0  0  0  0
    9.1746    4.5841   36.0304 C   0  0  0  0  0  0  0  0  0  0  0  0
    8.1972    4.0940   35.2138 C   0  0  0  0  0  0  0  0  0  0  0  0
    8.0993    2.7681   34.7525 C   0  0  0  0  0  0  0  0  0  0  0  0
    7.2507    2.2653   34.0205 O   0  0  0  0  0  0  0  0  0  0  0  0
    7.3523    5.1631   34.9522 N   0  0  0  0  0  0  0  0  0  0  0  0
    7.8735    6.2204   35.6231 C   0  0  0  0  0  0  0  0  0  0  0  0
    8.9614    5.9346   36.2861 N   0  0  0  0  0  0  0  0  0  0  0  0
  1  2  1  0  0  0  0
  2  3  1  0  0  0  0
  2  9  1  0  0  0  0
  3  4  2  0  0  0  0
  3  6  1  0  0  0  0
  6  5  1  0  0  0  0
  6  7  1  0  0  0  0
  7  8  2  0  0  0  0
  7 13  1  0  0  0  0
  8  9  1  0  0  0  0
  8 11  1  0  0  0  0
  9 10  2  0  0  0  0
 11 12  1  0  0  0  0
 12 13  2  0  0  0  0
M  END
>  <CHROM.1>
9.06133405,3.48856595,35.62805403,1.14703513,0.58234666,-2.85297195

>  <Name>
1o15_lig

>  <RI>
0

>  <Rbt.Current_Directory>
/home/itssahil/PROJECTS/Mol_Feturizer/New_Systems/rnas/1o15

>  <Rbt.Executable>
rbdock ($Id: //depot/dev/client3/rdock/2013.1/src/exe/rbdock.cxx#4 $)

>  <Rbt.Library>
libRbt.so (2013.1, Build901 2013/11/27)

>  <Rbt.Parameter_File>
/export/apps/rDock/src/rDock_2013.1_src/data/scripts/dock_solv.prm

>  <Rbt.Receptor>
prm/pocket_docking_7.prm

>  <SCORE>
-19.9804

>  <SCORE.INTER>
-19.9804

>  <SCORE.INTER.CONST>
1

>  <SCORE.INTER.POLAR>
-1.83638

>  <SCORE.INTER.ROT>
0

>  <SCORE.INTER.SOLV>
7.80158

>  <SCORE.INTER.VDW>
-13.3996

>  <SCORE.INTER.norm>
-1.53696

>  <SCORE.INTRA>
0

>  <SCORE.INTRA.DIHEDRAL>
0

>  <SCORE.INTRA.DIHEDRAL.0>
0

>  <SCORE.INTRA.POLAR>
0

>  <SCORE.INTRA.POLAR.0>
0

>  <SCORE.INTRA.REPUL>
0

>  <SCORE.INTRA.REPUL.0>
0

>  <SCORE.INTRA.SOLV>
0

>  <SCORE.INTRA.SOLV.lig_0>
-12.9184

>  <SCORE.INTRA.VDW>
0

>  <SCORE.INTRA.VDW.0>
0

>  <SCORE.INTRA.norm>
0

>  <SCORE.RESTR>
0

>  <SCORE.RESTR.CAVITY>
0

>  <SCORE.RESTR.norm>
0

>  <SCORE.SYSTEM>
0

>  <SCORE.SYSTEM.CONST>
0

>  <SCORE.SYSTEM.DIHEDRAL>
0

>  <SCORE.SYSTEM.SOLV>
0

>  <SCORE.SYSTEM.norm>
0

>  <SCORE.heavy>
13

>  <SCORE.norm>
-1.53696

>  <RMSD>
1.934

$$$$
1o15_lig
 OpenBabel11021811403D
libRbt.so/2013.1/901 2013/11/27
 13 14  0  0  0  0  0  0  0  0999 V2000
    9.2264    0.0397   34.9281 C   0  0  0  0  0  0  0  0  0  0  0  0
    8.9450    1.2985   35.4114 N   0  0  0  0  0  0  0  0  0  0  0  0
    9.5707    1.6925   36.5515 C   0  0  0  0  0  0  0  0  0  0  0  0
   10.3367    0.8743   37.0542 O   0  0  0  0  0  0  0  0  0  0  0  0
   10.0441    3.2792   38.3141 C   0  0  0  0  0  0  0  0  0  0  0  0
    9.3979    2.9071   37.1547 N   0  0  0  0  0  0  0  0  0  0  0  0
    8.5229    3.7107   36.4915 C   0  0  0  0  0  0  0  0  0  0  0  0
    7.9027    3.3042   35.3458 C   0  0  0  0  0  0  0  0  0  0  0  0
    8.0726    2.0568   34.7169 C   0  0  0  0  0  0  0  0  0  0  0  0
    7.5482    1.6308   33.6910 O   0  0  0  0  0  0  0  0  0  0  0  0
    7.0954    4.3636   34.9570 N   0  0  0  0  0  0  0  0  0  0  0  0
    7.2818    5.3327   35.8874 C   0  0  0  0  0  0  0  0  0  0  0  0
    8.1227    4.9993   36.8290 N   0  0  0  0  0  0  0  0  0  0  0  0
  1  2  1  0  0  0  0
  2  3  1  0  0  0  0
  2  9  1  0  0  0  0
  3  4  2  0  0  0  0
  3  6  1  0  0  0  0
  6  5  1  0  0  0  0
  6  7  1  0  0  0  0
  7  8  2  0  0  0  0
  7 13  1  0  0  0  0
  8  9  1  0  0  0  0
  8 11  1  0  0  0  0
  9 10  2  0  0  0  0
 11 12  1  0  0  0  0
 12 13  2  0  0  0  0
M  END
>  <CHROM.1>
8.63936033,2.68166132,35.94142848,0.87924488,0.85307034,-2.53530700

>  <Name>
1o15_lig

>  <RI>
0

>  <Rbt.Current_Directory>
/home/itssahil/PROJECTS/Mol_Feturizer/New_Systems/rnas/1o15

>  <Rbt.Executable>
rbdock ($Id: //depot/dev/client3/rdock/2013.1/src/exe/rbdock.cxx#4 $)

>  <Rbt.Library>
libRbt.so (2013.1, Build901 2013/11/27)

>  <Rbt.Parameter_File>
/export/apps/rDock/src/rDock_2013.1_src/data/scripts/dock_solv.prm

>  <Rbt.Receptor>
prm/blind_docking_80.prm

>  <SCORE>
-23.1702

>  <SCORE.INTER>
-23.1702

>  <SCORE.INTER.CONST>
1

>  <SCORE.INTER.POLAR>
-2.17473

>  <SCORE.INTER.ROT>
0

>  <SCORE.INTER.SOLV>
7.15151

>  <SCORE.INTER.VDW>
-14.1816

>  <SCORE.INTER.norm>
-1.78233

>  <SCORE.INTRA>
0

>  <SCORE.INTRA.DIHEDRAL>
0

>  <SCORE.INTRA.DIHEDRAL.0>
0

>  <SCORE.INTRA.POLAR>
0

>  <SCORE.INTRA.POLAR.0>
0

>  <SCORE.INTRA.REPUL>
0

>  <SCORE.INTRA.REPUL.0>
0

>  <SCORE.INTRA.SOLV>
0

>  <SCORE.INTRA.SOLV.lig_0>
-12.9184

>  <SCORE.INTRA.VDW>
0

>  <SCORE.INTRA.VDW.0>
0

>  <SCORE.INTRA.norm>
0

>  <SCORE.RESTR>
0

>  <SCORE.RESTR.CAVITY>
0

>  <SCORE.RESTR.norm>
0

>  <SCORE.SYSTEM>
0

>  <SCORE.SYSTEM.CONST>
0

>  <SCORE.SYSTEM.DIHEDRAL>
0

>  <SCORE.SYSTEM.SOLV>
0

>  <SCORE.SYSTEM.norm>
0

>  <SCORE.heavy>
13

>  <SCORE.norm>
-1.78233

>  <RMSD>
1.938

$$$$
1o15_lig
 OpenBabel11021811403D
libRbt.so/2013.1/901 2013/11/27
 13 14  0  0  0  0  0  0  0  0999 V2000
    9.2447    0.0540   34.9120 C   0  0  0  0  0  0  0  0  0  0  0  0
    8.9613    1.3126   35.3948 N   0  0  0  0  0  0  0  0  0  0  0  0
    9.5879    1.7089   36.5336 C   0  0  0  0  0  0  0  0  0  0  0  0
   10.3565    0.8928   37.0357 O   0  0  0  0  0  0  0  0  0  0  0  0
   10.0606    3.2981   38.2941 C   0  0  0  0  0  0  0  0  0  0  0  0
    9.4134    2.9236   37.1360 N   0  0  0  0  0  0  0  0  0  0  0  0
    8.5355    3.7247   36.4736 C   0  0  0  0  0  0  0  0  0  0  0  0
    7.9144    3.3160   35.3293 C   0  0  0  0  0  0  0  0  0  0  0  0
    8.0860    2.0684   34.7011 C   0  0  0  0  0  0  0  0  0  0  0  0
    7.5609    1.6404   33.6764 O   0  0  0  0  0  0  0  0  0  0  0  0
    7.1041    4.3732   34.9409 N   0  0  0  0  0  0  0  0  0  0  0  0
    7.2899    5.3435   35.8702 C   0  0  0  0  0  0  0  0  0  0  0  0
    8.1330    5.0127   36.8107 N   0  0  0  0  0  0  0  0  0  0  0  0
  1  2  1  0  0  0  0
  2  3  1  0  0  0  0
  2  9  1  0  0  0  0
  3  4  2  0  0  0  0
  3  6  1  0  0  0  0
  6  5  1  0  0  0  0
  6  7  1  0  0  0  0
  7  8  2  0  0  0  0
  7 13  1  0  0  0  0
  8  9  1  0  0  0  0
  8 11  1  0  0  0  0
  9 10  2  0  0  0  0
 11 12  1  0  0  0  0
 12 13  2  0  0  0  0
M  END
>  <CHROM.1>
8.65335841,2.69552200,35.92418635,0.87785744,0.85049449,-2.53507145

>  <Name>
1o15_lig

>  <RI>
0

>  <Rbt.Current_Directory>
/home/itssahil/PROJECTS/Mol_Feturizer/New_Systems/rnas/1o15

>  <Rbt.Executable>
rbdock ($Id: //depot/dev/client3/rdock/2013.1/src/exe/rbdock.cxx#4 $)

>  <Rbt.Library>
libRbt.so (2013.1, Build901 2013/11/27)

>  <Rbt.Parameter_File>
/export/apps/rDock/src/rDock_2013.1_src/data/scripts/dock_solv.prm

>  <Rbt.Receptor>
prm/pocket_docking_5.prm

>  <SCORE>
-23.1408

>  <SCORE.INTER>
-23.1408

>  <SCORE.INTER.CONST>
1

>  <SCORE.INTER.POLAR>
-2.16867

>  <SCORE.INTER.ROT>
0

>  <SCORE.INTER.SOLV>
7.13463

>  <SCORE.INTER.VDW>
-14.1765

>  <SCORE.INTER.norm>
-1.78006

>  <SCORE.INTRA>
0

>  <SCORE.INTRA.DIHEDRAL>
0

>  <SCORE.INTRA.DIHEDRAL.0>
0

>  <SCORE.INTRA.POLAR>
0

>  <SCORE.INTRA.POLAR.0>
0

>  <SCORE.INTRA.REPUL>
0

>  <SCORE.INTRA.REPUL.0>
0

>  <SCORE.INTRA.SOLV>
0

>  <SCORE.INTRA.SOLV.lig_0>
-12.9184

>  <SCORE.INTRA.VDW>
0

>  <SCORE.INTRA.VDW.0>
0

>  <SCORE.INTRA.norm>
0

>  <SCORE.RESTR>
0

>  <SCORE.RESTR.CAVITY>
0

>  <SCORE.RESTR.norm>
0

>  <SCORE.SYSTEM>
0

>  <SCORE.SYSTEM.CONST>
0

>  <SCORE.SYSTEM.DIHEDRAL>
0

>  <SCORE.SYSTEM.SOLV>
0

>  <SCORE.SYSTEM.norm>
0

>  <SCORE.heavy>
13

>  <SCORE.norm>
-1.78006

>  <RMSD>
1.939

$$$$
1o15_lig
 OpenBabel11021811403D
libRbt.so/2013.1/901 2013/11/27
 13 14  0  0  0  0  0  0  0  0999 V2000
    9.2320    0.0070   34.8982 C   0  0  0  0  0  0  0  0  0  0  0  0
    8.9738    1.2736   35.3741 N   0  0  0  0  0  0  0  0  0  0  0  0
    9.6129    1.6655   36.5075 C   0  0  0  0  0  0  0  0  0  0  0  0
   10.3687    0.8386   37.0114 O   0  0  0  0  0  0  0  0  0  0  0  0
   10.1227    3.2569   38.2557 C   0  0  0  0  0  0  0  0  0  0  0  0
    9.4634    2.8870   37.1029 N   0  0  0  0  0  0  0  0  0  0  0  0
    8.5973    3.6998   36.4394 C   0  0  0  0  0  0  0  0  0  0  0  0
    7.9635    3.2953   35.3005 C   0  0  0  0  0  0  0  0  0  0  0  0
    8.1094    2.0409   34.6795 C   0  0  0  0  0  0  0  0  0  0  0  0
    7.5718    1.6161   33.6600 O   0  0  0  0  0  0  0  0  0  0  0  0
    7.1710    4.3648   34.9090 N   0  0  0  0  0  0  0  0  0  0  0  0
    7.3787    5.3373   35.8313 C   0  0  0  0  0  0  0  0  0  0  0  0
    8.2200    4.9971   36.7700 N   0  0  0  0  0  0  0  0  0  0  0  0
  1  2  1  0  0  0  0
  2  3  1  0  0  0  0
  2  9  1  0  0  0  0
  3  4  2  0  0  0  0
  3  6  1  0  0  0  0
  6  5  1  0  0  0  0
  6  7  1  0  0  0  0
  7  8  2  0  0  0  0
  7 13  1  0  0  0  0
  8  9  1  0  0  0  0
  8 11  1  0  0  0  0
  9 10  2  0  0  0  0
 11 12  1  0  0  0  0
 12 13  2  0  0  0  0
M  END
>  <CHROM.1>
8.69375115,2.66521455,35.89603461,0.90484698,0.85695307,-2.56177622

>  <Name>
1o15_lig

>  <RI>
0

>  <Rbt.Current_Directory>
/home/itssahil/PROJECTS/Mol_Feturizer/New_Systems/rnas/1o15

>  <Rbt.Executable>
rbdock ($Id: //depot/dev/client3/rdock/2013.1/src/exe/rbdock.cxx#4 $)

>  <Rbt.Library>
libRbt.so (2013.1, Build901 2013/11/27)

>  <Rbt.Parameter_File>
/export/apps/rDock/src/rDock_2013.1_src/data/scripts/dock_solv.prm

>  <Rbt.Receptor>
prm/blind_docking_40.prm

>  <SCORE>
-22.7421

>  <SCORE.INTER>
-23.1686

>  <SCORE.INTER.CONST>
1

>  <SCORE.INTER.POLAR>
-2.21212

>  <SCORE.INTER.ROT>
0

>  <SCORE.INTER.SOLV>
6.96742

>  <SCORE.INTER.VDW>
-13.9944

>  <SCORE.INTER.norm>
-1.7822

>  <SCORE.INTRA>
0

>  <SCORE.INTRA.DIHEDRAL>
0

>  <SCORE.INTRA.DIHEDRAL.0>
0

>  <SCORE.INTRA.POLAR>
0

>  <SCORE.INTRA.POLAR.0>
0

>  <SCORE.INTRA.REPUL>
0

>  <SCORE.INTRA.REPUL.0>
0

>  <SCORE.INTRA.SOLV>
0

>  <SCORE.INTRA.SOLV.lig_0>
-12.9184

>  <SCORE.INTRA.VDW>
0

>  <SCORE.INTRA.VDW.0>
0

>  <SCORE.INTRA.norm>
0

>  <SCORE.RESTR>
0.426478

>  <SCORE.RESTR.CAVITY>
0.426478

>  <SCORE.RESTR.norm>
0.032806

>  <SCORE.SYSTEM>
0

>  <SCORE.SYSTEM.CONST>
0

>  <SCORE.SYSTEM.DIHEDRAL>
0

>  <SCORE.SYSTEM.SOLV>
0

>  <SCORE.SYSTEM.norm>
0

>  <SCORE.heavy>
13

>  <SCORE.norm>
-1.74939

>  <RMSD>
1.941

$$$$
1o15_lig
 OpenBabel11021811403D
libRbt.so/2013.1/901 2013/11/27
 13 14  0  0  0  0  0  0  0  0999 V2000
    9.2907    0.0315   34.8288 C   0  0  0  0  0  0  0  0  0  0  0  0
    9.0233    1.2827   35.3390 N   0  0  0  0  0  0  0  0  0  0  0  0
    9.6932    1.6658   36.4576 C   0  0  0  0  0  0  0  0  0  0  0  0
   10.4829    0.8453   36.9183 O   0  0  0  0  0  0  0  0  0  0  0  0
   10.2307    3.2328   38.2194 C   0  0  0  0  0  0  0  0  0  0  0  0
    9.5394    2.8718   37.0826 N   0  0  0  0  0  0  0  0  0  0  0  0
    8.6343    3.6790   36.4659 C   0  0  0  0  0  0  0  0  0  0  0  0
    7.9698    3.2836   35.3414 C   0  0  0  0  0  0  0  0  0  0  0  0
    8.1197    2.0450   34.6904 C   0  0  0  0  0  0  0  0  0  0  0  0
    7.5559    1.6291   33.6814 O   0  0  0  0  0  0  0  0  0  0  0  0
    7.1423    4.3435   34.9993 N   0  0  0  0  0  0  0  0  0  0  0  0
    7.3620    5.3019   35.9335 C   0  0  0  0  0  0  0  0  0  0  0  0
    8.2422    4.9612   36.8357 N   0  0  0  0  0  0  0  0  0  0  0  0
  1  2  1  0  0  0  0
  2  3  1  0  0  0  0
  2  9  1  0  0  0  0
  3  4  2  0  0  0  0
  3  6  1  0  0  0  0
  6  5  1  0  0  0  0
  6  7  1  0  0  0  0
  7  8  2  0  0  0  0
  7 13  1  0  0  0  0
  8  9  1  0  0  0  0
  8 11  1  0  0  0  0
  9 10  2  0  0  0  0
 11 12  1  0  0  0  0
 12 13  2  0  0  0  0
M  END
>  <CHROM.1>
8.73304718,2.65756408,35.89857053,0.90757593,0.81663429,-2.54374252

>  <Name>
1o15_lig

>  <RI>
0

>  <Rbt.Current_Directory>
/home/itssahil/PROJECTS/Mol_Feturizer/New_Systems/rnas/1o15

>  <Rbt.Executable>
rbdock ($Id: //depot/dev/client3/rdock/2013.1/src/exe/rbdock.cxx#4 $)

>  <Rbt.Library>
libRbt.so (2013.1, Build901 2013/11/27)

>  <Rbt.Parameter_File>
/export/apps/rDock/src/rDock_2013.1_src/data/scripts/dock_solv.prm

>  <Rbt.Receptor>
prm/pocket_docking_5.prm

>  <SCORE>
-23.1881

>  <SCORE.INTER>
-23.1881

>  <SCORE.INTER.CONST>
1

>  <SCORE.INTER.POLAR>
-2.1319

>  <SCORE.INTER.ROT>
0

>  <SCORE.INTER.SOLV>
7.02164

>  <SCORE.INTER.VDW>
-14.293

>  <SCORE.INTER.norm>
-1.7837

>  <SCORE.INTRA>
0

>  <SCORE.INTRA.DIHEDRAL>
0

>  <SCORE.INTRA.DIHEDRAL.0>
0

>  <SCORE.INTRA.POLAR>
0

>  <SCORE.INTRA.POLAR.0>
0

>  <SCORE.INTRA.REPUL>
0

>  <SCORE.INTRA.REPUL.0>
0

>  <SCORE.INTRA.SOLV>
0

>  <SCORE.INTRA.SOLV.lig_0>
-12.9184

>  <SCORE.INTRA.VDW>
0

>  <SCORE.INTRA.VDW.0>
0

>  <SCORE.INTRA.norm>
0

>  <SCORE.RESTR>
0

>  <SCORE.RESTR.CAVITY>
0

>  <SCORE.RESTR.norm>
0

>  <SCORE.SYSTEM>
0

>  <SCORE.SYSTEM.CONST>
0

>  <SCORE.SYSTEM.DIHEDRAL>
0

>  <SCORE.SYSTEM.SOLV>
0

>  <SCORE.SYSTEM.norm>
0

>  <SCORE.heavy>
13

>  <SCORE.norm>
-1.7837

>  <RMSD>
1.944

$$$$
1o15_lig
 OpenBabel11021811403D
libRbt.so/2013.1/901 2013/11/27
 13 14  0  0  0  0  0  0  0  0999 V2000
    9.1841   -0.0107   34.9127 C   0  0  0  0  0  0  0  0  0  0  0  0
    8.9334    1.2489   35.4109 N   0  0  0  0  0  0  0  0  0  0  0  0
    9.5679    1.6137   36.5559 C   0  0  0  0  0  0  0  0  0  0  0  0
   10.3132    0.7710   37.0490 O   0  0  0  0  0  0  0  0  0  0  0  0
   10.0790    3.1673   38.3374 C   0  0  0  0  0  0  0  0  0  0  0  0
    9.4246    2.8249   37.1733 N   0  0  0  0  0  0  0  0  0  0  0  0
    8.5700    3.6576   36.5195 C   0  0  0  0  0  0  0  0  0  0  0  0
    7.9408    3.2802   35.3688 C   0  0  0  0  0  0  0  0  0  0  0  0
    8.0803    2.0366   34.7252 C   0  0  0  0  0  0  0  0  0  0  0  0
    7.5463    1.6358   33.6941 O   0  0  0  0  0  0  0  0  0  0  0  0
    7.1600    4.3637   34.9924 N   0  0  0  0  0  0  0  0  0  0  0  0
    7.3696    5.3168   35.9344 C   0  0  0  0  0  0  0  0  0  0  0  0
    8.2014    4.9516   36.8722 N   0  0  0  0  0  0  0  0  0  0  0  0
  1  2  1  0  0  0  0
  2  3  1  0  0  0  0
  2  9  1  0  0  0  0
  3  4  2  0  0  0  0
  3  6  1  0  0  0  0
  6  5  1  0  0  0  0
  6  7  1  0  0  0  0
  7  8  2  0  0  0  0
  7 13  1  0  0  0  0
  8  9  1  0  0  0  0
  8 11  1  0  0  0  0
  9 10  2  0  0  0  0
 11 12  1  0  0  0  0
 12 13  2  0  0  0  0
M  END
>  <CHROM.1>
8.66150294,2.63269956,35.95725443,0.90991426,0.86737903,-2.54664318

>  <Name>
1o15_lig

>  <RI>
0

>  <Rbt.Current_Directory>
/home/itssahil/PROJECTS/Mol_Feturizer/New_Systems/rnas/1o15

>  <Rbt.Executable>
rbdock ($Id: //depot/dev/client3/rdock/2013.1/src/exe/rbdock.cxx#4 $)

>  <Rbt.Library>
libRbt.so (2013.1, Build901 2013/11/27)

>  <Rbt.Parameter_File>
/export/apps/rDock/src/rDock_2013.1_src/data/scripts/dock_solv.prm

>  <Rbt.Receptor>
prm/pocket_docking_4.prm

>  <SCORE>
-23.151

>  <SCORE.INTER>
-23.151

>  <SCORE.INTER.CONST>
1

>  <SCORE.INTER.POLAR>
-2.20659

>  <SCORE.INTER.ROT>
0

>  <SCORE.INTER.SOLV>
6.98213

>  <SCORE.INTER.VDW>
-14.006

>  <SCORE.INTER.norm>
-1.78084

>  <SCORE.INTRA>
0

>  <SCORE.INTRA.DIHEDRAL>
0

>  <SCORE.INTRA.DIHEDRAL.0>
0

>  <SCORE.INTRA.POLAR>
0

>  <SCORE.INTRA.POLAR.0>
0

>  <SCORE.INTRA.REPUL>
0

>  <SCORE.INTRA.REPUL.0>
0

>  <SCORE.INTRA.SOLV>
0

>  <SCORE.INTRA.SOLV.lig_0>
-12.9184

>  <SCORE.INTRA.VDW>
0

>  <SCORE.INTRA.VDW.0>
0

>  <SCORE.INTRA.norm>
0

>  <SCORE.RESTR>
0

>  <SCORE.RESTR.CAVITY>
0

>  <SCORE.RESTR.norm>
0

>  <SCORE.SYSTEM>
0

>  <SCORE.SYSTEM.CONST>
0

>  <SCORE.SYSTEM.DIHEDRAL>
0

>  <SCORE.SYSTEM.SOLV>
0

>  <SCORE.SYSTEM.norm>
0

>  <SCORE.heavy>
13

>  <SCORE.norm>
-1.78084

>  <RMSD>
1.945

$$$$
1o15_lig
 OpenBabel11021811403D
libRbt.so/2013.1/901 2013/11/27
 13 14  0  0  0  0  0  0  0  0999 V2000
    9.2870    0.0312   34.8253 C   0  0  0  0  0  0  0  0  0  0  0  0
    9.0238    1.2839   35.3341 N   0  0  0  0  0  0  0  0  0  0  0  0
    9.6903    1.6636   36.4558 C   0  0  0  0  0  0  0  0  0  0  0  0
   10.4735    0.8391   36.9203 O   0  0  0  0  0  0  0  0  0  0  0  0
   10.2276    3.2281   38.2199 C   0  0  0  0  0  0  0  0  0  0  0  0
    9.5399    2.8705   37.0799 N   0  0  0  0  0  0  0  0  0  0  0  0
    8.6420    3.6823   36.4588 C   0  0  0  0  0  0  0  0  0  0  0  0
    7.9808    3.2903   35.3311 C   0  0  0  0  0  0  0  0  0  0  0  0
    8.1273    2.0508   34.6810 C   0  0  0  0  0  0  0  0  0  0  0  0
    7.5661    1.6377   33.6694 O   0  0  0  0  0  0  0  0  0  0  0  0
    7.1605    4.3544   34.9849 N   0  0  0  0  0  0  0  0  0  0  0  0
    7.3807    5.3118   35.9201 C   0  0  0  0  0  0  0  0  0  0  0  0
    8.2548    4.9666   36.8265 N   0  0  0  0  0  0  0  0  0  0  0  0
  1  2  1  0  0  0  0
  2  3  1  0  0  0  0
  2  9  1  0  0  0  0
  3  4  2  0  0  0  0
  3  6  1  0  0  0  0
  6  5  1  0  0  0  0
  6  7  1  0  0  0  0
  7  8  2  0  0  0  0
  7 13  1  0  0  0  0
  8  9  1  0  0  0  0
  8 11  1  0  0  0  0
  9 10  2  0  0  0  0
 11 12  1  0  0  0  0
 12 13  2  0  0  0  0
M  END
>  <CHROM.1>
8.73806515,2.66029380,35.89202230,0.91000361,0.82351544,-2.54567711

>  <Name>
1o15_lig

>  <RI>
0

>  <Rbt.Current_Directory>
/home/itssahil/PROJECTS/Mol_Feturizer/New_Systems/rnas/1o15

>  <Rbt.Executable>
rbdock ($Id: //depot/dev/client3/rdock/2013.1/src/exe/rbdock.cxx#4 $)

>  <Rbt.Library>
libRbt.so (2013.1, Build901 2013/11/27)

>  <Rbt.Parameter_File>
/export/apps/rDock/src/rDock_2013.1_src/data/scripts/dock_solv.prm

>  <Rbt.Receptor>
prm/pocket_docking_5.prm

>  <SCORE>
-23.1859

>  <SCORE.INTER>
-23.1859

>  <SCORE.INTER.CONST>
1

>  <SCORE.INTER.POLAR>
-2.14146

>  <SCORE.INTER.ROT>
0

>  <SCORE.INTER.SOLV>
6.98901

>  <SCORE.INTER.VDW>
-14.2487

>  <SCORE.INTER.norm>
-1.78353

>  <SCORE.INTRA>
0

>  <SCORE.INTRA.DIHEDRAL>
0

>  <SCORE.INTRA.DIHEDRAL.0>
0

>  <SCORE.INTRA.POLAR>
0

>  <SCORE.INTRA.POLAR.0>
0

>  <SCORE.INTRA.REPUL>
0

>  <SCORE.INTRA.REPUL.0>
0

>  <SCORE.INTRA.SOLV>
0

>  <SCORE.INTRA.SOLV.lig_0>
-12.9184

>  <SCORE.INTRA.VDW>
0

>  <SCORE.INTRA.VDW.0>
0

>  <SCORE.INTRA.norm>
0

>  <SCORE.RESTR>
0

>  <SCORE.RESTR.CAVITY>
0

>  <SCORE.RESTR.norm>
0

>  <SCORE.SYSTEM>
0

>  <SCORE.SYSTEM.CONST>
0

>  <SCORE.SYSTEM.DIHEDRAL>
0

>  <SCORE.SYSTEM.SOLV>
0

>  <SCORE.SYSTEM.norm>
0

>  <SCORE.heavy>
13

>  <SCORE.norm>
-1.78353

>  <RMSD>
1.945

$$$$
1o15_lig
 OpenBabel11021811403D
libRbt.so/2013.1/901 2013/11/27
 13 14  0  0  0  0  0  0  0  0999 V2000
    9.2194   -0.0451   34.9117 C   0  0  0  0  0  0  0  0  0  0  0  0
    8.9675    1.2256   35.3801 N   0  0  0  0  0  0  0  0  0  0  0  0
    9.6166    1.6250   36.5052 C   0  0  0  0  0  0  0  0  0  0  0  0
   10.3751    0.8005   37.0091 O   0  0  0  0  0  0  0  0  0  0  0  0
   10.1437    3.2286   38.2369 C   0  0  0  0  0  0  0  0  0  0  0  0
    9.4741    2.8512   37.0925 N   0  0  0  0  0  0  0  0  0  0  0  0
    8.6040    3.6606   36.4299 C   0  0  0  0  0  0  0  0  0  0  0  0
    7.9601    3.2486   35.2994 C   0  0  0  0  0  0  0  0  0  0  0  0
    8.0987    1.9892   34.6869 C   0  0  0  0  0  0  0  0  0  0  0  0
    7.5519    1.5577   33.6750 O   0  0  0  0  0  0  0  0  0  0  0  0
    7.1663    4.3164   34.9064 N   0  0  0  0  0  0  0  0  0  0  0  0
    7.3834    5.2956   35.8194 C   0  0  0  0  0  0  0  0  0  0  0  0
    8.2318    4.9610   36.7538 N   0  0  0  0  0  0  0  0  0  0  0  0
  1  2  1  0  0  0  0
  2  3  1  0  0  0  0
  2  9  1  0  0  0  0
  3  4  2  0  0  0  0
  3  6  1  0  0  0  0
  6  5  1  0  0  0  0
  6  7  1  0  0  0  0
  7  8  2  0  0  0  0
  7 13  1  0  0  0  0
  8  9  1  0  0  0  0
  8 11  1  0  0  0  0
  9 10  2  0  0  0  0
 11 12  1  0  0  0  0
 12 13  2  0  0  0  0
M  END
>  <CHROM.1>
8.69416125,2.62166576,35.89369067,0.91396671,0.85097221,-2.57626237

>  <Name>
1o15_lig

>  <RI>
0

>  <Rbt.Current_Directory>
/home/itssahil/PROJECTS/Mol_Feturizer/New_Systems/rnas/1o15

>  <Rbt.Executable>
rbdock ($Id: //depot/dev/client3/rdock/2013.1/src/exe/rbdock.cxx#4 $)

>  <Rbt.Library>
libRbt.so (2013.1, Build901 2013/11/27)

>  <Rbt.Parameter_File>
/export/apps/rDock/src/rDock_2013.1_src/data/scripts/dock_solv.prm

>  <Rbt.Receptor>
prm/blind_docking_40.prm

>  <SCORE>
-22.6338

>  <SCORE.INTER>
-23.0478

>  <SCORE.INTER.CONST>
1

>  <SCORE.INTER.POLAR>
-2.20104

>  <SCORE.INTER.ROT>
0

>  <SCORE.INTER.SOLV>
6.95827

>  <SCORE.INTER.VDW>
-13.9478

>  <SCORE.INTER.norm>
-1.77291

>  <SCORE.INTRA>
0

>  <SCORE.INTRA.DIHEDRAL>
0

>  <SCORE.INTRA.DIHEDRAL.0>
0

>  <SCORE.INTRA.POLAR>
0

>  <SCORE.INTRA.POLAR.0>
0

>  <SCORE.INTRA.REPUL>
0

>  <SCORE.INTRA.REPUL.0>
0

>  <SCORE.INTRA.SOLV>
0

>  <SCORE.INTRA.SOLV.lig_0>
-12.9184

>  <SCORE.INTRA.VDW>
0

>  <SCORE.INTRA.VDW.0>
0

>  <SCORE.INTRA.norm>
0

>  <SCORE.RESTR>
0.413964

>  <SCORE.RESTR.CAVITY>
0.413964

>  <SCORE.RESTR.norm>
0.0318434

>  <SCORE.SYSTEM>
0

>  <SCORE.SYSTEM.CONST>
0

>  <SCORE.SYSTEM.DIHEDRAL>
0

>  <SCORE.SYSTEM.SOLV>
0

>  <SCORE.SYSTEM.norm>
0

>  <SCORE.heavy>
13

>  <SCORE.norm>
-1.74106

>  <RMSD>
1.946

$$$$
1o15_lig
 OpenBabel11021811403D
libRbt.so/2013.1/901 2013/11/27
 13 14  0  0  0  0  0  0  0  0999 V2000
    9.3033   -0.0080   34.8444 C   0  0  0  0  0  0  0  0  0  0  0  0
    9.0303    1.2515   35.3305 N   0  0  0  0  0  0  0  0  0  0  0  0
    9.6969    1.6583   36.4427 C   0  0  0  0  0  0  0  0  0  0  0  0
   10.4890    0.8498   36.9199 O   0  0  0  0  0  0  0  0  0  0  0  0
   10.2254    3.2605   38.1753 C   0  0  0  0  0  0  0  0  0  0  0  0
    9.5374    2.8753   37.0446 N   0  0  0  0  0  0  0  0  0  0  0  0
    8.6301    3.6671   36.4114 C   0  0  0  0  0  0  0  0  0  0  0  0
    7.9688    3.2479   35.2935 C   0  0  0  0  0  0  0  0  0  0  0  0
    8.1247    1.9978   34.6662 C   0  0  0  0  0  0  0  0  0  0  0  0
    7.5641    1.5607   33.6645 O   0  0  0  0  0  0  0  0  0  0  0  0
    7.1378    4.2979   34.9302 N   0  0  0  0  0  0  0  0  0  0  0  0
    7.3522    5.2746   35.8465 C   0  0  0  0  0  0  0  0  0  0  0  0
    8.2323    4.9545   36.7563 N   0  0  0  0  0  0  0  0  0  0  0  0
  1  2  1  0  0  0  0
  2  3  1  0  0  0  0
  2  9  1  0  0  0  0
  3  4  2  0  0  0  0
  3  6  1  0  0  0  0
  6  5  1  0  0  0  0
  6  7  1  0  0  0  0
  7  8  2  0  0  0  0
  7 13  1  0  0  0  0
  8  9  1  0  0  0  0
  8 11  1  0  0  0  0
  9 10  2  0  0  0  0
 11 12  1  0  0  0  0
 12 13  2  0  0  0  0
M  END
>  <CHROM.1>
8.73368878,2.63551401,35.86356886,0.90154598,0.81570124,-2.55824585

>  <Name>
1o15_lig

>  <RI>
0

>  <Rbt.Current_Directory>
/home/itssahil/PROJECTS/Mol_Feturizer/New_Systems/rnas/1o15

>  <Rbt.Executable>
rbdock ($Id: //depot/dev/client3/rdock/2013.1/src/exe/rbdock.cxx#4 $)

>  <Rbt.Library>
libRbt.so (2013.1, Build901 2013/11/27)

>  <Rbt.Parameter_File>
/export/apps/rDock/src/rDock_2013.1_src/data/scripts/dock_solv.prm

>  <Rbt.Receptor>
prm/pocket_docking_7.prm

>  <SCORE>
-23.1412

>  <SCORE.INTER>
-23.1412

>  <SCORE.INTER.CONST>
1

>  <SCORE.INTER.POLAR>
-2.14

>  <SCORE.INTER.ROT>
0

>  <SCORE.INTER.SOLV>
7.04884

>  <SCORE.INTER.VDW>
-14.2437

>  <SCORE.INTER.norm>
-1.78009

>  <SCORE.INTRA>
0

>  <SCORE.INTRA.DIHEDRAL>
0

>  <SCORE.INTRA.DIHEDRAL.0>
0

>  <SCORE.INTRA.POLAR>
0

>  <SCORE.INTRA.POLAR.0>
0

>  <SCORE.INTRA.REPUL>
0

>  <SCORE.INTRA.REPUL.0>
0

>  <SCORE.INTRA.SOLV>
0

>  <SCORE.INTRA.SOLV.lig_0>
-12.9184

>  <SCORE.INTRA.VDW>
0

>  <SCORE.INTRA.VDW.0>
0

>  <SCORE.INTRA.norm>
0

>  <SCORE.RESTR>
0

>  <SCORE.RESTR.CAVITY>
0

>  <SCORE.RESTR.norm>
0

>  <SCORE.SYSTEM>
0

>  <SCORE.SYSTEM.CONST>
0

>  <SCORE.SYSTEM.DIHEDRAL>
0

>  <SCORE.SYSTEM.SOLV>
0

>  <SCORE.SYSTEM.norm>
0

>  <SCORE.heavy>
13

>  <SCORE.norm>
-1.78009

>  <RMSD>
1.952

$$$$
1o15_lig
 OpenBabel11021811403D
libRbt.so/2013.1/901 2013/11/27
 13 14  0  0  0  0  0  0  0  0999 V2000
    9.3282    0.0336   34.8267 C   0  0  0  0  0  0  0  0  0  0  0  0
    9.0402    1.2862   35.3221 N   0  0  0  0  0  0  0  0  0  0  0  0
    9.6998    1.6914   36.4390 C   0  0  0  0  0  0  0  0  0  0  0  0
   10.4997    0.8879   36.9117 O   0  0  0  0  0  0  0  0  0  0  0  0
   10.2068    3.2856   38.1854 C   0  0  0  0  0  0  0  0  0  0  0  0
    9.5256    2.9019   37.0500 N   0  0  0  0  0  0  0  0  0  0  0  0
    8.6111    3.6887   36.4209 C   0  0  0  0  0  0  0  0  0  0  0  0
    7.9571    3.2711   35.2983 C   0  0  0  0  0  0  0  0  0  0  0  0
    8.1280    2.0278   34.6615 C   0  0  0  0  0  0  0  0  0  0  0  0
    7.5745    1.5925   33.6550 O   0  0  0  0  0  0  0  0  0  0  0  0
    7.1154    4.3147   34.9413 N   0  0  0  0  0  0  0  0  0  0  0  0
    7.3170    5.2865   35.8657 C   0  0  0  0  0  0  0  0  0  0  0  0
    8.1985    4.9689   36.7750 N   0  0  0  0  0  0  0  0  0  0  0  0
  1  2  1  0  0  0  0
  2  3  1  0  0  0  0
  2  9  1  0  0  0  0
  3  4  2  0  0  0  0
  3  6  1  0  0  0  0
  6  5  1  0  0  0  0
  6  7  1  0  0  0  0
  7  8  2  0  0  0  0
  7 13  1  0  0  0  0
  8  9  1  0  0  0  0
  8 11  1  0  0  0  0
  9 10  2  0  0  0  0
 11 12  1  0  0  0  0
 12 13  2  0  0  0  0
M  END
>  <CHROM.1>
8.72730372,2.66263440,35.86527065,0.88643157,0.81150360,-2.53937842

>  <Name>
1o15_lig

>  <RI>
0

>  <Rbt.Current_Directory>
/home/itssahil/PROJECTS/Mol_Feturizer/New_Systems/rnas/1o15

>  <Rbt.Executable>
rbdock ($Id: //depot/dev/client3/rdock/2013.1/src/exe/rbdock.cxx#4 $)

>  <Rbt.Library>
libRbt.so (2013.1, Build901 2013/11/27)

>  <Rbt.Parameter_File>
/export/apps/rDock/src/rDock_2013.1_src/data/scripts/dock_solv.prm

>  <Rbt.Receptor>
prm/pocket_docking_7.prm

>  <SCORE>
-23.1899

>  <SCORE.INTER>
-23.1899

>  <SCORE.INTER.CONST>
1

>  <SCORE.INTER.POLAR>
-2.12846

>  <SCORE.INTER.ROT>
0

>  <SCORE.INTER.SOLV>
7.11577

>  <SCORE.INTER.VDW>
-14.337

>  <SCORE.INTER.norm>
-1.78384

>  <SCORE.INTRA>
0

>  <SCORE.INTRA.DIHEDRAL>
0

>  <SCORE.INTRA.DIHEDRAL.0>
0

>  <SCORE.INTRA.POLAR>
0

>  <SCORE.INTRA.POLAR.0>
0

>  <SCORE.INTRA.REPUL>
0

>  <SCORE.INTRA.REPUL.0>
0

>  <SCORE.INTRA.SOLV>
0

>  <SCORE.INTRA.SOLV.lig_0>
-12.9184

>  <SCORE.INTRA.VDW>
0

>  <SCORE.INTRA.VDW.0>
0

>  <SCORE.INTRA.norm>
0

>  <SCORE.RESTR>
0

>  <SCORE.RESTR.CAVITY>
0

>  <SCORE.RESTR.norm>
0

>  <SCORE.SYSTEM>
0

>  <SCORE.SYSTEM.CONST>
0

>  <SCORE.SYSTEM.DIHEDRAL>
0

>  <SCORE.SYSTEM.SOLV>
0

>  <SCORE.SYSTEM.norm>
0

>  <SCORE.heavy>
13

>  <SCORE.norm>
-1.78384

>  <RMSD>
1.954

$$$$
1o15_lig
 OpenBabel11021811403D
libRbt.so/2013.1/901 2013/11/27
 13 14  0  0  0  0  0  0  0  0999 V2000
    9.2991    0.0156   34.8075 C   0  0  0  0  0  0  0  0  0  0  0  0
    9.0333    1.2651   35.3227 N   0  0  0  0  0  0  0  0  0  0  0  0
    9.7021    1.6420   36.4441 C   0  0  0  0  0  0  0  0  0  0  0  0
   10.4894    0.8181   36.9025 O   0  0  0  0  0  0  0  0  0  0  0  0
   10.2397    3.2005   38.2135 C   0  0  0  0  0  0  0  0  0  0  0  0
    9.5496    2.8457   37.0740 N   0  0  0  0  0  0  0  0  0  0  0  0
    8.6471    3.6573   36.4593 C   0  0  0  0  0  0  0  0  0  0  0  0
    7.9837    3.2681   35.3320 C   0  0  0  0  0  0  0  0  0  0  0  0
    8.1323    2.0320   34.6758 C   0  0  0  0  0  0  0  0  0  0  0  0
    7.5694    1.6216   33.6642 O   0  0  0  0  0  0  0  0  0  0  0  0
    7.1589    4.3311   34.9931 N   0  0  0  0  0  0  0  0  0  0  0  0
    7.3789    5.2850   35.9318 C   0  0  0  0  0  0  0  0  0  0  0  0
    8.2569    4.9387   36.8340 N   0  0  0  0  0  0  0  0  0  0  0  0
  1  2  1  0  0  0  0
  2  3  1  0  0  0  0
  2  9  1  0  0  0  0
  3  4  2  0  0  0  0
  3  6  1  0  0  0  0
  6  5  1  0  0  0  0
  6  7  1  0  0  0  0
  7  8  2  0  0  0  0
  7 13  1  0  0  0  0
  8  9  1  0  0  0  0
  8 11  1  0  0  0  0
  9 10  2  0  0  0  0
 11 12  1  0  0  0  0
 12 13  2  0  0  0  0
M  END
>  <CHROM.1>
8.74480938,2.63812004,35.88770272,0.90855503,0.81911523,-2.54014547

>  <Name>
1o15_lig

>  <RI>
0

>  <Rbt.Current_Directory>
/home/itssahil/PROJECTS/Mol_Feturizer/New_Systems/rnas/1o15

>  <Rbt.Executable>
rbdock ($Id: //depot/dev/client3/rdock/2013.1/src/exe/rbdock.cxx#4 $)

>  <Rbt.Library>
libRbt.so (2013.1, Build901 2013/11/27)

>  <Rbt.Parameter_File>
/export/apps/rDock/src/rDock_2013.1_src/data/scripts/dock_solv.prm

>  <Rbt.Receptor>
prm/pocket_docking_4.prm

>  <SCORE>
-23.222

>  <SCORE.INTER>
-23.222

>  <SCORE.INTER.CONST>
1

>  <SCORE.INTER.POLAR>
-2.14455

>  <SCORE.INTER.ROT>
0

>  <SCORE.INTER.SOLV>
6.99502

>  <SCORE.INTER.VDW>
-14.2645

>  <SCORE.INTER.norm>
-1.78631

>  <SCORE.INTRA>
0

>  <SCORE.INTRA.DIHEDRAL>
0

>  <SCORE.INTRA.DIHEDRAL.0>
0

>  <SCORE.INTRA.POLAR>
0

>  <SCORE.INTRA.POLAR.0>
0

>  <SCORE.INTRA.REPUL>
0

>  <SCORE.INTRA.REPUL.0>
0

>  <SCORE.INTRA.SOLV>
0

>  <SCORE.INTRA.SOLV.lig_0>
-12.9184

>  <SCORE.INTRA.VDW>
0

>  <SCORE.INTRA.VDW.0>
0

>  <SCORE.INTRA.norm>
0

>  <SCORE.RESTR>
0

>  <SCORE.RESTR.CAVITY>
0

>  <SCORE.RESTR.norm>
0

>  <SCORE.SYSTEM>
0

>  <SCORE.SYSTEM.CONST>
0

>  <SCORE.SYSTEM.DIHEDRAL>
0

>  <SCORE.SYSTEM.SOLV>
0

>  <SCORE.SYSTEM.norm>
0

>  <SCORE.heavy>
13

>  <SCORE.norm>
-1.78631

>  <RMSD>
1.955

$$$$
1o15_lig
 OpenBabel11021811403D
libRbt.so/2013.1/901 2013/11/27
 13 14  0  0  0  0  0  0  0  0999 V2000
    9.3104    0.0068   34.8393 C   0  0  0  0  0  0  0  0  0  0  0  0
    9.0305    1.2633   35.3293 N   0  0  0  0  0  0  0  0  0  0  0  0
    9.6903    1.6678   36.4463 C   0  0  0  0  0  0  0  0  0  0  0  0
   10.4830    0.8602   36.9240 O   0  0  0  0  0  0  0  0  0  0  0  0
   10.2048    3.2647   38.1881 C   0  0  0  0  0  0  0  0  0  0  0  0
    9.5235    2.8818   37.0525 N   0  0  0  0  0  0  0  0  0  0  0  0
    8.6164    3.6730   36.4182 C   0  0  0  0  0  0  0  0  0  0  0  0
    7.9621    3.2561   35.2955 C   0  0  0  0  0  0  0  0  0  0  0  0
    8.1254    2.0092   34.6638 C   0  0  0  0  0  0  0  0  0  0  0  0
    7.5712    1.5743   33.6575 O   0  0  0  0  0  0  0  0  0  0  0  0
    7.1290    4.3046   34.9325 N   0  0  0  0  0  0  0  0  0  0  0  0
    7.3356    5.2783   35.8539 C   0  0  0  0  0  0  0  0  0  0  0  0
    8.2124    4.9575   36.7665 N   0  0  0  0  0  0  0  0  0  0  0  0
  1  2  1  0  0  0  0
  2  3  1  0  0  0  0
  2  9  1  0  0  0  0
  3  4  2  0  0  0  0
  3  6  1  0  0  0  0
  6  5  1  0  0  0  0
  6  7  1  0  0  0  0
  7  8  2  0  0  0  0
  7 13  1  0  0  0  0
  8  9  1  0  0  0  0
  8 11  1  0  0  0  0
  9 10  2  0  0  0  0
 11 12  1  0  0  0  0
 12 13  2  0  0  0  0
M  END
>  <CHROM.1>
8.72639242,2.64404243,35.86663796,0.89331957,0.81771874,-2.54809808

>  <Name>
1o15_lig

>  <RI>
0

>  <Rbt.Current_Directory>
/home/itssahil/PROJECTS/Mol_Feturizer/New_Systems/rnas/1o15

>  <Rbt.Executable>
rbdock ($Id: //depot/dev/client3/rdock/2013.1/src/exe/rbdock.cxx#4 $)

>  <Rbt.Library>
libRbt.so (2013.1, Build901 2013/11/27)

>  <Rbt.Parameter_File>
/export/apps/rDock/src/rDock_2013.1_src/data/scripts/dock_solv.prm

>  <Rbt.Receptor>
prm/pocket_docking_5.prm

>  <SCORE>
-23.1781

>  <SCORE.INTER>
-23.1781

>  <SCORE.INTER.CONST>
1

>  <SCORE.INTER.POLAR>
-2.14164

>  <SCORE.INTER.ROT>
0

>  <SCORE.INTER.SOLV>
7.07774

>  <SCORE.INTER.VDW>
-14.2725

>  <SCORE.INTER.norm>
-1.78293

>  <SCORE.INTRA>
0

>  <SCORE.INTRA.DIHEDRAL>
0

>  <SCORE.INTRA.DIHEDRAL.0>
0

>  <SCORE.INTRA.POLAR>
0

>  <SCORE.INTRA.POLAR.0>
0

>  <SCORE.INTRA.REPUL>
0

>  <SCORE.INTRA.REPUL.0>
0

>  <SCORE.INTRA.SOLV>
0

>  <SCORE.INTRA.SOLV.lig_0>
-12.9184

>  <SCORE.INTRA.VDW>
0

>  <SCORE.INTRA.VDW.0>
0

>  <SCORE.INTRA.norm>
0

>  <SCORE.RESTR>
0

>  <SCORE.RESTR.CAVITY>
0

>  <SCORE.RESTR.norm>
0

>  <SCORE.SYSTEM>
0

>  <SCORE.SYSTEM.CONST>
0

>  <SCORE.SYSTEM.DIHEDRAL>
0

>  <SCORE.SYSTEM.SOLV>
0

>  <SCORE.SYSTEM.norm>
0

>  <SCORE.heavy>
13

>  <SCORE.norm>
-1.78293

>  <RMSD>
1.955

$$$$
1o15_lig
 OpenBabel11021811403D
libRbt.so/2013.1/901 2013/11/27
 13 14  0  0  0  0  0  0  0  0999 V2000
    9.3321    0.0384   34.7970 C   0  0  0  0  0  0  0  0  0  0  0  0
    9.0534    1.2869   35.3078 N   0  0  0  0  0  0  0  0  0  0  0  0
    9.7237    1.6777   36.4235 C   0  0  0  0  0  0  0  0  0  0  0  0
   10.5241    0.8660   36.8812 O   0  0  0  0  0  0  0  0  0  0  0  0
   10.2515    3.2513   38.1823 C   0  0  0  0  0  0  0  0  0  0  0  0
    9.5595    2.8823   37.0486 N   0  0  0  0  0  0  0  0  0  0  0  0
    8.6433    3.6794   36.4352 C   0  0  0  0  0  0  0  0  0  0  0  0
    7.9784    3.2764   35.3136 C   0  0  0  0  0  0  0  0  0  0  0  0
    8.1390    2.0392   34.6625 C   0  0  0  0  0  0  0  0  0  0  0  0
    7.5755    1.6167   33.6561 O   0  0  0  0  0  0  0  0  0  0  0  0
    7.1382    4.3271   34.9745 N   0  0  0  0  0  0  0  0  0  0  0  0
    7.3514    5.2883   35.9074 C   0  0  0  0  0  0  0  0  0  0  0  0
    8.2389    4.9575   36.8061 N   0  0  0  0  0  0  0  0  0  0  0  0
  1  2  1  0  0  0  0
  2  3  1  0  0  0  0
  2  9  1  0  0  0  0
  3  4  2  0  0  0  0
  3  6  1  0  0  0  0
  6  5  1  0  0  0  0
  6  7  1  0  0  0  0
  7  8  2  0  0  0  0
  7 13  1  0  0  0  0
  8  9  1  0  0  0  0
  8 11  1  0  0  0  0
  9 10  2  0  0  0  0
 11 12  1  0  0  0  0
 12 13  2  0  0  0  0
M  END
>  <CHROM.1>
8.75065438,2.65883134,35.86791868,0.89805200,0.80714715,-2.53728632

>  <Name>
1o15_lig

>  <RI>
0

>  <Rbt.Current_Directory>
/home/itssahil/PROJECTS/Mol_Feturizer/New_Systems/rnas/1o15

>  <Rbt.Executable>
rbdock ($Id: //depot/dev/client3/rdock/2013.1/src/exe/rbdock.cxx#4 $)

>  <Rbt.Library>
libRbt.so (2013.1, Build901 2013/11/27)

>  <Rbt.Parameter_File>
/export/apps/rDock/src/rDock_2013.1_src/data/scripts/dock_solv.prm

>  <Rbt.Receptor>
prm/pocket_docking_7.prm

>  <SCORE>
-23.2136

>  <SCORE.INTER>
-23.2136

>  <SCORE.INTER.CONST>
1

>  <SCORE.INTER.POLAR>
-2.12503

>  <SCORE.INTER.ROT>
0

>  <SCORE.INTER.SOLV>
7.0587

>  <SCORE.INTER.VDW>
-14.3452

>  <SCORE.INTER.norm>
-1.78567

>  <SCORE.INTRA>
0

>  <SCORE.INTRA.DIHEDRAL>
0

>  <SCORE.INTRA.DIHEDRAL.0>
0

>  <SCORE.INTRA.POLAR>
0

>  <SCORE.INTRA.POLAR.0>
0

>  <SCORE.INTRA.REPUL>
0

>  <SCORE.INTRA.REPUL.0>
0

>  <SCORE.INTRA.SOLV>
0

>  <SCORE.INTRA.SOLV.lig_0>
-12.9184

>  <SCORE.INTRA.VDW>
0

>  <SCORE.INTRA.VDW.0>
0

>  <SCORE.INTRA.norm>
0

>  <SCORE.RESTR>
0

>  <SCORE.RESTR.CAVITY>
0

>  <SCORE.RESTR.norm>
0

>  <SCORE.SYSTEM>
0

>  <SCORE.SYSTEM.CONST>
0

>  <SCORE.SYSTEM.DIHEDRAL>
0

>  <SCORE.SYSTEM.SOLV>
0

>  <SCORE.SYSTEM.norm>
0

>  <SCORE.heavy>
13

>  <SCORE.norm>
-1.78567

>  <RMSD>
1.955

$$$$
1o15_lig
 OpenBabel11021811403D
libRbt.so/2013.1/901 2013/11/27
 13 14  0  0  0  0  0  0  0  0999 V2000
    9.1983    0.0026   34.9174 C   0  0  0  0  0  0  0  0  0  0  0  0
    8.9273    1.2581   35.4151 N   0  0  0  0  0  0  0  0  0  0  0  0
    9.5453    1.6285   36.5672 C   0  0  0  0  0  0  0  0  0  0  0  0
   10.2955    0.7938   37.0667 O   0  0  0  0  0  0  0  0  0  0  0  0
   10.0191    3.1848   38.3566 C   0  0  0  0  0  0  0  0  0  0  0  0
    9.3811    2.8367   37.1852 N   0  0  0  0  0  0  0  0  0  0  0  0
    8.5234    3.6603   36.5239 C   0  0  0  0  0  0  0  0  0  0  0  0
    7.9108    3.2775   35.3661 C   0  0  0  0  0  0  0  0  0  0  0  0
    8.0720    2.0367   34.7218 C   0  0  0  0  0  0  0  0  0  0  0  0
    7.5536    1.6315   33.6845 O   0  0  0  0  0  0  0  0  0  0  0  0
    7.1211    4.3521   34.9833 N   0  0  0  0  0  0  0  0  0  0  0  0
    7.3093    5.3060   35.9290 C   0  0  0  0  0  0  0  0  0  0  0  0
    8.1356    4.9491   36.8749 N   0  0  0  0  0  0  0  0  0  0  0  0
  1  2  1  0  0  0  0
  2  3  1  0  0  0  0
  2  9  1  0  0  0  0
  3  4  2  0  0  0  0
  3  6  1  0  0  0  0
  6  5  1  0  0  0  0
  6  7  1  0  0  0  0
  7  8  2  0  0  0  0
  7 13  1  0  0  0  0
  8  9  1  0  0  0  0
  8 11  1  0  0  0  0
  9 10  2  0  0  0  0
 11 12  1  0  0  0  0
 12 13  2  0  0  0  0
M  END
>  <CHROM.1>
8.63306938,2.63756946,35.96090301,0.88542910,0.86914541,-2.52620159

>  <Name>
1o15_lig

>  <RI>
0

>  <Rbt.Current_Directory>
/home/itssahil/PROJECTS/Mol_Feturizer/New_Systems/rnas/1o15

>  <Rbt.Executable>
rbdock ($Id: //depot/dev/client3/rdock/2013.1/src/exe/rbdock.cxx#4 $)

>  <Rbt.Library>
libRbt.so (2013.1, Build901 2013/11/27)

>  <Rbt.Parameter_File>
/export/apps/rDock/src/rDock_2013.1_src/data/scripts/dock_solv.prm

>  <Rbt.Receptor>
prm/pocket_docking_8.prm

>  <SCORE>
-23.1534

>  <SCORE.INTER>
-23.1534

>  <SCORE.INTER.CONST>
1

>  <SCORE.INTER.POLAR>
-2.20465

>  <SCORE.INTER.ROT>
0

>  <SCORE.INTER.SOLV>
7.11029

>  <SCORE.INTER.VDW>
-14.0569

>  <SCORE.INTER.norm>
-1.78103

>  <SCORE.INTRA>
0

>  <SCORE.INTRA.DIHEDRAL>
0

>  <SCORE.INTRA.DIHEDRAL.0>
0

>  <SCORE.INTRA.POLAR>
0

>  <SCORE.INTRA.POLAR.0>
0

>  <SCORE.INTRA.REPUL>
0

>  <SCORE.INTRA.REPUL.0>
0

>  <SCORE.INTRA.SOLV>
0

>  <SCORE.INTRA.SOLV.lig_0>
-12.9184

>  <SCORE.INTRA.VDW>
0

>  <SCORE.INTRA.VDW.0>
0

>  <SCORE.INTRA.norm>
0

>  <SCORE.RESTR>
0

>  <SCORE.RESTR.CAVITY>
0

>  <SCORE.RESTR.norm>
0

>  <SCORE.SYSTEM>
0

>  <SCORE.SYSTEM.CONST>
0

>  <SCORE.SYSTEM.DIHEDRAL>
0

>  <SCORE.SYSTEM.SOLV>
0

>  <SCORE.SYSTEM.norm>
0

>  <SCORE.heavy>
13

>  <SCORE.norm>
-1.78103

>  <RMSD>
1.955

$$$$
1o15_lig
 OpenBabel11021811403D
libRbt.so/2013.1/901 2013/11/27
 13 14  0  0  0  0  0  0  0  0999 V2000
    9.3702    0.0469   34.7524 C   0  0  0  0  0  0  0  0  0  0  0  0
    9.0985    1.2955   35.2670 N   0  0  0  0  0  0  0  0  0  0  0  0
    9.7944    1.6921   36.3648 C   0  0  0  0  0  0  0  0  0  0  0  0
   10.6095    0.8852   36.8045 O   0  0  0  0  0  0  0  0  0  0  0  0
   10.3583    3.2725   38.1062 C   0  0  0  0  0  0  0  0  0  0  0  0
    9.6402    2.8975   36.9908 N   0  0  0  0  0  0  0  0  0  0  0  0
    8.7054    3.6889   36.3985 C   0  0  0  0  0  0  0  0  0  0  0  0
    8.0148    3.2800   35.2946 C   0  0  0  0  0  0  0  0  0  0  0  0
    8.1649    2.0419   34.6427 C   0  0  0  0  0  0  0  0  0  0  0  0
    7.5787    1.6144   33.6516 O   0  0  0  0  0  0  0  0  0  0  0  0
    7.1616    4.3261   34.9738 N   0  0  0  0  0  0  0  0  0  0  0  0
    7.3934    5.2906   35.8989 C   0  0  0  0  0  0  0  0  0  0  0  0
    8.3044    4.9661   36.7761 N   0  0  0  0  0  0  0  0  0  0  0  0
  1  2  1  0  0  0  0
  2  3  1  0  0  0  0
  2  9  1  0  0  0  0
  3  4  2  0  0  0  0
  3  6  1  0  0  0  0
  6  5  1  0  0  0  0
  6  7  1  0  0  0  0
  7  8  2  0  0  0  0
  7 13  1  0  0  0  0
  8  9  1  0  0  0  0
  8 11  1  0  0  0  0
  9 10  2  0  0  0  0
 11 12  1  0  0  0  0
 12 13  2  0  0  0  0
M  END
>  <CHROM.1>
8.80335914,2.66737884,35.83113029,0.91256617,0.78412223,-2.55012688

>  <Name>
1o15_lig

>  <RI>
0

>  <Rbt.Current_Directory>
/home/itssahil/PROJECTS/Mol_Feturizer/New_Systems/rnas/1o15

>  <Rbt.Executable>
rbdock ($Id: //depot/dev/client3/rdock/2013.1/src/exe/rbdock.cxx#4 $)

>  <Rbt.Library>
libRbt.so (2013.1, Build901 2013/11/27)

>  <Rbt.Parameter_File>
/export/apps/rDock/src/rDock_2013.1_src/data/scripts/dock_solv.prm

>  <Rbt.Receptor>
prm/blind_docking_40.prm

>  <SCORE>
-22.5875

>  <SCORE.INTER>
-23.0507

>  <SCORE.INTER.CONST>
1

>  <SCORE.INTER.POLAR>
-2.09783

>  <SCORE.INTER.ROT>
0

>  <SCORE.INTER.SOLV>
7.04358

>  <SCORE.INTER.VDW>
-14.3222

>  <SCORE.INTER.norm>
-1.77313

>  <SCORE.INTRA>
0

>  <SCORE.INTRA.DIHEDRAL>
0

>  <SCORE.INTRA.DIHEDRAL.0>
0

>  <SCORE.INTRA.POLAR>
0

>  <SCORE.INTRA.POLAR.0>
0

>  <SCORE.INTRA.REPUL>
0

>  <SCORE.INTRA.REPUL.0>
0

>  <SCORE.INTRA.SOLV>
0

>  <SCORE.INTRA.SOLV.lig_0>
-12.9184

>  <SCORE.INTRA.VDW>
0

>  <SCORE.INTRA.VDW.0>
0

>  <SCORE.INTRA.norm>
0

>  <SCORE.RESTR>
0.463208

>  <SCORE.RESTR.CAVITY>
0.463208

>  <SCORE.RESTR.norm>
0.0356314

>  <SCORE.SYSTEM>
0

>  <SCORE.SYSTEM.CONST>
0

>  <SCORE.SYSTEM.DIHEDRAL>
0

>  <SCORE.SYSTEM.SOLV>
0

>  <SCORE.SYSTEM.norm>
0

>  <SCORE.heavy>
13

>  <SCORE.norm>
-1.7375

>  <RMSD>
1.956

$$$$
1o15_lig
 OpenBabel11021811403D
libRbt.so/2013.1/901 2013/11/27
 13 14  0  0  0  0  0  0  0  0999 V2000
    9.2908    0.0106   34.8200 C   0  0  0  0  0  0  0  0  0  0  0  0
    9.0245    1.2630   35.3279 N   0  0  0  0  0  0  0  0  0  0  0  0
    9.6848    1.6423   36.4534 C   0  0  0  0  0  0  0  0  0  0  0  0
   10.4656    0.8178   36.9218 O   0  0  0  0  0  0  0  0  0  0  0  0
   10.2121    3.2062   38.2211 C   0  0  0  0  0  0  0  0  0  0  0  0
    9.5307    2.8489   37.0772 N   0  0  0  0  0  0  0  0  0  0  0  0
    8.6360    3.6608   36.4516 C   0  0  0  0  0  0  0  0  0  0  0  0
    7.9810    3.2691   35.3202 C   0  0  0  0  0  0  0  0  0  0  0  0
    8.1314    2.0299   34.6703 C   0  0  0  0  0  0  0  0  0  0  0  0
    7.5758    1.6172   33.6555 O   0  0  0  0  0  0  0  0  0  0  0  0
    7.1624    4.3332   34.9700 N   0  0  0  0  0  0  0  0  0  0  0  0
    7.3773    5.2902   35.9068 C   0  0  0  0  0  0  0  0  0  0  0  0
    8.2465    4.9449   36.8178 N   0  0  0  0  0  0  0  0  0  0  0  0
  1  2  1  0  0  0  0
  2  3  1  0  0  0  0
  2  9  1  0  0  0  0
  3  4  2  0  0  0  0
  3  6  1  0  0  0  0
  6  5  1  0  0  0  0
  6  7  1  0  0  0  0
  7  8  2  0  0  0  0
  7 13  1  0  0  0  0
  8  9  1  0  0  0  0
  8 11  1  0  0  0  0
  9 10  2  0  0  0  0
 11 12  1  0  0  0  0
 12 13  2  0  0  0  0
M  END
>  <CHROM.1>
8.73539473,2.63905890,35.88492650,0.90517235,0.82788148,-2.54167380

>  <Name>
1o15_lig

>  <RI>
0

>  <Rbt.Current_Directory>
/home/itssahil/PROJECTS/Mol_Feturizer/New_Systems/rnas/1o15

>  <Rbt.Executable>
rbdock ($Id: //depot/dev/client3/rdock/2013.1/src/exe/rbdock.cxx#4 $)

>  <Rbt.Library>
libRbt.so (2013.1, Build901 2013/11/27)

>  <Rbt.Parameter_File>
/export/apps/rDock/src/rDock_2013.1_src/data/scripts/dock_solv.prm

>  <Rbt.Receptor>
prm/pocket_docking_8.prm

>  <SCORE>
-23.2467

>  <SCORE.INTER>
-23.2467

>  <SCORE.INTER.CONST>
1

>  <SCORE.INTER.POLAR>
-2.16236

>  <SCORE.INTER.ROT>
0

>  <SCORE.INTER.SOLV>
6.99217

>  <SCORE.INTER.VDW>
-14.2207

>  <SCORE.INTER.norm>
-1.78821

>  <SCORE.INTRA>
0

>  <SCORE.INTRA.DIHEDRAL>
0

>  <SCORE.INTRA.DIHEDRAL.0>
0

>  <SCORE.INTRA.POLAR>
0

>  <SCORE.INTRA.POLAR.0>
0

>  <SCORE.INTRA.REPUL>
0

>  <SCORE.INTRA.REPUL.0>
0

>  <SCORE.INTRA.SOLV>
0

>  <SCORE.INTRA.SOLV.lig_0>
-12.9184

>  <SCORE.INTRA.VDW>
0

>  <SCORE.INTRA.VDW.0>
0

>  <SCORE.INTRA.norm>
0

>  <SCORE.RESTR>
0

>  <SCORE.RESTR.CAVITY>
0

>  <SCORE.RESTR.norm>
0

>  <SCORE.SYSTEM>
0

>  <SCORE.SYSTEM.CONST>
0

>  <SCORE.SYSTEM.DIHEDRAL>
0

>  <SCORE.SYSTEM.SOLV>
0

>  <SCORE.SYSTEM.norm>
0

>  <SCORE.heavy>
13

>  <SCORE.norm>
-1.78821

>  <RMSD>
1.956

$$$$
1o15_lig
 OpenBabel11021811403D
libRbt.so/2013.1/901 2013/11/27
 13 14  0  0  0  0  0  0  0  0999 V2000
    9.3173    0.0214   34.7888 C   0  0  0  0  0  0  0  0  0  0  0  0
    9.0495    1.2692   35.3070 N   0  0  0  0  0  0  0  0  0  0  0  0
    9.7231    1.6474   36.4251 C   0  0  0  0  0  0  0  0  0  0  0  0
   10.5162    0.8260   36.8780 O   0  0  0  0  0  0  0  0  0  0  0  0
   10.2644    3.2058   38.1934 C   0  0  0  0  0  0  0  0  0  0  0  0
    9.5693    2.8497   37.0574 N   0  0  0  0  0  0  0  0  0  0  0  0
    8.6602    3.6584   36.4488 C   0  0  0  0  0  0  0  0  0  0  0  0
    7.9919    3.2680   35.3247 C   0  0  0  0  0  0  0  0  0  0  0  0
    8.1418    2.0333   34.6662 C   0  0  0  0  0  0  0  0  0  0  0  0
    7.5748    1.6218   33.6572 O   0  0  0  0  0  0  0  0  0  0  0  0
    7.1610    4.3280   34.9918 N   0  0  0  0  0  0  0  0  0  0  0  0
    7.3825    5.2817   35.9304 C   0  0  0  0  0  0  0  0  0  0  0  0
    8.2669    4.9378   36.8272 N   0  0  0  0  0  0  0  0  0  0  0  0
  1  2  1  0  0  0  0
  2  3  1  0  0  0  0
  2  9  1  0  0  0  0
  3  4  2  0  0  0  0
  3  6  1  0  0  0  0
  6  5  1  0  0  0  0
  6  7  1  0  0  0  0
  7  8  2  0  0  0  0
  7 13  1  0  0  0  0
  8  9  1  0  0  0  0
  8 11  1  0  0  0  0
  9 10  2  0  0  0  0
 11 12  1  0  0  0  0
 12 13  2  0  0  0  0
M  END
>  <CHROM.1>
8.75868130,2.64034469,35.87536302,0.90841624,0.81220626,-2.53880112

>  <Name>
1o15_lig

>  <RI>
0

>  <Rbt.Current_Directory>
/home/itssahil/PROJECTS/Mol_Feturizer/New_Systems/rnas/1o15

>  <Rbt.Executable>
rbdock ($Id: //depot/dev/client3/rdock/2013.1/src/exe/rbdock.cxx#4 $)

>  <Rbt.Library>
libRbt.so (2013.1, Build901 2013/11/27)

>  <Rbt.Parameter_File>
/export/apps/rDock/src/rDock_2013.1_src/data/scripts/dock_solv.prm

>  <Rbt.Receptor>
prm/pocket_docking_5.prm

>  <SCORE>
-23.2203

>  <SCORE.INTER>
-23.2203

>  <SCORE.INTER.CONST>
1

>  <SCORE.INTER.POLAR>
-2.13432

>  <SCORE.INTER.ROT>
0

>  <SCORE.INTER.SOLV>
7.00065

>  <SCORE.INTER.VDW>
-14.2994

>  <SCORE.INTER.norm>
-1.78618

>  <SCORE.INTRA>
0

>  <SCORE.INTRA.DIHEDRAL>
0

>  <SCORE.INTRA.DIHEDRAL.0>
0

>  <SCORE.INTRA.POLAR>
0

>  <SCORE.INTRA.POLAR.0>
0

>  <SCORE.INTRA.REPUL>
0

>  <SCORE.INTRA.REPUL.0>
0

>  <SCORE.INTRA.SOLV>
0

>  <SCORE.INTRA.SOLV.lig_0>
-12.9184

>  <SCORE.INTRA.VDW>
0

>  <SCORE.INTRA.VDW.0>
0

>  <SCORE.INTRA.norm>
0

>  <SCORE.RESTR>
0

>  <SCORE.RESTR.CAVITY>
0

>  <SCORE.RESTR.norm>
0

>  <SCORE.SYSTEM>
0

>  <SCORE.SYSTEM.CONST>
0

>  <SCORE.SYSTEM.DIHEDRAL>
0

>  <SCORE.SYSTEM.SOLV>
0

>  <SCORE.SYSTEM.norm>
0

>  <SCORE.heavy>
13

>  <SCORE.norm>
-1.78618

>  <RMSD>
1.958

$$$$
1o15_lig
 OpenBabel11021811403D
libRbt.so/2013.1/901 2013/11/27
 13 14  0  0  0  0  0  0  0  0999 V2000
    9.3058    0.0205   34.8052 C   0  0  0  0  0  0  0  0  0  0  0  0
    9.0338    1.2683   35.3215 N   0  0  0  0  0  0  0  0  0  0  0  0
    9.6980    1.6461   36.4452 C   0  0  0  0  0  0  0  0  0  0  0  0
   10.4871    0.8245   36.9047 O   0  0  0  0  0  0  0  0  0  0  0  0
   10.2246    3.2041   38.2183 C   0  0  0  0  0  0  0  0  0  0  0  0
    9.5391    2.8483   37.0764 N   0  0  0  0  0  0  0  0  0  0  0  0
    8.6353    3.6573   36.4603 C   0  0  0  0  0  0  0  0  0  0  0  0
    7.9765    3.2672   35.3306 C   0  0  0  0  0  0  0  0  0  0  0  0
    8.1317    2.0326   34.6731 C   0  0  0  0  0  0  0  0  0  0  0  0
    7.5731    1.6214   33.6593 O   0  0  0  0  0  0  0  0  0  0  0  0
    7.1486    4.3274   34.9909 N   0  0  0  0  0  0  0  0  0  0  0  0
    7.3622    5.2809   35.9315 C   0  0  0  0  0  0  0  0  0  0  0  0
    8.2390    4.9366   36.8357 N   0  0  0  0  0  0  0  0  0  0  0  0
  1  2  1  0  0  0  0
  2  3  1  0  0  0  0
  2  9  1  0  0  0  0
  3  4  2  0  0  0  0
  3  6  1  0  0  0  0
  6  5  1  0  0  0  0
  6  7  1  0  0  0  0
  7  8  2  0  0  0  0
  7 13  1  0  0  0  0
  8  9  1  0  0  0  0
  8 11  1  0  0  0  0
  9 10  2  0  0  0  0
 11 12  1  0  0  0  0
 12 13  2  0  0  0  0
M  END
>  <CHROM.1>
8.73844498,2.63933112,35.88756591,0.90160967,0.81923718,-2.53365657

>  <Name>
1o15_lig

>  <RI>
0

>  <Rbt.Current_Directory>
/home/itssahil/PROJECTS/Mol_Feturizer/New_Systems/rnas/1o15

>  <Rbt.Executable>
rbdock ($Id: //depot/dev/client3/rdock/2013.1/src/exe/rbdock.cxx#4 $)

>  <Rbt.Library>
libRbt.so (2013.1, Build901 2013/11/27)

>  <Rbt.Parameter_File>
/export/apps/rDock/src/rDock_2013.1_src/data/scripts/dock_solv.prm

>  <Rbt.Receptor>
prm/pocket_docking_7.prm

>  <SCORE>
-23.2534

>  <SCORE.INTER>
-23.2534

>  <SCORE.INTER.CONST>
1

>  <SCORE.INTER.POLAR>
-2.14222

>  <SCORE.INTER.ROT>
0

>  <SCORE.INTER.SOLV>
7.02431

>  <SCORE.INTER.VDW>
-14.3029

>  <SCORE.INTER.norm>
-1.78872

>  <SCORE.INTRA>
0

>  <SCORE.INTRA.DIHEDRAL>
0

>  <SCORE.INTRA.DIHEDRAL.0>
0

>  <SCORE.INTRA.POLAR>
0

>  <SCORE.INTRA.POLAR.0>
0

>  <SCORE.INTRA.REPUL>
0

>  <SCORE.INTRA.REPUL.0>
0

>  <SCORE.INTRA.SOLV>
0

>  <SCORE.INTRA.SOLV.lig_0>
-12.9184

>  <SCORE.INTRA.VDW>
0

>  <SCORE.INTRA.VDW.0>
0

>  <SCORE.INTRA.norm>
0

>  <SCORE.RESTR>
0

>  <SCORE.RESTR.CAVITY>
0

>  <SCORE.RESTR.norm>
0

>  <SCORE.SYSTEM>
0

>  <SCORE.SYSTEM.CONST>
0

>  <SCORE.SYSTEM.DIHEDRAL>
0

>  <SCORE.SYSTEM.SOLV>
0

>  <SCORE.SYSTEM.norm>
0

>  <SCORE.heavy>
13

>  <SCORE.norm>
-1.78872

>  <RMSD>
1.958

$$$$
1o15_lig
 OpenBabel11021811403D
libRbt.so/2013.1/901 2013/11/27
 13 14  0  0  0  0  0  0  0  0999 V2000
    9.3247    0.0237   34.7927 C   0  0  0  0  0  0  0  0  0  0  0  0
    9.0488    1.2715   35.3068 N   0  0  0  0  0  0  0  0  0  0  0  0
    9.7150    1.6551   36.4274 C   0  0  0  0  0  0  0  0  0  0  0  0
   10.5093    0.8382   36.8863 O   0  0  0  0  0  0  0  0  0  0  0  0
   10.2405    3.2198   38.1949 C   0  0  0  0  0  0  0  0  0  0  0  0
    9.5528    2.8581   37.0562 N   0  0  0  0  0  0  0  0  0  0  0  0
    8.6433    3.6616   36.4411 C   0  0  0  0  0  0  0  0  0  0  0  0
    7.9826    3.2657   35.3145 C   0  0  0  0  0  0  0  0  0  0  0  0
    8.1412    2.0302   34.6595 C   0  0  0  0  0  0  0  0  0  0  0  0
    7.5811    1.6140   33.6486 O   0  0  0  0  0  0  0  0  0  0  0  0
    7.1488    4.3214   34.9749 N   0  0  0  0  0  0  0  0  0  0  0  0
    7.3613    5.2781   35.9125 C   0  0  0  0  0  0  0  0  0  0  0  0
    8.2426    4.9400   36.8146 N   0  0  0  0  0  0  0  0  0  0  0  0
  1  2  1  0  0  0  0
  2  3  1  0  0  0  0
  2  9  1  0  0  0  0
  3  4  2  0  0  0  0
  3  6  1  0  0  0  0
  6  5  1  0  0  0  0
  6  7  1  0  0  0  0
  7  8  2  0  0  0  0
  7 13  1  0  0  0  0
  8  9  1  0  0  0  0
  8 11  1  0  0  0  0
  9 10  2  0  0  0  0
 11 12  1  0  0  0  0
 12 13  2  0  0  0  0
M  END
>  <CHROM.1>
8.74918882,2.64263679,35.87047964,0.89898615,0.81397429,-2.53420798

>  <Name>
1o15_lig

>  <RI>
0

>  <Rbt.Current_Directory>
/home/itssahil/PROJECTS/Mol_Feturizer/New_Systems/rnas/1o15

>  <Rbt.Executable>
rbdock ($Id: //depot/dev/client3/rdock/2013.1/src/exe/rbdock.cxx#4 $)

>  <Rbt.Library>
libRbt.so (2013.1, Build901 2013/11/27)

>  <Rbt.Parameter_File>
/export/apps/rDock/src/rDock_2013.1_src/data/scripts/dock_solv.prm

>  <Rbt.Receptor>
prm/pocket_docking_7.prm

>  <SCORE>
-23.2201

>  <SCORE.INTER>
-23.2201

>  <SCORE.INTER.CONST>
1

>  <SCORE.INTER.POLAR>
-2.13938

>  <SCORE.INTER.ROT>
0

>  <SCORE.INTER.SOLV>
7.03722

>  <SCORE.INTER.VDW>
-14.2946

>  <SCORE.INTER.norm>
-1.78616

>  <SCORE.INTRA>
0

>  <SCORE.INTRA.DIHEDRAL>
0

>  <SCORE.INTRA.DIHEDRAL.0>
0

>  <SCORE.INTRA.POLAR>
0

>  <SCORE.INTRA.POLAR.0>
0

>  <SCORE.INTRA.REPUL>
0

>  <SCORE.INTRA.REPUL.0>
0

>  <SCORE.INTRA.SOLV>
0

>  <SCORE.INTRA.SOLV.lig_0>
-12.9184

>  <SCORE.INTRA.VDW>
0

>  <SCORE.INTRA.VDW.0>
0

>  <SCORE.INTRA.norm>
0

>  <SCORE.RESTR>
0

>  <SCORE.RESTR.CAVITY>
0

>  <SCORE.RESTR.norm>
0

>  <SCORE.SYSTEM>
0

>  <SCORE.SYSTEM.CONST>
0

>  <SCORE.SYSTEM.DIHEDRAL>
0

>  <SCORE.SYSTEM.SOLV>
0

>  <SCORE.SYSTEM.norm>
0

>  <SCORE.heavy>
13

>  <SCORE.norm>
-1.78616

>  <RMSD>
1.961

$$$$
1o15_lig
 OpenBabel11021811403D
libRbt.so/2013.1/901 2013/11/27
 13 14  0  0  0  0  0  0  0  0999 V2000
    9.3076    0.0184   34.8294 C   0  0  0  0  0  0  0  0  0  0  0  0
    9.0269    1.2732   35.3233 N   0  0  0  0  0  0  0  0  0  0  0  0
    9.6763    1.6693   36.4493 C   0  0  0  0  0  0  0  0  0  0  0  0
   10.4612    0.8563   36.9309 O   0  0  0  0  0  0  0  0  0  0  0  0
   10.1780    3.2549   38.2051 C   0  0  0  0  0  0  0  0  0  0  0  0
    9.5074    2.8805   37.0603 N   0  0  0  0  0  0  0  0  0  0  0  0
    8.6098    3.6784   36.4209 C   0  0  0  0  0  0  0  0  0  0  0  0
    7.9659    3.2699   35.2890 C   0  0  0  0  0  0  0  0  0  0  0  0
    8.1315    2.0259   34.6523 C   0  0  0  0  0  0  0  0  0  0  0  0
    7.5864    1.5984   33.6379 O   0  0  0  0  0  0  0  0  0  0  0  0
    7.1403    4.3233   34.9231 N   0  0  0  0  0  0  0  0  0  0  0  0
    7.3405    5.2912   35.8518 C   0  0  0  0  0  0  0  0  0  0  0  0
    8.2066    4.9624   36.7719 N   0  0  0  0  0  0  0  0  0  0  0  0
  1  2  1  0  0  0  0
  2  3  1  0  0  0  0
  2  9  1  0  0  0  0
  3  4  2  0  0  0  0
  3  6  1  0  0  0  0
  6  5  1  0  0  0  0
  6  7  1  0  0  0  0
  7  8  2  0  0  0  0
  7 13  1  0  0  0  0
  8  9  1  0  0  0  0
  8 11  1  0  0  0  0
  9 10  2  0  0  0  0
 11 12  1  0  0  0  0
 12 13  2  0  0  0  0
M  END
>  <CHROM.1>
8.72201012,2.65207378,35.86486283,0.88885237,0.82839136,-2.53938780

>  <Name>
1o15_lig

>  <RI>
0

>  <Rbt.Current_Directory>
/home/itssahil/PROJECTS/Mol_Feturizer/New_Systems/rnas/1o15

>  <Rbt.Executable>
rbdock ($Id: //depot/dev/client3/rdock/2013.1/src/exe/rbdock.cxx#4 $)

>  <Rbt.Library>
libRbt.so (2013.1, Build901 2013/11/27)

>  <Rbt.Parameter_File>
/export/apps/rDock/src/rDock_2013.1_src/data/scripts/dock_solv.prm

>  <Rbt.Receptor>
prm/pocket_docking_7.prm

>  <SCORE>
-23.2722

>  <SCORE.INTER>
-23.2722

>  <SCORE.INTER.CONST>
1

>  <SCORE.INTER.POLAR>
-2.16587

>  <SCORE.INTER.ROT>
0

>  <SCORE.INTER.SOLV>
7.06885

>  <SCORE.INTER.VDW>
-14.2515

>  <SCORE.INTER.norm>
-1.79017

>  <SCORE.INTRA>
0

>  <SCORE.INTRA.DIHEDRAL>
0

>  <SCORE.INTRA.DIHEDRAL.0>
0

>  <SCORE.INTRA.POLAR>
0

>  <SCORE.INTRA.POLAR.0>
0

>  <SCORE.INTRA.REPUL>
0

>  <SCORE.INTRA.REPUL.0>
0

>  <SCORE.INTRA.SOLV>
0

>  <SCORE.INTRA.SOLV.lig_0>
-12.9184

>  <SCORE.INTRA.VDW>
0

>  <SCORE.INTRA.VDW.0>
0

>  <SCORE.INTRA.norm>
0

>  <SCORE.RESTR>
0

>  <SCORE.RESTR.CAVITY>
0

>  <SCORE.RESTR.norm>
0

>  <SCORE.SYSTEM>
0

>  <SCORE.SYSTEM.CONST>
0

>  <SCORE.SYSTEM.DIHEDRAL>
0

>  <SCORE.SYSTEM.SOLV>
0

>  <SCORE.SYSTEM.norm>
0

>  <SCORE.heavy>
13

>  <SCORE.norm>
-1.79017

>  <RMSD>
1.961

$$$$
1o15_lig
 OpenBabel11021811403D
libRbt.so/2013.1/901 2013/11/27
 13 14  0  0  0  0  0  0  0  0999 V2000
    9.2324   -0.0428   34.9089 C   0  0  0  0  0  0  0  0  0  0  0  0
    8.9633    1.2246   35.3765 N   0  0  0  0  0  0  0  0  0  0  0  0
    9.5899    1.6251   36.5139 C   0  0  0  0  0  0  0  0  0  0  0  0
   10.3454    0.8045   37.0285 O   0  0  0  0  0  0  0  0  0  0  0  0
   10.0754    3.2272   38.2592 C   0  0  0  0  0  0  0  0  0  0  0  0
    9.4286    2.8485   37.1023 N   0  0  0  0  0  0  0  0  0  0  0  0
    8.5644    3.6537   36.4271 C   0  0  0  0  0  0  0  0  0  0  0  0
    7.9432    3.2406   35.2843 C   0  0  0  0  0  0  0  0  0  0  0  0
    8.1013    1.9841   34.6706 C   0  0  0  0  0  0  0  0  0  0  0  0
    7.5753    1.5518   33.6481 O   0  0  0  0  0  0  0  0  0  0  0  0
    7.1487    4.3040   34.8806 N   0  0  0  0  0  0  0  0  0  0  0  0
    7.3429    5.2819   35.8002 C   0  0  0  0  0  0  0  0  0  0  0  0
    8.1773    4.9505   36.7482 N   0  0  0  0  0  0  0  0  0  0  0  0
  1  2  1  0  0  0  0
  2  3  1  0  0  0  0
  2  9  1  0  0  0  0
  3  4  2  0  0  0  0
  3  6  1  0  0  0  0
  6  5  1  0  0  0  0
  6  7  1  0  0  0  0
  7  8  2  0  0  0  0
  7 13  1  0  0  0  0
  8  9  1  0  0  0  0
  8 11  1  0  0  0  0
  9 10  2  0  0  0  0
 11 12  1  0  0  0  0
 12 13  2  0  0  0  0
M  END
>  <CHROM.1>
8.67120811,2.61710128,35.88941510,0.89043703,0.86169286,-2.55549818

>  <Name>
1o15_lig

>  <RI>
0

>  <Rbt.Current_Directory>
/home/itssahil/PROJECTS/Mol_Feturizer/New_Systems/rnas/1o15

>  <Rbt.Executable>
rbdock ($Id: //depot/dev/client3/rdock/2013.1/src/exe/rbdock.cxx#4 $)

>  <Rbt.Library>
libRbt.so (2013.1, Build901 2013/11/27)

>  <Rbt.Parameter_File>
/export/apps/rDock/src/rDock_2013.1_src/data/scripts/dock_solv.prm

>  <Rbt.Receptor>
prm/blind_docking_40.prm

>  <SCORE>
-22.6177

>  <SCORE.INTER>
-23.029

>  <SCORE.INTER.CONST>
1

>  <SCORE.INTER.POLAR>
-2.22301

>  <SCORE.INTER.ROT>
0

>  <SCORE.INTER.SOLV>
7.04367

>  <SCORE.INTER.VDW>
-13.8905

>  <SCORE.INTER.norm>
-1.77146

>  <SCORE.INTRA>
0

>  <SCORE.INTRA.DIHEDRAL>
0

>  <SCORE.INTRA.DIHEDRAL.0>
0

>  <SCORE.INTRA.POLAR>
0

>  <SCORE.INTRA.POLAR.0>
0

>  <SCORE.INTRA.REPUL>
0

>  <SCORE.INTRA.REPUL.0>
0

>  <SCORE.INTRA.SOLV>
0

>  <SCORE.INTRA.SOLV.lig_0>
-12.9184

>  <SCORE.INTRA.VDW>
0

>  <SCORE.INTRA.VDW.0>
0

>  <SCORE.INTRA.norm>
0

>  <SCORE.RESTR>
0.411267

>  <SCORE.RESTR.CAVITY>
0.411267

>  <SCORE.RESTR.norm>
0.0316359

>  <SCORE.SYSTEM>
0

>  <SCORE.SYSTEM.CONST>
0

>  <SCORE.SYSTEM.DIHEDRAL>
0

>  <SCORE.SYSTEM.SOLV>
0

>  <SCORE.SYSTEM.norm>
0

>  <SCORE.heavy>
13

>  <SCORE.norm>
-1.73983

>  <RMSD>
1.962

$$$$
1o15_lig
 OpenBabel11021811403D
libRbt.so/2013.1/901 2013/11/27
 13 14  0  0  0  0  0  0  0  0999 V2000
    9.3163    0.0238   34.8216 C   0  0  0  0  0  0  0  0  0  0  0  0
    9.0320    1.2762   35.3197 N   0  0  0  0  0  0  0  0  0  0  0  0
    9.6836    1.6722   36.4445 C   0  0  0  0  0  0  0  0  0  0  0  0
   10.4736    0.8613   36.9213 O   0  0  0  0  0  0  0  0  0  0  0  0
   10.1846    3.2554   38.2026 C   0  0  0  0  0  0  0  0  0  0  0  0
    9.5117    2.8811   37.0591 N   0  0  0  0  0  0  0  0  0  0  0  0
    8.6085    3.6767   36.4249 C   0  0  0  0  0  0  0  0  0  0  0  0
    7.9624    3.2684   35.2942 C   0  0  0  0  0  0  0  0  0  0  0  0
    8.1311    2.0267   34.6537 C   0  0  0  0  0  0  0  0  0  0  0  0
    7.5843    1.5994   33.6402 O   0  0  0  0  0  0  0  0  0  0  0  0
    7.1311    4.3191   34.9338 N   0  0  0  0  0  0  0  0  0  0  0  0
    7.3304    5.2856   35.8643 C   0  0  0  0  0  0  0  0  0  0  0  0
    8.2011    4.9581   36.7806 N   0  0  0  0  0  0  0  0  0  0  0  0
  1  2  1  0  0  0  0
  2  3  1  0  0  0  0
  2  9  1  0  0  0  0
  3  4  2  0  0  0  0
  3  6  1  0  0  0  0
  6  5  1  0  0  0  0
  6  7  1  0  0  0  0
  7  8  2  0  0  0  0
  7 13  1  0  0  0  0
  8  9  1  0  0  0  0
  8 11  1  0  0  0  0
  9 10  2  0  0  0  0
 11 12  1  0  0  0  0
 12 13  2  0  0  0  0
M  END
>  <CHROM.1>
8.72311339,2.65230148,35.86585824,0.88659436,0.82311435,-2.53518218

>  <Name>
1o15_lig

>  <RI>
0

>  <Rbt.Current_Directory>
/home/itssahil/PROJECTS/Mol_Feturizer/New_Systems/rnas/1o15

>  <Rbt.Executable>
rbdock ($Id: //depot/dev/client3/rdock/2013.1/src/exe/rbdock.cxx#4 $)

>  <Rbt.Library>
libRbt.so (2013.1, Build901 2013/11/27)

>  <Rbt.Parameter_File>
/export/apps/rDock/src/rDock_2013.1_src/data/scripts/dock_solv.prm

>  <Rbt.Receptor>
prm/pocket_docking_4.prm

>  <SCORE>
-23.2888

>  <SCORE.INTER>
-23.2888

>  <SCORE.INTER.CONST>
1

>  <SCORE.INTER.POLAR>
-2.15392

>  <SCORE.INTER.ROT>
0

>  <SCORE.INTER.SOLV>
7.08966

>  <SCORE.INTER.VDW>
-14.3093

>  <SCORE.INTER.norm>
-1.79145

>  <SCORE.INTRA>
0

>  <SCORE.INTRA.DIHEDRAL>
0

>  <SCORE.INTRA.DIHEDRAL.0>
0

>  <SCORE.INTRA.POLAR>
0

>  <SCORE.INTRA.POLAR.0>
0

>  <SCORE.INTRA.REPUL>
0

>  <SCORE.INTRA.REPUL.0>
0

>  <SCORE.INTRA.SOLV>
0

>  <SCORE.INTRA.SOLV.lig_0>
-12.9184

>  <SCORE.INTRA.VDW>
0

>  <SCORE.INTRA.VDW.0>
0

>  <SCORE.INTRA.norm>
0

>  <SCORE.RESTR>
0

>  <SCORE.RESTR.CAVITY>
0

>  <SCORE.RESTR.norm>
0

>  <SCORE.SYSTEM>
0

>  <SCORE.SYSTEM.CONST>
0

>  <SCORE.SYSTEM.DIHEDRAL>
0

>  <SCORE.SYSTEM.SOLV>
0

>  <SCORE.SYSTEM.norm>
0

>  <SCORE.heavy>
13

>  <SCORE.norm>
-1.79145

>  <RMSD>
1.962

$$$$
1o15_lig
 OpenBabel11021811403D
libRbt.so/2013.1/901 2013/11/27
 13 14  0  0  0  0  0  0  0  0999 V2000
    9.2856    0.0061   34.8249 C   0  0  0  0  0  0  0  0  0  0  0  0
    9.0137    1.2573   35.3328 N   0  0  0  0  0  0  0  0  0  0  0  0
    9.6635    1.6350   36.4649 C   0  0  0  0  0  0  0  0  0  0  0  0
   10.4407    0.8102   36.9388 O   0  0  0  0  0  0  0  0  0  0  0  0
   10.1735    3.1959   38.2403 C   0  0  0  0  0  0  0  0  0  0  0  0
    9.5028    2.8403   37.0896 N   0  0  0  0  0  0  0  0  0  0  0  0
    8.6131    3.6527   36.4575 C   0  0  0  0  0  0  0  0  0  0  0  0
    7.9686    3.2626   35.3194 C   0  0  0  0  0  0  0  0  0  0  0  0
    8.1259    2.0248   34.6686 C   0  0  0  0  0  0  0  0  0  0  0  0
    7.5799    1.6135   33.6480 O   0  0  0  0  0  0  0  0  0  0  0  0
    7.1524    4.3267   34.9639 N   0  0  0  0  0  0  0  0  0  0  0  0
    7.3580    5.2821   35.9044 C   0  0  0  0  0  0  0  0  0  0  0  0
    8.2192    4.9357   36.8226 N   0  0  0  0  0  0  0  0  0  0  0  0
  1  2  1  0  0  0  0
  2  3  1  0  0  0  0
  2  9  1  0  0  0  0
  3  4  2  0  0  0  0
  3  6  1  0  0  0  0
  6  5  1  0  0  0  0
  6  7  1  0  0  0  0
  7  8  2  0  0  0  0
  7 13  1  0  0  0  0
  8  9  1  0  0  0  0
  8 11  1  0  0  0  0
  9 10  2  0  0  0  0
 11 12  1  0  0  0  0
 12 13  2  0  0  0  0
M  END
>  <CHROM.1>
8.71843118,2.63208575,35.88976090,0.89655799,0.83486511,-2.53339317

>  <Name>
1o15_lig

>  <RI>
0

>  <Rbt.Current_Directory>
/home/itssahil/PROJECTS/Mol_Feturizer/New_Systems/rnas/1o15

>  <Rbt.Executable>
rbdock ($Id: //depot/dev/client3/rdock/2013.1/src/exe/rbdock.cxx#4 $)

>  <Rbt.Library>
libRbt.so (2013.1, Build901 2013/11/27)

>  <Rbt.Parameter_File>
/export/apps/rDock/src/rDock_2013.1_src/data/scripts/dock_solv.prm

>  <Rbt.Receptor>
prm/pocket_docking_6.prm

>  <SCORE>
-23.2449

>  <SCORE.INTER>
-23.2449

>  <SCORE.INTER.CONST>
1

>  <SCORE.INTER.POLAR>
-2.17236

>  <SCORE.INTER.ROT>
0

>  <SCORE.INTER.SOLV>
7.02386

>  <SCORE.INTER.VDW>
-14.1967

>  <SCORE.INTER.norm>
-1.78807

>  <SCORE.INTRA>
0

>  <SCORE.INTRA.DIHEDRAL>
0

>  <SCORE.INTRA.DIHEDRAL.0>
0

>  <SCORE.INTRA.POLAR>
0

>  <SCORE.INTRA.POLAR.0>
0

>  <SCORE.INTRA.REPUL>
0

>  <SCORE.INTRA.REPUL.0>
0

>  <SCORE.INTRA.SOLV>
0

>  <SCORE.INTRA.SOLV.lig_0>
-12.9184

>  <SCORE.INTRA.VDW>
0

>  <SCORE.INTRA.VDW.0>
0

>  <SCORE.INTRA.norm>
0

>  <SCORE.RESTR>
0

>  <SCORE.RESTR.CAVITY>
0

>  <SCORE.RESTR.norm>
0

>  <SCORE.SYSTEM>
0

>  <SCORE.SYSTEM.CONST>
0

>  <SCORE.SYSTEM.DIHEDRAL>
0

>  <SCORE.SYSTEM.SOLV>
0

>  <SCORE.SYSTEM.norm>
0

>  <SCORE.heavy>
13

>  <SCORE.norm>
-1.78807

>  <RMSD>
1.963

$$$$
1o15_lig
 OpenBabel11021811403D
libRbt.so/2013.1/901 2013/11/27
 13 14  0  0  0  0  0  0  0  0999 V2000
    9.2776    0.0175   34.8285 C   0  0  0  0  0  0  0  0  0  0  0  0
    9.0083    1.2747   35.3228 N   0  0  0  0  0  0  0  0  0  0  0  0
    9.6629    1.6653   36.4478 C   0  0  0  0  0  0  0  0  0  0  0  0
   10.4417    0.8458   36.9281 O   0  0  0  0  0  0  0  0  0  0  0  0
   10.1808    3.2466   38.2027 C   0  0  0  0  0  0  0  0  0  0  0  0
    9.5052    2.8779   37.0591 N   0  0  0  0  0  0  0  0  0  0  0  0
    8.6132    3.6833   36.4211 C   0  0  0  0  0  0  0  0  0  0  0  0
    7.9640    3.2802   35.2904 C   0  0  0  0  0  0  0  0  0  0  0  0
    8.1181    2.0349   34.6534 C   0  0  0  0  0  0  0  0  0  0  0  0
    7.5677    1.6119   33.6399 O   0  0  0  0  0  0  0  0  0  0  0  0
    7.1467    4.3405   34.9258 N   0  0  0  0  0  0  0  0  0  0  0  0
    7.3566    5.3067   35.8542 C   0  0  0  0  0  0  0  0  0  0  0  0
    8.2214    4.9706   36.7729 N   0  0  0  0  0  0  0  0  0  0  0  0
  1  2  1  0  0  0  0
  2  3  1  0  0  0  0
  2  9  1  0  0  0  0
  3  4  2  0  0  0  0
  3  6  1  0  0  0  0
  6  5  1  0  0  0  0
  6  7  1  0  0  0  0
  7  8  2  0  0  0  0
  7 13  1  0  0  0  0
  8  9  1  0  0  0  0
  8 11  1  0  0  0  0
  9 10  2  0  0  0  0
 11 12  1  0  0  0  0
 12 13  2  0  0  0  0
M  END
>  <CHROM.1>
8.71584907,2.65605353,35.86495683,0.90054805,0.83172262,-2.54801055

>  <Name>
1o15_lig

>  <RI>
0

>  <Rbt.Current_Directory>
/home/itssahil/PROJECTS/Mol_Feturizer/New_Systems/rnas/1o15

>  <Rbt.Executable>
rbdock ($Id: //depot/dev/client3/rdock/2013.1/src/exe/rbdock.cxx#4 $)

>  <Rbt.Library>
libRbt.so (2013.1, Build901 2013/11/27)

>  <Rbt.Parameter_File>
/export/apps/rDock/src/rDock_2013.1_src/data/scripts/dock_solv.prm

>  <Rbt.Receptor>
prm/blind_docking_40.prm

>  <SCORE>
-22.6867

>  <SCORE.INTER>
-23.1311

>  <SCORE.INTER.CONST>
1

>  <SCORE.INTER.POLAR>
-2.16397

>  <SCORE.INTER.ROT>
0

>  <SCORE.INTER.SOLV>
7.05301

>  <SCORE.INTER.VDW>
-14.1585

>  <SCORE.INTER.norm>
-1.77932

>  <SCORE.INTRA>
0

>  <SCORE.INTRA.DIHEDRAL>
0

>  <SCORE.INTRA.DIHEDRAL.0>
0

>  <SCORE.INTRA.POLAR>
0

>  <SCORE.INTRA.POLAR.0>
0

>  <SCORE.INTRA.REPUL>
0

>  <SCORE.INTRA.REPUL.0>
0

>  <SCORE.INTRA.SOLV>
0

>  <SCORE.INTRA.SOLV.lig_0>
-12.9184

>  <SCORE.INTRA.VDW>
0

>  <SCORE.INTRA.VDW.0>
0

>  <SCORE.INTRA.norm>
0

>  <SCORE.RESTR>
0.444421

>  <SCORE.RESTR.CAVITY>
0.444421

>  <SCORE.RESTR.norm>
0.0341862

>  <SCORE.SYSTEM>
0

>  <SCORE.SYSTEM.CONST>
0

>  <SCORE.SYSTEM.DIHEDRAL>
0

>  <SCORE.SYSTEM.SOLV>
0

>  <SCORE.SYSTEM.norm>
0

>  <SCORE.heavy>
13

>  <SCORE.norm>
-1.74513

>  <RMSD>
1.964

$$$$
1o15_lig
 OpenBabel11021811403D
libRbt.so/2013.1/901 2013/11/27
 13 14  0  0  0  0  0  0  0  0999 V2000
    9.2850   -0.0006   34.8334 C   0  0  0  0  0  0  0  0  0  0  0  0
    9.0139    1.2574   35.3248 N   0  0  0  0  0  0  0  0  0  0  0  0
    9.6684    1.6518   36.4485 C   0  0  0  0  0  0  0  0  0  0  0  0
   10.4487    0.8346   36.9304 O   0  0  0  0  0  0  0  0  0  0  0  0
   10.1847    3.2382   38.1993 C   0  0  0  0  0  0  0  0  0  0  0  0
    9.5091    2.8656   37.0568 N   0  0  0  0  0  0  0  0  0  0  0  0
    8.6156    3.6680   36.4173 C   0  0  0  0  0  0  0  0  0  0  0  0
    7.9665    3.2611   35.2879 C   0  0  0  0  0  0  0  0  0  0  0  0
    8.1223    2.0144   34.6538 C   0  0  0  0  0  0  0  0  0  0  0  0
    7.5721    1.5882   33.6417 O   0  0  0  0  0  0  0  0  0  0  0  0
    7.1474    4.3192   34.9210 N   0  0  0  0  0  0  0  0  0  0  0  0
    7.3562    5.2881   35.8470 C   0  0  0  0  0  0  0  0  0  0  0  0
    8.2219    4.9556   36.7660 N   0  0  0  0  0  0  0  0  0  0  0  0
  1  2  1  0  0  0  0
  2  3  1  0  0  0  0
  2  9  1  0  0  0  0
  3  4  2  0  0  0  0
  3  6  1  0  0  0  0
  6  5  1  0  0  0  0
  6  7  1  0  0  0  0
  7  8  2  0  0  0  0
  7 13  1  0  0  0  0
  8  9  1  0  0  0  0
  8 11  1  0  0  0  0
  9 10  2  0  0  0  0
 11 12  1  0  0  0  0
 12 13  2  0  0  0  0
M  END
>  <CHROM.1>
8.71958405,2.63957122,35.86361857,0.89899936,0.83046888,-2.54933974

>  <Name>
1o15_lig

>  <RI>
0

>  <Rbt.Current_Directory>
/home/itssahil/PROJECTS/Mol_Feturizer/New_Systems/rnas/1o15

>  <Rbt.Executable>
rbdock ($Id: //depot/dev/client3/rdock/2013.1/src/exe/rbdock.cxx#4 $)

>  <Rbt.Library>
libRbt.so (2013.1, Build901 2013/11/27)

>  <Rbt.Parameter_File>
/export/apps/rDock/src/rDock_2013.1_src/data/scripts/dock_solv.prm

>  <Rbt.Receptor>
prm/blind_docking_40.prm

>  <SCORE>
-22.6954

>  <SCORE.INTER>
-23.1434

>  <SCORE.INTER.CONST>
1

>  <SCORE.INTER.POLAR>
-2.16646

>  <SCORE.INTER.ROT>
0

>  <SCORE.INTER.SOLV>
7.04677

>  <SCORE.INTER.VDW>
-14.1563

>  <SCORE.INTER.norm>
-1.78026

>  <SCORE.INTRA>
0

>  <SCORE.INTRA.DIHEDRAL>
0

>  <SCORE.INTRA.DIHEDRAL.0>
0

>  <SCORE.INTRA.POLAR>
0

>  <SCORE.INTRA.POLAR.0>
0

>  <SCORE.INTRA.REPUL>
0

>  <SCORE.INTRA.REPUL.0>
0

>  <SCORE.INTRA.SOLV>
0

>  <SCORE.INTRA.SOLV.lig_0>
-12.9184

>  <SCORE.INTRA.VDW>
0

>  <SCORE.INTRA.VDW.0>
0

>  <SCORE.INTRA.norm>
0

>  <SCORE.RESTR>
0.447996

>  <SCORE.RESTR.CAVITY>
0.447996

>  <SCORE.RESTR.norm>
0.0344612

>  <SCORE.SYSTEM>
0

>  <SCORE.SYSTEM.CONST>
0

>  <SCORE.SYSTEM.DIHEDRAL>
0

>  <SCORE.SYSTEM.SOLV>
0

>  <SCORE.SYSTEM.norm>
0

>  <SCORE.heavy>
13

>  <SCORE.norm>
-1.7458

>  <RMSD>
1.964

$$$$
1o15_lig
 OpenBabel11021811403D
libRbt.so/2013.1/901 2013/11/27
 13 14  0  0  0  0  0  0  0  0999 V2000
    9.3195    0.0184   34.7869 C   0  0  0  0  0  0  0  0  0  0  0  0
    9.0467    1.2641   35.3078 N   0  0  0  0  0  0  0  0  0  0  0  0
    9.7148    1.6404   36.4297 C   0  0  0  0  0  0  0  0  0  0  0  0
   10.5079    0.8195   36.8834 O   0  0  0  0  0  0  0  0  0  0  0  0
   10.2453    3.1947   38.2049 C   0  0  0  0  0  0  0  0  0  0  0  0
    9.5557    2.8404   37.0650 N   0  0  0  0  0  0  0  0  0  0  0  0
    8.6472    3.6489   36.4551 C   0  0  0  0  0  0  0  0  0  0  0  0
    7.9845    3.2603   35.3271 C   0  0  0  0  0  0  0  0  0  0  0  0
    8.1399    2.0280   34.6655 C   0  0  0  0  0  0  0  0  0  0  0  0
    7.5779    1.6183   33.6530 O   0  0  0  0  0  0  0  0  0  0  0  0
    7.1525    4.3195   34.9940 N   0  0  0  0  0  0  0  0  0  0  0  0
    7.3679    5.2708   35.9364 C   0  0  0  0  0  0  0  0  0  0  0  0
    8.2494    4.9262   36.8358 N   0  0  0  0  0  0  0  0  0  0  0  0
  1  2  1  0  0  0  0
  2  3  1  0  0  0  0
  2  9  1  0  0  0  0
  3  4  2  0  0  0  0
  3  6  1  0  0  0  0
  6  5  1  0  0  0  0
  6  7  1  0  0  0  0
  7  8  2  0  0  0  0
  7 13  1  0  0  0  0
  8  9  1  0  0  0  0
  8 11  1  0  0  0  0
  9 10  2  0  0  0  0
 11 12  1  0  0  0  0
 12 13  2  0  0  0  0
M  END
>  <CHROM.1>
8.75038374,2.63279597,35.87901484,0.90227414,0.81427561,-2.53133240

>  <Name>
1o15_lig

>  <RI>
0

>  <Rbt.Current_Directory>
/home/itssahil/PROJECTS/Mol_Feturizer/New_Systems/rnas/1o15

>  <Rbt.Executable>
rbdock ($Id: //depot/dev/client3/rdock/2013.1/src/exe/rbdock.cxx#4 $)

>  <Rbt.Library>
libRbt.so (2013.1, Build901 2013/11/27)

>  <Rbt.Parameter_File>
/export/apps/rDock/src/rDock_2013.1_src/data/scripts/dock_solv.prm

>  <Rbt.Receptor>
prm/pocket_docking_7.prm

>  <SCORE>
-23.2349

>  <SCORE.INTER>
-23.2349

>  <SCORE.INTER.CONST>
1

>  <SCORE.INTER.POLAR>
-2.13731

>  <SCORE.INTER.ROT>
0

>  <SCORE.INTER.SOLV>
7.02286

>  <SCORE.INTER.VDW>
-14.3065

>  <SCORE.INTER.norm>
-1.7873

>  <SCORE.INTRA>
0

>  <SCORE.INTRA.DIHEDRAL>
0

>  <SCORE.INTRA.DIHEDRAL.0>
0

>  <SCORE.INTRA.POLAR>
0

>  <SCORE.INTRA.POLAR.0>
0

>  <SCORE.INTRA.REPUL>
0

>  <SCORE.INTRA.REPUL.0>
0

>  <SCORE.INTRA.SOLV>
0

>  <SCORE.INTRA.SOLV.lig_0>
-12.9184

>  <SCORE.INTRA.VDW>
0

>  <SCORE.INTRA.VDW.0>
0

>  <SCORE.INTRA.norm>
0

>  <SCORE.RESTR>
0

>  <SCORE.RESTR.CAVITY>
0

>  <SCORE.RESTR.norm>
0

>  <SCORE.SYSTEM>
0

>  <SCORE.SYSTEM.CONST>
0

>  <SCORE.SYSTEM.DIHEDRAL>
0

>  <SCORE.SYSTEM.SOLV>
0

>  <SCORE.SYSTEM.norm>
0

>  <SCORE.heavy>
13

>  <SCORE.norm>
-1.7873

>  <RMSD>
1.964

$$$$
1o15_lig
 OpenBabel11021811403D
libRbt.so/2013.1/901 2013/11/27
 13 14  0  0  0  0  0  0  0  0999 V2000
    9.3183    0.0095   34.7927 C   0  0  0  0  0  0  0  0  0  0  0  0
    9.0446    1.2573   35.3081 N   0  0  0  0  0  0  0  0  0  0  0  0
    9.7092    1.6372   36.4309 C   0  0  0  0  0  0  0  0  0  0  0  0
   10.5002    0.8174   36.8903 O   0  0  0  0  0  0  0  0  0  0  0  0
   10.2349    3.1976   38.2022 C   0  0  0  0  0  0  0  0  0  0  0  0
    9.5489    2.8397   37.0612 N   0  0  0  0  0  0  0  0  0  0  0  0
    8.6430    3.6466   36.4453 C   0  0  0  0  0  0  0  0  0  0  0  0
    7.9838    3.2543   35.3166 C   0  0  0  0  0  0  0  0  0  0  0  0
    8.1405    2.0195   34.6600 C   0  0  0  0  0  0  0  0  0  0  0  0
    7.5817    1.6065   33.6471 O   0  0  0  0  0  0  0  0  0  0  0  0
    7.1537    4.3129   34.9767 N   0  0  0  0  0  0  0  0  0  0  0  0
    7.3667    5.2675   35.9163 C   0  0  0  0  0  0  0  0  0  0  0  0
    8.2450    4.9256   36.8200 N   0  0  0  0  0  0  0  0  0  0  0  0
  1  2  1  0  0  0  0
  2  3  1  0  0  0  0
  2  9  1  0  0  0  0
  3  4  2  0  0  0  0
  3  6  1  0  0  0  0
  6  5  1  0  0  0  0
  6  7  1  0  0  0  0
  7  8  2  0  0  0  0
  7 13  1  0  0  0  0
  8  9  1  0  0  0  0
  8 11  1  0  0  0  0
  9 10  2  0  0  0  0
 11 12  1  0  0  0  0
 12 13  2  0  0  0  0
M  END
>  <CHROM.1>
8.74740923,2.62830865,35.87334076,0.90033808,0.81746458,-2.53359541

>  <Name>
1o15_lig

>  <RI>
0

>  <Rbt.Current_Directory>
/home/itssahil/PROJECTS/Mol_Feturizer/New_Systems/rnas/1o15

>  <Rbt.Executable>
rbdock ($Id: //depot/dev/client3/rdock/2013.1/src/exe/rbdock.cxx#4 $)

>  <Rbt.Library>
libRbt.so (2013.1, Build901 2013/11/27)

>  <Rbt.Parameter_File>
/export/apps/rDock/src/rDock_2013.1_src/data/scripts/dock_solv.prm

>  <Rbt.Receptor>
prm/blind_docking_80.prm

>  <SCORE>
-23.247

>  <SCORE.INTER>
-23.247

>  <SCORE.INTER.CONST>
1

>  <SCORE.INTER.POLAR>
-2.14756

>  <SCORE.INTER.ROT>
0

>  <SCORE.INTER.SOLV>
7.02356

>  <SCORE.INTER.VDW>
-14.2806

>  <SCORE.INTER.norm>
-1.78823

>  <SCORE.INTRA>
0

>  <SCORE.INTRA.DIHEDRAL>
0

>  <SCORE.INTRA.DIHEDRAL.0>
0

>  <SCORE.INTRA.POLAR>
0

>  <SCORE.INTRA.POLAR.0>
0

>  <SCORE.INTRA.REPUL>
0

>  <SCORE.INTRA.REPUL.0>
0

>  <SCORE.INTRA.SOLV>
0

>  <SCORE.INTRA.SOLV.lig_0>
-12.9184

>  <SCORE.INTRA.VDW>
0

>  <SCORE.INTRA.VDW.0>
0

>  <SCORE.INTRA.norm>
0

>  <SCORE.RESTR>
0

>  <SCORE.RESTR.CAVITY>
0

>  <SCORE.RESTR.norm>
0

>  <SCORE.SYSTEM>
0

>  <SCORE.SYSTEM.CONST>
0

>  <SCORE.SYSTEM.DIHEDRAL>
0

>  <SCORE.SYSTEM.SOLV>
0

>  <SCORE.SYSTEM.norm>
0

>  <SCORE.heavy>
13

>  <SCORE.norm>
-1.78823

>  <RMSD>
1.966

$$$$
1o15_lig
 OpenBabel11021811403D
libRbt.so/2013.1/901 2013/11/27
 13 14  0  0  0  0  0  0  0  0999 V2000
    9.3924    0.0369   34.7179 C   0  0  0  0  0  0  0  0  0  0  0  0
    9.1242    1.2840   35.2376 N   0  0  0  0  0  0  0  0  0  0  0  0
    9.8299    1.6790   36.3297 C   0  0  0  0  0  0  0  0  0  0  0  0
   10.6498    0.8720   36.7602 O   0  0  0  0  0  0  0  0  0  0  0  0
   10.4084    3.2563   38.0692 C   0  0  0  0  0  0  0  0  0  0  0  0
    9.6803    2.8830   36.9597 N   0  0  0  0  0  0  0  0  0  0  0  0
    8.7393    3.6747   36.3777 C   0  0  0  0  0  0  0  0  0  0  0  0
    8.0389    3.2675   35.2794 C   0  0  0  0  0  0  0  0  0  0  0  0
    8.1842    2.0308   34.6235 C   0  0  0  0  0  0  0  0  0  0  0  0
    7.5892    1.6048   33.6370 O   0  0  0  0  0  0  0  0  0  0  0  0
    7.1818    4.3133   34.9688 N   0  0  0  0  0  0  0  0  0  0  0  0
    7.4212    5.2761   35.8936 C   0  0  0  0  0  0  0  0  0  0  0  0
    8.3406    4.9507   36.7617 N   0  0  0  0  0  0  0  0  0  0  0  0
  1  2  1  0  0  0  0
  2  3  1  0  0  0  0
  2  9  1  0  0  0  0
  3  4  2  0  0  0  0
  3  6  1  0  0  0  0
  6  5  1  0  0  0  0
  6  7  1  0  0  0  0
  7  8  2  0  0  0  0
  7 13  1  0  0  0  0
  8  9  1  0  0  0  0
  8 11  1  0  0  0  0
  9 10  2  0  0  0  0
 11 12  1  0  0  0  0
 12 13  2  0  0  0  0
M  END
>  <CHROM.1>
8.83302750,2.65446042,35.80731577,0.91867005,0.77588850,-2.55231278

>  <Name>
1o15_lig

>  <RI>
0

>  <Rbt.Current_Directory>
/home/itssahil/PROJECTS/Mol_Feturizer/New_Systems/rnas/1o15

>  <Rbt.Executable>
rbdock ($Id: //depot/dev/client3/rdock/2013.1/src/exe/rbdock.cxx#4 $)

>  <Rbt.Library>
libRbt.so (2013.1, Build901 2013/11/27)

>  <Rbt.Parameter_File>
/export/apps/rDock/src/rDock_2013.1_src/data/scripts/dock_solv.prm

>  <Rbt.Receptor>
prm/blind_docking_80.prm

>  <SCORE>
-23.0297

>  <SCORE.INTER>
-23.0297

>  <SCORE.INTER.CONST>
1

>  <SCORE.INTER.POLAR>
-2.09506

>  <SCORE.INTER.ROT>
0

>  <SCORE.INTER.SOLV>
7.02885

>  <SCORE.INTER.VDW>
-14.3126

>  <SCORE.INTER.norm>
-1.77151

>  <SCORE.INTRA>
0

>  <SCORE.INTRA.DIHEDRAL>
0

>  <SCORE.INTRA.DIHEDRAL.0>
0

>  <SCORE.INTRA.POLAR>
0

>  <SCORE.INTRA.POLAR.0>
0

>  <SCORE.INTRA.REPUL>
0

>  <SCORE.INTRA.REPUL.0>
0

>  <SCORE.INTRA.SOLV>
0

>  <SCORE.INTRA.SOLV.lig_0>
-12.9184

>  <SCORE.INTRA.VDW>
0

>  <SCORE.INTRA.VDW.0>
0

>  <SCORE.INTRA.norm>
0

>  <SCORE.RESTR>
0

>  <SCORE.RESTR.CAVITY>
0

>  <SCORE.RESTR.norm>
0

>  <SCORE.SYSTEM>
0

>  <SCORE.SYSTEM.CONST>
0

>  <SCORE.SYSTEM.DIHEDRAL>
0

>  <SCORE.SYSTEM.SOLV>
0

>  <SCORE.SYSTEM.norm>
0

>  <SCORE.heavy>
13

>  <SCORE.norm>
-1.77151

>  <RMSD>
1.967

$$$$
1o15_lig
 OpenBabel11021811403D
libRbt.so/2013.1/901 2013/11/27
 13 14  0  0  0  0  0  0  0  0999 V2000
    9.4747    0.1056   34.6686 C   0  0  0  0  0  0  0  0  0  0  0  0
    9.1927    1.3529   35.1806 N   0  0  0  0  0  0  0  0  0  0  0  0
    9.9265    1.7819   36.2408 C   0  0  0  0  0  0  0  0  0  0  0  0
   10.7823    1.0027   36.6523 O   0  0  0  0  0  0  0  0  0  0  0  0
   10.5254    3.3989   37.9364 C   0  0  0  0  0  0  0  0  0  0  0  0
    9.7681    2.9907   36.8593 N   0  0  0  0  0  0  0  0  0  0  0  0
    8.7862    3.7493   36.3010 C   0  0  0  0  0  0  0  0  0  0  0  0
    8.0578    3.3081   35.2346 C   0  0  0  0  0  0  0  0  0  0  0  0
    8.2119    2.0662   34.5909 C   0  0  0  0  0  0  0  0  0  0  0  0
    7.5932    1.6105   33.6325 O   0  0  0  0  0  0  0  0  0  0  0  0
    7.1629    4.3269   34.9409 N   0  0  0  0  0  0  0  0  0  0  0  0
    7.4100    5.3090   35.8432 C   0  0  0  0  0  0  0  0  0  0  0  0
    8.3682    5.0201   36.6817 N   0  0  0  0  0  0  0  0  0  0  0  0
  1  2  1  0  0  0  0
  2  3  1  0  0  0  0
  2  9  1  0  0  0  0
  3  4  2  0  0  0  0
  3  6  1  0  0  0  0
  6  5  1  0  0  0  0
  6  7  1  0  0  0  0
  7  8  2  0  0  0  0
  7 13  1  0  0  0  0
  8  9  1  0  0  0  0
  8 11  1  0  0  0  0
  9 10  2  0  0  0  0
 11 12  1  0  0  0  0
 12 13  2  0  0  0  0
M  END
>  <CHROM.1>
8.88619702,2.72356585,35.74163661,0.91614459,0.73139683,-2.56478152

>  <Name>
1o15_lig

>  <RI>
0

>  <Rbt.Current_Directory>
/home/itssahil/PROJECTS/Mol_Feturizer/New_Systems/rnas/1o15

>  <Rbt.Executable>
rbdock ($Id: //depot/dev/client3/rdock/2013.1/src/exe/rbdock.cxx#4 $)

>  <Rbt.Library>
libRbt.so (2013.1, Build901 2013/11/27)

>  <Rbt.Parameter_File>
/export/apps/rDock/src/rDock_2013.1_src/data/scripts/dock_solv.prm

>  <Rbt.Receptor>
prm/blind_docking_80.prm

>  <SCORE>
-22.9555

>  <SCORE.INTER>
-22.9555

>  <SCORE.INTER.CONST>
1

>  <SCORE.INTER.POLAR>
-2.02077

>  <SCORE.INTER.ROT>
0

>  <SCORE.INTER.SOLV>
7.22307

>  <SCORE.INTER.VDW>
-14.5755

>  <SCORE.INTER.norm>
-1.76581

>  <SCORE.INTRA>
0

>  <SCORE.INTRA.DIHEDRAL>
0

>  <SCORE.INTRA.DIHEDRAL.0>
0

>  <SCORE.INTRA.POLAR>
0

>  <SCORE.INTRA.POLAR.0>
0

>  <SCORE.INTRA.REPUL>
0

>  <SCORE.INTRA.REPUL.0>
0

>  <SCORE.INTRA.SOLV>
0

>  <SCORE.INTRA.SOLV.lig_0>
-12.9184

>  <SCORE.INTRA.VDW>
0

>  <SCORE.INTRA.VDW.0>
0

>  <SCORE.INTRA.norm>
0

>  <SCORE.RESTR>
0

>  <SCORE.RESTR.CAVITY>
0

>  <SCORE.RESTR.norm>
0

>  <SCORE.SYSTEM>
0

>  <SCORE.SYSTEM.CONST>
0

>  <SCORE.SYSTEM.DIHEDRAL>
0

>  <SCORE.SYSTEM.SOLV>
0

>  <SCORE.SYSTEM.norm>
0

>  <SCORE.heavy>
13

>  <SCORE.norm>
-1.76581

>  <RMSD>
1.968

$$$$
1o15_lig
 OpenBabel11021811403D
libRbt.so/2013.1/901 2013/11/27
 13 14  0  0  0  0  0  0  0  0999 V2000
    9.3265    0.0205   34.7869 C   0  0  0  0  0  0  0  0  0  0  0  0
    9.0465    1.2649   35.3070 N   0  0  0  0  0  0  0  0  0  0  0  0
    9.7088    1.6438   36.4315 C   0  0  0  0  0  0  0  0  0  0  0  0
   10.5036    0.8261   36.8881 O   0  0  0  0  0  0  0  0  0  0  0  0
   10.2261    3.1999   38.2089 C   0  0  0  0  0  0  0  0  0  0  0  0
    9.5423    2.8430   37.0663 N   0  0  0  0  0  0  0  0  0  0  0  0
    8.6328    3.6478   36.4531 C   0  0  0  0  0  0  0  0  0  0  0  0
    7.9760    3.2567   35.3226 C   0  0  0  0  0  0  0  0  0  0  0  0
    8.1390    2.0251   34.6614 C   0  0  0  0  0  0  0  0  0  0  0  0
    7.5826    1.6133   33.6467 O   0  0  0  0  0  0  0  0  0  0  0  0
    7.1408    4.3124   34.9865 N   0  0  0  0  0  0  0  0  0  0  0  0
    7.3487    5.2645   35.9298 C   0  0  0  0  0  0  0  0  0  0  0  0
    8.2283    4.9234   36.8325 N   0  0  0  0  0  0  0  0  0  0  0  0
  1  2  1  0  0  0  0
  2  3  1  0  0  0  0
  2  9  1  0  0  0  0
  3  4  2  0  0  0  0
  3  6  1  0  0  0  0
  6  5  1  0  0  0  0
  6  7  1  0  0  0  0
  7  8  2  0  0  0  0
  7 13  1  0  0  0  0
  8  9  1  0  0  0  0
  8 11  1  0  0  0  0
  9 10  2  0  0  0  0
 11 12  1  0  0  0  0
 12 13  2  0  0  0  0
M  END
>  <CHROM.1>
8.74238340,2.63225382,35.87729608,0.89415537,0.81497863,-2.52526526

>  <Name>
1o15_lig

>  <RI>
0

>  <Rbt.Current_Directory>
/home/itssahil/PROJECTS/Mol_Feturizer/New_Systems/rnas/1o15

>  <Rbt.Executable>
rbdock ($Id: //depot/dev/client3/rdock/2013.1/src/exe/rbdock.cxx#4 $)

>  <Rbt.Library>
libRbt.so (2013.1, Build901 2013/11/27)

>  <Rbt.Parameter_File>
/export/apps/rDock/src/rDock_2013.1_src/data/scripts/dock_solv.prm

>  <Rbt.Receptor>
prm/pocket_docking_5.prm

>  <SCORE>
-23.2456

>  <SCORE.INTER>
-23.2456

>  <SCORE.INTER.CONST>
1

>  <SCORE.INTER.POLAR>
-2.13867

>  <SCORE.INTER.ROT>
0

>  <SCORE.INTER.SOLV>
7.05745

>  <SCORE.INTER.VDW>
-14.3206

>  <SCORE.INTER.norm>
-1.78812

>  <SCORE.INTRA>
0

>  <SCORE.INTRA.DIHEDRAL>
0

>  <SCORE.INTRA.DIHEDRAL.0>
0

>  <SCORE.INTRA.POLAR>
0

>  <SCORE.INTRA.POLAR.0>
0

>  <SCORE.INTRA.REPUL>
0

>  <SCORE.INTRA.REPUL.0>
0

>  <SCORE.INTRA.SOLV>
0

>  <SCORE.INTRA.SOLV.lig_0>
-12.9184

>  <SCORE.INTRA.VDW>
0

>  <SCORE.INTRA.VDW.0>
0

>  <SCORE.INTRA.norm>
0

>  <SCORE.RESTR>
0

>  <SCORE.RESTR.CAVITY>
0

>  <SCORE.RESTR.norm>
0

>  <SCORE.SYSTEM>
0

>  <SCORE.SYSTEM.CONST>
0

>  <SCORE.SYSTEM.DIHEDRAL>
0

>  <SCORE.SYSTEM.SOLV>
0

>  <SCORE.SYSTEM.norm>
0

>  <SCORE.heavy>
13

>  <SCORE.norm>
-1.78812

>  <RMSD>
1.968

$$$$
1o15_lig
 OpenBabel11021811403D
libRbt.so/2013.1/901 2013/11/27
 13 14  0  0  0  0  0  0  0  0999 V2000
    9.3226    0.0173   34.7916 C   0  0  0  0  0  0  0  0  0  0  0  0
    9.0436    1.2639   35.3070 N   0  0  0  0  0  0  0  0  0  0  0  0
    9.7015    1.6440   36.4337 C   0  0  0  0  0  0  0  0  0  0  0  0
   10.4919    0.8253   36.8962 O   0  0  0  0  0  0  0  0  0  0  0  0
   10.2147    3.2035   38.2094 C   0  0  0  0  0  0  0  0  0  0  0  0
    9.5354    2.8453   37.0645 N   0  0  0  0  0  0  0  0  0  0  0  0
    8.6309    3.6510   36.4449 C   0  0  0  0  0  0  0  0  0  0  0  0
    7.9784    3.2586   35.3123 C   0  0  0  0  0  0  0  0  0  0  0  0
    8.1412    2.0248   34.6551 C   0  0  0  0  0  0  0  0  0  0  0  0
    7.5885    1.6118   33.6389 O   0  0  0  0  0  0  0  0  0  0  0  0
    7.1478    4.3158   34.9694 N   0  0  0  0  0  0  0  0  0  0  0  0
    7.3538    5.2698   35.9112 C   0  0  0  0  0  0  0  0  0  0  0  0
    8.2282    4.9287   36.8189 N   0  0  0  0  0  0  0  0  0  0  0  0
  1  2  1  0  0  0  0
  2  3  1  0  0  0  0
  2  9  1  0  0  0  0
  3  4  2  0  0  0  0
  3  6  1  0  0  0  0
  6  5  1  0  0  0  0
  6  7  1  0  0  0  0
  7  8  2  0  0  0  0
  7 13  1  0  0  0  0
  8  9  1  0  0  0  0
  8 11  1  0  0  0  0
  9 10  2  0  0  0  0
 11 12  1  0  0  0  0
 12 13  2  0  0  0  0
M  END
>  <CHROM.1>
8.74047732,2.63358966,35.87227812,0.89340528,0.82043328,-2.52737952

>  <Name>
1o15_lig

>  <RI>
0

>  <Rbt.Current_Directory>
/home/itssahil/PROJECTS/Mol_Feturizer/New_Systems/rnas/1o15

>  <Rbt.Executable>
rbdock ($Id: //depot/dev/client3/rdock/2013.1/src/exe/rbdock.cxx#4 $)

>  <Rbt.Library>
libRbt.so (2013.1, Build901 2013/11/27)

>  <Rbt.Parameter_File>
/export/apps/rDock/src/rDock_2013.1_src/data/scripts/dock_solv.prm

>  <Rbt.Receptor>
prm/pocket_docking_8.prm

>  <SCORE>
-23.2414

>  <SCORE.INTER>
-23.2414

>  <SCORE.INTER.CONST>
1

>  <SCORE.INTER.POLAR>
-2.1499

>  <SCORE.INTER.ROT>
0

>  <SCORE.INTER.SOLV>
7.04691

>  <SCORE.INTER.VDW>
-14.2769

>  <SCORE.INTER.norm>
-1.7878

>  <SCORE.INTRA>
0

>  <SCORE.INTRA.DIHEDRAL>
0

>  <SCORE.INTRA.DIHEDRAL.0>
0

>  <SCORE.INTRA.POLAR>
0

>  <SCORE.INTRA.POLAR.0>
0

>  <SCORE.INTRA.REPUL>
0

>  <SCORE.INTRA.REPUL.0>
0

>  <SCORE.INTRA.SOLV>
0

>  <SCORE.INTRA.SOLV.lig_0>
-12.9184

>  <SCORE.INTRA.VDW>
0

>  <SCORE.INTRA.VDW.0>
0

>  <SCORE.INTRA.norm>
0

>  <SCORE.RESTR>
0

>  <SCORE.RESTR.CAVITY>
0

>  <SCORE.RESTR.norm>
0

>  <SCORE.SYSTEM>
0

>  <SCORE.SYSTEM.CONST>
0

>  <SCORE.SYSTEM.DIHEDRAL>
0

>  <SCORE.SYSTEM.SOLV>
0

>  <SCORE.SYSTEM.norm>
0

>  <SCORE.heavy>
13

>  <SCORE.norm>
-1.7878

>  <RMSD>
1.968

$$$$
1o15_lig
 OpenBabel11021811403D
libRbt.so/2013.1/901 2013/11/27
 13 14  0  0  0  0  0  0  0  0999 V2000
    9.3185    0.0093   34.7820 C   0  0  0  0  0  0  0  0  0  0  0  0
    9.0454    1.2538   35.3053 N   0  0  0  0  0  0  0  0  0  0  0  0
    9.7110    1.6267   36.4299 C   0  0  0  0  0  0  0  0  0  0  0  0
   10.5023    0.8040   36.8836 O   0  0  0  0  0  0  0  0  0  0  0  0
   10.2383    3.1761   38.2103 C   0  0  0  0  0  0  0  0  0  0  0  0
    9.5513    2.8252   37.0678 N   0  0  0  0  0  0  0  0  0  0  0  0
    8.6450    3.6361   36.4577 C   0  0  0  0  0  0  0  0  0  0  0  0
    7.9849    3.2509   35.3270 C   0  0  0  0  0  0  0  0  0  0  0  0
    8.1409    2.0201   34.6627 C   0  0  0  0  0  0  0  0  0  0  0  0
    7.5812    1.6135   33.6477 O   0  0  0  0  0  0  0  0  0  0  0  0
    7.1546    4.3116   34.9945 N   0  0  0  0  0  0  0  0  0  0  0  0
    7.3684    5.2604   35.9398 C   0  0  0  0  0  0  0  0  0  0  0  0
    8.2474    4.9127   36.8406 N   0  0  0  0  0  0  0  0  0  0  0  0
  1  2  1  0  0  0  0
  2  3  1  0  0  0  0
  2  9  1  0  0  0  0
  3  4  2  0  0  0  0
  3  6  1  0  0  0  0
  6  5  1  0  0  0  0
  6  7  1  0  0  0  0
  7  8  2  0  0  0  0
  7 13  1  0  0  0  0
  8  9  1  0  0  0  0
  8 11  1  0  0  0  0
  9 10  2  0  0  0  0
 11 12  1  0  0  0  0
 12 13  2  0  0  0  0
M  END
>  <CHROM.1>
8.74883322,2.62133889,35.87929212,0.90116873,0.81684002,-2.52799445

>  <Name>
1o15_lig

>  <RI>
0

>  <Rbt.Current_Directory>
/home/itssahil/PROJECTS/Mol_Feturizer/New_Systems/rnas/1o15

>  <Rbt.Executable>
rbdock ($Id: //depot/dev/client3/rdock/2013.1/src/exe/rbdock.cxx#4 $)

>  <Rbt.Library>
libRbt.so (2013.1, Build901 2013/11/27)

>  <Rbt.Parameter_File>
/export/apps/rDock/src/rDock_2013.1_src/data/scripts/dock_solv.prm

>  <Rbt.Receptor>
prm/pocket_docking_5.prm

>  <SCORE>
-23.2576

>  <SCORE.INTER>
-23.2576

>  <SCORE.INTER.CONST>
1

>  <SCORE.INTER.POLAR>
-2.1443

>  <SCORE.INTER.ROT>
0

>  <SCORE.INTER.SOLV>
7.02067

>  <SCORE.INTER.VDW>
-14.2976

>  <SCORE.INTER.norm>
-1.78905

>  <SCORE.INTRA>
0

>  <SCORE.INTRA.DIHEDRAL>
0

>  <SCORE.INTRA.DIHEDRAL.0>
0

>  <SCORE.INTRA.POLAR>
0

>  <SCORE.INTRA.POLAR.0>
0

>  <SCORE.INTRA.REPUL>
0

>  <SCORE.INTRA.REPUL.0>
0

>  <SCORE.INTRA.SOLV>
0

>  <SCORE.INTRA.SOLV.lig_0>
-12.9184

>  <SCORE.INTRA.VDW>
0

>  <SCORE.INTRA.VDW.0>
0

>  <SCORE.INTRA.norm>
0

>  <SCORE.RESTR>
0

>  <SCORE.RESTR.CAVITY>
0

>  <SCORE.RESTR.norm>
0

>  <SCORE.SYSTEM>
0

>  <SCORE.SYSTEM.CONST>
0

>  <SCORE.SYSTEM.DIHEDRAL>
0

>  <SCORE.SYSTEM.SOLV>
0

>  <SCORE.SYSTEM.norm>
0

>  <SCORE.heavy>
13

>  <SCORE.norm>
-1.78905

>  <RMSD>
1.969

$$$$
1o15_lig
 OpenBabel11021811403D
libRbt.so/2013.1/901 2013/11/27
 13 14  0  0  0  0  0  0  0  0999 V2000
    9.3232    0.0103   34.7931 C   0  0  0  0  0  0  0  0  0  0  0  0
    9.0440    1.2576   35.3064 N   0  0  0  0  0  0  0  0  0  0  0  0
    9.7021    1.6399   36.4322 C   0  0  0  0  0  0  0  0  0  0  0  0
   10.4929    0.8222   36.8959 O   0  0  0  0  0  0  0  0  0  0  0  0
   10.2154    3.2026   38.2050 C   0  0  0  0  0  0  0  0  0  0  0  0
    9.5358    2.8423   37.0610 N   0  0  0  0  0  0  0  0  0  0  0  0
    8.6310    3.6467   36.4402 C   0  0  0  0  0  0  0  0  0  0  0  0
    7.9783    3.2521   35.3085 C   0  0  0  0  0  0  0  0  0  0  0  0
    8.1412    2.0173   34.6534 C   0  0  0  0  0  0  0  0  0  0  0  0
    7.5883    1.6023   33.6380 O   0  0  0  0  0  0  0  0  0  0  0  0
    7.1473    4.3085   34.9640 N   0  0  0  0  0  0  0  0  0  0  0  0
    7.3533    5.2641   35.9041 C   0  0  0  0  0  0  0  0  0  0  0  0
    8.2280    4.9249   36.8121 N   0  0  0  0  0  0  0  0  0  0  0  0
  1  2  1  0  0  0  0
  2  3  1  0  0  0  0
  2  9  1  0  0  0  0
  3  4  2  0  0  0  0
  3  6  1  0  0  0  0
  6  5  1  0  0  0  0
  6  7  1  0  0  0  0
  7  8  2  0  0  0  0
  7 13  1  0  0  0  0
  8  9  1  0  0  0  0
  8 11  1  0  0  0  0
  9 10  2  0  0  0  0
 11 12  1  0  0  0  0
 12 13  2  0  0  0  0
M  END
>  <CHROM.1>
8.74067520,2.62827234,35.86934641,0.89332713,0.82006198,-2.52906166

>  <Name>
1o15_lig

>  <RI>
0

>  <Rbt.Current_Directory>
/home/itssahil/PROJECTS/Mol_Feturizer/New_Systems/rnas/1o15

>  <Rbt.Executable>
rbdock ($Id: //depot/dev/client3/rdock/2013.1/src/exe/rbdock.cxx#4 $)

>  <Rbt.Library>
libRbt.so (2013.1, Build901 2013/11/27)

>  <Rbt.Parameter_File>
/export/apps/rDock/src/rDock_2013.1_src/data/scripts/dock_solv.prm

>  <Rbt.Receptor>
prm/pocket_docking_5.prm

>  <SCORE>
-23.2606

>  <SCORE.INTER>
-23.2606

>  <SCORE.INTER.CONST>
1

>  <SCORE.INTER.POLAR>
-2.15314

>  <SCORE.INTER.ROT>
0

>  <SCORE.INTER.SOLV>
7.0497

>  <SCORE.INTER.VDW>
-14.2799

>  <SCORE.INTER.norm>
-1.78928

>  <SCORE.INTRA>
0

>  <SCORE.INTRA.DIHEDRAL>
0

>  <SCORE.INTRA.DIHEDRAL.0>
0

>  <SCORE.INTRA.POLAR>
0

>  <SCORE.INTRA.POLAR.0>
0

>  <SCORE.INTRA.REPUL>
0

>  <SCORE.INTRA.REPUL.0>
0

>  <SCORE.INTRA.SOLV>
0

>  <SCORE.INTRA.SOLV.lig_0>
-12.9184

>  <SCORE.INTRA.VDW>
0

>  <SCORE.INTRA.VDW.0>
0

>  <SCORE.INTRA.norm>
0

>  <SCORE.RESTR>
0

>  <SCORE.RESTR.CAVITY>
0

>  <SCORE.RESTR.norm>
0

>  <SCORE.SYSTEM>
0

>  <SCORE.SYSTEM.CONST>
0

>  <SCORE.SYSTEM.DIHEDRAL>
0

>  <SCORE.SYSTEM.SOLV>
0

>  <SCORE.SYSTEM.norm>
0

>  <SCORE.heavy>
13

>  <SCORE.norm>
-1.78928

>  <RMSD>
1.970

$$$$
1o15_lig
 OpenBabel11021811403D
libRbt.so/2013.1/901 2013/11/27
 13 14  0  0  0  0  0  0  0  0999 V2000
    9.3252    0.0133   34.7925 C   0  0  0  0  0  0  0  0  0  0  0  0
    9.0441    1.2599   35.3068 N   0  0  0  0  0  0  0  0  0  0  0  0
    9.7017    1.6422   36.4329 C   0  0  0  0  0  0  0  0  0  0  0  0
   10.4936    0.8254   36.8960 O   0  0  0  0  0  0  0  0  0  0  0  0
   10.2125    3.2043   38.2069 C   0  0  0  0  0  0  0  0  0  0  0  0
    9.5335    2.8439   37.0626 N   0  0  0  0  0  0  0  0  0  0  0  0
    8.6276    3.6474   36.4423 C   0  0  0  0  0  0  0  0  0  0  0  0
    7.9755    3.2528   35.3103 C   0  0  0  0  0  0  0  0  0  0  0  0
    8.1403    2.0186   34.6543 C   0  0  0  0  0  0  0  0  0  0  0  0
    7.5881    1.6036   33.6386 O   0  0  0  0  0  0  0  0  0  0  0  0
    7.1430    4.3081   34.9665 N   0  0  0  0  0  0  0  0  0  0  0  0
    7.3476    5.2634   35.9073 C   0  0  0  0  0  0  0  0  0  0  0  0
    8.2227    4.9247   36.8152 N   0  0  0  0  0  0  0  0  0  0  0  0
  1  2  1  0  0  0  0
  2  3  1  0  0  0  0
  2  9  1  0  0  0  0
  3  4  2  0  0  0  0
  3  6  1  0  0  0  0
  6  5  1  0  0  0  0
  6  7  1  0  0  0  0
  7  8  2  0  0  0  0
  7 13  1  0  0  0  0
  8  9  1  0  0  0  0
  8 11  1  0  0  0  0
  9 10  2  0  0  0  0
 11 12  1  0  0  0  0
 12 13  2  0  0  0  0
M  END
>  <CHROM.1>
8.73876617,2.62961544,35.87069196,0.89151741,0.81926274,-2.52699009

>  <Name>
1o15_lig

>  <RI>
0

>  <Rbt.Current_Directory>
/home/itssahil/PROJECTS/Mol_Feturizer/New_Systems/rnas/1o15

>  <Rbt.Executable>
rbdock ($Id: //depot/dev/client3/rdock/2013.1/src/exe/rbdock.cxx#4 $)

>  <Rbt.Library>
libRbt.so (2013.1, Build901 2013/11/27)

>  <Rbt.Parameter_File>
/export/apps/rDock/src/rDock_2013.1_src/data/scripts/dock_solv.prm

>  <Rbt.Receptor>
prm/pocket_docking_7.prm

>  <SCORE>
-23.2613

>  <SCORE.INTER>
-23.2613

>  <SCORE.INTER.CONST>
1

>  <SCORE.INTER.POLAR>
-2.15052

>  <SCORE.INTER.ROT>
0

>  <SCORE.INTER.SOLV>
7.0602

>  <SCORE.INTER.VDW>
-14.2925

>  <SCORE.INTER.norm>
-1.78933

>  <SCORE.INTRA>
0

>  <SCORE.INTRA.DIHEDRAL>
0

>  <SCORE.INTRA.DIHEDRAL.0>
0

>  <SCORE.INTRA.POLAR>
0

>  <SCORE.INTRA.POLAR.0>
0

>  <SCORE.INTRA.REPUL>
0

>  <SCORE.INTRA.REPUL.0>
0

>  <SCORE.INTRA.SOLV>
0

>  <SCORE.INTRA.SOLV.lig_0>
-12.9184

>  <SCORE.INTRA.VDW>
0

>  <SCORE.INTRA.VDW.0>
0

>  <SCORE.INTRA.norm>
0

>  <SCORE.RESTR>
0

>  <SCORE.RESTR.CAVITY>
0

>  <SCORE.RESTR.norm>
0

>  <SCORE.SYSTEM>
0

>  <SCORE.SYSTEM.CONST>
0

>  <SCORE.SYSTEM.DIHEDRAL>
0

>  <SCORE.SYSTEM.SOLV>
0

>  <SCORE.SYSTEM.norm>
0

>  <SCORE.heavy>
13

>  <SCORE.norm>
-1.78933

>  <RMSD>
1.970

$$$$
1o15_lig
 OpenBabel11021811403D
libRbt.so/2013.1/901 2013/11/27
 13 14  0  0  0  0  0  0  0  0999 V2000
    9.3116    0.0225   34.7947 C   0  0  0  0  0  0  0  0  0  0  0  0
    9.0330    1.2699   35.3083 N   0  0  0  0  0  0  0  0  0  0  0  0
    9.6923    1.6521   36.4335 C   0  0  0  0  0  0  0  0  0  0  0  0
   10.4833    0.8343   36.8965 O   0  0  0  0  0  0  0  0  0  0  0  0
   10.2073    3.2147   38.2058 C   0  0  0  0  0  0  0  0  0  0  0  0
    9.5267    2.8545   37.0624 N   0  0  0  0  0  0  0  0  0  0  0  0
    8.6214    3.6590   36.4424 C   0  0  0  0  0  0  0  0  0  0  0  0
    7.9676    3.2646   35.3113 C   0  0  0  0  0  0  0  0  0  0  0  0
    8.1298    2.0297   34.6561 C   0  0  0  0  0  0  0  0  0  0  0  0
    7.5759    1.6148   33.6413 O   0  0  0  0  0  0  0  0  0  0  0  0
    7.1365    4.3210   34.9675 N   0  0  0  0  0  0  0  0  0  0  0  0
    7.3435    5.2767   35.9075 C   0  0  0  0  0  0  0  0  0  0  0  0
    8.2189    4.9373   36.8147 N   0  0  0  0  0  0  0  0  0  0  0  0
  1  2  1  0  0  0  0
  2  3  1  0  0  0  0
  2  9  1  0  0  0  0
  3  4  2  0  0  0  0
  3  6  1  0  0  0  0
  6  5  1  0  0  0  0
  6  7  1  0  0  0  0
  7  8  2  0  0  0  0
  7 13  1  0  0  0  0
  8  9  1  0  0  0  0
  8 11  1  0  0  0  0
  9 10  2  0  0  0  0
 11 12  1  0  0  0  0
 12 13  2  0  0  0  0
M  END
>  <CHROM.1>
8.73042064,2.64060310,35.87149871,0.89425847,0.81939775,-2.52975037

>  <Name>
1o15_lig

>  <RI>
0

>  <Rbt.Current_Directory>
/home/itssahil/PROJECTS/Mol_Feturizer/New_Systems/rnas/1o15

>  <Rbt.Executable>
rbdock ($Id: //depot/dev/client3/rdock/2013.1/src/exe/rbdock.cxx#4 $)

>  <Rbt.Library>
libRbt.so (2013.1, Build901 2013/11/27)

>  <Rbt.Parameter_File>
/export/apps/rDock/src/rDock_2013.1_src/data/scripts/dock_solv.prm

>  <Rbt.Receptor>
prm/pocket_docking_8.prm

>  <SCORE>
-23.2448

>  <SCORE.INTER>
-23.2448

>  <SCORE.INTER.CONST>
1

>  <SCORE.INTER.POLAR>
-2.14173

>  <SCORE.INTER.ROT>
0

>  <SCORE.INTER.SOLV>
7.07495

>  <SCORE.INTER.VDW>
-14.3158

>  <SCORE.INTER.norm>
-1.78806

>  <SCORE.INTRA>
0

>  <SCORE.INTRA.DIHEDRAL>
0

>  <SCORE.INTRA.DIHEDRAL.0>
0

>  <SCORE.INTRA.POLAR>
0

>  <SCORE.INTRA.POLAR.0>
0

>  <SCORE.INTRA.REPUL>
0

>  <SCORE.INTRA.REPUL.0>
0

>  <SCORE.INTRA.SOLV>
0

>  <SCORE.INTRA.SOLV.lig_0>
-12.9184

>  <SCORE.INTRA.VDW>
0

>  <SCORE.INTRA.VDW.0>
0

>  <SCORE.INTRA.norm>
0

>  <SCORE.RESTR>
0

>  <SCORE.RESTR.CAVITY>
0

>  <SCORE.RESTR.norm>
0

>  <SCORE.SYSTEM>
0

>  <SCORE.SYSTEM.CONST>
0

>  <SCORE.SYSTEM.DIHEDRAL>
0

>  <SCORE.SYSTEM.SOLV>
0

>  <SCORE.SYSTEM.norm>
0

>  <SCORE.heavy>
13

>  <SCORE.norm>
-1.78806

>  <RMSD>
1.970

$$$$
1o15_lig
 OpenBabel11021811403D
libRbt.so/2013.1/901 2013/11/27
 13 14  0  0  0  0  0  0  0  0999 V2000
    9.4299    0.0644   34.7221 C   0  0  0  0  0  0  0  0  0  0  0  0
    9.1355    1.3101   35.2309 N   0  0  0  0  0  0  0  0  0  0  0  0
    9.8281    1.7267   36.3233 C   0  0  0  0  0  0  0  0  0  0  0  0
   10.6611    0.9388   36.7639 O   0  0  0  0  0  0  0  0  0  0  0  0
   10.3678    3.3279   38.0534 C   0  0  0  0  0  0  0  0  0  0  0  0
    9.6525    2.9323   36.9434 N   0  0  0  0  0  0  0  0  0  0  0  0
    8.6994    3.7015   36.3508 C   0  0  0  0  0  0  0  0  0  0  0  0
    8.0124    3.2727   35.2524 C   0  0  0  0  0  0  0  0  0  0  0  0
    8.1844    2.0341   34.6067 C   0  0  0  0  0  0  0  0  0  0  0  0
    7.6025    1.5894   33.6206 O   0  0  0  0  0  0  0  0  0  0  0  0
    7.1370    4.2996   34.9296 N   0  0  0  0  0  0  0  0  0  0  0  0
    7.3535    5.2737   35.8482 C   0  0  0  0  0  0  0  0  0  0  0  0
    8.2746    4.9725   36.7232 N   0  0  0  0  0  0  0  0  0  0  0  0
  1  2  1  0  0  0  0
  2  3  1  0  0  0  0
  2  9  1  0  0  0  0
  3  4  2  0  0  0  0
  3  6  1  0  0  0  0
  6  5  1  0  0  0  0
  6  7  1  0  0  0  0
  7  8  2  0  0  0  0
  7 13  1  0  0  0  0
  8  9  1  0  0  0  0
  8 11  1  0  0  0  0
  9 10  2  0  0  0  0
 11 12  1  0  0  0  0
 12 13  2  0  0  0  0
M  END
>  <CHROM.1>
8.81539731,2.67895604,35.78872876,0.89279807,0.76921449,-2.54186576

>  <Name>
1o15_lig

>  <RI>
0

>  <Rbt.Current_Directory>
/home/itssahil/PROJECTS/Mol_Feturizer/New_Systems/rnas/1o15

>  <Rbt.Executable>
rbdock ($Id: //depot/dev/client3/rdock/2013.1/src/exe/rbdock.cxx#4 $)

>  <Rbt.Library>
libRbt.so (2013.1, Build901 2013/11/27)

>  <Rbt.Parameter_File>
/export/apps/rDock/src/rDock_2013.1_src/data/scripts/dock_solv.prm

>  <Rbt.Receptor>
prm/blind_docking_80.prm

>  <SCORE>
-22.986

>  <SCORE.INTER>
-22.986

>  <SCORE.INTER.CONST>
1

>  <SCORE.INTER.POLAR>
-2.07406

>  <SCORE.INTER.ROT>
0

>  <SCORE.INTER.SOLV>
7.18376

>  <SCORE.INTER.VDW>
-14.4051

>  <SCORE.INTER.norm>
-1.76816

>  <SCORE.INTRA>
0

>  <SCORE.INTRA.DIHEDRAL>
0

>  <SCORE.INTRA.DIHEDRAL.0>
0

>  <SCORE.INTRA.POLAR>
0

>  <SCORE.INTRA.POLAR.0>
0

>  <SCORE.INTRA.REPUL>
0

>  <SCORE.INTRA.REPUL.0>
0

>  <SCORE.INTRA.SOLV>
0

>  <SCORE.INTRA.SOLV.lig_0>
-12.9184

>  <SCORE.INTRA.VDW>
0

>  <SCORE.INTRA.VDW.0>
0

>  <SCORE.INTRA.norm>
0

>  <SCORE.RESTR>
0

>  <SCORE.RESTR.CAVITY>
0

>  <SCORE.RESTR.norm>
0

>  <SCORE.SYSTEM>
0

>  <SCORE.SYSTEM.CONST>
0

>  <SCORE.SYSTEM.DIHEDRAL>
0

>  <SCORE.SYSTEM.SOLV>
0

>  <SCORE.SYSTEM.norm>
0

>  <SCORE.heavy>
13

>  <SCORE.norm>
-1.76816

>  <RMSD>
1.971

$$$$
1o15_lig
 OpenBabel11021811403D
libRbt.so/2013.1/901 2013/11/27
 13 14  0  0  0  0  0  0  0  0999 V2000
    9.3128    0.0001   34.7908 C   0  0  0  0  0  0  0  0  0  0  0  0
    9.0390    1.2474   35.3073 N   0  0  0  0  0  0  0  0  0  0  0  0
    9.6960    1.6224   36.4362 C   0  0  0  0  0  0  0  0  0  0  0  0
   10.4808    0.7988   36.8997 O   0  0  0  0  0  0  0  0  0  0  0  0
   10.2127    3.1765   38.2156 C   0  0  0  0  0  0  0  0  0  0  0  0
    9.5345    2.8237   37.0684 N   0  0  0  0  0  0  0  0  0  0  0  0
    8.6360    3.6350   36.4476 C   0  0  0  0  0  0  0  0  0  0  0  0
    7.9845    3.2478   35.3127 C   0  0  0  0  0  0  0  0  0  0  0  0
    8.1424    2.0141   34.6541 C   0  0  0  0  0  0  0  0  0  0  0  0
    7.5903    1.6055   33.6358 O   0  0  0  0  0  0  0  0  0  0  0  0
    7.1604    4.3098   34.9691 N   0  0  0  0  0  0  0  0  0  0  0  0
    7.3690    5.2613   35.9129 C   0  0  0  0  0  0  0  0  0  0  0  0
    8.2391    4.9143   36.8224 N   0  0  0  0  0  0  0  0  0  0  0  0
  1  2  1  0  0  0  0
  2  3  1  0  0  0  0
  2  9  1  0  0  0  0
  3  4  2  0  0  0  0
  3  6  1  0  0  0  0
  6  5  1  0  0  0  0
  6  7  1  0  0  0  0
  7  8  2  0  0  0  0
  7 13  1  0  0  0  0
  8  9  1  0  0  0  0
  8 11  1  0  0  0  0
  9 10  2  0  0  0  0
 11 12  1  0  0  0  0
 12 13  2  0  0  0  0
M  END
>  <CHROM.1>
8.74172472,2.61789854,35.87375055,0.89754169,0.82567356,-2.52894083

>  <Name>
1o15_lig

>  <RI>
0

>  <Rbt.Current_Directory>
/home/itssahil/PROJECTS/Mol_Feturizer/New_Systems/rnas/1o15

>  <Rbt.Executable>
rbdock ($Id: //depot/dev/client3/rdock/2013.1/src/exe/rbdock.cxx#4 $)

>  <Rbt.Library>
libRbt.so (2013.1, Build901 2013/11/27)

>  <Rbt.Parameter_File>
/export/apps/rDock/src/rDock_2013.1_src/data/scripts/dock_solv.prm

>  <Rbt.Receptor>
prm/blind_docking_80.prm

>  <SCORE>
-23.2519

>  <SCORE.INTER>
-23.2519

>  <SCORE.INTER.CONST>
1

>  <SCORE.INTER.POLAR>
-2.16489

>  <SCORE.INTER.ROT>
0

>  <SCORE.INTER.SOLV>
7.01706

>  <SCORE.INTER.VDW>
-14.224

>  <SCORE.INTER.norm>
-1.78861

>  <SCORE.INTRA>
0

>  <SCORE.INTRA.DIHEDRAL>
0

>  <SCORE.INTRA.DIHEDRAL.0>
0

>  <SCORE.INTRA.POLAR>
0

>  <SCORE.INTRA.POLAR.0>
0

>  <SCORE.INTRA.REPUL>
0

>  <SCORE.INTRA.REPUL.0>
0

>  <SCORE.INTRA.SOLV>
0

>  <SCORE.INTRA.SOLV.lig_0>
-12.9184

>  <SCORE.INTRA.VDW>
0

>  <SCORE.INTRA.VDW.0>
0

>  <SCORE.INTRA.norm>
0

>  <SCORE.RESTR>
0

>  <SCORE.RESTR.CAVITY>
0

>  <SCORE.RESTR.norm>
0

>  <SCORE.SYSTEM>
0

>  <SCORE.SYSTEM.CONST>
0

>  <SCORE.SYSTEM.DIHEDRAL>
0

>  <SCORE.SYSTEM.SOLV>
0

>  <SCORE.SYSTEM.norm>
0

>  <SCORE.heavy>
13

>  <SCORE.norm>
-1.78861

>  <RMSD>
1.973

$$$$
1o15_lig
 OpenBabel11021811403D
libRbt.so/2013.1/901 2013/11/27
 13 14  0  0  0  0  0  0  0  0999 V2000
    9.4852    0.1052   34.6676 C   0  0  0  0  0  0  0  0  0  0  0  0
    9.1950    1.3516   35.1771 N   0  0  0  0  0  0  0  0  0  0  0  0
    9.9233    1.7859   36.2390 C   0  0  0  0  0  0  0  0  0  0  0  0
   10.7821    1.0118   36.6540 O   0  0  0  0  0  0  0  0  0  0  0  0
   10.5086    3.4083   37.9342 C   0  0  0  0  0  0  0  0  0  0  0  0
    9.7566    2.9946   36.8555 N   0  0  0  0  0  0  0  0  0  0  0  0
    8.7723    3.7472   36.2933 C   0  0  0  0  0  0  0  0  0  0  0  0
    8.0495    3.3008   35.2253 C   0  0  0  0  0  0  0  0  0  0  0  0
    8.2121    2.0589   34.5837 C   0  0  0  0  0  0  0  0  0  0  0  0
    7.5987    1.5987   33.6240 O   0  0  0  0  0  0  0  0  0  0  0  0
    7.1500    4.3144   34.9277 N   0  0  0  0  0  0  0  0  0  0  0  0
    7.3891    5.2989   35.8295 C   0  0  0  0  0  0  0  0  0  0  0  0
    8.3464    5.0162   36.6712 N   0  0  0  0  0  0  0  0  0  0  0  0
  1  2  1  0  0  0  0
  2  3  1  0  0  0  0
  2  9  1  0  0  0  0
  3  4  2  0  0  0  0
  3  6  1  0  0  0  0
  6  5  1  0  0  0  0
  6  7  1  0  0  0  0
  7  8  2  0  0  0  0
  7 13  1  0  0  0  0
  8  9  1  0  0  0  0
  8 11  1  0  0  0  0
  9 10  2  0  0  0  0
 11 12  1  0  0  0  0
 12 13  2  0  0  0  0
M  END
>  <CHROM.1>
8.87947267,2.72133708,35.73556662,0.90793308,0.73091800,-2.56055927

>  <Name>
1o15_lig

>  <RI>
0

>  <Rbt.Current_Directory>
/home/itssahil/PROJECTS/Mol_Feturizer/New_Systems/rnas/1o15

>  <Rbt.Executable>
rbdock ($Id: //depot/dev/client3/rdock/2013.1/src/exe/rbdock.cxx#4 $)

>  <Rbt.Library>
libRbt.so (2013.1, Build901 2013/11/27)

>  <Rbt.Parameter_File>
/export/apps/rDock/src/rDock_2013.1_src/data/scripts/dock_solv.prm

>  <Rbt.Receptor>
prm/blind_docking_80.prm

>  <SCORE>
-22.9781

>  <SCORE.INTER>
-22.9781

>  <SCORE.INTER.CONST>
1

>  <SCORE.INTER.POLAR>
-2.02288

>  <SCORE.INTER.ROT>
0

>  <SCORE.INTER.SOLV>
7.26625

>  <SCORE.INTER.VDW>
-14.5979

>  <SCORE.INTER.norm>
-1.76754

>  <SCORE.INTRA>
0

>  <SCORE.INTRA.DIHEDRAL>
0

>  <SCORE.INTRA.DIHEDRAL.0>
0

>  <SCORE.INTRA.POLAR>
0

>  <SCORE.INTRA.POLAR.0>
0

>  <SCORE.INTRA.REPUL>
0

>  <SCORE.INTRA.REPUL.0>
0

>  <SCORE.INTRA.SOLV>
0

>  <SCORE.INTRA.SOLV.lig_0>
-12.9184

>  <SCORE.INTRA.VDW>
0

>  <SCORE.INTRA.VDW.0>
0

>  <SCORE.INTRA.norm>
0

>  <SCORE.RESTR>
0

>  <SCORE.RESTR.CAVITY>
0

>  <SCORE.RESTR.norm>
0

>  <SCORE.SYSTEM>
0

>  <SCORE.SYSTEM.CONST>
0

>  <SCORE.SYSTEM.DIHEDRAL>
0

>  <SCORE.SYSTEM.SOLV>
0

>  <SCORE.SYSTEM.norm>
0

>  <SCORE.heavy>
13

>  <SCORE.norm>
-1.76754

>  <RMSD>
1.973

$$$$
1o15_lig
 OpenBabel11021811403D
libRbt.so/2013.1/901 2013/11/27
 13 14  0  0  0  0  0  0  0  0999 V2000
    9.3384    0.0153   34.8050 C   0  0  0  0  0  0  0  0  0  0  0  0
    9.0441    1.2638   35.3069 N   0  0  0  0  0  0  0  0  0  0  0  0
    9.6925    1.6614   36.4331 C   0  0  0  0  0  0  0  0  0  0  0  0
   10.4889    0.8554   36.9074 O   0  0  0  0  0  0  0  0  0  0  0  0
   10.1808    3.2431   38.1961 C   0  0  0  0  0  0  0  0  0  0  0  0
    9.5109    2.8670   37.0515 N   0  0  0  0  0  0  0  0  0  0  0  0
    8.6015    3.6574   36.4196 C   0  0  0  0  0  0  0  0  0  0  0  0
    7.9587    3.2475   35.2877 C   0  0  0  0  0  0  0  0  0  0  0  0
    8.1373    2.0092   34.6433 C   0  0  0  0  0  0  0  0  0  0  0  0
    7.5940    1.5808   33.6284 O   0  0  0  0  0  0  0  0  0  0  0  0
    7.1190    4.2927   34.9305 N   0  0  0  0  0  0  0  0  0  0  0  0
    7.3106    5.2578   35.8640 C   0  0  0  0  0  0  0  0  0  0  0  0
    8.1838    4.9344   36.7793 N   0  0  0  0  0  0  0  0  0  0  0  0
  1  2  1  0  0  0  0
  2  3  1  0  0  0  0
  2  9  1  0  0  0  0
  3  4  2  0  0  0  0
  3  6  1  0  0  0  0
  6  5  1  0  0  0  0
  6  7  1  0  0  0  0
  7  8  2  0  0  0  0
  7 13  1  0  0  0  0
  8  9  1  0  0  0  0
  8 11  1  0  0  0  0
  9 10  2  0  0  0  0
 11 12  1  0  0  0  0
 12 13  2  0  0  0  0
M  END
>  <CHROM.1>
8.72425284,2.63572579,35.85741502,0.87697528,0.81858927,-2.52500698

>  <Name>
1o15_lig

>  <RI>
0

>  <Rbt.Current_Directory>
/home/itssahil/PROJECTS/Mol_Feturizer/New_Systems/rnas/1o15

>  <Rbt.Executable>
rbdock ($Id: //depot/dev/client3/rdock/2013.1/src/exe/rbdock.cxx#4 $)

>  <Rbt.Library>
libRbt.so (2013.1, Build901 2013/11/27)

>  <Rbt.Parameter_File>
/export/apps/rDock/src/rDock_2013.1_src/data/scripts/dock_solv.prm

>  <Rbt.Receptor>
prm/blind_docking_80.prm

>  <SCORE>
-23.3394

>  <SCORE.INTER>
-23.3394

>  <SCORE.INTER.CONST>
1

>  <SCORE.INTER.POLAR>
-2.14849

>  <SCORE.INTER.ROT>
0

>  <SCORE.INTER.SOLV>
7.1453

>  <SCORE.INTER.VDW>
-14.3798

>  <SCORE.INTER.norm>
-1.79534

>  <SCORE.INTRA>
0

>  <SCORE.INTRA.DIHEDRAL>
0

>  <SCORE.INTRA.DIHEDRAL.0>
0

>  <SCORE.INTRA.POLAR>
0

>  <SCORE.INTRA.POLAR.0>
0

>  <SCORE.INTRA.REPUL>
0

>  <SCORE.INTRA.REPUL.0>
0

>  <SCORE.INTRA.SOLV>
0

>  <SCORE.INTRA.SOLV.lig_0>
-12.9184

>  <SCORE.INTRA.VDW>
0

>  <SCORE.INTRA.VDW.0>
0

>  <SCORE.INTRA.norm>
0

>  <SCORE.RESTR>
0

>  <SCORE.RESTR.CAVITY>
0

>  <SCORE.RESTR.norm>
0

>  <SCORE.SYSTEM>
0

>  <SCORE.SYSTEM.CONST>
0

>  <SCORE.SYSTEM.DIHEDRAL>
0

>  <SCORE.SYSTEM.SOLV>
0

>  <SCORE.SYSTEM.norm>
0

>  <SCORE.heavy>
13

>  <SCORE.norm>
-1.79534

>  <RMSD>
1.974

$$$$
1o15_lig
 OpenBabel11021811403D
libRbt.so/2013.1/901 2013/11/27
 13 14  0  0  0  0  0  0  0  0999 V2000
    9.3231    0.0116   34.8027 C   0  0  0  0  0  0  0  0  0  0  0  0
    9.0377    1.2616   35.3062 N   0  0  0  0  0  0  0  0  0  0  0  0
    9.6884    1.6529   36.4332 C   0  0  0  0  0  0  0  0  0  0  0  0
   10.4786    0.8405   36.9068 O   0  0  0  0  0  0  0  0  0  0  0  0
   10.1873    3.2286   38.1986 C   0  0  0  0  0  0  0  0  0  0  0  0
    9.5153    2.8590   37.0531 N   0  0  0  0  0  0  0  0  0  0  0  0
    8.6119    3.6569   36.4219 C   0  0  0  0  0  0  0  0  0  0  0  0
    7.9668    3.2532   35.2891 C   0  0  0  0  0  0  0  0  0  0  0  0
    8.1367    2.0144   34.6431 C   0  0  0  0  0  0  0  0  0  0  0  0
    7.5907    1.5914   33.6273 O   0  0  0  0  0  0  0  0  0  0  0  0
    7.1350    4.3050   34.9329 N   0  0  0  0  0  0  0  0  0  0  0  0
    7.3331    5.2674   35.8678 C   0  0  0  0  0  0  0  0  0  0  0  0
    8.2034    4.9364   36.7831 N   0  0  0  0  0  0  0  0  0  0  0  0
  1  2  1  0  0  0  0
  2  3  1  0  0  0  0
  2  9  1  0  0  0  0
  3  4  2  0  0  0  0
  3  6  1  0  0  0  0
  6  5  1  0  0  0  0
  6  7  1  0  0  0  0
  7  8  2  0  0  0  0
  7 13  1  0  0  0  0
  8  9  1  0  0  0  0
  8 11  1  0  0  0  0
  9 10  2  0  0  0  0
 11 12  1  0  0  0  0
 12 13  2  0  0  0  0
M  END
>  <CHROM.1>
8.72755332,2.63504109,35.85837912,0.88530272,0.82321622,-2.52976431

>  <Name>
1o15_lig

>  <RI>
0

>  <Rbt.Current_Directory>
/home/itssahil/PROJECTS/Mol_Feturizer/New_Systems/rnas/1o15

>  <Rbt.Executable>
rbdock ($Id: //depot/dev/client3/rdock/2013.1/src/exe/rbdock.cxx#4 $)

>  <Rbt.Library>
libRbt.so (2013.1, Build901 2013/11/27)

>  <Rbt.Parameter_File>
/export/apps/rDock/src/rDock_2013.1_src/data/scripts/dock_solv.prm

>  <Rbt.Receptor>
prm/pocket_docking_8.prm

>  <SCORE>
-23.2785

>  <SCORE.INTER>
-23.2785

>  <SCORE.INTER.CONST>
1

>  <SCORE.INTER.POLAR>
-2.15778

>  <SCORE.INTER.ROT>
0

>  <SCORE.INTER.SOLV>
7.09995

>  <SCORE.INTER.VDW>
-14.2931

>  <SCORE.INTER.norm>
-1.79066

>  <SCORE.INTRA>
0

>  <SCORE.INTRA.DIHEDRAL>
0

>  <SCORE.INTRA.DIHEDRAL.0>
0

>  <SCORE.INTRA.POLAR>
0

>  <SCORE.INTRA.POLAR.0>
0

>  <SCORE.INTRA.REPUL>
0

>  <SCORE.INTRA.REPUL.0>
0

>  <SCORE.INTRA.SOLV>
0

>  <SCORE.INTRA.SOLV.lig_0>
-12.9184

>  <SCORE.INTRA.VDW>
0

>  <SCORE.INTRA.VDW.0>
0

>  <SCORE.INTRA.norm>
0

>  <SCORE.RESTR>
0

>  <SCORE.RESTR.CAVITY>
0

>  <SCORE.RESTR.norm>
0

>  <SCORE.SYSTEM>
0

>  <SCORE.SYSTEM.CONST>
0

>  <SCORE.SYSTEM.DIHEDRAL>
0

>  <SCORE.SYSTEM.SOLV>
0

>  <SCORE.SYSTEM.norm>
0

>  <SCORE.heavy>
13

>  <SCORE.norm>
-1.79066

>  <RMSD>
1.974

$$$$
1o15_lig
 OpenBabel11021811403D
libRbt.so/2013.1/901 2013/11/27
 13 14  0  0  0  0  0  0  0  0999 V2000
    9.3357    0.0176   34.7962 C   0  0  0  0  0  0  0  0  0  0  0  0
    9.0452    1.2662   35.3003 N   0  0  0  0  0  0  0  0  0  0  0  0
    9.6991    1.6623   36.4237 C   0  0  0  0  0  0  0  0  0  0  0  0
   10.4966    0.8550   36.8940 O   0  0  0  0  0  0  0  0  0  0  0  0
   10.1974    3.2423   38.1855 C   0  0  0  0  0  0  0  0  0  0  0  0
    9.5219    2.8678   37.0436 N   0  0  0  0  0  0  0  0  0  0  0  0
    8.6106    3.6597   36.4163 C   0  0  0  0  0  0  0  0  0  0  0  0
    7.9622    3.2513   35.2870 C   0  0  0  0  0  0  0  0  0  0  0  0
    8.1364    2.0131   34.6411 C   0  0  0  0  0  0  0  0  0  0  0  0
    7.5879    1.5860   33.6284 O   0  0  0  0  0  0  0  0  0  0  0  0
    7.1224    4.2978   34.9342 N   0  0  0  0  0  0  0  0  0  0  0  0
    7.3193    5.2621   35.8675 C   0  0  0  0  0  0  0  0  0  0  0  0
    8.1962    4.9370   36.7786 N   0  0  0  0  0  0  0  0  0  0  0  0
  1  2  1  0  0  0  0
  2  3  1  0  0  0  0
  2  9  1  0  0  0  0
  3  4  2  0  0  0  0
  3  6  1  0  0  0  0
  6  5  1  0  0  0  0
  6  7  1  0  0  0  0
  7  8  2  0  0  0  0
  7 13  1  0  0  0  0
  8  9  1  0  0  0  0
  8 11  1  0  0  0  0
  9 10  2  0  0  0  0
 11 12  1  0  0  0  0
 12 13  2  0  0  0  0
M  END
>  <CHROM.1>
8.72956328,2.63818714,35.85296185,0.88228105,0.81567326,-2.52828662

>  <Name>
1o15_lig

>  <RI>
0

>  <Rbt.Current_Directory>
/home/itssahil/PROJECTS/Mol_Feturizer/New_Systems/rnas/1o15

>  <Rbt.Executable>
rbdock ($Id: //depot/dev/client3/rdock/2013.1/src/exe/rbdock.cxx#4 $)

>  <Rbt.Library>
libRbt.so (2013.1, Build901 2013/11/27)

>  <Rbt.Parameter_File>
/export/apps/rDock/src/rDock_2013.1_src/data/scripts/dock_solv.prm

>  <Rbt.Receptor>
prm/pocket_docking_7.prm

>  <SCORE>
-23.3239

>  <SCORE.INTER>
-23.3239

>  <SCORE.INTER.CONST>
1

>  <SCORE.INTER.POLAR>
-2.14202

>  <SCORE.INTER.ROT>
0

>  <SCORE.INTER.SOLV>
7.13676

>  <SCORE.INTER.VDW>
-14.3881

>  <SCORE.INTER.norm>
-1.79415

>  <SCORE.INTRA>
0

>  <SCORE.INTRA.DIHEDRAL>
0

>  <SCORE.INTRA.DIHEDRAL.0>
0

>  <SCORE.INTRA.POLAR>
0

>  <SCORE.INTRA.POLAR.0>
0

>  <SCORE.INTRA.REPUL>
0

>  <SCORE.INTRA.REPUL.0>
0

>  <SCORE.INTRA.SOLV>
0

>  <SCORE.INTRA.SOLV.lig_0>
-12.9184

>  <SCORE.INTRA.VDW>
0

>  <SCORE.INTRA.VDW.0>
0

>  <SCORE.INTRA.norm>
0

>  <SCORE.RESTR>
0

>  <SCORE.RESTR.CAVITY>
0

>  <SCORE.RESTR.norm>
0

>  <SCORE.SYSTEM>
0

>  <SCORE.SYSTEM.CONST>
0

>  <SCORE.SYSTEM.DIHEDRAL>
0

>  <SCORE.SYSTEM.SOLV>
0

>  <SCORE.SYSTEM.norm>
0

>  <SCORE.heavy>
13

>  <SCORE.norm>
-1.79415

>  <RMSD>
1.975

$$$$
1o15_lig
 OpenBabel11021811403D
libRbt.so/2013.1/901 2013/11/27
 13 14  0  0  0  0  0  0  0  0999 V2000
    9.3272    0.0049   34.7856 C   0  0  0  0  0  0  0  0  0  0  0  0
    9.0449    1.2498   35.3032 N   0  0  0  0  0  0  0  0  0  0  0  0
    9.7006    1.6290   36.4315 C   0  0  0  0  0  0  0  0  0  0  0  0
   10.4921    0.8110   36.8934 O   0  0  0  0  0  0  0  0  0  0  0  0
   10.2081    3.1858   38.2111 C   0  0  0  0  0  0  0  0  0  0  0  0
    9.5310    2.8287   37.0647 N   0  0  0  0  0  0  0  0  0  0  0  0
    8.6257    3.6337   36.4455 C   0  0  0  0  0  0  0  0  0  0  0  0
    7.9755    3.2423   35.3112 C   0  0  0  0  0  0  0  0  0  0  0  0
    8.1418    2.0103   34.6517 C   0  0  0  0  0  0  0  0  0  0  0  0
    7.5913    1.5982   33.6339 O   0  0  0  0  0  0  0  0  0  0  0  0
    7.1432    4.2985   34.9694 N   0  0  0  0  0  0  0  0  0  0  0  0
    7.3460    5.2509   35.9135 C   0  0  0  0  0  0  0  0  0  0  0  0
    8.2198    4.9098   36.8216 N   0  0  0  0  0  0  0  0  0  0  0  0
  1  2  1  0  0  0  0
  2  3  1  0  0  0  0
  2  9  1  0  0  0  0
  3  4  2  0  0  0  0
  3  6  1  0  0  0  0
  6  5  1  0  0  0  0
  6  7  1  0  0  0  0
  7  8  2  0  0  0  0
  7 13  1  0  0  0  0
  8  9  1  0  0  0  0
  8 11  1  0  0  0  0
  9 10  2  0  0  0  0
 11 12  1  0  0  0  0
 12 13  2  0  0  0  0
M  END
>  <CHROM.1>
8.73817705,2.61774725,35.87090892,0.88978370,0.82030571,-2.52265706

>  <Name>
1o15_lig

>  <RI>
0

>  <Rbt.Current_Directory>
/home/itssahil/PROJECTS/Mol_Feturizer/New_Systems/rnas/1o15

>  <Rbt.Executable>
rbdock ($Id: //depot/dev/client3/rdock/2013.1/src/exe/rbdock.cxx#4 $)

>  <Rbt.Library>
libRbt.so (2013.1, Build901 2013/11/27)

>  <Rbt.Parameter_File>
/export/apps/rDock/src/rDock_2013.1_src/data/scripts/dock_solv.prm

>  <Rbt.Receptor>
prm/blind_docking_80.prm

>  <SCORE>
-23.2753

>  <SCORE.INTER>
-23.2753

>  <SCORE.INTER.CONST>
1

>  <SCORE.INTER.POLAR>
-2.15348

>  <SCORE.INTER.ROT>
0

>  <SCORE.INTER.SOLV>
7.0672

>  <SCORE.INTER.VDW>
-14.2943

>  <SCORE.INTER.norm>
-1.79041

>  <SCORE.INTRA>
0

>  <SCORE.INTRA.DIHEDRAL>
0

>  <SCORE.INTRA.DIHEDRAL.0>
0

>  <SCORE.INTRA.POLAR>
0

>  <SCORE.INTRA.POLAR.0>
0

>  <SCORE.INTRA.REPUL>
0

>  <SCORE.INTRA.REPUL.0>
0

>  <SCORE.INTRA.SOLV>
0

>  <SCORE.INTRA.SOLV.lig_0>
-12.9184

>  <SCORE.INTRA.VDW>
0

>  <SCORE.INTRA.VDW.0>
0

>  <SCORE.INTRA.norm>
0

>  <SCORE.RESTR>
0

>  <SCORE.RESTR.CAVITY>
0

>  <SCORE.RESTR.norm>
0

>  <SCORE.SYSTEM>
0

>  <SCORE.SYSTEM.CONST>
0

>  <SCORE.SYSTEM.DIHEDRAL>
0

>  <SCORE.SYSTEM.SOLV>
0

>  <SCORE.SYSTEM.norm>
0

>  <SCORE.heavy>
13

>  <SCORE.norm>
-1.79041

>  <RMSD>
1.976

$$$$
1o15_lig
 OpenBabel11021811403D
libRbt.so/2013.1/901 2013/11/27
 13 14  0  0  0  0  0  0  0  0999 V2000
    9.3099    0.0011   34.8067 C   0  0  0  0  0  0  0  0  0  0  0  0
    9.0263    1.2481   35.3186 N   0  0  0  0  0  0  0  0  0  0  0  0
    9.6710    1.6275   36.4531 C   0  0  0  0  0  0  0  0  0  0  0  0
   10.4547    0.8079   36.9253 O   0  0  0  0  0  0  0  0  0  0  0  0
   10.1646    3.1865   38.2347 C   0  0  0  0  0  0  0  0  0  0  0  0
    9.4987    2.8291   37.0817 N   0  0  0  0  0  0  0  0  0  0  0  0
    8.6030    3.6359   36.4510 C   0  0  0  0  0  0  0  0  0  0  0  0
    7.9638    3.2442   35.3106 C   0  0  0  0  0  0  0  0  0  0  0  0
    8.1329    2.0101   34.6557 C   0  0  0  0  0  0  0  0  0  0  0  0
    7.5921    1.5977   33.6328 O   0  0  0  0  0  0  0  0  0  0  0  0
    7.1387    4.3024   34.9575 N   0  0  0  0  0  0  0  0  0  0  0  0
    7.3345    5.2562   35.9017 C   0  0  0  0  0  0  0  0  0  0  0  0
    8.1973    4.9141   36.8200 N   0  0  0  0  0  0  0  0  0  0  0  0
  1  2  1  0  0  0  0
  2  3  1  0  0  0  0
  2  9  1  0  0  0  0
  3  4  2  0  0  0  0
  3  6  1  0  0  0  0
  6  5  1  0  0  0  0
  6  7  1  0  0  0  0
  7  8  2  0  0  0  0
  7 13  1  0  0  0  0
  8  9  1  0  0  0  0
  8 11  1  0  0  0  0
  9 10  2  0  0  0  0
 11 12  1  0  0  0  0
 12 13  2  0  0  0  0
M  END
>  <CHROM.1>
8.71814142,2.61825773,35.87992438,0.88458586,0.83110412,-2.52102276

>  <Name>
1o15_lig

>  <RI>
0

>  <Rbt.Current_Directory>
/home/itssahil/PROJECTS/Mol_Feturizer/New_Systems/rnas/1o15

>  <Rbt.Executable>
rbdock ($Id: //depot/dev/client3/rdock/2013.1/src/exe/rbdock.cxx#4 $)

>  <Rbt.Library>
libRbt.so (2013.1, Build901 2013/11/27)

>  <Rbt.Parameter_File>
/export/apps/rDock/src/rDock_2013.1_src/data/scripts/dock_solv.prm

>  <Rbt.Receptor>
prm/blind_docking_80.prm

>  <SCORE>
-23.2725

>  <SCORE.INTER>
-23.2725

>  <SCORE.INTER.CONST>
1

>  <SCORE.INTER.POLAR>
-2.16973

>  <SCORE.INTER.ROT>
0

>  <SCORE.INTER.SOLV>
7.07911

>  <SCORE.INTER.VDW>
-14.2423

>  <SCORE.INTER.norm>
-1.79019

>  <SCORE.INTRA>
0

>  <SCORE.INTRA.DIHEDRAL>
0

>  <SCORE.INTRA.DIHEDRAL.0>
0

>  <SCORE.INTRA.POLAR>
0

>  <SCORE.INTRA.POLAR.0>
0

>  <SCORE.INTRA.REPUL>
0

>  <SCORE.INTRA.REPUL.0>
0

>  <SCORE.INTRA.SOLV>
0

>  <SCORE.INTRA.SOLV.lig_0>
-12.9184

>  <SCORE.INTRA.VDW>
0

>  <SCORE.INTRA.VDW.0>
0

>  <SCORE.INTRA.norm>
0

>  <SCORE.RESTR>
0

>  <SCORE.RESTR.CAVITY>
0

>  <SCORE.RESTR.norm>
0

>  <SCORE.SYSTEM>
0

>  <SCORE.SYSTEM.CONST>
0

>  <SCORE.SYSTEM.DIHEDRAL>
0

>  <SCORE.SYSTEM.SOLV>
0

>  <SCORE.SYSTEM.norm>
0

>  <SCORE.heavy>
13

>  <SCORE.norm>
-1.79019

>  <RMSD>
1.976

$$$$
1o15_lig
 OpenBabel11021811403D
libRbt.so/2013.1/901 2013/11/27
 13 14  0  0  0  0  0  0  0  0999 V2000
    9.3369    0.0116   34.7879 C   0  0  0  0  0  0  0  0  0  0  0  0
    9.0491    1.2579   35.2992 N   0  0  0  0  0  0  0  0  0  0  0  0
    9.7022    1.6452   36.4262 C   0  0  0  0  0  0  0  0  0  0  0  0
   10.4966    0.8328   36.8928 O   0  0  0  0  0  0  0  0  0  0  0  0
   10.2019    3.2128   38.1986 C   0  0  0  0  0  0  0  0  0  0  0  0
    9.5273    2.8473   37.0533 N   0  0  0  0  0  0  0  0  0  0  0  0
    8.6193    3.6457   36.4294 C   0  0  0  0  0  0  0  0  0  0  0  0
    7.9717    3.2461   35.2965 C   0  0  0  0  0  0  0  0  0  0  0  0
    8.1435    2.0115   34.6432 C   0  0  0  0  0  0  0  0  0  0  0  0
    7.5955    1.5922   33.6269 O   0  0  0  0  0  0  0  0  0  0  0  0
    7.1353    4.2971   34.9488 N   0  0  0  0  0  0  0  0  0  0  0  0
    7.3334    5.2550   35.8883 C   0  0  0  0  0  0  0  0  0  0  0  0
    8.2078    4.9219   36.7989 N   0  0  0  0  0  0  0  0  0  0  0  0
  1  2  1  0  0  0  0
  2  3  1  0  0  0  0
  2  9  1  0  0  0  0
  3  4  2  0  0  0  0
  3  6  1  0  0  0  0
  6  5  1  0  0  0  0
  6  7  1  0  0  0  0
  7  8  2  0  0  0  0
  7 13  1  0  0  0  0
  8  9  1  0  0  0  0
  8 11  1  0  0  0  0
  9 10  2  0  0  0  0
 11 12  1  0  0  0  0
 12 13  2  0  0  0  0
M  END
>  <CHROM.1>
8.73633502,2.62732341,35.85989627,0.88419862,0.81866494,-2.52346860

>  <Name>
1o15_lig

>  <RI>
0

>  <Rbt.Current_Directory>
/home/itssahil/PROJECTS/Mol_Feturizer/New_Systems/rnas/1o15

>  <Rbt.Executable>
rbdock ($Id: //depot/dev/client3/rdock/2013.1/src/exe/rbdock.cxx#4 $)

>  <Rbt.Library>
libRbt.so (2013.1, Build901 2013/11/27)

>  <Rbt.Parameter_File>
/export/apps/rDock/src/rDock_2013.1_src/data/scripts/dock_solv.prm

>  <Rbt.Receptor>
prm/pocket_docking_4.prm

>  <SCORE>
-23.2468

>  <SCORE.INTER>
-23.2468

>  <SCORE.INTER.CONST>
1

>  <SCORE.INTER.POLAR>
-2.15191

>  <SCORE.INTER.ROT>
0

>  <SCORE.INTER.SOLV>
7.10126

>  <SCORE.INTER.VDW>
-14.2919

>  <SCORE.INTER.norm>
-1.78821

>  <SCORE.INTRA>
0

>  <SCORE.INTRA.DIHEDRAL>
0

>  <SCORE.INTRA.DIHEDRAL.0>
0

>  <SCORE.INTRA.POLAR>
0

>  <SCORE.INTRA.POLAR.0>
0

>  <SCORE.INTRA.REPUL>
0

>  <SCORE.INTRA.REPUL.0>
0

>  <SCORE.INTRA.SOLV>
0

>  <SCORE.INTRA.SOLV.lig_0>
-12.9184

>  <SCORE.INTRA.VDW>
0

>  <SCORE.INTRA.VDW.0>
0

>  <SCORE.INTRA.norm>
0

>  <SCORE.RESTR>
0

>  <SCORE.RESTR.CAVITY>
0

>  <SCORE.RESTR.norm>
0

>  <SCORE.SYSTEM>
0

>  <SCORE.SYSTEM.CONST>
0

>  <SCORE.SYSTEM.DIHEDRAL>
0

>  <SCORE.SYSTEM.SOLV>
0

>  <SCORE.SYSTEM.norm>
0

>  <SCORE.heavy>
13

>  <SCORE.norm>
-1.78821

>  <RMSD>
1.976

$$$$
1o15_lig
 OpenBabel11021811403D
libRbt.so/2013.1/901 2013/11/27
 13 14  0  0  0  0  0  0  0  0999 V2000
    9.3306    0.0149   34.8038 C   0  0  0  0  0  0  0  0  0  0  0  0
    9.0391    1.2639   35.3061 N   0  0  0  0  0  0  0  0  0  0  0  0
    9.6845    1.6577   36.4354 C   0  0  0  0  0  0  0  0  0  0  0  0
   10.4758    0.8480   36.9119 O   0  0  0  0  0  0  0  0  0  0  0  0
   10.1717    3.2352   38.2024 C   0  0  0  0  0  0  0  0  0  0  0  0
    9.5051    2.8632   37.0545 N   0  0  0  0  0  0  0  0  0  0  0  0
    8.6012    3.6579   36.4200 C   0  0  0  0  0  0  0  0  0  0  0  0
    7.9615    3.2519   35.2849 C   0  0  0  0  0  0  0  0  0  0  0  0
    8.1379    2.0137   34.6397 C   0  0  0  0  0  0  0  0  0  0  0  0
    7.5970    1.5886   33.6221 O   0  0  0  0  0  0  0  0  0  0  0  0
    7.1274    4.3008   34.9256 N   0  0  0  0  0  0  0  0  0  0  0  0
    7.3189    5.2639   35.8612 C   0  0  0  0  0  0  0  0  0  0  0  0
    8.1871    4.9361   36.7796 N   0  0  0  0  0  0  0  0  0  0  0  0
  1  2  1  0  0  0  0
  2  3  1  0  0  0  0
  2  9  1  0  0  0  0
  3  4  2  0  0  0  0
  3  6  1  0  0  0  0
  6  5  1  0  0  0  0
  6  7  1  0  0  0  0
  7  8  2  0  0  0  0
  7 13  1  0  0  0  0
  8  9  1  0  0  0  0
  8 11  1  0  0  0  0
  9 10  2  0  0  0  0
 11 12  1  0  0  0  0
 12 13  2  0  0  0  0
M  END
>  <CHROM.1>
8.72235376,2.63640527,35.85701687,0.87817683,0.82415454,-2.52465376

>  <Name>
1o15_lig

>  <RI>
0

>  <Rbt.Current_Directory>
/home/itssahil/PROJECTS/Mol_Feturizer/New_Systems/rnas/1o15

>  <Rbt.Executable>
rbdock ($Id: //depot/dev/client3/rdock/2013.1/src/exe/rbdock.cxx#4 $)

>  <Rbt.Library>
libRbt.so (2013.1, Build901 2013/11/27)

>  <Rbt.Parameter_File>
/export/apps/rDock/src/rDock_2013.1_src/data/scripts/dock_solv.prm

>  <Rbt.Receptor>
prm/pocket_docking_5.prm

>  <SCORE>
-23.3336

>  <SCORE.INTER>
-23.3336

>  <SCORE.INTER.CONST>
1

>  <SCORE.INTER.POLAR>
-2.16006

>  <SCORE.INTER.ROT>
0

>  <SCORE.INTER.SOLV>
7.12898

>  <SCORE.INTER.VDW>
-14.3318

>  <SCORE.INTER.norm>
-1.79489

>  <SCORE.INTRA>
0

>  <SCORE.INTRA.DIHEDRAL>
0

>  <SCORE.INTRA.DIHEDRAL.0>
0

>  <SCORE.INTRA.POLAR>
0

>  <SCORE.INTRA.POLAR.0>
0

>  <SCORE.INTRA.REPUL>
0

>  <SCORE.INTRA.REPUL.0>
0

>  <SCORE.INTRA.SOLV>
0

>  <SCORE.INTRA.SOLV.lig_0>
-12.9184

>  <SCORE.INTRA.VDW>
0

>  <SCORE.INTRA.VDW.0>
0

>  <SCORE.INTRA.norm>
0

>  <SCORE.RESTR>
0

>  <SCORE.RESTR.CAVITY>
0

>  <SCORE.RESTR.norm>
0

>  <SCORE.SYSTEM>
0

>  <SCORE.SYSTEM.CONST>
0

>  <SCORE.SYSTEM.DIHEDRAL>
0

>  <SCORE.SYSTEM.SOLV>
0

>  <SCORE.SYSTEM.norm>
0

>  <SCORE.heavy>
13

>  <SCORE.norm>
-1.79489

>  <RMSD>
1.976

$$$$
1o15_lig
 OpenBabel11021811403D
libRbt.so/2013.1/901 2013/11/27
 13 14  0  0  0  0  0  0  0  0999 V2000
    9.3358    0.0174   34.7986 C   0  0  0  0  0  0  0  0  0  0  0  0
    9.0434    1.2658   35.3022 N   0  0  0  0  0  0  0  0  0  0  0  0
    9.6920    1.6608   36.4291 C   0  0  0  0  0  0  0  0  0  0  0  0
   10.4869    0.8528   36.9026 O   0  0  0  0  0  0  0  0  0  0  0  0
   10.1823    3.2393   38.1945 C   0  0  0  0  0  0  0  0  0  0  0  0
    9.5122    2.8659   37.0490 N   0  0  0  0  0  0  0  0  0  0  0  0
    8.6043    3.6586   36.4179 C   0  0  0  0  0  0  0  0  0  0  0  0
    7.9613    3.2513   35.2852 C   0  0  0  0  0  0  0  0  0  0  0  0
    8.1381    2.0136   34.6392 C   0  0  0  0  0  0  0  0  0  0  0  0
    7.5944    1.5874   33.6234 O   0  0  0  0  0  0  0  0  0  0  0  0
    7.1235    4.2984   34.9291 N   0  0  0  0  0  0  0  0  0  0  0  0
    7.3163    5.2619   35.8640 C   0  0  0  0  0  0  0  0  0  0  0  0
    8.1886    4.9358   36.7792 N   0  0  0  0  0  0  0  0  0  0  0  0
  1  2  1  0  0  0  0
  2  3  1  0  0  0  0
  2  9  1  0  0  0  0
  3  4  2  0  0  0  0
  3  6  1  0  0  0  0
  6  5  1  0  0  0  0
  6  7  1  0  0  0  0
  7  8  2  0  0  0  0
  7 13  1  0  0  0  0
  8  9  1  0  0  0  0
  8 11  1  0  0  0  0
  9 10  2  0  0  0  0
 11 12  1  0  0  0  0
 12 13  2  0  0  0  0
M  END
>  <CHROM.1>
8.72559736,2.63746620,35.85437382,0.87863759,0.81986870,-2.52487102

>  <Name>
1o15_lig

>  <RI>
0

>  <Rbt.Current_Directory>
/home/itssahil/PROJECTS/Mol_Feturizer/New_Systems/rnas/1o15

>  <Rbt.Executable>
rbdock ($Id: //depot/dev/client3/rdock/2013.1/src/exe/rbdock.cxx#4 $)

>  <Rbt.Library>
libRbt.so (2013.1, Build901 2013/11/27)

>  <Rbt.Parameter_File>
/export/apps/rDock/src/rDock_2013.1_src/data/scripts/dock_solv.prm

>  <Rbt.Receptor>
prm/pocket_docking_7.prm

>  <SCORE>
-23.354

>  <SCORE.INTER>
-23.354

>  <SCORE.INTER.CONST>
1

>  <SCORE.INTER.POLAR>
-2.15132

>  <SCORE.INTER.ROT>
0

>  <SCORE.INTER.SOLV>
7.13883

>  <SCORE.INTER.VDW>
-14.3779

>  <SCORE.INTER.norm>
-1.79646

>  <SCORE.INTRA>
0

>  <SCORE.INTRA.DIHEDRAL>
0

>  <SCORE.INTRA.DIHEDRAL.0>
0

>  <SCORE.INTRA.POLAR>
0

>  <SCORE.INTRA.POLAR.0>
0

>  <SCORE.INTRA.REPUL>
0

>  <SCORE.INTRA.REPUL.0>
0

>  <SCORE.INTRA.SOLV>
0

>  <SCORE.INTRA.SOLV.lig_0>
-12.9184

>  <SCORE.INTRA.VDW>
0

>  <SCORE.INTRA.VDW.0>
0

>  <SCORE.INTRA.norm>
0

>  <SCORE.RESTR>
0

>  <SCORE.RESTR.CAVITY>
0

>  <SCORE.RESTR.norm>
0

>  <SCORE.SYSTEM>
0

>  <SCORE.SYSTEM.CONST>
0

>  <SCORE.SYSTEM.DIHEDRAL>
0

>  <SCORE.SYSTEM.SOLV>
0

>  <SCORE.SYSTEM.norm>
0

>  <SCORE.heavy>
13

>  <SCORE.norm>
-1.79646

>  <RMSD>
1.976

$$$$
1o15_lig
 OpenBabel11021811403D
libRbt.so/2013.1/901 2013/11/27
 13 14  0  0  0  0  0  0  0  0999 V2000
    9.2941   -0.0201   34.8148 C   0  0  0  0  0  0  0  0  0  0  0  0
    9.0257    1.2390   35.3048 N   0  0  0  0  0  0  0  0  0  0  0  0
    9.6761    1.6306   36.4319 C   0  0  0  0  0  0  0  0  0  0  0  0
   10.4505    0.8102   36.9178 O   0  0  0  0  0  0  0  0  0  0  0  0
   10.1899    3.2148   38.1854 C   0  0  0  0  0  0  0  0  0  0  0  0
    9.5187    2.8451   37.0395 N   0  0  0  0  0  0  0  0  0  0  0  0
    8.6319    3.6512   36.3954 C   0  0  0  0  0  0  0  0  0  0  0  0
    7.9869    3.2471   35.2626 C   0  0  0  0  0  0  0  0  0  0  0  0
    8.1407    1.9998   34.6293 C   0  0  0  0  0  0  0  0  0  0  0  0
    7.5940    1.5759   33.6143 O   0  0  0  0  0  0  0  0  0  0  0  0
    7.1741    4.3086   34.8916 N   0  0  0  0  0  0  0  0  0  0  0  0
    7.3822    5.2765   35.8187 C   0  0  0  0  0  0  0  0  0  0  0  0
    8.2418    4.9404   36.7422 N   0  0  0  0  0  0  0  0  0  0  0  0
  1  2  1  0  0  0  0
  2  3  1  0  0  0  0
  2  9  1  0  0  0  0
  3  4  2  0  0  0  0
  3  6  1  0  0  0  0
  6  5  1  0  0  0  0
  6  7  1  0  0  0  0
  7  8  2  0  0  0  0
  7 13  1  0  0  0  0
  8  9  1  0  0  0  0
  8 11  1  0  0  0  0
  9 10  2  0  0  0  0
 11 12  1  0  0  0  0
 12 13  2  0  0  0  0
M  END
>  <CHROM.1>
8.73441463,2.62238142,35.84221792,0.89987067,0.83707766,-2.54994021

>  <Name>
1o15_lig

>  <RI>
0

>  <Rbt.Current_Directory>
/home/itssahil/PROJECTS/Mol_Feturizer/New_Systems/rnas/1o15

>  <Rbt.Executable>
rbdock ($Id: //depot/dev/client3/rdock/2013.1/src/exe/rbdock.cxx#4 $)

>  <Rbt.Library>
libRbt.so (2013.1, Build901 2013/11/27)

>  <Rbt.Parameter_File>
/export/apps/rDock/src/rDock_2013.1_src/data/scripts/dock_solv.prm

>  <Rbt.Receptor>
prm/blind_docking_40.prm

>  <SCORE>
-22.7098

>  <SCORE.INTER>
-23.1458

>  <SCORE.INTER.CONST>
1

>  <SCORE.INTER.POLAR>
-2.19427

>  <SCORE.INTER.ROT>
0

>  <SCORE.INTER.SOLV>
7.01751

>  <SCORE.INTER.VDW>
-14.0554

>  <SCORE.INTER.norm>
-1.78044

>  <SCORE.INTRA>
0

>  <SCORE.INTRA.DIHEDRAL>
0

>  <SCORE.INTRA.DIHEDRAL.0>
0

>  <SCORE.INTRA.POLAR>
0

>  <SCORE.INTRA.POLAR.0>
0

>  <SCORE.INTRA.REPUL>
0

>  <SCORE.INTRA.REPUL.0>
0

>  <SCORE.INTRA.SOLV>
0

>  <SCORE.INTRA.SOLV.lig_0>
-12.9184

>  <SCORE.INTRA.VDW>
0

>  <SCORE.INTRA.VDW.0>
0

>  <SCORE.INTRA.norm>
0

>  <SCORE.RESTR>
0.435911

>  <SCORE.RESTR.CAVITY>
0.435911

>  <SCORE.RESTR.norm>
0.0335316

>  <SCORE.SYSTEM>
0

>  <SCORE.SYSTEM.CONST>
0

>  <SCORE.SYSTEM.DIHEDRAL>
0

>  <SCORE.SYSTEM.SOLV>
0

>  <SCORE.SYSTEM.norm>
0

>  <SCORE.heavy>
13

>  <SCORE.norm>
-1.74691

>  <RMSD>
1.977

$$$$
1o15_lig
 OpenBabel11021811403D
libRbt.so/2013.1/901 2013/11/27
 13 14  0  0  0  0  0  0  0  0999 V2000
    9.3143    0.0035   34.7957 C   0  0  0  0  0  0  0  0  0  0  0  0
    9.0312    1.2479   35.3141 N   0  0  0  0  0  0  0  0  0  0  0  0
    9.6791    1.6228   36.4482 C   0  0  0  0  0  0  0  0  0  0  0  0
   10.4650    0.8018   36.9143 O   0  0  0  0  0  0  0  0  0  0  0  0
   10.1769    3.1743   38.2353 C   0  0  0  0  0  0  0  0  0  0  0  0
    9.5078    2.8215   37.0828 N   0  0  0  0  0  0  0  0  0  0  0  0
    8.6093    3.6303   36.4585 C   0  0  0  0  0  0  0  0  0  0  0  0
    7.9669    3.2431   35.3184 C   0  0  0  0  0  0  0  0  0  0  0  0
    8.1350    2.0122   34.6574 C   0  0  0  0  0  0  0  0  0  0  0  0
    7.5913    1.6038   33.6344 O   0  0  0  0  0  0  0  0  0  0  0  0
    7.1398    4.3022   34.9727 N   0  0  0  0  0  0  0  0  0  0  0  0
    7.3378    5.2519   35.9205 C   0  0  0  0  0  0  0  0  0  0  0  0
    8.2037    4.9065   36.8345 N   0  0  0  0  0  0  0  0  0  0  0  0
  1  2  1  0  0  0  0
  2  3  1  0  0  0  0
  2  9  1  0  0  0  0
  3  4  2  0  0  0  0
  3  6  1  0  0  0  0
  6  5  1  0  0  0  0
  6  7  1  0  0  0  0
  7  8  2  0  0  0  0
  7 13  1  0  0  0  0
  8  9  1  0  0  0  0
  8 11  1  0  0  0  0
  9 10  2  0  0  0  0
 11 12  1  0  0  0  0
 12 13  2  0  0  0  0
M  END
>  <CHROM.1>
8.72357086,2.61531131,35.88252223,0.88624630,0.82803775,-2.51775694

>  <Name>
1o15_lig

>  <RI>
0

>  <Rbt.Current_Directory>
/home/itssahil/PROJECTS/Mol_Feturizer/New_Systems/rnas/1o15

>  <Rbt.Executable>
rbdock ($Id: //depot/dev/client3/rdock/2013.1/src/exe/rbdock.cxx#4 $)

>  <Rbt.Library>
libRbt.so (2013.1, Build901 2013/11/27)

>  <Rbt.Parameter_File>
/export/apps/rDock/src/rDock_2013.1_src/data/scripts/dock_solv.prm

>  <Rbt.Receptor>
prm/blind_docking_80.prm

>  <SCORE>
-23.2308

>  <SCORE.INTER>
-23.2308

>  <SCORE.INTER.CONST>
1

>  <SCORE.INTER.POLAR>
-2.1637

>  <SCORE.INTER.ROT>
0

>  <SCORE.INTER.SOLV>
7.0732

>  <SCORE.INTER.VDW>
-14.2326

>  <SCORE.INTER.norm>
-1.78698

>  <SCORE.INTRA>
0

>  <SCORE.INTRA.DIHEDRAL>
0

>  <SCORE.INTRA.DIHEDRAL.0>
0

>  <SCORE.INTRA.POLAR>
0

>  <SCORE.INTRA.POLAR.0>
0

>  <SCORE.INTRA.REPUL>
0

>  <SCORE.INTRA.REPUL.0>
0

>  <SCORE.INTRA.SOLV>
0

>  <SCORE.INTRA.SOLV.lig_0>
-12.9184

>  <SCORE.INTRA.VDW>
0

>  <SCORE.INTRA.VDW.0>
0

>  <SCORE.INTRA.norm>
0

>  <SCORE.RESTR>
0

>  <SCORE.RESTR.CAVITY>
0

>  <SCORE.RESTR.norm>
0

>  <SCORE.SYSTEM>
0

>  <SCORE.SYSTEM.CONST>
0

>  <SCORE.SYSTEM.DIHEDRAL>
0

>  <SCORE.SYSTEM.SOLV>
0

>  <SCORE.SYSTEM.norm>
0

>  <SCORE.heavy>
13

>  <SCORE.norm>
-1.78698

>  <RMSD>
1.977

$$$$
1o15_lig
 OpenBabel11021811403D
libRbt.so/2013.1/901 2013/11/27
 13 14  0  0  0  0  0  0  0  0999 V2000
    9.3301    0.0116   34.7967 C   0  0  0  0  0  0  0  0  0  0  0  0
    9.0416    1.2603   35.3015 N   0  0  0  0  0  0  0  0  0  0  0  0
    9.6917    1.6523   36.4286 C   0  0  0  0  0  0  0  0  0  0  0  0
   10.4842    0.8415   36.9012 O   0  0  0  0  0  0  0  0  0  0  0  0
   10.1871    3.2277   38.1954 C   0  0  0  0  0  0  0  0  0  0  0  0
    9.5156    2.8574   37.0498 N   0  0  0  0  0  0  0  0  0  0  0  0
    8.6099    3.6534   36.4196 C   0  0  0  0  0  0  0  0  0  0  0  0
    7.9654    3.2491   35.2867 C   0  0  0  0  0  0  0  0  0  0  0  0
    8.1383    2.0114   34.6395 C   0  0  0  0  0  0  0  0  0  0  0  0
    7.5931    1.5879   33.6235 O   0  0  0  0  0  0  0  0  0  0  0  0
    7.1307    4.2990   34.9318 N   0  0  0  0  0  0  0  0  0  0  0  0
    7.3266    5.2610   35.8675 C   0  0  0  0  0  0  0  0  0  0  0  0
    8.1982    4.9315   36.7822 N   0  0  0  0  0  0  0  0  0  0  0  0
  1  2  1  0  0  0  0
  2  3  1  0  0  0  0
  2  9  1  0  0  0  0
  3  4  2  0  0  0  0
  3  6  1  0  0  0  0
  6  5  1  0  0  0  0
  6  7  1  0  0  0  0
  7  8  2  0  0  0  0
  7 13  1  0  0  0  0
  8  9  1  0  0  0  0
  8 11  1  0  0  0  0
  9 10  2  0  0  0  0
 11 12  1  0  0  0  0
 12 13  2  0  0  0  0
M  END
>  <CHROM.1>
8.72803680,2.63243551,35.85509312,0.88244293,0.82138501,-2.52672144

>  <Name>
1o15_lig

>  <RI>
0

>  <Rbt.Current_Directory>
/home/itssahil/PROJECTS/Mol_Feturizer/New_Systems/rnas/1o15

>  <Rbt.Executable>
rbdock ($Id: //depot/dev/client3/rdock/2013.1/src/exe/rbdock.cxx#4 $)

>  <Rbt.Library>
libRbt.so (2013.1, Build901 2013/11/27)

>  <Rbt.Parameter_File>
/export/apps/rDock/src/rDock_2013.1_src/data/scripts/dock_solv.prm

>  <Rbt.Receptor>
prm/pocket_docking_4.prm

>  <SCORE>
-23.3129

>  <SCORE.INTER>
-23.3129

>  <SCORE.INTER.CONST>
1

>  <SCORE.INTER.POLAR>
-2.15493

>  <SCORE.INTER.ROT>
0

>  <SCORE.INTER.SOLV>
7.11902

>  <SCORE.INTER.VDW>
-14.3319

>  <SCORE.INTER.norm>
-1.7933

>  <SCORE.INTRA>
0

>  <SCORE.INTRA.DIHEDRAL>
0

>  <SCORE.INTRA.DIHEDRAL.0>
0

>  <SCORE.INTRA.POLAR>
0

>  <SCORE.INTRA.POLAR.0>
0

>  <SCORE.INTRA.REPUL>
0

>  <SCORE.INTRA.REPUL.0>
0

>  <SCORE.INTRA.SOLV>
0

>  <SCORE.INTRA.SOLV.lig_0>
-12.9184

>  <SCORE.INTRA.VDW>
0

>  <SCORE.INTRA.VDW.0>
0

>  <SCORE.INTRA.norm>
0

>  <SCORE.RESTR>
0

>  <SCORE.RESTR.CAVITY>
0

>  <SCORE.RESTR.norm>
0

>  <SCORE.SYSTEM>
0

>  <SCORE.SYSTEM.CONST>
0

>  <SCORE.SYSTEM.DIHEDRAL>
0

>  <SCORE.SYSTEM.SOLV>
0

>  <SCORE.SYSTEM.norm>
0

>  <SCORE.heavy>
13

>  <SCORE.norm>
-1.7933

>  <RMSD>
1.977

$$$$
1o15_lig
 OpenBabel11021811403D
libRbt.so/2013.1/901 2013/11/27
 13 14  0  0  0  0  0  0  0  0999 V2000
    9.3308    0.0130   34.8033 C   0  0  0  0  0  0  0  0  0  0  0  0
    9.0388    1.2620   35.3054 N   0  0  0  0  0  0  0  0  0  0  0  0
    9.6826    1.6554   36.4357 C   0  0  0  0  0  0  0  0  0  0  0  0
   10.4732    0.8455   36.9131 O   0  0  0  0  0  0  0  0  0  0  0  0
   10.1677    3.2325   38.2036 C   0  0  0  0  0  0  0  0  0  0  0  0
    9.5025    2.8608   37.0548 N   0  0  0  0  0  0  0  0  0  0  0  0
    8.5997    3.6558   36.4192 C   0  0  0  0  0  0  0  0  0  0  0  0
    7.9614    3.2500   35.2832 C   0  0  0  0  0  0  0  0  0  0  0  0
    8.1386    2.0120   34.6380 C   0  0  0  0  0  0  0  0  0  0  0  0
    7.5990    1.5872   33.6195 O   0  0  0  0  0  0  0  0  0  0  0  0
    7.1279    4.2991   34.9229 N   0  0  0  0  0  0  0  0  0  0  0  0
    7.3183    5.2621   35.8589 C   0  0  0  0  0  0  0  0  0  0  0  0
    8.1852    4.9339   36.7785 N   0  0  0  0  0  0  0  0  0  0  0  0
  1  2  1  0  0  0  0
  2  3  1  0  0  0  0
  2  9  1  0  0  0  0
  3  4  2  0  0  0  0
  3  6  1  0  0  0  0
  6  5  1  0  0  0  0
  6  7  1  0  0  0  0
  7  8  2  0  0  0  0
  7 13  1  0  0  0  0
  8  9  1  0  0  0  0
  8 11  1  0  0  0  0
  9 10  2  0  0  0  0
 11 12  1  0  0  0  0
 12 13  2  0  0  0  0
M  END
>  <CHROM.1>
8.72141591,2.63437670,35.85617540,0.87716385,0.82534898,-2.52369952

>  <Name>
1o15_lig

>  <RI>
0

>  <Rbt.Current_Directory>
/home/itssahil/PROJECTS/Mol_Feturizer/New_Systems/rnas/1o15

>  <Rbt.Executable>
rbdock ($Id: //depot/dev/client3/rdock/2013.1/src/exe/rbdock.cxx#4 $)

>  <Rbt.Library>
libRbt.so (2013.1, Build901 2013/11/27)

>  <Rbt.Parameter_File>
/export/apps/rDock/src/rDock_2013.1_src/data/scripts/dock_solv.prm

>  <Rbt.Receptor>
prm/pocket_docking_5.prm

>  <SCORE>
-23.3341

>  <SCORE.INTER>
-23.3341

>  <SCORE.INTER.CONST>
1

>  <SCORE.INTER.POLAR>
-2.16298

>  <SCORE.INTER.ROT>
0

>  <SCORE.INTER.SOLV>
7.13155

>  <SCORE.INTER.VDW>
-14.3233

>  <SCORE.INTER.norm>
-1.79493

>  <SCORE.INTRA>
0

>  <SCORE.INTRA.DIHEDRAL>
0

>  <SCORE.INTRA.DIHEDRAL.0>
0

>  <SCORE.INTRA.POLAR>
0

>  <SCORE.INTRA.POLAR.0>
0

>  <SCORE.INTRA.REPUL>
0

>  <SCORE.INTRA.REPUL.0>
0

>  <SCORE.INTRA.SOLV>
0

>  <SCORE.INTRA.SOLV.lig_0>
-12.9184

>  <SCORE.INTRA.VDW>
0

>  <SCORE.INTRA.VDW.0>
0

>  <SCORE.INTRA.norm>
0

>  <SCORE.RESTR>
0

>  <SCORE.RESTR.CAVITY>
0

>  <SCORE.RESTR.norm>
0

>  <SCORE.SYSTEM>
0

>  <SCORE.SYSTEM.CONST>
0

>  <SCORE.SYSTEM.DIHEDRAL>
0

>  <SCORE.SYSTEM.SOLV>
0

>  <SCORE.SYSTEM.norm>
0

>  <SCORE.heavy>
13

>  <SCORE.norm>
-1.79493

>  <RMSD>
1.977

$$$$
1o15_lig
 OpenBabel11021811403D
libRbt.so/2013.1/901 2013/11/27
 13 14  0  0  0  0  0  0  0  0999 V2000
    9.3341    0.0092   34.8042 C   0  0  0  0  0  0  0  0  0  0  0  0
    9.0412    1.2582   35.3058 N   0  0  0  0  0  0  0  0  0  0  0  0
    9.6860    1.6532   36.4349 C   0  0  0  0  0  0  0  0  0  0  0  0
   10.4782    0.8446   36.9120 O   0  0  0  0  0  0  0  0  0  0  0  0
   10.1714    3.2322   38.2011 C   0  0  0  0  0  0  0  0  0  0  0  0
    9.5053    2.8588   37.0534 N   0  0  0  0  0  0  0  0  0  0  0  0
    8.6007    3.6522   36.4183 C   0  0  0  0  0  0  0  0  0  0  0  0
    7.9615    3.2449   35.2834 C   0  0  0  0  0  0  0  0  0  0  0  0
    8.1393    2.0066   34.6389 C   0  0  0  0  0  0  0  0  0  0  0  0
    7.5990    1.5804   33.6214 O   0  0  0  0  0  0  0  0  0  0  0  0
    7.1263    4.2928   34.9235 N   0  0  0  0  0  0  0  0  0  0  0  0
    7.3167    5.2567   35.8585 C   0  0  0  0  0  0  0  0  0  0  0  0
    8.1852    4.9302   36.7772 N   0  0  0  0  0  0  0  0  0  0  0  0
  1  2  1  0  0  0  0
  2  3  1  0  0  0  0
  2  9  1  0  0  0  0
  3  4  2  0  0  0  0
  3  6  1  0  0  0  0
  6  5  1  0  0  0  0
  6  7  1  0  0  0  0
  7  8  2  0  0  0  0
  7 13  1  0  0  0  0
  8  9  1  0  0  0  0
  8 11  1  0  0  0  0
  9 10  2  0  0  0  0
 11 12  1  0  0  0  0
 12 13  2  0  0  0  0
M  END
>  <CHROM.1>
8.72295566,2.63059767,35.85590980,0.87681706,0.82363656,-2.52418903

>  <Name>
1o15_lig

>  <RI>
0

>  <Rbt.Current_Directory>
/home/itssahil/PROJECTS/Mol_Feturizer/New_Systems/rnas/1o15

>  <Rbt.Executable>
rbdock ($Id: //depot/dev/client3/rdock/2013.1/src/exe/rbdock.cxx#4 $)

>  <Rbt.Library>
libRbt.so (2013.1, Build901 2013/11/27)

>  <Rbt.Parameter_File>
/export/apps/rDock/src/rDock_2013.1_src/data/scripts/dock_solv.prm

>  <Rbt.Receptor>
prm/pocket_docking_7.prm

>  <SCORE>
-23.3113

>  <SCORE.INTER>
-23.3113

>  <SCORE.INTER.CONST>
1

>  <SCORE.INTER.POLAR>
-2.16039

>  <SCORE.INTER.ROT>
0

>  <SCORE.INTER.SOLV>
7.13483

>  <SCORE.INTER.VDW>
-14.3178

>  <SCORE.INTER.norm>
-1.79317

>  <SCORE.INTRA>
0

>  <SCORE.INTRA.DIHEDRAL>
0

>  <SCORE.INTRA.DIHEDRAL.0>
0

>  <SCORE.INTRA.POLAR>
0

>  <SCORE.INTRA.POLAR.0>
0

>  <SCORE.INTRA.REPUL>
0

>  <SCORE.INTRA.REPUL.0>
0

>  <SCORE.INTRA.SOLV>
0

>  <SCORE.INTRA.SOLV.lig_0>
-12.9184

>  <SCORE.INTRA.VDW>
0

>  <SCORE.INTRA.VDW.0>
0

>  <SCORE.INTRA.norm>
0

>  <SCORE.RESTR>
0

>  <SCORE.RESTR.CAVITY>
0

>  <SCORE.RESTR.norm>
0

>  <SCORE.SYSTEM>
0

>  <SCORE.SYSTEM.CONST>
0

>  <SCORE.SYSTEM.DIHEDRAL>
0

>  <SCORE.SYSTEM.SOLV>
0

>  <SCORE.SYSTEM.norm>
0

>  <SCORE.heavy>
13

>  <SCORE.norm>
-1.79317

>  <RMSD>
1.977

$$$$
1o15_lig
 OpenBabel11021811403D
libRbt.so/2013.1/901 2013/11/27
 13 14  0  0  0  0  0  0  0  0999 V2000
    9.3391    0.0133   34.7839 C   0  0  0  0  0  0  0  0  0  0  0  0
    9.0505    1.2578   35.2990 N   0  0  0  0  0  0  0  0  0  0  0  0
    9.7046    1.6427   36.4262 C   0  0  0  0  0  0  0  0  0  0  0  0
   10.5006    0.8299   36.8895 O   0  0  0  0  0  0  0  0  0  0  0  0
   10.2047    3.2060   38.2024 C   0  0  0  0  0  0  0  0  0  0  0  0
    9.5291    2.8429   37.0569 N   0  0  0  0  0  0  0  0  0  0  0  0
    8.6193    3.6419   36.4363 C   0  0  0  0  0  0  0  0  0  0  0  0
    7.9708    3.2447   35.3032 C   0  0  0  0  0  0  0  0  0  0  0  0
    8.1432    2.0121   34.6462 C   0  0  0  0  0  0  0  0  0  0  0  0
    7.5945    1.5951   33.6294 O   0  0  0  0  0  0  0  0  0  0  0  0
    7.1328    4.2957   34.9594 N   0  0  0  0  0  0  0  0  0  0  0  0
    7.3309    5.2512   35.9014 C   0  0  0  0  0  0  0  0  0  0  0  0
    8.2069    4.9166   36.8100 N   0  0  0  0  0  0  0  0  0  0  0  0
  1  2  1  0  0  0  0
  2  3  1  0  0  0  0
  2  9  1  0  0  0  0
  3  4  2  0  0  0  0
  3  6  1  0  0  0  0
  6  5  1  0  0  0  0
  6  7  1  0  0  0  0
  7  8  2  0  0  0  0
  7 13  1  0  0  0  0
  8  9  1  0  0  0  0
  8 11  1  0  0  0  0
  9 10  2  0  0  0  0
 11 12  1  0  0  0  0
 12 13  2  0  0  0  0
M  END
>  <CHROM.1>
8.73688153,2.62528790,35.86388066,0.88387192,0.81697137,-2.52044533

>  <Name>
1o15_lig

>  <RI>
0

>  <Rbt.Current_Directory>
/home/itssahil/PROJECTS/Mol_Feturizer/New_Systems/rnas/1o15

>  <Rbt.Executable>
rbdock ($Id: //depot/dev/client3/rdock/2013.1/src/exe/rbdock.cxx#4 $)

>  <Rbt.Library>
libRbt.so (2013.1, Build901 2013/11/27)

>  <Rbt.Parameter_File>
/export/apps/rDock/src/rDock_2013.1_src/data/scripts/dock_solv.prm

>  <Rbt.Receptor>
prm/pocket_docking_7.prm

>  <SCORE>
-23.2866

>  <SCORE.INTER>
-23.2866

>  <SCORE.INTER.CONST>
1

>  <SCORE.INTER.POLAR>
-2.14739

>  <SCORE.INTER.ROT>
0

>  <SCORE.INTER.SOLV>
7.10387

>  <SCORE.INTER.VDW>
-14.3344

>  <SCORE.INTER.norm>
-1.79128

>  <SCORE.INTRA>
0

>  <SCORE.INTRA.DIHEDRAL>
0

>  <SCORE.INTRA.DIHEDRAL.0>
0

>  <SCORE.INTRA.POLAR>
0

>  <SCORE.INTRA.POLAR.0>
0

>  <SCORE.INTRA.REPUL>
0

>  <SCORE.INTRA.REPUL.0>
0

>  <SCORE.INTRA.SOLV>
0

>  <SCORE.INTRA.SOLV.lig_0>
-12.9184

>  <SCORE.INTRA.VDW>
0

>  <SCORE.INTRA.VDW.0>
0

>  <SCORE.INTRA.norm>
0

>  <SCORE.RESTR>
0

>  <SCORE.RESTR.CAVITY>
0

>  <SCORE.RESTR.norm>
0

>  <SCORE.SYSTEM>
0

>  <SCORE.SYSTEM.CONST>
0

>  <SCORE.SYSTEM.DIHEDRAL>
0

>  <SCORE.SYSTEM.SOLV>
0

>  <SCORE.SYSTEM.norm>
0

>  <SCORE.heavy>
13

>  <SCORE.norm>
-1.79128

>  <RMSD>
1.977

$$$$
1o15_lig
 OpenBabel11021811403D
libRbt.so/2013.1/901 2013/11/27
 13 14  0  0  0  0  0  0  0  0999 V2000
    9.3319    0.0132   34.7986 C   0  0  0  0  0  0  0  0  0  0  0  0
    9.0412    1.2620   35.3021 N   0  0  0  0  0  0  0  0  0  0  0  0
    9.6913    1.6567   36.4283 C   0  0  0  0  0  0  0  0  0  0  0  0
   10.4857    0.8480   36.9013 O   0  0  0  0  0  0  0  0  0  0  0  0
   10.1847    3.2351   38.1928 C   0  0  0  0  0  0  0  0  0  0  0  0
    9.5132    2.8621   37.0481 N   0  0  0  0  0  0  0  0  0  0  0  0
    8.6055    3.6556   36.4175 C   0  0  0  0  0  0  0  0  0  0  0  0
    7.9611    3.2486   35.2855 C   0  0  0  0  0  0  0  0  0  0  0  0
    8.1361    2.0105   34.6397 C   0  0  0  0  0  0  0  0  0  0  0  0
    7.5910    1.5846   33.6246 O   0  0  0  0  0  0  0  0  0  0  0  0
    7.1240    4.2964   34.9299 N   0  0  0  0  0  0  0  0  0  0  0  0
    7.3187    5.2600   35.8644 C   0  0  0  0  0  0  0  0  0  0  0  0
    8.1915    4.9333   36.7788 N   0  0  0  0  0  0  0  0  0  0  0  0
  1  2  1  0  0  0  0
  2  3  1  0  0  0  0
  2  9  1  0  0  0  0
  3  4  2  0  0  0  0
  3  6  1  0  0  0  0
  6  5  1  0  0  0  0
  6  7  1  0  0  0  0
  7  8  2  0  0  0  0
  7 13  1  0  0  0  0
  8  9  1  0  0  0  0
  8 11  1  0  0  0  0
  9 10  2  0  0  0  0
 11 12  1  0  0  0  0
 12 13  2  0  0  0  0
M  END
>  <CHROM.1>
8.72529435,2.63414815,35.85417576,0.88060168,0.81971511,-2.52657535

>  <Name>
1o15_lig

>  <RI>
0

>  <Rbt.Current_Directory>
/home/itssahil/PROJECTS/Mol_Feturizer/New_Systems/rnas/1o15

>  <Rbt.Executable>
rbdock ($Id: //depot/dev/client3/rdock/2013.1/src/exe/rbdock.cxx#4 $)

>  <Rbt.Library>
libRbt.so (2013.1, Build901 2013/11/27)

>  <Rbt.Parameter_File>
/export/apps/rDock/src/rDock_2013.1_src/data/scripts/dock_solv.prm

>  <Rbt.Receptor>
prm/pocket_docking_7.prm

>  <SCORE>
-23.3355

>  <SCORE.INTER>
-23.3355

>  <SCORE.INTER.CONST>
1

>  <SCORE.INTER.POLAR>
-2.1501

>  <SCORE.INTER.ROT>
0

>  <SCORE.INTER.SOLV>
7.13664

>  <SCORE.INTER.VDW>
-14.3689

>  <SCORE.INTER.norm>
-1.79504

>  <SCORE.INTRA>
0

>  <SCORE.INTRA.DIHEDRAL>
0

>  <SCORE.INTRA.DIHEDRAL.0>
0

>  <SCORE.INTRA.POLAR>
0

>  <SCORE.INTRA.POLAR.0>
0

>  <SCORE.INTRA.REPUL>
0

>  <SCORE.INTRA.REPUL.0>
0

>  <SCORE.INTRA.SOLV>
0

>  <SCORE.INTRA.SOLV.lig_0>
-12.9184

>  <SCORE.INTRA.VDW>
0

>  <SCORE.INTRA.VDW.0>
0

>  <SCORE.INTRA.norm>
0

>  <SCORE.RESTR>
0

>  <SCORE.RESTR.CAVITY>
0

>  <SCORE.RESTR.norm>
0

>  <SCORE.SYSTEM>
0

>  <SCORE.SYSTEM.CONST>
0

>  <SCORE.SYSTEM.DIHEDRAL>
0

>  <SCORE.SYSTEM.SOLV>
0

>  <SCORE.SYSTEM.norm>
0

>  <SCORE.heavy>
13

>  <SCORE.norm>
-1.79504

>  <RMSD>
1.977

$$$$
1o15_lig
 OpenBabel11021811403D
libRbt.so/2013.1/901 2013/11/27
 13 14  0  0  0  0  0  0  0  0999 V2000
    9.3419    0.0149   34.7812 C   0  0  0  0  0  0  0  0  0  0  0  0
    9.0520    1.2584   35.2981 N   0  0  0  0  0  0  0  0  0  0  0  0
    9.7067    1.6430   36.4251 C   0  0  0  0  0  0  0  0  0  0  0  0
   10.5044    0.8308   36.8866 O   0  0  0  0  0  0  0  0  0  0  0  0
   10.2064    3.2049   38.2025 C   0  0  0  0  0  0  0  0  0  0  0  0
    9.5301    2.8421   37.0573 N   0  0  0  0  0  0  0  0  0  0  0  0
    8.6185    3.6405   36.4387 C   0  0  0  0  0  0  0  0  0  0  0  0
    7.9694    3.2437   35.3057 C   0  0  0  0  0  0  0  0  0  0  0  0
    8.1429    2.0122   34.6472 C   0  0  0  0  0  0  0  0  0  0  0  0
    7.5937    1.5955   33.6305 O   0  0  0  0  0  0  0  0  0  0  0  0
    7.1294    4.2939   34.9641 N   0  0  0  0  0  0  0  0  0  0  0  0
    7.3272    5.2486   35.9070 C   0  0  0  0  0  0  0  0  0  0  0  0
    8.2046    4.9142   36.8143 N   0  0  0  0  0  0  0  0  0  0  0  0
  1  2  1  0  0  0  0
  2  3  1  0  0  0  0
  2  9  1  0  0  0  0
  3  4  2  0  0  0  0
  3  6  1  0  0  0  0
  6  5  1  0  0  0  0
  6  7  1  0  0  0  0
  7  8  2  0  0  0  0
  7 13  1  0  0  0  0
  8  9  1  0  0  0  0
  8 11  1  0  0  0  0
  9 10  2  0  0  0  0
 11 12  1  0  0  0  0
 12 13  2  0  0  0  0
M  END
>  <CHROM.1>
8.73695920,2.62477151,35.86492297,0.88304300,0.81523537,-2.51867778

>  <Name>
1o15_lig

>  <RI>
0

>  <Rbt.Current_Directory>
/home/itssahil/PROJECTS/Mol_Feturizer/New_Systems/rnas/1o15

>  <Rbt.Executable>
rbdock ($Id: //depot/dev/client3/rdock/2013.1/src/exe/rbdock.cxx#4 $)

>  <Rbt.Library>
libRbt.so (2013.1, Build901 2013/11/27)

>  <Rbt.Parameter_File>
/export/apps/rDock/src/rDock_2013.1_src/data/scripts/dock_solv.prm

>  <Rbt.Receptor>
prm/pocket_docking_7.prm

>  <SCORE>
-23.2787

>  <SCORE.INTER>
-23.2787

>  <SCORE.INTER.CONST>
1

>  <SCORE.INTER.POLAR>
-2.14344

>  <SCORE.INTER.ROT>
0

>  <SCORE.INTER.SOLV>
7.11169

>  <SCORE.INTER.VDW>
-14.3449

>  <SCORE.INTER.norm>
-1.79067

>  <SCORE.INTRA>
0

>  <SCORE.INTRA.DIHEDRAL>
0

>  <SCORE.INTRA.DIHEDRAL.0>
0

>  <SCORE.INTRA.POLAR>
0

>  <SCORE.INTRA.POLAR.0>
0

>  <SCORE.INTRA.REPUL>
0

>  <SCORE.INTRA.REPUL.0>
0

>  <SCORE.INTRA.SOLV>
0

>  <SCORE.INTRA.SOLV.lig_0>
-12.9184

>  <SCORE.INTRA.VDW>
0

>  <SCORE.INTRA.VDW.0>
0

>  <SCORE.INTRA.norm>
0

>  <SCORE.RESTR>
0

>  <SCORE.RESTR.CAVITY>
0

>  <SCORE.RESTR.norm>
0

>  <SCORE.SYSTEM>
0

>  <SCORE.SYSTEM.CONST>
0

>  <SCORE.SYSTEM.DIHEDRAL>
0

>  <SCORE.SYSTEM.SOLV>
0

>  <SCORE.SYSTEM.norm>
0

>  <SCORE.heavy>
13

>  <SCORE.norm>
-1.79067

>  <RMSD>
1.977

$$$$
1o15_lig
 OpenBabel11021811403D
libRbt.so/2013.1/901 2013/11/27
 13 14  0  0  0  0  0  0  0  0999 V2000
    9.3268    0.0102   34.8023 C   0  0  0  0  0  0  0  0  0  0  0  0
    9.0367    1.2584   35.3077 N   0  0  0  0  0  0  0  0  0  0  0  0
    9.6813    1.6480   36.4388 C   0  0  0  0  0  0  0  0  0  0  0  0
   10.4707    0.8357   36.9141 O   0  0  0  0  0  0  0  0  0  0  0  0
   10.1688    3.2200   38.2107 C   0  0  0  0  0  0  0  0  0  0  0  0
    9.5030    2.8521   37.0610 N   0  0  0  0  0  0  0  0  0  0  0  0
    8.6012    3.6499   36.4276 C   0  0  0  0  0  0  0  0  0  0  0  0
    7.9621    3.2480   35.2906 C   0  0  0  0  0  0  0  0  0  0  0  0
    8.1374    2.0113   34.6423 C   0  0  0  0  0  0  0  0  0  0  0  0
    7.5971    1.5899   33.6228 O   0  0  0  0  0  0  0  0  0  0  0  0
    7.1301    4.2992   34.9332 N   0  0  0  0  0  0  0  0  0  0  0  0
    7.3220    5.2595   35.8716 C   0  0  0  0  0  0  0  0  0  0  0  0
    8.1886    4.9278   36.7901 N   0  0  0  0  0  0  0  0  0  0  0  0
  1  2  1  0  0  0  0
  2  3  1  0  0  0  0
  2  9  1  0  0  0  0
  3  4  2  0  0  0  0
  3  6  1  0  0  0  0
  6  5  1  0  0  0  0
  6  7  1  0  0  0  0
  7  8  2  0  0  0  0
  7 13  1  0  0  0  0
  8  9  1  0  0  0  0
  8 11  1  0  0  0  0
  9 10  2  0  0  0  0
 11 12  1  0  0  0  0
 12 13  2  0  0  0  0
M  END
>  <CHROM.1>
8.72136111,2.62981509,35.86194452,0.87902497,0.82604933,-2.52253639

>  <Name>
1o15_lig

>  <RI>
0

>  <Rbt.Current_Directory>
/home/itssahil/PROJECTS/Mol_Feturizer/New_Systems/rnas/1o15

>  <Rbt.Executable>
rbdock ($Id: //depot/dev/client3/rdock/2013.1/src/exe/rbdock.cxx#4 $)

>  <Rbt.Library>
libRbt.so (2013.1, Build901 2013/11/27)

>  <Rbt.Parameter_File>
/export/apps/rDock/src/rDock_2013.1_src/data/scripts/dock_solv.prm

>  <Rbt.Receptor>
prm/pocket_docking_8.prm

>  <SCORE>
-23.3164

>  <SCORE.INTER>
-23.3164

>  <SCORE.INTER.CONST>
1

>  <SCORE.INTER.POLAR>
-2.16333

>  <SCORE.INTER.ROT>
0

>  <SCORE.INTER.SOLV>
7.12016

>  <SCORE.INTER.VDW>
-14.3066

>  <SCORE.INTER.norm>
-1.79357

>  <SCORE.INTRA>
0

>  <SCORE.INTRA.DIHEDRAL>
0

>  <SCORE.INTRA.DIHEDRAL.0>
0

>  <SCORE.INTRA.POLAR>
0

>  <SCORE.INTRA.POLAR.0>
0

>  <SCORE.INTRA.REPUL>
0

>  <SCORE.INTRA.REPUL.0>
0

>  <SCORE.INTRA.SOLV>
0

>  <SCORE.INTRA.SOLV.lig_0>
-12.9184

>  <SCORE.INTRA.VDW>
0

>  <SCORE.INTRA.VDW.0>
0

>  <SCORE.INTRA.norm>
0

>  <SCORE.RESTR>
0

>  <SCORE.RESTR.CAVITY>
0

>  <SCORE.RESTR.norm>
0

>  <SCORE.SYSTEM>
0

>  <SCORE.SYSTEM.CONST>
0

>  <SCORE.SYSTEM.DIHEDRAL>
0

>  <SCORE.SYSTEM.SOLV>
0

>  <SCORE.SYSTEM.norm>
0

>  <SCORE.heavy>
13

>  <SCORE.norm>
-1.79357

>  <RMSD>
1.977

$$$$
1o15_lig
 OpenBabel11021811403D
libRbt.so/2013.1/901 2013/11/27
 13 14  0  0  0  0  0  0  0  0999 V2000
    9.2957   -0.0055   34.8239 C   0  0  0  0  0  0  0  0  0  0  0  0
    9.0138    1.2459   35.3257 N   0  0  0  0  0  0  0  0  0  0  0  0
    9.6489    1.6282   36.4646 C   0  0  0  0  0  0  0  0  0  0  0  0
   10.4230    0.8070   36.9495 O   0  0  0  0  0  0  0  0  0  0  0  0
   10.1328    3.1947   38.2424 C   0  0  0  0  0  0  0  0  0  0  0  0
    9.4769    2.8344   37.0846 N   0  0  0  0  0  0  0  0  0  0  0  0
    8.5922    3.6425   36.4401 C   0  0  0  0  0  0  0  0  0  0  0  0
    7.9626    3.2479   35.2954 C   0  0  0  0  0  0  0  0  0  0  0  0
    8.1316    2.0091   34.6492 C   0  0  0  0  0  0  0  0  0  0  0  0
    7.5990    1.5939   33.6232 O   0  0  0  0  0  0  0  0  0  0  0  0
    7.1473    4.3086   34.9278 N   0  0  0  0  0  0  0  0  0  0  0  0
    7.3387    5.2667   35.8685 C   0  0  0  0  0  0  0  0  0  0  0  0
    8.1900    4.9251   36.7976 N   0  0  0  0  0  0  0  0  0  0  0  0
  1  2  1  0  0  0  0
  2  3  1  0  0  0  0
  2  9  1  0  0  0  0
  3  4  2  0  0  0  0
  3  6  1  0  0  0  0
  6  5  1  0  0  0  0
  6  7  1  0  0  0  0
  7  8  2  0  0  0  0
  7 13  1  0  0  0  0
  8  9  1  0  0  0  0
  8 11  1  0  0  0  0
  9 10  2  0  0  0  0
 11 12  1  0  0  0  0
 12 13  2  0  0  0  0
M  END
>  <CHROM.1>
8.70758088,2.62101920,35.87600719,0.88246389,0.84276545,-2.52515502

>  <Name>
1o15_lig

>  <RI>
0

>  <Rbt.Current_Directory>
/home/itssahil/PROJECTS/Mol_Feturizer/New_Systems/rnas/1o15

>  <Rbt.Executable>
rbdock ($Id: //depot/dev/client3/rdock/2013.1/src/exe/rbdock.cxx#4 $)

>  <Rbt.Library>
libRbt.so (2013.1, Build901 2013/11/27)

>  <Rbt.Parameter_File>
/export/apps/rDock/src/rDock_2013.1_src/data/scripts/dock_solv.prm

>  <Rbt.Receptor>
prm/pocket_docking_8.prm

>  <SCORE>
-23.2072

>  <SCORE.INTER>
-23.2072

>  <SCORE.INTER.CONST>
1

>  <SCORE.INTER.POLAR>
-2.19427

>  <SCORE.INTER.ROT>
0

>  <SCORE.INTER.SOLV>
7.07083

>  <SCORE.INTER.VDW>
-14.1142

>  <SCORE.INTER.norm>
-1.78517

>  <SCORE.INTRA>
0

>  <SCORE.INTRA.DIHEDRAL>
0

>  <SCORE.INTRA.DIHEDRAL.0>
0

>  <SCORE.INTRA.POLAR>
0

>  <SCORE.INTRA.POLAR.0>
0

>  <SCORE.INTRA.REPUL>
0

>  <SCORE.INTRA.REPUL.0>
0

>  <SCORE.INTRA.SOLV>
0

>  <SCORE.INTRA.SOLV.lig_0>
-12.9184

>  <SCORE.INTRA.VDW>
0

>  <SCORE.INTRA.VDW.0>
0

>  <SCORE.INTRA.norm>
0

>  <SCORE.RESTR>
0

>  <SCORE.RESTR.CAVITY>
0

>  <SCORE.RESTR.norm>
0

>  <SCORE.SYSTEM>
0

>  <SCORE.SYSTEM.CONST>
0

>  <SCORE.SYSTEM.DIHEDRAL>
0

>  <SCORE.SYSTEM.SOLV>
0

>  <SCORE.SYSTEM.norm>
0

>  <SCORE.heavy>
13

>  <SCORE.norm>
-1.78517

>  <RMSD>
1.977

$$$$
1o15_lig
 OpenBabel11021811403D
libRbt.so/2013.1/901 2013/11/27
 13 14  0  0  0  0  0  0  0  0999 V2000
    9.3383    0.0179   34.7959 C   0  0  0  0  0  0  0  0  0  0  0  0
    9.0449    1.2655   35.3005 N   0  0  0  0  0  0  0  0  0  0  0  0
    9.6940    1.6606   36.4272 C   0  0  0  0  0  0  0  0  0  0  0  0
   10.4902    0.8531   36.8995 O   0  0  0  0  0  0  0  0  0  0  0  0
   10.1840    3.2384   38.1932 C   0  0  0  0  0  0  0  0  0  0  0  0
    9.5134    2.8650   37.0481 N   0  0  0  0  0  0  0  0  0  0  0  0
    8.6041    3.6571   36.4183 C   0  0  0  0  0  0  0  0  0  0  0  0
    7.9605    3.2499   35.2858 C   0  0  0  0  0  0  0  0  0  0  0  0
    8.1382    2.0128   34.6388 C   0  0  0  0  0  0  0  0  0  0  0  0
    7.5941    1.5867   33.6233 O   0  0  0  0  0  0  0  0  0  0  0  0
    7.1213    4.2963   34.9311 N   0  0  0  0  0  0  0  0  0  0  0  0
    7.3138    5.2593   35.8666 C   0  0  0  0  0  0  0  0  0  0  0  0
    8.1873    4.9336   36.7808 N   0  0  0  0  0  0  0  0  0  0  0  0
  1  2  1  0  0  0  0
  2  3  1  0  0  0  0
  2  9  1  0  0  0  0
  3  4  2  0  0  0  0
  3  6  1  0  0  0  0
  6  5  1  0  0  0  0
  6  7  1  0  0  0  0
  7  8  2  0  0  0  0
  7 13  1  0  0  0  0
  8  9  1  0  0  0  0
  8 11  1  0  0  0  0
  9 10  2  0  0  0  0
 11 12  1  0  0  0  0
 12 13  2  0  0  0  0
M  END
>  <CHROM.1>
8.72603195,2.63652276,35.85395301,0.87802000,0.81852103,-2.52374368

>  <Name>
1o15_lig

>  <RI>
0

>  <Rbt.Current_Directory>
/home/itssahil/PROJECTS/Mol_Feturizer/New_Systems/rnas/1o15

>  <Rbt.Executable>
rbdock ($Id: //depot/dev/client3/rdock/2013.1/src/exe/rbdock.cxx#4 $)

>  <Rbt.Library>
libRbt.so (2013.1, Build901 2013/11/27)

>  <Rbt.Parameter_File>
/export/apps/rDock/src/rDock_2013.1_src/data/scripts/dock_solv.prm

>  <Rbt.Receptor>
prm/pocket_docking_8.prm

>  <SCORE>
-23.3503

>  <SCORE.INTER>
-23.3503

>  <SCORE.INTER.CONST>
1

>  <SCORE.INTER.POLAR>
-2.14848

>  <SCORE.INTER.ROT>
0

>  <SCORE.INTER.SOLV>
7.14577

>  <SCORE.INTER.VDW>
-14.3872

>  <SCORE.INTER.norm>
-1.79618

>  <SCORE.INTRA>
0

>  <SCORE.INTRA.DIHEDRAL>
0

>  <SCORE.INTRA.DIHEDRAL.0>
0

>  <SCORE.INTRA.POLAR>
0

>  <SCORE.INTRA.POLAR.0>
0

>  <SCORE.INTRA.REPUL>
0

>  <SCORE.INTRA.REPUL.0>
0

>  <SCORE.INTRA.SOLV>
0

>  <SCORE.INTRA.SOLV.lig_0>
-12.9184

>  <SCORE.INTRA.VDW>
0

>  <SCORE.INTRA.VDW.0>
0

>  <SCORE.INTRA.norm>
0

>  <SCORE.RESTR>
0

>  <SCORE.RESTR.CAVITY>
0

>  <SCORE.RESTR.norm>
0

>  <SCORE.SYSTEM>
0

>  <SCORE.SYSTEM.CONST>
0

>  <SCORE.SYSTEM.DIHEDRAL>
0

>  <SCORE.SYSTEM.SOLV>
0

>  <SCORE.SYSTEM.norm>
0

>  <SCORE.heavy>
13

>  <SCORE.norm>
-1.79618

>  <RMSD>
1.977

$$$$
1o15_lig
 OpenBabel11021811403D
libRbt.so/2013.1/901 2013/11/27
 13 14  0  0  0  0  0  0  0  0999 V2000
    9.3379    0.0043   34.7948 C   0  0  0  0  0  0  0  0  0  0  0  0
    9.0473    1.2522   35.3003 N   0  0  0  0  0  0  0  0  0  0  0  0
    9.6970    1.6448   36.4275 C   0  0  0  0  0  0  0  0  0  0  0  0
   10.4912    0.8351   36.8994 O   0  0  0  0  0  0  0  0  0  0  0  0
   10.1902    3.2201   38.1949 C   0  0  0  0  0  0  0  0  0  0  0  0
    9.5191    2.8492   37.0493 N   0  0  0  0  0  0  0  0  0  0  0  0
    8.6117    3.6440   36.4198 C   0  0  0  0  0  0  0  0  0  0  0  0
    7.9676    3.2391   35.2868 C   0  0  0  0  0  0  0  0  0  0  0  0
    8.1425    2.0021   34.6389 C   0  0  0  0  0  0  0  0  0  0  0  0
    7.5977    1.5781   33.6229 O   0  0  0  0  0  0  0  0  0  0  0  0
    7.1309    4.2878   34.9328 N   0  0  0  0  0  0  0  0  0  0  0  0
    7.3254    5.2496   35.8690 C   0  0  0  0  0  0  0  0  0  0  0  0
    8.1979    4.9212   36.7832 N   0  0  0  0  0  0  0  0  0  0  0  0
  1  2  1  0  0  0  0
  2  3  1  0  0  0  0
  2  9  1  0  0  0  0
  3  4  2  0  0  0  0
  3  6  1  0  0  0  0
  6  5  1  0  0  0  0
  6  7  1  0  0  0  0
  7  8  2  0  0  0  0
  7 13  1  0  0  0  0
  8  9  1  0  0  0  0
  8 11  1  0  0  0  0
  9 10  2  0  0  0  0
 11 12  1  0  0  0  0
 12 13  2  0  0  0  0
M  END
>  <CHROM.1>
8.73148713,2.62350566,35.85472447,0.88058918,0.82011918,-2.52483514

>  <Name>
1o15_lig

>  <RI>
0

>  <Rbt.Current_Directory>
/home/itssahil/PROJECTS/Mol_Feturizer/New_Systems/rnas/1o15

>  <Rbt.Executable>
rbdock ($Id: //depot/dev/client3/rdock/2013.1/src/exe/rbdock.cxx#4 $)

>  <Rbt.Library>
libRbt.so (2013.1, Build901 2013/11/27)

>  <Rbt.Parameter_File>
/export/apps/rDock/src/rDock_2013.1_src/data/scripts/dock_solv.prm

>  <Rbt.Receptor>
prm/blind_docking_80.prm

>  <SCORE>
-23.27

>  <SCORE.INTER>
-23.27

>  <SCORE.INTER.CONST>
1

>  <SCORE.INTER.POLAR>
-2.15543

>  <SCORE.INTER.ROT>
0

>  <SCORE.INTER.SOLV>
7.12215

>  <SCORE.INTER.VDW>
-14.3026

>  <SCORE.INTER.norm>
-1.79

>  <SCORE.INTRA>
0

>  <SCORE.INTRA.DIHEDRAL>
0

>  <SCORE.INTRA.DIHEDRAL.0>
0

>  <SCORE.INTRA.POLAR>
0

>  <SCORE.INTRA.POLAR.0>
0

>  <SCORE.INTRA.REPUL>
0

>  <SCORE.INTRA.REPUL.0>
0

>  <SCORE.INTRA.SOLV>
0

>  <SCORE.INTRA.SOLV.lig_0>
-12.9184

>  <SCORE.INTRA.VDW>
0

>  <SCORE.INTRA.VDW.0>
0

>  <SCORE.INTRA.norm>
0

>  <SCORE.RESTR>
0

>  <SCORE.RESTR.CAVITY>
0

>  <SCORE.RESTR.norm>
0

>  <SCORE.SYSTEM>
0

>  <SCORE.SYSTEM.CONST>
0

>  <SCORE.SYSTEM.DIHEDRAL>
0

>  <SCORE.SYSTEM.SOLV>
0

>  <SCORE.SYSTEM.norm>
0

>  <SCORE.heavy>
13

>  <SCORE.norm>
-1.79

>  <RMSD>
1.978

$$$$
1o15_lig
 OpenBabel11021811403D
libRbt.so/2013.1/901 2013/11/27
 13 14  0  0  0  0  0  0  0  0999 V2000
    9.3264    0.0105   34.8044 C   0  0  0  0  0  0  0  0  0  0  0  0
    9.0361    1.2600   35.3063 N   0  0  0  0  0  0  0  0  0  0  0  0
    9.6789    1.6519   36.4376 C   0  0  0  0  0  0  0  0  0  0  0  0
   10.4669    0.8403   36.9163 O   0  0  0  0  0  0  0  0  0  0  0  0
   10.1642    3.2278   38.2066 C   0  0  0  0  0  0  0  0  0  0  0  0
    9.5002    2.8577   37.0566 N   0  0  0  0  0  0  0  0  0  0  0  0
    8.6001    3.6546   36.4195 C   0  0  0  0  0  0  0  0  0  0  0  0
    7.9630    3.2504   35.2824 C   0  0  0  0  0  0  0  0  0  0  0  0
    8.1387    2.0120   34.6373 C   0  0  0  0  0  0  0  0  0  0  0  0
    7.6000    1.5885   33.6178 O   0  0  0  0  0  0  0  0  0  0  0  0
    7.1324    4.3013   34.9209 N   0  0  0  0  0  0  0  0  0  0  0  0
    7.3231    5.2637   35.8573 C   0  0  0  0  0  0  0  0  0  0  0  0
    8.1878    4.9336   36.7783 N   0  0  0  0  0  0  0  0  0  0  0  0
  1  2  1  0  0  0  0
  2  3  1  0  0  0  0
  2  9  1  0  0  0  0
  3  4  2  0  0  0  0
  3  6  1  0  0  0  0
  6  5  1  0  0  0  0
  6  7  1  0  0  0  0
  7  8  2  0  0  0  0
  7 13  1  0  0  0  0
  8  9  1  0  0  0  0
  8 11  1  0  0  0  0
  9 10  2  0  0  0  0
 11 12  1  0  0  0  0
 12 13  2  0  0  0  0
M  END
>  <CHROM.1>
8.72071823,2.63302699,35.85661503,0.87822947,0.82797565,-2.52435580

>  <Name>
1o15_lig

>  <RI>
0

>  <Rbt.Current_Directory>
/home/itssahil/PROJECTS/Mol_Feturizer/New_Systems/rnas/1o15

>  <Rbt.Executable>
rbdock ($Id: //depot/dev/client3/rdock/2013.1/src/exe/rbdock.cxx#4 $)

>  <Rbt.Library>
libRbt.so (2013.1, Build901 2013/11/27)

>  <Rbt.Parameter_File>
/export/apps/rDock/src/rDock_2013.1_src/data/scripts/dock_solv.prm

>  <Rbt.Receptor>
prm/blind_docking_80.prm

>  <SCORE>
-23.3343

>  <SCORE.INTER>
-23.3343

>  <SCORE.INTER.CONST>
1

>  <SCORE.INTER.POLAR>
-2.16856

>  <SCORE.INTER.ROT>
0

>  <SCORE.INTER.SOLV>
7.12115

>  <SCORE.INTER.VDW>
-14.3014

>  <SCORE.INTER.norm>
-1.79495

>  <SCORE.INTRA>
0

>  <SCORE.INTRA.DIHEDRAL>
0

>  <SCORE.INTRA.DIHEDRAL.0>
0

>  <SCORE.INTRA.POLAR>
0

>  <SCORE.INTRA.POLAR.0>
0

>  <SCORE.INTRA.REPUL>
0

>  <SCORE.INTRA.REPUL.0>
0

>  <SCORE.INTRA.SOLV>
0

>  <SCORE.INTRA.SOLV.lig_0>
-12.9184

>  <SCORE.INTRA.VDW>
0

>  <SCORE.INTRA.VDW.0>
0

>  <SCORE.INTRA.norm>
0

>  <SCORE.RESTR>
0

>  <SCORE.RESTR.CAVITY>
0

>  <SCORE.RESTR.norm>
0

>  <SCORE.SYSTEM>
0

>  <SCORE.SYSTEM.CONST>
0

>  <SCORE.SYSTEM.DIHEDRAL>
0

>  <SCORE.SYSTEM.SOLV>
0

>  <SCORE.SYSTEM.norm>
0

>  <SCORE.heavy>
13

>  <SCORE.norm>
-1.79495

>  <RMSD>
1.978

$$$$
1o15_lig
 OpenBabel11021811403D
libRbt.so/2013.1/901 2013/11/27
 13 14  0  0  0  0  0  0  0  0999 V2000
    9.3277    0.0052   34.7950 C   0  0  0  0  0  0  0  0  0  0  0  0
    9.0417    1.2544   35.2999 N   0  0  0  0  0  0  0  0  0  0  0  0
    9.6932    1.6453   36.4266 C   0  0  0  0  0  0  0  0  0  0  0  0
   10.4846    0.8331   36.8987 O   0  0  0  0  0  0  0  0  0  0  0  0
   10.1925    3.2198   38.1930 C   0  0  0  0  0  0  0  0  0  0  0  0
    9.5197    2.8507   37.0479 N   0  0  0  0  0  0  0  0  0  0  0  0
    8.6150    3.6483   36.4182 C   0  0  0  0  0  0  0  0  0  0  0  0
    7.9690    3.2451   35.2857 C   0  0  0  0  0  0  0  0  0  0  0  0
    8.1394    2.0072   34.6384 C   0  0  0  0  0  0  0  0  0  0  0  0
    7.5928    1.5846   33.6228 O   0  0  0  0  0  0  0  0  0  0  0  0
    7.1360    4.2965   34.9313 N   0  0  0  0  0  0  0  0  0  0  0  0
    7.3342    5.2582   35.8670 C   0  0  0  0  0  0  0  0  0  0  0  0
    8.2057    4.9272   36.7811 N   0  0  0  0  0  0  0  0  0  0  0  0
  1  2  1  0  0  0  0
  2  3  1  0  0  0  0
  2  9  1  0  0  0  0
  3  4  2  0  0  0  0
  3  6  1  0  0  0  0
  6  5  1  0  0  0  0
  6  7  1  0  0  0  0
  7  8  2  0  0  0  0
  7 13  1  0  0  0  0
  8  9  1  0  0  0  0
  8 11  1  0  0  0  0
  9 10  2  0  0  0  0
 11 12  1  0  0  0  0
 12 13  2  0  0  0  0
M  END
>  <CHROM.1>
8.73092158,2.62712710,35.85367298,0.88510554,0.82190634,-2.52868326

>  <Name>
1o15_lig

>  <RI>
0

>  <Rbt.Current_Directory>
/home/itssahil/PROJECTS/Mol_Feturizer/New_Systems/rnas/1o15

>  <Rbt.Executable>
rbdock ($Id: //depot/dev/client3/rdock/2013.1/src/exe/rbdock.cxx#4 $)

>  <Rbt.Library>
libRbt.so (2013.1, Build901 2013/11/27)

>  <Rbt.Parameter_File>
/export/apps/rDock/src/rDock_2013.1_src/data/scripts/dock_solv.prm

>  <Rbt.Receptor>
prm/pocket_docking_4.prm

>  <SCORE>
-23.3057

>  <SCORE.INTER>
-23.3057

>  <SCORE.INTER.CONST>
1

>  <SCORE.INTER.POLAR>
-2.15722

>  <SCORE.INTER.ROT>
0

>  <SCORE.INTER.SOLV>
7.10667

>  <SCORE.INTER.VDW>
-14.3153

>  <SCORE.INTER.norm>
-1.79274

>  <SCORE.INTRA>
0

>  <SCORE.INTRA.DIHEDRAL>
0

>  <SCORE.INTRA.DIHEDRAL.0>
0

>  <SCORE.INTRA.POLAR>
0

>  <SCORE.INTRA.POLAR.0>
0

>  <SCORE.INTRA.REPUL>
0

>  <SCORE.INTRA.REPUL.0>
0

>  <SCORE.INTRA.SOLV>
0

>  <SCORE.INTRA.SOLV.lig_0>
-12.9184

>  <SCORE.INTRA.VDW>
0

>  <SCORE.INTRA.VDW.0>
0

>  <SCORE.INTRA.norm>
0

>  <SCORE.RESTR>
0

>  <SCORE.RESTR.CAVITY>
0

>  <SCORE.RESTR.norm>
0

>  <SCORE.SYSTEM>
0

>  <SCORE.SYSTEM.CONST>
0

>  <SCORE.SYSTEM.DIHEDRAL>
0

>  <SCORE.SYSTEM.SOLV>
0

>  <SCORE.SYSTEM.norm>
0

>  <SCORE.heavy>
13

>  <SCORE.norm>
-1.79274

>  <RMSD>
1.978

$$$$
1o15_lig
 OpenBabel11021811403D
libRbt.so/2013.1/901 2013/11/27
 13 14  0  0  0  0  0  0  0  0999 V2000
    9.3424    0.0203   34.7928 C   0  0  0  0  0  0  0  0  0  0  0  0
    9.0467    1.2669   35.2987 N   0  0  0  0  0  0  0  0  0  0  0  0
    9.6951    1.6619   36.4258 C   0  0  0  0  0  0  0  0  0  0  0  0
   10.4928    0.8554   36.8972 O   0  0  0  0  0  0  0  0  0  0  0  0
   10.1822    3.2387   38.1934 C   0  0  0  0  0  0  0  0  0  0  0  0
    9.5123    2.8653   37.0480 N   0  0  0  0  0  0  0  0  0  0  0  0
    8.6015    3.6565   36.4190 C   0  0  0  0  0  0  0  0  0  0  0  0
    7.9587    3.2493   35.2861 C   0  0  0  0  0  0  0  0  0  0  0  0
    8.1386    2.0132   34.6378 C   0  0  0  0  0  0  0  0  0  0  0  0
    7.5954    1.5872   33.6218 O   0  0  0  0  0  0  0  0  0  0  0  0
    7.1176    4.2945   34.9325 N   0  0  0  0  0  0  0  0  0  0  0  0
    7.3084    5.2569   35.8689 C   0  0  0  0  0  0  0  0  0  0  0  0
    8.1824    4.9319   36.7828 N   0  0  0  0  0  0  0  0  0  0  0  0
  1  2  1  0  0  0  0
  2  3  1  0  0  0  0
  2  9  1  0  0  0  0
  3  4  2  0  0  0  0
  3  6  1  0  0  0  0
  6  5  1  0  0  0  0
  6  7  1  0  0  0  0
  7  8  2  0  0  0  0
  7 13  1  0  0  0  0
  8  9  1  0  0  0  0
  8 11  1  0  0  0  0
  9 10  2  0  0  0  0
 11 12  1  0  0  0  0
 12 13  2  0  0  0  0
M  END
>  <CHROM.1>
8.72535806,2.63669793,35.85355908,0.87585572,0.81747362,-2.52111051

>  <Name>
1o15_lig

>  <RI>
0

>  <Rbt.Current_Directory>
/home/itssahil/PROJECTS/Mol_Feturizer/New_Systems/rnas/1o15

>  <Rbt.Executable>
rbdock ($Id: //depot/dev/client3/rdock/2013.1/src/exe/rbdock.cxx#4 $)

>  <Rbt.Library>
libRbt.so (2013.1, Build901 2013/11/27)

>  <Rbt.Parameter_File>
/export/apps/rDock/src/rDock_2013.1_src/data/scripts/dock_solv.prm

>  <Rbt.Receptor>
prm/pocket_docking_5.prm

>  <SCORE>
-23.3498

>  <SCORE.INTER>
-23.3498

>  <SCORE.INTER.CONST>
1

>  <SCORE.INTER.POLAR>
-2.14623

>  <SCORE.INTER.ROT>
0

>  <SCORE.INTER.SOLV>
7.1581

>  <SCORE.INTER.VDW>
-14.3985

>  <SCORE.INTER.norm>
-1.79614

>  <SCORE.INTRA>
0

>  <SCORE.INTRA.DIHEDRAL>
0

>  <SCORE.INTRA.DIHEDRAL.0>
0

>  <SCORE.INTRA.POLAR>
0

>  <SCORE.INTRA.POLAR.0>
0

>  <SCORE.INTRA.REPUL>
0

>  <SCORE.INTRA.REPUL.0>
0

>  <SCORE.INTRA.SOLV>
0

>  <SCORE.INTRA.SOLV.lig_0>
-12.9184

>  <SCORE.INTRA.VDW>
0

>  <SCORE.INTRA.VDW.0>
0

>  <SCORE.INTRA.norm>
0

>  <SCORE.RESTR>
0

>  <SCORE.RESTR.CAVITY>
0

>  <SCORE.RESTR.norm>
0

>  <SCORE.SYSTEM>
0

>  <SCORE.SYSTEM.CONST>
0

>  <SCORE.SYSTEM.DIHEDRAL>
0

>  <SCORE.SYSTEM.SOLV>
0

>  <SCORE.SYSTEM.norm>
0

>  <SCORE.heavy>
13

>  <SCORE.norm>
-1.79614

>  <RMSD>
1.978

$$$$
1o15_lig
 OpenBabel11021811403D
libRbt.so/2013.1/901 2013/11/27
 13 14  0  0  0  0  0  0  0  0999 V2000
    9.3379    0.0224   34.8041 C   0  0  0  0  0  0  0  0  0  0  0  0
    9.0386    1.2687   35.3085 N   0  0  0  0  0  0  0  0  0  0  0  0
    9.6778    1.6627   36.4412 C   0  0  0  0  0  0  0  0  0  0  0  0
   10.4711    0.8555   36.9187 O   0  0  0  0  0  0  0  0  0  0  0  0
   10.1509    3.2381   38.2139 C   0  0  0  0  0  0  0  0  0  0  0  0
    9.4904    2.8658   37.0627 N   0  0  0  0  0  0  0  0  0  0  0  0
    8.5852    3.6578   36.4267 C   0  0  0  0  0  0  0  0  0  0  0  0
    7.9516    3.2516   35.2882 C   0  0  0  0  0  0  0  0  0  0  0  0
    8.1364    2.0159   34.6406 C   0  0  0  0  0  0  0  0  0  0  0  0
    7.6013    1.5909   33.6198 O   0  0  0  0  0  0  0  0  0  0  0  0
    7.1139    4.2975   34.9284 N   0  0  0  0  0  0  0  0  0  0  0  0
    7.2974    5.2592   35.8670 C   0  0  0  0  0  0  0  0  0  0  0  0
    8.1636    4.9331   36.7879 N   0  0  0  0  0  0  0  0  0  0  0  0
  1  2  1  0  0  0  0
  2  3  1  0  0  0  0
  2  9  1  0  0  0  0
  3  4  2  0  0  0  0
  3  6  1  0  0  0  0
  6  5  1  0  0  0  0
  6  7  1  0  0  0  0
  7  8  2  0  0  0  0
  7 13  1  0  0  0  0
  8  9  1  0  0  0  0
  8 11  1  0  0  0  0
  9 10  2  0  0  0  0
 11 12  1  0  0  0  0
 12 13  2  0  0  0  0
M  END
>  <CHROM.1>
8.71324817,2.63831727,35.86161063,0.86928485,0.82447395,-2.51560851

>  <Name>
1o15_lig

>  <RI>
0

>  <Rbt.Current_Directory>
/home/itssahil/PROJECTS/Mol_Feturizer/New_Systems/rnas/1o15

>  <Rbt.Executable>
rbdock ($Id: //depot/dev/client3/rdock/2013.1/src/exe/rbdock.cxx#4 $)

>  <Rbt.Library>
libRbt.so (2013.1, Build901 2013/11/27)

>  <Rbt.Parameter_File>
/export/apps/rDock/src/rDock_2013.1_src/data/scripts/dock_solv.prm

>  <Rbt.Receptor>
prm/pocket_docking_6.prm

>  <SCORE>
-23.3133

>  <SCORE.INTER>
-23.3133

>  <SCORE.INTER.CONST>
1

>  <SCORE.INTER.POLAR>
-2.15838

>  <SCORE.INTER.ROT>
0

>  <SCORE.INTER.SOLV>
7.16968

>  <SCORE.INTER.VDW>
-14.3375

>  <SCORE.INTER.norm>
-1.79333

>  <SCORE.INTRA>
0

>  <SCORE.INTRA.DIHEDRAL>
0

>  <SCORE.INTRA.DIHEDRAL.0>
0

>  <SCORE.INTRA.POLAR>
0

>  <SCORE.INTRA.POLAR.0>
0

>  <SCORE.INTRA.REPUL>
0

>  <SCORE.INTRA.REPUL.0>
0

>  <SCORE.INTRA.SOLV>
0

>  <SCORE.INTRA.SOLV.lig_0>
-12.9184

>  <SCORE.INTRA.VDW>
0

>  <SCORE.INTRA.VDW.0>
0

>  <SCORE.INTRA.norm>
0

>  <SCORE.RESTR>
0

>  <SCORE.RESTR.CAVITY>
0

>  <SCORE.RESTR.norm>
0

>  <SCORE.SYSTEM>
0

>  <SCORE.SYSTEM.CONST>
0

>  <SCORE.SYSTEM.DIHEDRAL>
0

>  <SCORE.SYSTEM.SOLV>
0

>  <SCORE.SYSTEM.norm>
0

>  <SCORE.heavy>
13

>  <SCORE.norm>
-1.79333

>  <RMSD>
1.978

$$$$
1o15_lig
 OpenBabel11021811403D
libRbt.so/2013.1/901 2013/11/27
 13 14  0  0  0  0  0  0  0  0999 V2000
    9.3147   -0.0119   34.7810 C   0  0  0  0  0  0  0  0  0  0  0  0
    9.0434    1.2348   35.3001 N   0  0  0  0  0  0  0  0  0  0  0  0
    9.7018    1.6065   36.4293 C   0  0  0  0  0  0  0  0  0  0  0  0
   10.4856    0.7808   36.8906 O   0  0  0  0  0  0  0  0  0  0  0  0
   10.2224    3.1563   38.2113 C   0  0  0  0  0  0  0  0  0  0  0  0
    9.5428    2.8068   37.0639 N   0  0  0  0  0  0  0  0  0  0  0  0
    8.6452    3.6209   36.4453 C   0  0  0  0  0  0  0  0  0  0  0  0
    7.9922    3.2369   35.3101 C   0  0  0  0  0  0  0  0  0  0  0  0
    8.1476    2.0043   34.6491 C   0  0  0  0  0  0  0  0  0  0  0  0
    7.5940    1.5986   33.6304 O   0  0  0  0  0  0  0  0  0  0  0  0
    7.1696    4.3010   34.9692 N   0  0  0  0  0  0  0  0  0  0  0  0
    7.3805    5.2503   35.9147 C   0  0  0  0  0  0  0  0  0  0  0  0
    8.2506    4.9000   36.8229 N   0  0  0  0  0  0  0  0  0  0  0  0
  1  2  1  0  0  0  0
  2  3  1  0  0  0  0
  2  9  1  0  0  0  0
  3  4  2  0  0  0  0
  3  6  1  0  0  0  0
  6  5  1  0  0  0  0
  6  7  1  0  0  0  0
  7  8  2  0  0  0  0
  7 13  1  0  0  0  0
  8  9  1  0  0  0  0
  8 11  1  0  0  0  0
  9 10  2  0  0  0  0
 11 12  1  0  0  0  0
 12 13  2  0  0  0  0
M  END
>  <CHROM.1>
8.74877169,2.60467650,35.86944030,0.90015859,0.82603240,-2.52892320

>  <Name>
1o15_lig

>  <RI>
0

>  <Rbt.Current_Directory>
/home/itssahil/PROJECTS/Mol_Feturizer/New_Systems/rnas/1o15

>  <Rbt.Executable>
rbdock ($Id: //depot/dev/client3/rdock/2013.1/src/exe/rbdock.cxx#4 $)

>  <Rbt.Library>
libRbt.so (2013.1, Build901 2013/11/27)

>  <Rbt.Parameter_File>
/export/apps/rDock/src/rDock_2013.1_src/data/scripts/dock_solv.prm

>  <Rbt.Receptor>
prm/pocket_docking_6.prm

>  <SCORE>
-23.2767

>  <SCORE.INTER>
-23.2767

>  <SCORE.INTER.CONST>
1

>  <SCORE.INTER.POLAR>
-2.16944

>  <SCORE.INTER.ROT>
0

>  <SCORE.INTER.SOLV>
7.00094

>  <SCORE.INTER.VDW>
-14.22

>  <SCORE.INTER.norm>
-1.79052

>  <SCORE.INTRA>
0

>  <SCORE.INTRA.DIHEDRAL>
0

>  <SCORE.INTRA.DIHEDRAL.0>
0

>  <SCORE.INTRA.POLAR>
0

>  <SCORE.INTRA.POLAR.0>
0

>  <SCORE.INTRA.REPUL>
0

>  <SCORE.INTRA.REPUL.0>
0

>  <SCORE.INTRA.SOLV>
0

>  <SCORE.INTRA.SOLV.lig_0>
-12.9184

>  <SCORE.INTRA.VDW>
0

>  <SCORE.INTRA.VDW.0>
0

>  <SCORE.INTRA.norm>
0

>  <SCORE.RESTR>
0

>  <SCORE.RESTR.CAVITY>
0

>  <SCORE.RESTR.norm>
0

>  <SCORE.SYSTEM>
0

>  <SCORE.SYSTEM.CONST>
0

>  <SCORE.SYSTEM.DIHEDRAL>
0

>  <SCORE.SYSTEM.SOLV>
0

>  <SCORE.SYSTEM.norm>
0

>  <SCORE.heavy>
13

>  <SCORE.norm>
-1.79052

>  <RMSD>
1.978

$$$$
1o15_lig
 OpenBabel11021811403D
libRbt.so/2013.1/901 2013/11/27
 13 14  0  0  0  0  0  0  0  0999 V2000
    9.3278    0.0086   34.8018 C   0  0  0  0  0  0  0  0  0  0  0  0
    9.0365    1.2568   35.3064 N   0  0  0  0  0  0  0  0  0  0  0  0
    9.6787    1.6466   36.4388 C   0  0  0  0  0  0  0  0  0  0  0  0
   10.4672    0.8344   36.9158 O   0  0  0  0  0  0  0  0  0  0  0  0
   10.1626    3.2188   38.2114 C   0  0  0  0  0  0  0  0  0  0  0  0
    9.4992    2.8508   37.0604 N   0  0  0  0  0  0  0  0  0  0  0  0
    8.5987    3.6485   36.4249 C   0  0  0  0  0  0  0  0  0  0  0  0
    7.9621    3.2464   35.2867 C   0  0  0  0  0  0  0  0  0  0  0  0
    8.1387    2.0096   34.6389 C   0  0  0  0  0  0  0  0  0  0  0  0
    7.6006    1.5881   33.6183 O   0  0  0  0  0  0  0  0  0  0  0  0
    7.1308    4.2976   34.9274 N   0  0  0  0  0  0  0  0  0  0  0  0
    7.3207    5.2580   35.8660 C   0  0  0  0  0  0  0  0  0  0  0  0
    8.1853    4.9264   36.7864 N   0  0  0  0  0  0  0  0  0  0  0  0
  1  2  1  0  0  0  0
  2  3  1  0  0  0  0
  2  9  1  0  0  0  0
  3  4  2  0  0  0  0
  3  6  1  0  0  0  0
  6  5  1  0  0  0  0
  6  7  1  0  0  0  0
  7  8  2  0  0  0  0
  7 13  1  0  0  0  0
  8  9  1  0  0  0  0
  8 11  1  0  0  0  0
  9 10  2  0  0  0  0
 11 12  1  0  0  0  0
 12 13  2  0  0  0  0
M  END
>  <CHROM.1>
8.72007686,2.62832505,35.85973207,0.87721150,0.82777833,-2.52135607

>  <Name>
1o15_lig

>  <RI>
0

>  <Rbt.Current_Directory>
/home/itssahil/PROJECTS/Mol_Feturizer/New_Systems/rnas/1o15

>  <Rbt.Executable>
rbdock ($Id: //depot/dev/client3/rdock/2013.1/src/exe/rbdock.cxx#4 $)

>  <Rbt.Library>
libRbt.so (2013.1, Build901 2013/11/27)

>  <Rbt.Parameter_File>
/export/apps/rDock/src/rDock_2013.1_src/data/scripts/dock_solv.prm

>  <Rbt.Receptor>
prm/pocket_docking_4.prm

>  <SCORE>
-23.3151

>  <SCORE.INTER>
-23.3151

>  <SCORE.INTER.CONST>
1

>  <SCORE.INTER.POLAR>
-2.16782

>  <SCORE.INTER.ROT>
0

>  <SCORE.INTER.SOLV>
7.12508

>  <SCORE.INTER.VDW>
-14.2923

>  <SCORE.INTER.norm>
-1.79347

>  <SCORE.INTRA>
0

>  <SCORE.INTRA.DIHEDRAL>
0

>  <SCORE.INTRA.DIHEDRAL.0>
0

>  <SCORE.INTRA.POLAR>
0

>  <SCORE.INTRA.POLAR.0>
0

>  <SCORE.INTRA.REPUL>
0

>  <SCORE.INTRA.REPUL.0>
0

>  <SCORE.INTRA.SOLV>
0

>  <SCORE.INTRA.SOLV.lig_0>
-12.9184

>  <SCORE.INTRA.VDW>
0

>  <SCORE.INTRA.VDW.0>
0

>  <SCORE.INTRA.norm>
0

>  <SCORE.RESTR>
0

>  <SCORE.RESTR.CAVITY>
0

>  <SCORE.RESTR.norm>
0

>  <SCORE.SYSTEM>
0

>  <SCORE.SYSTEM.CONST>
0

>  <SCORE.SYSTEM.DIHEDRAL>
0

>  <SCORE.SYSTEM.SOLV>
0

>  <SCORE.SYSTEM.norm>
0

>  <SCORE.heavy>
13

>  <SCORE.norm>
-1.79347

>  <RMSD>
1.979

$$$$
1o15_lig
 OpenBabel11021811403D
libRbt.so/2013.1/901 2013/11/27
 13 14  0  0  0  0  0  0  0  0999 V2000
    9.3207    0.0019   34.7893 C   0  0  0  0  0  0  0  0  0  0  0  0
    9.0382    1.2471   35.3061 N   0  0  0  0  0  0  0  0  0  0  0  0
    9.6875    1.6237   36.4389 C   0  0  0  0  0  0  0  0  0  0  0  0
   10.4739    0.8034   36.9052 O   0  0  0  0  0  0  0  0  0  0  0  0
   10.1875    3.1779   38.2229 C   0  0  0  0  0  0  0  0  0  0  0  0
    9.5169    2.8233   37.0718 N   0  0  0  0  0  0  0  0  0  0  0  0
    8.6177    3.6312   36.4474 C   0  0  0  0  0  0  0  0  0  0  0  0
    7.9739    3.2423   35.3087 C   0  0  0  0  0  0  0  0  0  0  0  0
    8.1412    2.0103   34.6493 C   0  0  0  0  0  0  0  0  0  0  0  0
    7.5963    1.6004   33.6276 O   0  0  0  0  0  0  0  0  0  0  0  0
    7.1464    4.3008   34.9623 N   0  0  0  0  0  0  0  0  0  0  0  0
    7.3455    5.2520   35.9084 C   0  0  0  0  0  0  0  0  0  0  0  0
    8.2126    4.9080   36.8220 N   0  0  0  0  0  0  0  0  0  0  0  0
  1  2  1  0  0  0  0
  2  3  1  0  0  0  0
  2  9  1  0  0  0  0
  3  4  2  0  0  0  0
  3  6  1  0  0  0  0
  6  5  1  0  0  0  0
  6  7  1  0  0  0  0
  7  8  2  0  0  0  0
  7 13  1  0  0  0  0
  8  9  1  0  0  0  0
  8 11  1  0  0  0  0
  9 10  2  0  0  0  0
 11 12  1  0  0  0  0
 12 13  2  0  0  0  0
M  END
>  <CHROM.1>
8.73126712,2.61535517,35.87282089,0.88728562,0.82703843,-2.52004872

>  <Name>
1o15_lig

>  <RI>
0

>  <Rbt.Current_Directory>
/home/itssahil/PROJECTS/Mol_Feturizer/New_Systems/rnas/1o15

>  <Rbt.Executable>
rbdock ($Id: //depot/dev/client3/rdock/2013.1/src/exe/rbdock.cxx#4 $)

>  <Rbt.Library>
libRbt.so (2013.1, Build901 2013/11/27)

>  <Rbt.Parameter_File>
/export/apps/rDock/src/rDock_2013.1_src/data/scripts/dock_solv.prm

>  <Rbt.Receptor>
prm/pocket_docking_4.prm

>  <SCORE>
-23.2645

>  <SCORE.INTER>
-23.2645

>  <SCORE.INTER.CONST>
1

>  <SCORE.INTER.POLAR>
-2.16618

>  <SCORE.INTER.ROT>
0

>  <SCORE.INTER.SOLV>
7.06446

>  <SCORE.INTER.VDW>
-14.2439

>  <SCORE.INTER.norm>
-1.78958

>  <SCORE.INTRA>
0

>  <SCORE.INTRA.DIHEDRAL>
0

>  <SCORE.INTRA.DIHEDRAL.0>
0

>  <SCORE.INTRA.POLAR>
0

>  <SCORE.INTRA.POLAR.0>
0

>  <SCORE.INTRA.REPUL>
0

>  <SCORE.INTRA.REPUL.0>
0

>  <SCORE.INTRA.SOLV>
0

>  <SCORE.INTRA.SOLV.lig_0>
-12.9184

>  <SCORE.INTRA.VDW>
0

>  <SCORE.INTRA.VDW.0>
0

>  <SCORE.INTRA.norm>
0

>  <SCORE.RESTR>
0

>  <SCORE.RESTR.CAVITY>
0

>  <SCORE.RESTR.norm>
0

>  <SCORE.SYSTEM>
0

>  <SCORE.SYSTEM.CONST>
0

>  <SCORE.SYSTEM.DIHEDRAL>
0

>  <SCORE.SYSTEM.SOLV>
0

>  <SCORE.SYSTEM.norm>
0

>  <SCORE.heavy>
13

>  <SCORE.norm>
-1.78958

>  <RMSD>
1.979

$$$$
1o15_lig
 OpenBabel11021811403D
libRbt.so/2013.1/901 2013/11/27
 13 14  0  0  0  0  0  0  0  0999 V2000
    9.3313    0.0028   34.7810 C   0  0  0  0  0  0  0  0  0  0  0  0
    9.0482    1.2481   35.2973 N   0  0  0  0  0  0  0  0  0  0  0  0
    9.7022    1.6281   36.4262 C   0  0  0  0  0  0  0  0  0  0  0  0
   10.4931    0.8105   36.8899 O   0  0  0  0  0  0  0  0  0  0  0  0
   10.2071    3.1863   38.2054 C   0  0  0  0  0  0  0  0  0  0  0  0
    9.5317    2.8282   37.0582 N   0  0  0  0  0  0  0  0  0  0  0  0
    8.6273    3.6328   36.4371 C   0  0  0  0  0  0  0  0  0  0  0  0
    7.9788    3.2405   35.3022 C   0  0  0  0  0  0  0  0  0  0  0  0
    8.1460    2.0080   34.6439 C   0  0  0  0  0  0  0  0  0  0  0  0
    7.5970    1.5951   33.6256 O   0  0  0  0  0  0  0  0  0  0  0  0
    7.1469    4.2964   34.9584 N   0  0  0  0  0  0  0  0  0  0  0  0
    7.3483    5.2496   35.9021 C   0  0  0  0  0  0  0  0  0  0  0  0
    8.2208    4.9091   36.8118 N   0  0  0  0  0  0  0  0  0  0  0  0
  1  2  1  0  0  0  0
  2  3  1  0  0  0  0
  2  9  1  0  0  0  0
  3  4  2  0  0  0  0
  3  6  1  0  0  0  0
  6  5  1  0  0  0  0
  6  7  1  0  0  0  0
  7  8  2  0  0  0  0
  7 13  1  0  0  0  0
  8  9  1  0  0  0  0
  8 11  1  0  0  0  0
  9 10  2  0  0  0  0
 11 12  1  0  0  0  0
 12 13  2  0  0  0  0
M  END
>  <CHROM.1>
8.74061118,2.61639147,35.86348872,0.88852066,0.82146107,-2.52247821

>  <Name>
1o15_lig

>  <RI>
0

>  <Rbt.Current_Directory>
/home/itssahil/PROJECTS/Mol_Feturizer/New_Systems/rnas/1o15

>  <Rbt.Executable>
rbdock ($Id: //depot/dev/client3/rdock/2013.1/src/exe/rbdock.cxx#4 $)

>  <Rbt.Library>
libRbt.so (2013.1, Build901 2013/11/27)

>  <Rbt.Parameter_File>
/export/apps/rDock/src/rDock_2013.1_src/data/scripts/dock_solv.prm

>  <Rbt.Receptor>
prm/pocket_docking_5.prm

>  <SCORE>
-23.2756

>  <SCORE.INTER>
-23.2756

>  <SCORE.INTER.CONST>
1

>  <SCORE.INTER.POLAR>
-2.1589

>  <SCORE.INTER.ROT>
0

>  <SCORE.INTER.SOLV>
7.06999

>  <SCORE.INTER.VDW>
-14.2774

>  <SCORE.INTER.norm>
-1.79043

>  <SCORE.INTRA>
0

>  <SCORE.INTRA.DIHEDRAL>
0

>  <SCORE.INTRA.DIHEDRAL.0>
0

>  <SCORE.INTRA.POLAR>
0

>  <SCORE.INTRA.POLAR.0>
0

>  <SCORE.INTRA.REPUL>
0

>  <SCORE.INTRA.REPUL.0>
0

>  <SCORE.INTRA.SOLV>
0

>  <SCORE.INTRA.SOLV.lig_0>
-12.9184

>  <SCORE.INTRA.VDW>
0

>  <SCORE.INTRA.VDW.0>
0

>  <SCORE.INTRA.norm>
0

>  <SCORE.RESTR>
0

>  <SCORE.RESTR.CAVITY>
0

>  <SCORE.RESTR.norm>
0

>  <SCORE.SYSTEM>
0

>  <SCORE.SYSTEM.CONST>
0

>  <SCORE.SYSTEM.DIHEDRAL>
0

>  <SCORE.SYSTEM.SOLV>
0

>  <SCORE.SYSTEM.norm>
0

>  <SCORE.heavy>
13

>  <SCORE.norm>
-1.79043

>  <RMSD>
1.979

$$$$
1o15_lig
 OpenBabel11021811403D
libRbt.so/2013.1/901 2013/11/27
 13 14  0  0  0  0  0  0  0  0999 V2000
    9.3230   -0.0039   34.7825 C   0  0  0  0  0  0  0  0  0  0  0  0
    9.0444    1.2418   35.3002 N   0  0  0  0  0  0  0  0  0  0  0  0
    9.6987    1.6176   36.4304 C   0  0  0  0  0  0  0  0  0  0  0  0
   10.4858    0.7962   36.8937 O   0  0  0  0  0  0  0  0  0  0  0  0
   10.2080    3.1712   38.2123 C   0  0  0  0  0  0  0  0  0  0  0  0
    9.5324    2.8175   37.0639 N   0  0  0  0  0  0  0  0  0  0  0  0
    8.6319    3.6266   36.4430 C   0  0  0  0  0  0  0  0  0  0  0  0
    7.9830    3.2386   35.3068 C   0  0  0  0  0  0  0  0  0  0  0  0
    8.1460    2.0063   34.6469 C   0  0  0  0  0  0  0  0  0  0  0  0
    7.5964    1.5971   33.6274 O   0  0  0  0  0  0  0  0  0  0  0  0
    7.1558    4.2983   34.9636 N   0  0  0  0  0  0  0  0  0  0  0  0
    7.3600    5.2493   35.9088 C   0  0  0  0  0  0  0  0  0  0  0  0
    8.2302    4.9040   36.8190 N   0  0  0  0  0  0  0  0  0  0  0  0
  1  2  1  0  0  0  0
  2  3  1  0  0  0  0
  2  9  1  0  0  0  0
  3  4  2  0  0  0  0
  3  6  1  0  0  0  0
  6  5  1  0  0  0  0
  6  7  1  0  0  0  0
  7  8  2  0  0  0  0
  7 13  1  0  0  0  0
  8  9  1  0  0  0  0
  8 11  1  0  0  0  0
  9 10  2  0  0  0  0
 11 12  1  0  0  0  0
 12 13  2  0  0  0  0
M  END
>  <CHROM.1>
8.74174298,2.61057751,35.86801701,0.89245336,0.82467652,-2.52394985

>  <Name>
1o15_lig

>  <RI>
0

>  <Rbt.Current_Directory>
/home/itssahil/PROJECTS/Mol_Feturizer/New_Systems/rnas/1o15

>  <Rbt.Executable>
rbdock ($Id: //depot/dev/client3/rdock/2013.1/src/exe/rbdock.cxx#4 $)

>  <Rbt.Library>
libRbt.so (2013.1, Build901 2013/11/27)

>  <Rbt.Parameter_File>
/export/apps/rDock/src/rDock_2013.1_src/data/scripts/dock_solv.prm

>  <Rbt.Receptor>
prm/pocket_docking_7.prm

>  <SCORE>
-23.2465

>  <SCORE.INTER>
-23.2465

>  <SCORE.INTER.CONST>
1

>  <SCORE.INTER.POLAR>
-2.16461

>  <SCORE.INTER.ROT>
0

>  <SCORE.INTER.SOLV>
7.04162

>  <SCORE.INTER.VDW>
-14.2295

>  <SCORE.INTER.norm>
-1.78819

>  <SCORE.INTRA>
0

>  <SCORE.INTRA.DIHEDRAL>
0

>  <SCORE.INTRA.DIHEDRAL.0>
0

>  <SCORE.INTRA.POLAR>
0

>  <SCORE.INTRA.POLAR.0>
0

>  <SCORE.INTRA.REPUL>
0

>  <SCORE.INTRA.REPUL.0>
0

>  <SCORE.INTRA.SOLV>
0

>  <SCORE.INTRA.SOLV.lig_0>
-12.9184

>  <SCORE.INTRA.VDW>
0

>  <SCORE.INTRA.VDW.0>
0

>  <SCORE.INTRA.norm>
0

>  <SCORE.RESTR>
0

>  <SCORE.RESTR.CAVITY>
0

>  <SCORE.RESTR.norm>
0

>  <SCORE.SYSTEM>
0

>  <SCORE.SYSTEM.CONST>
0

>  <SCORE.SYSTEM.DIHEDRAL>
0

>  <SCORE.SYSTEM.SOLV>
0

>  <SCORE.SYSTEM.norm>
0

>  <SCORE.heavy>
13

>  <SCORE.norm>
-1.78819

>  <RMSD>
1.979

$$$$
1o15_lig
 OpenBabel11021811403D
libRbt.so/2013.1/901 2013/11/27
 13 14  0  0  0  0  0  0  0  0999 V2000
    9.2973   -0.0088   34.8087 C   0  0  0  0  0  0  0  0  0  0  0  0
    9.0177    1.2383   35.3225 N   0  0  0  0  0  0  0  0  0  0  0  0
    9.6583    1.6111   36.4615 C   0  0  0  0  0  0  0  0  0  0  0  0
   10.4349    0.7859   36.9356 O   0  0  0  0  0  0  0  0  0  0  0  0
   10.1507    3.1626   38.2500 C   0  0  0  0  0  0  0  0  0  0  0  0
    9.4892    2.8120   37.0925 N   0  0  0  0  0  0  0  0  0  0  0  0
    8.6013    3.6253   36.4592 C   0  0  0  0  0  0  0  0  0  0  0  0
    7.9661    3.2403   35.3143 C   0  0  0  0  0  0  0  0  0  0  0  0
    8.1321    2.0071   34.6568 C   0  0  0  0  0  0  0  0  0  0  0  0
    7.5945    1.6004   33.6299 O   0  0  0  0  0  0  0  0  0  0  0  0
    7.1488    4.3039   34.9596 N   0  0  0  0  0  0  0  0  0  0  0  0
    7.3447    5.2541   35.9074 C   0  0  0  0  0  0  0  0  0  0  0  0
    8.2006    4.9048   36.8295 N   0  0  0  0  0  0  0  0  0  0  0  0
  1  2  1  0  0  0  0
  2  3  1  0  0  0  0
  2  9  1  0  0  0  0
  3  4  2  0  0  0  0
  3  6  1  0  0  0  0
  6  5  1  0  0  0  0
  6  7  1  0  0  0  0
  7  8  2  0  0  0  0
  7 13  1  0  0  0  0
  8  9  1  0  0  0  0
  8 11  1  0  0  0  0
  9 10  2  0  0  0  0
 11 12  1  0  0  0  0
 12 13  2  0  0  0  0
M  END
>  <CHROM.1>
8.71398675,2.60865151,35.88589703,0.88652030,0.83867692,-2.51972416

>  <Name>
1o15_lig

>  <RI>
0

>  <Rbt.Current_Directory>
/home/itssahil/PROJECTS/Mol_Feturizer/New_Systems/rnas/1o15

>  <Rbt.Executable>
rbdock ($Id: //depot/dev/client3/rdock/2013.1/src/exe/rbdock.cxx#4 $)

>  <Rbt.Library>
libRbt.so (2013.1, Build901 2013/11/27)

>  <Rbt.Parameter_File>
/export/apps/rDock/src/rDock_2013.1_src/data/scripts/dock_solv.prm

>  <Rbt.Receptor>
prm/pocket_docking_8.prm

>  <SCORE>
-23.2582

>  <SCORE.INTER>
-23.2582

>  <SCORE.INTER.CONST>
1

>  <SCORE.INTER.POLAR>
-2.18395

>  <SCORE.INTER.ROT>
0

>  <SCORE.INTER.SOLV>
7.0547

>  <SCORE.INTER.VDW>
-14.1772

>  <SCORE.INTER.norm>
-1.78909

>  <SCORE.INTRA>
0

>  <SCORE.INTRA.DIHEDRAL>
0

>  <SCORE.INTRA.DIHEDRAL.0>
0

>  <SCORE.INTRA.POLAR>
0

>  <SCORE.INTRA.POLAR.0>
0

>  <SCORE.INTRA.REPUL>
0

>  <SCORE.INTRA.REPUL.0>
0

>  <SCORE.INTRA.SOLV>
0

>  <SCORE.INTRA.SOLV.lig_0>
-12.9184

>  <SCORE.INTRA.VDW>
0

>  <SCORE.INTRA.VDW.0>
0

>  <SCORE.INTRA.norm>
0

>  <SCORE.RESTR>
0

>  <SCORE.RESTR.CAVITY>
0

>  <SCORE.RESTR.norm>
0

>  <SCORE.SYSTEM>
0

>  <SCORE.SYSTEM.CONST>
0

>  <SCORE.SYSTEM.DIHEDRAL>
0

>  <SCORE.SYSTEM.SOLV>
0

>  <SCORE.SYSTEM.norm>
0

>  <SCORE.heavy>
13

>  <SCORE.norm>
-1.78909

>  <RMSD>
1.979

$$$$
1o15_lig
 OpenBabel11021811403D
libRbt.so/2013.1/901 2013/11/27
 13 14  0  0  0  0  0  0  0  0999 V2000
    9.3058   -0.0088   34.7967 C   0  0  0  0  0  0  0  0  0  0  0  0
    9.0274    1.2373   35.3136 N   0  0  0  0  0  0  0  0  0  0  0  0
    9.6773    1.6113   36.4469 C   0  0  0  0  0  0  0  0  0  0  0  0
   10.4605    0.7880   36.9136 O   0  0  0  0  0  0  0  0  0  0  0  0
   10.1816    3.1632   38.2318 C   0  0  0  0  0  0  0  0  0  0  0  0
    9.5106    2.8113   37.0801 N   0  0  0  0  0  0  0  0  0  0  0  0
    8.6147    3.6225   36.4554 C   0  0  0  0  0  0  0  0  0  0  0  0
    7.9702    3.2363   35.3161 C   0  0  0  0  0  0  0  0  0  0  0  0
    8.1336    2.0039   34.6565 C   0  0  0  0  0  0  0  0  0  0  0  0
    7.5879    1.5963   33.6343 O   0  0  0  0  0  0  0  0  0  0  0  0
    7.1467    4.2978   34.9695 N   0  0  0  0  0  0  0  0  0  0  0  0
    7.3486    5.2481   35.9160 C   0  0  0  0  0  0  0  0  0  0  0  0
    8.2139    4.9007   36.8300 N   0  0  0  0  0  0  0  0  0  0  0  0
  1  2  1  0  0  0  0
  2  3  1  0  0  0  0
  2  9  1  0  0  0  0
  3  4  2  0  0  0  0
  3  6  1  0  0  0  0
  6  5  1  0  0  0  0
  6  7  1  0  0  0  0
  7  8  2  0  0  0  0
  7 13  1  0  0  0  0
  8  9  1  0  0  0  0
  8 11  1  0  0  0  0
  9 10  2  0  0  0  0
 11 12  1  0  0  0  0
 12 13  2  0  0  0  0
M  END
>  <CHROM.1>
8.72499733,2.60647378,35.88052765,0.89102282,0.82965218,-2.52251977

>  <Name>
1o15_lig

>  <RI>
0

>  <Rbt.Current_Directory>
/home/itssahil/PROJECTS/Mol_Feturizer/New_Systems/rnas/1o15

>  <Rbt.Executable>
rbdock ($Id: //depot/dev/client3/rdock/2013.1/src/exe/rbdock.cxx#4 $)

>  <Rbt.Library>
libRbt.so (2013.1, Build901 2013/11/27)

>  <Rbt.Parameter_File>
/export/apps/rDock/src/rDock_2013.1_src/data/scripts/dock_solv.prm

>  <Rbt.Receptor>
prm/blind_docking_80.prm

>  <SCORE>
-23.2453

>  <SCORE.INTER>
-23.2453

>  <SCORE.INTER.CONST>
1

>  <SCORE.INTER.POLAR>
-2.1674

>  <SCORE.INTER.ROT>
0

>  <SCORE.INTER.SOLV>
7.05502

>  <SCORE.INTER.VDW>
-14.2239

>  <SCORE.INTER.norm>
-1.7881

>  <SCORE.INTRA>
0

>  <SCORE.INTRA.DIHEDRAL>
0

>  <SCORE.INTRA.DIHEDRAL.0>
0

>  <SCORE.INTRA.POLAR>
0

>  <SCORE.INTRA.POLAR.0>
0

>  <SCORE.INTRA.REPUL>
0

>  <SCORE.INTRA.REPUL.0>
0

>  <SCORE.INTRA.SOLV>
0

>  <SCORE.INTRA.SOLV.lig_0>
-12.9184

>  <SCORE.INTRA.VDW>
0

>  <SCORE.INTRA.VDW.0>
0

>  <SCORE.INTRA.norm>
0

>  <SCORE.RESTR>
0

>  <SCORE.RESTR.CAVITY>
0

>  <SCORE.RESTR.norm>
0

>  <SCORE.SYSTEM>
0

>  <SCORE.SYSTEM.CONST>
0

>  <SCORE.SYSTEM.DIHEDRAL>
0

>  <SCORE.SYSTEM.SOLV>
0

>  <SCORE.SYSTEM.norm>
0

>  <SCORE.heavy>
13

>  <SCORE.norm>
-1.7881

>  <RMSD>
1.980

$$$$
1o15_lig
 OpenBabel11021811403D
libRbt.so/2013.1/901 2013/11/27
 13 14  0  0  0  0  0  0  0  0999 V2000
    9.3492    0.0176   34.7909 C   0  0  0  0  0  0  0  0  0  0  0  0
    9.0504    1.2632   35.2973 N   0  0  0  0  0  0  0  0  0  0  0  0
    9.6985    1.6598   36.4241 C   0  0  0  0  0  0  0  0  0  0  0  0
   10.4987    0.8555   36.8948 O   0  0  0  0  0  0  0  0  0  0  0  0
   10.1823    3.2376   38.1918 C   0  0  0  0  0  0  0  0  0  0  0  0
    9.5127    2.8626   37.0466 N   0  0  0  0  0  0  0  0  0  0  0  0
    8.5993    3.6514   36.4184 C   0  0  0  0  0  0  0  0  0  0  0  0
    7.9569    3.2425   35.2858 C   0  0  0  0  0  0  0  0  0  0  0  0
    8.1398    2.0071   34.6372 C   0  0  0  0  0  0  0  0  0  0  0  0
    7.5971    1.5798   33.6214 O   0  0  0  0  0  0  0  0  0  0  0  0
    7.1126    4.2855   34.9330 N   0  0  0  0  0  0  0  0  0  0  0  0
    7.3013    5.2483   35.8696 C   0  0  0  0  0  0  0  0  0  0  0  0
    8.1768    4.9255   36.7828 N   0  0  0  0  0  0  0  0  0  0  0  0
  1  2  1  0  0  0  0
  2  3  1  0  0  0  0
  2  9  1  0  0  0  0
  3  4  2  0  0  0  0
  3  6  1  0  0  0  0
  6  5  1  0  0  0  0
  6  7  1  0  0  0  0
  7  8  2  0  0  0  0
  7 13  1  0  0  0  0
  8  9  1  0  0  0  0
  8 11  1  0  0  0  0
  9 10  2  0  0  0  0
 11 12  1  0  0  0  0
 12 13  2  0  0  0  0
M  END
>  <CHROM.1>
8.72559566,2.63202305,35.85269937,0.87308695,0.81531087,-2.51887603

>  <Name>
1o15_lig

>  <RI>
0

>  <Rbt.Current_Directory>
/home/itssahil/PROJECTS/Mol_Feturizer/New_Systems/rnas/1o15

>  <Rbt.Executable>
rbdock ($Id: //depot/dev/client3/rdock/2013.1/src/exe/rbdock.cxx#4 $)

>  <Rbt.Library>
libRbt.so (2013.1, Build901 2013/11/27)

>  <Rbt.Parameter_File>
/export/apps/rDock/src/rDock_2013.1_src/data/scripts/dock_solv.prm

>  <Rbt.Receptor>
prm/pocket_docking_6.prm

>  <SCORE>
-23.3206

>  <SCORE.INTER>
-23.3206

>  <SCORE.INTER.CONST>
1

>  <SCORE.INTER.POLAR>
-2.14262

>  <SCORE.INTER.ROT>
0

>  <SCORE.INTER.SOLV>
7.17473

>  <SCORE.INTER.VDW>
-14.3965

>  <SCORE.INTER.norm>
-1.79389

>  <SCORE.INTRA>
0

>  <SCORE.INTRA.DIHEDRAL>
0

>  <SCORE.INTRA.DIHEDRAL.0>
0

>  <SCORE.INTRA.POLAR>
0

>  <SCORE.INTRA.POLAR.0>
0

>  <SCORE.INTRA.REPUL>
0

>  <SCORE.INTRA.REPUL.0>
0

>  <SCORE.INTRA.SOLV>
0

>  <SCORE.INTRA.SOLV.lig_0>
-12.9184

>  <SCORE.INTRA.VDW>
0

>  <SCORE.INTRA.VDW.0>
0

>  <SCORE.INTRA.norm>
0

>  <SCORE.RESTR>
0

>  <SCORE.RESTR.CAVITY>
0

>  <SCORE.RESTR.norm>
0

>  <SCORE.SYSTEM>
0

>  <SCORE.SYSTEM.CONST>
0

>  <SCORE.SYSTEM.DIHEDRAL>
0

>  <SCORE.SYSTEM.SOLV>
0

>  <SCORE.SYSTEM.norm>
0

>  <SCORE.heavy>
13

>  <SCORE.norm>
-1.79389

>  <RMSD>
1.980

$$$$
1o15_lig
 OpenBabel11021811403D
libRbt.so/2013.1/901 2013/11/27
 13 14  0  0  0  0  0  0  0  0999 V2000
    9.2879   -0.0162   34.8084 C   0  0  0  0  0  0  0  0  0  0  0  0
    9.0131    1.2310   35.3247 N   0  0  0  0  0  0  0  0  0  0  0  0
    9.6541    1.5984   36.4653 C   0  0  0  0  0  0  0  0  0  0  0  0
   10.4266    0.7688   36.9384 O   0  0  0  0  0  0  0  0  0  0  0  0
   10.1511    3.1436   38.2579 C   0  0  0  0  0  0  0  0  0  0  0  0
    9.4894    2.7985   37.0988 N   0  0  0  0  0  0  0  0  0  0  0  0
    8.6057    3.6172   36.4664 C   0  0  0  0  0  0  0  0  0  0  0  0
    7.9702    3.2374   35.3199 C   0  0  0  0  0  0  0  0  0  0  0  0
    8.1316    2.0050   34.6598 C   0  0  0  0  0  0  0  0  0  0  0  0
    7.5935    1.6030   33.6314 O   0  0  0  0  0  0  0  0  0  0  0  0
    7.1579    4.3054   34.9668 N   0  0  0  0  0  0  0  0  0  0  0  0
    7.3568    5.2526   35.9169 C   0  0  0  0  0  0  0  0  0  0  0  0
    8.2102    4.8975   36.8391 N   0  0  0  0  0  0  0  0  0  0  0  0
  1  2  1  0  0  0  0
  2  3  1  0  0  0  0
  2  9  1  0  0  0  0
  3  4  2  0  0  0  0
  3  6  1  0  0  0  0
  6  5  1  0  0  0  0
  6  7  1  0  0  0  0
  7  8  2  0  0  0  0
  7 13  1  0  0  0  0
  8  9  1  0  0  0  0
  8 11  1  0  0  0  0
  9 10  2  0  0  0  0
 11 12  1  0  0  0  0
 12 13  2  0  0  0  0
M  END
>  <CHROM.1>
8.71470616,2.60130760,35.89090612,0.89079324,0.84210571,-2.52062073

>  <Name>
1o15_lig

>  <RI>
0

>  <Rbt.Current_Directory>
/home/itssahil/PROJECTS/Mol_Feturizer/New_Systems/rnas/1o15

>  <Rbt.Executable>
rbdock ($Id: //depot/dev/client3/rdock/2013.1/src/exe/rbdock.cxx#4 $)

>  <Rbt.Library>
libRbt.so (2013.1, Build901 2013/11/27)

>  <Rbt.Parameter_File>
/export/apps/rDock/src/rDock_2013.1_src/data/scripts/dock_solv.prm

>  <Rbt.Receptor>
prm/pocket_docking_4.prm

>  <SCORE>
-23.267

>  <SCORE.INTER>
-23.267

>  <SCORE.INTER.CONST>
1

>  <SCORE.INTER.POLAR>
-2.19044

>  <SCORE.INTER.ROT>
0

>  <SCORE.INTER.SOLV>
7.02838

>  <SCORE.INTER.VDW>
-14.1527

>  <SCORE.INTER.norm>
-1.78977

>  <SCORE.INTRA>
0

>  <SCORE.INTRA.DIHEDRAL>
0

>  <SCORE.INTRA.DIHEDRAL.0>
0

>  <SCORE.INTRA.POLAR>
0

>  <SCORE.INTRA.POLAR.0>
0

>  <SCORE.INTRA.REPUL>
0

>  <SCORE.INTRA.REPUL.0>
0

>  <SCORE.INTRA.SOLV>
0

>  <SCORE.INTRA.SOLV.lig_0>
-12.9184

>  <SCORE.INTRA.VDW>
0

>  <SCORE.INTRA.VDW.0>
0

>  <SCORE.INTRA.norm>
0

>  <SCORE.RESTR>
0

>  <SCORE.RESTR.CAVITY>
0

>  <SCORE.RESTR.norm>
0

>  <SCORE.SYSTEM>
0

>  <SCORE.SYSTEM.CONST>
0

>  <SCORE.SYSTEM.DIHEDRAL>
0

>  <SCORE.SYSTEM.SOLV>
0

>  <SCORE.SYSTEM.norm>
0

>  <SCORE.heavy>
13

>  <SCORE.norm>
-1.78977

>  <RMSD>
1.981

$$$$
1o15_lig
 OpenBabel11021811403D
libRbt.so/2013.1/901 2013/11/27
 13 14  0  0  0  0  0  0  0  0999 V2000
    9.3331    0.0048   34.8012 C   0  0  0  0  0  0  0  0  0  0  0  0
    9.0396    1.2527   35.3050 N   0  0  0  0  0  0  0  0  0  0  0  0
    9.6812    1.6444   36.4371 C   0  0  0  0  0  0  0  0  0  0  0  0
   10.4712    0.8340   36.9146 O   0  0  0  0  0  0  0  0  0  0  0  0
   10.1623    3.2187   38.2087 C   0  0  0  0  0  0  0  0  0  0  0  0
    9.4994    2.8487   37.0580 N   0  0  0  0  0  0  0  0  0  0  0  0
    8.5974    3.6444   36.4221 C   0  0  0  0  0  0  0  0  0  0  0  0
    7.9614    3.2404   35.2843 C   0  0  0  0  0  0  0  0  0  0  0  0
    8.1403    2.0035   34.6372 C   0  0  0  0  0  0  0  0  0  0  0  0
    7.6028    1.5803   33.6170 O   0  0  0  0  0  0  0  0  0  0  0  0
    7.1281    4.2897   34.9243 N   0  0  0  0  0  0  0  0  0  0  0  0
    7.3163    5.2511   35.8624 C   0  0  0  0  0  0  0  0  0  0  0  0
    8.1817    4.9217   36.7829 N   0  0  0  0  0  0  0  0  0  0  0  0
  1  2  1  0  0  0  0
  2  3  1  0  0  0  0
  2  9  1  0  0  0  0
  3  4  2  0  0  0  0
  3  6  1  0  0  0  0
  6  5  1  0  0  0  0
  6  7  1  0  0  0  0
  7  8  2  0  0  0  0
  7 13  1  0  0  0  0
  8  9  1  0  0  0  0
  8 11  1  0  0  0  0
  9 10  2  0  0  0  0
 11 12  1  0  0  0  0
 12 13  2  0  0  0  0
M  END
>  <CHROM.1>
8.72060711,2.62402717,35.85757836,0.87507090,0.82659368,-2.52041298

>  <Name>
1o15_lig

>  <RI>
0

>  <Rbt.Current_Directory>
/home/itssahil/PROJECTS/Mol_Feturizer/New_Systems/rnas/1o15

>  <Rbt.Executable>
rbdock ($Id: //depot/dev/client3/rdock/2013.1/src/exe/rbdock.cxx#4 $)

>  <Rbt.Library>
libRbt.so (2013.1, Build901 2013/11/27)

>  <Rbt.Parameter_File>
/export/apps/rDock/src/rDock_2013.1_src/data/scripts/dock_solv.prm

>  <Rbt.Receptor>
prm/pocket_docking_4.prm

>  <SCORE>
-23.285

>  <SCORE.INTER>
-23.285

>  <SCORE.INTER.CONST>
1

>  <SCORE.INTER.POLAR>
-2.1662

>  <SCORE.INTER.ROT>
0

>  <SCORE.INTER.SOLV>
7.13642

>  <SCORE.INTER.VDW>
-14.2815

>  <SCORE.INTER.norm>
-1.79116

>  <SCORE.INTRA>
0

>  <SCORE.INTRA.DIHEDRAL>
0

>  <SCORE.INTRA.DIHEDRAL.0>
0

>  <SCORE.INTRA.POLAR>
0

>  <SCORE.INTRA.POLAR.0>
0

>  <SCORE.INTRA.REPUL>
0

>  <SCORE.INTRA.REPUL.0>
0

>  <SCORE.INTRA.SOLV>
0

>  <SCORE.INTRA.SOLV.lig_0>
-12.9184

>  <SCORE.INTRA.VDW>
0

>  <SCORE.INTRA.VDW.0>
0

>  <SCORE.INTRA.norm>
0

>  <SCORE.RESTR>
0

>  <SCORE.RESTR.CAVITY>
0

>  <SCORE.RESTR.norm>
0

>  <SCORE.SYSTEM>
0

>  <SCORE.SYSTEM.CONST>
0

>  <SCORE.SYSTEM.DIHEDRAL>
0

>  <SCORE.SYSTEM.SOLV>
0

>  <SCORE.SYSTEM.norm>
0

>  <SCORE.heavy>
13

>  <SCORE.norm>
-1.79116

>  <RMSD>
1.981

$$$$
1o15_lig
 OpenBabel11021811403D
libRbt.so/2013.1/901 2013/11/27
 13 14  0  0  0  0  0  0  0  0999 V2000
    9.3464    0.0281   34.7985 C   0  0  0  0  0  0  0  0  0  0  0  0
    9.0418    1.2720   35.3058 N   0  0  0  0  0  0  0  0  0  0  0  0
    9.6797    1.6661   36.4392 C   0  0  0  0  0  0  0  0  0  0  0  0
   10.4768    0.8613   36.9145 O   0  0  0  0  0  0  0  0  0  0  0  0
   10.1465    3.2394   38.2155 C   0  0  0  0  0  0  0  0  0  0  0  0
    9.4871    2.8669   37.0636 N   0  0  0  0  0  0  0  0  0  0  0  0
    8.5782    3.6564   36.4298 C   0  0  0  0  0  0  0  0  0  0  0  0
    7.9461    3.2501   35.2906 C   0  0  0  0  0  0  0  0  0  0  0  0
    8.1360    2.0167   34.6400 C   0  0  0  0  0  0  0  0  0  0  0  0
    7.6025    1.5917   33.6184 O   0  0  0  0  0  0  0  0  0  0  0  0
    7.1036    4.2931   34.9335 N   0  0  0  0  0  0  0  0  0  0  0  0
    7.2831    5.2534   35.8743 C   0  0  0  0  0  0  0  0  0  0  0  0
    8.1512    4.9289   36.7941 N   0  0  0  0  0  0  0  0  0  0  0  0
  1  2  1  0  0  0  0
  2  3  1  0  0  0  0
  2  9  1  0  0  0  0
  3  4  2  0  0  0  0
  3  6  1  0  0  0  0
  6  5  1  0  0  0  0
  6  7  1  0  0  0  0
  7  8  2  0  0  0  0
  7 13  1  0  0  0  0
  8  9  1  0  0  0  0
  8 11  1  0  0  0  0
  9 10  2  0  0  0  0
 11 12  1  0  0  0  0
 12 13  2  0  0  0  0
M  END
>  <CHROM.1>
8.71060176,2.63880730,35.86226893,0.86432745,0.82157890,-2.50963364

>  <Name>
1o15_lig

>  <RI>
0

>  <Rbt.Current_Directory>
/home/itssahil/PROJECTS/Mol_Feturizer/New_Systems/rnas/1o15

>  <Rbt.Executable>
rbdock ($Id: //depot/dev/client3/rdock/2013.1/src/exe/rbdock.cxx#4 $)

>  <Rbt.Library>
libRbt.so (2013.1, Build901 2013/11/27)

>  <Rbt.Parameter_File>
/export/apps/rDock/src/rDock_2013.1_src/data/scripts/dock_solv.prm

>  <Rbt.Receptor>
prm/pocket_docking_4.prm

>  <SCORE>
-23.2739

>  <SCORE.INTER>
-23.2739

>  <SCORE.INTER.CONST>
1

>  <SCORE.INTER.POLAR>
-2.15118

>  <SCORE.INTER.ROT>
0

>  <SCORE.INTER.SOLV>
7.20098

>  <SCORE.INTER.VDW>
-14.3457

>  <SCORE.INTER.norm>
-1.7903

>  <SCORE.INTRA>
0

>  <SCORE.INTRA.DIHEDRAL>
0

>  <SCORE.INTRA.DIHEDRAL.0>
0

>  <SCORE.INTRA.POLAR>
0

>  <SCORE.INTRA.POLAR.0>
0

>  <SCORE.INTRA.REPUL>
0

>  <SCORE.INTRA.REPUL.0>
0

>  <SCORE.INTRA.SOLV>
0

>  <SCORE.INTRA.SOLV.lig_0>
-12.9184

>  <SCORE.INTRA.VDW>
0

>  <SCORE.INTRA.VDW.0>
0

>  <SCORE.INTRA.norm>
0

>  <SCORE.RESTR>
0

>  <SCORE.RESTR.CAVITY>
0

>  <SCORE.RESTR.norm>
0

>  <SCORE.SYSTEM>
0

>  <SCORE.SYSTEM.CONST>
0

>  <SCORE.SYSTEM.DIHEDRAL>
0

>  <SCORE.SYSTEM.SOLV>
0

>  <SCORE.SYSTEM.norm>
0

>  <SCORE.heavy>
13

>  <SCORE.norm>
-1.7903

>  <RMSD>
1.981

$$$$
1o15_lig
 OpenBabel11021811403D
libRbt.so/2013.1/901 2013/11/27
 13 14  0  0  0  0  0  0  0  0999 V2000
    9.3086   -0.0105   34.7811 C   0  0  0  0  0  0  0  0  0  0  0  0
    9.0357    1.2336   35.3057 N   0  0  0  0  0  0  0  0  0  0  0  0
    9.6900    1.5991   36.4394 C   0  0  0  0  0  0  0  0  0  0  0  0
   10.4717    0.7706   36.8993 O   0  0  0  0  0  0  0  0  0  0  0  0
   10.2043    3.1393   38.2315 C   0  0  0  0  0  0  0  0  0  0  0  0
    9.5290    2.7961   37.0797 N   0  0  0  0  0  0  0  0  0  0  0  0
    8.6340    3.6138   36.4619 C   0  0  0  0  0  0  0  0  0  0  0  0
    7.9852    3.2360   35.3223 C   0  0  0  0  0  0  0  0  0  0  0  0
    8.1427    2.0068   34.6554 C   0  0  0  0  0  0  0  0  0  0  0  0
    7.5929    1.6067   33.6324 O   0  0  0  0  0  0  0  0  0  0  0  0
    7.1643    4.3022   34.9839 N   0  0  0  0  0  0  0  0  0  0  0  0
    7.3719    5.2465   35.9351 C   0  0  0  0  0  0  0  0  0  0  0  0
    8.2385    4.8911   36.8448 N   0  0  0  0  0  0  0  0  0  0  0  0
  1  2  1  0  0  0  0
  2  3  1  0  0  0  0
  2  9  1  0  0  0  0
  3  4  2  0  0  0  0
  3  6  1  0  0  0  0
  6  5  1  0  0  0  0
  6  7  1  0  0  0  0
  7  8  2  0  0  0  0
  7 13  1  0  0  0  0
  8  9  1  0  0  0  0
  8 11  1  0  0  0  0
  9 10  2  0  0  0  0
 11 12  1  0  0  0  0
 12 13  2  0  0  0  0
M  END
>  <CHROM.1>
8.73943146,2.60056257,35.88114444,0.89736285,0.82936179,-2.52160067

>  <Name>
1o15_lig

>  <RI>
0

>  <Rbt.Current_Directory>
/home/itssahil/PROJECTS/Mol_Feturizer/New_Systems/rnas/1o15

>  <Rbt.Executable>
rbdock ($Id: //depot/dev/client3/rdock/2013.1/src/exe/rbdock.cxx#4 $)

>  <Rbt.Library>
libRbt.so (2013.1, Build901 2013/11/27)

>  <Rbt.Parameter_File>
/export/apps/rDock/src/rDock_2013.1_src/data/scripts/dock_solv.prm

>  <Rbt.Receptor>
prm/pocket_docking_4.prm

>  <SCORE>
-23.2534

>  <SCORE.INTER>
-23.2534

>  <SCORE.INTER.CONST>
1

>  <SCORE.INTER.POLAR>
-2.16932

>  <SCORE.INTER.ROT>
0

>  <SCORE.INTER.SOLV>
7.00932

>  <SCORE.INTER.VDW>
-14.2076

>  <SCORE.INTER.norm>
-1.78872

>  <SCORE.INTRA>
0

>  <SCORE.INTRA.DIHEDRAL>
0

>  <SCORE.INTRA.DIHEDRAL.0>
0

>  <SCORE.INTRA.POLAR>
0

>  <SCORE.INTRA.POLAR.0>
0

>  <SCORE.INTRA.REPUL>
0

>  <SCORE.INTRA.REPUL.0>
0

>  <SCORE.INTRA.SOLV>
0

>  <SCORE.INTRA.SOLV.lig_0>
-12.9184

>  <SCORE.INTRA.VDW>
0

>  <SCORE.INTRA.VDW.0>
0

>  <SCORE.INTRA.norm>
0

>  <SCORE.RESTR>
0

>  <SCORE.RESTR.CAVITY>
0

>  <SCORE.RESTR.norm>
0

>  <SCORE.SYSTEM>
0

>  <SCORE.SYSTEM.CONST>
0

>  <SCORE.SYSTEM.DIHEDRAL>
0

>  <SCORE.SYSTEM.SOLV>
0

>  <SCORE.SYSTEM.norm>
0

>  <SCORE.heavy>
13

>  <SCORE.norm>
-1.78872

>  <RMSD>
1.981

$$$$
1o15_lig
 OpenBabel11021811403D
libRbt.so/2013.1/901 2013/11/27
 13 14  0  0  0  0  0  0  0  0999 V2000
    9.3509    0.0078   34.7920 C   0  0  0  0  0  0  0  0  0  0  0  0
    9.0523    1.2542   35.2966 N   0  0  0  0  0  0  0  0  0  0  0  0
    9.7005    1.6522   36.4228 C   0  0  0  0  0  0  0  0  0  0  0  0
   10.5006    0.8484   36.8946 O   0  0  0  0  0  0  0  0  0  0  0  0
   10.1847    3.2324   38.1882 C   0  0  0  0  0  0  0  0  0  0  0  0
    9.5150    2.8559   37.0437 N   0  0  0  0  0  0  0  0  0  0  0  0
    8.6017    3.6440   36.4144 C   0  0  0  0  0  0  0  0  0  0  0  0
    7.9592    3.2337   35.2824 C   0  0  0  0  0  0  0  0  0  0  0  0
    8.1418    1.9973   34.6355 C   0  0  0  0  0  0  0  0  0  0  0  0
    7.5990    1.5687   33.6204 O   0  0  0  0  0  0  0  0  0  0  0  0
    7.1150    4.2763   34.9282 N   0  0  0  0  0  0  0  0  0  0  0  0
    7.3039    5.2403   35.8634 C   0  0  0  0  0  0  0  0  0  0  0  0
    8.1795    4.9186   36.7770 N   0  0  0  0  0  0  0  0  0  0  0  0
  1  2  1  0  0  0  0
  2  3  1  0  0  0  0
  2  9  1  0  0  0  0
  3  4  2  0  0  0  0
  3  6  1  0  0  0  0
  6  5  1  0  0  0  0
  6  7  1  0  0  0  0
  7  8  2  0  0  0  0
  7 13  1  0  0  0  0
  8  9  1  0  0  0  0
  8 11  1  0  0  0  0
  9 10  2  0  0  0  0
 11 12  1  0  0  0  0
 12 13  2  0  0  0  0
M  END
>  <CHROM.1>
8.72777899,2.62380880,35.85009938,0.87333977,0.81537681,-2.52045782

>  <Name>
1o15_lig

>  <RI>
0

>  <Rbt.Current_Directory>
/home/itssahil/PROJECTS/Mol_Feturizer/New_Systems/rnas/1o15

>  <Rbt.Executable>
rbdock ($Id: //depot/dev/client3/rdock/2013.1/src/exe/rbdock.cxx#4 $)

>  <Rbt.Library>
libRbt.so (2013.1, Build901 2013/11/27)

>  <Rbt.Parameter_File>
/export/apps/rDock/src/rDock_2013.1_src/data/scripts/dock_solv.prm

>  <Rbt.Receptor>
prm/pocket_docking_4.prm

>  <SCORE>
-23.3216

>  <SCORE.INTER>
-23.3216

>  <SCORE.INTER.CONST>
1

>  <SCORE.INTER.POLAR>
-2.14485

>  <SCORE.INTER.ROT>
0

>  <SCORE.INTER.SOLV>
7.1738

>  <SCORE.INTER.VDW>
-14.3895

>  <SCORE.INTER.norm>
-1.79397

>  <SCORE.INTRA>
0

>  <SCORE.INTRA.DIHEDRAL>
0

>  <SCORE.INTRA.DIHEDRAL.0>
0

>  <SCORE.INTRA.POLAR>
0

>  <SCORE.INTRA.POLAR.0>
0

>  <SCORE.INTRA.REPUL>
0

>  <SCORE.INTRA.REPUL.0>
0

>  <SCORE.INTRA.SOLV>
0

>  <SCORE.INTRA.SOLV.lig_0>
-12.9184

>  <SCORE.INTRA.VDW>
0

>  <SCORE.INTRA.VDW.0>
0

>  <SCORE.INTRA.norm>
0

>  <SCORE.RESTR>
0

>  <SCORE.RESTR.CAVITY>
0

>  <SCORE.RESTR.norm>
0

>  <SCORE.SYSTEM>
0

>  <SCORE.SYSTEM.CONST>
0

>  <SCORE.SYSTEM.DIHEDRAL>
0

>  <SCORE.SYSTEM.SOLV>
0

>  <SCORE.SYSTEM.norm>
0

>  <SCORE.heavy>
13

>  <SCORE.norm>
-1.79397

>  <RMSD>
1.982

$$$$
1o15_lig
 OpenBabel11021811403D
libRbt.so/2013.1/901 2013/11/27
 13 14  0  0  0  0  0  0  0  0999 V2000
    9.3317    0.0007   34.7991 C   0  0  0  0  0  0  0  0  0  0  0  0
    9.0383    1.2477   35.3053 N   0  0  0  0  0  0  0  0  0  0  0  0
    9.6797    1.6370   36.4383 C   0  0  0  0  0  0  0  0  0  0  0  0
   10.4694    0.8255   36.9145 O   0  0  0  0  0  0  0  0  0  0  0  0
   10.1606    3.2077   38.2132 C   0  0  0  0  0  0  0  0  0  0  0  0
    9.4980    2.8401   37.0616 N   0  0  0  0  0  0  0  0  0  0  0  0
    8.5964    3.6372   36.4270 C   0  0  0  0  0  0  0  0  0  0  0  0
    7.9606    3.2356   35.2881 C   0  0  0  0  0  0  0  0  0  0  0  0
    8.1394    2.0000   34.6387 C   0  0  0  0  0  0  0  0  0  0  0  0
    7.6022    1.5789   33.6174 O   0  0  0  0  0  0  0  0  0  0  0  0
    7.1277    4.2859   34.9300 N   0  0  0  0  0  0  0  0  0  0  0  0
    7.3159    5.2454   35.8700 C   0  0  0  0  0  0  0  0  0  0  0  0
    8.1809    4.9140   36.7902 N   0  0  0  0  0  0  0  0  0  0  0  0
  1  2  1  0  0  0  0
  2  3  1  0  0  0  0
  2  9  1  0  0  0  0
  3  4  2  0  0  0  0
  3  6  1  0  0  0  0
  6  5  1  0  0  0  0
  6  7  1  0  0  0  0
  7  8  2  0  0  0  0
  7 13  1  0  0  0  0
  8  9  1  0  0  0  0
  8 11  1  0  0  0  0
  9 10  2  0  0  0  0
 11 12  1  0  0  0  0
 12 13  2  0  0  0  0
M  END
>  <CHROM.1>
8.71953021,2.61798984,35.86044253,0.87508780,0.82698237,-2.51844066

>  <Name>
1o15_lig

>  <RI>
0

>  <Rbt.Current_Directory>
/home/itssahil/PROJECTS/Mol_Feturizer/New_Systems/rnas/1o15

>  <Rbt.Executable>
rbdock ($Id: //depot/dev/client3/rdock/2013.1/src/exe/rbdock.cxx#4 $)

>  <Rbt.Library>
libRbt.so (2013.1, Build901 2013/11/27)

>  <Rbt.Parameter_File>
/export/apps/rDock/src/rDock_2013.1_src/data/scripts/dock_solv.prm

>  <Rbt.Receptor>
prm/pocket_docking_4.prm

>  <SCORE>
-23.2704

>  <SCORE.INTER>
-23.2704

>  <SCORE.INTER.CONST>
1

>  <SCORE.INTER.POLAR>
-2.16678

>  <SCORE.INTER.ROT>
0

>  <SCORE.INTER.SOLV>
7.13726

>  <SCORE.INTER.VDW>
-14.2701

>  <SCORE.INTER.norm>
-1.79003

>  <SCORE.INTRA>
0

>  <SCORE.INTRA.DIHEDRAL>
0

>  <SCORE.INTRA.DIHEDRAL.0>
0

>  <SCORE.INTRA.POLAR>
0

>  <SCORE.INTRA.POLAR.0>
0

>  <SCORE.INTRA.REPUL>
0

>  <SCORE.INTRA.REPUL.0>
0

>  <SCORE.INTRA.SOLV>
0

>  <SCORE.INTRA.SOLV.lig_0>
-12.9184

>  <SCORE.INTRA.VDW>
0

>  <SCORE.INTRA.VDW.0>
0

>  <SCORE.INTRA.norm>
0

>  <SCORE.RESTR>
0

>  <SCORE.RESTR.CAVITY>
0

>  <SCORE.RESTR.norm>
0

>  <SCORE.SYSTEM>
0

>  <SCORE.SYSTEM.CONST>
0

>  <SCORE.SYSTEM.DIHEDRAL>
0

>  <SCORE.SYSTEM.SOLV>
0

>  <SCORE.SYSTEM.norm>
0

>  <SCORE.heavy>
13

>  <SCORE.norm>
-1.79003

>  <RMSD>
1.983

$$$$
1o15_lig
 OpenBabel11021811403D
libRbt.so/2013.1/901 2013/11/27
 13 14  0  0  0  0  0  0  0  0999 V2000
    9.3265    0.0066   34.7884 C   0  0  0  0  0  0  0  0  0  0  0  0
    9.0366    1.2493   35.3070 N   0  0  0  0  0  0  0  0  0  0  0  0
    9.6808    1.6266   36.4425 C   0  0  0  0  0  0  0  0  0  0  0  0
   10.4698    0.8091   36.9094 O   0  0  0  0  0  0  0  0  0  0  0  0
   10.1681    3.1795   38.2312 C   0  0  0  0  0  0  0  0  0  0  0  0
    9.5027    2.8241   37.0774 N   0  0  0  0  0  0  0  0  0  0  0  0
    8.6014    3.6290   36.4520 C   0  0  0  0  0  0  0  0  0  0  0  0
    7.9628    3.2394   35.3106 C   0  0  0  0  0  0  0  0  0  0  0  0
    8.1380    2.0097   34.6492 C   0  0  0  0  0  0  0  0  0  0  0  0
    7.5980    1.5993   33.6250 O   0  0  0  0  0  0  0  0  0  0  0  0
    7.1313    4.2947   34.9640 N   0  0  0  0  0  0  0  0  0  0  0  0
    7.3231    5.2449   35.9127 C   0  0  0  0  0  0  0  0  0  0  0  0
    8.1891    4.9030   36.8280 N   0  0  0  0  0  0  0  0  0  0  0  0
  1  2  1  0  0  0  0
  2  3  1  0  0  0  0
  2  9  1  0  0  0  0
  3  4  2  0  0  0  0
  3  6  1  0  0  0  0
  6  5  1  0  0  0  0
  6  7  1  0  0  0  0
  7  8  2  0  0  0  0
  7 13  1  0  0  0  0
  8  9  1  0  0  0  0
  8 11  1  0  0  0  0
  9 10  2  0  0  0  0
 11 12  1  0  0  0  0
 12 13  2  0  0  0  0
M  END
>  <CHROM.1>
8.72153403,2.61490939,35.87565234,0.87905153,0.82664098,-2.51190209

>  <Name>
1o15_lig

>  <RI>
0

>  <Rbt.Current_Directory>
/home/itssahil/PROJECTS/Mol_Feturizer/New_Systems/rnas/1o15

>  <Rbt.Executable>
rbdock ($Id: //depot/dev/client3/rdock/2013.1/src/exe/rbdock.cxx#4 $)

>  <Rbt.Library>
libRbt.so (2013.1, Build901 2013/11/27)

>  <Rbt.Parameter_File>
/export/apps/rDock/src/rDock_2013.1_src/data/scripts/dock_solv.prm

>  <Rbt.Receptor>
prm/pocket_docking_6.prm

>  <SCORE>
-23.2597

>  <SCORE.INTER>
-23.2597

>  <SCORE.INTER.CONST>
1

>  <SCORE.INTER.POLAR>
-2.16268

>  <SCORE.INTER.ROT>
0

>  <SCORE.INTER.SOLV>
7.11111

>  <SCORE.INTER.VDW>
-14.2679

>  <SCORE.INTER.norm>
-1.78921

>  <SCORE.INTRA>
0

>  <SCORE.INTRA.DIHEDRAL>
0

>  <SCORE.INTRA.DIHEDRAL.0>
0

>  <SCORE.INTRA.POLAR>
0

>  <SCORE.INTRA.POLAR.0>
0

>  <SCORE.INTRA.REPUL>
0

>  <SCORE.INTRA.REPUL.0>
0

>  <SCORE.INTRA.SOLV>
0

>  <SCORE.INTRA.SOLV.lig_0>
-12.9184

>  <SCORE.INTRA.VDW>
0

>  <SCORE.INTRA.VDW.0>
0

>  <SCORE.INTRA.norm>
0

>  <SCORE.RESTR>
0

>  <SCORE.RESTR.CAVITY>
0

>  <SCORE.RESTR.norm>
0

>  <SCORE.SYSTEM>
0

>  <SCORE.SYSTEM.CONST>
0

>  <SCORE.SYSTEM.DIHEDRAL>
0

>  <SCORE.SYSTEM.SOLV>
0

>  <SCORE.SYSTEM.norm>
0

>  <SCORE.heavy>
13

>  <SCORE.norm>
-1.78921

>  <RMSD>
1.983

$$$$
1o15_lig
 OpenBabel11021811403D
libRbt.so/2013.1/901 2013/11/27
 13 14  0  0  0  0  0  0  0  0999 V2000
    9.2956   -0.0145   34.8030 C   0  0  0  0  0  0  0  0  0  0  0  0
    9.0177    1.2316   35.3200 N   0  0  0  0  0  0  0  0  0  0  0  0
    9.6583    1.6003   36.4603 C   0  0  0  0  0  0  0  0  0  0  0  0
   10.4335    0.7727   36.9326 O   0  0  0  0  0  0  0  0  0  0  0  0
   10.1523    3.1461   38.2533 C   0  0  0  0  0  0  0  0  0  0  0  0
    9.4908    2.7997   37.0945 N   0  0  0  0  0  0  0  0  0  0  0  0
    8.6043    3.6161   36.4631 C   0  0  0  0  0  0  0  0  0  0  0  0
    7.9691    3.2351   35.3168 C   0  0  0  0  0  0  0  0  0  0  0  0
    8.1335    2.0035   34.6561 C   0  0  0  0  0  0  0  0  0  0  0  0
    7.5958    1.6004   33.6279 O   0  0  0  0  0  0  0  0  0  0  0  0
    7.1535    4.3009   34.9647 N   0  0  0  0  0  0  0  0  0  0  0  0
    7.3504    5.2482   35.9152 C   0  0  0  0  0  0  0  0  0  0  0  0
    8.2054    4.8951   36.8367 N   0  0  0  0  0  0  0  0  0  0  0  0
  1  2  1  0  0  0  0
  2  3  1  0  0  0  0
  2  9  1  0  0  0  0
  3  4  2  0  0  0  0
  3  6  1  0  0  0  0
  6  5  1  0  0  0  0
  6  7  1  0  0  0  0
  7  8  2  0  0  0  0
  7 13  1  0  0  0  0
  8  9  1  0  0  0  0
  8 11  1  0  0  0  0
  9 10  2  0  0  0  0
 11 12  1  0  0  0  0
 12 13  2  0  0  0  0
M  END
>  <CHROM.1>
8.71576402,2.60082133,35.88706073,0.88796676,0.83990523,-2.51806520

>  <Name>
1o15_lig

>  <RI>
0

>  <Rbt.Current_Directory>
/home/itssahil/PROJECTS/Mol_Feturizer/New_Systems/rnas/1o15

>  <Rbt.Executable>
rbdock ($Id: //depot/dev/client3/rdock/2013.1/src/exe/rbdock.cxx#4 $)

>  <Rbt.Library>
libRbt.so (2013.1, Build901 2013/11/27)

>  <Rbt.Parameter_File>
/export/apps/rDock/src/rDock_2013.1_src/data/scripts/dock_solv.prm

>  <Rbt.Receptor>
prm/pocket_docking_6.prm

>  <SCORE>
-23.2617

>  <SCORE.INTER>
-23.2617

>  <SCORE.INTER.CONST>
1

>  <SCORE.INTER.POLAR>
-2.18726

>  <SCORE.INTER.ROT>
0

>  <SCORE.INTER.SOLV>
7.04503

>  <SCORE.INTER.VDW>
-14.1653

>  <SCORE.INTER.norm>
-1.78936

>  <SCORE.INTRA>
0

>  <SCORE.INTRA.DIHEDRAL>
0

>  <SCORE.INTRA.DIHEDRAL.0>
0

>  <SCORE.INTRA.POLAR>
0

>  <SCORE.INTRA.POLAR.0>
0

>  <SCORE.INTRA.REPUL>
0

>  <SCORE.INTRA.REPUL.0>
0

>  <SCORE.INTRA.SOLV>
0

>  <SCORE.INTRA.SOLV.lig_0>
-12.9184

>  <SCORE.INTRA.VDW>
0

>  <SCORE.INTRA.VDW.0>
0

>  <SCORE.INTRA.norm>
0

>  <SCORE.RESTR>
0

>  <SCORE.RESTR.CAVITY>
0

>  <SCORE.RESTR.norm>
0

>  <SCORE.SYSTEM>
0

>  <SCORE.SYSTEM.CONST>
0

>  <SCORE.SYSTEM.DIHEDRAL>
0

>  <SCORE.SYSTEM.SOLV>
0

>  <SCORE.SYSTEM.norm>
0

>  <SCORE.heavy>
13

>  <SCORE.norm>
-1.78936

>  <RMSD>
1.983

$$$$
1o15_lig
 OpenBabel11021811403D
libRbt.so/2013.1/901 2013/11/27
 13 14  0  0  0  0  0  0  0  0999 V2000
    9.2954   -0.0171   34.8043 C   0  0  0  0  0  0  0  0  0  0  0  0
    9.0179    1.2296   35.3203 N   0  0  0  0  0  0  0  0  0  0  0  0
    9.6592    1.5992   36.4599 C   0  0  0  0  0  0  0  0  0  0  0  0
   10.4344    0.7719   36.9326 O   0  0  0  0  0  0  0  0  0  0  0  0
   10.1543    3.1467   38.2512 C   0  0  0  0  0  0  0  0  0  0  0  0
    9.4922    2.7992   37.0931 N   0  0  0  0  0  0  0  0  0  0  0  0
    8.6056    3.6152   36.4613 C   0  0  0  0  0  0  0  0  0  0  0  0
    7.9697    3.2333   35.3157 C   0  0  0  0  0  0  0  0  0  0  0  0
    8.1335    2.0010   34.6561 C   0  0  0  0  0  0  0  0  0  0  0  0
    7.5953    1.5970   33.6285 O   0  0  0  0  0  0  0  0  0  0  0  0
    7.1542    4.2989   34.9630 N   0  0  0  0  0  0  0  0  0  0  0  0
    7.3517    5.2471   35.9125 C   0  0  0  0  0  0  0  0  0  0  0  0
    8.2071    4.8947   36.8339 N   0  0  0  0  0  0  0  0  0  0  0  0
  1  2  1  0  0  0  0
  2  3  1  0  0  0  0
  2  9  1  0  0  0  0
  3  4  2  0  0  0  0
  3  6  1  0  0  0  0
  6  5  1  0  0  0  0
  6  7  1  0  0  0  0
  7  8  2  0  0  0  0
  7 13  1  0  0  0  0
  8  9  1  0  0  0  0
  8 11  1  0  0  0  0
  9 10  2  0  0  0  0
 11 12  1  0  0  0  0
 12 13  2  0  0  0  0
M  END
>  <CHROM.1>
8.71653801,2.59939485,35.88620861,0.88861136,0.83962400,-2.51948789

>  <Name>
1o15_lig

>  <RI>
0

>  <Rbt.Current_Directory>
/home/itssahil/PROJECTS/Mol_Feturizer/New_Systems/rnas/1o15

>  <Rbt.Executable>
rbdock ($Id: //depot/dev/client3/rdock/2013.1/src/exe/rbdock.cxx#4 $)

>  <Rbt.Library>
libRbt.so (2013.1, Build901 2013/11/27)

>  <Rbt.Parameter_File>
/export/apps/rDock/src/rDock_2013.1_src/data/scripts/dock_solv.prm

>  <Rbt.Receptor>
prm/pocket_docking_8.prm

>  <SCORE>
-23.2569

>  <SCORE.INTER>
-23.2569

>  <SCORE.INTER.CONST>
1

>  <SCORE.INTER.POLAR>
-2.18725

>  <SCORE.INTER.ROT>
0

>  <SCORE.INTER.SOLV>
7.04258

>  <SCORE.INTER.VDW>
-14.1613

>  <SCORE.INTER.norm>
-1.78899

>  <SCORE.INTRA>
0

>  <SCORE.INTRA.DIHEDRAL>
0

>  <SCORE.INTRA.DIHEDRAL.0>
0

>  <SCORE.INTRA.POLAR>
0

>  <SCORE.INTRA.POLAR.0>
0

>  <SCORE.INTRA.REPUL>
0

>  <SCORE.INTRA.REPUL.0>
0

>  <SCORE.INTRA.SOLV>
0

>  <SCORE.INTRA.SOLV.lig_0>
-12.9184

>  <SCORE.INTRA.VDW>
0

>  <SCORE.INTRA.VDW.0>
0

>  <SCORE.INTRA.norm>
0

>  <SCORE.RESTR>
0

>  <SCORE.RESTR.CAVITY>
0

>  <SCORE.RESTR.norm>
0

>  <SCORE.SYSTEM>
0

>  <SCORE.SYSTEM.CONST>
0

>  <SCORE.SYSTEM.DIHEDRAL>
0

>  <SCORE.SYSTEM.SOLV>
0

>  <SCORE.SYSTEM.norm>
0

>  <SCORE.heavy>
13

>  <SCORE.norm>
-1.78899

>  <RMSD>
1.983

$$$$
1o15_lig
 OpenBabel11021811403D
libRbt.so/2013.1/901 2013/11/27
 13 14  0  0  0  0  0  0  0  0999 V2000
    9.2209   -0.0449   34.8739 C   0  0  0  0  0  0  0  0  0  0  0  0
    8.9534    1.2129   35.3678 N   0  0  0  0  0  0  0  0  0  0  0  0
    9.5636    1.5806   36.5250 C   0  0  0  0  0  0  0  0  0  0  0  0
   10.3040    0.7418   37.0320 O   0  0  0  0  0  0  0  0  0  0  0  0
   10.0312    3.1359   38.3169 C   0  0  0  0  0  0  0  0  0  0  0  0
    9.4014    2.7906   37.1403 N   0  0  0  0  0  0  0  0  0  0  0  0
    8.5549    3.6188   36.4705 C   0  0  0  0  0  0  0  0  0  0  0  0
    7.9501    3.2385   35.3077 C   0  0  0  0  0  0  0  0  0  0  0  0
    8.1093    1.9961   34.6661 C   0  0  0  0  0  0  0  0  0  0  0  0
    7.5975    1.5930   33.6247 O   0  0  0  0  0  0  0  0  0  0  0  0
    7.1706    4.3177   34.9168 N   0  0  0  0  0  0  0  0  0  0  0  0
    7.3564    5.2714   35.8631 C   0  0  0  0  0  0  0  0  0  0  0  0
    8.1721    4.9104   36.8166 N   0  0  0  0  0  0  0  0  0  0  0  0
  1  2  1  0  0  0  0
  2  3  1  0  0  0  0
  2  9  1  0  0  0  0
  3  4  2  0  0  0  0
  3  6  1  0  0  0  0
  6  5  1  0  0  0  0
  6  7  1  0  0  0  0
  7  8  2  0  0  0  0
  7 13  1  0  0  0  0
  8  9  1  0  0  0  0
  8 11  1  0  0  0  0
  9 10  2  0  0  0  0
 11 12  1  0  0  0  0
 12 13  2  0  0  0  0
M  END
>  <CHROM.1>
8.66306891,2.59476803,35.90953629,0.88544410,0.88001905,-2.52729072

>  <Name>
1o15_lig

>  <RI>
0

>  <Rbt.Current_Directory>
/home/itssahil/PROJECTS/Mol_Feturizer/New_Systems/rnas/1o15

>  <Rbt.Executable>
rbdock ($Id: //depot/dev/client3/rdock/2013.1/src/exe/rbdock.cxx#4 $)

>  <Rbt.Library>
libRbt.so (2013.1, Build901 2013/11/27)

>  <Rbt.Parameter_File>
/export/apps/rDock/src/rDock_2013.1_src/data/scripts/dock_solv.prm

>  <Rbt.Receptor>
prm/blind_docking_40.prm

>  <SCORE>
-22.7459

>  <SCORE.INTER>
-23.1774

>  <SCORE.INTER.CONST>
1

>  <SCORE.INTER.POLAR>
-2.25741

>  <SCORE.INTER.ROT>
0

>  <SCORE.INTER.SOLV>
7.02602

>  <SCORE.INTER.VDW>
-13.8689

>  <SCORE.INTER.norm>
-1.78288

>  <SCORE.INTRA>
0

>  <SCORE.INTRA.DIHEDRAL>
0

>  <SCORE.INTRA.DIHEDRAL.0>
0

>  <SCORE.INTRA.POLAR>
0

>  <SCORE.INTRA.POLAR.0>
0

>  <SCORE.INTRA.REPUL>
0

>  <SCORE.INTRA.REPUL.0>
0

>  <SCORE.INTRA.SOLV>
0

>  <SCORE.INTRA.SOLV.lig_0>
-12.9184

>  <SCORE.INTRA.VDW>
0

>  <SCORE.INTRA.VDW.0>
0

>  <SCORE.INTRA.norm>
0

>  <SCORE.RESTR>
0.431513

>  <SCORE.RESTR.CAVITY>
0.431513

>  <SCORE.RESTR.norm>
0.0331933

>  <SCORE.SYSTEM>
0

>  <SCORE.SYSTEM.CONST>
0

>  <SCORE.SYSTEM.DIHEDRAL>
0

>  <SCORE.SYSTEM.SOLV>
0

>  <SCORE.SYSTEM.norm>
0

>  <SCORE.heavy>
13

>  <SCORE.norm>
-1.74968

>  <RMSD>
1.984

$$$$
1o15_lig
 OpenBabel11021811403D
libRbt.so/2013.1/901 2013/11/27
 13 14  0  0  0  0  0  0  0  0999 V2000
    9.2996   -0.0121   34.8020 C   0  0  0  0  0  0  0  0  0  0  0  0
    9.0189    1.2334   35.3189 N   0  0  0  0  0  0  0  0  0  0  0  0
    9.6583    1.6034   36.4596 C   0  0  0  0  0  0  0  0  0  0  0  0
   10.4349    0.7773   36.9322 O   0  0  0  0  0  0  0  0  0  0  0  0
   10.1482    3.1502   38.2528 C   0  0  0  0  0  0  0  0  0  0  0  0
    9.4880    2.8024   37.0937 N   0  0  0  0  0  0  0  0  0  0  0  0
    8.6002    3.6171   36.4618 C   0  0  0  0  0  0  0  0  0  0  0  0
    7.9664    3.2349   35.3152 C   0  0  0  0  0  0  0  0  0  0  0  0
    8.1335    2.0036   34.6546 C   0  0  0  0  0  0  0  0  0  0  0  0
    7.5972    1.5995   33.6260 O   0  0  0  0  0  0  0  0  0  0  0  0
    7.1489    4.2991   34.9628 N   0  0  0  0  0  0  0  0  0  0  0  0
    7.3434    5.2468   35.9134 C   0  0  0  0  0  0  0  0  0  0  0  0
    8.1986    4.8953   36.8352 N   0  0  0  0  0  0  0  0  0  0  0  0
  1  2  1  0  0  0  0
  2  3  1  0  0  0  0
  2  9  1  0  0  0  0
  3  4  2  0  0  0  0
  3  6  1  0  0  0  0
  6  5  1  0  0  0  0
  6  7  1  0  0  0  0
  7  8  2  0  0  0  0
  7 13  1  0  0  0  0
  8  9  1  0  0  0  0
  8 11  1  0  0  0  0
  9 10  2  0  0  0  0
 11 12  1  0  0  0  0
 12 13  2  0  0  0  0
M  END
>  <CHROM.1>
8.71400972,2.60206766,35.88583786,0.88508889,0.83915788,-2.51589872

>  <Name>
1o15_lig

>  <RI>
0

>  <Rbt.Current_Directory>
/home/itssahil/PROJECTS/Mol_Feturizer/New_Systems/rnas/1o15

>  <Rbt.Executable>
rbdock ($Id: //depot/dev/client3/rdock/2013.1/src/exe/rbdock.cxx#4 $)

>  <Rbt.Library>
libRbt.so (2013.1, Build901 2013/11/27)

>  <Rbt.Parameter_File>
/export/apps/rDock/src/rDock_2013.1_src/data/scripts/dock_solv.prm

>  <Rbt.Receptor>
prm/pocket_docking_8.prm

>  <SCORE>
-23.2622

>  <SCORE.INTER>
-23.2622

>  <SCORE.INTER.CONST>
1

>  <SCORE.INTER.POLAR>
-2.18572

>  <SCORE.INTER.ROT>
0

>  <SCORE.INTER.SOLV>
7.06045

>  <SCORE.INTER.VDW>
-14.1759

>  <SCORE.INTER.norm>
-1.7894

>  <SCORE.INTRA>
0

>  <SCORE.INTRA.DIHEDRAL>
0

>  <SCORE.INTRA.DIHEDRAL.0>
0

>  <SCORE.INTRA.POLAR>
0

>  <SCORE.INTRA.POLAR.0>
0

>  <SCORE.INTRA.REPUL>
0

>  <SCORE.INTRA.REPUL.0>
0

>  <SCORE.INTRA.SOLV>
0

>  <SCORE.INTRA.SOLV.lig_0>
-12.9184

>  <SCORE.INTRA.VDW>
0

>  <SCORE.INTRA.VDW.0>
0

>  <SCORE.INTRA.norm>
0

>  <SCORE.RESTR>
0

>  <SCORE.RESTR.CAVITY>
0

>  <SCORE.RESTR.norm>
0

>  <SCORE.SYSTEM>
0

>  <SCORE.SYSTEM.CONST>
0

>  <SCORE.SYSTEM.DIHEDRAL>
0

>  <SCORE.SYSTEM.SOLV>
0

>  <SCORE.SYSTEM.norm>
0

>  <SCORE.heavy>
13

>  <SCORE.norm>
-1.7894

>  <RMSD>
1.984

$$$$
1o15_lig
 OpenBabel11021811403D
libRbt.so/2013.1/901 2013/11/27
 13 14  0  0  0  0  0  0  0  0999 V2000
    9.2772   -0.0284   34.8088 C   0  0  0  0  0  0  0  0  0  0  0  0
    9.0057    1.2185   35.3273 N   0  0  0  0  0  0  0  0  0  0  0  0
    9.6431    1.5798   36.4718 C   0  0  0  0  0  0  0  0  0  0  0  0
   10.4097    0.7454   36.9461 O   0  0  0  0  0  0  0  0  0  0  0  0
   10.1390    3.1178   38.2710 C   0  0  0  0  0  0  0  0  0  0  0  0
    9.4810    2.7789   37.1080 N   0  0  0  0  0  0  0  0  0  0  0  0
    8.6038    3.6033   36.4738 C   0  0  0  0  0  0  0  0  0  0  0  0
    7.9719    3.2296   35.3234 C   0  0  0  0  0  0  0  0  0  0  0  0
    8.1307    1.9984   34.6606 C   0  0  0  0  0  0  0  0  0  0  0  0
    7.5954    1.6017   33.6286 O   0  0  0  0  0  0  0  0  0  0  0  0
    7.1660    4.3022   34.9696 N   0  0  0  0  0  0  0  0  0  0  0  0
    7.3648    5.2458   35.9234 C   0  0  0  0  0  0  0  0  0  0  0  0
    8.2124    4.8843   36.8484 N   0  0  0  0  0  0  0  0  0  0  0  0
  1  2  1  0  0  0  0
  2  3  1  0  0  0  0
  2  9  1  0  0  0  0
  3  4  2  0  0  0  0
  3  6  1  0  0  0  0
  6  5  1  0  0  0  0
  6  7  1  0  0  0  0
  7  8  2  0  0  0  0
  7 13  1  0  0  0  0
  8  9  1  0  0  0  0
  8 11  1  0  0  0  0
  9 10  2  0  0  0  0
 11 12  1  0  0  0  0
 12 13  2  0  0  0  0
M  END
>  <CHROM.1>
8.71087104,2.58856179,35.89601605,0.89233058,0.84841354,-2.51896119

>  <Name>
1o15_lig

>  <RI>
0

>  <Rbt.Current_Directory>
/home/itssahil/PROJECTS/Mol_Feturizer/New_Systems/rnas/1o15

>  <Rbt.Executable>
rbdock ($Id: //depot/dev/client3/rdock/2013.1/src/exe/rbdock.cxx#4 $)

>  <Rbt.Library>
libRbt.so (2013.1, Build901 2013/11/27)

>  <Rbt.Parameter_File>
/export/apps/rDock/src/rDock_2013.1_src/data/scripts/dock_solv.prm

>  <Rbt.Receptor>
prm/pocket_docking_4.prm

>  <SCORE>
-23.2084

>  <SCORE.INTER>
-23.2084

>  <SCORE.INTER.CONST>
1

>  <SCORE.INTER.POLAR>
-2.20223

>  <SCORE.INTER.ROT>
0

>  <SCORE.INTER.SOLV>
7.01046

>  <SCORE.INTER.VDW>
-14.0684

>  <SCORE.INTER.norm>
-1.78526

>  <SCORE.INTRA>
0

>  <SCORE.INTRA.DIHEDRAL>
0

>  <SCORE.INTRA.DIHEDRAL.0>
0

>  <SCORE.INTRA.POLAR>
0

>  <SCORE.INTRA.POLAR.0>
0

>  <SCORE.INTRA.REPUL>
0

>  <SCORE.INTRA.REPUL.0>
0

>  <SCORE.INTRA.SOLV>
0

>  <SCORE.INTRA.SOLV.lig_0>
-12.9184

>  <SCORE.INTRA.VDW>
0

>  <SCORE.INTRA.VDW.0>
0

>  <SCORE.INTRA.norm>
0

>  <SCORE.RESTR>
0

>  <SCORE.RESTR.CAVITY>
0

>  <SCORE.RESTR.norm>
0

>  <SCORE.SYSTEM>
0

>  <SCORE.SYSTEM.CONST>
0

>  <SCORE.SYSTEM.DIHEDRAL>
0

>  <SCORE.SYSTEM.SOLV>
0

>  <SCORE.SYSTEM.norm>
0

>  <SCORE.heavy>
13

>  <SCORE.norm>
-1.78526

>  <RMSD>
1.985

$$$$
1o15_lig
 OpenBabel11021811403D
libRbt.so/2013.1/901 2013/11/27
 13 14  0  0  0  0  0  0  0  0999 V2000
    9.3534    0.0187   34.7799 C   0  0  0  0  0  0  0  0  0  0  0  0
    9.0535    1.2628   35.2894 N   0  0  0  0  0  0  0  0  0  0  0  0
    9.7016    1.6574   36.4168 C   0  0  0  0  0  0  0  0  0  0  0  0
   10.5028    0.8528   36.8853 O   0  0  0  0  0  0  0  0  0  0  0  0
   10.1845    3.2316   38.1880 C   0  0  0  0  0  0  0  0  0  0  0  0
    9.5148    2.8585   37.0423 N   0  0  0  0  0  0  0  0  0  0  0  0
    8.6003    3.6478   36.4163 C   0  0  0  0  0  0  0  0  0  0  0  0
    7.9578    3.2410   35.2831 C   0  0  0  0  0  0  0  0  0  0  0  0
    8.1418    2.0073   34.6314 C   0  0  0  0  0  0  0  0  0  0  0  0
    7.5991    1.5818   33.6149 O   0  0  0  0  0  0  0  0  0  0  0  0
    7.1123    4.2839   34.9331 N   0  0  0  0  0  0  0  0  0  0  0  0
    7.3003    5.2446   35.8718 C   0  0  0  0  0  0  0  0  0  0  0  0
    8.1766    4.9206   36.7839 N   0  0  0  0  0  0  0  0  0  0  0  0
  1  2  1  0  0  0  0
  2  3  1  0  0  0  0
  2  9  1  0  0  0  0
  3  4  2  0  0  0  0
  3  6  1  0  0  0  0
  6  5  1  0  0  0  0
  6  7  1  0  0  0  0
  7  8  2  0  0  0  0
  7 13  1  0  0  0  0
  8  9  1  0  0  0  0
  8 11  1  0  0  0  0
  9 10  2  0  0  0  0
 11 12  1  0  0  0  0
 12 13  2  0  0  0  0
M  END
>  <CHROM.1>
8.72742834,2.62994774,35.84815162,0.87218426,0.81434375,-2.51584988

>  <Name>
1o15_lig

>  <RI>
0

>  <Rbt.Current_Directory>
/home/itssahil/PROJECTS/Mol_Feturizer/New_Systems/rnas/1o15

>  <Rbt.Executable>
rbdock ($Id: //depot/dev/client3/rdock/2013.1/src/exe/rbdock.cxx#4 $)

>  <Rbt.Library>
libRbt.so (2013.1, Build901 2013/11/27)

>  <Rbt.Parameter_File>
/export/apps/rDock/src/rDock_2013.1_src/data/scripts/dock_solv.prm

>  <Rbt.Receptor>
prm/pocket_docking_4.prm

>  <SCORE>
-23.3309

>  <SCORE.INTER>
-23.3309

>  <SCORE.INTER.CONST>
1

>  <SCORE.INTER.POLAR>
-2.1415

>  <SCORE.INTER.ROT>
0

>  <SCORE.INTER.SOLV>
7.18569

>  <SCORE.INTER.VDW>
-14.4108

>  <SCORE.INTER.norm>
-1.79468

>  <SCORE.INTRA>
0

>  <SCORE.INTRA.DIHEDRAL>
0

>  <SCORE.INTRA.DIHEDRAL.0>
0

>  <SCORE.INTRA.POLAR>
0

>  <SCORE.INTRA.POLAR.0>
0

>  <SCORE.INTRA.REPUL>
0

>  <SCORE.INTRA.REPUL.0>
0

>  <SCORE.INTRA.SOLV>
0

>  <SCORE.INTRA.SOLV.lig_0>
-12.9184

>  <SCORE.INTRA.VDW>
0

>  <SCORE.INTRA.VDW.0>
0

>  <SCORE.INTRA.norm>
0

>  <SCORE.RESTR>
0

>  <SCORE.RESTR.CAVITY>
0

>  <SCORE.RESTR.norm>
0

>  <SCORE.SYSTEM>
0

>  <SCORE.SYSTEM.CONST>
0

>  <SCORE.SYSTEM.DIHEDRAL>
0

>  <SCORE.SYSTEM.SOLV>
0

>  <SCORE.SYSTEM.norm>
0

>  <SCORE.heavy>
13

>  <SCORE.norm>
-1.79468

>  <RMSD>
1.985

$$$$
1o15_lig
 OpenBabel11021811403D
libRbt.so/2013.1/901 2013/11/27
 13 14  0  0  0  0  0  0  0  0999 V2000
    9.3461    0.0066   34.7881 C   0  0  0  0  0  0  0  0  0  0  0  0
    9.0489    1.2521   35.2959 N   0  0  0  0  0  0  0  0  0  0  0  0
    9.6922    1.6436   36.4271 C   0  0  0  0  0  0  0  0  0  0  0  0
   10.4871    0.8353   36.9002 O   0  0  0  0  0  0  0  0  0  0  0  0
   10.1721    3.2154   38.2013 C   0  0  0  0  0  0  0  0  0  0  0  0
    9.5073    2.8455   37.0516 N   0  0  0  0  0  0  0  0  0  0  0  0
    8.6001    3.6390   36.4204 C   0  0  0  0  0  0  0  0  0  0  0  0
    7.9624    3.2352   35.2834 C   0  0  0  0  0  0  0  0  0  0  0  0
    8.1445    2.0008   34.6327 C   0  0  0  0  0  0  0  0  0  0  0  0
    7.6057    1.5779   33.6130 O   0  0  0  0  0  0  0  0  0  0  0  0
    7.1237    4.2820   34.9287 N   0  0  0  0  0  0  0  0  0  0  0  0
    7.3107    5.2418   35.8686 C   0  0  0  0  0  0  0  0  0  0  0  0
    8.1802    4.9137   36.7857 N   0  0  0  0  0  0  0  0  0  0  0  0
  1  2  1  0  0  0  0
  2  3  1  0  0  0  0
  2  9  1  0  0  0  0
  3  4  2  0  0  0  0
  3  6  1  0  0  0  0
  6  5  1  0  0  0  0
  6  7  1  0  0  0  0
  7  8  2  0  0  0  0
  7 13  1  0  0  0  0
  8  9  1  0  0  0  0
  8 11  1  0  0  0  0
  9 10  2  0  0  0  0
 11 12  1  0  0  0  0
 12 13  2  0  0  0  0
M  END
>  <CHROM.1>
8.72587584,2.62062655,35.85291861,0.87265275,0.82172737,-2.51609988

>  <Name>
1o15_lig

>  <RI>
0

>  <Rbt.Current_Directory>
/home/itssahil/PROJECTS/Mol_Feturizer/New_Systems/rnas/1o15

>  <Rbt.Executable>
rbdock ($Id: //depot/dev/client3/rdock/2013.1/src/exe/rbdock.cxx#4 $)

>  <Rbt.Library>
libRbt.so (2013.1, Build901 2013/11/27)

>  <Rbt.Parameter_File>
/export/apps/rDock/src/rDock_2013.1_src/data/scripts/dock_solv.prm

>  <Rbt.Receptor>
prm/pocket_docking_6.prm

>  <SCORE>
-23.2371

>  <SCORE.INTER>
-23.2371

>  <SCORE.INTER.CONST>
1

>  <SCORE.INTER.POLAR>
-2.15795

>  <SCORE.INTER.ROT>
0

>  <SCORE.INTER.SOLV>
7.15594

>  <SCORE.INTER.VDW>
-14.2835

>  <SCORE.INTER.norm>
-1.78747

>  <SCORE.INTRA>
0

>  <SCORE.INTRA.DIHEDRAL>
0

>  <SCORE.INTRA.DIHEDRAL.0>
0

>  <SCORE.INTRA.POLAR>
0

>  <SCORE.INTRA.POLAR.0>
0

>  <SCORE.INTRA.REPUL>
0

>  <SCORE.INTRA.REPUL.0>
0

>  <SCORE.INTRA.SOLV>
0

>  <SCORE.INTRA.SOLV.lig_0>
-12.9184

>  <SCORE.INTRA.VDW>
0

>  <SCORE.INTRA.VDW.0>
0

>  <SCORE.INTRA.norm>
0

>  <SCORE.RESTR>
0

>  <SCORE.RESTR.CAVITY>
0

>  <SCORE.RESTR.norm>
0

>  <SCORE.SYSTEM>
0

>  <SCORE.SYSTEM.CONST>
0

>  <SCORE.SYSTEM.DIHEDRAL>
0

>  <SCORE.SYSTEM.SOLV>
0

>  <SCORE.SYSTEM.norm>
0

>  <SCORE.heavy>
13

>  <SCORE.norm>
-1.78747

>  <RMSD>
1.985

$$$$
1o15_lig
 OpenBabel11021811403D
libRbt.so/2013.1/901 2013/11/27
 13 14  0  0  0  0  0  0  0  0999 V2000
    9.3532    0.0163   34.7963 C   0  0  0  0  0  0  0  0  0  0  0  0
    9.0437    1.2593   35.3028 N   0  0  0  0  0  0  0  0  0  0  0  0
    9.6799    1.6567   36.4359 C   0  0  0  0  0  0  0  0  0  0  0  0
   10.4801    0.8555   36.9118 O   0  0  0  0  0  0  0  0  0  0  0  0
   10.1403    3.2332   38.2110 C   0  0  0  0  0  0  0  0  0  0  0  0
    9.4826    2.8572   37.0594 N   0  0  0  0  0  0  0  0  0  0  0  0
    8.5706    3.6426   36.4249 C   0  0  0  0  0  0  0  0  0  0  0  0
    7.9401    3.2330   35.2860 C   0  0  0  0  0  0  0  0  0  0  0  0
    8.1350    1.9999   34.6363 C   0  0  0  0  0  0  0  0  0  0  0  0
    7.6032    1.5720   33.6150 O   0  0  0  0  0  0  0  0  0  0  0  0
    7.0935    4.2724   34.9281 N   0  0  0  0  0  0  0  0  0  0  0  0
    7.2692    5.2341   35.8683 C   0  0  0  0  0  0  0  0  0  0  0  0
    8.1384    4.9138   36.7883 N   0  0  0  0  0  0  0  0  0  0  0  0
  1  2  1  0  0  0  0
  2  3  1  0  0  0  0
  2  9  1  0  0  0  0
  3  4  2  0  0  0  0
  3  6  1  0  0  0  0
  6  5  1  0  0  0  0
  6  7  1  0  0  0  0
  7  8  2  0  0  0  0
  7 13  1  0  0  0  0
  8  9  1  0  0  0  0
  8 11  1  0  0  0  0
  9 10  2  0  0  0  0
 11 12  1  0  0  0  0
 12 13  2  0  0  0  0
M  END
>  <CHROM.1>
8.70699712,2.62518316,35.85818914,0.85958398,0.81928215,-2.50689138

>  <Name>
1o15_lig

>  <RI>
0

>  <Rbt.Current_Directory>
/home/itssahil/PROJECTS/Mol_Feturizer/New_Systems/rnas/1o15

>  <Rbt.Executable>
rbdock ($Id: //depot/dev/client3/rdock/2013.1/src/exe/rbdock.cxx#4 $)

>  <Rbt.Library>
libRbt.so (2013.1, Build901 2013/11/27)

>  <Rbt.Parameter_File>
/export/apps/rDock/src/rDock_2013.1_src/data/scripts/dock_solv.prm

>  <Rbt.Receptor>
prm/pocket_docking_5.prm

>  <SCORE>
-23.2722

>  <SCORE.INTER>
-23.2722

>  <SCORE.INTER.CONST>
1

>  <SCORE.INTER.POLAR>
-2.14658

>  <SCORE.INTER.ROT>
0

>  <SCORE.INTER.SOLV>
7.24225

>  <SCORE.INTER.VDW>
-14.3736

>  <SCORE.INTER.norm>
-1.79017

>  <SCORE.INTRA>
0

>  <SCORE.INTRA.DIHEDRAL>
0

>  <SCORE.INTRA.DIHEDRAL.0>
0

>  <SCORE.INTRA.POLAR>
0

>  <SCORE.INTRA.POLAR.0>
0

>  <SCORE.INTRA.REPUL>
0

>  <SCORE.INTRA.REPUL.0>
0

>  <SCORE.INTRA.SOLV>
0

>  <SCORE.INTRA.SOLV.lig_0>
-12.9184

>  <SCORE.INTRA.VDW>
0

>  <SCORE.INTRA.VDW.0>
0

>  <SCORE.INTRA.norm>
0

>  <SCORE.RESTR>
0

>  <SCORE.RESTR.CAVITY>
0

>  <SCORE.RESTR.norm>
0

>  <SCORE.SYSTEM>
0

>  <SCORE.SYSTEM.CONST>
0

>  <SCORE.SYSTEM.DIHEDRAL>
0

>  <SCORE.SYSTEM.SOLV>
0

>  <SCORE.SYSTEM.norm>
0

>  <SCORE.heavy>
13

>  <SCORE.norm>
-1.79017

>  <RMSD>
1.987

$$$$
1o15_lig
 OpenBabel11021811403D
libRbt.so/2013.1/901 2013/11/27
 13 14  0  0  0  0  0  0  0  0999 V2000
    9.3482    0.0089   34.7959 C   0  0  0  0  0  0  0  0  0  0  0  0
    9.0433    1.2536   35.3011 N   0  0  0  0  0  0  0  0  0  0  0  0
    9.6799    1.6491   36.4347 C   0  0  0  0  0  0  0  0  0  0  0  0
   10.4761    0.8448   36.9122 O   0  0  0  0  0  0  0  0  0  0  0  0
   10.1449    3.2248   38.2094 C   0  0  0  0  0  0  0  0  0  0  0  0
    9.4869    2.8508   37.0572 N   0  0  0  0  0  0  0  0  0  0  0  0
    8.5790    3.6396   36.4211 C   0  0  0  0  0  0  0  0  0  0  0  0
    7.9481    3.2319   35.2817 C   0  0  0  0  0  0  0  0  0  0  0  0
    8.1386    1.9976   34.6331 C   0  0  0  0  0  0  0  0  0  0  0  0
    7.6062    1.5713   33.6114 O   0  0  0  0  0  0  0  0  0  0  0  0
    7.1064    4.2746   34.9221 N   0  0  0  0  0  0  0  0  0  0  0  0
    7.2850    5.2362   35.8619 C   0  0  0  0  0  0  0  0  0  0  0  0
    8.1518    4.9128   36.7832 N   0  0  0  0  0  0  0  0  0  0  0  0
  1  2  1  0  0  0  0
  2  3  1  0  0  0  0
  2  9  1  0  0  0  0
  3  4  2  0  0  0  0
  3  6  1  0  0  0  0
  6  5  1  0  0  0  0
  6  7  1  0  0  0  0
  7  8  2  0  0  0  0
  7 13  1  0  0  0  0
  8  9  1  0  0  0  0
  8 11  1  0  0  0  0
  9 10  2  0  0  0  0
 11 12  1  0  0  0  0
 12 13  2  0  0  0  0
M  END
>  <CHROM.1>
8.71177240,2.62124244,35.85522426,0.86355542,0.82274301,-2.51046246

>  <Name>
1o15_lig

>  <RI>
0

>  <Rbt.Current_Directory>
/home/itssahil/PROJECTS/Mol_Feturizer/New_Systems/rnas/1o15

>  <Rbt.Executable>
rbdock ($Id: //depot/dev/client3/rdock/2013.1/src/exe/rbdock.cxx#4 $)

>  <Rbt.Library>
libRbt.so (2013.1, Build901 2013/11/27)

>  <Rbt.Parameter_File>
/export/apps/rDock/src/rDock_2013.1_src/data/scripts/dock_solv.prm

>  <Rbt.Receptor>
prm/pocket_docking_5.prm

>  <SCORE>
-23.2556

>  <SCORE.INTER>
-23.2556

>  <SCORE.INTER.CONST>
1

>  <SCORE.INTER.POLAR>
-2.15593

>  <SCORE.INTER.ROT>
0

>  <SCORE.INTER.SOLV>
7.21038

>  <SCORE.INTER.VDW>
-14.3207

>  <SCORE.INTER.norm>
-1.78889

>  <SCORE.INTRA>
0

>  <SCORE.INTRA.DIHEDRAL>
0

>  <SCORE.INTRA.DIHEDRAL.0>
0

>  <SCORE.INTRA.POLAR>
0

>  <SCORE.INTRA.POLAR.0>
0

>  <SCORE.INTRA.REPUL>
0

>  <SCORE.INTRA.REPUL.0>
0

>  <SCORE.INTRA.SOLV>
0

>  <SCORE.INTRA.SOLV.lig_0>
-12.9184

>  <SCORE.INTRA.VDW>
0

>  <SCORE.INTRA.VDW.0>
0

>  <SCORE.INTRA.norm>
0

>  <SCORE.RESTR>
0

>  <SCORE.RESTR.CAVITY>
0

>  <SCORE.RESTR.norm>
0

>  <SCORE.SYSTEM>
0

>  <SCORE.SYSTEM.CONST>
0

>  <SCORE.SYSTEM.DIHEDRAL>
0

>  <SCORE.SYSTEM.SOLV>
0

>  <SCORE.SYSTEM.norm>
0

>  <SCORE.heavy>
13

>  <SCORE.norm>
-1.78889

>  <RMSD>
1.988

$$$$
1o15_lig
 OpenBabel11021811403D
libRbt.so/2013.1/901 2013/11/27
 13 14  0  0  0  0  0  0  0  0999 V2000
    9.3465    0.0185   34.7934 C   0  0  0  0  0  0  0  0  0  0  0  0
    9.0396    1.2634   35.2968 N   0  0  0  0  0  0  0  0  0  0  0  0
    9.6749    1.6612   36.4303 C   0  0  0  0  0  0  0  0  0  0  0  0
   10.4720    0.8586   36.9093 O   0  0  0  0  0  0  0  0  0  0  0  0
   10.1367    3.2399   38.2032 C   0  0  0  0  0  0  0  0  0  0  0  0
    9.4800    2.8635   37.0510 N   0  0  0  0  0  0  0  0  0  0  0  0
    8.5714    3.6503   36.4133 C   0  0  0  0  0  0  0  0  0  0  0  0
    7.9419    3.2402   35.2741 C   0  0  0  0  0  0  0  0  0  0  0  0
    8.1344    2.0053   34.6272 C   0  0  0  0  0  0  0  0  0  0  0  0
    7.6032    1.5770   33.6058 O   0  0  0  0  0  0  0  0  0  0  0  0
    7.0990    4.2814   34.9125 N   0  0  0  0  0  0  0  0  0  0  0  0
    7.2757    5.2444   35.8511 C   0  0  0  0  0  0  0  0  0  0  0  0
    8.1424    4.9234   36.7734 N   0  0  0  0  0  0  0  0  0  0  0  0
  1  2  1  0  0  0  0
  2  3  1  0  0  0  0
  2  9  1  0  0  0  0
  3  4  2  0  0  0  0
  3  6  1  0  0  0  0
  6  5  1  0  0  0  0
  6  7  1  0  0  0  0
  7  8  2  0  0  0  0
  7 13  1  0  0  0  0
  8  9  1  0  0  0  0
  8 11  1  0  0  0  0
  9 10  2  0  0  0  0
 11 12  1  0  0  0  0
 12 13  2  0  0  0  0
M  END
>  <CHROM.1>
8.70594673,2.63135533,35.84886840,0.86143299,0.82249159,-2.51023106

>  <Name>
1o15_lig

>  <RI>
0

>  <Rbt.Current_Directory>
/home/itssahil/PROJECTS/Mol_Feturizer/New_Systems/rnas/1o15

>  <Rbt.Executable>
rbdock ($Id: //depot/dev/client3/rdock/2013.1/src/exe/rbdock.cxx#4 $)

>  <Rbt.Library>
libRbt.so (2013.1, Build901 2013/11/27)

>  <Rbt.Parameter_File>
/export/apps/rDock/src/rDock_2013.1_src/data/scripts/dock_solv.prm

>  <Rbt.Receptor>
prm/blind_docking_60.prm

>  <SCORE>
-22.2831

>  <SCORE.INTER>
-23.2166

>  <SCORE.INTER.CONST>
1

>  <SCORE.INTER.POLAR>
-2.15304

>  <SCORE.INTER.ROT>
0

>  <SCORE.INTER.SOLV>
7.23964

>  <SCORE.INTER.VDW>
-14.3142

>  <SCORE.INTER.norm>
-1.78589

>  <SCORE.INTRA>
0

>  <SCORE.INTRA.DIHEDRAL>
0

>  <SCORE.INTRA.DIHEDRAL.0>
0

>  <SCORE.INTRA.POLAR>
0

>  <SCORE.INTRA.POLAR.0>
0

>  <SCORE.INTRA.REPUL>
0

>  <SCORE.INTRA.REPUL.0>
0

>  <SCORE.INTRA.SOLV>
0

>  <SCORE.INTRA.SOLV.lig_0>
-12.9184

>  <SCORE.INTRA.VDW>
0

>  <SCORE.INTRA.VDW.0>
0

>  <SCORE.INTRA.norm>
0

>  <SCORE.RESTR>
0.933556

>  <SCORE.RESTR.CAVITY>
0.933556

>  <SCORE.RESTR.norm>
0.071812

>  <SCORE.SYSTEM>
0

>  <SCORE.SYSTEM.CONST>
0

>  <SCORE.SYSTEM.DIHEDRAL>
0

>  <SCORE.SYSTEM.SOLV>
0

>  <SCORE.SYSTEM.norm>
0

>  <SCORE.heavy>
13

>  <SCORE.norm>
-1.71408

>  <RMSD>
1.990

$$$$
1o15_lig
 OpenBabel11021811403D
libRbt.so/2013.1/901 2013/11/27
 13 14  0  0  0  0  0  0  0  0999 V2000
    9.3104   -0.0207   34.7857 C   0  0  0  0  0  0  0  0  0  0  0  0
    9.0304    1.2244   35.3041 N   0  0  0  0  0  0  0  0  0  0  0  0
    9.6762    1.5960   36.4406 C   0  0  0  0  0  0  0  0  0  0  0  0
   10.4574    0.7716   36.9085 O   0  0  0  0  0  0  0  0  0  0  0  0
   10.1742    3.1442   38.2304 C   0  0  0  0  0  0  0  0  0  0  0  0
    9.5074    2.7948   37.0755 N   0  0  0  0  0  0  0  0  0  0  0  0
    8.6140    3.6075   36.4491 C   0  0  0  0  0  0  0  0  0  0  0  0
    7.9736    3.2236   35.3067 C   0  0  0  0  0  0  0  0  0  0  0  0
    8.1392    1.9925   34.6452 C   0  0  0  0  0  0  0  0  0  0  0  0
    7.5972    1.5870   33.6202 O   0  0  0  0  0  0  0  0  0  0  0  0
    7.1517    4.2860   34.9591 N   0  0  0  0  0  0  0  0  0  0  0  0
    7.3503    5.2343   35.9083 C   0  0  0  0  0  0  0  0  0  0  0  0
    8.2121    4.8849   36.8248 N   0  0  0  0  0  0  0  0  0  0  0  0
  1  2  1  0  0  0  0
  2  3  1  0  0  0  0
  2  9  1  0  0  0  0
  3  4  2  0  0  0  0
  3  6  1  0  0  0  0
  6  5  1  0  0  0  0
  6  7  1  0  0  0  0
  7  8  2  0  0  0  0
  7 13  1  0  0  0  0
  8  9  1  0  0  0  0
  8 11  1  0  0  0  0
  9 10  2  0  0  0  0
 11 12  1  0  0  0  0
 12 13  2  0  0  0  0
M  END
>  <CHROM.1>
8.72618900,2.59251695,35.87264025,0.88809745,0.83279564,-2.51836331

>  <Name>
1o15_lig

>  <RI>
0

>  <Rbt.Current_Directory>
/home/itssahil/PROJECTS/Mol_Feturizer/New_Systems/rnas/1o15

>  <Rbt.Executable>
rbdock ($Id: //depot/dev/client3/rdock/2013.1/src/exe/rbdock.cxx#4 $)

>  <Rbt.Library>
libRbt.so (2013.1, Build901 2013/11/27)

>  <Rbt.Parameter_File>
/export/apps/rDock/src/rDock_2013.1_src/data/scripts/dock_solv.prm

>  <Rbt.Receptor>
prm/pocket_docking_8.prm

>  <SCORE>
-23.2363

>  <SCORE.INTER>
-23.2363

>  <SCORE.INTER.CONST>
1

>  <SCORE.INTER.POLAR>
-2.17788

>  <SCORE.INTER.ROT>
0

>  <SCORE.INTER.SOLV>
7.06272

>  <SCORE.INTER.VDW>
-14.1855

>  <SCORE.INTER.norm>
-1.7874

>  <SCORE.INTRA>
0

>  <SCORE.INTRA.DIHEDRAL>
0

>  <SCORE.INTRA.DIHEDRAL.0>
0

>  <SCORE.INTRA.POLAR>
0

>  <SCORE.INTRA.POLAR.0>
0

>  <SCORE.INTRA.REPUL>
0

>  <SCORE.INTRA.REPUL.0>
0

>  <SCORE.INTRA.SOLV>
0

>  <SCORE.INTRA.SOLV.lig_0>
-12.9184

>  <SCORE.INTRA.VDW>
0

>  <SCORE.INTRA.VDW.0>
0

>  <SCORE.INTRA.norm>
0

>  <SCORE.RESTR>
0

>  <SCORE.RESTR.CAVITY>
0

>  <SCORE.RESTR.norm>
0

>  <SCORE.SYSTEM>
0

>  <SCORE.SYSTEM.CONST>
0

>  <SCORE.SYSTEM.DIHEDRAL>
0

>  <SCORE.SYSTEM.SOLV>
0

>  <SCORE.SYSTEM.norm>
0

>  <SCORE.heavy>
13

>  <SCORE.norm>
-1.7874

>  <RMSD>
1.990

$$$$
1o15_lig
 OpenBabel11021811403D
libRbt.so/2013.1/901 2013/11/27
 13 14  0  0  0  0  0  0  0  0999 V2000
    9.3167   -0.0174   34.7837 C   0  0  0  0  0  0  0  0  0  0  0  0
    9.0307    1.2254   35.3045 N   0  0  0  0  0  0  0  0  0  0  0  0
    9.6717    1.5961   36.4440 C   0  0  0  0  0  0  0  0  0  0  0  0
   10.4543    0.7733   36.9122 O   0  0  0  0  0  0  0  0  0  0  0  0
   10.1587    3.1413   38.2395 C   0  0  0  0  0  0  0  0  0  0  0  0
    9.4967    2.7927   37.0816 N   0  0  0  0  0  0  0  0  0  0  0  0
    8.6024    3.6039   36.4545 C   0  0  0  0  0  0  0  0  0  0  0  0
    7.9670    3.2209   35.3091 C   0  0  0  0  0  0  0  0  0  0  0  0
    8.1389    1.9921   34.6449 C   0  0  0  0  0  0  0  0  0  0  0  0
    7.6016    1.5875   33.6171 O   0  0  0  0  0  0  0  0  0  0  0  0
    7.1424    4.2813   34.9618 N   0  0  0  0  0  0  0  0  0  0  0  0
    7.3347    5.2278   35.9140 C   0  0  0  0  0  0  0  0  0  0  0  0
    8.1948    4.8789   36.8323 N   0  0  0  0  0  0  0  0  0  0  0  0
  1  2  1  0  0  0  0
  2  3  1  0  0  0  0
  2  9  1  0  0  0  0
  3  4  2  0  0  0  0
  3  6  1  0  0  0  0
  6  5  1  0  0  0  0
  6  7  1  0  0  0  0
  7  8  2  0  0  0  0
  7 13  1  0  0  0  0
  8  9  1  0  0  0  0
  8 11  1  0  0  0  0
  9 10  2  0  0  0  0
 11 12  1  0  0  0  0
 12 13  2  0  0  0  0
M  END
>  <CHROM.1>
8.71998451,2.59087832,35.87573524,0.88114517,0.83328887,-2.51055518

>  <Name>
1o15_lig

>  <RI>
0

>  <Rbt.Current_Directory>
/home/itssahil/PROJECTS/Mol_Feturizer/New_Systems/rnas/1o15

>  <Rbt.Executable>
rbdock ($Id: //depot/dev/client3/rdock/2013.1/src/exe/rbdock.cxx#4 $)

>  <Rbt.Library>
libRbt.so (2013.1, Build901 2013/11/27)

>  <Rbt.Parameter_File>
/export/apps/rDock/src/rDock_2013.1_src/data/scripts/dock_solv.prm

>  <Rbt.Receptor>
prm/blind_docking_80.prm

>  <SCORE>
-23.2582

>  <SCORE.INTER>
-23.2582

>  <SCORE.INTER.CONST>
1

>  <SCORE.INTER.POLAR>
-2.17776

>  <SCORE.INTER.ROT>
0

>  <SCORE.INTER.SOLV>
7.09361

>  <SCORE.INTER.VDW>
-14.2108

>  <SCORE.INTER.norm>
-1.78909

>  <SCORE.INTRA>
0

>  <SCORE.INTRA.DIHEDRAL>
0

>  <SCORE.INTRA.DIHEDRAL.0>
0

>  <SCORE.INTRA.POLAR>
0

>  <SCORE.INTRA.POLAR.0>
0

>  <SCORE.INTRA.REPUL>
0

>  <SCORE.INTRA.REPUL.0>
0

>  <SCORE.INTRA.SOLV>
0

>  <SCORE.INTRA.SOLV.lig_0>
-12.9184

>  <SCORE.INTRA.VDW>
0

>  <SCORE.INTRA.VDW.0>
0

>  <SCORE.INTRA.norm>
0

>  <SCORE.RESTR>
0

>  <SCORE.RESTR.CAVITY>
0

>  <SCORE.RESTR.norm>
0

>  <SCORE.SYSTEM>
0

>  <SCORE.SYSTEM.CONST>
0

>  <SCORE.SYSTEM.DIHEDRAL>
0

>  <SCORE.SYSTEM.SOLV>
0

>  <SCORE.SYSTEM.norm>
0

>  <SCORE.heavy>
13

>  <SCORE.norm>
-1.78909

>  <RMSD>
1.993

$$$$
1o15_lig
 OpenBabel11021811403D
libRbt.so/2013.1/901 2013/11/27
 13 14  0  0  0  0  0  0  0  0999 V2000
    9.5023    0.0954   34.6460 C   0  0  0  0  0  0  0  0  0  0  0  0
    9.1949    1.3328   35.1674 N   0  0  0  0  0  0  0  0  0  0  0  0
    9.9039    1.7583   36.2458 C   0  0  0  0  0  0  0  0  0  0  0  0
   10.7622    0.9851   36.6636 O   0  0  0  0  0  0  0  0  0  0  0  0
   10.4512    3.3623   37.9709 C   0  0  0  0  0  0  0  0  0  0  0  0
    9.7187    2.9575   36.8755 N   0  0  0  0  0  0  0  0  0  0  0  0
    8.7374    3.7102   36.3084 C   0  0  0  0  0  0  0  0  0  0  0  0
    8.0341    3.2726   35.2238 C   0  0  0  0  0  0  0  0  0  0  0  0
    8.2158    2.0405   34.5684 C   0  0  0  0  0  0  0  0  0  0  0  0
    7.6205    1.5886   33.5936 O   0  0  0  0  0  0  0  0  0  0  0  0
    7.1315    4.2833   34.9259 N   0  0  0  0  0  0  0  0  0  0  0  0
    7.3495    5.2575   35.8441 C   0  0  0  0  0  0  0  0  0  0  0  0
    8.2961    4.9708   36.6964 N   0  0  0  0  0  0  0  0  0  0  0  0
  1  2  1  0  0  0  0
  2  3  1  0  0  0  0
  2  9  1  0  0  0  0
  3  4  2  0  0  0  0
  3  6  1  0  0  0  0
  6  5  1  0  0  0  0
  6  7  1  0  0  0  0
  7  8  2  0  0  0  0
  7 13  1  0  0  0  0
  8  9  1  0  0  0  0
  8 11  1  0  0  0  0
  9 10  2  0  0  0  0
 11 12  1  0  0  0  0
 12 13  2  0  0  0  0
M  END
>  <CHROM.1>
8.86068315,2.69257354,35.73891617,0.88814001,0.73926007,-2.53407954

>  <Name>
1o15_lig

>  <RI>
0

>  <Rbt.Current_Directory>
/home/itssahil/PROJECTS/Mol_Feturizer/New_Systems/rnas/1o15

>  <Rbt.Executable>
rbdock ($Id: //depot/dev/client3/rdock/2013.1/src/exe/rbdock.cxx#4 $)

>  <Rbt.Library>
libRbt.so (2013.1, Build901 2013/11/27)

>  <Rbt.Parameter_File>
/export/apps/rDock/src/rDock_2013.1_src/data/scripts/dock_solv.prm

>  <Rbt.Receptor>
prm/pocket_docking_5.prm

>  <SCORE>
-22.865

>  <SCORE.INTER>
-22.865

>  <SCORE.INTER.CONST>
1

>  <SCORE.INTER.POLAR>
-2.03364

>  <SCORE.INTER.ROT>
0

>  <SCORE.INTER.SOLV>
7.33245

>  <SCORE.INTER.VDW>
-14.5087

>  <SCORE.INTER.norm>
-1.75884

>  <SCORE.INTRA>
0

>  <SCORE.INTRA.DIHEDRAL>
0

>  <SCORE.INTRA.DIHEDRAL.0>
0

>  <SCORE.INTRA.POLAR>
0

>  <SCORE.INTRA.POLAR.0>
0

>  <SCORE.INTRA.REPUL>
0

>  <SCORE.INTRA.REPUL.0>
0

>  <SCORE.INTRA.SOLV>
0

>  <SCORE.INTRA.SOLV.lig_0>
-12.9184

>  <SCORE.INTRA.VDW>
0

>  <SCORE.INTRA.VDW.0>
0

>  <SCORE.INTRA.norm>
0

>  <SCORE.RESTR>
0

>  <SCORE.RESTR.CAVITY>
0

>  <SCORE.RESTR.norm>
0

>  <SCORE.SYSTEM>
0

>  <SCORE.SYSTEM.CONST>
0

>  <SCORE.SYSTEM.DIHEDRAL>
0

>  <SCORE.SYSTEM.SOLV>
0

>  <SCORE.SYSTEM.norm>
0

>  <SCORE.heavy>
13

>  <SCORE.norm>
-1.75884

>  <RMSD>
1.993

$$$$
1o15_lig
 OpenBabel11021811403D
libRbt.so/2013.1/901 2013/11/27
 13 14  0  0  0  0  0  0  0  0999 V2000
    9.3064   -0.0286   34.7793 C   0  0  0  0  0  0  0  0  0  0  0  0
    9.0277    1.2147   35.3030 N   0  0  0  0  0  0  0  0  0  0  0  0
    9.6716    1.5794   36.4427 C   0  0  0  0  0  0  0  0  0  0  0  0
   10.4500    0.7512   36.9086 O   0  0  0  0  0  0  0  0  0  0  0  0
   10.1687    3.1181   38.2410 C   0  0  0  0  0  0  0  0  0  0  0  0
    9.5038    2.7756   37.0830 N   0  0  0  0  0  0  0  0  0  0  0  0
    8.6136    3.5931   36.4583 C   0  0  0  0  0  0  0  0  0  0  0  0
    7.9752    3.2161   35.3125 C   0  0  0  0  0  0  0  0  0  0  0  0
    8.1397    1.9878   34.6456 C   0  0  0  0  0  0  0  0  0  0  0  0
    7.5993    1.5883   33.6174 O   0  0  0  0  0  0  0  0  0  0  0  0
    7.1563    4.2819   34.9681 N   0  0  0  0  0  0  0  0  0  0  0  0
    7.3546    5.2252   35.9222 C   0  0  0  0  0  0  0  0  0  0  0  0
    8.2135    4.8696   36.8391 N   0  0  0  0  0  0  0  0  0  0  0  0
  1  2  1  0  0  0  0
  2  3  1  0  0  0  0
  2  9  1  0  0  0  0
  3  4  2  0  0  0  0
  3  6  1  0  0  0  0
  6  5  1  0  0  0  0
  6  7  1  0  0  0  0
  7  8  2  0  0  0  0
  7 13  1  0  0  0  0
  8  9  1  0  0  0  0
  8 11  1  0  0  0  0
  9 10  2  0  0  0  0
 11 12  1  0  0  0  0
 12 13  2  0  0  0  0
M  END
>  <CHROM.1>
8.72508100,2.58069495,35.87729316,0.88857046,0.83596361,-2.51395847

>  <Name>
1o15_lig

>  <RI>
0

>  <Rbt.Current_Directory>
/home/itssahil/PROJECTS/Mol_Feturizer/New_Systems/rnas/1o15

>  <Rbt.Executable>
rbdock ($Id: //depot/dev/client3/rdock/2013.1/src/exe/rbdock.cxx#4 $)

>  <Rbt.Library>
libRbt.so (2013.1, Build901 2013/11/27)

>  <Rbt.Parameter_File>
/export/apps/rDock/src/rDock_2013.1_src/data/scripts/dock_solv.prm

>  <Rbt.Receptor>
prm/pocket_docking_8.prm

>  <SCORE>
-23.2412

>  <SCORE.INTER>
-23.2412

>  <SCORE.INTER.CONST>
1

>  <SCORE.INTER.POLAR>
-2.18385

>  <SCORE.INTER.ROT>
0

>  <SCORE.INTER.SOLV>
7.05259

>  <SCORE.INTER.VDW>
-14.1655

>  <SCORE.INTER.norm>
-1.78779

>  <SCORE.INTRA>
0

>  <SCORE.INTRA.DIHEDRAL>
0

>  <SCORE.INTRA.DIHEDRAL.0>
0

>  <SCORE.INTRA.POLAR>
0

>  <SCORE.INTRA.POLAR.0>
0

>  <SCORE.INTRA.REPUL>
0

>  <SCORE.INTRA.REPUL.0>
0

>  <SCORE.INTRA.SOLV>
0

>  <SCORE.INTRA.SOLV.lig_0>
-12.9184

>  <SCORE.INTRA.VDW>
0

>  <SCORE.INTRA.VDW.0>
0

>  <SCORE.INTRA.norm>
0

>  <SCORE.RESTR>
0

>  <SCORE.RESTR.CAVITY>
0

>  <SCORE.RESTR.norm>
0

>  <SCORE.SYSTEM>
0

>  <SCORE.SYSTEM.CONST>
0

>  <SCORE.SYSTEM.DIHEDRAL>
0

>  <SCORE.SYSTEM.SOLV>
0

>  <SCORE.SYSTEM.norm>
0

>  <SCORE.heavy>
13

>  <SCORE.norm>
-1.78779

>  <RMSD>
1.995

$$$$
1o15_lig
 OpenBabel11021811403D
libRbt.so/2013.1/901 2013/11/27
 13 14  0  0  0  0  0  0  0  0999 V2000
    9.4548    0.0434   34.6841 C   0  0  0  0  0  0  0  0  0  0  0  0
    9.1402    1.2790   35.2052 N   0  0  0  0  0  0  0  0  0  0  0  0
    9.8083    1.6853   36.3166 C   0  0  0  0  0  0  0  0  0  0  0  0
   10.6395    0.8979   36.7616 O   0  0  0  0  0  0  0  0  0  0  0  0
   10.3013    3.2653   38.0798 C   0  0  0  0  0  0  0  0  0  0  0  0
    9.6106    2.8802   36.9506 N   0  0  0  0  0  0  0  0  0  0  0  0
    8.6625    3.6501   36.3512 C   0  0  0  0  0  0  0  0  0  0  0  0
    8.0001    3.2318   35.2337 C   0  0  0  0  0  0  0  0  0  0  0  0
    8.1950    2.0043   34.5735 C   0  0  0  0  0  0  0  0  0  0  0  0
    7.6358    1.5693   33.5700 O   0  0  0  0  0  0  0  0  0  0  0  0
    7.1224    4.2561   34.9091 N   0  0  0  0  0  0  0  0  0  0  0  0
    7.3130    5.2184   35.8457 C   0  0  0  0  0  0  0  0  0  0  0  0
    8.2198    4.9119   36.7337 N   0  0  0  0  0  0  0  0  0  0  0  0
  1  2  1  0  0  0  0
  2  3  1  0  0  0  0
  2  9  1  0  0  0  0
  3  4  2  0  0  0  0
  3  6  1  0  0  0  0
  6  5  1  0  0  0  0
  6  7  1  0  0  0  0
  7  8  2  0  0  0  0
  7 13  1  0  0  0  0
  8  9  1  0  0  0  0
  8 11  1  0  0  0  0
  9 10  2  0  0  0  0
 11 12  1  0  0  0  0
 12 13  2  0  0  0  0
M  END
>  <CHROM.1>
8.79784508,2.63688561,35.77660792,0.86778291,0.77995660,-2.50977674

>  <Name>
1o15_lig

>  <RI>
0

>  <Rbt.Current_Directory>
/home/itssahil/PROJECTS/Mol_Feturizer/New_Systems/rnas/1o15

>  <Rbt.Executable>
rbdock ($Id: //depot/dev/client3/rdock/2013.1/src/exe/rbdock.cxx#4 $)

>  <Rbt.Library>
libRbt.so (2013.1, Build901 2013/11/27)

>  <Rbt.Parameter_File>
/export/apps/rDock/src/rDock_2013.1_src/data/scripts/dock_solv.prm

>  <Rbt.Receptor>
prm/blind_docking_80.prm

>  <SCORE>
-23.0223

>  <SCORE.INTER>
-23.0223

>  <SCORE.INTER.CONST>
1

>  <SCORE.INTER.POLAR>
-2.10248

>  <SCORE.INTER.ROT>
0

>  <SCORE.INTER.SOLV>
7.29128

>  <SCORE.INTER.VDW>
-14.3703

>  <SCORE.INTER.norm>
-1.77095

>  <SCORE.INTRA>
0

>  <SCORE.INTRA.DIHEDRAL>
0

>  <SCORE.INTRA.DIHEDRAL.0>
0

>  <SCORE.INTRA.POLAR>
0

>  <SCORE.INTRA.POLAR.0>
0

>  <SCORE.INTRA.REPUL>
0

>  <SCORE.INTRA.REPUL.0>
0

>  <SCORE.INTRA.SOLV>
0

>  <SCORE.INTRA.SOLV.lig_0>
-12.9184

>  <SCORE.INTRA.VDW>
0

>  <SCORE.INTRA.VDW.0>
0

>  <SCORE.INTRA.norm>
0

>  <SCORE.RESTR>
0

>  <SCORE.RESTR.CAVITY>
0

>  <SCORE.RESTR.norm>
0

>  <SCORE.SYSTEM>
0

>  <SCORE.SYSTEM.CONST>
0

>  <SCORE.SYSTEM.DIHEDRAL>
0

>  <SCORE.SYSTEM.SOLV>
0

>  <SCORE.SYSTEM.norm>
0

>  <SCORE.heavy>
13

>  <SCORE.norm>
-1.77095

>  <RMSD>
2.007

$$$$
1o15_lig
 OpenBabel11021811403D
libRbt.so/2013.1/901 2013/11/27
 13 14  0  0  0  0  0  0  0  0999 V2000
    9.4935    0.0714   34.6618 C   0  0  0  0  0  0  0  0  0  0  0  0
    9.1711    1.3071   35.1782 N   0  0  0  0  0  0  0  0  0  0  0  0
    9.8512    1.7306   36.2758 C   0  0  0  0  0  0  0  0  0  0  0  0
   10.6992    0.9574   36.7138 O   0  0  0  0  0  0  0  0  0  0  0  0
   10.3513    3.3307   38.0188 C   0  0  0  0  0  0  0  0  0  0  0  0
    9.6482    2.9279   36.9036 N   0  0  0  0  0  0  0  0  0  0  0  0
    8.6810    3.6809   36.3131 C   0  0  0  0  0  0  0  0  0  0  0  0
    8.0068    3.2453   35.2094 C   0  0  0  0  0  0  0  0  0  0  0  0
    8.2071    2.0152   34.5557 C   0  0  0  0  0  0  0  0  0  0  0  0
    7.6379    1.5652   33.5646 O   0  0  0  0  0  0  0  0  0  0  0  0
    7.1110    4.2558   34.8907 N   0  0  0  0  0  0  0  0  0  0  0  0
    7.3038    5.2279   35.8167 C   0  0  0  0  0  0  0  0  0  0  0  0
    8.2282    4.9400   36.6928 N   0  0  0  0  0  0  0  0  0  0  0  0
  1  2  1  0  0  0  0
  2  3  1  0  0  0  0
  2  9  1  0  0  0  0
  3  4  2  0  0  0  0
  3  6  1  0  0  0  0
  6  5  1  0  0  0  0
  6  7  1  0  0  0  0
  7  8  2  0  0  0  0
  7 13  1  0  0  0  0
  8  9  1  0  0  0  0
  8 11  1  0  0  0  0
  9 10  2  0  0  0  0
 11 12  1  0  0  0  0
 12 13  2  0  0  0  0
M  END
>  <CHROM.1>
8.82038452,2.66497672,35.74434959,0.86620545,0.75982951,-2.51651707

>  <Name>
1o15_lig

>  <RI>
0

>  <Rbt.Current_Directory>
/home/itssahil/PROJECTS/Mol_Feturizer/New_Systems/rnas/1o15

>  <Rbt.Executable>
rbdock ($Id: //depot/dev/client3/rdock/2013.1/src/exe/rbdock.cxx#4 $)

>  <Rbt.Library>
libRbt.so (2013.1, Build901 2013/11/27)

>  <Rbt.Parameter_File>
/export/apps/rDock/src/rDock_2013.1_src/data/scripts/dock_solv.prm

>  <Rbt.Receptor>
prm/blind_docking_80.prm

>  <SCORE>
-22.9681

>  <SCORE.INTER>
-22.9681

>  <SCORE.INTER.CONST>
1

>  <SCORE.INTER.POLAR>
-2.06888

>  <SCORE.INTER.ROT>
0

>  <SCORE.INTER.SOLV>
7.39017

>  <SCORE.INTER.VDW>
-14.4792

>  <SCORE.INTER.norm>
-1.76678

>  <SCORE.INTRA>
0

>  <SCORE.INTRA.DIHEDRAL>
0

>  <SCORE.INTRA.DIHEDRAL.0>
0

>  <SCORE.INTRA.POLAR>
0

>  <SCORE.INTRA.POLAR.0>
0

>  <SCORE.INTRA.REPUL>
0

>  <SCORE.INTRA.REPUL.0>
0

>  <SCORE.INTRA.SOLV>
0

>  <SCORE.INTRA.SOLV.lig_0>
-12.9184

>  <SCORE.INTRA.VDW>
0

>  <SCORE.INTRA.VDW.0>
0

>  <SCORE.INTRA.norm>
0

>  <SCORE.RESTR>
0

>  <SCORE.RESTR.CAVITY>
0

>  <SCORE.RESTR.norm>
0

>  <SCORE.SYSTEM>
0

>  <SCORE.SYSTEM.CONST>
0

>  <SCORE.SYSTEM.DIHEDRAL>
0

>  <SCORE.SYSTEM.SOLV>
0

>  <SCORE.SYSTEM.norm>
0

>  <SCORE.heavy>
13

>  <SCORE.norm>
-1.76678

>  <RMSD>
2.009

$$$$
1o15_lig
 OpenBabel11021811403D
libRbt.so/2013.1/901 2013/11/27
 13 14  0  0  0  0  0  0  0  0999 V2000
    9.4534    0.0042   34.6941 C   0  0  0  0  0  0  0  0  0  0  0  0
    9.1460    1.2487   35.1983 N   0  0  0  0  0  0  0  0  0  0  0  0
    9.8238    1.6704   36.2980 C   0  0  0  0  0  0  0  0  0  0  0  0
   10.6564    0.8878   36.7488 O   0  0  0  0  0  0  0  0  0  0  0  0
   10.3348    3.2765   38.0324 C   0  0  0  0  0  0  0  0  0  0  0  0
    9.6343    2.8756   36.9147 N   0  0  0  0  0  0  0  0  0  0  0  0
    8.6836    3.6387   36.3106 C   0  0  0  0  0  0  0  0  0  0  0  0
    8.0115    3.2048   35.2050 C   0  0  0  0  0  0  0  0  0  0  0  0
    8.1979    1.9666   34.5626 C   0  0  0  0  0  0  0  0  0  0  0  0
    7.6298    1.5175   33.5704 O   0  0  0  0  0  0  0  0  0  0  0  0
    7.1339    4.2264   34.8712 N   0  0  0  0  0  0  0  0  0  0  0  0
    7.3343    5.2026   35.7912 C   0  0  0  0  0  0  0  0  0  0  0  0
    8.2472    4.9076   36.6768 N   0  0  0  0  0  0  0  0  0  0  0  0
  1  2  1  0  0  0  0
  2  3  1  0  0  0  0
  2  9  1  0  0  0  0
  3  4  2  0  0  0  0
  3  6  1  0  0  0  0
  6  5  1  0  0  0  0
  6  7  1  0  0  0  0
  7  8  2  0  0  0  0
  7 13  1  0  0  0  0
  8  9  1  0  0  0  0
  8 11  1  0  0  0  0
  9 10  2  0  0  0  0
 11 12  1  0  0  0  0
 12 13  2  0  0  0  0
M  END
>  <CHROM.1>
8.81177230,2.61629009,35.75097663,0.87721013,0.77522994,-2.53202616

>  <Name>
1o15_lig

>  <RI>
0

>  <Rbt.Current_Directory>
/home/itssahil/PROJECTS/Mol_Feturizer/New_Systems/rnas/1o15

>  <Rbt.Executable>
rbdock ($Id: //depot/dev/client3/rdock/2013.1/src/exe/rbdock.cxx#4 $)

>  <Rbt.Library>
libRbt.so (2013.1, Build901 2013/11/27)

>  <Rbt.Parameter_File>
/export/apps/rDock/src/rDock_2013.1_src/data/scripts/dock_solv.prm

>  <Rbt.Receptor>
prm/blind_docking_80.prm

>  <SCORE>
-23.0139

>  <SCORE.INTER>
-23.0139

>  <SCORE.INTER.CONST>
1

>  <SCORE.INTER.POLAR>
-2.09912

>  <SCORE.INTER.ROT>
0

>  <SCORE.INTER.SOLV>
7.28833

>  <SCORE.INTER.VDW>
-14.375

>  <SCORE.INTER.norm>
-1.7703

>  <SCORE.INTRA>
0

>  <SCORE.INTRA.DIHEDRAL>
0

>  <SCORE.INTRA.DIHEDRAL.0>
0

>  <SCORE.INTRA.POLAR>
0

>  <SCORE.INTRA.POLAR.0>
0

>  <SCORE.INTRA.REPUL>
0

>  <SCORE.INTRA.REPUL.0>
0

>  <SCORE.INTRA.SOLV>
0

>  <SCORE.INTRA.SOLV.lig_0>
-12.9184

>  <SCORE.INTRA.VDW>
0

>  <SCORE.INTRA.VDW.0>
0

>  <SCORE.INTRA.norm>
0

>  <SCORE.RESTR>
0

>  <SCORE.RESTR.CAVITY>
0

>  <SCORE.RESTR.norm>
0

>  <SCORE.SYSTEM>
0

>  <SCORE.SYSTEM.CONST>
0

>  <SCORE.SYSTEM.DIHEDRAL>
0

>  <SCORE.SYSTEM.SOLV>
0

>  <SCORE.SYSTEM.norm>
0

>  <SCORE.heavy>
13

>  <SCORE.norm>
-1.7703

>  <RMSD>
2.011

$$$$
1o15_lig
 OpenBabel11021811403D
libRbt.so/2013.1/901 2013/11/27
 13 14  0  0  0  0  0  0  0  0999 V2000
    9.3735   -0.0051   34.7472 C   0  0  0  0  0  0  0  0  0  0  0  0
    9.0596    1.2348   35.2585 N   0  0  0  0  0  0  0  0  0  0  0  0
    9.6870    1.6259   36.3987 C   0  0  0  0  0  0  0  0  0  0  0  0
   10.4838    0.8222   36.8761 O   0  0  0  0  0  0  0  0  0  0  0  0
   10.1332    3.1922   38.1864 C   0  0  0  0  0  0  0  0  0  0  0  0
    9.4844    2.8227   37.0276 N   0  0  0  0  0  0  0  0  0  0  0  0
    8.5771    3.6115   36.3907 C   0  0  0  0  0  0  0  0  0  0  0  0
    7.9555    3.2082   35.2446 C   0  0  0  0  0  0  0  0  0  0  0  0
    8.1558    1.9790   34.5893 C   0  0  0  0  0  0  0  0  0  0  0  0
    7.6321    1.5569   33.5615 O   0  0  0  0  0  0  0  0  0  0  0  0
    7.1113    4.2494   34.8863 N   0  0  0  0  0  0  0  0  0  0  0  0
    7.2794    5.2057   35.8333 C   0  0  0  0  0  0  0  0  0  0  0  0
    8.1417    4.8803   36.7581 N   0  0  0  0  0  0  0  0  0  0  0  0
  1  2  1  0  0  0  0
  2  3  1  0  0  0  0
  2  9  1  0  0  0  0
  3  4  2  0  0  0  0
  3  6  1  0  0  0  0
  6  5  1  0  0  0  0
  6  7  1  0  0  0  0
  7  8  2  0  0  0  0
  7 13  1  0  0  0  0
  8  9  1  0  0  0  0
  8 11  1  0  0  0  0
  9 10  2  0  0  0  0
 11 12  1  0  0  0  0
 12 13  2  0  0  0  0
M  END
>  <CHROM.1>
8.71821243,2.59737508,35.81915948,0.85244783,0.82524151,-2.49587561

>  <Name>
1o15_lig

>  <RI>
0

>  <Rbt.Current_Directory>
/home/itssahil/PROJECTS/Mol_Feturizer/New_Systems/rnas/1o15

>  <Rbt.Executable>
rbdock ($Id: //depot/dev/client3/rdock/2013.1/src/exe/rbdock.cxx#4 $)

>  <Rbt.Library>
libRbt.so (2013.1, Build901 2013/11/27)

>  <Rbt.Parameter_File>
/export/apps/rDock/src/rDock_2013.1_src/data/scripts/dock_solv.prm

>  <Rbt.Receptor>
prm/blind_docking_60.prm

>  <SCORE>
-22.2061

>  <SCORE.INTER>
-23.1284

>  <SCORE.INTER.CONST>
1

>  <SCORE.INTER.POLAR>
-2.17305

>  <SCORE.INTER.ROT>
0

>  <SCORE.INTER.SOLV>
7.27729

>  <SCORE.INTER.VDW>
-14.2012

>  <SCORE.INTER.norm>
-1.77911

>  <SCORE.INTRA>
0

>  <SCORE.INTRA.DIHEDRAL>
0

>  <SCORE.INTRA.DIHEDRAL.0>
0

>  <SCORE.INTRA.POLAR>
0

>  <SCORE.INTRA.POLAR.0>
0

>  <SCORE.INTRA.REPUL>
0

>  <SCORE.INTRA.REPUL.0>
0

>  <SCORE.INTRA.SOLV>
0

>  <SCORE.INTRA.SOLV.lig_0>
-12.9184

>  <SCORE.INTRA.VDW>
0

>  <SCORE.INTRA.VDW.0>
0

>  <SCORE.INTRA.norm>
0

>  <SCORE.RESTR>
0.922262

>  <SCORE.RESTR.CAVITY>
0.922262

>  <SCORE.RESTR.norm>
0.0709432

>  <SCORE.SYSTEM>
0

>  <SCORE.SYSTEM.CONST>
0

>  <SCORE.SYSTEM.DIHEDRAL>
0

>  <SCORE.SYSTEM.SOLV>
0

>  <SCORE.SYSTEM.norm>
0

>  <SCORE.heavy>
13

>  <SCORE.norm>
-1.70816

>  <RMSD>
2.021

$$$$
1o15_lig
 OpenBabel11021811403D
libRbt.so/2013.1/901 2013/11/27
 13 14  0  0  0  0  0  0  0  0999 V2000
    8.7047    0.7764   34.8593 C   0  0  0  0  0  0  0  0  0  0  0  0
    8.7699    2.0934   35.2575 N   0  0  0  0  0  0  0  0  0  0  0  0
    9.7973    2.4586   36.0686 C   0  0  0  0  0  0  0  0  0  0  0  0
   10.5806    1.5648   36.3789 O   0  0  0  0  0  0  0  0  0  0  0  0
   11.0498    4.0646   37.3725 C   0  0  0  0  0  0  0  0  0  0  0  0
    9.9995    3.7229   36.5477 N   0  0  0  0  0  0  0  0  0  0  0  0
    9.0572    4.6089   36.1255 C   0  0  0  0  0  0  0  0  0  0  0  0
    8.0314    4.2301   35.3089 C   0  0  0  0  0  0  0  0  0  0  0  0
    7.8135    2.9322   34.8104 C   0  0  0  0  0  0  0  0  0  0  0  0
    6.9159    2.5271   34.0762 O   0  0  0  0  0  0  0  0  0  0  0  0
    7.2797    5.3757   35.0905 N   0  0  0  0  0  0  0  0  0  0  0  0
    7.8985    6.3631   35.7846 C   0  0  0  0  0  0  0  0  0  0  0  0
    8.9651    5.9643   36.4234 N   0  0  0  0  0  0  0  0  0  0  0  0
  1  2  1  0  0  0  0
  2  3  1  0  0  0  0
  2  9  1  0  0  0  0
  3  4  2  0  0  0  0
  3  6  1  0  0  0  0
  6  5  1  0  0  0  0
  6  7  1  0  0  0  0
  7  8  2  0  0  0  0
  7 13  1  0  0  0  0
  8  9  1  0  0  0  0
  8 11  1  0  0  0  0
  9 10  2  0  0  0  0
 11 12  1  0  0  0  0
 12 13  2  0  0  0  0
M  END
>  <CHROM.1>
8.84448280,3.53991299,35.69293655,1.25166402,0.59347147,-2.88122144

>  <Name>
1o15_lig

>  <RI>
0

>  <Rbt.Current_Directory>
/home/itssahil/PROJECTS/Mol_Feturizer/New_Systems/rnas/1o15

>  <Rbt.Executable>
rbdock ($Id: //depot/dev/client3/rdock/2013.1/src/exe/rbdock.cxx#4 $)

>  <Rbt.Library>
libRbt.so (2013.1, Build901 2013/11/27)

>  <Rbt.Parameter_File>
/export/apps/rDock/src/rDock_2013.1_src/data/scripts/dock_solv.prm

>  <Rbt.Receptor>
prm/blind_docking_40.prm

>  <SCORE>
-18.4736

>  <SCORE.INTER>
-18.9096

>  <SCORE.INTER.CONST>
1

>  <SCORE.INTER.POLAR>
-1.58143

>  <SCORE.INTER.ROT>
0

>  <SCORE.INTER.SOLV>
7.65638

>  <SCORE.INTER.VDW>
-13.4871

>  <SCORE.INTER.norm>
-1.45459

>  <SCORE.INTRA>
0

>  <SCORE.INTRA.DIHEDRAL>
0

>  <SCORE.INTRA.DIHEDRAL.0>
0

>  <SCORE.INTRA.POLAR>
0

>  <SCORE.INTRA.POLAR.0>
0

>  <SCORE.INTRA.REPUL>
0

>  <SCORE.INTRA.REPUL.0>
0

>  <SCORE.INTRA.SOLV>
0

>  <SCORE.INTRA.SOLV.lig_0>
-12.9184

>  <SCORE.INTRA.VDW>
0

>  <SCORE.INTRA.VDW.0>
0

>  <SCORE.INTRA.norm>
0

>  <SCORE.RESTR>
0.435988

>  <SCORE.RESTR.CAVITY>
0.435988

>  <SCORE.RESTR.norm>
0.0335375

>  <SCORE.SYSTEM>
0

>  <SCORE.SYSTEM.CONST>
0

>  <SCORE.SYSTEM.DIHEDRAL>
0

>  <SCORE.SYSTEM.SOLV>
0

>  <SCORE.SYSTEM.norm>
0

>  <SCORE.heavy>
13

>  <SCORE.norm>
-1.42105

>  <RMSD>
2.028

$$$$
1o15_lig
 OpenBabel11021811403D
libRbt.so/2013.1/901 2013/11/27
 13 14  0  0  0  0  0  0  0  0999 V2000
    8.7052    0.7734   34.8644 C   0  0  0  0  0  0  0  0  0  0  0  0
    8.7685    2.0916   35.2590 N   0  0  0  0  0  0  0  0  0  0  0  0
    9.7964    2.4608   36.0676 C   0  0  0  0  0  0  0  0  0  0  0  0
   10.5817    1.5692   36.3792 O   0  0  0  0  0  0  0  0  0  0  0  0
   11.0478    4.0725   37.3655 C   0  0  0  0  0  0  0  0  0  0  0  0
    9.9969    3.7267   36.5431 N   0  0  0  0  0  0  0  0  0  0  0  0
    9.0524    4.6098   36.1199 C   0  0  0  0  0  0  0  0  0  0  0  0
    8.0261    4.2271   35.3057 C   0  0  0  0  0  0  0  0  0  0  0  0
    7.8098    2.9274   34.8110 C   0  0  0  0  0  0  0  0  0  0  0  0
    6.9120    2.5187   34.0791 O   0  0  0  0  0  0  0  0  0  0  0  0
    7.2720    5.3706   35.0855 N   0  0  0  0  0  0  0  0  0  0  0  0
    7.8899    6.3610   35.7761 C   0  0  0  0  0  0  0  0  0  0  0  0
    8.9582    5.9659   36.4144 N   0  0  0  0  0  0  0  0  0  0  0  0
  1  2  1  0  0  0  0
  2  3  1  0  0  0  0
  2  9  1  0  0  0  0
  3  4  2  0  0  0  0
  3  6  1  0  0  0  0
  6  5  1  0  0  0  0
  6  7  1  0  0  0  0
  7  8  2  0  0  0  0
  7 13  1  0  0  0  0
  8  9  1  0  0  0  0
  8 11  1  0  0  0  0
  9 10  2  0  0  0  0
 11 12  1  0  0  0  0
 12 13  2  0  0  0  0
M  END
>  <CHROM.1>
8.84099415,3.53933852,35.69046993,1.24995970,0.59161450,-2.88290379

>  <Name>
1o15_lig

>  <RI>
0

>  <Rbt.Current_Directory>
/home/itssahil/PROJECTS/Mol_Feturizer/New_Systems/rnas/1o15

>  <Rbt.Executable>
rbdock ($Id: //depot/dev/client3/rdock/2013.1/src/exe/rbdock.cxx#4 $)

>  <Rbt.Library>
libRbt.so (2013.1, Build901 2013/11/27)

>  <Rbt.Parameter_File>
/export/apps/rDock/src/rDock_2013.1_src/data/scripts/dock_solv.prm

>  <Rbt.Receptor>
prm/blind_docking_40.prm

>  <SCORE>
-18.4701

>  <SCORE.INTER>
-18.9083

>  <SCORE.INTER.CONST>
1

>  <SCORE.INTER.POLAR>
-1.59226

>  <SCORE.INTER.ROT>
0

>  <SCORE.INTER.SOLV>
7.67361

>  <SCORE.INTER.VDW>
-13.4559

>  <SCORE.INTER.norm>
-1.45448

>  <SCORE.INTRA>
0

>  <SCORE.INTRA.DIHEDRAL>
0

>  <SCORE.INTRA.DIHEDRAL.0>
0

>  <SCORE.INTRA.POLAR>
0

>  <SCORE.INTRA.POLAR.0>
0

>  <SCORE.INTRA.REPUL>
0

>  <SCORE.INTRA.REPUL.0>
0

>  <SCORE.INTRA.SOLV>
0

>  <SCORE.INTRA.SOLV.lig_0>
-12.9184

>  <SCORE.INTRA.VDW>
0

>  <SCORE.INTRA.VDW.0>
0

>  <SCORE.INTRA.norm>
0

>  <SCORE.RESTR>
0.438132

>  <SCORE.RESTR.CAVITY>
0.438132

>  <SCORE.RESTR.norm>
0.0337025

>  <SCORE.SYSTEM>
0

>  <SCORE.SYSTEM.CONST>
0

>  <SCORE.SYSTEM.DIHEDRAL>
0

>  <SCORE.SYSTEM.SOLV>
0

>  <SCORE.SYSTEM.norm>
0

>  <SCORE.heavy>
13

>  <SCORE.norm>
-1.42078

>  <RMSD>
2.028

$$$$
1o15_lig
 OpenBabel11021811403D
libRbt.so/2013.1/901 2013/11/27
 13 14  0  0  0  0  0  0  0  0999 V2000
    9.6037    0.1130   34.5401 C   0  0  0  0  0  0  0  0  0  0  0  0
    9.2671    1.3352   35.0790 N   0  0  0  0  0  0  0  0  0  0  0  0
    9.9810    1.7724   36.1494 C   0  0  0  0  0  0  0  0  0  0  0  0
   10.8700    1.0225   36.5448 O   0  0  0  0  0  0  0  0  0  0  0  0
   10.5079    3.3763   37.8810 C   0  0  0  0  0  0  0  0  0  0  0  0
    9.7695    2.9592   36.7942 N   0  0  0  0  0  0  0  0  0  0  0  0
    8.7556    3.6862   36.2514 C   0  0  0  0  0  0  0  0  0  0  0  0
    8.0476    3.2371   35.1746 C   0  0  0  0  0  0  0  0  0  0  0  0
    8.2563    2.0176   34.5038 C   0  0  0  0  0  0  0  0  0  0  0  0
    7.6585    1.5566   33.5348 O   0  0  0  0  0  0  0  0  0  0  0  0
    7.1090    4.2219   34.9022 N   0  0  0  0  0  0  0  0  0  0  0  0
    7.3125    5.1937   35.8262 C   0  0  0  0  0  0  0  0  0  0  0  0
    8.2821    4.9287   36.6595 N   0  0  0  0  0  0  0  0  0  0  0  0
  1  2  1  0  0  0  0
  2  3  1  0  0  0  0
  2  9  1  0  0  0  0
  3  4  2  0  0  0  0
  3  6  1  0  0  0  0
  6  5  1  0  0  0  0
  6  7  1  0  0  0  0
  7  8  2  0  0  0  0
  7 13  1  0  0  0  0
  8  9  1  0  0  0  0
  8 11  1  0  0  0  0
  9 10  2  0  0  0  0
 11 12  1  0  0  0  0
 12 13  2  0  0  0  0
M  END
>  <CHROM.1>
8.90065214,2.67838404,35.66972292,0.86751926,0.70719981,-2.51065887

>  <Name>
1o15_lig

>  <RI>
0

>  <Rbt.Current_Directory>
/home/itssahil/PROJECTS/Mol_Feturizer/New_Systems/rnas/1o15

>  <Rbt.Executable>
rbdock ($Id: //depot/dev/client3/rdock/2013.1/src/exe/rbdock.cxx#4 $)

>  <Rbt.Library>
libRbt.so (2013.1, Build901 2013/11/27)

>  <Rbt.Parameter_File>
/export/apps/rDock/src/rDock_2013.1_src/data/scripts/dock_solv.prm

>  <Rbt.Receptor>
prm/blind_docking_60.prm

>  <SCORE>
-21.8977

>  <SCORE.INTER>
-22.7571

>  <SCORE.INTER.CONST>
1

>  <SCORE.INTER.POLAR>
-1.98831

>  <SCORE.INTER.ROT>
0

>  <SCORE.INTER.SOLV>
7.61337

>  <SCORE.INTER.VDW>
-14.6814

>  <SCORE.INTER.norm>
-1.75054

>  <SCORE.INTRA>
0

>  <SCORE.INTRA.DIHEDRAL>
0

>  <SCORE.INTRA.DIHEDRAL.0>
0

>  <SCORE.INTRA.POLAR>
0

>  <SCORE.INTRA.POLAR.0>
0

>  <SCORE.INTRA.REPUL>
0

>  <SCORE.INTRA.REPUL.0>
0

>  <SCORE.INTRA.SOLV>
0

>  <SCORE.INTRA.SOLV.lig_0>
-12.9184

>  <SCORE.INTRA.VDW>
0

>  <SCORE.INTRA.VDW.0>
0

>  <SCORE.INTRA.norm>
0

>  <SCORE.RESTR>
0.859362

>  <SCORE.RESTR.CAVITY>
0.859362

>  <SCORE.RESTR.norm>
0.0661048

>  <SCORE.SYSTEM>
0

>  <SCORE.SYSTEM.CONST>
0

>  <SCORE.SYSTEM.DIHEDRAL>
0

>  <SCORE.SYSTEM.SOLV>
0

>  <SCORE.SYSTEM.norm>
0

>  <SCORE.heavy>
13

>  <SCORE.norm>
-1.68444

>  <RMSD>
2.044

$$$$
1o15_lig
 OpenBabel11021811403D
libRbt.so/2013.1/901 2013/11/27
 13 14  0  0  0  0  0  0  0  0999 V2000
    9.6750    0.1859   34.4655 C   0  0  0  0  0  0  0  0  0  0  0  0
    9.3260    1.3994   35.0159 N   0  0  0  0  0  0  0  0  0  0  0  0
   10.0544    1.8476   36.0720 C   0  0  0  0  0  0  0  0  0  0  0  0
   10.9666    1.1145   36.4452 O   0  0  0  0  0  0  0  0  0  0  0  0
   10.5871    3.4565   37.7971 C   0  0  0  0  0  0  0  0  0  0  0  0
    9.8335    3.0280   36.7253 N   0  0  0  0  0  0  0  0  0  0  0  0
    8.7936    3.7361   36.2074 C   0  0  0  0  0  0  0  0  0  0  0  0
    8.0713    3.2763   35.1447 C   0  0  0  0  0  0  0  0  0  0  0  0
    8.2894    2.0632   34.4654 C   0  0  0  0  0  0  0  0  0  0  0  0
    7.6798    1.5933   33.5081 O   0  0  0  0  0  0  0  0  0  0  0  0
    7.1074    4.2429   34.8964 N   0  0  0  0  0  0  0  0  0  0  0  0
    7.3117    5.2158   35.8191 C   0  0  0  0  0  0  0  0  0  0  0  0
    8.3045    4.9677   36.6300 N   0  0  0  0  0  0  0  0  0  0  0  0
  1  2  1  0  0  0  0
  2  3  1  0  0  0  0
  2  9  1  0  0  0  0
  3  4  2  0  0  0  0
  3  6  1  0  0  0  0
  6  5  1  0  0  0  0
  6  7  1  0  0  0  0
  7  8  2  0  0  0  0
  7 13  1  0  0  0  0
  8  9  1  0  0  0  0
  8 11  1  0  0  0  0
  9 10  2  0  0  0  0
 11 12  1  0  0  0  0
 12 13  2  0  0  0  0
M  END
>  <CHROM.1>
8.94590393,2.73324006,35.61918153,0.86347067,0.67770000,-2.50483538

>  <Name>
1o15_lig

>  <RI>
0

>  <Rbt.Current_Directory>
/home/itssahil/PROJECTS/Mol_Feturizer/New_Systems/rnas/1o15

>  <Rbt.Executable>
rbdock ($Id: //depot/dev/client3/rdock/2013.1/src/exe/rbdock.cxx#4 $)

>  <Rbt.Library>
libRbt.so (2013.1, Build901 2013/11/27)

>  <Rbt.Parameter_File>
/export/apps/rDock/src/rDock_2013.1_src/data/scripts/dock_solv.prm

>  <Rbt.Receptor>
prm/blind_docking_40.prm

>  <SCORE>
-22.1266

>  <SCORE.INTER>
-22.465

>  <SCORE.INTER.CONST>
1

>  <SCORE.INTER.POLAR>
-1.92085

>  <SCORE.INTER.ROT>
0

>  <SCORE.INTER.SOLV>
7.79216

>  <SCORE.INTER.VDW>
-14.7712

>  <SCORE.INTER.norm>
-1.72807

>  <SCORE.INTRA>
0

>  <SCORE.INTRA.DIHEDRAL>
0

>  <SCORE.INTRA.DIHEDRAL.0>
0

>  <SCORE.INTRA.POLAR>
0

>  <SCORE.INTRA.POLAR.0>
0

>  <SCORE.INTRA.REPUL>
0

>  <SCORE.INTRA.REPUL.0>
0

>  <SCORE.INTRA.SOLV>
0

>  <SCORE.INTRA.SOLV.lig_0>
-12.9184

>  <SCORE.INTRA.VDW>
0

>  <SCORE.INTRA.VDW.0>
0

>  <SCORE.INTRA.norm>
0

>  <SCORE.RESTR>
0.338372

>  <SCORE.RESTR.CAVITY>
0.338372

>  <SCORE.RESTR.norm>
0.0260286

>  <SCORE.SYSTEM>
0

>  <SCORE.SYSTEM.CONST>
0

>  <SCORE.SYSTEM.DIHEDRAL>
0

>  <SCORE.SYSTEM.SOLV>
0

>  <SCORE.SYSTEM.norm>
0

>  <SCORE.heavy>
13

>  <SCORE.norm>
-1.70204

>  <RMSD>
2.063

$$$$
1o15_lig
 OpenBabel11021811403D
libRbt.so/2013.1/901 2013/11/27
 13 14  0  0  0  0  0  0  0  0999 V2000
    9.6642    0.1713   34.4676 C   0  0  0  0  0  0  0  0  0  0  0  0
    9.3203    1.3909   35.0078 N   0  0  0  0  0  0  0  0  0  0  0  0
   10.0455    1.8412   36.0652 C   0  0  0  0  0  0  0  0  0  0  0  0
   10.9504    1.1044   36.4487 O   0  0  0  0  0  0  0  0  0  0  0  0
   10.5789    3.4579   37.7827 C   0  0  0  0  0  0  0  0  0  0  0  0
    9.8288    3.0273   36.7093 N   0  0  0  0  0  0  0  0  0  0  0  0
    8.7968    3.7391   36.1805 C   0  0  0  0  0  0  0  0  0  0  0  0
    8.0776    3.2770   35.1166 C   0  0  0  0  0  0  0  0  0  0  0  0
    8.2914    2.0580   34.4467 C   0  0  0  0  0  0  0  0  0  0  0  0
    7.6844    1.5858   33.4890 O   0  0  0  0  0  0  0  0  0  0  0  0
    7.1220    4.2486   34.8561 N   0  0  0  0  0  0  0  0  0  0  0  0
    7.3274    5.2262   35.7735 C   0  0  0  0  0  0  0  0  0  0  0  0
    8.3137    4.9768   36.5920 N   0  0  0  0  0  0  0  0  0  0  0  0
  1  2  1  0  0  0  0
  2  3  1  0  0  0  0
  2  9  1  0  0  0  0
  3  4  2  0  0  0  0
  3  6  1  0  0  0  0
  6  5  1  0  0  0  0
  6  7  1  0  0  0  0
  7  8  2  0  0  0  0
  7 13  1  0  0  0  0
  8  9  1  0  0  0  0
  8 11  1  0  0  0  0
  9 10  2  0  0  0  0
 11 12  1  0  0  0  0
 12 13  2  0  0  0  0
M  END
>  <CHROM.1>
8.94573819,2.73125872,35.59988727,0.86605550,0.68651404,-2.51316444

>  <Name>
1o15_lig

>  <RI>
0

>  <Rbt.Current_Directory>
/home/itssahil/PROJECTS/Mol_Feturizer/New_Systems/rnas/1o15

>  <Rbt.Executable>
rbdock ($Id: //depot/dev/client3/rdock/2013.1/src/exe/rbdock.cxx#4 $)

>  <Rbt.Library>
libRbt.so (2013.1, Build901 2013/11/27)

>  <Rbt.Parameter_File>
/export/apps/rDock/src/rDock_2013.1_src/data/scripts/dock_solv.prm

>  <Rbt.Receptor>
prm/blind_docking_40.prm

>  <SCORE>
-22.1101

>  <SCORE.INTER>
-22.4495

>  <SCORE.INTER.CONST>
1

>  <SCORE.INTER.POLAR>
-1.93516

>  <SCORE.INTER.ROT>
0

>  <SCORE.INTER.SOLV>
7.78136

>  <SCORE.INTER.VDW>
-14.7096

>  <SCORE.INTER.norm>
-1.72688

>  <SCORE.INTRA>
0

>  <SCORE.INTRA.DIHEDRAL>
0

>  <SCORE.INTRA.DIHEDRAL.0>
0

>  <SCORE.INTRA.POLAR>
0

>  <SCORE.INTRA.POLAR.0>
0

>  <SCORE.INTRA.REPUL>
0

>  <SCORE.INTRA.REPUL.0>
0

>  <SCORE.INTRA.SOLV>
0

>  <SCORE.INTRA.SOLV.lig_0>
-12.9184

>  <SCORE.INTRA.VDW>
0

>  <SCORE.INTRA.VDW.0>
0

>  <SCORE.INTRA.norm>
0

>  <SCORE.RESTR>
0.339386

>  <SCORE.RESTR.CAVITY>
0.339386

>  <SCORE.RESTR.norm>
0.0261066

>  <SCORE.SYSTEM>
0

>  <SCORE.SYSTEM.CONST>
0

>  <SCORE.SYSTEM.DIHEDRAL>
0

>  <SCORE.SYSTEM.SOLV>
0

>  <SCORE.SYSTEM.norm>
0

>  <SCORE.heavy>
13

>  <SCORE.norm>
-1.70078

>  <RMSD>
2.070

$$$$
1o15_lig
 OpenBabel11021811403D
libRbt.so/2013.1/901 2013/11/27
 13 14  0  0  0  0  0  0  0  0999 V2000
    9.6979    0.1801   34.4267 C   0  0  0  0  0  0  0  0  0  0  0  0
    9.3353    1.3814   34.9948 N   0  0  0  0  0  0  0  0  0  0  0  0
   10.0521    1.8172   36.0639 C   0  0  0  0  0  0  0  0  0  0  0  0
   10.9672    1.0849   36.4316 O   0  0  0  0  0  0  0  0  0  0  0  0
   10.5590    3.4006   37.8200 C   0  0  0  0  0  0  0  0  0  0  0  0
    9.8169    2.9845   36.7353 N   0  0  0  0  0  0  0  0  0  0  0  0
    8.7755    3.6933   36.2215 C   0  0  0  0  0  0  0  0  0  0  0  0
    8.0648    3.2460   35.1457 C   0  0  0  0  0  0  0  0  0  0  0  0
    8.2976    2.0464   34.4476 C   0  0  0  0  0  0  0  0  0  0  0  0
    7.6990    1.5881   33.4778 O   0  0  0  0  0  0  0  0  0  0  0  0
    7.0953    4.2093   34.9063 N   0  0  0  0  0  0  0  0  0  0  0  0
    7.2850    5.1679   35.8469 C   0  0  0  0  0  0  0  0  0  0  0  0
    8.2735    4.9137   36.6611 N   0  0  0  0  0  0  0  0  0  0  0  0
  1  2  1  0  0  0  0
  2  3  1  0  0  0  0
  2  9  1  0  0  0  0
  3  4  2  0  0  0  0
  3  6  1  0  0  0  0
  6  5  1  0  0  0  0
  6  7  1  0  0  0  0
  7  8  2  0  0  0  0
  7 13  1  0  0  0  0
  8  9  1  0  0  0  0
  8 11  1  0  0  0  0
  9 10  2  0  0  0  0
 11 12  1  0  0  0  0
 12 13  2  0  0  0  0
M  END
>  <CHROM.1>
8.94008956,2.70178415,35.61757636,0.84956403,0.67905759,-2.47916259

>  <Name>
1o15_lig

>  <RI>
0

>  <Rbt.Current_Directory>
/home/itssahil/PROJECTS/Mol_Feturizer/New_Systems/rnas/1o15

>  <Rbt.Executable>
rbdock ($Id: //depot/dev/client3/rdock/2013.1/src/exe/rbdock.cxx#4 $)

>  <Rbt.Library>
libRbt.so (2013.1, Build901 2013/11/27)

>  <Rbt.Parameter_File>
/export/apps/rDock/src/rDock_2013.1_src/data/scripts/dock_solv.prm

>  <Rbt.Receptor>
prm/blind_docking_40.prm

>  <SCORE>
-22.0416

>  <SCORE.INTER>
-22.3684

>  <SCORE.INTER.CONST>
1

>  <SCORE.INTER.POLAR>
-1.91855

>  <SCORE.INTER.ROT>
0

>  <SCORE.INTER.SOLV>
7.85479

>  <SCORE.INTER.VDW>
-14.7354

>  <SCORE.INTER.norm>
-1.72065

>  <SCORE.INTRA>
0

>  <SCORE.INTRA.DIHEDRAL>
0

>  <SCORE.INTRA.DIHEDRAL.0>
0

>  <SCORE.INTRA.POLAR>
0

>  <SCORE.INTRA.POLAR.0>
0

>  <SCORE.INTRA.REPUL>
0

>  <SCORE.INTRA.REPUL.0>
0

>  <SCORE.INTRA.SOLV>
0

>  <SCORE.INTRA.SOLV.lig_0>
-12.9184

>  <SCORE.INTRA.VDW>
0

>  <SCORE.INTRA.VDW.0>
0

>  <SCORE.INTRA.norm>
0

>  <SCORE.RESTR>
0.326786

>  <SCORE.RESTR.CAVITY>
0.326786

>  <SCORE.RESTR.norm>
0.0251374

>  <SCORE.SYSTEM>
0

>  <SCORE.SYSTEM.CONST>
0

>  <SCORE.SYSTEM.DIHEDRAL>
0

>  <SCORE.SYSTEM.SOLV>
0

>  <SCORE.SYSTEM.norm>
0

>  <SCORE.heavy>
13

>  <SCORE.norm>
-1.69551

>  <RMSD>
2.086

$$$$
1o15_lig
 OpenBabel11021811403D
libRbt.so/2013.1/901 2013/11/27
 13 14  0  0  0  0  0  0  0  0999 V2000
    9.6954    0.1841   34.4273 C   0  0  0  0  0  0  0  0  0  0  0  0
    9.3298    1.3826   34.9993 N   0  0  0  0  0  0  0  0  0  0  0  0
   10.0410    1.8131   36.0743 C   0  0  0  0  0  0  0  0  0  0  0  0
   10.9541    1.0789   36.4433 O   0  0  0  0  0  0  0  0  0  0  0  0
   10.5388    3.3878   37.8409 C   0  0  0  0  0  0  0  0  0  0  0  0
    9.8025    2.9771   36.7502 N   0  0  0  0  0  0  0  0  0  0  0  0
    8.7638    3.6886   36.2344 C   0  0  0  0  0  0  0  0  0  0  0  0
    8.0588    3.2466   35.1527 C   0  0  0  0  0  0  0  0  0  0  0  0
    8.2951    2.0504   34.4500 C   0  0  0  0  0  0  0  0  0  0  0  0
    7.7017    1.5969   33.4748 O   0  0  0  0  0  0  0  0  0  0  0  0
    7.0907    4.2111   34.9129 N   0  0  0  0  0  0  0  0  0  0  0  0
    7.2754    5.1651   35.8592 C   0  0  0  0  0  0  0  0  0  0  0  0
    8.2596    4.9068   36.6773 N   0  0  0  0  0  0  0  0  0  0  0  0
  1  2  1  0  0  0  0
  2  3  1  0  0  0  0
  2  9  1  0  0  0  0
  3  4  2  0  0  0  0
  3  6  1  0  0  0  0
  6  5  1  0  0  0  0
  6  7  1  0  0  0  0
  7  8  2  0  0  0  0
  7 13  1  0  0  0  0
  8  9  1  0  0  0  0
  8 11  1  0  0  0  0
  9 10  2  0  0  0  0
 11 12  1  0  0  0  0
 12 13  2  0  0  0  0
M  END
>  <CHROM.1>
8.93150619,2.69996969,35.62651311,0.84546132,0.68328023,-2.47167681

>  <Name>
1o15_lig

>  <RI>
0

>  <Rbt.Current_Directory>
/home/itssahil/PROJECTS/Mol_Feturizer/New_Systems/rnas/1o15

>  <Rbt.Executable>
rbdock ($Id: //depot/dev/client3/rdock/2013.1/src/exe/rbdock.cxx#4 $)

>  <Rbt.Library>
libRbt.so (2013.1, Build901 2013/11/27)

>  <Rbt.Parameter_File>
/export/apps/rDock/src/rDock_2013.1_src/data/scripts/dock_solv.prm

>  <Rbt.Receptor>
prm/blind_docking_40.prm

>  <SCORE>
-22.0882

>  <SCORE.INTER>
-22.4251

>  <SCORE.INTER.CONST>
1

>  <SCORE.INTER.POLAR>
-1.9192

>  <SCORE.INTER.ROT>
0

>  <SCORE.INTER.SOLV>
7.84481

>  <SCORE.INTER.VDW>
-14.7676

>  <SCORE.INTER.norm>
-1.72501

>  <SCORE.INTRA>
0

>  <SCORE.INTRA.DIHEDRAL>
0

>  <SCORE.INTRA.DIHEDRAL.0>
0

>  <SCORE.INTRA.POLAR>
0

>  <SCORE.INTRA.POLAR.0>
0

>  <SCORE.INTRA.REPUL>
0

>  <SCORE.INTRA.REPUL.0>
0

>  <SCORE.INTRA.SOLV>
0

>  <SCORE.INTRA.SOLV.lig_0>
-12.9184

>  <SCORE.INTRA.VDW>
0

>  <SCORE.INTRA.VDW.0>
0

>  <SCORE.INTRA.norm>
0

>  <SCORE.RESTR>
0.336888

>  <SCORE.RESTR.CAVITY>
0.336888

>  <SCORE.RESTR.norm>
0.0259145

>  <SCORE.SYSTEM>
0

>  <SCORE.SYSTEM.CONST>
0

>  <SCORE.SYSTEM.DIHEDRAL>
0

>  <SCORE.SYSTEM.SOLV>
0

>  <SCORE.SYSTEM.norm>
0

>  <SCORE.heavy>
13

>  <SCORE.norm>
-1.69909

>  <RMSD>
2.086

$$$$
1o15_lig
 OpenBabel11021811403D
libRbt.so/2013.1/901 2013/11/27
 13 14  0  0  0  0  0  0  0  0999 V2000
    9.6862    0.1918   34.4232 C   0  0  0  0  0  0  0  0  0  0  0  0
    9.3355    1.4018   34.9803 N   0  0  0  0  0  0  0  0  0  0  0  0
   10.0648    1.8464   36.0372 C   0  0  0  0  0  0  0  0  0  0  0  0
   10.9794    1.1135   36.4050 O   0  0  0  0  0  0  0  0  0  0  0  0
   10.5970    3.4479   37.7694 C   0  0  0  0  0  0  0  0  0  0  0  0
    9.8424    3.0229   36.6968 N   0  0  0  0  0  0  0  0  0  0  0  0
    8.7999    3.7313   36.1844 C   0  0  0  0  0  0  0  0  0  0  0  0
    8.0766    3.2751   35.1208 C   0  0  0  0  0  0  0  0  0  0  0  0
    8.2962    2.0660   34.4350 C   0  0  0  0  0  0  0  0  0  0  0  0
    7.6860    1.5994   33.4765 O   0  0  0  0  0  0  0  0  0  0  0  0
    7.1101    4.2408   34.8791 N   0  0  0  0  0  0  0  0  0  0  0  0
    7.3139    5.2095   35.8063 C   0  0  0  0  0  0  0  0  0  0  0  0
    8.3088    4.9596   36.6141 N   0  0  0  0  0  0  0  0  0  0  0  0
  1  2  1  0  0  0  0
  2  3  1  0  0  0  0
  2  9  1  0  0  0  0
  3  4  2  0  0  0  0
  3  6  1  0  0  0  0
  6  5  1  0  0  0  0
  6  7  1  0  0  0  0
  7  8  2  0  0  0  0
  7 13  1  0  0  0  0
  8  9  1  0  0  0  0
  8 11  1  0  0  0  0
  9 10  2  0  0  0  0
 11 12  1  0  0  0  0
 12 13  2  0  0  0  0
M  END
>  <CHROM.1>
8.95340731,2.73170361,35.59091947,0.86253750,0.67482727,-2.49925753

>  <Name>
1o15_lig

>  <RI>
0

>  <Rbt.Current_Directory>
/home/itssahil/PROJECTS/Mol_Feturizer/New_Systems/rnas/1o15

>  <Rbt.Executable>
rbdock ($Id: //depot/dev/client3/rdock/2013.1/src/exe/rbdock.cxx#4 $)

>  <Rbt.Library>
libRbt.so (2013.1, Build901 2013/11/27)

>  <Rbt.Parameter_File>
/export/apps/rDock/src/rDock_2013.1_src/data/scripts/dock_solv.prm

>  <Rbt.Receptor>
prm/blind_docking_40.prm

>  <SCORE>
-21.9646

>  <SCORE.INTER>
-22.2659

>  <SCORE.INTER.CONST>
1

>  <SCORE.INTER.POLAR>
-1.90599

>  <SCORE.INTER.ROT>
0

>  <SCORE.INTER.SOLV>
7.86463

>  <SCORE.INTER.VDW>
-14.7121

>  <SCORE.INTER.norm>
-1.71276

>  <SCORE.INTRA>
0

>  <SCORE.INTRA.DIHEDRAL>
0

>  <SCORE.INTRA.DIHEDRAL.0>
0

>  <SCORE.INTRA.POLAR>
0

>  <SCORE.INTRA.POLAR.0>
0

>  <SCORE.INTRA.REPUL>
0

>  <SCORE.INTRA.REPUL.0>
0

>  <SCORE.INTRA.SOLV>
0

>  <SCORE.INTRA.SOLV.lig_0>
-12.9184

>  <SCORE.INTRA.VDW>
0

>  <SCORE.INTRA.VDW.0>
0

>  <SCORE.INTRA.norm>
0

>  <SCORE.RESTR>
0.301256

>  <SCORE.RESTR.CAVITY>
0.301256

>  <SCORE.RESTR.norm>
0.0231735

>  <SCORE.SYSTEM>
0

>  <SCORE.SYSTEM.CONST>
0

>  <SCORE.SYSTEM.DIHEDRAL>
0

>  <SCORE.SYSTEM.SOLV>
0

>  <SCORE.SYSTEM.norm>
0

>  <SCORE.heavy>
13

>  <SCORE.norm>
-1.68958

>  <RMSD>
2.087

$$$$
1o15_lig
 OpenBabel11021811403D
libRbt.so/2013.1/901 2013/11/27
 13 14  0  0  0  0  0  0  0  0999 V2000
    9.6958    0.1535   34.4261 C   0  0  0  0  0  0  0  0  0  0  0  0
    9.3413    1.3637   34.9804 N   0  0  0  0  0  0  0  0  0  0  0  0
   10.0592    1.8055   36.0462 C   0  0  0  0  0  0  0  0  0  0  0  0
   10.9678    1.0702   36.4239 O   0  0  0  0  0  0  0  0  0  0  0  0
   10.5747    3.4040   37.7863 C   0  0  0  0  0  0  0  0  0  0  0  0
    9.8317    2.9819   36.7045 N   0  0  0  0  0  0  0  0  0  0  0  0
    8.7969    3.6931   36.1807 C   0  0  0  0  0  0  0  0  0  0  0  0
    8.0851    3.2396   35.1082 C   0  0  0  0  0  0  0  0  0  0  0  0
    8.3100    2.0307   34.4237 C   0  0  0  0  0  0  0  0  0  0  0  0
    7.7099    1.5666   33.4576 O   0  0  0  0  0  0  0  0  0  0  0  0
    7.1236    4.2077   34.8563 N   0  0  0  0  0  0  0  0  0  0  0  0
    7.3187    5.1750   35.7868 C   0  0  0  0  0  0  0  0  0  0  0  0
    8.3035    4.9220   36.6059 N   0  0  0  0  0  0  0  0  0  0  0  0
  1  2  1  0  0  0  0
  2  3  1  0  0  0  0
  2  9  1  0  0  0  0
  3  4  2  0  0  0  0
  3  6  1  0  0  0  0
  6  5  1  0  0  0  0
  6  7  1  0  0  0  0
  7  8  2  0  0  0  0
  7 13  1  0  0  0  0
  8  9  1  0  0  0  0
  8 11  1  0  0  0  0
  9 10  2  0  0  0  0
 11 12  1  0  0  0  0
 12 13  2  0  0  0  0
M  END
>  <CHROM.1>
8.95507558,2.69378628,35.58793783,0.85579550,0.68551091,-2.49394903

>  <Name>
1o15_lig

>  <RI>
0

>  <Rbt.Current_Directory>
/home/itssahil/PROJECTS/Mol_Feturizer/New_Systems/rnas/1o15

>  <Rbt.Executable>
rbdock ($Id: //depot/dev/client3/rdock/2013.1/src/exe/rbdock.cxx#4 $)

>  <Rbt.Library>
libRbt.so (2013.1, Build901 2013/11/27)

>  <Rbt.Parameter_File>
/export/apps/rDock/src/rDock_2013.1_src/data/scripts/dock_solv.prm

>  <Rbt.Receptor>
prm/blind_docking_40.prm

>  <SCORE>
-21.964

>  <SCORE.INTER>
-22.2841

>  <SCORE.INTER.CONST>
1

>  <SCORE.INTER.POLAR>
-1.9395

>  <SCORE.INTER.ROT>
0

>  <SCORE.INTER.SOLV>
7.83936

>  <SCORE.INTER.VDW>
-14.6042

>  <SCORE.INTER.norm>
-1.71416

>  <SCORE.INTRA>
0

>  <SCORE.INTRA.DIHEDRAL>
0

>  <SCORE.INTRA.DIHEDRAL.0>
0

>  <SCORE.INTRA.POLAR>
0

>  <SCORE.INTRA.POLAR.0>
0

>  <SCORE.INTRA.REPUL>
0

>  <SCORE.INTRA.REPUL.0>
0

>  <SCORE.INTRA.SOLV>
0

>  <SCORE.INTRA.SOLV.lig_0>
-12.9184

>  <SCORE.INTRA.VDW>
0

>  <SCORE.INTRA.VDW.0>
0

>  <SCORE.INTRA.norm>
0

>  <SCORE.RESTR>
0.320102

>  <SCORE.RESTR.CAVITY>
0.320102

>  <SCORE.RESTR.norm>
0.0246233

>  <SCORE.SYSTEM>
0

>  <SCORE.SYSTEM.CONST>
0

>  <SCORE.SYSTEM.DIHEDRAL>
0

>  <SCORE.SYSTEM.SOLV>
0

>  <SCORE.SYSTEM.norm>
0

>  <SCORE.heavy>
13

>  <SCORE.norm>
-1.68954

>  <RMSD>
2.095

$$$$
1o15_lig
 OpenBabel11021811403D
libRbt.so/2013.1/901 2013/11/27
 13 14  0  0  0  0  0  0  0  0999 V2000
    9.7121    0.1485   34.4108 C   0  0  0  0  0  0  0  0  0  0  0  0
    9.3515    1.3531   34.9732 N   0  0  0  0  0  0  0  0  0  0  0  0
   10.0781    1.7997   36.0312 C   0  0  0  0  0  0  0  0  0  0  0  0
   10.9996    1.0734   36.3949 O   0  0  0  0  0  0  0  0  0  0  0  0
   10.5983    3.3986   37.7693 C   0  0  0  0  0  0  0  0  0  0  0  0
    9.8462    2.9715   36.6959 N   0  0  0  0  0  0  0  0  0  0  0  0
    8.7969    3.6728   36.1876 C   0  0  0  0  0  0  0  0  0  0  0  0
    8.0764    3.2146   35.1230 C   0  0  0  0  0  0  0  0  0  0  0  0
    8.3058    2.0103   34.4319 C   0  0  0  0  0  0  0  0  0  0  0  0
    7.6985    1.5424   33.4722 O   0  0  0  0  0  0  0  0  0  0  0  0
    7.1012    4.1728   34.8864 N   0  0  0  0  0  0  0  0  0  0  0  0
    7.2976    5.1394   35.8173 C   0  0  0  0  0  0  0  0  0  0  0  0
    8.2956    4.8950   36.6229 N   0  0  0  0  0  0  0  0  0  0  0  0
  1  2  1  0  0  0  0
  2  3  1  0  0  0  0
  2  9  1  0  0  0  0
  3  4  2  0  0  0  0
  3  6  1  0  0  0  0
  6  5  1  0  0  0  0
  6  7  1  0  0  0  0
  7  8  2  0  0  0  0
  7 13  1  0  0  0  0
  8  9  1  0  0  0  0
  8 11  1  0  0  0  0
  9 10  2  0  0  0  0
 11 12  1  0  0  0  0
 12 13  2  0  0  0  0
M  END
>  <CHROM.1>
8.95848483,2.67703759,35.58980916,0.85449793,0.66860122,-2.49013081

>  <Name>
1o15_lig

>  <RI>
0

>  <Rbt.Current_Directory>
/home/itssahil/PROJECTS/Mol_Feturizer/New_Systems/rnas/1o15

>  <Rbt.Executable>
rbdock ($Id: //depot/dev/client3/rdock/2013.1/src/exe/rbdock.cxx#4 $)

>  <Rbt.Library>
libRbt.so (2013.1, Build901 2013/11/27)

>  <Rbt.Parameter_File>
/export/apps/rDock/src/rDock_2013.1_src/data/scripts/dock_solv.prm

>  <Rbt.Receptor>
prm/blind_docking_40.prm

>  <SCORE>
-21.9375

>  <SCORE.INTER>
-22.2323

>  <SCORE.INTER.CONST>
1

>  <SCORE.INTER.POLAR>
-1.92399

>  <SCORE.INTER.ROT>
0

>  <SCORE.INTER.SOLV>
7.92131

>  <SCORE.INTER.VDW>
-14.6487

>  <SCORE.INTER.norm>
-1.71018

>  <SCORE.INTRA>
0

>  <SCORE.INTRA.DIHEDRAL>
0

>  <SCORE.INTRA.DIHEDRAL.0>
0

>  <SCORE.INTRA.POLAR>
0

>  <SCORE.INTRA.POLAR.0>
0

>  <SCORE.INTRA.REPUL>
0

>  <SCORE.INTRA.REPUL.0>
0

>  <SCORE.INTRA.SOLV>
0

>  <SCORE.INTRA.SOLV.lig_0>
-12.9184

>  <SCORE.INTRA.VDW>
0

>  <SCORE.INTRA.VDW.0>
0

>  <SCORE.INTRA.norm>
0

>  <SCORE.RESTR>
0.294852

>  <SCORE.RESTR.CAVITY>
0.294852

>  <SCORE.RESTR.norm>
0.0226809

>  <SCORE.SYSTEM>
0

>  <SCORE.SYSTEM.CONST>
0

>  <SCORE.SYSTEM.DIHEDRAL>
0

>  <SCORE.SYSTEM.SOLV>
0

>  <SCORE.SYSTEM.norm>
0

>  <SCORE.heavy>
13

>  <SCORE.norm>
-1.6875

>  <RMSD>
2.102

$$$$
1o15_lig
 OpenBabel11021811403D
libRbt.so/2013.1/901 2013/11/27
 13 14  0  0  0  0  0  0  0  0999 V2000
    9.5926    0.6860   34.1291 C   0  0  0  0  0  0  0  0  0  0  0  0
    9.4032    1.7887   34.9326 N   0  0  0  0  0  0  0  0  0  0  0  0
    9.6789    1.6608   36.2571 C   0  0  0  0  0  0  0  0  0  0  0  0
   10.0727    0.5551   36.6194 O   0  0  0  0  0  0  0  0  0  0  0  0
    9.8269    2.5001   38.5202 C   0  0  0  0  0  0  0  0  0  0  0  0
    9.5425    2.6592   37.1808 N   0  0  0  0  0  0  0  0  0  0  0  0
    9.0980    3.8263   36.6409 C   0  0  0  0  0  0  0  0  0  0  0  0
    8.8269    3.9428   35.3084 C   0  0  0  0  0  0  0  0  0  0  0  0
    8.9631    2.9221   34.3493 C   0  0  0  0  0  0  0  0  0  0  0  0
    8.7377    2.9607   33.1424 O   0  0  0  0  0  0  0  0  0  0  0  0
    8.4015    5.2503   35.1224 N   0  0  0  0  0  0  0  0  0  0  0  0
    8.4449    5.8321   36.3468 C   0  0  0  0  0  0  0  0  0  0  0  0
    8.8522    5.0300   37.2931 N   0  0  0  0  0  0  0  0  0  0  0  0
  1  2  1  0  0  0  0
  2  3  1  0  0  0  0
  2  9  1  0  0  0  0
  3  4  2  0  0  0  0
  3  6  1  0  0  0  0
  6  5  1  0  0  0  0
  6  7  1  0  0  0  0
  7  8  2  0  0  0  0
  7 13  1  0  0  0  0
  8  9  1  0  0  0  0
  8 11  1  0  0  0  0
  9 10  2  0  0  0  0
 11 12  1  0  0  0  0
 12 13  2  0  0  0  0
M  END
>  <CHROM.1>
9.19873291,2.99959112,35.81543046,0.76527923,1.23611174,-2.10479971

>  <Name>
1o15_lig

>  <RI>
0

>  <Rbt.Current_Directory>
/home/itssahil/PROJECTS/Mol_Feturizer/New_Systems/rnas/1o15

>  <Rbt.Executable>
rbdock ($Id: //depot/dev/client3/rdock/2013.1/src/exe/rbdock.cxx#4 $)

>  <Rbt.Library>
libRbt.so (2013.1, Build901 2013/11/27)

>  <Rbt.Parameter_File>
/export/apps/rDock/src/rDock_2013.1_src/data/scripts/dock_solv.prm

>  <Rbt.Receptor>
prm/blind_docking_40.prm

>  <SCORE>
-16.9252

>  <SCORE.INTER>
-17.3454

>  <SCORE.INTER.CONST>
1

>  <SCORE.INTER.POLAR>
-1.07703

>  <SCORE.INTER.ROT>
0

>  <SCORE.INTER.SOLV>
6.38355

>  <SCORE.INTER.VDW>
-13.7014

>  <SCORE.INTER.norm>
-1.33426

>  <SCORE.INTRA>
0

>  <SCORE.INTRA.DIHEDRAL>
0

>  <SCORE.INTRA.DIHEDRAL.0>
0

>  <SCORE.INTRA.POLAR>
0

>  <SCORE.INTRA.POLAR.0>
0

>  <SCORE.INTRA.REPUL>
0

>  <SCORE.INTRA.REPUL.0>
0

>  <SCORE.INTRA.SOLV>
0

>  <SCORE.INTRA.SOLV.lig_0>
-12.9184

>  <SCORE.INTRA.VDW>
0

>  <SCORE.INTRA.VDW.0>
0

>  <SCORE.INTRA.norm>
0

>  <SCORE.RESTR>
0.420238

>  <SCORE.RESTR.CAVITY>
0.420238

>  <SCORE.RESTR.norm>
0.032326

>  <SCORE.SYSTEM>
0

>  <SCORE.SYSTEM.CONST>
0

>  <SCORE.SYSTEM.DIHEDRAL>
0

>  <SCORE.SYSTEM.SOLV>
0

>  <SCORE.SYSTEM.norm>
0

>  <SCORE.heavy>
13

>  <SCORE.norm>
-1.30194

>  <RMSD>
2.282

$$$$
1o15_lig
 OpenBabel11021811403D
libRbt.so/2013.1/901 2013/11/27
 13 14  0  0  0  0  0  0  0  0999 V2000
   10.1396    2.3537   38.6053 C   0  0  0  0  0  0  0  0  0  0  0  0
    9.7371    2.5159   37.2979 N   0  0  0  0  0  0  0  0  0  0  0  0
    9.8015    3.7651   36.7669 C   0  0  0  0  0  0  0  0  0  0  0  0
   10.2146    4.6466   37.5160 O   0  0  0  0  0  0  0  0  0  0  0  0
    9.5123    5.3653   34.9768 C   0  0  0  0  0  0  0  0  0  0  0  0
    9.4395    4.0874   35.4886 N   0  0  0  0  0  0  0  0  0  0  0  0
    9.0008    3.0160   34.7738 C   0  0  0  0  0  0  0  0  0  0  0  0
    8.9431    1.7658   35.3179 C   0  0  0  0  0  0  0  0  0  0  0  0
    9.3124    1.4230   36.6319 C   0  0  0  0  0  0  0  0  0  0  0  0
    9.2851    0.3243   37.1806 O   0  0  0  0  0  0  0  0  0  0  0  0
    8.4545    0.9399   34.3158 N   0  0  0  0  0  0  0  0  0  0  0  0
    8.2522    1.7414   33.2405 C   0  0  0  0  0  0  0  0  0  0  0  0
    8.5597    2.9921   33.4550 N   0  0  0  0  0  0  0  0  0  0  0  0
  1  2  1  0  0  0  0
  2  3  1  0  0  0  0
  2  9  1  0  0  0  0
  3  4  2  0  0  0  0
  3  6  1  0  0  0  0
  6  5  1  0  0  0  0
  6  7  1  0  0  0  0
  7  8  2  0  0  0  0
  7 13  1  0  0  0  0
  8  9  1  0  0  0  0
  8 11  1  0  0  0  0
  9 10  2  0  0  0  0
 11 12  1  0  0  0  0
 12 13  2  0  0  0  0
M  END
>  <CHROM.1>
9.29841907,2.69482088,35.86159573,0.23516617,1.20697492,2.62047481

>  <Name>
1o15_lig

>  <RI>
0

>  <Rbt.Current_Directory>
/home/itssahil/PROJECTS/Mol_Feturizer/New_Systems/rnas/1o15

>  <Rbt.Executable>
rbdock ($Id: //depot/dev/client3/rdock/2013.1/src/exe/rbdock.cxx#4 $)

>  <Rbt.Library>
libRbt.so (2013.1, Build901 2013/11/27)

>  <Rbt.Parameter_File>
/export/apps/rDock/src/rDock_2013.1_src/data/scripts/dock_solv.prm

>  <Rbt.Receptor>
prm/blind_docking_40.prm

>  <SCORE>
-11.8403

>  <SCORE.INTER>
-12.5025

>  <SCORE.INTER.CONST>
1

>  <SCORE.INTER.POLAR>
0

>  <SCORE.INTER.ROT>
0

>  <SCORE.INTER.SOLV>
5.80616

>  <SCORE.INTER.VDW>
-13.8704

>  <SCORE.INTER.norm>
-0.961728

>  <SCORE.INTRA>
0

>  <SCORE.INTRA.DIHEDRAL>
0

>  <SCORE.INTRA.DIHEDRAL.0>
0

>  <SCORE.INTRA.POLAR>
0

>  <SCORE.INTRA.POLAR.0>
0

>  <SCORE.INTRA.REPUL>
0

>  <SCORE.INTRA.REPUL.0>
0

>  <SCORE.INTRA.SOLV>
0

>  <SCORE.INTRA.SOLV.lig_0>
-12.9184

>  <SCORE.INTRA.VDW>
0

>  <SCORE.INTRA.VDW.0>
0

>  <SCORE.INTRA.norm>
0

>  <SCORE.RESTR>
0.662127

>  <SCORE.RESTR.CAVITY>
0.662127

>  <SCORE.RESTR.norm>
0.0509329

>  <SCORE.SYSTEM>
0

>  <SCORE.SYSTEM.CONST>
0

>  <SCORE.SYSTEM.DIHEDRAL>
0

>  <SCORE.SYSTEM.SOLV>
0

>  <SCORE.SYSTEM.norm>
0

>  <SCORE.heavy>
13

>  <SCORE.norm>
-0.910795

>  <RMSD>
2.915

$$$$
1o15_lig
 OpenBabel11021811403D
libRbt.so/2013.1/901 2013/11/27
 13 14  0  0  0  0  0  0  0  0999 V2000
   10.3277    2.6255   38.7864 C   0  0  0  0  0  0  0  0  0  0  0  0
    9.8805    2.6799   37.4847 N   0  0  0  0  0  0  0  0  0  0  0  0
    9.8584    3.8937   36.8740 C   0  0  0  0  0  0  0  0  0  0  0  0
   10.2406    4.8435   37.5527 O   0  0  0  0  0  0  0  0  0  0  0  0
    9.4282    5.3559   34.9964 C   0  0  0  0  0  0  0  0  0  0  0  0
    9.4431    4.1117   35.5900 N   0  0  0  0  0  0  0  0  0  0  0  0
    9.0471    2.9736   34.9584 C   0  0  0  0  0  0  0  0  0  0  0  0
    9.0764    1.7600   35.5819 C   0  0  0  0  0  0  0  0  0  0  0  0
    9.5011    1.5242   36.9027 C   0  0  0  0  0  0  0  0  0  0  0  0
    9.5521    0.4636   37.5203 O   0  0  0  0  0  0  0  0  0  0  0  0
    8.6086    0.8449   34.6498 N   0  0  0  0  0  0  0  0  0  0  0  0
    8.3308    1.5626   33.5328 C   0  0  0  0  0  0  0  0  0  0  0  0
    8.5718    2.8397   33.6581 N   0  0  0  0  0  0  0  0  0  0  0  0
  1  2  1  0  0  0  0
  2  3  1  0  0  0  0
  2  9  1  0  0  0  0
  3  4  2  0  0  0  0
  3  6  1  0  0  0  0
  6  5  1  0  0  0  0
  6  7  1  0  0  0  0
  7  8  2  0  0  0  0
  7 13  1  0  0  0  0
  8  9  1  0  0  0  0
  8 11  1  0  0  0  0
  9 10  2  0  0  0  0
 11 12  1  0  0  0  0
 12 13  2  0  0  0  0
M  END
>  <CHROM.1>
9.39270679,2.74062838,36.05439564,0.05576519,1.20622430,2.72404819

>  <Name>
1o15_lig

>  <RI>
0

>  <Rbt.Current_Directory>
/home/itssahil/PROJECTS/Mol_Feturizer/New_Systems/rnas/1o15

>  <Rbt.Executable>
rbdock ($Id: //depot/dev/client3/rdock/2013.1/src/exe/rbdock.cxx#4 $)

>  <Rbt.Library>
libRbt.so (2013.1, Build901 2013/11/27)

>  <Rbt.Parameter_File>
/export/apps/rDock/src/rDock_2013.1_src/data/scripts/dock_solv.prm

>  <Rbt.Receptor>
prm/pocket_docking_7.prm

>  <SCORE>
-13.5194

>  <SCORE.INTER>
-13.5194

>  <SCORE.INTER.CONST>
1

>  <SCORE.INTER.POLAR>
0

>  <SCORE.INTER.ROT>
0

>  <SCORE.INTER.SOLV>
5.26153

>  <SCORE.INTER.VDW>
-14.3668

>  <SCORE.INTER.norm>
-1.03995

>  <SCORE.INTRA>
0

>  <SCORE.INTRA.DIHEDRAL>
0

>  <SCORE.INTRA.DIHEDRAL.0>
0

>  <SCORE.INTRA.POLAR>
0

>  <SCORE.INTRA.POLAR.0>
0

>  <SCORE.INTRA.REPUL>
0

>  <SCORE.INTRA.REPUL.0>
0

>  <SCORE.INTRA.SOLV>
0

>  <SCORE.INTRA.SOLV.lig_0>
-12.9184

>  <SCORE.INTRA.VDW>
0

>  <SCORE.INTRA.VDW.0>
0

>  <SCORE.INTRA.norm>
0

>  <SCORE.RESTR>
0

>  <SCORE.RESTR.CAVITY>
0

>  <SCORE.RESTR.norm>
0

>  <SCORE.SYSTEM>
0

>  <SCORE.SYSTEM.CONST>
0

>  <SCORE.SYSTEM.DIHEDRAL>
0

>  <SCORE.SYSTEM.SOLV>
0

>  <SCORE.SYSTEM.norm>
0

>  <SCORE.heavy>
13

>  <SCORE.norm>
-1.03995

>  <RMSD>
2.947

$$$$
1o15_lig
 OpenBabel11021811403D
libRbt.so/2013.1/901 2013/11/27
 13 14  0  0  0  0  0  0  0  0999 V2000
   11.3989    5.1074   38.4474 C   0  0  0  0  0  0  0  0  0  0  0  0
   10.4452    4.4037   37.7455 N   0  0  0  0  0  0  0  0  0  0  0  0
   10.1558    3.1429   38.1620 C   0  0  0  0  0  0  0  0  0  0  0  0
   10.7853    2.7416   39.1375 O   0  0  0  0  0  0  0  0  0  0  0  0
    8.9657    1.0428   38.0151 C   0  0  0  0  0  0  0  0  0  0  0  0
    9.2369    2.3200   37.5727 N   0  0  0  0  0  0  0  0  0  0  0  0
    8.6173    2.8924   36.5053 C   0  0  0  0  0  0  0  0  0  0  0  0
    8.9151    4.1606   36.0983 C   0  0  0  0  0  0  0  0  0  0  0  0
    9.8590    5.0158   36.6967 C   0  0  0  0  0  0  0  0  0  0  0  0
   10.1729    6.1610   36.3821 O   0  0  0  0  0  0  0  0  0  0  0  0
    8.1040    4.4050   34.9995 N   0  0  0  0  0  0  0  0  0  0  0  0
    7.3749    3.2757   34.8183 C   0  0  0  0  0  0  0  0  0  0  0  0
    7.6391    2.3374   35.6869 N   0  0  0  0  0  0  0  0  0  0  0  0
  1  2  1  0  0  0  0
  2  3  1  0  0  0  0
  2  9  1  0  0  0  0
  3  4  2  0  0  0  0
  3  6  1  0  0  0  0
  6  5  1  0  0  0  0
  6  7  1  0  0  0  0
  7  8  2  0  0  0  0
  7 13  1  0  0  0  0
  8  9  1  0  0  0  0
  8 11  1  0  0  0  0
  9 10  2  0  0  0  0
 11 12  1  0  0  0  0
 12 13  2  0  0  0  0
M  END
>  <CHROM.1>
9.39596069,3.63099312,36.97768990,-0.19798510,-0.78930090,-0.53744211

>  <Name>
1o15_lig

>  <RI>
0

>  <Rbt.Current_Directory>
/home/itssahil/PROJECTS/Mol_Feturizer/New_Systems/rnas/1o15

>  <Rbt.Executable>
rbdock ($Id: //depot/dev/client3/rdock/2013.1/src/exe/rbdock.cxx#4 $)

>  <Rbt.Library>
libRbt.so (2013.1, Build901 2013/11/27)

>  <Rbt.Parameter_File>
/export/apps/rDock/src/rDock_2013.1_src/data/scripts/dock_solv.prm

>  <Rbt.Receptor>
prm/pocket_docking_5.prm

>  <SCORE>
-23.0379

>  <SCORE.INTER>
-23.0379

>  <SCORE.INTER.CONST>
1

>  <SCORE.INTER.POLAR>
-1.87244

>  <SCORE.INTER.ROT>
0

>  <SCORE.INTER.SOLV>
5.06401

>  <SCORE.INTER.VDW>
-14.4052

>  <SCORE.INTER.norm>
-1.77215

>  <SCORE.INTRA>
0

>  <SCORE.INTRA.DIHEDRAL>
0

>  <SCORE.INTRA.DIHEDRAL.0>
0

>  <SCORE.INTRA.POLAR>
0

>  <SCORE.INTRA.POLAR.0>
0

>  <SCORE.INTRA.REPUL>
0

>  <SCORE.INTRA.REPUL.0>
0

>  <SCORE.INTRA.SOLV>
0

>  <SCORE.INTRA.SOLV.lig_0>
-12.9184

>  <SCORE.INTRA.VDW>
0

>  <SCORE.INTRA.VDW.0>
0

>  <SCORE.INTRA.norm>
0

>  <SCORE.RESTR>
0

>  <SCORE.RESTR.CAVITY>
0

>  <SCORE.RESTR.norm>
0

>  <SCORE.SYSTEM>
0

>  <SCORE.SYSTEM.CONST>
0

>  <SCORE.SYSTEM.DIHEDRAL>
0

>  <SCORE.SYSTEM.SOLV>
0

>  <SCORE.SYSTEM.norm>
0

>  <SCORE.heavy>
13

>  <SCORE.norm>
-1.77215

>  <RMSD>
3.085

$$$$
1o15_lig
 OpenBabel11021811403D
libRbt.so/2013.1/901 2013/11/27
 13 14  0  0  0  0  0  0  0  0999 V2000
   11.3930    5.1139   38.4527 C   0  0  0  0  0  0  0  0  0  0  0  0
   10.4415    4.4082   37.7498 N   0  0  0  0  0  0  0  0  0  0  0  0
   10.1522    3.1479   38.1676 C   0  0  0  0  0  0  0  0  0  0  0  0
   10.7798    2.7488   39.1453 O   0  0  0  0  0  0  0  0  0  0  0  0
    8.9643    1.0465   38.0214 C   0  0  0  0  0  0  0  0  0  0  0  0
    9.2354    2.3232   37.5776 N   0  0  0  0  0  0  0  0  0  0  0  0
    8.6179    2.8933   36.5077 C   0  0  0  0  0  0  0  0  0  0  0  0
    8.9155    4.1610   36.0994 C   0  0  0  0  0  0  0  0  0  0  0  0
    9.8573    5.0181   36.6986 C   0  0  0  0  0  0  0  0  0  0  0  0
   10.1709    6.1630   36.3828 O   0  0  0  0  0  0  0  0  0  0  0  0
    8.1068    4.4029   34.9982 N   0  0  0  0  0  0  0  0  0  0  0  0
    7.3792    3.2727   34.8172 C   0  0  0  0  0  0  0  0  0  0  0  0
    7.6421    2.3360   35.6880 N   0  0  0  0  0  0  0  0  0  0  0  0
  1  2  1  0  0  0  0
  2  3  1  0  0  0  0
  2  9  1  0  0  0  0
  3  4  2  0  0  0  0
  3  6  1  0  0  0  0
  6  5  1  0  0  0  0
  6  7  1  0  0  0  0
  7  8  2  0  0  0  0
  7 13  1  0  0  0  0
  8  9  1  0  0  0  0
  8 11  1  0  0  0  0
  9 10  2  0  0  0  0
 11 12  1  0  0  0  0
 12 13  2  0  0  0  0
M  END
>  <CHROM.1>
9.39478465,3.63333361,36.98073462,-0.19865822,-0.79177205,-0.53959237

>  <Name>
1o15_lig

>  <RI>
0

>  <Rbt.Current_Directory>
/home/itssahil/PROJECTS/Mol_Feturizer/New_Systems/rnas/1o15

>  <Rbt.Executable>
rbdock ($Id: //depot/dev/client3/rdock/2013.1/src/exe/rbdock.cxx#4 $)

>  <Rbt.Library>
libRbt.so (2013.1, Build901 2013/11/27)

>  <Rbt.Parameter_File>
/export/apps/rDock/src/rDock_2013.1_src/data/scripts/dock_solv.prm

>  <Rbt.Receptor>
prm/pocket_docking_4.prm

>  <SCORE>
-23.0453

>  <SCORE.INTER>
-23.0453

>  <SCORE.INTER.CONST>
1

>  <SCORE.INTER.POLAR>
-1.87569

>  <SCORE.INTER.ROT>
0

>  <SCORE.INTER.SOLV>
5.07041

>  <SCORE.INTER.VDW>
-14.4014

>  <SCORE.INTER.norm>
-1.77271

>  <SCORE.INTRA>
0

>  <SCORE.INTRA.DIHEDRAL>
0

>  <SCORE.INTRA.DIHEDRAL.0>
0

>  <SCORE.INTRA.POLAR>
0

>  <SCORE.INTRA.POLAR.0>
0

>  <SCORE.INTRA.REPUL>
0

>  <SCORE.INTRA.REPUL.0>
0

>  <SCORE.INTRA.SOLV>
0

>  <SCORE.INTRA.SOLV.lig_0>
-12.9184

>  <SCORE.INTRA.VDW>
0

>  <SCORE.INTRA.VDW.0>
0

>  <SCORE.INTRA.norm>
0

>  <SCORE.RESTR>
0

>  <SCORE.RESTR.CAVITY>
0

>  <SCORE.RESTR.norm>
0

>  <SCORE.SYSTEM>
0

>  <SCORE.SYSTEM.CONST>
0

>  <SCORE.SYSTEM.DIHEDRAL>
0

>  <SCORE.SYSTEM.SOLV>
0

>  <SCORE.SYSTEM.norm>
0

>  <SCORE.heavy>
13

>  <SCORE.norm>
-1.77271

>  <RMSD>
3.086

$$$$
1o15_lig
 OpenBabel11021811403D
libRbt.so/2013.1/901 2013/11/27
 13 14  0  0  0  0  0  0  0  0999 V2000
   11.3904    5.1155   38.4537 C   0  0  0  0  0  0  0  0  0  0  0  0
   10.4390    4.4100   37.7504 N   0  0  0  0  0  0  0  0  0  0  0  0
   10.1491    3.1499   38.1683 C   0  0  0  0  0  0  0  0  0  0  0  0
   10.7760    2.7507   39.1463 O   0  0  0  0  0  0  0  0  0  0  0  0
    8.9604    1.0489   38.0218 C   0  0  0  0  0  0  0  0  0  0  0  0
    9.2323    2.3254   37.5779 N   0  0  0  0  0  0  0  0  0  0  0  0
    8.6154    2.8956   36.5076 C   0  0  0  0  0  0  0  0  0  0  0  0
    8.9137    4.1632   36.0992 C   0  0  0  0  0  0  0  0  0  0  0  0
    9.8555    5.0200   36.6988 C   0  0  0  0  0  0  0  0  0  0  0  0
   10.1698    6.1647   36.3830 O   0  0  0  0  0  0  0  0  0  0  0  0
    8.1057    4.4052   34.9976 N   0  0  0  0  0  0  0  0  0  0  0  0
    7.3777    3.2752   34.8164 C   0  0  0  0  0  0  0  0  0  0  0  0
    7.6399    2.3386   35.6875 N   0  0  0  0  0  0  0  0  0  0  0  0
  1  2  1  0  0  0  0
  2  3  1  0  0  0  0
  2  9  1  0  0  0  0
  3  4  2  0  0  0  0
  3  6  1  0  0  0  0
  6  5  1  0  0  0  0
  6  7  1  0  0  0  0
  7  8  2  0  0  0  0
  7 13  1  0  0  0  0
  8  9  1  0  0  0  0
  8 11  1  0  0  0  0
  9 10  2  0  0  0  0
 11 12  1  0  0  0  0
 12 13  2  0  0  0  0
M  END
>  <CHROM.1>
9.39238488,3.63543609,36.98091869,-0.19947860,-0.79200963,-0.54032503

>  <Name>
1o15_lig

>  <RI>
0

>  <Rbt.Current_Directory>
/home/itssahil/PROJECTS/Mol_Feturizer/New_Systems/rnas/1o15

>  <Rbt.Executable>
rbdock ($Id: //depot/dev/client3/rdock/2013.1/src/exe/rbdock.cxx#4 $)

>  <Rbt.Library>
libRbt.so (2013.1, Build901 2013/11/27)

>  <Rbt.Parameter_File>
/export/apps/rDock/src/rDock_2013.1_src/data/scripts/dock_solv.prm

>  <Rbt.Receptor>
prm/pocket_docking_7.prm

>  <SCORE>
-23.046

>  <SCORE.INTER>
-23.046

>  <SCORE.INTER.CONST>
1

>  <SCORE.INTER.POLAR>
-1.87709

>  <SCORE.INTER.ROT>
0

>  <SCORE.INTER.SOLV>
5.08061

>  <SCORE.INTER.VDW>
-14.4006

>  <SCORE.INTER.norm>
-1.77277

>  <SCORE.INTRA>
0

>  <SCORE.INTRA.DIHEDRAL>
0

>  <SCORE.INTRA.DIHEDRAL.0>
0

>  <SCORE.INTRA.POLAR>
0

>  <SCORE.INTRA.POLAR.0>
0

>  <SCORE.INTRA.REPUL>
0

>  <SCORE.INTRA.REPUL.0>
0

>  <SCORE.INTRA.SOLV>
0

>  <SCORE.INTRA.SOLV.lig_0>
-12.9184

>  <SCORE.INTRA.VDW>
0

>  <SCORE.INTRA.VDW.0>
0

>  <SCORE.INTRA.norm>
0

>  <SCORE.RESTR>
0

>  <SCORE.RESTR.CAVITY>
0

>  <SCORE.RESTR.norm>
0

>  <SCORE.SYSTEM>
0

>  <SCORE.SYSTEM.CONST>
0

>  <SCORE.SYSTEM.DIHEDRAL>
0

>  <SCORE.SYSTEM.SOLV>
0

>  <SCORE.SYSTEM.norm>
0

>  <SCORE.heavy>
13

>  <SCORE.norm>
-1.77277

>  <RMSD>
3.086

$$$$
1o15_lig
 OpenBabel11021811403D
libRbt.so/2013.1/901 2013/11/27
 13 14  0  0  0  0  0  0  0  0999 V2000
   10.9998    3.6980   39.1049 C   0  0  0  0  0  0  0  0  0  0  0  0
    9.9984    3.8945   38.1797 N   0  0  0  0  0  0  0  0  0  0  0  0
    9.4709    2.7972   37.5762 C   0  0  0  0  0  0  0  0  0  0  0  0
    9.9477    1.7168   37.9143 O   0  0  0  0  0  0  0  0  0  0  0  0
    7.9607    1.6964   36.0413 C   0  0  0  0  0  0  0  0  0  0  0  0
    8.4750    2.8265   36.6401 N   0  0  0  0  0  0  0  0  0  0  0  0
    8.0437    4.0865   36.3616 C   0  0  0  0  0  0  0  0  0  0  0  0
    8.5799    5.1805   36.9764 C   0  0  0  0  0  0  0  0  0  0  0  0
    9.6051    5.1620   37.9404 C   0  0  0  0  0  0  0  0  0  0  0  0
   10.1295    6.1041   38.5289 O   0  0  0  0  0  0  0  0  0  0  0  0
    7.9078    6.2755   36.4527 N   0  0  0  0  0  0  0  0  0  0  0  0
    7.0160    5.7725   35.5632 C   0  0  0  0  0  0  0  0  0  0  0  0
    7.0520    4.4710   35.4653 N   0  0  0  0  0  0  0  0  0  0  0  0
  1  2  1  0  0  0  0
  2  3  1  0  0  0  0
  2  9  1  0  0  0  0
  3  4  2  0  0  0  0
  3  6  1  0  0  0  0
  6  5  1  0  0  0  0
  6  7  1  0  0  0  0
  7  8  2  0  0  0  0
  7 13  1  0  0  0  0
  8  9  1  0  0  0  0
  8 11  1  0  0  0  0
  9 10  2  0  0  0  0
 11 12  1  0  0  0  0
 12 13  2  0  0  0  0
M  END
>  <CHROM.1>
8.89651634,4.10867112,37.16603967,-0.45157080,-0.75281502,0.10053980

>  <Name>
1o15_lig

>  <RI>
0

>  <Rbt.Current_Directory>
/home/itssahil/PROJECTS/Mol_Feturizer/New_Systems/rnas/1o15

>  <Rbt.Executable>
rbdock ($Id: //depot/dev/client3/rdock/2013.1/src/exe/rbdock.cxx#4 $)

>  <Rbt.Library>
libRbt.so (2013.1, Build901 2013/11/27)

>  <Rbt.Parameter_File>
/export/apps/rDock/src/rDock_2013.1_src/data/scripts/dock_solv.prm

>  <Rbt.Receptor>
prm/pocket_docking_2.prm

>  <SCORE>
-14.6334

>  <SCORE.INTER>
-14.6423

>  <SCORE.INTER.CONST>
1

>  <SCORE.INTER.POLAR>
0

>  <SCORE.INTER.ROT>
0

>  <SCORE.INTER.SOLV>
7.41878

>  <SCORE.INTER.VDW>
-15.8345

>  <SCORE.INTER.norm>
-1.12633

>  <SCORE.INTRA>
0

>  <SCORE.INTRA.DIHEDRAL>
0

>  <SCORE.INTRA.DIHEDRAL.0>
0

>  <SCORE.INTRA.POLAR>
0

>  <SCORE.INTRA.POLAR.0>
0

>  <SCORE.INTRA.REPUL>
0

>  <SCORE.INTRA.REPUL.0>
0

>  <SCORE.INTRA.SOLV>
0

>  <SCORE.INTRA.SOLV.lig_0>
-12.9184

>  <SCORE.INTRA.VDW>
0

>  <SCORE.INTRA.VDW.0>
0

>  <SCORE.INTRA.norm>
0

>  <SCORE.RESTR>
0.00894667

>  <SCORE.RESTR.CAVITY>
0.00894667

>  <SCORE.RESTR.norm>
0.000688205

>  <SCORE.SYSTEM>
0

>  <SCORE.SYSTEM.CONST>
0

>  <SCORE.SYSTEM.DIHEDRAL>
0

>  <SCORE.SYSTEM.SOLV>
0

>  <SCORE.SYSTEM.norm>
0

>  <SCORE.heavy>
13

>  <SCORE.norm>
-1.12564

>  <RMSD>
3.142

$$$$
1o15_lig
 OpenBabel11021811403D
libRbt.so/2013.1/901 2013/11/27
 13 14  0  0  0  0  0  0  0  0999 V2000
    8.3134    0.9133   37.3590 C   0  0  0  0  0  0  0  0  0  0  0  0
    8.5474    2.2707   37.3454 N   0  0  0  0  0  0  0  0  0  0  0  0
    7.8816    3.0179   36.4261 C   0  0  0  0  0  0  0  0  0  0  0  0
    7.1256    2.4021   35.6790 O   0  0  0  0  0  0  0  0  0  0  0  0
    7.3190    5.1050   35.3417 C   0  0  0  0  0  0  0  0  0  0  0  0
    8.0052    4.3722   36.2865 N   0  0  0  0  0  0  0  0  0  0  0  0
    8.8747    4.9217   37.1770 C   0  0  0  0  0  0  0  0  0  0  0  0
    9.5355    4.1607   38.0972 C   0  0  0  0  0  0  0  0  0  0  0  0
    9.4164    2.7667   38.2494 C   0  0  0  0  0  0  0  0  0  0  0  0
    9.9788    2.0262   39.0520 O   0  0  0  0  0  0  0  0  0  0  0  0
   10.3231    5.0435   38.8220 N   0  0  0  0  0  0  0  0  0  0  0  0
   10.0860    6.2705   38.2949 C   0  0  0  0  0  0  0  0  0  0  0  0
    9.2304    6.2599   37.3087 N   0  0  0  0  0  0  0  0  0  0  0  0
  1  2  1  0  0  0  0
  2  3  1  0  0  0  0
  2  9  1  0  0  0  0
  3  4  2  0  0  0  0
  3  6  1  0  0  0  0
  6  5  1  0  0  0  0
  6  7  1  0  0  0  0
  7  8  2  0  0  0  0
  7 13  1  0  0  0  0
  8  9  1  0  0  0  0
  8 11  1  0  0  0  0
  9 10  2  0  0  0  0
 11 12  1  0  0  0  0
 12 13  2  0  0  0  0
M  END
>  <CHROM.1>
8.80097644,3.76167161,37.33151154,-2.20581313,-0.84656682,-0.20448710

>  <Name>
1o15_lig

>  <RI>
0

>  <Rbt.Current_Directory>
/home/itssahil/PROJECTS/Mol_Feturizer/New_Systems/rnas/1o15

>  <Rbt.Executable>
rbdock ($Id: //depot/dev/client3/rdock/2013.1/src/exe/rbdock.cxx#4 $)

>  <Rbt.Library>
libRbt.so (2013.1, Build901 2013/11/27)

>  <Rbt.Parameter_File>
/export/apps/rDock/src/rDock_2013.1_src/data/scripts/dock_solv.prm

>  <Rbt.Receptor>
prm/blind_docking_80.prm

>  <SCORE>
-17.6504

>  <SCORE.INTER>
-17.6504

>  <SCORE.INTER.CONST>
1

>  <SCORE.INTER.POLAR>
-0.596262

>  <SCORE.INTER.ROT>
0

>  <SCORE.INTER.SOLV>
7.42684

>  <SCORE.INTER.VDW>
-15.855

>  <SCORE.INTER.norm>
-1.35772

>  <SCORE.INTRA>
0

>  <SCORE.INTRA.DIHEDRAL>
0

>  <SCORE.INTRA.DIHEDRAL.0>
0

>  <SCORE.INTRA.POLAR>
0

>  <SCORE.INTRA.POLAR.0>
0

>  <SCORE.INTRA.REPUL>
0

>  <SCORE.INTRA.REPUL.0>
0

>  <SCORE.INTRA.SOLV>
0

>  <SCORE.INTRA.SOLV.lig_0>
-12.9184

>  <SCORE.INTRA.VDW>
0

>  <SCORE.INTRA.VDW.0>
0

>  <SCORE.INTRA.norm>
0

>  <SCORE.RESTR>
0

>  <SCORE.RESTR.CAVITY>
0

>  <SCORE.RESTR.norm>
0

>  <SCORE.SYSTEM>
0

>  <SCORE.SYSTEM.CONST>
0

>  <SCORE.SYSTEM.DIHEDRAL>
0

>  <SCORE.SYSTEM.SOLV>
0

>  <SCORE.SYSTEM.norm>
0

>  <SCORE.heavy>
13

>  <SCORE.norm>
-1.35772

>  <RMSD>
3.161

$$$$
1o15_lig
 OpenBabel11021811403D
libRbt.so/2013.1/901 2013/11/27
 13 14  0  0  0  0  0  0  0  0999 V2000
   10.1077    3.2125   38.9153 C   0  0  0  0  0  0  0  0  0  0  0  0
    9.4822    3.1298   37.6909 N   0  0  0  0  0  0  0  0  0  0  0  0
    8.8415    4.2369   37.2320 C   0  0  0  0  0  0  0  0  0  0  0  0
    8.8770    5.2211   37.9662 O   0  0  0  0  0  0  0  0  0  0  0  0
    7.5318    5.4503   35.6009 C   0  0  0  0  0  0  0  0  0  0  0  0
    8.1765    4.3137   36.0402 N   0  0  0  0  0  0  0  0  0  0  0  0
    8.2176    3.1526   35.3322 C   0  0  0  0  0  0  0  0  0  0  0  0
    8.8666    2.0482   35.8028 C   0  0  0  0  0  0  0  0  0  0  0  0
    9.5535    1.9578   37.0277 C   0  0  0  0  0  0  0  0  0  0  0  0
   10.1547    1.0001   37.5077 O   0  0  0  0  0  0  0  0  0  0  0  0
    8.7002    1.0702   34.8328 N   0  0  0  0  0  0  0  0  0  0  0  0
    7.9674    1.6462   33.8474 C   0  0  0  0  0  0  0  0  0  0  0  0
    7.6488    2.8889   34.0906 N   0  0  0  0  0  0  0  0  0  0  0  0
  1  2  1  0  0  0  0
  2  3  1  0  0  0  0
  2  9  1  0  0  0  0
  3  4  2  0  0  0  0
  3  6  1  0  0  0  0
  6  5  1  0  0  0  0
  6  7  1  0  0  0  0
  7  8  2  0  0  0  0
  7 13  1  0  0  0  0
  8  9  1  0  0  0  0
  8 11  1  0  0  0  0
  9 10  2  0  0  0  0
 11 12  1  0  0  0  0
 12 13  2  0  0  0  0
M  END
>  <CHROM.1>
8.79770618,3.04124916,36.34510208,-0.95609889,0.99856410,-2.54759171

>  <Name>
1o15_lig

>  <RI>
0

>  <Rbt.Current_Directory>
/home/itssahil/PROJECTS/Mol_Feturizer/New_Systems/rnas/1o15

>  <Rbt.Executable>
rbdock ($Id: //depot/dev/client3/rdock/2013.1/src/exe/rbdock.cxx#4 $)

>  <Rbt.Library>
libRbt.so (2013.1, Build901 2013/11/27)

>  <Rbt.Parameter_File>
/export/apps/rDock/src/rDock_2013.1_src/data/scripts/dock_solv.prm

>  <Rbt.Receptor>
prm/blind_docking_40.prm

>  <SCORE>
-12.3639

>  <SCORE.INTER>
-13.1089

>  <SCORE.INTER.CONST>
1

>  <SCORE.INTER.POLAR>
0

>  <SCORE.INTER.ROT>
0

>  <SCORE.INTER.SOLV>
6.12048

>  <SCORE.INTER.VDW>
-14.3794

>  <SCORE.INTER.norm>
-1.00838

>  <SCORE.INTRA>
0

>  <SCORE.INTRA.DIHEDRAL>
0

>  <SCORE.INTRA.DIHEDRAL.0>
0

>  <SCORE.INTRA.POLAR>
0

>  <SCORE.INTRA.POLAR.0>
0

>  <SCORE.INTRA.REPUL>
0

>  <SCORE.INTRA.REPUL.0>
0

>  <SCORE.INTRA.SOLV>
0

>  <SCORE.INTRA.SOLV.lig_0>
-12.9184

>  <SCORE.INTRA.VDW>
0

>  <SCORE.INTRA.VDW.0>
0

>  <SCORE.INTRA.norm>
0

>  <SCORE.RESTR>
0.744974

>  <SCORE.RESTR.CAVITY>
0.744974

>  <SCORE.RESTR.norm>
0.0573057

>  <SCORE.SYSTEM>
0

>  <SCORE.SYSTEM.CONST>
0

>  <SCORE.SYSTEM.DIHEDRAL>
0

>  <SCORE.SYSTEM.SOLV>
0

>  <SCORE.SYSTEM.norm>
0

>  <SCORE.heavy>
13

>  <SCORE.norm>
-0.95107

>  <RMSD>
3.169

$$$$
1o15_lig
 OpenBabel11021811403D
libRbt.so/2013.1/901 2013/11/27
 13 14  0  0  0  0  0  0  0  0999 V2000
   10.7528    5.3972   38.5651 C   0  0  0  0  0  0  0  0  0  0  0  0
   10.3044    4.5285   37.5947 N   0  0  0  0  0  0  0  0  0  0  0  0
   10.2825    3.2030   37.8939 C   0  0  0  0  0  0  0  0  0  0  0  0
   10.6754    2.8994   39.0174 O   0  0  0  0  0  0  0  0  0  0  0  0
    9.8578    0.8806   37.3704 C   0  0  0  0  0  0  0  0  0  0  0  0
    9.8662    2.2191   37.0410 N   0  0  0  0  0  0  0  0  0  0  0  0
    9.4603    2.6981   35.8339 C   0  0  0  0  0  0  0  0  0  0  0  0
    9.4848    4.0319   35.5465 C   0  0  0  0  0  0  0  0  0  0  0  0
    9.9116    5.0528   36.4161 C   0  0  0  0  0  0  0  0  0  0  0  0
    9.9585    6.2646   36.2210 O   0  0  0  0  0  0  0  0  0  0  0  0
    9.0101    4.1473   34.2479 N   0  0  0  0  0  0  0  0  0  0  0  0
    8.7317    2.8837   33.8412 C   0  0  0  0  0  0  0  0  0  0  0  0
    8.9816    1.9760   34.7458 N   0  0  0  0  0  0  0  0  0  0  0  0
  1  2  1  0  0  0  0
  2  3  1  0  0  0  0
  2  9  1  0  0  0  0
  3  4  2  0  0  0  0
  3  6  1  0  0  0  0
  6  5  1  0  0  0  0
  6  7  1  0  0  0  0
  7  8  2  0  0  0  0
  7 13  1  0  0  0  0
  8  9  1  0  0  0  0
  8 11  1  0  0  0  0
  9 10  2  0  0  0  0
 11 12  1  0  0  0  0
 12 13  2  0  0  0  0
M  END
>  <CHROM.1>
9.80922187,3.57380048,36.53127016,0.06776091,-1.20067844,-0.25780978

>  <Name>
1o15_lig

>  <RI>
0

>  <Rbt.Current_Directory>
/home/itssahil/PROJECTS/Mol_Feturizer/New_Systems/rnas/1o15

>  <Rbt.Executable>
rbdock ($Id: //depot/dev/client3/rdock/2013.1/src/exe/rbdock.cxx#4 $)

>  <Rbt.Library>
libRbt.so (2013.1, Build901 2013/11/27)

>  <Rbt.Parameter_File>
/export/apps/rDock/src/rDock_2013.1_src/data/scripts/dock_solv.prm

>  <Rbt.Receptor>
prm/pocket_docking_5.prm

>  <SCORE>
-23.3223

>  <SCORE.INTER>
-23.3223

>  <SCORE.INTER.CONST>
1

>  <SCORE.INTER.POLAR>
-1.90535

>  <SCORE.INTER.ROT>
0

>  <SCORE.INTER.SOLV>
6.22159

>  <SCORE.INTER.VDW>
-14.8709

>  <SCORE.INTER.norm>
-1.79402

>  <SCORE.INTRA>
0

>  <SCORE.INTRA.DIHEDRAL>
0

>  <SCORE.INTRA.DIHEDRAL.0>
0

>  <SCORE.INTRA.POLAR>
0

>  <SCORE.INTRA.POLAR.0>
0

>  <SCORE.INTRA.REPUL>
0

>  <SCORE.INTRA.REPUL.0>
0

>  <SCORE.INTRA.SOLV>
0

>  <SCORE.INTRA.SOLV.lig_0>
-12.9184

>  <SCORE.INTRA.VDW>
0

>  <SCORE.INTRA.VDW.0>
0

>  <SCORE.INTRA.norm>
0

>  <SCORE.RESTR>
0

>  <SCORE.RESTR.CAVITY>
0

>  <SCORE.RESTR.norm>
0

>  <SCORE.SYSTEM>
0

>  <SCORE.SYSTEM.CONST>
0

>  <SCORE.SYSTEM.DIHEDRAL>
0

>  <SCORE.SYSTEM.SOLV>
0

>  <SCORE.SYSTEM.norm>
0

>  <SCORE.heavy>
13

>  <SCORE.norm>
-1.79402

>  <RMSD>
3.236

$$$$
1o15_lig
 OpenBabel11021811403D
libRbt.so/2013.1/901 2013/11/27
 13 14  0  0  0  0  0  0  0  0999 V2000
   10.7536    5.3965   38.5633 C   0  0  0  0  0  0  0  0  0  0  0  0
   10.3040    4.5284   37.5929 N   0  0  0  0  0  0  0  0  0  0  0  0
   10.2822    3.2029   37.8913 C   0  0  0  0  0  0  0  0  0  0  0  0
   10.6761    2.8985   39.0143 O   0  0  0  0  0  0  0  0  0  0  0  0
    9.8565    0.8807   37.3670 C   0  0  0  0  0  0  0  0  0  0  0  0
    9.8649    2.2195   37.0383 N   0  0  0  0  0  0  0  0  0  0  0  0
    9.4580    2.6991   35.8318 C   0  0  0  0  0  0  0  0  0  0  0  0
    9.4825    4.0332   35.5451 C   0  0  0  0  0  0  0  0  0  0  0  0
    9.9103    5.0535   36.4149 C   0  0  0  0  0  0  0  0  0  0  0  0
    9.9573    6.2654   36.2204 O   0  0  0  0  0  0  0  0  0  0  0  0
    9.0066    4.1493   34.2470 N   0  0  0  0  0  0  0  0  0  0  0  0
    8.7276    2.8860   33.8399 C   0  0  0  0  0  0  0  0  0  0  0  0
    8.9782    1.9777   34.7438 N   0  0  0  0  0  0  0  0  0  0  0  0
  1  2  1  0  0  0  0
  2  3  1  0  0  0  0
  2  9  1  0  0  0  0
  3  4  2  0  0  0  0
  3  6  1  0  0  0  0
  6  5  1  0  0  0  0
  6  7  1  0  0  0  0
  7  8  2  0  0  0  0
  7 13  1  0  0  0  0
  8  9  1  0  0  0  0
  8 11  1  0  0  0  0
  9 10  2  0  0  0  0
 11 12  1  0  0  0  0
 12 13  2  0  0  0  0
M  END
>  <CHROM.1>
9.80774059,3.57444076,36.52935873,0.06790643,-1.19974512,-0.25714226

>  <Name>
1o15_lig

>  <RI>
0

>  <Rbt.Current_Directory>
/home/itssahil/PROJECTS/Mol_Feturizer/New_Systems/rnas/1o15

>  <Rbt.Executable>
rbdock ($Id: //depot/dev/client3/rdock/2013.1/src/exe/rbdock.cxx#4 $)

>  <Rbt.Library>
libRbt.so (2013.1, Build901 2013/11/27)

>  <Rbt.Parameter_File>
/export/apps/rDock/src/rDock_2013.1_src/data/scripts/dock_solv.prm

>  <Rbt.Receptor>
prm/pocket_docking_7.prm

>  <SCORE>
-23.3188

>  <SCORE.INTER>
-23.3188

>  <SCORE.INTER.CONST>
1

>  <SCORE.INTER.POLAR>
-1.90605

>  <SCORE.INTER.ROT>
0

>  <SCORE.INTER.SOLV>
6.22054

>  <SCORE.INTER.VDW>
-14.8659

>  <SCORE.INTER.norm>
-1.79376

>  <SCORE.INTRA>
0

>  <SCORE.INTRA.DIHEDRAL>
0

>  <SCORE.INTRA.DIHEDRAL.0>
0

>  <SCORE.INTRA.POLAR>
0

>  <SCORE.INTRA.POLAR.0>
0

>  <SCORE.INTRA.REPUL>
0

>  <SCORE.INTRA.REPUL.0>
0

>  <SCORE.INTRA.SOLV>
0

>  <SCORE.INTRA.SOLV.lig_0>
-12.9184

>  <SCORE.INTRA.VDW>
0

>  <SCORE.INTRA.VDW.0>
0

>  <SCORE.INTRA.norm>
0

>  <SCORE.RESTR>
0

>  <SCORE.RESTR.CAVITY>
0

>  <SCORE.RESTR.norm>
0

>  <SCORE.SYSTEM>
0

>  <SCORE.SYSTEM.CONST>
0

>  <SCORE.SYSTEM.DIHEDRAL>
0

>  <SCORE.SYSTEM.SOLV>
0

>  <SCORE.SYSTEM.norm>
0

>  <SCORE.heavy>
13

>  <SCORE.norm>
-1.79376

>  <RMSD>
3.236

$$$$
1o15_lig
 OpenBabel11021811403D
libRbt.so/2013.1/901 2013/11/27
 13 14  0  0  0  0  0  0  0  0999 V2000
   10.6024    5.3196   38.5634 C   0  0  0  0  0  0  0  0  0  0  0  0
   10.1445    4.4702   37.5804 N   0  0  0  0  0  0  0  0  0  0  0  0
   10.0143    3.1540   37.8924 C   0  0  0  0  0  0  0  0  0  0  0  0
   10.3267    2.8401   39.0381 O   0  0  0  0  0  0  0  0  0  0  0  0
    9.4551    0.8593   37.3727 C   0  0  0  0  0  0  0  0  0  0  0  0
    9.5744    2.1891   37.0296 N   0  0  0  0  0  0  0  0  0  0  0  0
    9.2656    2.6776   35.7979 C   0  0  0  0  0  0  0  0  0  0  0  0
    9.3984    4.0022   35.4976 C   0  0  0  0  0  0  0  0  0  0  0  0
    9.8505    5.0034   36.3772 C   0  0  0  0  0  0  0  0  0  0  0  0
    9.9924    6.2061   36.1716 O   0  0  0  0  0  0  0  0  0  0  0  0
    9.0003    4.1315   34.1748 N   0  0  0  0  0  0  0  0  0  0  0  0
    8.6551    2.8845   33.7679 C   0  0  0  0  0  0  0  0  0  0  0  0
    8.7940    1.9748   34.6941 N   0  0  0  0  0  0  0  0  0  0  0  0
  1  2  1  0  0  0  0
  2  3  1  0  0  0  0
  2  9  1  0  0  0  0
  3  4  2  0  0  0  0
  3  6  1  0  0  0  0
  6  5  1  0  0  0  0
  6  7  1  0  0  0  0
  7  8  2  0  0  0  0
  7 13  1  0  0  0  0
  8  9  1  0  0  0  0
  8 11  1  0  0  0  0
  9 10  2  0  0  0  0
 11 12  1  0  0  0  0
 12 13  2  0  0  0  0
M  END
>  <CHROM.1>
9.63884006,3.53694554,36.50294539,-0.17229942,-1.22336143,-0.49544660

>  <Name>
1o15_lig

>  <RI>
0

>  <Rbt.Current_Directory>
/home/itssahil/PROJECTS/Mol_Feturizer/New_Systems/rnas/1o15

>  <Rbt.Executable>
rbdock ($Id: //depot/dev/client3/rdock/2013.1/src/exe/rbdock.cxx#4 $)

>  <Rbt.Library>
libRbt.so (2013.1, Build901 2013/11/27)

>  <Rbt.Parameter_File>
/export/apps/rDock/src/rDock_2013.1_src/data/scripts/dock_solv.prm

>  <Rbt.Receptor>
prm/pocket_docking_4.prm

>  <SCORE>
-23.3128

>  <SCORE.INTER>
-23.3128

>  <SCORE.INTER.CONST>
1

>  <SCORE.INTER.POLAR>
-1.76884

>  <SCORE.INTER.ROT>
0

>  <SCORE.INTER.SOLV>
6.51759

>  <SCORE.INTER.VDW>
-15.4183

>  <SCORE.INTER.norm>
-1.79329

>  <SCORE.INTRA>
0

>  <SCORE.INTRA.DIHEDRAL>
0

>  <SCORE.INTRA.DIHEDRAL.0>
0

>  <SCORE.INTRA.POLAR>
0

>  <SCORE.INTRA.POLAR.0>
0

>  <SCORE.INTRA.REPUL>
0

>  <SCORE.INTRA.REPUL.0>
0

>  <SCORE.INTRA.SOLV>
0

>  <SCORE.INTRA.SOLV.lig_0>
-12.9184

>  <SCORE.INTRA.VDW>
0

>  <SCORE.INTRA.VDW.0>
0

>  <SCORE.INTRA.norm>
0

>  <SCORE.RESTR>
0

>  <SCORE.RESTR.CAVITY>
0

>  <SCORE.RESTR.norm>
0

>  <SCORE.SYSTEM>
0

>  <SCORE.SYSTEM.CONST>
0

>  <SCORE.SYSTEM.DIHEDRAL>
0

>  <SCORE.SYSTEM.SOLV>
0

>  <SCORE.SYSTEM.norm>
0

>  <SCORE.heavy>
13

>  <SCORE.norm>
-1.79329

>  <RMSD>
3.249

$$$$
1o15_lig
 OpenBabel11021811403D
libRbt.so/2013.1/901 2013/11/27
 13 14  0  0  0  0  0  0  0  0999 V2000
   10.6260    5.3816   38.5571 C   0  0  0  0  0  0  0  0  0  0  0  0
   10.1393    4.5213   37.5977 N   0  0  0  0  0  0  0  0  0  0  0  0
    9.9542    3.2217   37.9492 C   0  0  0  0  0  0  0  0  0  0  0  0
   10.2476    2.9311   39.1061 O   0  0  0  0  0  0  0  0  0  0  0  0
    9.3052    0.9364   37.4967 C   0  0  0  0  0  0  0  0  0  0  0  0
    9.4800    2.2491   37.1137 N   0  0  0  0  0  0  0  0  0  0  0  0
    9.1978    2.7112   35.8655 C   0  0  0  0  0  0  0  0  0  0  0  0
    9.3857    4.0194   35.5256 C   0  0  0  0  0  0  0  0  0  0  0  0
    9.8735    5.0284   36.3768 C   0  0  0  0  0  0  0  0  0  0  0  0
   10.0650    6.2174   36.1353 O   0  0  0  0  0  0  0  0  0  0  0  0
    9.0001    4.1236   34.1968 N   0  0  0  0  0  0  0  0  0  0  0  0
    8.6069    2.8796   33.8263 C   0  0  0  0  0  0  0  0  0  0  0  0
    8.7039    1.9941   34.7809 N   0  0  0  0  0  0  0  0  0  0  0  0
  1  2  1  0  0  0  0
  2  3  1  0  0  0  0
  2  9  1  0  0  0  0
  3  4  2  0  0  0  0
  3  6  1  0  0  0  0
  6  5  1  0  0  0  0
  6  7  1  0  0  0  0
  7  8  2  0  0  0  0
  7 13  1  0  0  0  0
  8  9  1  0  0  0  0
  8 11  1  0  0  0  0
  9 10  2  0  0  0  0
 11 12  1  0  0  0  0
 12 13  2  0  0  0  0
M  END
>  <CHROM.1>
9.60187441,3.57623112,36.54626732,-0.27968304,-1.20677213,-0.62702176

>  <Name>
1o15_lig

>  <RI>
0

>  <Rbt.Current_Directory>
/home/itssahil/PROJECTS/Mol_Feturizer/New_Systems/rnas/1o15

>  <Rbt.Executable>
rbdock ($Id: //depot/dev/client3/rdock/2013.1/src/exe/rbdock.cxx#4 $)

>  <Rbt.Library>
libRbt.so (2013.1, Build901 2013/11/27)

>  <Rbt.Parameter_File>
/export/apps/rDock/src/rDock_2013.1_src/data/scripts/dock_solv.prm

>  <Rbt.Receptor>
prm/pocket_docking_7.prm

>  <SCORE>
-23.3054

>  <SCORE.INTER>
-23.3054

>  <SCORE.INTER.CONST>
1

>  <SCORE.INTER.POLAR>
-1.71711

>  <SCORE.INTER.ROT>
0

>  <SCORE.INTER.SOLV>
6.6742

>  <SCORE.INTER.VDW>
-15.638

>  <SCORE.INTER.norm>
-1.79272

>  <SCORE.INTRA>
0

>  <SCORE.INTRA.DIHEDRAL>
0

>  <SCORE.INTRA.DIHEDRAL.0>
0

>  <SCORE.INTRA.POLAR>
0

>  <SCORE.INTRA.POLAR.0>
0

>  <SCORE.INTRA.REPUL>
0

>  <SCORE.INTRA.REPUL.0>
0

>  <SCORE.INTRA.SOLV>
0

>  <SCORE.INTRA.SOLV.lig_0>
-12.9184

>  <SCORE.INTRA.VDW>
0

>  <SCORE.INTRA.VDW.0>
0

>  <SCORE.INTRA.norm>
0

>  <SCORE.RESTR>
0

>  <SCORE.RESTR.CAVITY>
0

>  <SCORE.RESTR.norm>
0

>  <SCORE.SYSTEM>
0

>  <SCORE.SYSTEM.CONST>
0

>  <SCORE.SYSTEM.DIHEDRAL>
0

>  <SCORE.SYSTEM.SOLV>
0

>  <SCORE.SYSTEM.norm>
0

>  <SCORE.heavy>
13

>  <SCORE.norm>
-1.79272

>  <RMSD>
3.254

$$$$
1o15_lig
 OpenBabel11021811403D
libRbt.so/2013.1/901 2013/11/27
 13 14  0  0  0  0  0  0  0  0999 V2000
   10.6270    5.3813   38.5563 C   0  0  0  0  0  0  0  0  0  0  0  0
   10.1399    4.5219   37.5963 N   0  0  0  0  0  0  0  0  0  0  0  0
    9.9554    3.2219   37.9465 C   0  0  0  0  0  0  0  0  0  0  0  0
   10.2496    2.9301   39.1028 O   0  0  0  0  0  0  0  0  0  0  0  0
    9.3069    0.9369   37.4918 C   0  0  0  0  0  0  0  0  0  0  0  0
    9.4811    2.2501   37.1101 N   0  0  0  0  0  0  0  0  0  0  0  0
    9.1981    2.7135   35.8626 C   0  0  0  0  0  0  0  0  0  0  0  0
    9.3854    4.0222   35.5240 C   0  0  0  0  0  0  0  0  0  0  0  0
    9.8733    5.0303   36.3761 C   0  0  0  0  0  0  0  0  0  0  0  0
   10.0644    6.2197   36.1358 O   0  0  0  0  0  0  0  0  0  0  0  0
    8.9991    4.1277   34.1956 N   0  0  0  0  0  0  0  0  0  0  0  0
    8.6060    2.8839   33.8239 C   0  0  0  0  0  0  0  0  0  0  0  0
    8.7038    1.9975   34.7775 N   0  0  0  0  0  0  0  0  0  0  0  0
  1  2  1  0  0  0  0
  2  3  1  0  0  0  0
  2  9  1  0  0  0  0
  3  4  2  0  0  0  0
  3  6  1  0  0  0  0
  6  5  1  0  0  0  0
  6  7  1  0  0  0  0
  7  8  2  0  0  0  0
  7 13  1  0  0  0  0
  8  9  1  0  0  0  0
  8 11  1  0  0  0  0
  9 10  2  0  0  0  0
 11 12  1  0  0  0  0
 12 13  2  0  0  0  0
M  END
>  <CHROM.1>
9.60225261,3.57789623,36.54407697,-0.27809377,-1.20650637,-0.62442447

>  <Name>
1o15_lig

>  <RI>
0

>  <Rbt.Current_Directory>
/home/itssahil/PROJECTS/Mol_Feturizer/New_Systems/rnas/1o15

>  <Rbt.Executable>
rbdock ($Id: //depot/dev/client3/rdock/2013.1/src/exe/rbdock.cxx#4 $)

>  <Rbt.Library>
libRbt.so (2013.1, Build901 2013/11/27)

>  <Rbt.Parameter_File>
/export/apps/rDock/src/rDock_2013.1_src/data/scripts/dock_solv.prm

>  <Rbt.Receptor>
prm/pocket_docking_3.prm

>  <SCORE>
-23.3091

>  <SCORE.INTER>
-23.3091

>  <SCORE.INTER.CONST>
1

>  <SCORE.INTER.POLAR>
-1.7206

>  <SCORE.INTER.ROT>
0

>  <SCORE.INTER.SOLV>
6.67528

>  <SCORE.INTER.VDW>
-15.6292

>  <SCORE.INTER.norm>
-1.79301

>  <SCORE.INTRA>
0

>  <SCORE.INTRA.DIHEDRAL>
0

>  <SCORE.INTRA.DIHEDRAL.0>
0

>  <SCORE.INTRA.POLAR>
0

>  <SCORE.INTRA.POLAR.0>
0

>  <SCORE.INTRA.REPUL>
0

>  <SCORE.INTRA.REPUL.0>
0

>  <SCORE.INTRA.SOLV>
0

>  <SCORE.INTRA.SOLV.lig_0>
-12.9184

>  <SCORE.INTRA.VDW>
0

>  <SCORE.INTRA.VDW.0>
0

>  <SCORE.INTRA.norm>
0

>  <SCORE.RESTR>
0

>  <SCORE.RESTR.CAVITY>
0

>  <SCORE.RESTR.norm>
0

>  <SCORE.SYSTEM>
0

>  <SCORE.SYSTEM.CONST>
0

>  <SCORE.SYSTEM.DIHEDRAL>
0

>  <SCORE.SYSTEM.SOLV>
0

>  <SCORE.SYSTEM.norm>
0

>  <SCORE.heavy>
13

>  <SCORE.norm>
-1.79301

>  <RMSD>
3.255

$$$$
1o15_lig
 OpenBabel11021811403D
libRbt.so/2013.1/901 2013/11/27
 13 14  0  0  0  0  0  0  0  0999 V2000
   10.4949    5.0429   38.6046 C   0  0  0  0  0  0  0  0  0  0  0  0
   10.0244    4.2489   37.5820 N   0  0  0  0  0  0  0  0  0  0  0  0
    9.7709    2.9432   37.8607 C   0  0  0  0  0  0  0  0  0  0  0  0
    9.9934    2.5874   39.0152 O   0  0  0  0  0  0  0  0  0  0  0  0
    9.0569    0.7103   37.2669 C   0  0  0  0  0  0  0  0  0  0  0  0
    9.3023    2.0309   36.9569 N   0  0  0  0  0  0  0  0  0  0  0  0
    9.1023    2.5617   35.7202 C   0  0  0  0  0  0  0  0  0  0  0  0
    9.3584    3.8754   35.4535 C   0  0  0  0  0  0  0  0  0  0  0  0
    9.8412    4.8226   36.3755 C   0  0  0  0  0  0  0  0  0  0  0  0
   10.0912    6.0126   36.2015 O   0  0  0  0  0  0  0  0  0  0  0  0
    9.0454    4.0569   34.1141 N   0  0  0  0  0  0  0  0  0  0  0  0
    8.6231    2.8488   33.6649 C   0  0  0  0  0  0  0  0  0  0  0  0
    8.6366    1.9168   34.5792 N   0  0  0  0  0  0  0  0  0  0  0  0
  1  2  1  0  0  0  0
  2  3  1  0  0  0  0
  2  9  1  0  0  0  0
  3  4  2  0  0  0  0
  3  6  1  0  0  0  0
  6  5  1  0  0  0  0
  6  7  1  0  0  0  0
  7  8  2  0  0  0  0
  7 13  1  0  0  0  0
  8  9  1  0  0  0  0
  8 11  1  0  0  0  0
  9 10  2  0  0  0  0
 11 12  1  0  0  0  0
 12 13  2  0  0  0  0
M  END
>  <CHROM.1>
9.50470362,3.37674415,36.46096006,-0.45983074,-1.21988303,-0.74841026

>  <Name>
1o15_lig

>  <RI>
0

>  <Rbt.Current_Directory>
/home/itssahil/PROJECTS/Mol_Feturizer/New_Systems/rnas/1o15

>  <Rbt.Executable>
rbdock ($Id: //depot/dev/client3/rdock/2013.1/src/exe/rbdock.cxx#4 $)

>  <Rbt.Library>
libRbt.so (2013.1, Build901 2013/11/27)

>  <Rbt.Parameter_File>
/export/apps/rDock/src/rDock_2013.1_src/data/scripts/dock_solv.prm

>  <Rbt.Receptor>
prm/blind_docking_80.prm

>  <SCORE>
-22.8052

>  <SCORE.INTER>
-22.8052

>  <SCORE.INTER.CONST>
1

>  <SCORE.INTER.POLAR>
-1.60876

>  <SCORE.INTER.ROT>
0

>  <SCORE.INTER.SOLV>
6.75885

>  <SCORE.INTER.VDW>
-15.6939

>  <SCORE.INTER.norm>
-1.75424

>  <SCORE.INTRA>
0

>  <SCORE.INTRA.DIHEDRAL>
0

>  <SCORE.INTRA.DIHEDRAL.0>
0

>  <SCORE.INTRA.POLAR>
0

>  <SCORE.INTRA.POLAR.0>
0

>  <SCORE.INTRA.REPUL>
0

>  <SCORE.INTRA.REPUL.0>
0

>  <SCORE.INTRA.SOLV>
0

>  <SCORE.INTRA.SOLV.lig_0>
-12.9184

>  <SCORE.INTRA.VDW>
0

>  <SCORE.INTRA.VDW.0>
0

>  <SCORE.INTRA.norm>
0

>  <SCORE.RESTR>
0

>  <SCORE.RESTR.CAVITY>
0

>  <SCORE.RESTR.norm>
0

>  <SCORE.SYSTEM>
0

>  <SCORE.SYSTEM.CONST>
0

>  <SCORE.SYSTEM.DIHEDRAL>
0

>  <SCORE.SYSTEM.SOLV>
0

>  <SCORE.SYSTEM.norm>
0

>  <SCORE.heavy>
13

>  <SCORE.norm>
-1.75424

>  <RMSD>
3.258

$$$$
1o15_lig
 OpenBabel11021811403D
libRbt.so/2013.1/901 2013/11/27
 13 14  0  0  0  0  0  0  0  0999 V2000
   10.5144    5.4725   38.5438 C   0  0  0  0  0  0  0  0  0  0  0  0
   10.0395    4.6000   37.5895 N   0  0  0  0  0  0  0  0  0  0  0  0
    9.8300    3.3097   37.9608 C   0  0  0  0  0  0  0  0  0  0  0  0
   10.0927    3.0376   39.1295 O   0  0  0  0  0  0  0  0  0  0  0  0
    9.1633    1.0242   37.5361 C   0  0  0  0  0  0  0  0  0  0  0  0
    9.3634    2.3271   37.1328 N   0  0  0  0  0  0  0  0  0  0  0  0
    9.1162    2.7687   35.8698 C   0  0  0  0  0  0  0  0  0  0  0  0
    9.3283    4.0679   35.5099 C   0  0  0  0  0  0  0  0  0  0  0  0
    9.8086    5.0869   36.3534 C   0  0  0  0  0  0  0  0  0  0  0  0
   10.0205    6.2688   36.0942 O   0  0  0  0  0  0  0  0  0  0  0  0
    8.9751    4.1514   34.1707 N   0  0  0  0  0  0  0  0  0  0  0  0
    8.5752    2.9053   33.8144 C   0  0  0  0  0  0  0  0  0  0  0  0
    8.6388    2.0371   34.7875 N   0  0  0  0  0  0  0  0  0  0  0  0
  1  2  1  0  0  0  0
  2  3  1  0  0  0  0
  2  9  1  0  0  0  0
  3  4  2  0  0  0  0
  3  6  1  0  0  0  0
  6  5  1  0  0  0  0
  6  7  1  0  0  0  0
  7  8  2  0  0  0  0
  7 13  1  0  0  0  0
  8  9  1  0  0  0  0
  8 11  1  0  0  0  0
  9 10  2  0  0  0  0
 11 12  1  0  0  0  0
 12 13  2  0  0  0  0
M  END
>  <CHROM.1>
9.51500010,3.64165430,36.54355868,-0.34851249,-1.21759163,-0.71037325

>  <Name>
1o15_lig

>  <RI>
0

>  <Rbt.Current_Directory>
/home/itssahil/PROJECTS/Mol_Feturizer/New_Systems/rnas/1o15

>  <Rbt.Executable>
rbdock ($Id: //depot/dev/client3/rdock/2013.1/src/exe/rbdock.cxx#4 $)

>  <Rbt.Library>
libRbt.so (2013.1, Build901 2013/11/27)

>  <Rbt.Parameter_File>
/export/apps/rDock/src/rDock_2013.1_src/data/scripts/dock_solv.prm

>  <Rbt.Receptor>
prm/pocket_docking_6.prm

>  <SCORE>
-23.2793

>  <SCORE.INTER>
-23.2793

>  <SCORE.INTER.CONST>
1

>  <SCORE.INTER.POLAR>
-1.68159

>  <SCORE.INTER.ROT>
0

>  <SCORE.INTER.SOLV>
7.05687

>  <SCORE.INTER.VDW>
-15.8665

>  <SCORE.INTER.norm>
-1.79071

>  <SCORE.INTRA>
0

>  <SCORE.INTRA.DIHEDRAL>
0

>  <SCORE.INTRA.DIHEDRAL.0>
0

>  <SCORE.INTRA.POLAR>
0

>  <SCORE.INTRA.POLAR.0>
0

>  <SCORE.INTRA.REPUL>
0

>  <SCORE.INTRA.REPUL.0>
0

>  <SCORE.INTRA.SOLV>
0

>  <SCORE.INTRA.SOLV.lig_0>
-12.9184

>  <SCORE.INTRA.VDW>
0

>  <SCORE.INTRA.VDW.0>
0

>  <SCORE.INTRA.norm>
0

>  <SCORE.RESTR>
0

>  <SCORE.RESTR.CAVITY>
0

>  <SCORE.RESTR.norm>
0

>  <SCORE.SYSTEM>
0

>  <SCORE.SYSTEM.CONST>
0

>  <SCORE.SYSTEM.DIHEDRAL>
0

>  <SCORE.SYSTEM.SOLV>
0

>  <SCORE.SYSTEM.norm>
0

>  <SCORE.heavy>
13

>  <SCORE.norm>
-1.79071

>  <RMSD>
3.277

$$$$
1o15_lig
 OpenBabel11021811403D
libRbt.so/2013.1/901 2013/11/27
 13 14  0  0  0  0  0  0  0  0999 V2000
   10.4722    5.4584   38.5330 C   0  0  0  0  0  0  0  0  0  0  0  0
   10.0332    4.5831   37.5641 N   0  0  0  0  0  0  0  0  0  0  0  0
    9.8655    3.2816   37.9170 C   0  0  0  0  0  0  0  0  0  0  0  0
   10.1298    3.0030   39.0838 O   0  0  0  0  0  0  0  0  0  0  0  0
    9.2795    0.9806   37.4578 C   0  0  0  0  0  0  0  0  0  0  0  0
    9.4378    2.2949   37.0730 N   0  0  0  0  0  0  0  0  0  0  0  0
    9.1837    2.7447   35.8143 C   0  0  0  0  0  0  0  0  0  0  0  0
    9.3537    4.0550   35.4729 C   0  0  0  0  0  0  0  0  0  0  0  0
    9.7938    5.0784   36.3330 C   0  0  0  0  0  0  0  0  0  0  0  0
    9.9670    6.2701   36.0908 O   0  0  0  0  0  0  0  0  0  0  0  0
    9.0064    4.1444   34.1326 N   0  0  0  0  0  0  0  0  0  0  0  0
    8.6513    2.8904   33.7572 C   0  0  0  0  0  0  0  0  0  0  0  0
    8.7383    2.0119   34.7192 N   0  0  0  0  0  0  0  0  0  0  0  0
  1  2  1  0  0  0  0
  2  3  1  0  0  0  0
  2  9  1  0  0  0  0
  3  4  2  0  0  0  0
  3  6  1  0  0  0  0
  6  5  1  0  0  0  0
  6  7  1  0  0  0  0
  7  8  2  0  0  0  0
  7 13  1  0  0  0  0
  8  9  1  0  0  0  0
  8 11  1  0  0  0  0
  9 10  2  0  0  0  0
 11 12  1  0  0  0  0
 12 13  2  0  0  0  0
M  END
>  <CHROM.1>
9.54830329,3.62157440,36.50213403,-0.28101685,-1.24388403,-0.63347385

>  <Name>
1o15_lig

>  <RI>
0

>  <Rbt.Current_Directory>
/home/itssahil/PROJECTS/Mol_Feturizer/New_Systems/rnas/1o15

>  <Rbt.Executable>
rbdock ($Id: //depot/dev/client3/rdock/2013.1/src/exe/rbdock.cxx#4 $)

>  <Rbt.Library>
libRbt.so (2013.1, Build901 2013/11/27)

>  <Rbt.Parameter_File>
/export/apps/rDock/src/rDock_2013.1_src/data/scripts/dock_solv.prm

>  <Rbt.Receptor>
prm/pocket_docking_5.prm

>  <SCORE>
-23.2623

>  <SCORE.INTER>
-23.2623

>  <SCORE.INTER.CONST>
1

>  <SCORE.INTER.POLAR>
-1.69854

>  <SCORE.INTER.ROT>
0

>  <SCORE.INTER.SOLV>
7.05911

>  <SCORE.INTER.VDW>
-15.7995

>  <SCORE.INTER.norm>
-1.78941

>  <SCORE.INTRA>
0

>  <SCORE.INTRA.DIHEDRAL>
0

>  <SCORE.INTRA.DIHEDRAL.0>
0

>  <SCORE.INTRA.POLAR>
0

>  <SCORE.INTRA.POLAR.0>
0

>  <SCORE.INTRA.REPUL>
0

>  <SCORE.INTRA.REPUL.0>
0

>  <SCORE.INTRA.SOLV>
0

>  <SCORE.INTRA.SOLV.lig_0>
-12.9184

>  <SCORE.INTRA.VDW>
0

>  <SCORE.INTRA.VDW.0>
0

>  <SCORE.INTRA.norm>
0

>  <SCORE.RESTR>
0

>  <SCORE.RESTR.CAVITY>
0

>  <SCORE.RESTR.norm>
0

>  <SCORE.SYSTEM>
0

>  <SCORE.SYSTEM.CONST>
0

>  <SCORE.SYSTEM.DIHEDRAL>
0

>  <SCORE.SYSTEM.SOLV>
0

>  <SCORE.SYSTEM.norm>
0

>  <SCORE.heavy>
13

>  <SCORE.norm>
-1.78941

>  <RMSD>
3.281

$$$$
1o15_lig
 OpenBabel11021811403D
libRbt.so/2013.1/901 2013/11/27
 13 14  0  0  0  0  0  0  0  0999 V2000
   10.4935    5.4606   38.5334 C   0  0  0  0  0  0  0  0  0  0  0  0
   10.0295    4.5882   37.5737 N   0  0  0  0  0  0  0  0  0  0  0  0
    9.8242    3.2958   37.9402 C   0  0  0  0  0  0  0  0  0  0  0  0
   10.0803    3.0220   39.1100 O   0  0  0  0  0  0  0  0  0  0  0  0
    9.1720    1.0081   37.5050 C   0  0  0  0  0  0  0  0  0  0  0  0
    9.3682    2.3131   37.1064 N   0  0  0  0  0  0  0  0  0  0  0  0
    9.1272    2.7568   35.8430 C   0  0  0  0  0  0  0  0  0  0  0  0
    9.3351    4.0580   35.4880 C   0  0  0  0  0  0  0  0  0  0  0  0
    9.8044    5.0772   36.3373 C   0  0  0  0  0  0  0  0  0  0  0  0
   10.0121    6.2608   36.0827 O   0  0  0  0  0  0  0  0  0  0  0  0
    8.9905    4.1432   34.1466 N   0  0  0  0  0  0  0  0  0  0  0  0
    8.5994    2.8961   33.7844 C   0  0  0  0  0  0  0  0  0  0  0  0
    8.6609    2.0256   34.7556 N   0  0  0  0  0  0  0  0  0  0  0  0
  1  2  1  0  0  0  0
  2  3  1  0  0  0  0
  2  9  1  0  0  0  0
  3  4  2  0  0  0  0
  3  6  1  0  0  0  0
  6  5  1  0  0  0  0
  6  7  1  0  0  0  0
  7  8  2  0  0  0  0
  7 13  1  0  0  0  0
  8  9  1  0  0  0  0
  8 11  1  0  0  0  0
  9 10  2  0  0  0  0
 11 12  1  0  0  0  0
 12 13  2  0  0  0  0
M  END
>  <CHROM.1>
9.51700180,3.62996482,36.52171820,-0.35002448,-1.22604960,-0.70915679

>  <Name>
1o15_lig

>  <RI>
0

>  <Rbt.Current_Directory>
/home/itssahil/PROJECTS/Mol_Feturizer/New_Systems/rnas/1o15

>  <Rbt.Executable>
rbdock ($Id: //depot/dev/client3/rdock/2013.1/src/exe/rbdock.cxx#4 $)

>  <Rbt.Library>
libRbt.so (2013.1, Build901 2013/11/27)

>  <Rbt.Parameter_File>
/export/apps/rDock/src/rDock_2013.1_src/data/scripts/dock_solv.prm

>  <Rbt.Receptor>
prm/pocket_docking_6.prm

>  <SCORE>
-23.3116

>  <SCORE.INTER>
-23.3116

>  <SCORE.INTER.CONST>
1

>  <SCORE.INTER.POLAR>
-1.66891

>  <SCORE.INTER.ROT>
0

>  <SCORE.INTER.SOLV>
7.10663

>  <SCORE.INTER.VDW>
-15.9469

>  <SCORE.INTER.norm>
-1.7932

>  <SCORE.INTRA>
0

>  <SCORE.INTRA.DIHEDRAL>
0

>  <SCORE.INTRA.DIHEDRAL.0>
0

>  <SCORE.INTRA.POLAR>
0

>  <SCORE.INTRA.POLAR.0>
0

>  <SCORE.INTRA.REPUL>
0

>  <SCORE.INTRA.REPUL.0>
0

>  <SCORE.INTRA.SOLV>
0

>  <SCORE.INTRA.SOLV.lig_0>
-12.9184

>  <SCORE.INTRA.VDW>
0

>  <SCORE.INTRA.VDW.0>
0

>  <SCORE.INTRA.norm>
0

>  <SCORE.RESTR>
0

>  <SCORE.RESTR.CAVITY>
0

>  <SCORE.RESTR.norm>
0

>  <SCORE.SYSTEM>
0

>  <SCORE.SYSTEM.CONST>
0

>  <SCORE.SYSTEM.DIHEDRAL>
0

>  <SCORE.SYSTEM.SOLV>
0

>  <SCORE.SYSTEM.norm>
0

>  <SCORE.heavy>
13

>  <SCORE.norm>
-1.7932

>  <RMSD>
3.281

$$$$
1o15_lig
 OpenBabel11021811403D
libRbt.so/2013.1/901 2013/11/27
 13 14  0  0  0  0  0  0  0  0999 V2000
   10.4959    5.4629   38.5319 C   0  0  0  0  0  0  0  0  0  0  0  0
   10.0423    4.5885   37.5691 N   0  0  0  0  0  0  0  0  0  0  0  0
    9.8547    3.2920   37.9305 C   0  0  0  0  0  0  0  0  0  0  0  0
   10.1160    3.0167   39.0987 O   0  0  0  0  0  0  0  0  0  0  0  0
    9.2326    0.9976   37.4865 C   0  0  0  0  0  0  0  0  0  0  0  0
    9.4108    2.3067   37.0931 N   0  0  0  0  0  0  0  0  0  0  0  0
    9.1623    2.7524   35.8319 C   0  0  0  0  0  0  0  0  0  0  0  0
    9.3524    4.0577   35.4820 C   0  0  0  0  0  0  0  0  0  0  0  0
    9.8092    5.0796   36.3350 C   0  0  0  0  0  0  0  0  0  0  0  0
   10.0007    6.2669   36.0850 O   0  0  0  0  0  0  0  0  0  0  0  0
    9.0050    4.1440   34.1415 N   0  0  0  0  0  0  0  0  0  0  0  0
    8.6300    2.8932   33.7745 C   0  0  0  0  0  0  0  0  0  0  0  0
    8.7044    2.0196   34.7420 N   0  0  0  0  0  0  0  0  0  0  0  0
  1  2  1  0  0  0  0
  2  3  1  0  0  0  0
  2  9  1  0  0  0  0
  3  4  2  0  0  0  0
  3  6  1  0  0  0  0
  6  5  1  0  0  0  0
  6  7  1  0  0  0  0
  7  8  2  0  0  0  0
  7 13  1  0  0  0  0
  8  9  1  0  0  0  0
  8 11  1  0  0  0  0
  9 10  2  0  0  0  0
 11 12  1  0  0  0  0
 12 13  2  0  0  0  0
M  END
>  <CHROM.1>
9.54131626,3.62787313,36.51373327,-0.31695233,-1.23357673,-0.67382304

>  <Name>
1o15_lig

>  <RI>
0

>  <Rbt.Current_Directory>
/home/itssahil/PROJECTS/Mol_Feturizer/New_Systems/rnas/1o15

>  <Rbt.Executable>
rbdock ($Id: //depot/dev/client3/rdock/2013.1/src/exe/rbdock.cxx#4 $)

>  <Rbt.Library>
libRbt.so (2013.1, Build901 2013/11/27)

>  <Rbt.Parameter_File>
/export/apps/rDock/src/rDock_2013.1_src/data/scripts/dock_solv.prm

>  <Rbt.Receptor>
prm/pocket_docking_8.prm

>  <SCORE>
-23.2831

>  <SCORE.INTER>
-23.2831

>  <SCORE.INTER.CONST>
1

>  <SCORE.INTER.POLAR>
-1.68511

>  <SCORE.INTER.ROT>
0

>  <SCORE.INTER.SOLV>
7.07556

>  <SCORE.INTER.VDW>
-15.8636

>  <SCORE.INTER.norm>
-1.79101

>  <SCORE.INTRA>
0

>  <SCORE.INTRA.DIHEDRAL>
0

>  <SCORE.INTRA.DIHEDRAL.0>
0

>  <SCORE.INTRA.POLAR>
0

>  <SCORE.INTRA.POLAR.0>
0

>  <SCORE.INTRA.REPUL>
0

>  <SCORE.INTRA.REPUL.0>
0

>  <SCORE.INTRA.SOLV>
0

>  <SCORE.INTRA.SOLV.lig_0>
-12.9184

>  <SCORE.INTRA.VDW>
0

>  <SCORE.INTRA.VDW.0>
0

>  <SCORE.INTRA.norm>
0

>  <SCORE.RESTR>
0

>  <SCORE.RESTR.CAVITY>
0

>  <SCORE.RESTR.norm>
0

>  <SCORE.SYSTEM>
0

>  <SCORE.SYSTEM.CONST>
0

>  <SCORE.SYSTEM.DIHEDRAL>
0

>  <SCORE.SYSTEM.SOLV>
0

>  <SCORE.SYSTEM.norm>
0

>  <SCORE.heavy>
13

>  <SCORE.norm>
-1.79101

>  <RMSD>
3.281

$$$$
1o15_lig
 OpenBabel11021811403D
libRbt.so/2013.1/901 2013/11/27
 13 14  0  0  0  0  0  0  0  0999 V2000
   10.4980    5.4646   38.5238 C   0  0  0  0  0  0  0  0  0  0  0  0
   10.0338    4.5925   37.5639 N   0  0  0  0  0  0  0  0  0  0  0  0
    9.8339    3.2988   37.9286 C   0  0  0  0  0  0  0  0  0  0  0  0
   10.0947    3.0237   39.0970 O   0  0  0  0  0  0  0  0  0  0  0  0
    9.1878    1.0098   37.4912 C   0  0  0  0  0  0  0  0  0  0  0  0
    9.3784    2.3162   37.0945 N   0  0  0  0  0  0  0  0  0  0  0  0
    9.1320    2.7614   35.8327 C   0  0  0  0  0  0  0  0  0  0  0  0
    9.3345    4.0640   35.4794 C   0  0  0  0  0  0  0  0  0  0  0  0
    9.8032    5.0831   36.3292 C   0  0  0  0  0  0  0  0  0  0  0  0
   10.0062    6.2678   36.0760 O   0  0  0  0  0  0  0  0  0  0  0  0
    8.9854    4.1506   34.1393 N   0  0  0  0  0  0  0  0  0  0  0  0
    8.5971    2.9028   33.7760 C   0  0  0  0  0  0  0  0  0  0  0  0
    8.6646    2.0308   34.7454 N   0  0  0  0  0  0  0  0  0  0  0  0
  1  2  1  0  0  0  0
  2  3  1  0  0  0  0
  2  9  1  0  0  0  0
  3  4  2  0  0  0  0
  3  6  1  0  0  0  0
  6  5  1  0  0  0  0
  6  7  1  0  0  0  0
  7  8  2  0  0  0  0
  7 13  1  0  0  0  0
  8  9  1  0  0  0  0
  8 11  1  0  0  0  0
  9 10  2  0  0  0  0
 11 12  1  0  0  0  0
 12 13  2  0  0  0  0
M  END
>  <CHROM.1>
9.52108829,3.63459429,36.51175883,-0.33659331,-1.22570717,-0.69465199

>  <Name>
1o15_lig

>  <RI>
0

>  <Rbt.Current_Directory>
/home/itssahil/PROJECTS/Mol_Feturizer/New_Systems/rnas/1o15

>  <Rbt.Executable>
rbdock ($Id: //depot/dev/client3/rdock/2013.1/src/exe/rbdock.cxx#4 $)

>  <Rbt.Library>
libRbt.so (2013.1, Build901 2013/11/27)

>  <Rbt.Parameter_File>
/export/apps/rDock/src/rDock_2013.1_src/data/scripts/dock_solv.prm

>  <Rbt.Receptor>
prm/pocket_docking_6.prm

>  <SCORE>
-23.3242

>  <SCORE.INTER>
-23.3242

>  <SCORE.INTER.CONST>
1

>  <SCORE.INTER.POLAR>
-1.67504

>  <SCORE.INTER.ROT>
0

>  <SCORE.INTER.SOLV>
7.10517

>  <SCORE.INTER.VDW>
-15.9344

>  <SCORE.INTER.norm>
-1.79417

>  <SCORE.INTRA>
0

>  <SCORE.INTRA.DIHEDRAL>
0

>  <SCORE.INTRA.DIHEDRAL.0>
0

>  <SCORE.INTRA.POLAR>
0

>  <SCORE.INTRA.POLAR.0>
0

>  <SCORE.INTRA.REPUL>
0

>  <SCORE.INTRA.REPUL.0>
0

>  <SCORE.INTRA.SOLV>
0

>  <SCORE.INTRA.SOLV.lig_0>
-12.9184

>  <SCORE.INTRA.VDW>
0

>  <SCORE.INTRA.VDW.0>
0

>  <SCORE.INTRA.norm>
0

>  <SCORE.RESTR>
0

>  <SCORE.RESTR.CAVITY>
0

>  <SCORE.RESTR.norm>
0

>  <SCORE.SYSTEM>
0

>  <SCORE.SYSTEM.CONST>
0

>  <SCORE.SYSTEM.DIHEDRAL>
0

>  <SCORE.SYSTEM.SOLV>
0

>  <SCORE.SYSTEM.norm>
0

>  <SCORE.heavy>
13

>  <SCORE.norm>
-1.79417

>  <RMSD>
3.282

$$$$
1o15_lig
 OpenBabel11021811403D
libRbt.so/2013.1/901 2013/11/27
 13 14  0  0  0  0  0  0  0  0999 V2000
   10.0246    5.8731   38.0620 C   0  0  0  0  0  0  0  0  0  0  0  0
    9.6260    4.7268   37.4104 N   0  0  0  0  0  0  0  0  0  0  0  0
    9.7111    3.5521   38.0882 C   0  0  0  0  0  0  0  0  0  0  0  0
   10.1468    3.6237   39.2345 O   0  0  0  0  0  0  0  0  0  0  0  0
    9.4558    1.1559   38.2916 C   0  0  0  0  0  0  0  0  0  0  0  0
    9.3557    2.3332   37.5815 N   0  0  0  0  0  0  0  0  0  0  0  0
    8.8921    2.4028   36.3042 C   0  0  0  0  0  0  0  0  0  0  0  0
    8.8091    3.5892   35.6349 C   0  0  0  0  0  0  0  0  0  0  0  0
    9.1726    4.8489   36.1463 C   0  0  0  0  0  0  0  0  0  0  0  0
    9.1231    5.9481   35.6002 O   0  0  0  0  0  0  0  0  0  0  0  0
    8.3031    3.2807   34.3804 N   0  0  0  0  0  0  0  0  0  0  0  0
    8.1148    1.9375   34.3767 C   0  0  0  0  0  0  0  0  0  0  0  0
    8.4501    1.3590   35.4981 N   0  0  0  0  0  0  0  0  0  0  0  0
  1  2  1  0  0  0  0
  2  3  1  0  0  0  0
  2  9  1  0  0  0  0
  3  4  2  0  0  0  0
  3  6  1  0  0  0  0
  6  5  1  0  0  0  0
  6  7  1  0  0  0  0
  7  8  2  0  0  0  0
  7 13  1  0  0  0  0
  8  9  1  0  0  0  0
  8 11  1  0  0  0  0
  9 10  2  0  0  0  0
 11 12  1  0  0  0  0
 12 13  2  0  0  0  0
M  END
>  <CHROM.1>
9.18582604,3.46781383,36.69716027,0.28349583,-1.19439541,-0.35825784

>  <Name>
1o15_lig

>  <RI>
0

>  <Rbt.Current_Directory>
/home/itssahil/PROJECTS/Mol_Feturizer/New_Systems/rnas/1o15

>  <Rbt.Executable>
rbdock ($Id: //depot/dev/client3/rdock/2013.1/src/exe/rbdock.cxx#4 $)

>  <Rbt.Library>
libRbt.so (2013.1, Build901 2013/11/27)

>  <Rbt.Parameter_File>
/export/apps/rDock/src/rDock_2013.1_src/data/scripts/dock_solv.prm

>  <Rbt.Receptor>
prm/pocket_docking_7.prm

>  <SCORE>
-21.9814

>  <SCORE.INTER>
-21.9814

>  <SCORE.INTER.CONST>
1

>  <SCORE.INTER.POLAR>
-1.73667

>  <SCORE.INTER.ROT>
0

>  <SCORE.INTER.SOLV>
5.89935

>  <SCORE.INTER.VDW>
-14.4319

>  <SCORE.INTER.norm>
-1.69088

>  <SCORE.INTRA>
0

>  <SCORE.INTRA.DIHEDRAL>
0

>  <SCORE.INTRA.DIHEDRAL.0>
0

>  <SCORE.INTRA.POLAR>
0

>  <SCORE.INTRA.POLAR.0>
0

>  <SCORE.INTRA.REPUL>
0

>  <SCORE.INTRA.REPUL.0>
0

>  <SCORE.INTRA.SOLV>
0

>  <SCORE.INTRA.SOLV.lig_0>
-12.9184

>  <SCORE.INTRA.VDW>
0

>  <SCORE.INTRA.VDW.0>
0

>  <SCORE.INTRA.norm>
0

>  <SCORE.RESTR>
0

>  <SCORE.RESTR.CAVITY>
0

>  <SCORE.RESTR.norm>
0

>  <SCORE.SYSTEM>
0

>  <SCORE.SYSTEM.CONST>
0

>  <SCORE.SYSTEM.DIHEDRAL>
0

>  <SCORE.SYSTEM.SOLV>
0

>  <SCORE.SYSTEM.norm>
0

>  <SCORE.heavy>
13

>  <SCORE.norm>
-1.69088

>  <RMSD>
3.288

$$$$
1o15_lig
 OpenBabel11021811403D
libRbt.so/2013.1/901 2013/11/27
 13 14  0  0  0  0  0  0  0  0999 V2000
   10.0257    5.8666   38.0542 C   0  0  0  0  0  0  0  0  0  0  0  0
    9.6261    4.7232   37.3983 N   0  0  0  0  0  0  0  0  0  0  0  0
    9.7201    3.5445   38.0681 C   0  0  0  0  0  0  0  0  0  0  0  0
   10.1640    3.6103   39.2115 O   0  0  0  0  0  0  0  0  0  0  0  0
    9.4741    1.1462   38.2580 C   0  0  0  0  0  0  0  0  0  0  0  0
    9.3649    2.3277   37.5562 N   0  0  0  0  0  0  0  0  0  0  0  0
    8.8917    2.4038   36.2828 C   0  0  0  0  0  0  0  0  0  0  0  0
    8.7999    3.5941   35.6217 C   0  0  0  0  0  0  0  0  0  0  0  0
    9.1630    4.8518   36.1384 C   0  0  0  0  0  0  0  0  0  0  0  0
    9.1058    5.9543   35.5997 O   0  0  0  0  0  0  0  0  0  0  0  0
    8.2856    3.2919   34.3690 N   0  0  0  0  0  0  0  0  0  0  0  0
    8.1017    1.9481   34.3581 C   0  0  0  0  0  0  0  0  0  0  0  0
    8.4472    1.3637   35.4734 N   0  0  0  0  0  0  0  0  0  0  0  0
  1  2  1  0  0  0  0
  2  3  1  0  0  0  0
  2  9  1  0  0  0  0
  3  4  2  0  0  0  0
  3  6  1  0  0  0  0
  6  5  1  0  0  0  0
  6  7  1  0  0  0  0
  7  8  2  0  0  0  0
  7 13  1  0  0  0  0
  8  9  1  0  0  0  0
  8 11  1  0  0  0  0
  9 10  2  0  0  0  0
 11 12  1  0  0  0  0
 12 13  2  0  0  0  0
M  END
>  <CHROM.1>
9.18480824,3.46726225,36.68037369,0.29866816,-1.18859355,-0.33781254

>  <Name>
1o15_lig

>  <RI>
0

>  <Rbt.Current_Directory>
/home/itssahil/PROJECTS/Mol_Feturizer/New_Systems/rnas/1o15

>  <Rbt.Executable>
rbdock ($Id: //depot/dev/client3/rdock/2013.1/src/exe/rbdock.cxx#4 $)

>  <Rbt.Library>
libRbt.so (2013.1, Build901 2013/11/27)

>  <Rbt.Parameter_File>
/export/apps/rDock/src/rDock_2013.1_src/data/scripts/dock_solv.prm

>  <Rbt.Receptor>
prm/pocket_docking_8.prm

>  <SCORE>
-21.9939

>  <SCORE.INTER>
-21.9939

>  <SCORE.INTER.CONST>
1

>  <SCORE.INTER.POLAR>
-1.73839

>  <SCORE.INTER.ROT>
0

>  <SCORE.INTER.SOLV>
5.87857

>  <SCORE.INTER.VDW>
-14.4275

>  <SCORE.INTER.norm>
-1.69184

>  <SCORE.INTRA>
0

>  <SCORE.INTRA.DIHEDRAL>
0

>  <SCORE.INTRA.DIHEDRAL.0>
0

>  <SCORE.INTRA.POLAR>
0

>  <SCORE.INTRA.POLAR.0>
0

>  <SCORE.INTRA.REPUL>
0

>  <SCORE.INTRA.REPUL.0>
0

>  <SCORE.INTRA.SOLV>
0

>  <SCORE.INTRA.SOLV.lig_0>
-12.9184

>  <SCORE.INTRA.VDW>
0

>  <SCORE.INTRA.VDW.0>
0

>  <SCORE.INTRA.norm>
0

>  <SCORE.RESTR>
0

>  <SCORE.RESTR.CAVITY>
0

>  <SCORE.RESTR.norm>
0

>  <SCORE.SYSTEM>
0

>  <SCORE.SYSTEM.CONST>
0

>  <SCORE.SYSTEM.DIHEDRAL>
0

>  <SCORE.SYSTEM.SOLV>
0

>  <SCORE.SYSTEM.norm>
0

>  <SCORE.heavy>
13

>  <SCORE.norm>
-1.69184

>  <RMSD>
3.288

$$$$
1o15_lig
 OpenBabel11021811403D
libRbt.so/2013.1/901 2013/11/27
 13 14  0  0  0  0  0  0  0  0999 V2000
   10.0303    5.8681   38.0461 C   0  0  0  0  0  0  0  0  0  0  0  0
    9.6300    4.7241   37.3916 N   0  0  0  0  0  0  0  0  0  0  0  0
    9.7217    3.5464   38.0634 C   0  0  0  0  0  0  0  0  0  0  0  0
   10.1645    3.6135   39.2073 O   0  0  0  0  0  0  0  0  0  0  0  0
    9.4724    1.1488   38.2571 C   0  0  0  0  0  0  0  0  0  0  0  0
    9.3655    2.3292   37.5532 N   0  0  0  0  0  0  0  0  0  0  0  0
    8.8937    2.4038   36.2792 C   0  0  0  0  0  0  0  0  0  0  0  0
    8.8042    3.5932   35.6161 C   0  0  0  0  0  0  0  0  0  0  0  0
    9.1683    4.8512   36.1310 C   0  0  0  0  0  0  0  0  0  0  0  0
    9.1132    5.9529   35.5905 O   0  0  0  0  0  0  0  0  0  0  0  0
    8.2909    3.2895   34.3633 N   0  0  0  0  0  0  0  0  0  0  0  0
    8.1052    1.9459   34.3545 C   0  0  0  0  0  0  0  0  0  0  0  0
    8.4487    1.3629   35.4711 N   0  0  0  0  0  0  0  0  0  0  0  0
  1  2  1  0  0  0  0
  2  3  1  0  0  0  0
  2  9  1  0  0  0  0
  3  4  2  0  0  0  0
  3  6  1  0  0  0  0
  6  5  1  0  0  0  0
  6  7  1  0  0  0  0
  7  8  2  0  0  0  0
  7 13  1  0  0  0  0
  8  9  1  0  0  0  0
  8 11  1  0  0  0  0
  9 10  2  0  0  0  0
 11 12  1  0  0  0  0
 12 13  2  0  0  0  0
M  END
>  <CHROM.1>
9.18781100,3.46755943,36.67531895,0.29446824,-1.18915795,-0.34337969

>  <Name>
1o15_lig

>  <RI>
0

>  <Rbt.Current_Directory>
/home/itssahil/PROJECTS/Mol_Feturizer/New_Systems/rnas/1o15

>  <Rbt.Executable>
rbdock ($Id: //depot/dev/client3/rdock/2013.1/src/exe/rbdock.cxx#4 $)

>  <Rbt.Library>
libRbt.so (2013.1, Build901 2013/11/27)

>  <Rbt.Parameter_File>
/export/apps/rDock/src/rDock_2013.1_src/data/scripts/dock_solv.prm

>  <Rbt.Receptor>
prm/pocket_docking_3.prm

>  <SCORE>
-21.9846

>  <SCORE.INTER>
-21.9846

>  <SCORE.INTER.CONST>
1

>  <SCORE.INTER.POLAR>
-1.73508

>  <SCORE.INTER.ROT>
0

>  <SCORE.INTER.SOLV>
5.88117

>  <SCORE.INTER.VDW>
-14.4332

>  <SCORE.INTER.norm>
-1.69112

>  <SCORE.INTRA>
0

>  <SCORE.INTRA.DIHEDRAL>
0

>  <SCORE.INTRA.DIHEDRAL.0>
0

>  <SCORE.INTRA.POLAR>
0

>  <SCORE.INTRA.POLAR.0>
0

>  <SCORE.INTRA.REPUL>
0

>  <SCORE.INTRA.REPUL.0>
0

>  <SCORE.INTRA.SOLV>
0

>  <SCORE.INTRA.SOLV.lig_0>
-12.9184

>  <SCORE.INTRA.VDW>
0

>  <SCORE.INTRA.VDW.0>
0

>  <SCORE.INTRA.norm>
0

>  <SCORE.RESTR>
0

>  <SCORE.RESTR.CAVITY>
0

>  <SCORE.RESTR.norm>
0

>  <SCORE.SYSTEM>
0

>  <SCORE.SYSTEM.CONST>
0

>  <SCORE.SYSTEM.DIHEDRAL>
0

>  <SCORE.SYSTEM.SOLV>
0

>  <SCORE.SYSTEM.norm>
0

>  <SCORE.heavy>
13

>  <SCORE.norm>
-1.69112

>  <RMSD>
3.289

$$$$
1o15_lig
 OpenBabel11021811403D
libRbt.so/2013.1/901 2013/11/27
 13 14  0  0  0  0  0  0  0  0999 V2000
   10.0325    5.8703   38.0406 C   0  0  0  0  0  0  0  0  0  0  0  0
    9.6313    4.7259   37.3872 N   0  0  0  0  0  0  0  0  0  0  0  0
    9.7215    3.5489   38.0604 C   0  0  0  0  0  0  0  0  0  0  0  0
   10.1638    3.6169   39.2044 O   0  0  0  0  0  0  0  0  0  0  0  0
    9.4696    1.1517   38.2567 C   0  0  0  0  0  0  0  0  0  0  0  0
    9.3642    2.3315   37.5514 N   0  0  0  0  0  0  0  0  0  0  0  0
    8.8931    2.4051   36.2772 C   0  0  0  0  0  0  0  0  0  0  0  0
    8.8051    3.5938   35.6126 C   0  0  0  0  0  0  0  0  0  0  0  0
    9.1703    4.8521   36.1263 C   0  0  0  0  0  0  0  0  0  0  0  0
    9.1165    5.9532   35.5845 O   0  0  0  0  0  0  0  0  0  0  0  0
    8.2920    3.2893   34.3600 N   0  0  0  0  0  0  0  0  0  0  0  0
    8.1049    1.9459   34.3526 C   0  0  0  0  0  0  0  0  0  0  0  0
    8.4474    1.3638   35.4700 N   0  0  0  0  0  0  0  0  0  0  0  0
  1  2  1  0  0  0  0
  2  3  1  0  0  0  0
  2  9  1  0  0  0  0
  3  4  2  0  0  0  0
  3  6  1  0  0  0  0
  6  5  1  0  0  0  0
  6  7  1  0  0  0  0
  7  8  2  0  0  0  0
  7 13  1  0  0  0  0
  8  9  1  0  0  0  0
  8 11  1  0  0  0  0
  9 10  2  0  0  0  0
 11 12  1  0  0  0  0
 12 13  2  0  0  0  0
M  END
>  <CHROM.1>
9.18809147,3.46903851,36.67216781,0.29146811,-1.18923097,-0.34729021

>  <Name>
1o15_lig

>  <RI>
0

>  <Rbt.Current_Directory>
/home/itssahil/PROJECTS/Mol_Feturizer/New_Systems/rnas/1o15

>  <Rbt.Executable>
rbdock ($Id: //depot/dev/client3/rdock/2013.1/src/exe/rbdock.cxx#4 $)

>  <Rbt.Library>
libRbt.so (2013.1, Build901 2013/11/27)

>  <Rbt.Parameter_File>
/export/apps/rDock/src/rDock_2013.1_src/data/scripts/dock_solv.prm

>  <Rbt.Receptor>
prm/pocket_docking_8.prm

>  <SCORE>
-21.9824

>  <SCORE.INTER>
-21.9824

>  <SCORE.INTER.CONST>
1

>  <SCORE.INTER.POLAR>
-1.73453

>  <SCORE.INTER.ROT>
0

>  <SCORE.INTER.SOLV>
5.88851

>  <SCORE.INTER.VDW>
-14.436

>  <SCORE.INTER.norm>
-1.69095

>  <SCORE.INTRA>
0

>  <SCORE.INTRA.DIHEDRAL>
0

>  <SCORE.INTRA.DIHEDRAL.0>
0

>  <SCORE.INTRA.POLAR>
0

>  <SCORE.INTRA.POLAR.0>
0

>  <SCORE.INTRA.REPUL>
0

>  <SCORE.INTRA.REPUL.0>
0

>  <SCORE.INTRA.SOLV>
0

>  <SCORE.INTRA.SOLV.lig_0>
-12.9184

>  <SCORE.INTRA.VDW>
0

>  <SCORE.INTRA.VDW.0>
0

>  <SCORE.INTRA.norm>
0

>  <SCORE.RESTR>
0

>  <SCORE.RESTR.CAVITY>
0

>  <SCORE.RESTR.norm>
0

>  <SCORE.SYSTEM>
0

>  <SCORE.SYSTEM.CONST>
0

>  <SCORE.SYSTEM.DIHEDRAL>
0

>  <SCORE.SYSTEM.SOLV>
0

>  <SCORE.SYSTEM.norm>
0

>  <SCORE.heavy>
13

>  <SCORE.norm>
-1.69095

>  <RMSD>
3.290

$$$$
1o15_lig
 OpenBabel11021811403D
libRbt.so/2013.1/901 2013/11/27
 13 14  0  0  0  0  0  0  0  0999 V2000
   10.3564    5.4245   38.5642 C   0  0  0  0  0  0  0  0  0  0  0  0
    9.8907    4.5596   37.5986 N   0  0  0  0  0  0  0  0  0  0  0  0
    9.6195    3.2814   37.9722 C   0  0  0  0  0  0  0  0  0  0  0  0
    9.8231    3.0124   39.1533 O   0  0  0  0  0  0  0  0  0  0  0  0
    8.8892    1.0169   37.5401 C   0  0  0  0  0  0  0  0  0  0  0  0
    9.1528    2.3076   37.1340 N   0  0  0  0  0  0  0  0  0  0  0  0
    8.9747    2.7445   35.8579 C   0  0  0  0  0  0  0  0  0  0  0  0
    9.2484    4.0315   35.4956 C   0  0  0  0  0  0  0  0  0  0  0  0
    9.7294    5.0415   36.3495 C   0  0  0  0  0  0  0  0  0  0  0  0
    9.9945    6.2123   36.0890 O   0  0  0  0  0  0  0  0  0  0  0  0
    8.9548    4.1136   34.1421 N   0  0  0  0  0  0  0  0  0  0  0  0
    8.5255    2.8789   33.7803 C   0  0  0  0  0  0  0  0  0  0  0  0
    8.5170    2.0191   34.7629 N   0  0  0  0  0  0  0  0  0  0  0  0
  1  2  1  0  0  0  0
  2  3  1  0  0  0  0
  2  9  1  0  0  0  0
  3  4  2  0  0  0  0
  3  6  1  0  0  0  0
  6  5  1  0  0  0  0
  6  7  1  0  0  0  0
  7  8  2  0  0  0  0
  7 13  1  0  0  0  0
  8  9  1  0  0  0  0
  8 11  1  0  0  0  0
  9 10  2  0  0  0  0
 11 12  1  0  0  0  0
 12 13  2  0  0  0  0
M  END
>  <CHROM.1>
9.37621708,3.60965910,36.54001039,-0.50883403,-1.22168812,-0.87062617

>  <Name>
1o15_lig

>  <RI>
0

>  <Rbt.Current_Directory>
/home/itssahil/PROJECTS/Mol_Feturizer/New_Systems/rnas/1o15

>  <Rbt.Executable>
rbdock ($Id: //depot/dev/client3/rdock/2013.1/src/exe/rbdock.cxx#4 $)

>  <Rbt.Library>
libRbt.so (2013.1, Build901 2013/11/27)

>  <Rbt.Parameter_File>
/export/apps/rDock/src/rDock_2013.1_src/data/scripts/dock_solv.prm

>  <Rbt.Receptor>
prm/pocket_docking_6.prm

>  <SCORE>
-23.2437

>  <SCORE.INTER>
-23.2437

>  <SCORE.INTER.CONST>
1

>  <SCORE.INTER.POLAR>
-1.57693

>  <SCORE.INTER.ROT>
0

>  <SCORE.INTER.SOLV>
7.39898

>  <SCORE.INTER.VDW>
-16.3057

>  <SCORE.INTER.norm>
-1.78797

>  <SCORE.INTRA>
0

>  <SCORE.INTRA.DIHEDRAL>
0

>  <SCORE.INTRA.DIHEDRAL.0>
0

>  <SCORE.INTRA.POLAR>
0

>  <SCORE.INTRA.POLAR.0>
0

>  <SCORE.INTRA.REPUL>
0

>  <SCORE.INTRA.REPUL.0>
0

>  <SCORE.INTRA.SOLV>
0

>  <SCORE.INTRA.SOLV.lig_0>
-12.9184

>  <SCORE.INTRA.VDW>
0

>  <SCORE.INTRA.VDW.0>
0

>  <SCORE.INTRA.norm>
0

>  <SCORE.RESTR>
0

>  <SCORE.RESTR.CAVITY>
0

>  <SCORE.RESTR.norm>
0

>  <SCORE.SYSTEM>
0

>  <SCORE.SYSTEM.CONST>
0

>  <SCORE.SYSTEM.DIHEDRAL>
0

>  <SCORE.SYSTEM.SOLV>
0

>  <SCORE.SYSTEM.norm>
0

>  <SCORE.heavy>
13

>  <SCORE.norm>
-1.78797

>  <RMSD>
3.295

$$$$
1o15_lig
 OpenBabel11021811403D
libRbt.so/2013.1/901 2013/11/27
 13 14  0  0  0  0  0  0  0  0999 V2000
   11.4985    5.1425   38.0552 C   0  0  0  0  0  0  0  0  0  0  0  0
   10.8654    4.3436   37.1287 N   0  0  0  0  0  0  0  0  0  0  0  0
   10.8610    3.0025   37.3481 C   0  0  0  0  0  0  0  0  0  0  0  0
   11.4352    2.6227   38.3654 O   0  0  0  0  0  0  0  0  0  0  0  0
   10.2907    0.7244   36.7706 C   0  0  0  0  0  0  0  0  0  0  0  0
   10.2770    2.0807   36.5246 N   0  0  0  0  0  0  0  0  0  0  0  0
    9.6801    2.6409   35.4378 C   0  0  0  0  0  0  0  0  0  0  0  0
    9.6893    3.9896   35.2300 C   0  0  0  0  0  0  0  0  0  0  0  0
   10.2876    4.9470   36.0702 C   0  0  0  0  0  0  0  0  0  0  0  0
   10.3318    6.1679   35.9420 O   0  0  0  0  0  0  0  0  0  0  0  0
    8.9992    4.1938   34.0438 N   0  0  0  0  0  0  0  0  0  0  0  0
    8.6212    2.9628   33.6181 C   0  0  0  0  0  0  0  0  0  0  0  0
    9.0006    1.9961   34.4096 N   0  0  0  0  0  0  0  0  0  0  0  0
  1  2  1  0  0  0  0
  2  3  1  0  0  0  0
  2  9  1  0  0  0  0
  3  4  2  0  0  0  0
  3  6  1  0  0  0  0
  6  5  1  0  0  0  0
  6  7  1  0  0  0  0
  7  8  2  0  0  0  0
  7 13  1  0  0  0  0
  8  9  1  0  0  0  0
  8 11  1  0  0  0  0
  9 10  2  0  0  0  0
 11 12  1  0  0  0  0
 12 13  2  0  0  0  0
M  END
>  <CHROM.1>
10.16790485,3.46548746,36.11385005,0.10410188,-1.02457262,-0.16355596

>  <Name>
1o15_lig

>  <RI>
0

>  <Rbt.Current_Directory>
/home/itssahil/PROJECTS/Mol_Feturizer/New_Systems/rnas/1o15

>  <Rbt.Executable>
rbdock ($Id: //depot/dev/client3/rdock/2013.1/src/exe/rbdock.cxx#4 $)

>  <Rbt.Library>
libRbt.so (2013.1, Build901 2013/11/27)

>  <Rbt.Parameter_File>
/export/apps/rDock/src/rDock_2013.1_src/data/scripts/dock_solv.prm

>  <Rbt.Receptor>
prm/pocket_docking_4.prm

>  <SCORE>
-24.6247

>  <SCORE.INTER>
-24.6247

>  <SCORE.INTER.CONST>
1

>  <SCORE.INTER.POLAR>
-1.88616

>  <SCORE.INTER.ROT>
0

>  <SCORE.INTER.SOLV>
7.62176

>  <SCORE.INTER.VDW>
-16.2699

>  <SCORE.INTER.norm>
-1.89421

>  <SCORE.INTRA>
0

>  <SCORE.INTRA.DIHEDRAL>
0

>  <SCORE.INTRA.DIHEDRAL.0>
0

>  <SCORE.INTRA.POLAR>
0

>  <SCORE.INTRA.POLAR.0>
0

>  <SCORE.INTRA.REPUL>
0

>  <SCORE.INTRA.REPUL.0>
0

>  <SCORE.INTRA.SOLV>
0

>  <SCORE.INTRA.SOLV.lig_0>
-12.9184

>  <SCORE.INTRA.VDW>
0

>  <SCORE.INTRA.VDW.0>
0

>  <SCORE.INTRA.norm>
0

>  <SCORE.RESTR>
0

>  <SCORE.RESTR.CAVITY>
0

>  <SCORE.RESTR.norm>
0

>  <SCORE.SYSTEM>
0

>  <SCORE.SYSTEM.CONST>
0

>  <SCORE.SYSTEM.DIHEDRAL>
0

>  <SCORE.SYSTEM.SOLV>
0

>  <SCORE.SYSTEM.norm>
0

>  <SCORE.heavy>
13

>  <SCORE.norm>
-1.89421

>  <RMSD>
3.333

$$$$
1o15_lig
 OpenBabel11021811403D
libRbt.so/2013.1/901 2013/11/27
 13 14  0  0  0  0  0  0  0  0999 V2000
   11.5249    5.1330   38.0653 C   0  0  0  0  0  0  0  0  0  0  0  0
   10.9132    4.3362   37.1228 N   0  0  0  0  0  0  0  0  0  0  0  0
   10.9757    2.9898   37.2965 C   0  0  0  0  0  0  0  0  0  0  0  0
   11.5855    2.6042   38.2906 O   0  0  0  0  0  0  0  0  0  0  0  0
   10.5025    0.7077   36.6514 C   0  0  0  0  0  0  0  0  0  0  0  0
   10.4206    2.0692   36.4519 N   0  0  0  0  0  0  0  0  0  0  0  0
    9.7784    2.6362   35.3949 C   0  0  0  0  0  0  0  0  0  0  0  0
    9.7205    3.9900   35.2330 C   0  0  0  0  0  0  0  0  0  0  0  0
   10.2885    4.9463   36.0953 C   0  0  0  0  0  0  0  0  0  0  0  0
   10.2730    6.1714   36.0079 O   0  0  0  0  0  0  0  0  0  0  0  0
    9.0001    4.2005   34.0661 N   0  0  0  0  0  0  0  0  0  0  0  0
    8.6725    2.9677   33.6051 C   0  0  0  0  0  0  0  0  0  0  0  0
    9.1113    1.9944   34.3568 N   0  0  0  0  0  0  0  0  0  0  0  0
  1  2  1  0  0  0  0
  2  3  1  0  0  0  0
  2  9  1  0  0  0  0
  3  4  2  0  0  0  0
  3  6  1  0  0  0  0
  6  5  1  0  0  0  0
  6  7  1  0  0  0  0
  7  8  2  0  0  0  0
  7 13  1  0  0  0  0
  8  9  1  0  0  0  0
  8 11  1  0  0  0  0
  9 10  2  0  0  0  0
 11 12  1  0  0  0  0
 12 13  2  0  0  0  0
M  END
>  <CHROM.1>
10.23924140,3.46012527,36.09040889,0.19720596,-1.01226734,-0.05062479

>  <Name>
1o15_lig

>  <RI>
0

>  <Rbt.Current_Directory>
/home/itssahil/PROJECTS/Mol_Feturizer/New_Systems/rnas/1o15

>  <Rbt.Executable>
rbdock ($Id: //depot/dev/client3/rdock/2013.1/src/exe/rbdock.cxx#4 $)

>  <Rbt.Library>
libRbt.so (2013.1, Build901 2013/11/27)

>  <Rbt.Parameter_File>
/export/apps/rDock/src/rDock_2013.1_src/data/scripts/dock_solv.prm

>  <Rbt.Receptor>
prm/pocket_docking_4.prm

>  <SCORE>
-25.1347

>  <SCORE.INTER>
-25.1347

>  <SCORE.INTER.CONST>
1

>  <SCORE.INTER.POLAR>
-1.96155

>  <SCORE.INTER.ROT>
0

>  <SCORE.INTER.SOLV>
7.75486

>  <SCORE.INTER.VDW>
-16.4029

>  <SCORE.INTER.norm>
-1.93344

>  <SCORE.INTRA>
0

>  <SCORE.INTRA.DIHEDRAL>
0

>  <SCORE.INTRA.DIHEDRAL.0>
0

>  <SCORE.INTRA.POLAR>
0

>  <SCORE.INTRA.POLAR.0>
0

>  <SCORE.INTRA.REPUL>
0

>  <SCORE.INTRA.REPUL.0>
0

>  <SCORE.INTRA.SOLV>
0

>  <SCORE.INTRA.SOLV.lig_0>
-12.9184

>  <SCORE.INTRA.VDW>
0

>  <SCORE.INTRA.VDW.0>
0

>  <SCORE.INTRA.norm>
0

>  <SCORE.RESTR>
0

>  <SCORE.RESTR.CAVITY>
0

>  <SCORE.RESTR.norm>
0

>  <SCORE.SYSTEM>
0

>  <SCORE.SYSTEM.CONST>
0

>  <SCORE.SYSTEM.DIHEDRAL>
0

>  <SCORE.SYSTEM.SOLV>
0

>  <SCORE.SYSTEM.norm>
0

>  <SCORE.heavy>
13

>  <SCORE.norm>
-1.93344

>  <RMSD>
3.346

$$$$
1o15_lig
 OpenBabel11021811403D
libRbt.so/2013.1/901 2013/11/27
 13 14  0  0  0  0  0  0  0  0999 V2000
   11.5317    5.1435   38.0367 C   0  0  0  0  0  0  0  0  0  0  0  0
   10.9077    4.3497   37.0997 N   0  0  0  0  0  0  0  0  0  0  0  0
   10.9705    3.0028   37.2695 C   0  0  0  0  0  0  0  0  0  0  0  0
   11.5916    2.6140   38.2553 O   0  0  0  0  0  0  0  0  0  0  0  0
   10.4865    0.7229   36.6247 C   0  0  0  0  0  0  0  0  0  0  0  0
   10.4041    2.0850   36.4294 N   0  0  0  0  0  0  0  0  0  0  0  0
    9.7501    2.6553   35.3815 C   0  0  0  0  0  0  0  0  0  0  0  0
    9.6921    4.0096   35.2235 C   0  0  0  0  0  0  0  0  0  0  0  0
   10.2716    4.9631   36.0812 C   0  0  0  0  0  0  0  0  0  0  0  0
   10.2567    6.1885   35.9969 O   0  0  0  0  0  0  0  0  0  0  0  0
    8.9581    4.2238   34.0658 N   0  0  0  0  0  0  0  0  0  0  0  0
    8.6234    2.9925   33.6059 C   0  0  0  0  0  0  0  0  0  0  0  0
    9.0698    2.0169   34.3499 N   0  0  0  0  0  0  0  0  0  0  0  0
  1  2  1  0  0  0  0
  2  3  1  0  0  0  0
  2  9  1  0  0  0  0
  3  4  2  0  0  0  0
  3  6  1  0  0  0  0
  6  5  1  0  0  0  0
  6  7  1  0  0  0  0
  7  8  2  0  0  0  0
  7 13  1  0  0  0  0
  8  9  1  0  0  0  0
  8 11  1  0  0  0  0
  9 10  2  0  0  0  0
 11 12  1  0  0  0  0
 12 13  2  0  0  0  0
M  END
>  <CHROM.1>
10.22032295,3.47699348,36.07339429,0.19581739,-1.00026234,-0.04943227

>  <Name>
1o15_lig

>  <RI>
0

>  <Rbt.Current_Directory>
/home/itssahil/PROJECTS/Mol_Feturizer/New_Systems/rnas/1o15

>  <Rbt.Executable>
rbdock ($Id: //depot/dev/client3/rdock/2013.1/src/exe/rbdock.cxx#4 $)

>  <Rbt.Library>
libRbt.so (2013.1, Build901 2013/11/27)

>  <Rbt.Parameter_File>
/export/apps/rDock/src/rDock_2013.1_src/data/scripts/dock_solv.prm

>  <Rbt.Receptor>
prm/pocket_docking_3.prm

>  <SCORE>
-24.9696

>  <SCORE.INTER>
-24.9713

>  <SCORE.INTER.CONST>
1

>  <SCORE.INTER.POLAR>
-1.97602

>  <SCORE.INTER.ROT>
0

>  <SCORE.INTER.SOLV>
7.75767

>  <SCORE.INTER.VDW>
-16.2467

>  <SCORE.INTER.norm>
-1.92087

>  <SCORE.INTRA>
0

>  <SCORE.INTRA.DIHEDRAL>
0

>  <SCORE.INTRA.DIHEDRAL.0>
0

>  <SCORE.INTRA.POLAR>
0

>  <SCORE.INTRA.POLAR.0>
0

>  <SCORE.INTRA.REPUL>
0

>  <SCORE.INTRA.REPUL.0>
0

>  <SCORE.INTRA.SOLV>
0

>  <SCORE.INTRA.SOLV.lig_0>
-12.9184

>  <SCORE.INTRA.VDW>
0

>  <SCORE.INTRA.VDW.0>
0

>  <SCORE.INTRA.norm>
0

>  <SCORE.RESTR>
0.00170302

>  <SCORE.RESTR.CAVITY>
0.00170302

>  <SCORE.RESTR.norm>
0.000131001

>  <SCORE.SYSTEM>
0

>  <SCORE.SYSTEM.CONST>
0

>  <SCORE.SYSTEM.DIHEDRAL>
0

>  <SCORE.SYSTEM.SOLV>
0

>  <SCORE.SYSTEM.norm>
0

>  <SCORE.heavy>
13

>  <SCORE.norm>
-1.92074

>  <RMSD>
3.347

$$$$
1o15_lig
 OpenBabel11021811403D
libRbt.so/2013.1/901 2013/11/27
 13 14  0  0  0  0  0  0  0  0999 V2000
   11.5315    5.2307   38.1179 C   0  0  0  0  0  0  0  0  0  0  0  0
   10.9520    4.4128   37.1731 N   0  0  0  0  0  0  0  0  0  0  0  0
   11.0902    3.0700   37.3291 C   0  0  0  0  0  0  0  0  0  0  0  0
   11.7331    2.7065   38.3107 O   0  0  0  0  0  0  0  0  0  0  0  0
   10.7340    0.7731   36.6612 C   0  0  0  0  0  0  0  0  0  0  0  0
   10.5753    2.1304   36.4799 N   0  0  0  0  0  0  0  0  0  0  0  0
    9.8894    2.6738   35.4381 C   0  0  0  0  0  0  0  0  0  0  0  0
    9.7555    4.0243   35.2940 C   0  0  0  0  0  0  0  0  0  0  0  0
   10.2815    5.0000   36.1611 C   0  0  0  0  0  0  0  0  0  0  0  0
   10.1980    6.2234   36.0894 O   0  0  0  0  0  0  0  0  0  0  0  0
    9.0096    4.2088   34.1388 N   0  0  0  0  0  0  0  0  0  0  0  0
    8.7439    2.9655   33.6664 C   0  0  0  0  0  0  0  0  0  0  0  0
    9.2449    2.0089   34.4004 N   0  0  0  0  0  0  0  0  0  0  0  0
  1  2  1  0  0  0  0
  2  3  1  0  0  0  0
  2  9  1  0  0  0  0
  3  4  2  0  0  0  0
  3  6  1  0  0  0  0
  6  5  1  0  0  0  0
  6  7  1  0  0  0  0
  7  8  2  0  0  0  0
  7 13  1  0  0  0  0
  8  9  1  0  0  0  0
  8 11  1  0  0  0  0
  9 10  2  0  0  0  0
 11 12  1  0  0  0  0
 12 13  2  0  0  0  0
M  END
>  <CHROM.1>
10.31352919,3.51349268,36.13819358,0.29952645,-0.99963481,0.04805336

>  <Name>
1o15_lig

>  <RI>
0

>  <Rbt.Current_Directory>
/home/itssahil/PROJECTS/Mol_Feturizer/New_Systems/rnas/1o15

>  <Rbt.Executable>
rbdock ($Id: //depot/dev/client3/rdock/2013.1/src/exe/rbdock.cxx#4 $)

>  <Rbt.Library>
libRbt.so (2013.1, Build901 2013/11/27)

>  <Rbt.Parameter_File>
/export/apps/rDock/src/rDock_2013.1_src/data/scripts/dock_solv.prm

>  <Rbt.Receptor>
prm/pocket_docking_5.prm

>  <SCORE>
-24.8863

>  <SCORE.INTER>
-24.8863

>  <SCORE.INTER.CONST>
1

>  <SCORE.INTER.POLAR>
-2.03754

>  <SCORE.INTER.ROT>
0

>  <SCORE.INTER.SOLV>
7.74132

>  <SCORE.INTER.VDW>
-15.9795

>  <SCORE.INTER.norm>
-1.91433

>  <SCORE.INTRA>
0

>  <SCORE.INTRA.DIHEDRAL>
0

>  <SCORE.INTRA.DIHEDRAL.0>
0

>  <SCORE.INTRA.POLAR>
0

>  <SCORE.INTRA.POLAR.0>
0

>  <SCORE.INTRA.REPUL>
0

>  <SCORE.INTRA.REPUL.0>
0

>  <SCORE.INTRA.SOLV>
0

>  <SCORE.INTRA.SOLV.lig_0>
-12.9184

>  <SCORE.INTRA.VDW>
0

>  <SCORE.INTRA.VDW.0>
0

>  <SCORE.INTRA.norm>
0

>  <SCORE.RESTR>
0

>  <SCORE.RESTR.CAVITY>
0

>  <SCORE.RESTR.norm>
0

>  <SCORE.SYSTEM>
0

>  <SCORE.SYSTEM.CONST>
0

>  <SCORE.SYSTEM.DIHEDRAL>
0

>  <SCORE.SYSTEM.SOLV>
0

>  <SCORE.SYSTEM.norm>
0

>  <SCORE.heavy>
13

>  <SCORE.norm>
-1.91433

>  <RMSD>
3.348

$$$$
1o15_lig
 OpenBabel11021811403D
libRbt.so/2013.1/901 2013/11/27
 13 14  0  0  0  0  0  0  0  0999 V2000
   11.5145    5.1615   38.0793 C   0  0  0  0  0  0  0  0  0  0  0  0
   10.9185    4.3596   37.1311 N   0  0  0  0  0  0  0  0  0  0  0  0
   11.0126    3.0135   37.2918 C   0  0  0  0  0  0  0  0  0  0  0  0
   11.6343    2.6327   38.2804 O   0  0  0  0  0  0  0  0  0  0  0  0
   10.5903    0.7272   36.6264 C   0  0  0  0  0  0  0  0  0  0  0  0
   10.4764    2.0883   36.4402 N   0  0  0  0  0  0  0  0  0  0  0  0
    9.8179    2.6501   35.3905 C   0  0  0  0  0  0  0  0  0  0  0  0
    9.7283    4.0038   35.2416 C   0  0  0  0  0  0  0  0  0  0  0  0
   10.2766    4.9648   36.1112 C   0  0  0  0  0  0  0  0  0  0  0  0
   10.2325    6.1900   36.0356 O   0  0  0  0  0  0  0  0  0  0  0  0
    8.9995    4.2085   34.0788 N   0  0  0  0  0  0  0  0  0  0  0  0
    8.6991    2.9728   33.6071 C   0  0  0  0  0  0  0  0  0  0  0  0
    9.1626    2.0029   34.3482 N   0  0  0  0  0  0  0  0  0  0  0  0
  1  2  1  0  0  0  0
  2  3  1  0  0  0  0
  2  9  1  0  0  0  0
  3  4  2  0  0  0  0
  3  6  1  0  0  0  0
  6  5  1  0  0  0  0
  6  7  1  0  0  0  0
  7  8  2  0  0  0  0
  7 13  1  0  0  0  0
  8  9  1  0  0  0  0
  8 11  1  0  0  0  0
  9 10  2  0  0  0  0
 11 12  1  0  0  0  0
 12 13  2  0  0  0  0
M  END
>  <CHROM.1>
10.26174353,3.47795730,36.09240809,0.24091894,-1.00987814,-0.00412149

>  <Name>
1o15_lig

>  <RI>
0

>  <Rbt.Current_Directory>
/home/itssahil/PROJECTS/Mol_Feturizer/New_Systems/rnas/1o15

>  <Rbt.Executable>
rbdock ($Id: //depot/dev/client3/rdock/2013.1/src/exe/rbdock.cxx#4 $)

>  <Rbt.Library>
libRbt.so (2013.1, Build901 2013/11/27)

>  <Rbt.Parameter_File>
/export/apps/rDock/src/rDock_2013.1_src/data/scripts/dock_solv.prm

>  <Rbt.Receptor>
prm/pocket_docking_4.prm

>  <SCORE>
-25.1203

>  <SCORE.INTER>
-25.1203

>  <SCORE.INTER.CONST>
1

>  <SCORE.INTER.POLAR>
-1.99922

>  <SCORE.INTER.ROT>
0

>  <SCORE.INTER.SOLV>
7.78833

>  <SCORE.INTER.VDW>
-16.2789

>  <SCORE.INTER.norm>
-1.93233

>  <SCORE.INTRA>
0

>  <SCORE.INTRA.DIHEDRAL>
0

>  <SCORE.INTRA.DIHEDRAL.0>
0

>  <SCORE.INTRA.POLAR>
0

>  <SCORE.INTRA.POLAR.0>
0

>  <SCORE.INTRA.REPUL>
0

>  <SCORE.INTRA.REPUL.0>
0

>  <SCORE.INTRA.SOLV>
0

>  <SCORE.INTRA.SOLV.lig_0>
-12.9184

>  <SCORE.INTRA.VDW>
0

>  <SCORE.INTRA.VDW.0>
0

>  <SCORE.INTRA.norm>
0

>  <SCORE.RESTR>
0

>  <SCORE.RESTR.CAVITY>
0

>  <SCORE.RESTR.norm>
0

>  <SCORE.SYSTEM>
0

>  <SCORE.SYSTEM.CONST>
0

>  <SCORE.SYSTEM.DIHEDRAL>
0

>  <SCORE.SYSTEM.SOLV>
0

>  <SCORE.SYSTEM.norm>
0

>  <SCORE.heavy>
13

>  <SCORE.norm>
-1.93233

>  <RMSD>
3.349

$$$$
1o15_lig
 OpenBabel11021811403D
libRbt.so/2013.1/901 2013/11/27
 13 14  0  0  0  0  0  0  0  0999 V2000
   11.5360    5.1228   38.0712 C   0  0  0  0  0  0  0  0  0  0  0  0
   10.9300    4.3279   37.1234 N   0  0  0  0  0  0  0  0  0  0  0  0
   11.0104    2.9807   37.2829 C   0  0  0  0  0  0  0  0  0  0  0  0
   11.6298    2.5927   38.2702 O   0  0  0  0  0  0  0  0  0  0  0  0
   10.5633    0.6995   36.6164 C   0  0  0  0  0  0  0  0  0  0  0  0
   10.4632    2.0619   36.4314 N   0  0  0  0  0  0  0  0  0  0  0  0
    9.8088    2.6313   35.3833 C   0  0  0  0  0  0  0  0  0  0  0  0
    9.7330    3.9859   35.2356 C   0  0  0  0  0  0  0  0  0  0  0  0
   10.2927    4.9405   36.1051 C   0  0  0  0  0  0  0  0  0  0  0  0
   10.2612    6.1662   36.0305 O   0  0  0  0  0  0  0  0  0  0  0  0
    9.0044    4.1991   34.0742 N   0  0  0  0  0  0  0  0  0  0  0  0
    8.6904    2.9670   33.6021 C   0  0  0  0  0  0  0  0  0  0  0  0
    9.1450    1.9918   34.3417 N   0  0  0  0  0  0  0  0  0  0  0  0
  1  2  1  0  0  0  0
  2  3  1  0  0  0  0
  2  9  1  0  0  0  0
  3  4  2  0  0  0  0
  3  6  1  0  0  0  0
  6  5  1  0  0  0  0
  6  7  1  0  0  0  0
  7  8  2  0  0  0  0
  7 13  1  0  0  0  0
  8  9  1  0  0  0  0
  8 11  1  0  0  0  0
  9 10  2  0  0  0  0
 11 12  1  0  0  0  0
 12 13  2  0  0  0  0
M  END
>  <CHROM.1>
10.26239474,3.45395089,36.08512004,0.22147829,-1.00806146,-0.01977425

>  <Name>
1o15_lig

>  <RI>
0

>  <Rbt.Current_Directory>
/home/itssahil/PROJECTS/Mol_Feturizer/New_Systems/rnas/1o15

>  <Rbt.Executable>
rbdock ($Id: //depot/dev/client3/rdock/2013.1/src/exe/rbdock.cxx#4 $)

>  <Rbt.Library>
libRbt.so (2013.1, Build901 2013/11/27)

>  <Rbt.Parameter_File>
/export/apps/rDock/src/rDock_2013.1_src/data/scripts/dock_solv.prm

>  <Rbt.Receptor>
prm/pocket_docking_7.prm

>  <SCORE>
-25.1574

>  <SCORE.INTER>
-25.1574

>  <SCORE.INTER.CONST>
1

>  <SCORE.INTER.POLAR>
-1.97567

>  <SCORE.INTER.ROT>
0

>  <SCORE.INTER.SOLV>
7.78709

>  <SCORE.INTER.VDW>
-16.3817

>  <SCORE.INTER.norm>
-1.93518

>  <SCORE.INTRA>
0

>  <SCORE.INTRA.DIHEDRAL>
0

>  <SCORE.INTRA.DIHEDRAL.0>
0

>  <SCORE.INTRA.POLAR>
0

>  <SCORE.INTRA.POLAR.0>
0

>  <SCORE.INTRA.REPUL>
0

>  <SCORE.INTRA.REPUL.0>
0

>  <SCORE.INTRA.SOLV>
0

>  <SCORE.INTRA.SOLV.lig_0>
-12.9184

>  <SCORE.INTRA.VDW>
0

>  <SCORE.INTRA.VDW.0>
0

>  <SCORE.INTRA.norm>
0

>  <SCORE.RESTR>
0

>  <SCORE.RESTR.CAVITY>
0

>  <SCORE.RESTR.norm>
0

>  <SCORE.SYSTEM>
0

>  <SCORE.SYSTEM.CONST>
0

>  <SCORE.SYSTEM.DIHEDRAL>
0

>  <SCORE.SYSTEM.SOLV>
0

>  <SCORE.SYSTEM.norm>
0

>  <SCORE.heavy>
13

>  <SCORE.norm>
-1.93518

>  <RMSD>
3.349

$$$$
1o15_lig
 OpenBabel11021811403D
libRbt.so/2013.1/901 2013/11/27
 13 14  0  0  0  0  0  0  0  0999 V2000
   11.5335    5.1378   38.0677 C   0  0  0  0  0  0  0  0  0  0  0  0
   10.9275    4.3396   37.1226 N   0  0  0  0  0  0  0  0  0  0  0  0
   11.0063    2.9931   37.2878 C   0  0  0  0  0  0  0  0  0  0  0  0
   11.6243    2.6085   38.2772 O   0  0  0  0  0  0  0  0  0  0  0  0
   10.5572    0.7095   36.6304 C   0  0  0  0  0  0  0  0  0  0  0  0
   10.4588    2.0713   36.4396 N   0  0  0  0  0  0  0  0  0  0  0  0
    9.8060    2.6371   35.3885 C   0  0  0  0  0  0  0  0  0  0  0  0
    9.7318    3.9911   35.2351 C   0  0  0  0  0  0  0  0  0  0  0  0
   10.2919    4.9487   36.1011 C   0  0  0  0  0  0  0  0  0  0  0  0
   10.2618    6.1741   36.0213 O   0  0  0  0  0  0  0  0  0  0  0  0
    9.0046    4.2003   34.0722 N   0  0  0  0  0  0  0  0  0  0  0  0
    8.6897    2.9666   33.6049 C   0  0  0  0  0  0  0  0  0  0  0  0
    9.1425    1.9939   34.3489 N   0  0  0  0  0  0  0  0  0  0  0  0
  1  2  1  0  0  0  0
  2  3  1  0  0  0  0
  2  9  1  0  0  0  0
  3  4  2  0  0  0  0
  3  6  1  0  0  0  0
  6  5  1  0  0  0  0
  6  7  1  0  0  0  0
  7  8  2  0  0  0  0
  7 13  1  0  0  0  0
  8  9  1  0  0  0  0
  8 11  1  0  0  0  0
  9 10  2  0  0  0  0
 11 12  1  0  0  0  0
 12 13  2  0  0  0  0
M  END
>  <CHROM.1>
10.25989086,3.46210526,36.08733225,0.21932901,-1.00897648,-0.02577281

>  <Name>
1o15_lig

>  <RI>
0

>  <Rbt.Current_Directory>
/home/itssahil/PROJECTS/Mol_Feturizer/New_Systems/rnas/1o15

>  <Rbt.Executable>
rbdock ($Id: //depot/dev/client3/rdock/2013.1/src/exe/rbdock.cxx#4 $)

>  <Rbt.Library>
libRbt.so (2013.1, Build901 2013/11/27)

>  <Rbt.Parameter_File>
/export/apps/rDock/src/rDock_2013.1_src/data/scripts/dock_solv.prm

>  <Rbt.Receptor>
prm/pocket_docking_7.prm

>  <SCORE>
-25.1513

>  <SCORE.INTER>
-25.1513

>  <SCORE.INTER.CONST>
1

>  <SCORE.INTER.POLAR>
-1.97523

>  <SCORE.INTER.ROT>
0

>  <SCORE.INTER.SOLV>
7.79516

>  <SCORE.INTER.VDW>
-16.3818

>  <SCORE.INTER.norm>
-1.93472

>  <SCORE.INTRA>
0

>  <SCORE.INTRA.DIHEDRAL>
0

>  <SCORE.INTRA.DIHEDRAL.0>
0

>  <SCORE.INTRA.POLAR>
0

>  <SCORE.INTRA.POLAR.0>
0

>  <SCORE.INTRA.REPUL>
0

>  <SCORE.INTRA.REPUL.0>
0

>  <SCORE.INTRA.SOLV>
0

>  <SCORE.INTRA.SOLV.lig_0>
-12.9184

>  <SCORE.INTRA.VDW>
0

>  <SCORE.INTRA.VDW.0>
0

>  <SCORE.INTRA.norm>
0

>  <SCORE.RESTR>
0

>  <SCORE.RESTR.CAVITY>
0

>  <SCORE.RESTR.norm>
0

>  <SCORE.SYSTEM>
0

>  <SCORE.SYSTEM.CONST>
0

>  <SCORE.SYSTEM.DIHEDRAL>
0

>  <SCORE.SYSTEM.SOLV>
0

>  <SCORE.SYSTEM.norm>
0

>  <SCORE.heavy>
13

>  <SCORE.norm>
-1.93472

>  <RMSD>
3.350

$$$$
1o15_lig
 OpenBabel11021811403D
libRbt.so/2013.1/901 2013/11/27
 13 14  0  0  0  0  0  0  0  0999 V2000
   11.5327    5.1551   38.0694 C   0  0  0  0  0  0  0  0  0  0  0  0
   10.9307    4.3540   37.1242 N   0  0  0  0  0  0  0  0  0  0  0  0
   11.0194    3.0078   37.2873 C   0  0  0  0  0  0  0  0  0  0  0  0
   11.6420    2.6262   38.2751 O   0  0  0  0  0  0  0  0  0  0  0  0
   10.5854    0.7221   36.6274 C   0  0  0  0  0  0  0  0  0  0  0  0
   10.4770    2.0834   36.4388 N   0  0  0  0  0  0  0  0  0  0  0  0
    9.8183    2.6460   35.3897 C   0  0  0  0  0  0  0  0  0  0  0  0
    9.7342    3.9997   35.2384 C   0  0  0  0  0  0  0  0  0  0  0  0
   10.2889    4.9600   36.1048 C   0  0  0  0  0  0  0  0  0  0  0  0
   10.2500    6.1853   36.0268 O   0  0  0  0  0  0  0  0  0  0  0  0
    9.0034    4.2054   34.0771 N   0  0  0  0  0  0  0  0  0  0  0  0
    8.6964    2.9701   33.6086 C   0  0  0  0  0  0  0  0  0  0  0  0
    9.1575    1.9997   34.3504 N   0  0  0  0  0  0  0  0  0  0  0  0
  1  2  1  0  0  0  0
  2  3  1  0  0  0  0
  2  9  1  0  0  0  0
  3  4  2  0  0  0  0
  3  6  1  0  0  0  0
  6  5  1  0  0  0  0
  6  7  1  0  0  0  0
  7  8  2  0  0  0  0
  7 13  1  0  0  0  0
  8  9  1  0  0  0  0
  8 11  1  0  0  0  0
  9 10  2  0  0  0  0
 11 12  1  0  0  0  0
 12 13  2  0  0  0  0
M  END
>  <CHROM.1>
10.26754265,3.47326200,36.08889285,0.23277920,-1.00730790,-0.01294721

>  <Name>
1o15_lig

>  <RI>
0

>  <Rbt.Current_Directory>
/home/itssahil/PROJECTS/Mol_Feturizer/New_Systems/rnas/1o15

>  <Rbt.Executable>
rbdock ($Id: //depot/dev/client3/rdock/2013.1/src/exe/rbdock.cxx#4 $)

>  <Rbt.Library>
libRbt.so (2013.1, Build901 2013/11/27)

>  <Rbt.Parameter_File>
/export/apps/rDock/src/rDock_2013.1_src/data/scripts/dock_solv.prm

>  <Rbt.Receptor>
prm/pocket_docking_4.prm

>  <SCORE>
-25.1284

>  <SCORE.INTER>
-25.1284

>  <SCORE.INTER.CONST>
1

>  <SCORE.INTER.POLAR>
-1.98874

>  <SCORE.INTER.ROT>
0

>  <SCORE.INTER.SOLV>
7.81021

>  <SCORE.INTER.VDW>
-16.3265

>  <SCORE.INTER.norm>
-1.93295

>  <SCORE.INTRA>
0

>  <SCORE.INTRA.DIHEDRAL>
0

>  <SCORE.INTRA.DIHEDRAL.0>
0

>  <SCORE.INTRA.POLAR>
0

>  <SCORE.INTRA.POLAR.0>
0

>  <SCORE.INTRA.REPUL>
0

>  <SCORE.INTRA.REPUL.0>
0

>  <SCORE.INTRA.SOLV>
0

>  <SCORE.INTRA.SOLV.lig_0>
-12.9184

>  <SCORE.INTRA.VDW>
0

>  <SCORE.INTRA.VDW.0>
0

>  <SCORE.INTRA.norm>
0

>  <SCORE.RESTR>
0

>  <SCORE.RESTR.CAVITY>
0

>  <SCORE.RESTR.norm>
0

>  <SCORE.SYSTEM>
0

>  <SCORE.SYSTEM.CONST>
0

>  <SCORE.SYSTEM.DIHEDRAL>
0

>  <SCORE.SYSTEM.SOLV>
0

>  <SCORE.SYSTEM.norm>
0

>  <SCORE.heavy>
13

>  <SCORE.norm>
-1.93295

>  <RMSD>
3.351

$$$$
1o15_lig
 OpenBabel11021811403D
libRbt.so/2013.1/901 2013/11/27
 13 14  0  0  0  0  0  0  0  0999 V2000
   11.5304    5.1410   38.0659 C   0  0  0  0  0  0  0  0  0  0  0  0
   10.9256    4.3427   37.1202 N   0  0  0  0  0  0  0  0  0  0  0  0
   11.0059    2.9961   37.2846 C   0  0  0  0  0  0  0  0  0  0  0  0
   11.6241    2.6116   38.2740 O   0  0  0  0  0  0  0  0  0  0  0  0
   10.5596    0.7124   36.6258 C   0  0  0  0  0  0  0  0  0  0  0  0
   10.4597    2.0742   36.4358 N   0  0  0  0  0  0  0  0  0  0  0  0
    9.8065    2.6399   35.3849 C   0  0  0  0  0  0  0  0  0  0  0  0
    9.7308    3.9939   35.2323 C   0  0  0  0  0  0  0  0  0  0  0  0
   10.2895    4.9516   36.0990 C   0  0  0  0  0  0  0  0  0  0  0  0
   10.2581    6.1770   36.0199 O   0  0  0  0  0  0  0  0  0  0  0  0
    9.0036    4.2030   34.0693 N   0  0  0  0  0  0  0  0  0  0  0  0
    8.6902    2.9692   33.6012 C   0  0  0  0  0  0  0  0  0  0  0  0
    9.1440    1.9966   34.3448 N   0  0  0  0  0  0  0  0  0  0  0  0
  1  2  1  0  0  0  0
  2  3  1  0  0  0  0
  2  9  1  0  0  0  0
  3  4  2  0  0  0  0
  3  6  1  0  0  0  0
  6  5  1  0  0  0  0
  6  7  1  0  0  0  0
  7  8  2  0  0  0  0
  7 13  1  0  0  0  0
  8  9  1  0  0  0  0
  8 11  1  0  0  0  0
  9 10  2  0  0  0  0
 11 12  1  0  0  0  0
 12 13  2  0  0  0  0
M  END
>  <CHROM.1>
10.25924054,3.46501362,36.08429452,0.22149057,-1.00923481,-0.02333671

>  <Name>
1o15_lig

>  <RI>
0

>  <Rbt.Current_Directory>
/home/itssahil/PROJECTS/Mol_Feturizer/New_Systems/rnas/1o15

>  <Rbt.Executable>
rbdock ($Id: //depot/dev/client3/rdock/2013.1/src/exe/rbdock.cxx#4 $)

>  <Rbt.Library>
libRbt.so (2013.1, Build901 2013/11/27)

>  <Rbt.Parameter_File>
/export/apps/rDock/src/rDock_2013.1_src/data/scripts/dock_solv.prm

>  <Rbt.Receptor>
prm/pocket_docking_5.prm

>  <SCORE>
-25.1515

>  <SCORE.INTER>
-25.1515

>  <SCORE.INTER.CONST>
1

>  <SCORE.INTER.POLAR>
-1.97896

>  <SCORE.INTER.ROT>
0

>  <SCORE.INTER.SOLV>
7.80905

>  <SCORE.INTER.VDW>
-16.3741

>  <SCORE.INTER.norm>
-1.93473

>  <SCORE.INTRA>
0

>  <SCORE.INTRA.DIHEDRAL>
0

>  <SCORE.INTRA.DIHEDRAL.0>
0

>  <SCORE.INTRA.POLAR>
0

>  <SCORE.INTRA.POLAR.0>
0

>  <SCORE.INTRA.REPUL>
0

>  <SCORE.INTRA.REPUL.0>
0

>  <SCORE.INTRA.SOLV>
0

>  <SCORE.INTRA.SOLV.lig_0>
-12.9184

>  <SCORE.INTRA.VDW>
0

>  <SCORE.INTRA.VDW.0>
0

>  <SCORE.INTRA.norm>
0

>  <SCORE.RESTR>
0

>  <SCORE.RESTR.CAVITY>
0

>  <SCORE.RESTR.norm>
0

>  <SCORE.SYSTEM>
0

>  <SCORE.SYSTEM.CONST>
0

>  <SCORE.SYSTEM.DIHEDRAL>
0

>  <SCORE.SYSTEM.SOLV>
0

>  <SCORE.SYSTEM.norm>
0

>  <SCORE.heavy>
13

>  <SCORE.norm>
-1.93473

>  <RMSD>
3.351

$$$$
1o15_lig
 OpenBabel11021811403D
libRbt.so/2013.1/901 2013/11/27
 13 14  0  0  0  0  0  0  0  0999 V2000
   11.5326    5.1543   38.0693 C   0  0  0  0  0  0  0  0  0  0  0  0
   10.9294    4.3528   37.1254 N   0  0  0  0  0  0  0  0  0  0  0  0
   11.0132    3.0067   37.2921 C   0  0  0  0  0  0  0  0  0  0  0  0
   11.6329    2.6256   38.2818 O   0  0  0  0  0  0  0  0  0  0  0  0
   10.5724    0.7208   36.6375 C   0  0  0  0  0  0  0  0  0  0  0  0
   10.4689    2.0819   36.4452 N   0  0  0  0  0  0  0  0  0  0  0  0
    9.8137    2.6441   35.3936 C   0  0  0  0  0  0  0  0  0  0  0  0
    9.7345    3.9977   35.2386 C   0  0  0  0  0  0  0  0  0  0  0  0
   10.2912    4.9583   36.1034 C   0  0  0  0  0  0  0  0  0  0  0  0
   10.2566    6.1835   36.0222 O   0  0  0  0  0  0  0  0  0  0  0  0
    9.0061    4.2028   34.0756 N   0  0  0  0  0  0  0  0  0  0  0  0
    8.6956    2.9673   33.6099 C   0  0  0  0  0  0  0  0  0  0  0  0
    9.1523    1.9972   34.3550 N   0  0  0  0  0  0  0  0  0  0  0  0
  1  2  1  0  0  0  0
  2  3  1  0  0  0  0
  2  9  1  0  0  0  0
  3  4  2  0  0  0  0
  3  6  1  0  0  0  0
  6  5  1  0  0  0  0
  6  7  1  0  0  0  0
  7  8  2  0  0  0  0
  7 13  1  0  0  0  0
  8  9  1  0  0  0  0
  8 11  1  0  0  0  0
  9 10  2  0  0  0  0
 11 12  1  0  0  0  0
 12 13  2  0  0  0  0
M  END
>  <CHROM.1>
10.26471810,3.47159635,36.09131969,0.22632178,-1.00877802,-0.02102592

>  <Name>
1o15_lig

>  <RI>
0

>  <Rbt.Current_Directory>
/home/itssahil/PROJECTS/Mol_Feturizer/New_Systems/rnas/1o15

>  <Rbt.Executable>
rbdock ($Id: //depot/dev/client3/rdock/2013.1/src/exe/rbdock.cxx#4 $)

>  <Rbt.Library>
libRbt.so (2013.1, Build901 2013/11/27)

>  <Rbt.Parameter_File>
/export/apps/rDock/src/rDock_2013.1_src/data/scripts/dock_solv.prm

>  <Rbt.Receptor>
prm/pocket_docking_5.prm

>  <SCORE>
-25.1456

>  <SCORE.INTER>
-25.1456

>  <SCORE.INTER.CONST>
1

>  <SCORE.INTER.POLAR>
-1.98261

>  <SCORE.INTER.ROT>
0

>  <SCORE.INTER.SOLV>
7.80279

>  <SCORE.INTER.VDW>
-16.356

>  <SCORE.INTER.norm>
-1.93428

>  <SCORE.INTRA>
0

>  <SCORE.INTRA.DIHEDRAL>
0

>  <SCORE.INTRA.DIHEDRAL.0>
0

>  <SCORE.INTRA.POLAR>
0

>  <SCORE.INTRA.POLAR.0>
0

>  <SCORE.INTRA.REPUL>
0

>  <SCORE.INTRA.REPUL.0>
0

>  <SCORE.INTRA.SOLV>
0

>  <SCORE.INTRA.SOLV.lig_0>
-12.9184

>  <SCORE.INTRA.VDW>
0

>  <SCORE.INTRA.VDW.0>
0

>  <SCORE.INTRA.norm>
0

>  <SCORE.RESTR>
0

>  <SCORE.RESTR.CAVITY>
0

>  <SCORE.RESTR.norm>
0

>  <SCORE.SYSTEM>
0

>  <SCORE.SYSTEM.CONST>
0

>  <SCORE.SYSTEM.DIHEDRAL>
0

>  <SCORE.SYSTEM.SOLV>
0

>  <SCORE.SYSTEM.norm>
0

>  <SCORE.heavy>
13

>  <SCORE.norm>
-1.93428

>  <RMSD>
3.351

$$$$
1o15_lig
 OpenBabel11021811403D
libRbt.so/2013.1/901 2013/11/27
 13 14  0  0  0  0  0  0  0  0999 V2000
   11.5366    5.1535   38.0679 C   0  0  0  0  0  0  0  0  0  0  0  0
   10.9336    4.3523   37.1235 N   0  0  0  0  0  0  0  0  0  0  0  0
   11.0206    3.0062   37.2876 C   0  0  0  0  0  0  0  0  0  0  0  0
   11.6427    2.6246   38.2757 O   0  0  0  0  0  0  0  0  0  0  0  0
   10.5837    0.7204   36.6297 C   0  0  0  0  0  0  0  0  0  0  0  0
   10.4770    2.0817   36.4399 N   0  0  0  0  0  0  0  0  0  0  0  0
    9.8189    2.6443   35.3904 C   0  0  0  0  0  0  0  0  0  0  0  0
    9.7365    3.9980   35.2380 C   0  0  0  0  0  0  0  0  0  0  0  0
   10.2925    4.9583   36.1036 C   0  0  0  0  0  0  0  0  0  0  0  0
   10.2551    6.1836   36.0246 O   0  0  0  0  0  0  0  0  0  0  0  0
    9.0059    4.2036   34.0765 N   0  0  0  0  0  0  0  0  0  0  0  0
    8.6973    2.9684   33.6091 C   0  0  0  0  0  0  0  0  0  0  0  0
    9.1573    1.9979   34.3517 N   0  0  0  0  0  0  0  0  0  0  0  0
  1  2  1  0  0  0  0
  2  3  1  0  0  0  0
  2  9  1  0  0  0  0
  3  4  2  0  0  0  0
  3  6  1  0  0  0  0
  6  5  1  0  0  0  0
  6  7  1  0  0  0  0
  7  8  2  0  0  0  0
  7 13  1  0  0  0  0
  8  9  1  0  0  0  0
  8 11  1  0  0  0  0
  9 10  2  0  0  0  0
 11 12  1  0  0  0  0
 12 13  2  0  0  0  0
M  END
>  <CHROM.1>
10.26925205,3.47156472,36.08888615,0.23043720,-1.00722732,-0.01574664

>  <Name>
1o15_lig

>  <RI>
0

>  <Rbt.Current_Directory>
/home/itssahil/PROJECTS/Mol_Feturizer/New_Systems/rnas/1o15

>  <Rbt.Executable>
rbdock ($Id: //depot/dev/client3/rdock/2013.1/src/exe/rbdock.cxx#4 $)

>  <Rbt.Library>
libRbt.so (2013.1, Build901 2013/11/27)

>  <Rbt.Parameter_File>
/export/apps/rDock/src/rDock_2013.1_src/data/scripts/dock_solv.prm

>  <Rbt.Receptor>
prm/pocket_docking_6.prm

>  <SCORE>
-25.158

>  <SCORE.INTER>
-25.158

>  <SCORE.INTER.CONST>
1

>  <SCORE.INTER.POLAR>
-1.98537

>  <SCORE.INTER.ROT>
0

>  <SCORE.INTER.SOLV>
7.81588

>  <SCORE.INTER.VDW>
-16.3594

>  <SCORE.INTER.norm>
-1.93523

>  <SCORE.INTRA>
0

>  <SCORE.INTRA.DIHEDRAL>
0

>  <SCORE.INTRA.DIHEDRAL.0>
0

>  <SCORE.INTRA.POLAR>
0

>  <SCORE.INTRA.POLAR.0>
0

>  <SCORE.INTRA.REPUL>
0

>  <SCORE.INTRA.REPUL.0>
0

>  <SCORE.INTRA.SOLV>
0

>  <SCORE.INTRA.SOLV.lig_0>
-12.9184

>  <SCORE.INTRA.VDW>
0

>  <SCORE.INTRA.VDW.0>
0

>  <SCORE.INTRA.norm>
0

>  <SCORE.RESTR>
0

>  <SCORE.RESTR.CAVITY>
0

>  <SCORE.RESTR.norm>
0

>  <SCORE.SYSTEM>
0

>  <SCORE.SYSTEM.CONST>
0

>  <SCORE.SYSTEM.DIHEDRAL>
0

>  <SCORE.SYSTEM.SOLV>
0

>  <SCORE.SYSTEM.norm>
0

>  <SCORE.heavy>
13

>  <SCORE.norm>
-1.93523

>  <RMSD>
3.352

$$$$
1o15_lig
 OpenBabel11021811403D
libRbt.so/2013.1/901 2013/11/27
 13 14  0  0  0  0  0  0  0  0999 V2000
   11.5305    5.1571   38.0682 C   0  0  0  0  0  0  0  0  0  0  0  0
   10.9287    4.3561   37.1228 N   0  0  0  0  0  0  0  0  0  0  0  0
   11.0190    3.0099   37.2845 C   0  0  0  0  0  0  0  0  0  0  0  0
   11.6427    2.6281   38.2715 O   0  0  0  0  0  0  0  0  0  0  0  0
   10.5870    0.7243   36.6229 C   0  0  0  0  0  0  0  0  0  0  0  0
   10.4770    2.0856   36.4356 N   0  0  0  0  0  0  0  0  0  0  0  0
    9.8169    2.6485   35.3875 C   0  0  0  0  0  0  0  0  0  0  0  0
    9.7312    4.0023   35.2375 C   0  0  0  0  0  0  0  0  0  0  0  0
   10.2855    4.9624   36.1043 C   0  0  0  0  0  0  0  0  0  0  0  0
   10.2452    6.1876   36.0275 O   0  0  0  0  0  0  0  0  0  0  0  0
    8.9993    4.2081   34.0769 N   0  0  0  0  0  0  0  0  0  0  0  0
    8.6933    2.9730   33.6074 C   0  0  0  0  0  0  0  0  0  0  0  0
    9.1561    2.0024   34.3481 N   0  0  0  0  0  0  0  0  0  0  0  0
  1  2  1  0  0  0  0
  2  3  1  0  0  0  0
  2  9  1  0  0  0  0
  3  4  2  0  0  0  0
  3  6  1  0  0  0  0
  6  5  1  0  0  0  0
  6  7  1  0  0  0  0
  7  8  2  0  0  0  0
  7 13  1  0  0  0  0
  8  9  1  0  0  0  0
  8 11  1  0  0  0  0
  9 10  2  0  0  0  0
 11 12  1  0  0  0  0
 12 13  2  0  0  0  0
M  END
>  <CHROM.1>
10.26573849,3.47559361,36.08710070,0.23484620,-1.00659988,-0.01029158

>  <Name>
1o15_lig

>  <RI>
0

>  <Rbt.Current_Directory>
/home/itssahil/PROJECTS/Mol_Feturizer/New_Systems/rnas/1o15

>  <Rbt.Executable>
rbdock ($Id: //depot/dev/client3/rdock/2013.1/src/exe/rbdock.cxx#4 $)

>  <Rbt.Library>
libRbt.so (2013.1, Build901 2013/11/27)

>  <Rbt.Parameter_File>
/export/apps/rDock/src/rDock_2013.1_src/data/scripts/dock_solv.prm

>  <Rbt.Receptor>
prm/pocket_docking_6.prm

>  <SCORE>
-25.1262

>  <SCORE.INTER>
-25.1262

>  <SCORE.INTER.CONST>
1

>  <SCORE.INTER.POLAR>
-1.99218

>  <SCORE.INTER.ROT>
0

>  <SCORE.INTER.SOLV>
7.8115

>  <SCORE.INTER.VDW>
-16.314

>  <SCORE.INTER.norm>
-1.93278

>  <SCORE.INTRA>
0

>  <SCORE.INTRA.DIHEDRAL>
0

>  <SCORE.INTRA.DIHEDRAL.0>
0

>  <SCORE.INTRA.POLAR>
0

>  <SCORE.INTRA.POLAR.0>
0

>  <SCORE.INTRA.REPUL>
0

>  <SCORE.INTRA.REPUL.0>
0

>  <SCORE.INTRA.SOLV>
0

>  <SCORE.INTRA.SOLV.lig_0>
-12.9184

>  <SCORE.INTRA.VDW>
0

>  <SCORE.INTRA.VDW.0>
0

>  <SCORE.INTRA.norm>
0

>  <SCORE.RESTR>
0

>  <SCORE.RESTR.CAVITY>
0

>  <SCORE.RESTR.norm>
0

>  <SCORE.SYSTEM>
0

>  <SCORE.SYSTEM.CONST>
0

>  <SCORE.SYSTEM.DIHEDRAL>
0

>  <SCORE.SYSTEM.SOLV>
0

>  <SCORE.SYSTEM.norm>
0

>  <SCORE.heavy>
13

>  <SCORE.norm>
-1.93278

>  <RMSD>
3.352

$$$$
1o15_lig
 OpenBabel11021811403D
libRbt.so/2013.1/901 2013/11/27
 13 14  0  0  0  0  0  0  0  0999 V2000
   11.5205    5.1087   38.0661 C   0  0  0  0  0  0  0  0  0  0  0  0
   10.9200    4.3196   37.1099 N   0  0  0  0  0  0  0  0  0  0  0  0
   11.0122    2.9715   37.2538 C   0  0  0  0  0  0  0  0  0  0  0  0
   11.6363    2.5774   38.2357 O   0  0  0  0  0  0  0  0  0  0  0  0
   10.5837    0.6943   36.5616 C   0  0  0  0  0  0  0  0  0  0  0  0
   10.4716    2.0578   36.3925 N   0  0  0  0  0  0  0  0  0  0  0  0
    9.8109    2.6337   35.3518 C   0  0  0  0  0  0  0  0  0  0  0  0
    9.7233    3.9892   35.2199 C   0  0  0  0  0  0  0  0  0  0  0  0
   10.2761    4.9384   36.0996 C   0  0  0  0  0  0  0  0  0  0  0  0
   10.2340    6.1646   36.0391 O   0  0  0  0  0  0  0  0  0  0  0  0
    8.9913    4.2095   34.0620 N   0  0  0  0  0  0  0  0  0  0  0  0
    8.6872    2.9803   33.5761 C   0  0  0  0  0  0  0  0  0  0  0  0
    9.1512    2.0005   34.3038 N   0  0  0  0  0  0  0  0  0  0  0  0
  1  2  1  0  0  0  0
  2  3  1  0  0  0  0
  2  9  1  0  0  0  0
  3  4  2  0  0  0  0
  3  6  1  0  0  0  0
  6  5  1  0  0  0  0
  6  7  1  0  0  0  0
  7  8  2  0  0  0  0
  7 13  1  0  0  0  0
  8  9  1  0  0  0  0
  8 11  1  0  0  0  0
  9 10  2  0  0  0  0
 11 12  1  0  0  0  0
 12 13  2  0  0  0  0
M  END
>  <CHROM.1>
10.25845111,3.45202196,36.06250782,0.23755911,-1.00676392,0.00535165

>  <Name>
1o15_lig

>  <RI>
0

>  <Rbt.Current_Directory>
/home/itssahil/PROJECTS/Mol_Feturizer/New_Systems/rnas/1o15

>  <Rbt.Executable>
rbdock ($Id: //depot/dev/client3/rdock/2013.1/src/exe/rbdock.cxx#4 $)

>  <Rbt.Library>
libRbt.so (2013.1, Build901 2013/11/27)

>  <Rbt.Parameter_File>
/export/apps/rDock/src/rDock_2013.1_src/data/scripts/dock_solv.prm

>  <Rbt.Receptor>
prm/pocket_docking_8.prm

>  <SCORE>
-25.0975

>  <SCORE.INTER>
-25.0975

>  <SCORE.INTER.CONST>
1

>  <SCORE.INTER.POLAR>
-1.99297

>  <SCORE.INTER.ROT>
0

>  <SCORE.INTER.SOLV>
7.83472

>  <SCORE.INTER.VDW>
-16.3

>  <SCORE.INTER.norm>
-1.93058

>  <SCORE.INTRA>
0

>  <SCORE.INTRA.DIHEDRAL>
0

>  <SCORE.INTRA.DIHEDRAL.0>
0

>  <SCORE.INTRA.POLAR>
0

>  <SCORE.INTRA.POLAR.0>
0

>  <SCORE.INTRA.REPUL>
0

>  <SCORE.INTRA.REPUL.0>
0

>  <SCORE.INTRA.SOLV>
0

>  <SCORE.INTRA.SOLV.lig_0>
-12.9184

>  <SCORE.INTRA.VDW>
0

>  <SCORE.INTRA.VDW.0>
0

>  <SCORE.INTRA.norm>
0

>  <SCORE.RESTR>
0

>  <SCORE.RESTR.CAVITY>
0

>  <SCORE.RESTR.norm>
0

>  <SCORE.SYSTEM>
0

>  <SCORE.SYSTEM.CONST>
0

>  <SCORE.SYSTEM.DIHEDRAL>
0

>  <SCORE.SYSTEM.SOLV>
0

>  <SCORE.SYSTEM.norm>
0

>  <SCORE.heavy>
13

>  <SCORE.norm>
-1.93058

>  <RMSD>
3.353

$$$$
1o15_lig
 OpenBabel11021811403D
libRbt.so/2013.1/901 2013/11/27
 13 14  0  0  0  0  0  0  0  0999 V2000
   11.5349    5.1418   38.0474 C   0  0  0  0  0  0  0  0  0  0  0  0
   10.9245    4.3440   37.1048 N   0  0  0  0  0  0  0  0  0  0  0  0
   10.9956    2.9976   37.2744 C   0  0  0  0  0  0  0  0  0  0  0  0
   11.6113    2.6127   38.2652 O   0  0  0  0  0  0  0  0  0  0  0  0
   10.5336    0.7145   36.6245 C   0  0  0  0  0  0  0  0  0  0  0  0
   10.4430    2.0761   36.4292 N   0  0  0  0  0  0  0  0  0  0  0  0
    9.7936    2.6422   35.3761 C   0  0  0  0  0  0  0  0  0  0  0  0
    9.7272    3.9961   35.2183 C   0  0  0  0  0  0  0  0  0  0  0  0
   10.2925    4.9533   36.0812 C   0  0  0  0  0  0  0  0  0  0  0  0
   10.2695    6.1786   35.9974 O   0  0  0  0  0  0  0  0  0  0  0  0
    9.0013    4.2056   34.0545 N   0  0  0  0  0  0  0  0  0  0  0  0
    8.6794    2.9722   33.5913 C   0  0  0  0  0  0  0  0  0  0  0  0
    9.1267    1.9994   34.3386 N   0  0  0  0  0  0  0  0  0  0  0  0
  1  2  1  0  0  0  0
  2  3  1  0  0  0  0
  2  9  1  0  0  0  0
  3  4  2  0  0  0  0
  3  6  1  0  0  0  0
  6  5  1  0  0  0  0
  6  7  1  0  0  0  0
  7  8  2  0  0  0  0
  7 13  1  0  0  0  0
  8  9  1  0  0  0  0
  8 11  1  0  0  0  0
  9 10  2  0  0  0  0
 11 12  1  0  0  0  0
 12 13  2  0  0  0  0
M  END
>  <CHROM.1>
10.25209900,3.46689531,36.07232494,0.20863793,-1.00894882,-0.03810099

>  <Name>
1o15_lig

>  <RI>
0

>  <Rbt.Current_Directory>
/home/itssahil/PROJECTS/Mol_Feturizer/New_Systems/rnas/1o15

>  <Rbt.Executable>
rbdock ($Id: //depot/dev/client3/rdock/2013.1/src/exe/rbdock.cxx#4 $)

>  <Rbt.Library>
libRbt.so (2013.1, Build901 2013/11/27)

>  <Rbt.Parameter_File>
/export/apps/rDock/src/rDock_2013.1_src/data/scripts/dock_solv.prm

>  <Rbt.Receptor>
prm/pocket_docking_5.prm

>  <SCORE>
-25.1123

>  <SCORE.INTER>
-25.1123

>  <SCORE.INTER.CONST>
1

>  <SCORE.INTER.POLAR>
-1.96938

>  <SCORE.INTER.ROT>
0

>  <SCORE.INTER.SOLV>
7.86005

>  <SCORE.INTER.VDW>
-16.397

>  <SCORE.INTER.norm>
-1.93172

>  <SCORE.INTRA>
0

>  <SCORE.INTRA.DIHEDRAL>
0

>  <SCORE.INTRA.DIHEDRAL.0>
0

>  <SCORE.INTRA.POLAR>
0

>  <SCORE.INTRA.POLAR.0>
0

>  <SCORE.INTRA.REPUL>
0

>  <SCORE.INTRA.REPUL.0>
0

>  <SCORE.INTRA.SOLV>
0

>  <SCORE.INTRA.SOLV.lig_0>
-12.9184

>  <SCORE.INTRA.VDW>
0

>  <SCORE.INTRA.VDW.0>
0

>  <SCORE.INTRA.norm>
0

>  <SCORE.RESTR>
0

>  <SCORE.RESTR.CAVITY>
0

>  <SCORE.RESTR.norm>
0

>  <SCORE.SYSTEM>
0

>  <SCORE.SYSTEM.CONST>
0

>  <SCORE.SYSTEM.DIHEDRAL>
0

>  <SCORE.SYSTEM.SOLV>
0

>  <SCORE.SYSTEM.norm>
0

>  <SCORE.heavy>
13

>  <SCORE.norm>
-1.93172

>  <RMSD>
3.354

$$$$
1o15_lig
 OpenBabel11021811403D
libRbt.so/2013.1/901 2013/11/27
 13 14  0  0  0  0  0  0  0  0999 V2000
   11.5031    5.1408   38.0551 C   0  0  0  0  0  0  0  0  0  0  0  0
   10.9020    4.3455   37.1045 N   0  0  0  0  0  0  0  0  0  0  0  0
   10.9836    2.9984   37.2637 C   0  0  0  0  0  0  0  0  0  0  0  0
   11.5994    2.6107   38.2533 O   0  0  0  0  0  0  0  0  0  0  0  0
   10.5421    0.7168   36.5944 C   0  0  0  0  0  0  0  0  0  0  0  0
   10.4410    2.0792   36.4096 N   0  0  0  0  0  0  0  0  0  0  0  0
    9.7902    2.6483   35.3591 C   0  0  0  0  0  0  0  0  0  0  0  0
    9.7131    4.0028   35.2117 C   0  0  0  0  0  0  0  0  0  0  0  0
   10.2681    4.9577   36.0838 C   0  0  0  0  0  0  0  0  0  0  0  0
   10.2353    6.1834   36.0096 O   0  0  0  0  0  0  0  0  0  0  0  0
    8.9890    4.2156   34.0474 N   0  0  0  0  0  0  0  0  0  0  0  0
    8.6786    2.9833   33.5735 C   0  0  0  0  0  0  0  0  0  0  0  0
    9.1315    2.0083   34.3145 N   0  0  0  0  0  0  0  0  0  0  0  0
  1  2  1  0  0  0  0
  2  3  1  0  0  0  0
  2  9  1  0  0  0  0
  3  4  2  0  0  0  0
  3  6  1  0  0  0  0
  6  5  1  0  0  0  0
  6  7  1  0  0  0  0
  7  8  2  0  0  0  0
  7 13  1  0  0  0  0
  8  9  1  0  0  0  0
  8 11  1  0  0  0  0
  9 10  2  0  0  0  0
 11 12  1  0  0  0  0
 12 13  2  0  0  0  0
M  END
>  <CHROM.1>
10.23981889,3.47114348,36.06310555,0.22379206,-1.01216069,-0.01738359

>  <Name>
1o15_lig

>  <RI>
0

>  <Rbt.Current_Directory>
/home/itssahil/PROJECTS/Mol_Feturizer/New_Systems/rnas/1o15

>  <Rbt.Executable>
rbdock ($Id: //depot/dev/client3/rdock/2013.1/src/exe/rbdock.cxx#4 $)

>  <Rbt.Library>
libRbt.so (2013.1, Build901 2013/11/27)

>  <Rbt.Parameter_File>
/export/apps/rDock/src/rDock_2013.1_src/data/scripts/dock_solv.prm

>  <Rbt.Receptor>
prm/pocket_docking_6.prm

>  <SCORE>
-25.1209

>  <SCORE.INTER>
-25.1209

>  <SCORE.INTER.CONST>
1

>  <SCORE.INTER.POLAR>
-1.99102

>  <SCORE.INTER.ROT>
0

>  <SCORE.INTER.SOLV>
7.85482

>  <SCORE.INTER.VDW>
-16.3288

>  <SCORE.INTER.norm>
-1.93238

>  <SCORE.INTRA>
0

>  <SCORE.INTRA.DIHEDRAL>
0

>  <SCORE.INTRA.DIHEDRAL.0>
0

>  <SCORE.INTRA.POLAR>
0

>  <SCORE.INTRA.POLAR.0>
0

>  <SCORE.INTRA.REPUL>
0

>  <SCORE.INTRA.REPUL.0>
0

>  <SCORE.INTRA.SOLV>
0

>  <SCORE.INTRA.SOLV.lig_0>
-12.9184

>  <SCORE.INTRA.VDW>
0

>  <SCORE.INTRA.VDW.0>
0

>  <SCORE.INTRA.norm>
0

>  <SCORE.RESTR>
0

>  <SCORE.RESTR.CAVITY>
0

>  <SCORE.RESTR.norm>
0

>  <SCORE.SYSTEM>
0

>  <SCORE.SYSTEM.CONST>
0

>  <SCORE.SYSTEM.DIHEDRAL>
0

>  <SCORE.SYSTEM.SOLV>
0

>  <SCORE.SYSTEM.norm>
0

>  <SCORE.heavy>
13

>  <SCORE.norm>
-1.93238

>  <RMSD>
3.354

$$$$
1o15_lig
 OpenBabel11021811403D
libRbt.so/2013.1/901 2013/11/27
 13 14  0  0  0  0  0  0  0  0999 V2000
   11.5023    5.1380   38.0541 C   0  0  0  0  0  0  0  0  0  0  0  0
   10.9012    4.3432   37.1031 N   0  0  0  0  0  0  0  0  0  0  0  0
   10.9817    2.9961   37.2623 C   0  0  0  0  0  0  0  0  0  0  0  0
   11.5968    2.6079   38.2522 O   0  0  0  0  0  0  0  0  0  0  0  0
   10.5391    0.7148   36.5926 C   0  0  0  0  0  0  0  0  0  0  0  0
   10.4390    2.0773   36.4078 N   0  0  0  0  0  0  0  0  0  0  0  0
    9.7891    2.6469   35.3570 C   0  0  0  0  0  0  0  0  0  0  0  0
    9.7131    4.0015   35.2096 C   0  0  0  0  0  0  0  0  0  0  0  0
   10.2682    4.9560   36.0822 C   0  0  0  0  0  0  0  0  0  0  0  0
   10.2363    6.1817   36.0080 O   0  0  0  0  0  0  0  0  0  0  0  0
    8.9897    4.2148   34.0450 N   0  0  0  0  0  0  0  0  0  0  0  0
    8.6787    2.9828   33.5708 C   0  0  0  0  0  0  0  0  0  0  0  0
    9.1305    2.0074   34.3120 N   0  0  0  0  0  0  0  0  0  0  0  0
  1  2  1  0  0  0  0
  2  3  1  0  0  0  0
  2  9  1  0  0  0  0
  3  4  2  0  0  0  0
  3  6  1  0  0  0  0
  6  5  1  0  0  0  0
  6  7  1  0  0  0  0
  7  8  2  0  0  0  0
  7 13  1  0  0  0  0
  8  9  1  0  0  0  0
  8 11  1  0  0  0  0
  9 10  2  0  0  0  0
 11 12  1  0  0  0  0
 12 13  2  0  0  0  0
M  END
>  <CHROM.1>
10.23891118,3.46940528,36.06130469,0.22250257,-1.01267860,-0.01840093

>  <Name>
1o15_lig

>  <RI>
0

>  <Rbt.Current_Directory>
/home/itssahil/PROJECTS/Mol_Feturizer/New_Systems/rnas/1o15

>  <Rbt.Executable>
rbdock ($Id: //depot/dev/client3/rdock/2013.1/src/exe/rbdock.cxx#4 $)

>  <Rbt.Library>
libRbt.so (2013.1, Build901 2013/11/27)

>  <Rbt.Parameter_File>
/export/apps/rDock/src/rDock_2013.1_src/data/scripts/dock_solv.prm

>  <Rbt.Receptor>
prm/pocket_docking_7.prm

>  <SCORE>
-25.1121

>  <SCORE.INTER>
-25.1121

>  <SCORE.INTER.CONST>
1

>  <SCORE.INTER.POLAR>
-1.98927

>  <SCORE.INTER.ROT>
0

>  <SCORE.INTER.SOLV>
7.85968

>  <SCORE.INTER.VDW>
-16.3304

>  <SCORE.INTER.norm>
-1.9317

>  <SCORE.INTRA>
0

>  <SCORE.INTRA.DIHEDRAL>
0

>  <SCORE.INTRA.DIHEDRAL.0>
0

>  <SCORE.INTRA.POLAR>
0

>  <SCORE.INTRA.POLAR.0>
0

>  <SCORE.INTRA.REPUL>
0

>  <SCORE.INTRA.REPUL.0>
0

>  <SCORE.INTRA.SOLV>
0

>  <SCORE.INTRA.SOLV.lig_0>
-12.9184

>  <SCORE.INTRA.VDW>
0

>  <SCORE.INTRA.VDW.0>
0

>  <SCORE.INTRA.norm>
0

>  <SCORE.RESTR>
0

>  <SCORE.RESTR.CAVITY>
0

>  <SCORE.RESTR.norm>
0

>  <SCORE.SYSTEM>
0

>  <SCORE.SYSTEM.CONST>
0

>  <SCORE.SYSTEM.DIHEDRAL>
0

>  <SCORE.SYSTEM.SOLV>
0

>  <SCORE.SYSTEM.norm>
0

>  <SCORE.heavy>
13

>  <SCORE.norm>
-1.9317

>  <RMSD>
3.354

$$$$
1o15_lig
 OpenBabel11021811403D
libRbt.so/2013.1/901 2013/11/27
 13 14  0  0  0  0  0  0  0  0999 V2000
   11.5096    5.1193   38.0593 C   0  0  0  0  0  0  0  0  0  0  0  0
   10.9099    4.3262   37.1060 N   0  0  0  0  0  0  0  0  0  0  0  0
   10.9861    2.9788   37.2655 C   0  0  0  0  0  0  0  0  0  0  0  0
   11.5964    2.5890   38.2577 O   0  0  0  0  0  0  0  0  0  0  0  0
   10.5397    0.6988   36.5942 C   0  0  0  0  0  0  0  0  0  0  0  0
   10.4441    2.0615   36.4090 N   0  0  0  0  0  0  0  0  0  0  0  0
    9.7997    2.6329   35.3557 C   0  0  0  0  0  0  0  0  0  0  0  0
    9.7280    3.9877   35.2081 C   0  0  0  0  0  0  0  0  0  0  0  0
   10.2825    4.9406   36.0827 C   0  0  0  0  0  0  0  0  0  0  0  0
   10.2542    6.1664   36.0084 O   0  0  0  0  0  0  0  0  0  0  0  0
    9.0096    4.2030   34.0407 N   0  0  0  0  0  0  0  0  0  0  0  0
    8.6970    2.9718   33.5654 C   0  0  0  0  0  0  0  0  0  0  0  0
    9.1434    1.9952   34.3083 N   0  0  0  0  0  0  0  0  0  0  0  0
  1  2  1  0  0  0  0
  2  3  1  0  0  0  0
  2  9  1  0  0  0  0
  3  4  2  0  0  0  0
  3  6  1  0  0  0  0
  6  5  1  0  0  0  0
  6  7  1  0  0  0  0
  7  8  2  0  0  0  0
  7 13  1  0  0  0  0
  8  9  1  0  0  0  0
  8 11  1  0  0  0  0
  9 10  2  0  0  0  0
 11 12  1  0  0  0  0
 12 13  2  0  0  0  0
M  END
>  <CHROM.1>
10.24916379,3.45416367,36.06172432,0.21713128,-1.01638900,-0.02298315

>  <Name>
1o15_lig

>  <RI>
0

>  <Rbt.Current_Directory>
/home/itssahil/PROJECTS/Mol_Feturizer/New_Systems/rnas/1o15

>  <Rbt.Executable>
rbdock ($Id: //depot/dev/client3/rdock/2013.1/src/exe/rbdock.cxx#4 $)

>  <Rbt.Library>
libRbt.so (2013.1, Build901 2013/11/27)

>  <Rbt.Parameter_File>
/export/apps/rDock/src/rDock_2013.1_src/data/scripts/dock_solv.prm

>  <Rbt.Receptor>
prm/pocket_docking_4.prm

>  <SCORE>
-25.1091

>  <SCORE.INTER>
-25.1091

>  <SCORE.INTER.CONST>
1

>  <SCORE.INTER.POLAR>
-1.97531

>  <SCORE.INTER.ROT>
0

>  <SCORE.INTER.SOLV>
7.87924

>  <SCORE.INTER.VDW>
-16.3815

>  <SCORE.INTER.norm>
-1.93147

>  <SCORE.INTRA>
0

>  <SCORE.INTRA.DIHEDRAL>
0

>  <SCORE.INTRA.DIHEDRAL.0>
0

>  <SCORE.INTRA.POLAR>
0

>  <SCORE.INTRA.POLAR.0>
0

>  <SCORE.INTRA.REPUL>
0

>  <SCORE.INTRA.REPUL.0>
0

>  <SCORE.INTRA.SOLV>
0

>  <SCORE.INTRA.SOLV.lig_0>
-12.9184

>  <SCORE.INTRA.VDW>
0

>  <SCORE.INTRA.VDW.0>
0

>  <SCORE.INTRA.norm>
0

>  <SCORE.RESTR>
0

>  <SCORE.RESTR.CAVITY>
0

>  <SCORE.RESTR.norm>
0

>  <SCORE.SYSTEM>
0

>  <SCORE.SYSTEM.CONST>
0

>  <SCORE.SYSTEM.DIHEDRAL>
0

>  <SCORE.SYSTEM.SOLV>
0

>  <SCORE.SYSTEM.norm>
0

>  <SCORE.heavy>
13

>  <SCORE.norm>
-1.93147

>  <RMSD>
3.355

$$$$
1o15_lig
 OpenBabel11021811403D
libRbt.so/2013.1/901 2013/11/27
 13 14  0  0  0  0  0  0  0  0999 V2000
   11.5126    5.1653   38.0471 C   0  0  0  0  0  0  0  0  0  0  0  0
   10.9103    4.3659   37.1007 N   0  0  0  0  0  0  0  0  0  0  0  0
   11.0001    3.0194   37.2607 C   0  0  0  0  0  0  0  0  0  0  0  0
   11.6237    2.6360   38.2471 O   0  0  0  0  0  0  0  0  0  0  0  0
   10.5671    0.7348   36.5962 C   0  0  0  0  0  0  0  0  0  0  0  0
   10.4575    2.0964   36.4107 N   0  0  0  0  0  0  0  0  0  0  0  0
    9.7975    2.6609   35.3634 C   0  0  0  0  0  0  0  0  0  0  0  0
    9.7123    4.0149   35.2152 C   0  0  0  0  0  0  0  0  0  0  0  0
   10.2672    4.9737   36.0832 C   0  0  0  0  0  0  0  0  0  0  0  0
   10.2273    6.1991   36.0080 O   0  0  0  0  0  0  0  0  0  0  0  0
    8.9804    4.2226   34.0549 N   0  0  0  0  0  0  0  0  0  0  0  0
    8.6738    2.9882   33.5840 C   0  0  0  0  0  0  0  0  0  0  0  0
    9.1363    2.0164   34.3233 N   0  0  0  0  0  0  0  0  0  0  0  0
  1  2  1  0  0  0  0
  2  3  1  0  0  0  0
  2  9  1  0  0  0  0
  3  4  2  0  0  0  0
  3  6  1  0  0  0  0
  6  5  1  0  0  0  0
  6  7  1  0  0  0  0
  7  8  2  0  0  0  0
  7 13  1  0  0  0  0
  8  9  1  0  0  0  0
  8 11  1  0  0  0  0
  9 10  2  0  0  0  0
 11 12  1  0  0  0  0
 12 13  2  0  0  0  0
M  END
>  <CHROM.1>
10.24680943,3.48692731,36.06403496,0.23409198,-1.00643366,-0.00963441

>  <Name>
1o15_lig

>  <RI>
0

>  <Rbt.Current_Directory>
/home/itssahil/PROJECTS/Mol_Feturizer/New_Systems/rnas/1o15

>  <Rbt.Executable>
rbdock ($Id: //depot/dev/client3/rdock/2013.1/src/exe/rbdock.cxx#4 $)

>  <Rbt.Library>
libRbt.so (2013.1, Build901 2013/11/27)

>  <Rbt.Parameter_File>
/export/apps/rDock/src/rDock_2013.1_src/data/scripts/dock_solv.prm

>  <Rbt.Receptor>
prm/pocket_docking_6.prm

>  <SCORE>
-25.1236

>  <SCORE.INTER>
-25.1236

>  <SCORE.INTER.CONST>
1

>  <SCORE.INTER.POLAR>
-2.00211

>  <SCORE.INTER.ROT>
0

>  <SCORE.INTER.SOLV>
7.87298

>  <SCORE.INTER.VDW>
-16.2997

>  <SCORE.INTER.norm>
-1.93259

>  <SCORE.INTRA>
0

>  <SCORE.INTRA.DIHEDRAL>
0

>  <SCORE.INTRA.DIHEDRAL.0>
0

>  <SCORE.INTRA.POLAR>
0

>  <SCORE.INTRA.POLAR.0>
0

>  <SCORE.INTRA.REPUL>
0

>  <SCORE.INTRA.REPUL.0>
0

>  <SCORE.INTRA.SOLV>
0

>  <SCORE.INTRA.SOLV.lig_0>
-12.9184

>  <SCORE.INTRA.VDW>
0

>  <SCORE.INTRA.VDW.0>
0

>  <SCORE.INTRA.norm>
0

>  <SCORE.RESTR>
0

>  <SCORE.RESTR.CAVITY>
0

>  <SCORE.RESTR.norm>
0

>  <SCORE.SYSTEM>
0

>  <SCORE.SYSTEM.CONST>
0

>  <SCORE.SYSTEM.DIHEDRAL>
0

>  <SCORE.SYSTEM.SOLV>
0

>  <SCORE.SYSTEM.norm>
0

>  <SCORE.heavy>
13

>  <SCORE.norm>
-1.93259

>  <RMSD>
3.356

$$$$
1o15_lig
 OpenBabel11021811403D
libRbt.so/2013.1/901 2013/11/27
 13 14  0  0  0  0  0  0  0  0999 V2000
   11.5241    5.1477   38.0489 C   0  0  0  0  0  0  0  0  0  0  0  0
   10.9208    4.3522   37.0999 N   0  0  0  0  0  0  0  0  0  0  0  0
   11.0158    3.0050   37.2510 C   0  0  0  0  0  0  0  0  0  0  0  0
   11.6446    2.6176   38.2325 O   0  0  0  0  0  0  0  0  0  0  0  0
   10.5879    0.7232   36.5738 C   0  0  0  0  0  0  0  0  0  0  0  0
   10.4730    2.0856   36.3973 N   0  0  0  0  0  0  0  0  0  0  0  0
    9.8070    2.6545   35.3562 C   0  0  0  0  0  0  0  0  0  0  0  0
    9.7166    4.0090   35.2169 C   0  0  0  0  0  0  0  0  0  0  0  0
   10.2717    4.9642   36.0887 C   0  0  0  0  0  0  0  0  0  0  0  0
   10.2274    6.1899   36.0214 O   0  0  0  0  0  0  0  0  0  0  0  0
    8.9794    4.2216   34.0609 N   0  0  0  0  0  0  0  0  0  0  0  0
    8.6751    2.9891   33.5833 C   0  0  0  0  0  0  0  0  0  0  0  0
    9.1438    2.0143   34.3146 N   0  0  0  0  0  0  0  0  0  0  0  0
  1  2  1  0  0  0  0
  2  3  1  0  0  0  0
  2  9  1  0  0  0  0
  3  4  2  0  0  0  0
  3  6  1  0  0  0  0
  6  5  1  0  0  0  0
  6  7  1  0  0  0  0
  7  8  2  0  0  0  0
  7 13  1  0  0  0  0
  8  9  1  0  0  0  0
  8 11  1  0  0  0  0
  9 10  2  0  0  0  0
 11 12  1  0  0  0  0
 12 13  2  0  0  0  0
M  END
>  <CHROM.1>
10.25620664,3.47754878,36.06027158,0.24042802,-1.00251115,0.00202522

>  <Name>
1o15_lig

>  <RI>
0

>  <Rbt.Current_Directory>
/home/itssahil/PROJECTS/Mol_Feturizer/New_Systems/rnas/1o15

>  <Rbt.Executable>
rbdock ($Id: //depot/dev/client3/rdock/2013.1/src/exe/rbdock.cxx#4 $)

>  <Rbt.Library>
libRbt.so (2013.1, Build901 2013/11/27)

>  <Rbt.Parameter_File>
/export/apps/rDock/src/rDock_2013.1_src/data/scripts/dock_solv.prm

>  <Rbt.Receptor>
prm/pocket_docking_7.prm

>  <SCORE>
-25.1097

>  <SCORE.INTER>
-25.1097

>  <SCORE.INTER.CONST>
1

>  <SCORE.INTER.POLAR>
-2.00376

>  <SCORE.INTER.ROT>
0

>  <SCORE.INTER.SOLV>
7.87437

>  <SCORE.INTER.VDW>
-16.2854

>  <SCORE.INTER.norm>
-1.93151

>  <SCORE.INTRA>
0

>  <SCORE.INTRA.DIHEDRAL>
0

>  <SCORE.INTRA.DIHEDRAL.0>
0

>  <SCORE.INTRA.POLAR>
0

>  <SCORE.INTRA.POLAR.0>
0

>  <SCORE.INTRA.REPUL>
0

>  <SCORE.INTRA.REPUL.0>
0

>  <SCORE.INTRA.SOLV>
0

>  <SCORE.INTRA.SOLV.lig_0>
-12.9184

>  <SCORE.INTRA.VDW>
0

>  <SCORE.INTRA.VDW.0>
0

>  <SCORE.INTRA.norm>
0

>  <SCORE.RESTR>
0

>  <SCORE.RESTR.CAVITY>
0

>  <SCORE.RESTR.norm>
0

>  <SCORE.SYSTEM>
0

>  <SCORE.SYSTEM.CONST>
0

>  <SCORE.SYSTEM.DIHEDRAL>
0

>  <SCORE.SYSTEM.SOLV>
0

>  <SCORE.SYSTEM.norm>
0

>  <SCORE.heavy>
13

>  <SCORE.norm>
-1.93151

>  <RMSD>
3.357

$$$$
1o15_lig
 OpenBabel11021811403D
libRbt.so/2013.1/901 2013/11/27
 13 14  0  0  0  0  0  0  0  0999 V2000
   11.5220    5.1519   38.0425 C   0  0  0  0  0  0  0  0  0  0  0  0
   10.9166    4.3545   37.0964 N   0  0  0  0  0  0  0  0  0  0  0  0
   10.9995    3.0078   37.2579 C   0  0  0  0  0  0  0  0  0  0  0  0
   11.6203    2.6223   38.2452 O   0  0  0  0  0  0  0  0  0  0  0  0
   10.5557    0.7247   36.5953 C   0  0  0  0  0  0  0  0  0  0  0  0
   10.4531    2.0866   36.4083 N   0  0  0  0  0  0  0  0  0  0  0  0
    9.7969    2.6534   35.3598 C   0  0  0  0  0  0  0  0  0  0  0  0
    9.7186    4.0076   35.2101 C   0  0  0  0  0  0  0  0  0  0  0  0
   10.2775    4.9645   36.0776 C   0  0  0  0  0  0  0  0  0  0  0  0
   10.2438    6.1900   36.0011 O   0  0  0  0  0  0  0  0  0  0  0  0
    8.9888    4.2178   34.0490 N   0  0  0  0  0  0  0  0  0  0  0  0
    8.6765    2.9844   33.5790 C   0  0  0  0  0  0  0  0  0  0  0  0
    9.1334    2.0111   34.3197 N   0  0  0  0  0  0  0  0  0  0  0  0
  1  2  1  0  0  0  0
  2  3  1  0  0  0  0
  2  9  1  0  0  0  0
  3  4  2  0  0  0  0
  3  6  1  0  0  0  0
  6  5  1  0  0  0  0
  6  7  1  0  0  0  0
  7  8  2  0  0  0  0
  7 13  1  0  0  0  0
  8  9  1  0  0  0  0
  8 11  1  0  0  0  0
  9 10  2  0  0  0  0
 11 12  1  0  0  0  0
 12 13  2  0  0  0  0
M  END
>  <CHROM.1>
10.24968071,3.47782910,36.05997762,0.22471815,-1.00728641,-0.01858077

>  <Name>
1o15_lig

>  <RI>
0

>  <Rbt.Current_Directory>
/home/itssahil/PROJECTS/Mol_Feturizer/New_Systems/rnas/1o15

>  <Rbt.Executable>
rbdock ($Id: //depot/dev/client3/rdock/2013.1/src/exe/rbdock.cxx#4 $)

>  <Rbt.Library>
libRbt.so (2013.1, Build901 2013/11/27)

>  <Rbt.Parameter_File>
/export/apps/rDock/src/rDock_2013.1_src/data/scripts/dock_solv.prm

>  <Rbt.Receptor>
prm/pocket_docking_6.prm

>  <SCORE>
-25.1215

>  <SCORE.INTER>
-25.1215

>  <SCORE.INTER.CONST>
1

>  <SCORE.INTER.POLAR>
-1.99049

>  <SCORE.INTER.ROT>
0

>  <SCORE.INTER.SOLV>
7.89582

>  <SCORE.INTER.VDW>
-16.3446

>  <SCORE.INTER.norm>
-1.93242

>  <SCORE.INTRA>
0

>  <SCORE.INTRA.DIHEDRAL>
0

>  <SCORE.INTRA.DIHEDRAL.0>
0

>  <SCORE.INTRA.POLAR>
0

>  <SCORE.INTRA.POLAR.0>
0

>  <SCORE.INTRA.REPUL>
0

>  <SCORE.INTRA.REPUL.0>
0

>  <SCORE.INTRA.SOLV>
0

>  <SCORE.INTRA.SOLV.lig_0>
-12.9184

>  <SCORE.INTRA.VDW>
0

>  <SCORE.INTRA.VDW.0>
0

>  <SCORE.INTRA.norm>
0

>  <SCORE.RESTR>
0

>  <SCORE.RESTR.CAVITY>
0

>  <SCORE.RESTR.norm>
0

>  <SCORE.SYSTEM>
0

>  <SCORE.SYSTEM.CONST>
0

>  <SCORE.SYSTEM.DIHEDRAL>
0

>  <SCORE.SYSTEM.SOLV>
0

>  <SCORE.SYSTEM.norm>
0

>  <SCORE.heavy>
13

>  <SCORE.norm>
-1.93242

>  <RMSD>
3.358

$$$$
1o15_lig
 OpenBabel11021811403D
libRbt.so/2013.1/901 2013/11/27
 13 14  0  0  0  0  0  0  0  0999 V2000
   11.5332    5.1433   38.0424 C   0  0  0  0  0  0  0  0  0  0  0  0
   10.9282    4.3486   37.0938 N   0  0  0  0  0  0  0  0  0  0  0  0
   11.0224    3.0013   37.2444 C   0  0  0  0  0  0  0  0  0  0  0  0
   11.6522    2.6131   38.2250 O   0  0  0  0  0  0  0  0  0  0  0  0
   10.5921    0.7200   36.5670 C   0  0  0  0  0  0  0  0  0  0  0  0
   10.4779    2.0825   36.3911 N   0  0  0  0  0  0  0  0  0  0  0  0
    9.8110    2.6522   35.3510 C   0  0  0  0  0  0  0  0  0  0  0  0
    9.7214    4.0069   35.2122 C   0  0  0  0  0  0  0  0  0  0  0  0
   10.2782    4.9614   36.0837 C   0  0  0  0  0  0  0  0  0  0  0  0
   10.2347    6.1872   36.0169 O   0  0  0  0  0  0  0  0  0  0  0  0
    8.9829    4.2203   34.0572 N   0  0  0  0  0  0  0  0  0  0  0  0
    8.6772    2.9882   33.5797 C   0  0  0  0  0  0  0  0  0  0  0  0
    9.1461    2.0128   34.3100 N   0  0  0  0  0  0  0  0  0  0  0  0
  1  2  1  0  0  0  0
  2  3  1  0  0  0  0
  2  9  1  0  0  0  0
  3  4  2  0  0  0  0
  3  6  1  0  0  0  0
  6  5  1  0  0  0  0
  6  7  1  0  0  0  0
  7  8  2  0  0  0  0
  7 13  1  0  0  0  0
  8  9  1  0  0  0  0
  8 11  1  0  0  0  0
  9 10  2  0  0  0  0
 11 12  1  0  0  0  0
 12 13  2  0  0  0  0
M  END
>  <CHROM.1>
10.26168927,3.47476653,36.05477868,0.23913864,-1.00125255,0.00127642

>  <Name>
1o15_lig

>  <RI>
0

>  <Rbt.Current_Directory>
/home/itssahil/PROJECTS/Mol_Feturizer/New_Systems/rnas/1o15

>  <Rbt.Executable>
rbdock ($Id: //depot/dev/client3/rdock/2013.1/src/exe/rbdock.cxx#4 $)

>  <Rbt.Library>
libRbt.so (2013.1, Build901 2013/11/27)

>  <Rbt.Parameter_File>
/export/apps/rDock/src/rDock_2013.1_src/data/scripts/dock_solv.prm

>  <Rbt.Receptor>
prm/pocket_docking_4.prm

>  <SCORE>
-25.1121

>  <SCORE.INTER>
-25.1121

>  <SCORE.INTER.CONST>
1

>  <SCORE.INTER.POLAR>
-2.00023

>  <SCORE.INTER.ROT>
0

>  <SCORE.INTER.SOLV>
7.90629

>  <SCORE.INTER.VDW>
-16.3094

>  <SCORE.INTER.norm>
-1.9317

>  <SCORE.INTRA>
0

>  <SCORE.INTRA.DIHEDRAL>
0

>  <SCORE.INTRA.DIHEDRAL.0>
0

>  <SCORE.INTRA.POLAR>
0

>  <SCORE.INTRA.POLAR.0>
0

>  <SCORE.INTRA.REPUL>
0

>  <SCORE.INTRA.REPUL.0>
0

>  <SCORE.INTRA.SOLV>
0

>  <SCORE.INTRA.SOLV.lig_0>
-12.9184

>  <SCORE.INTRA.VDW>
0

>  <SCORE.INTRA.VDW.0>
0

>  <SCORE.INTRA.norm>
0

>  <SCORE.RESTR>
0

>  <SCORE.RESTR.CAVITY>
0

>  <SCORE.RESTR.norm>
0

>  <SCORE.SYSTEM>
0

>  <SCORE.SYSTEM.CONST>
0

>  <SCORE.SYSTEM.DIHEDRAL>
0

>  <SCORE.SYSTEM.SOLV>
0

>  <SCORE.SYSTEM.norm>
0

>  <SCORE.heavy>
13

>  <SCORE.norm>
-1.9317

>  <RMSD>
3.359

$$$$
1o15_lig
 OpenBabel11021811403D
libRbt.so/2013.1/901 2013/11/27
 13 14  0  0  0  0  0  0  0  0999 V2000
   11.5354    5.1484   38.0405 C   0  0  0  0  0  0  0  0  0  0  0  0
   10.9291    4.3526   37.0937 N   0  0  0  0  0  0  0  0  0  0  0  0
   11.0221    3.0055   37.2467 C   0  0  0  0  0  0  0  0  0  0  0  0
   11.6520    2.6184   38.2276 O   0  0  0  0  0  0  0  0  0  0  0  0
   10.5891    0.7234   36.5736 C   0  0  0  0  0  0  0  0  0  0  0  0
   10.4762    2.0857   36.3953 N   0  0  0  0  0  0  0  0  0  0  0  0
    9.8093    2.6542   35.3545 C   0  0  0  0  0  0  0  0  0  0  0  0
    9.7210    4.0087   35.2134 C   0  0  0  0  0  0  0  0  0  0  0  0
   10.2792    4.9642   36.0829 C   0  0  0  0  0  0  0  0  0  0  0  0
   10.2368    6.1899   36.0139 O   0  0  0  0  0  0  0  0  0  0  0  0
    8.9820    4.2208   34.0584 N   0  0  0  0  0  0  0  0  0  0  0  0
    8.6748    2.9882   33.5832 C   0  0  0  0  0  0  0  0  0  0  0  0
    9.1432    2.0136   34.3151 N   0  0  0  0  0  0  0  0  0  0  0  0
  1  2  1  0  0  0  0
  2  3  1  0  0  0  0
  2  9  1  0  0  0  0
  3  4  2  0  0  0  0
  3  6  1  0  0  0  0
  6  5  1  0  0  0  0
  6  7  1  0  0  0  0
  7  8  2  0  0  0  0
  7 13  1  0  0  0  0
  8  9  1  0  0  0  0
  8 11  1  0  0  0  0
  9 10  2  0  0  0  0
 11 12  1  0  0  0  0
 12 13  2  0  0  0  0
M  END
>  <CHROM.1>
10.26116880,3.47755967,36.05660959,0.23730147,-1.00071568,-0.00206355

>  <Name>
1o15_lig

>  <RI>
0

>  <Rbt.Current_Directory>
/home/itssahil/PROJECTS/Mol_Feturizer/New_Systems/rnas/1o15

>  <Rbt.Executable>
rbdock ($Id: //depot/dev/client3/rdock/2013.1/src/exe/rbdock.cxx#4 $)

>  <Rbt.Library>
libRbt.so (2013.1, Build901 2013/11/27)

>  <Rbt.Parameter_File>
/export/apps/rDock/src/rDock_2013.1_src/data/scripts/dock_solv.prm

>  <Rbt.Receptor>
prm/pocket_docking_8.prm

>  <SCORE>
-25.1146

>  <SCORE.INTER>
-25.1146

>  <SCORE.INTER.CONST>
1

>  <SCORE.INTER.POLAR>
-1.99932

>  <SCORE.INTER.ROT>
0

>  <SCORE.INTER.SOLV>
7.90397

>  <SCORE.INTER.VDW>
-16.3133

>  <SCORE.INTER.norm>
-1.93189

>  <SCORE.INTRA>
0

>  <SCORE.INTRA.DIHEDRAL>
0

>  <SCORE.INTRA.DIHEDRAL.0>
0

>  <SCORE.INTRA.POLAR>
0

>  <SCORE.INTRA.POLAR.0>
0

>  <SCORE.INTRA.REPUL>
0

>  <SCORE.INTRA.REPUL.0>
0

>  <SCORE.INTRA.SOLV>
0

>  <SCORE.INTRA.SOLV.lig_0>
-12.9184

>  <SCORE.INTRA.VDW>
0

>  <SCORE.INTRA.VDW.0>
0

>  <SCORE.INTRA.norm>
0

>  <SCORE.RESTR>
0

>  <SCORE.RESTR.CAVITY>
0

>  <SCORE.RESTR.norm>
0

>  <SCORE.SYSTEM>
0

>  <SCORE.SYSTEM.CONST>
0

>  <SCORE.SYSTEM.DIHEDRAL>
0

>  <SCORE.SYSTEM.SOLV>
0

>  <SCORE.SYSTEM.norm>
0

>  <SCORE.heavy>
13

>  <SCORE.norm>
-1.93189

>  <RMSD>
3.359

$$$$
1o15_lig
 OpenBabel11021811403D
libRbt.so/2013.1/901 2013/11/27
 13 14  0  0  0  0  0  0  0  0999 V2000
    9.9708    5.7669   37.9148 C   0  0  0  0  0  0  0  0  0  0  0  0
    9.5895    4.6558   37.1956 N   0  0  0  0  0  0  0  0  0  0  0  0
    9.5770    3.4593   37.8397 C   0  0  0  0  0  0  0  0  0  0  0  0
    9.9169    3.4810   39.0199 O   0  0  0  0  0  0  0  0  0  0  0  0
    9.2235    1.0691   37.9434 C   0  0  0  0  0  0  0  0  0  0  0  0
    9.2239    2.2698   37.2659 N   0  0  0  0  0  0  0  0  0  0  0  0
    8.8721    2.3939   35.9575 C   0  0  0  0  0  0  0  0  0  0  0  0
    8.8865    3.6018   35.3225 C   0  0  0  0  0  0  0  0  0  0  0  0
    9.2485    4.8317   35.9028 C   0  0  0  0  0  0  0  0  0  0  0  0
    9.2828    5.9475   35.3905 O   0  0  0  0  0  0  0  0  0  0  0  0
    8.4775    3.3491   34.0209 N   0  0  0  0  0  0  0  0  0  0  0  0
    8.2443    2.0145   33.9580 C   0  0  0  0  0  0  0  0  0  0  0  0
    8.4641    1.3913   35.0841 N   0  0  0  0  0  0  0  0  0  0  0  0
  1  2  1  0  0  0  0
  2  3  1  0  0  0  0
  2  9  1  0  0  0  0
  3  4  2  0  0  0  0
  3  6  1  0  0  0  0
  6  5  1  0  0  0  0
  6  7  1  0  0  0  0
  7  8  2  0  0  0  0
  7 13  1  0  0  0  0
  8  9  1  0  0  0  0
  8 11  1  0  0  0  0
  9 10  2  0  0  0  0
 11 12  1  0  0  0  0
 12 13  2  0  0  0  0
M  END
>  <CHROM.1>
9.16804205,3.43537039,36.40783174,0.08363950,-1.25549409,-0.51543941

>  <Name>
1o15_lig

>  <RI>
0

>  <Rbt.Current_Directory>
/home/itssahil/PROJECTS/Mol_Feturizer/New_Systems/rnas/1o15

>  <Rbt.Executable>
rbdock ($Id: //depot/dev/client3/rdock/2013.1/src/exe/rbdock.cxx#4 $)

>  <Rbt.Library>
libRbt.so (2013.1, Build901 2013/11/27)

>  <Rbt.Parameter_File>
/export/apps/rDock/src/rDock_2013.1_src/data/scripts/dock_solv.prm

>  <Rbt.Receptor>
prm/pocket_docking_3.prm

>  <SCORE>
-21.9056

>  <SCORE.INTER>
-21.9056

>  <SCORE.INTER.CONST>
1

>  <SCORE.INTER.POLAR>
-1.42388

>  <SCORE.INTER.ROT>
0

>  <SCORE.INTER.SOLV>
6.81262

>  <SCORE.INTER.VDW>
-15.7284

>  <SCORE.INTER.norm>
-1.68505

>  <SCORE.INTRA>
0

>  <SCORE.INTRA.DIHEDRAL>
0

>  <SCORE.INTRA.DIHEDRAL.0>
0

>  <SCORE.INTRA.POLAR>
0

>  <SCORE.INTRA.POLAR.0>
0

>  <SCORE.INTRA.REPUL>
0

>  <SCORE.INTRA.REPUL.0>
0

>  <SCORE.INTRA.SOLV>
0

>  <SCORE.INTRA.SOLV.lig_0>
-12.9184

>  <SCORE.INTRA.VDW>
0

>  <SCORE.INTRA.VDW.0>
0

>  <SCORE.INTRA.norm>
0

>  <SCORE.RESTR>
0

>  <SCORE.RESTR.CAVITY>
0

>  <SCORE.RESTR.norm>
0

>  <SCORE.SYSTEM>
0

>  <SCORE.SYSTEM.CONST>
0

>  <SCORE.SYSTEM.DIHEDRAL>
0

>  <SCORE.SYSTEM.SOLV>
0

>  <SCORE.SYSTEM.norm>
0

>  <SCORE.heavy>
13

>  <SCORE.norm>
-1.68505

>  <RMSD>
3.360

$$$$
1o15_lig
 OpenBabel11021811403D
libRbt.so/2013.1/901 2013/11/27
 13 14  0  0  0  0  0  0  0  0999 V2000
   11.5305    5.1549   38.0305 C   0  0  0  0  0  0  0  0  0  0  0  0
   10.9237    4.3550   37.0874 N   0  0  0  0  0  0  0  0  0  0  0  0
   10.9959    3.0089   37.2592 C   0  0  0  0  0  0  0  0  0  0  0  0
   11.6092    2.6262   38.2523 O   0  0  0  0  0  0  0  0  0  0  0  0
   10.5384    0.7243   36.6113 C   0  0  0  0  0  0  0  0  0  0  0  0
   10.4467    2.0856   36.4138 N   0  0  0  0  0  0  0  0  0  0  0  0
    9.7997    2.6493   35.3580 C   0  0  0  0  0  0  0  0  0  0  0  0
    9.7321    4.0030   35.1980 C   0  0  0  0  0  0  0  0  0  0  0  0
   10.2939    4.9621   36.0611 C   0  0  0  0  0  0  0  0  0  0  0  0
   10.2697    6.1872   35.9754 O   0  0  0  0  0  0  0  0  0  0  0  0
    9.0093    4.2099   34.0319 N   0  0  0  0  0  0  0  0  0  0  0  0
    8.6902    2.9754   33.5695 C   0  0  0  0  0  0  0  0  0  0  0  0
    9.1364    2.0043   34.3195 N   0  0  0  0  0  0  0  0  0  0  0  0
  1  2  1  0  0  0  0
  2  3  1  0  0  0  0
  2  9  1  0  0  0  0
  3  4  2  0  0  0  0
  3  6  1  0  0  0  0
  6  5  1  0  0  0  0
  6  7  1  0  0  0  0
  7  8  2  0  0  0  0
  7 13  1  0  0  0  0
  8  9  1  0  0  0  0
  8 11  1  0  0  0  0
  9 10  2  0  0  0  0
 11 12  1  0  0  0  0
 12 13  2  0  0  0  0
M  END
>  <CHROM.1>
10.25521893,3.47561505,36.05427514,0.21063277,-1.01182524,-0.03788886

>  <Name>
1o15_lig

>  <RI>
0

>  <Rbt.Current_Directory>
/home/itssahil/PROJECTS/Mol_Feturizer/New_Systems/rnas/1o15

>  <Rbt.Executable>
rbdock ($Id: //depot/dev/client3/rdock/2013.1/src/exe/rbdock.cxx#4 $)

>  <Rbt.Library>
libRbt.so (2013.1, Build901 2013/11/27)

>  <Rbt.Parameter_File>
/export/apps/rDock/src/rDock_2013.1_src/data/scripts/dock_solv.prm

>  <Rbt.Receptor>
prm/pocket_docking_7.prm

>  <SCORE>
-25.0796

>  <SCORE.INTER>
-25.0796

>  <SCORE.INTER.CONST>
1

>  <SCORE.INTER.POLAR>
-1.97079

>  <SCORE.INTER.ROT>
0

>  <SCORE.INTER.SOLV>
7.97194

>  <SCORE.INTER.VDW>
-16.4078

>  <SCORE.INTER.norm>
-1.9292

>  <SCORE.INTRA>
0

>  <SCORE.INTRA.DIHEDRAL>
0

>  <SCORE.INTRA.DIHEDRAL.0>
0

>  <SCORE.INTRA.POLAR>
0

>  <SCORE.INTRA.POLAR.0>
0

>  <SCORE.INTRA.REPUL>
0

>  <SCORE.INTRA.REPUL.0>
0

>  <SCORE.INTRA.SOLV>
0

>  <SCORE.INTRA.SOLV.lig_0>
-12.9184

>  <SCORE.INTRA.VDW>
0

>  <SCORE.INTRA.VDW.0>
0

>  <SCORE.INTRA.norm>
0

>  <SCORE.RESTR>
0

>  <SCORE.RESTR.CAVITY>
0

>  <SCORE.RESTR.norm>
0

>  <SCORE.SYSTEM>
0

>  <SCORE.SYSTEM.CONST>
0

>  <SCORE.SYSTEM.DIHEDRAL>
0

>  <SCORE.SYSTEM.SOLV>
0

>  <SCORE.SYSTEM.norm>
0

>  <SCORE.heavy>
13

>  <SCORE.norm>
-1.9292

>  <RMSD>
3.363

$$$$
1o15_lig
 OpenBabel11021811403D
libRbt.so/2013.1/901 2013/11/27
 13 14  0  0  0  0  0  0  0  0999 V2000
    9.9421    5.7612   37.9156 C   0  0  0  0  0  0  0  0  0  0  0  0
    9.5596    4.6537   37.1913 N   0  0  0  0  0  0  0  0  0  0  0  0
    9.5285    3.4572   37.8349 C   0  0  0  0  0  0  0  0  0  0  0  0
    9.8542    3.4756   39.0191 O   0  0  0  0  0  0  0  0  0  0  0  0
    9.1524    1.0703   37.9333 C   0  0  0  0  0  0  0  0  0  0  0  0
    9.1718    2.2711   37.2564 N   0  0  0  0  0  0  0  0  0  0  0  0
    8.8370    2.3987   35.9439 C   0  0  0  0  0  0  0  0  0  0  0  0
    8.8699    3.6066   35.3095 C   0  0  0  0  0  0  0  0  0  0  0  0
    9.2358    4.8330   35.8946 C   0  0  0  0  0  0  0  0  0  0  0  0
    9.2863    5.9487   35.3831 O   0  0  0  0  0  0  0  0  0  0  0  0
    8.4745    3.3579   34.0030 N   0  0  0  0  0  0  0  0  0  0  0  0
    8.2301    2.0255   33.9368 C   0  0  0  0  0  0  0  0  0  0  0  0
    8.4306    1.4000   35.0652 N   0  0  0  0  0  0  0  0  0  0  0  0
  1  2  1  0  0  0  0
  2  3  1  0  0  0  0
  2  9  1  0  0  0  0
  3  4  2  0  0  0  0
  3  6  1  0  0  0  0
  6  5  1  0  0  0  0
  6  7  1  0  0  0  0
  7  8  2  0  0  0  0
  7 13  1  0  0  0  0
  8  9  1  0  0  0  0
  8 11  1  0  0  0  0
  9 10  2  0  0  0  0
 11 12  1  0  0  0  0
 12 13  2  0  0  0  0
M  END
>  <CHROM.1>
9.13675420,3.43735966,36.39809807,0.03839608,-1.26132513,-0.55818468

>  <Name>
1o15_lig

>  <RI>
0

>  <Rbt.Current_Directory>
/home/itssahil/PROJECTS/Mol_Feturizer/New_Systems/rnas/1o15

>  <Rbt.Executable>
rbdock ($Id: //depot/dev/client3/rdock/2013.1/src/exe/rbdock.cxx#4 $)

>  <Rbt.Library>
libRbt.so (2013.1, Build901 2013/11/27)

>  <Rbt.Parameter_File>
/export/apps/rDock/src/rDock_2013.1_src/data/scripts/dock_solv.prm

>  <Rbt.Receptor>
prm/pocket_docking_4.prm

>  <SCORE>
-21.9759

>  <SCORE.INTER>
-21.9759

>  <SCORE.INTER.CONST>
1

>  <SCORE.INTER.POLAR>
-1.39304

>  <SCORE.INTER.ROT>
0

>  <SCORE.INTER.SOLV>
6.95486

>  <SCORE.INTER.VDW>
-15.9254

>  <SCORE.INTER.norm>
-1.69045

>  <SCORE.INTRA>
0

>  <SCORE.INTRA.DIHEDRAL>
0

>  <SCORE.INTRA.DIHEDRAL.0>
0

>  <SCORE.INTRA.POLAR>
0

>  <SCORE.INTRA.POLAR.0>
0

>  <SCORE.INTRA.REPUL>
0

>  <SCORE.INTRA.REPUL.0>
0

>  <SCORE.INTRA.SOLV>
0

>  <SCORE.INTRA.SOLV.lig_0>
-12.9184

>  <SCORE.INTRA.VDW>
0

>  <SCORE.INTRA.VDW.0>
0

>  <SCORE.INTRA.norm>
0

>  <SCORE.RESTR>
0

>  <SCORE.RESTR.CAVITY>
0

>  <SCORE.RESTR.norm>
0

>  <SCORE.SYSTEM>
0

>  <SCORE.SYSTEM.CONST>
0

>  <SCORE.SYSTEM.DIHEDRAL>
0

>  <SCORE.SYSTEM.SOLV>
0

>  <SCORE.SYSTEM.norm>
0

>  <SCORE.heavy>
13

>  <SCORE.norm>
-1.69045

>  <RMSD>
3.369

$$$$
1o15_lig
 OpenBabel11021811403D
libRbt.so/2013.1/901 2013/11/27
 13 14  0  0  0  0  0  0  0  0999 V2000
   11.5361    5.0857   37.9957 C   0  0  0  0  0  0  0  0  0  0  0  0
   10.9223    4.3081   37.0387 N   0  0  0  0  0  0  0  0  0  0  0  0
   11.0110    2.9583   37.1686 C   0  0  0  0  0  0  0  0  0  0  0  0
   11.6441    2.5525   38.1398 O   0  0  0  0  0  0  0  0  0  0  0  0
   10.5664    0.6894   36.4593 C   0  0  0  0  0  0  0  0  0  0  0  0
   10.4577    2.0549   36.3045 N   0  0  0  0  0  0  0  0  0  0  0  0
    9.7879    2.6432   35.2766 C   0  0  0  0  0  0  0  0  0  0  0  0
    9.7040    4.0002   35.1586 C   0  0  0  0  0  0  0  0  0  0  0  0
   10.2698    4.9389   36.0413 C   0  0  0  0  0  0  0  0  0  0  0  0
   10.2317    6.1657   35.9931 O   0  0  0  0  0  0  0  0  0  0  0  0
    8.9603    4.2343   34.0109 N   0  0  0  0  0  0  0  0  0  0  0  0
    8.6463    3.0109   33.5166 C   0  0  0  0  0  0  0  0  0  0  0  0
    9.1145    2.0225   34.2298 N   0  0  0  0  0  0  0  0  0  0  0  0
  1  2  1  0  0  0  0
  2  3  1  0  0  0  0
  2  9  1  0  0  0  0
  3  4  2  0  0  0  0
  3  6  1  0  0  0  0
  6  5  1  0  0  0  0
  6  7  1  0  0  0  0
  7  8  2  0  0  0  0
  7 13  1  0  0  0  0
  8  9  1  0  0  0  0
  8 11  1  0  0  0  0
  9 10  2  0  0  0  0
 11 12  1  0  0  0  0
 12 13  2  0  0  0  0
M  END
>  <CHROM.1>
10.24620118,3.45300085,35.99022189,0.23050830,-0.99595003,0.00899882

>  <Name>
1o15_lig

>  <RI>
0

>  <Rbt.Current_Directory>
/home/itssahil/PROJECTS/Mol_Feturizer/New_Systems/rnas/1o15

>  <Rbt.Executable>
rbdock ($Id: //depot/dev/client3/rdock/2013.1/src/exe/rbdock.cxx#4 $)

>  <Rbt.Library>
libRbt.so (2013.1, Build901 2013/11/27)

>  <Rbt.Parameter_File>
/export/apps/rDock/src/rDock_2013.1_src/data/scripts/dock_solv.prm

>  <Rbt.Receptor>
prm/blind_docking_80.prm

>  <SCORE>
-24.8319

>  <SCORE.INTER>
-24.8717

>  <SCORE.INTER.CONST>
1

>  <SCORE.INTER.POLAR>
-1.99313

>  <SCORE.INTER.ROT>
0

>  <SCORE.INTER.SOLV>
8.07967

>  <SCORE.INTER.VDW>
-16.2306

>  <SCORE.INTER.norm>
-1.91321

>  <SCORE.INTRA>
0

>  <SCORE.INTRA.DIHEDRAL>
0

>  <SCORE.INTRA.DIHEDRAL.0>
0

>  <SCORE.INTRA.POLAR>
0

>  <SCORE.INTRA.POLAR.0>
0

>  <SCORE.INTRA.REPUL>
0

>  <SCORE.INTRA.REPUL.0>
0

>  <SCORE.INTRA.SOLV>
0

>  <SCORE.INTRA.SOLV.lig_0>
-12.9184

>  <SCORE.INTRA.VDW>
0

>  <SCORE.INTRA.VDW.0>
0

>  <SCORE.INTRA.norm>
0

>  <SCORE.RESTR>
0.0398286

>  <SCORE.RESTR.CAVITY>
0.0398286

>  <SCORE.RESTR.norm>
0.00306374

>  <SCORE.SYSTEM>
0

>  <SCORE.SYSTEM.CONST>
0

>  <SCORE.SYSTEM.DIHEDRAL>
0

>  <SCORE.SYSTEM.SOLV>
0

>  <SCORE.SYSTEM.norm>
0

>  <SCORE.heavy>
13

>  <SCORE.norm>
-1.91015

>  <RMSD>
3.373

$$$$
1o15_lig
 OpenBabel11021811403D
libRbt.so/2013.1/901 2013/11/27
 13 14  0  0  0  0  0  0  0  0999 V2000
    9.8959    5.7834   37.8785 C   0  0  0  0  0  0  0  0  0  0  0  0
    9.5284    4.6735   37.1503 N   0  0  0  0  0  0  0  0  0  0  0  0
    9.4920    3.4778   37.7951 C   0  0  0  0  0  0  0  0  0  0  0  0
    9.7997    3.4992   38.9841 O   0  0  0  0  0  0  0  0  0  0  0  0
    9.1230    1.0897   37.8916 C   0  0  0  0  0  0  0  0  0  0  0  0
    9.1483    2.2895   37.2132 N   0  0  0  0  0  0  0  0  0  0  0  0
    8.8329    2.4140   35.8956 C   0  0  0  0  0  0  0  0  0  0  0  0
    8.8709    3.6210   35.2599 C   0  0  0  0  0  0  0  0  0  0  0  0
    9.2236    4.8496   35.8486 C   0  0  0  0  0  0  0  0  0  0  0  0
    9.2778    5.9647   35.3362 O   0  0  0  0  0  0  0  0  0  0  0  0
    8.4962    3.3690   33.9479 N   0  0  0  0  0  0  0  0  0  0  0  0
    8.2576    2.0356   33.8801 C   0  0  0  0  0  0  0  0  0  0  0  0
    8.4433    1.4125   35.0124 N   0  0  0  0  0  0  0  0  0  0  0  0
  1  2  1  0  0  0  0
  2  3  1  0  0  0  0
  2  9  1  0  0  0  0
  3  4  2  0  0  0  0
  3  6  1  0  0  0  0
  6  5  1  0  0  0  0
  6  7  1  0  0  0  0
  7  8  2  0  0  0  0
  7 13  1  0  0  0  0
  8  9  1  0  0  0  0
  8 11  1  0  0  0  0
  9 10  2  0  0  0  0
 11 12  1  0  0  0  0
 12 13  2  0  0  0  0
M  END
>  <CHROM.1>
9.12198980,3.45440318,36.35265151,0.02141590,-1.27598746,-0.57591447

>  <Name>
1o15_lig

>  <RI>
0

>  <Rbt.Current_Directory>
/home/itssahil/PROJECTS/Mol_Feturizer/New_Systems/rnas/1o15

>  <Rbt.Executable>
rbdock ($Id: //depot/dev/client3/rdock/2013.1/src/exe/rbdock.cxx#4 $)

>  <Rbt.Library>
libRbt.so (2013.1, Build901 2013/11/27)

>  <Rbt.Parameter_File>
/export/apps/rDock/src/rDock_2013.1_src/data/scripts/dock_solv.prm

>  <Rbt.Receptor>
prm/pocket_docking_4.prm

>  <SCORE>
-21.908

>  <SCORE.INTER>
-21.908

>  <SCORE.INTER.CONST>
1

>  <SCORE.INTER.POLAR>
-1.35529

>  <SCORE.INTER.ROT>
0

>  <SCORE.INTER.SOLV>
7.19027

>  <SCORE.INTER.VDW>
-16.0845

>  <SCORE.INTER.norm>
-1.68523

>  <SCORE.INTRA>
0

>  <SCORE.INTRA.DIHEDRAL>
0

>  <SCORE.INTRA.DIHEDRAL.0>
0

>  <SCORE.INTRA.POLAR>
0

>  <SCORE.INTRA.POLAR.0>
0

>  <SCORE.INTRA.REPUL>
0

>  <SCORE.INTRA.REPUL.0>
0

>  <SCORE.INTRA.SOLV>
0

>  <SCORE.INTRA.SOLV.lig_0>
-12.9184

>  <SCORE.INTRA.VDW>
0

>  <SCORE.INTRA.VDW.0>
0

>  <SCORE.INTRA.norm>
0

>  <SCORE.RESTR>
0

>  <SCORE.RESTR.CAVITY>
0

>  <SCORE.RESTR.norm>
0

>  <SCORE.SYSTEM>
0

>  <SCORE.SYSTEM.CONST>
0

>  <SCORE.SYSTEM.DIHEDRAL>
0

>  <SCORE.SYSTEM.SOLV>
0

>  <SCORE.SYSTEM.norm>
0

>  <SCORE.heavy>
13

>  <SCORE.norm>
-1.68523

>  <RMSD>
3.389

$$$$
1o15_lig
 OpenBabel11021811403D
libRbt.so/2013.1/901 2013/11/27
 13 14  0  0  0  0  0  0  0  0999 V2000
    9.8941    5.7485   37.8921 C   0  0  0  0  0  0  0  0  0  0  0  0
    9.5282    4.6471   37.1503 N   0  0  0  0  0  0  0  0  0  0  0  0
    9.4910    3.4439   37.7810 C   0  0  0  0  0  0  0  0  0  0  0  0
    9.7968    3.4514   38.9707 O   0  0  0  0  0  0  0  0  0  0  0  0
    9.1226    1.0548   37.8489 C   0  0  0  0  0  0  0  0  0  0  0  0
    9.1487    2.2624   37.1846 N   0  0  0  0  0  0  0  0  0  0  0  0
    8.8354    2.4022   35.8680 C   0  0  0  0  0  0  0  0  0  0  0  0
    8.8742    3.6167   35.2466 C   0  0  0  0  0  0  0  0  0  0  0  0
    9.2255    4.8384   35.8503 C   0  0  0  0  0  0  0  0  0  0  0  0
    9.2802    5.9594   35.3511 O   0  0  0  0  0  0  0  0  0  0  0  0
    8.5017    3.3800   33.9312 N   0  0  0  0  0  0  0  0  0  0  0  0
    8.2636    2.0473   33.8473 C   0  0  0  0  0  0  0  0  0  0  0  0
    8.4476    1.4111   34.9726 N   0  0  0  0  0  0  0  0  0  0  0  0
  1  2  1  0  0  0  0
  2  3  1  0  0  0  0
  2  9  1  0  0  0  0
  3  4  2  0  0  0  0
  3  6  1  0  0  0  0
  6  5  1  0  0  0  0
  6  7  1  0  0  0  0
  7  8  2  0  0  0  0
  7 13  1  0  0  0  0
  8  9  1  0  0  0  0
  8 11  1  0  0  0  0
  9 10  2  0  0  0  0
 11 12  1  0  0  0  0
 12 13  2  0  0  0  0
M  END
>  <CHROM.1>
9.12344696,3.43731749,36.33777367,0.01913045,-1.27754819,-0.56637438

>  <Name>
1o15_lig

>  <RI>
0

>  <Rbt.Current_Directory>
/home/itssahil/PROJECTS/Mol_Feturizer/New_Systems/rnas/1o15

>  <Rbt.Executable>
rbdock ($Id: //depot/dev/client3/rdock/2013.1/src/exe/rbdock.cxx#4 $)

>  <Rbt.Library>
libRbt.so (2013.1, Build901 2013/11/27)

>  <Rbt.Parameter_File>
/export/apps/rDock/src/rDock_2013.1_src/data/scripts/dock_solv.prm

>  <Rbt.Receptor>
prm/pocket_docking_6.prm

>  <SCORE>
-21.8761

>  <SCORE.INTER>
-21.8761

>  <SCORE.INTER.CONST>
1

>  <SCORE.INTER.POLAR>
-1.33671

>  <SCORE.INTER.ROT>
0

>  <SCORE.INTER.SOLV>
7.18773

>  <SCORE.INTER.VDW>
-16.1243

>  <SCORE.INTER.norm>
-1.68278

>  <SCORE.INTRA>
0

>  <SCORE.INTRA.DIHEDRAL>
0

>  <SCORE.INTRA.DIHEDRAL.0>
0

>  <SCORE.INTRA.POLAR>
0

>  <SCORE.INTRA.POLAR.0>
0

>  <SCORE.INTRA.REPUL>
0

>  <SCORE.INTRA.REPUL.0>
0

>  <SCORE.INTRA.SOLV>
0

>  <SCORE.INTRA.SOLV.lig_0>
-12.9184

>  <SCORE.INTRA.VDW>
0

>  <SCORE.INTRA.VDW.0>
0

>  <SCORE.INTRA.norm>
0

>  <SCORE.RESTR>
0

>  <SCORE.RESTR.CAVITY>
0

>  <SCORE.RESTR.norm>
0

>  <SCORE.SYSTEM>
0

>  <SCORE.SYSTEM.CONST>
0

>  <SCORE.SYSTEM.DIHEDRAL>
0

>  <SCORE.SYSTEM.SOLV>
0

>  <SCORE.SYSTEM.norm>
0

>  <SCORE.heavy>
13

>  <SCORE.norm>
-1.68278

>  <RMSD>
3.389

$$$$
1o15_lig
 OpenBabel11021811403D
libRbt.so/2013.1/901 2013/11/27
 13 14  0  0  0  0  0  0  0  0999 V2000
    9.8566    5.7838   37.9058 C   0  0  0  0  0  0  0  0  0  0  0  0
    9.4820    4.6754   37.1789 N   0  0  0  0  0  0  0  0  0  0  0  0
    9.4214    3.4837   37.8292 C   0  0  0  0  0  0  0  0  0  0  0  0
    9.7157    3.5068   39.0216 O   0  0  0  0  0  0  0  0  0  0  0  0
    9.0180    1.1015   37.9332 C   0  0  0  0  0  0  0  0  0  0  0  0
    9.0679    2.2973   37.2492 N   0  0  0  0  0  0  0  0  0  0  0  0
    8.7695    2.4194   35.9274 C   0  0  0  0  0  0  0  0  0  0  0  0
    8.8318    3.6226   35.2862 C   0  0  0  0  0  0  0  0  0  0  0  0
    9.1948    4.8491   35.8729 C   0  0  0  0  0  0  0  0  0  0  0  0
    9.2705    5.9607   35.3556 O   0  0  0  0  0  0  0  0  0  0  0  0
    8.4687    3.3691   33.9713 N   0  0  0  0  0  0  0  0  0  0  0  0
    8.2123    2.0388   33.9073 C   0  0  0  0  0  0  0  0  0  0  0  0
    8.3762    1.4190   35.0447 N   0  0  0  0  0  0  0  0  0  0  0  0
  1  2  1  0  0  0  0
  2  3  1  0  0  0  0
  2  9  1  0  0  0  0
  3  4  2  0  0  0  0
  3  6  1  0  0  0  0
  6  5  1  0  0  0  0
  6  7  1  0  0  0  0
  7  8  2  0  0  0  0
  7 13  1  0  0  0  0
  8  9  1  0  0  0  0
  8 11  1  0  0  0  0
  9 10  2  0  0  0  0
 11 12  1  0  0  0  0
 12 13  2  0  0  0  0
M  END
>  <CHROM.1>
9.06783179,3.45804303,36.38264918,-0.04096097,-1.27750780,-0.64063686

>  <Name>
1o15_lig

>  <RI>
0

>  <Rbt.Current_Directory>
/home/itssahil/PROJECTS/Mol_Feturizer/New_Systems/rnas/1o15

>  <Rbt.Executable>
rbdock ($Id: //depot/dev/client3/rdock/2013.1/src/exe/rbdock.cxx#4 $)

>  <Rbt.Library>
libRbt.so (2013.1, Build901 2013/11/27)

>  <Rbt.Parameter_File>
/export/apps/rDock/src/rDock_2013.1_src/data/scripts/dock_solv.prm

>  <Rbt.Receptor>
prm/pocket_docking_7.prm

>  <SCORE>
-21.8727

>  <SCORE.INTER>
-21.8727

>  <SCORE.INTER.CONST>
1

>  <SCORE.INTER.POLAR>
-1.34496

>  <SCORE.INTER.ROT>
0

>  <SCORE.INTER.SOLV>
7.28195

>  <SCORE.INTER.VDW>
-16.1259

>  <SCORE.INTER.norm>
-1.68252

>  <SCORE.INTRA>
0

>  <SCORE.INTRA.DIHEDRAL>
0

>  <SCORE.INTRA.DIHEDRAL.0>
0

>  <SCORE.INTRA.POLAR>
0

>  <SCORE.INTRA.POLAR.0>
0

>  <SCORE.INTRA.REPUL>
0

>  <SCORE.INTRA.REPUL.0>
0

>  <SCORE.INTRA.SOLV>
0

>  <SCORE.INTRA.SOLV.lig_0>
-12.9184

>  <SCORE.INTRA.VDW>
0

>  <SCORE.INTRA.VDW.0>
0

>  <SCORE.INTRA.norm>
0

>  <SCORE.RESTR>
0

>  <SCORE.RESTR.CAVITY>
0

>  <SCORE.RESTR.norm>
0

>  <SCORE.SYSTEM>
0

>  <SCORE.SYSTEM.CONST>
0

>  <SCORE.SYSTEM.DIHEDRAL>
0

>  <SCORE.SYSTEM.SOLV>
0

>  <SCORE.SYSTEM.norm>
0

>  <SCORE.heavy>
13

>  <SCORE.norm>
-1.68252

>  <RMSD>
3.394

$$$$
1o15_lig
 OpenBabel11021811403D
libRbt.so/2013.1/901 2013/11/27
 13 14  0  0  0  0  0  0  0  0999 V2000
   10.2251    5.7760   38.2449 C   0  0  0  0  0  0  0  0  0  0  0  0
    9.7971    4.8168   37.3538 N   0  0  0  0  0  0  0  0  0  0  0  0
    9.5401    3.5734   37.8383 C   0  0  0  0  0  0  0  0  0  0  0  0
    9.7212    3.4184   39.0433 O   0  0  0  0  0  0  0  0  0  0  0  0
    8.8601    1.2647   37.6022 C   0  0  0  0  0  0  0  0  0  0  0  0
    9.1102    2.5174   37.0841 N   0  0  0  0  0  0  0  0  0  0  0  0
    8.9538    2.8313   35.7695 C   0  0  0  0  0  0  0  0  0  0  0  0
    9.2129    4.0846   35.2956 C   0  0  0  0  0  0  0  0  0  0  0  0
    9.6561    5.1783   36.0624 C   0  0  0  0  0  0  0  0  0  0  0  0
    9.9064    6.3251   35.7003 O   0  0  0  0  0  0  0  0  0  0  0  0
    8.9491    4.0358   33.9343 N   0  0  0  0  0  0  0  0  0  0  0  0
    8.5501    2.7649   33.6793 C   0  0  0  0  0  0  0  0  0  0  0  0
    8.5343    1.9993   34.7369 N   0  0  0  0  0  0  0  0  0  0  0  0
  1  2  1  0  0  0  0
  2  3  1  0  0  0  0
  2  9  1  0  0  0  0
  3  4  2  0  0  0  0
  3  6  1  0  0  0  0
  6  5  1  0  0  0  0
  6  7  1  0  0  0  0
  7  8  2  0  0  0  0
  7 13  1  0  0  0  0
  8  9  1  0  0  0  0
  8 11  1  0  0  0  0
  9 10  2  0  0  0  0
 11 12  1  0  0  0  0
 12 13  2  0  0  0  0
M  END
>  <CHROM.1>
9.32407471,3.76342509,36.37700374,-0.52846759,-1.25000162,-0.98166215

>  <Name>
1o15_lig

>  <RI>
224

>  <Rbt.Current_Directory>
/home/itssahil/PROJECTS/Mol_Feturizer/New_Systems/rnas/1o15

>  <Rbt.Executable>
rbdock ($Id: //depot/dev/client3/rdock/2013.1/src/exe/rbdock.cxx#4 $)

>  <Rbt.Library>
libRbt.so (2013.1, Build901 2013/11/27)

>  <Rbt.Parameter_File>
/export/apps/rDock/src/rDock_2013.1_src/data/scripts/dock_solv.prm

>  <Rbt.Receptor>
prm/blind_docking_100.prm

>  <SCORE>
-22.1171

>  <SCORE.INTER>
-22.1176

>  <SCORE.INTER.CONST>
1

>  <SCORE.INTER.POLAR>
-1.28451

>  <SCORE.INTER.ROT>
0

>  <SCORE.INTER.SOLV>
8.41203

>  <SCORE.INTER.VDW>
-16.8674

>  <SCORE.INTER.norm>
-1.70135

>  <SCORE.INTRA>
0

>  <SCORE.INTRA.DIHEDRAL>
0

>  <SCORE.INTRA.DIHEDRAL.0>
0

>  <SCORE.INTRA.POLAR>
0

>  <SCORE.INTRA.POLAR.0>
0

>  <SCORE.INTRA.REPUL>
0

>  <SCORE.INTRA.REPUL.0>
0

>  <SCORE.INTRA.SOLV>
0

>  <SCORE.INTRA.SOLV.lig_0>
-12.9184

>  <SCORE.INTRA.VDW>
0

>  <SCORE.INTRA.VDW.0>
0

>  <SCORE.INTRA.norm>
0

>  <SCORE.RESTR>
0.000466357

>  <SCORE.RESTR.CAVITY>
0.000466357

>  <SCORE.RESTR.norm>
3.58736e-05

>  <SCORE.SYSTEM>
0

>  <SCORE.SYSTEM.CONST>
0

>  <SCORE.SYSTEM.DIHEDRAL>
0

>  <SCORE.SYSTEM.SOLV>
0

>  <SCORE.SYSTEM.norm>
0

>  <SCORE.heavy>
13

>  <SCORE.norm>
-1.70132

>  <RMSD>
3.395

$$$$
1o15_lig
 OpenBabel11021811403D
libRbt.so/2013.1/901 2013/11/27
 13 14  0  0  0  0  0  0  0  0999 V2000
   10.1987    5.7716   38.2458 C   0  0  0  0  0  0  0  0  0  0  0  0
    9.7845    4.8115   37.3490 N   0  0  0  0  0  0  0  0  0  0  0  0
    9.5242    3.5675   37.8299 C   0  0  0  0  0  0  0  0  0  0  0  0
    9.6901    3.4126   39.0371 O   0  0  0  0  0  0  0  0  0  0  0  0
    8.8528    1.2572   37.5846 C   0  0  0  0  0  0  0  0  0  0  0  0
    9.1065    2.5106   37.0700 N   0  0  0  0  0  0  0  0  0  0  0  0
    8.9664    2.8244   35.7535 C   0  0  0  0  0  0  0  0  0  0  0  0
    9.2286    4.0785   35.2833 C   0  0  0  0  0  0  0  0  0  0  0  0
    9.6594    5.1730   36.0559 C   0  0  0  0  0  0  0  0  0  0  0  0
    9.9115    6.3205   35.6973 O   0  0  0  0  0  0  0  0  0  0  0  0
    8.9826    4.0293   33.9187 N   0  0  0  0  0  0  0  0  0  0  0  0
    8.5899    2.7575   33.6583 C   0  0  0  0  0  0  0  0  0  0  0  0
    8.5622    1.9916   34.7155 N   0  0  0  0  0  0  0  0  0  0  0  0
  1  2  1  0  0  0  0
  2  3  1  0  0  0  0
  2  9  1  0  0  0  0
  3  4  2  0  0  0  0
  3  6  1  0  0  0  0
  6  5  1  0  0  0  0
  6  7  1  0  0  0  0
  7  8  2  0  0  0  0
  7 13  1  0  0  0  0
  8  9  1  0  0  0  0
  8 11  1  0  0  0  0
  9 10  2  0  0  0  0
 11 12  1  0  0  0  0
 12 13  2  0  0  0  0
M  END
>  <CHROM.1>
9.32660923,3.75726348,36.36598136,-0.55920872,-1.25899797,-1.01067541

>  <Name>
1o15_lig

>  <RI>
224

>  <Rbt.Current_Directory>
/home/itssahil/PROJECTS/Mol_Feturizer/New_Systems/rnas/1o15

>  <Rbt.Executable>
rbdock ($Id: //depot/dev/client3/rdock/2013.1/src/exe/rbdock.cxx#4 $)

>  <Rbt.Library>
libRbt.so (2013.1, Build901 2013/11/27)

>  <Rbt.Parameter_File>
/export/apps/rDock/src/rDock_2013.1_src/data/scripts/dock_solv.prm

>  <Rbt.Receptor>
prm/blind_docking_100.prm

>  <SCORE>
-22.055

>  <SCORE.INTER>
-22.0555

>  <SCORE.INTER.CONST>
1

>  <SCORE.INTER.POLAR>
-1.27811

>  <SCORE.INTER.ROT>
0

>  <SCORE.INTER.SOLV>
8.50689

>  <SCORE.INTER.VDW>
-16.8789

>  <SCORE.INTER.norm>
-1.69658

>  <SCORE.INTRA>
0

>  <SCORE.INTRA.DIHEDRAL>
0

>  <SCORE.INTRA.DIHEDRAL.0>
0

>  <SCORE.INTRA.POLAR>
0

>  <SCORE.INTRA.POLAR.0>
0

>  <SCORE.INTRA.REPUL>
0

>  <SCORE.INTRA.REPUL.0>
0

>  <SCORE.INTRA.SOLV>
0

>  <SCORE.INTRA.SOLV.lig_0>
-12.9184

>  <SCORE.INTRA.VDW>
0

>  <SCORE.INTRA.VDW.0>
0

>  <SCORE.INTRA.norm>
0

>  <SCORE.RESTR>
0.000539227

>  <SCORE.RESTR.CAVITY>
0.000539227

>  <SCORE.RESTR.norm>
4.1479e-05

>  <SCORE.SYSTEM>
0

>  <SCORE.SYSTEM.CONST>
0

>  <SCORE.SYSTEM.DIHEDRAL>
0

>  <SCORE.SYSTEM.SOLV>
0

>  <SCORE.SYSTEM.norm>
0

>  <SCORE.heavy>
13

>  <SCORE.norm>
-1.69654

>  <RMSD>
3.401

$$$$
1o15_lig
 OpenBabel11021811403D
libRbt.so/2013.1/901 2013/11/27
 13 14  0  0  0  0  0  0  0  0999 V2000
   11.2676    5.4019   37.5060 C   0  0  0  0  0  0  0  0  0  0  0  0
   10.7305    4.3696   36.7688 N   0  0  0  0  0  0  0  0  0  0  0  0
   11.0530    3.1000   37.1304 C   0  0  0  0  0  0  0  0  0  0  0  0
   11.8088    2.9910   38.0926 O   0  0  0  0  0  0  0  0  0  0  0  0
   10.9492    0.6961   36.8879 C   0  0  0  0  0  0  0  0  0  0  0  0
   10.6027    1.9731   36.5011 N   0  0  0  0  0  0  0  0  0  0  0  0
    9.7766    2.2425   35.4542 C   0  0  0  0  0  0  0  0  0  0  0  0
    9.4583    3.5221   35.1025 C   0  0  0  0  0  0  0  0  0  0  0  0
    9.9163    4.6888   35.7425 C   0  0  0  0  0  0  0  0  0  0  0  0
    9.6696    5.8628   35.4781 O   0  0  0  0  0  0  0  0  0  0  0  0
    8.6109    3.4138   34.0092 N   0  0  0  0  0  0  0  0  0  0  0  0
    8.4744    2.0846   33.7762 C   0  0  0  0  0  0  0  0  0  0  0  0
    9.1485    1.3359   34.6067 N   0  0  0  0  0  0  0  0  0  0  0  0
  1  2  1  0  0  0  0
  2  3  1  0  0  0  0
  2  9  1  0  0  0  0
  3  4  2  0  0  0  0
  3  6  1  0  0  0  0
  6  5  1  0  0  0  0
  6  7  1  0  0  0  0
  7  8  2  0  0  0  0
  7 13  1  0  0  0  0
  8  9  1  0  0  0  0
  8 11  1  0  0  0  0
  9 10  2  0  0  0  0
 11 12  1  0  0  0  0
 12 13  2  0  0  0  0
M  END
>  <CHROM.1>
10.13904277,3.23514535,35.96228271,0.50582395,-0.90807027,0.04455183

>  <Name>
1o15_lig

>  <RI>
0

>  <Rbt.Current_Directory>
/home/itssahil/PROJECTS/Mol_Feturizer/New_Systems/rnas/1o15

>  <Rbt.Executable>
rbdock ($Id: //depot/dev/client3/rdock/2013.1/src/exe/rbdock.cxx#4 $)

>  <Rbt.Library>
libRbt.so (2013.1, Build901 2013/11/27)

>  <Rbt.Parameter_File>
/export/apps/rDock/src/rDock_2013.1_src/data/scripts/dock_solv.prm

>  <Rbt.Receptor>
prm/blind_docking_80.prm

>  <SCORE>
-21.9397

>  <SCORE.INTER>
-21.9397

>  <SCORE.INTER.CONST>
1

>  <SCORE.INTER.POLAR>
-1.62856

>  <SCORE.INTER.ROT>
0

>  <SCORE.INTER.SOLV>
7.42933

>  <SCORE.INTER.VDW>
-15.2744

>  <SCORE.INTER.norm>
-1.68767

>  <SCORE.INTRA>
0

>  <SCORE.INTRA.DIHEDRAL>
0

>  <SCORE.INTRA.DIHEDRAL.0>
0

>  <SCORE.INTRA.POLAR>
0

>  <SCORE.INTRA.POLAR.0>
0

>  <SCORE.INTRA.REPUL>
0

>  <SCORE.INTRA.REPUL.0>
0

>  <SCORE.INTRA.SOLV>
0

>  <SCORE.INTRA.SOLV.lig_0>
-12.9184

>  <SCORE.INTRA.VDW>
0

>  <SCORE.INTRA.VDW.0>
0

>  <SCORE.INTRA.norm>
0

>  <SCORE.RESTR>
0

>  <SCORE.RESTR.CAVITY>
0

>  <SCORE.RESTR.norm>
0

>  <SCORE.SYSTEM>
0

>  <SCORE.SYSTEM.CONST>
0

>  <SCORE.SYSTEM.DIHEDRAL>
0

>  <SCORE.SYSTEM.SOLV>
0

>  <SCORE.SYSTEM.norm>
0

>  <SCORE.heavy>
13

>  <SCORE.norm>
-1.68767

>  <RMSD>
3.405

$$$$
1o15_lig
 OpenBabel11021811403D
libRbt.so/2013.1/901 2013/11/27
 13 14  0  0  0  0  0  0  0  0999 V2000
   11.2231    5.4077   37.4793 C   0  0  0  0  0  0  0  0  0  0  0  0
   10.6871    4.3789   36.7367 N   0  0  0  0  0  0  0  0  0  0  0  0
   10.9760    3.1068   37.1178 C   0  0  0  0  0  0  0  0  0  0  0  0
   11.7033    2.9927   38.1011 O   0  0  0  0  0  0  0  0  0  0  0  0
   10.8340    0.7031   36.8931 C   0  0  0  0  0  0  0  0  0  0  0  0
   10.5219    1.9827   36.4861 N   0  0  0  0  0  0  0  0  0  0  0  0
    9.7295    2.2578   35.4149 C   0  0  0  0  0  0  0  0  0  0  0  0
    9.4447    3.5398   35.0437 C   0  0  0  0  0  0  0  0  0  0  0  0
    9.9069    4.7037   35.6859 C   0  0  0  0  0  0  0  0  0  0  0  0
    9.6893    5.8795   35.4049 O   0  0  0  0  0  0  0  0  0  0  0  0
    8.6253    3.4372   33.9288 N   0  0  0  0  0  0  0  0  0  0  0  0
    8.4704    2.1087   33.7035 C   0  0  0  0  0  0  0  0  0  0  0  0
    9.1078    1.3552   34.5584 N   0  0  0  0  0  0  0  0  0  0  0  0
  1  2  1  0  0  0  0
  2  3  1  0  0  0  0
  2  9  1  0  0  0  0
  3  4  2  0  0  0  0
  3  6  1  0  0  0  0
  6  5  1  0  0  0  0
  6  7  1  0  0  0  0
  7  8  2  0  0  0  0
  7 13  1  0  0  0  0
  8  9  1  0  0  0  0
  8 11  1  0  0  0  0
  9 10  2  0  0  0  0
 11 12  1  0  0  0  0
 12 13  2  0  0  0  0
M  END
>  <CHROM.1>
10.09652992,3.24817966,35.92412788,0.47649570,-0.93567856,0.01237626

>  <Name>
1o15_lig

>  <RI>
0

>  <Rbt.Current_Directory>
/home/itssahil/PROJECTS/Mol_Feturizer/New_Systems/rnas/1o15

>  <Rbt.Executable>
rbdock ($Id: //depot/dev/client3/rdock/2013.1/src/exe/rbdock.cxx#4 $)

>  <Rbt.Library>
libRbt.so (2013.1, Build901 2013/11/27)

>  <Rbt.Parameter_File>
/export/apps/rDock/src/rDock_2013.1_src/data/scripts/dock_solv.prm

>  <Rbt.Receptor>
prm/blind_docking_80.prm

>  <SCORE>
-21.9376

>  <SCORE.INTER>
-21.9387

>  <SCORE.INTER.CONST>
1

>  <SCORE.INTER.POLAR>
-1.58093

>  <SCORE.INTER.ROT>
0

>  <SCORE.INTER.SOLV>
7.61697

>  <SCORE.INTER.VDW>
-15.495

>  <SCORE.INTER.norm>
-1.68759

>  <SCORE.INTRA>
0

>  <SCORE.INTRA.DIHEDRAL>
0

>  <SCORE.INTRA.DIHEDRAL.0>
0

>  <SCORE.INTRA.POLAR>
0

>  <SCORE.INTRA.POLAR.0>
0

>  <SCORE.INTRA.REPUL>
0

>  <SCORE.INTRA.REPUL.0>
0

>  <SCORE.INTRA.SOLV>
0

>  <SCORE.INTRA.SOLV.lig_0>
-12.9184

>  <SCORE.INTRA.VDW>
0

>  <SCORE.INTRA.VDW.0>
0

>  <SCORE.INTRA.norm>
0

>  <SCORE.RESTR>
0.00105352

>  <SCORE.RESTR.CAVITY>
0.00105352

>  <SCORE.RESTR.norm>
8.10397e-05

>  <SCORE.SYSTEM>
0

>  <SCORE.SYSTEM.CONST>
0

>  <SCORE.SYSTEM.DIHEDRAL>
0

>  <SCORE.SYSTEM.SOLV>
0

>  <SCORE.SYSTEM.norm>
0

>  <SCORE.heavy>
13

>  <SCORE.norm>
-1.68751

>  <RMSD>
3.414

$$$$
1o15_lig
 OpenBabel11021811403D
libRbt.so/2013.1/901 2013/11/27
 13 14  0  0  0  0  0  0  0  0999 V2000
   10.1564    5.6573   37.7406 C   0  0  0  0  0  0  0  0  0  0  0  0
    9.7427    4.6075   36.9506 N   0  0  0  0  0  0  0  0  0  0  0  0
    9.5286    3.4086   37.5535 C   0  0  0  0  0  0  0  0  0  0  0  0
    9.7320    3.3723   38.7644 O   0  0  0  0  0  0  0  0  0  0  0  0
    8.9114    1.0703   37.5461 C   0  0  0  0  0  0  0  0  0  0  0  0
    9.1178    2.2752   36.9089 N   0  0  0  0  0  0  0  0  0  0  0  0
    8.9329    2.4600   35.5736 C   0  0  0  0  0  0  0  0  0  0  0  0
    9.1490    3.6698   34.9803 C   0  0  0  0  0  0  0  0  0  0  0  0
    9.5723    4.8422   35.6337 C   0  0  0  0  0  0  0  0  0  0  0  0
    9.7842    5.9563   35.1617 O   0  0  0  0  0  0  0  0  0  0  0  0
    8.8665    3.4863   33.6344 N   0  0  0  0  0  0  0  0  0  0  0  0
    8.5002    2.1867   33.5062 C   0  0  0  0  0  0  0  0  0  0  0  0
    8.5220    1.5237   34.6308 N   0  0  0  0  0  0  0  0  0  0  0  0
  1  2  1  0  0  0  0
  2  3  1  0  0  0  0
  2  9  1  0  0  0  0
  3  4  2  0  0  0  0
  3  6  1  0  0  0  0
  6  5  1  0  0  0  0
  6  7  1  0  0  0  0
  7  8  2  0  0  0  0
  7 13  1  0  0  0  0
  8  9  1  0  0  0  0
  8 11  1  0  0  0  0
  9 10  2  0  0  0  0
 11 12  1  0  0  0  0
 12 13  2  0  0  0  0
M  END
>  <CHROM.1>
9.28548381,3.45467411,36.08486729,-0.43466105,-1.26421713,-0.98622464

>  <Name>
1o15_lig

>  <RI>
224

>  <Rbt.Current_Directory>
/home/itssahil/PROJECTS/Mol_Feturizer/New_Systems/rnas/1o15

>  <Rbt.Executable>
rbdock ($Id: //depot/dev/client3/rdock/2013.1/src/exe/rbdock.cxx#4 $)

>  <Rbt.Library>
libRbt.so (2013.1, Build901 2013/11/27)

>  <Rbt.Parameter_File>
/export/apps/rDock/src/rDock_2013.1_src/data/scripts/dock_solv.prm

>  <Rbt.Receptor>
prm/blind_docking_100.prm

>  <SCORE>
-22.5395

>  <SCORE.INTER>
-22.5482

>  <SCORE.INTER.CONST>
1

>  <SCORE.INTER.POLAR>
-1.18321

>  <SCORE.INTER.ROT>
0

>  <SCORE.INTER.SOLV>
8.33132

>  <SCORE.INTER.VDW>
-17.4652

>  <SCORE.INTER.norm>
-1.73448

>  <SCORE.INTRA>
0

>  <SCORE.INTRA.DIHEDRAL>
0

>  <SCORE.INTRA.DIHEDRAL.0>
0

>  <SCORE.INTRA.POLAR>
0

>  <SCORE.INTRA.POLAR.0>
0

>  <SCORE.INTRA.REPUL>
0

>  <SCORE.INTRA.REPUL.0>
0

>  <SCORE.INTRA.SOLV>
0

>  <SCORE.INTRA.SOLV.lig_0>
-12.9184

>  <SCORE.INTRA.VDW>
0

>  <SCORE.INTRA.VDW.0>
0

>  <SCORE.INTRA.norm>
0

>  <SCORE.RESTR>
0.00866737

>  <SCORE.RESTR.CAVITY>
0.00866737

>  <SCORE.RESTR.norm>
0.000666721

>  <SCORE.SYSTEM>
0

>  <SCORE.SYSTEM.CONST>
0

>  <SCORE.SYSTEM.DIHEDRAL>
0

>  <SCORE.SYSTEM.SOLV>
0

>  <SCORE.SYSTEM.norm>
0

>  <SCORE.heavy>
13

>  <SCORE.norm>
-1.73381

>  <RMSD>
3.467

$$$$
1o15_lig
 OpenBabel11021811403D
libRbt.so/2013.1/901 2013/11/27
 13 14  0  0  0  0  0  0  0  0999 V2000
   10.1850    5.6664   37.7353 C   0  0  0  0  0  0  0  0  0  0  0  0
    9.7600    4.6213   36.9451 N   0  0  0  0  0  0  0  0  0  0  0  0
    9.5142    3.4300   37.5509 C   0  0  0  0  0  0  0  0  0  0  0  0
    9.7017    3.3955   38.7643 O   0  0  0  0  0  0  0  0  0  0  0  0
    8.8498    1.1046   37.5465 C   0  0  0  0  0  0  0  0  0  0  0  0
    9.0885    2.3020   36.9064 N   0  0  0  0  0  0  0  0  0  0  0  0
    8.9240    2.4839   35.5681 C   0  0  0  0  0  0  0  0  0  0  0  0
    9.1719    3.6863   34.9719 C   0  0  0  0  0  0  0  0  0  0  0  0
    9.6107    4.8530   35.6251 C   0  0  0  0  0  0  0  0  0  0  0  0
    9.8510    5.9603   35.1507 O   0  0  0  0  0  0  0  0  0  0  0  0
    8.9025    3.5019   33.6234 N   0  0  0  0  0  0  0  0  0  0  0  0
    8.5115    2.2094   33.4967 C   0  0  0  0  0  0  0  0  0  0  0  0
    8.5059    1.5515   34.6245 N   0  0  0  0  0  0  0  0  0  0  0  0
  1  2  1  0  0  0  0
  2  3  1  0  0  0  0
  2  9  1  0  0  0  0
  3  4  2  0  0  0  0
  3  6  1  0  0  0  0
  6  5  1  0  0  0  0
  6  7  1  0  0  0  0
  7  8  2  0  0  0  0
  7 13  1  0  0  0  0
  8  9  1  0  0  0  0
  8 11  1  0  0  0  0
  9 10  2  0  0  0  0
 11 12  1  0  0  0  0
 12 13  2  0  0  0  0
M  END
>  <CHROM.1>
9.29026081,3.47376748,36.07909824,-0.50375644,-1.25344867,-1.05674103

>  <Name>
1o15_lig

>  <RI>
224

>  <Rbt.Current_Directory>
/home/itssahil/PROJECTS/Mol_Feturizer/New_Systems/rnas/1o15

>  <Rbt.Executable>
rbdock ($Id: //depot/dev/client3/rdock/2013.1/src/exe/rbdock.cxx#4 $)

>  <Rbt.Library>
libRbt.so (2013.1, Build901 2013/11/27)

>  <Rbt.Parameter_File>
/export/apps/rDock/src/rDock_2013.1_src/data/scripts/dock_solv.prm

>  <Rbt.Receptor>
prm/blind_docking_100.prm

>  <SCORE>
-22.68

>  <SCORE.INTER>
-22.7245

>  <SCORE.INTER.CONST>
1

>  <SCORE.INTER.POLAR>
-1.20656

>  <SCORE.INTER.ROT>
0

>  <SCORE.INTER.SOLV>
8.48219

>  <SCORE.INTER.VDW>
-17.5552

>  <SCORE.INTER.norm>
-1.74804

>  <SCORE.INTRA>
0

>  <SCORE.INTRA.DIHEDRAL>
0

>  <SCORE.INTRA.DIHEDRAL.0>
0

>  <SCORE.INTRA.POLAR>
0

>  <SCORE.INTRA.POLAR.0>
0

>  <SCORE.INTRA.REPUL>
0

>  <SCORE.INTRA.REPUL.0>
0

>  <SCORE.INTRA.SOLV>
0

>  <SCORE.INTRA.SOLV.lig_0>
-12.9184

>  <SCORE.INTRA.VDW>
0

>  <SCORE.INTRA.VDW.0>
0

>  <SCORE.INTRA.norm>
0

>  <SCORE.RESTR>
0.0444666

>  <SCORE.RESTR.CAVITY>
0.0444666

>  <SCORE.RESTR.norm>
0.00342051

>  <SCORE.SYSTEM>
0

>  <SCORE.SYSTEM.CONST>
0

>  <SCORE.SYSTEM.DIHEDRAL>
0

>  <SCORE.SYSTEM.SOLV>
0

>  <SCORE.SYSTEM.norm>
0

>  <SCORE.heavy>
13

>  <SCORE.norm>
-1.74462

>  <RMSD>
3.475

$$$$
1o15_lig
 OpenBabel11021811403D
libRbt.so/2013.1/901 2013/11/27
 13 14  0  0  0  0  0  0  0  0999 V2000
   10.4643    4.8752   39.1124 C   0  0  0  0  0  0  0  0  0  0  0  0
    9.9582    4.2137   38.0153 N   0  0  0  0  0  0  0  0  0  0  0  0
    9.8697    4.9024   36.8471 C   0  0  0  0  0  0  0  0  0  0  0  0
   10.2509    6.0696   36.8813 O   0  0  0  0  0  0  0  0  0  0  0  0
    9.3095    5.1115   34.5038 C   0  0  0  0  0  0  0  0  0  0  0  0
    9.3909    4.3880   35.6744 N   0  0  0  0  0  0  0  0  0  0  0  0
    9.0042    3.0880   35.7823 C   0  0  0  0  0  0  0  0  0  0  0  0
    9.1004    2.4066   36.9608 C   0  0  0  0  0  0  0  0  0  0  0  0
    9.5908    2.9259   38.1734 C   0  0  0  0  0  0  0  0  0  0  0  0
    9.7035    2.3699   39.2628 O   0  0  0  0  0  0  0  0  0  0  0  0
    8.6214    1.1309   36.6997 N   0  0  0  0  0  0  0  0  0  0  0  0
    8.2712    1.1273   35.3894 C   0  0  0  0  0  0  0  0  0  0  0  0
    8.4761    2.2690   34.7899 N   0  0  0  0  0  0  0  0  0  0  0  0
  1  2  1  0  0  0  0
  2  3  1  0  0  0  0
  2  9  1  0  0  0  0
  3  4  2  0  0  0  0
  3  6  1  0  0  0  0
  6  5  1  0  0  0  0
  6  7  1  0  0  0  0
  7  8  2  0  0  0  0
  7 13  1  0  0  0  0
  8  9  1  0  0  0  0
  8 11  1  0  0  0  0
  9 10  2  0  0  0  0
 11 12  1  0  0  0  0
 12 13  2  0  0  0  0
M  END
>  <CHROM.1>
9.40554432,3.48768985,36.80906962,-0.06815301,1.17592217,2.26613181

>  <Name>
1o15_lig

>  <RI>
0

>  <Rbt.Current_Directory>
/home/itssahil/PROJECTS/Mol_Feturizer/New_Systems/rnas/1o15

>  <Rbt.Executable>
rbdock ($Id: //depot/dev/client3/rdock/2013.1/src/exe/rbdock.cxx#4 $)

>  <Rbt.Library>
libRbt.so (2013.1, Build901 2013/11/27)

>  <Rbt.Parameter_File>
/export/apps/rDock/src/rDock_2013.1_src/data/scripts/dock_solv.prm

>  <Rbt.Receptor>
prm/blind_docking_60.prm

>  <SCORE>
-12.3254

>  <SCORE.INTER>
-12.704

>  <SCORE.INTER.CONST>
1

>  <SCORE.INTER.POLAR>
-0.734681

>  <SCORE.INTER.ROT>
0

>  <SCORE.INTER.SOLV>
5.23991

>  <SCORE.INTER.VDW>
-11.367

>  <SCORE.INTER.norm>
-0.977231

>  <SCORE.INTRA>
0

>  <SCORE.INTRA.DIHEDRAL>
0

>  <SCORE.INTRA.DIHEDRAL.0>
0

>  <SCORE.INTRA.POLAR>
0

>  <SCORE.INTRA.POLAR.0>
0

>  <SCORE.INTRA.REPUL>
0

>  <SCORE.INTRA.REPUL.0>
0

>  <SCORE.INTRA.SOLV>
0

>  <SCORE.INTRA.SOLV.lig_0>
-12.9184

>  <SCORE.INTRA.VDW>
0

>  <SCORE.INTRA.VDW.0>
0

>  <SCORE.INTRA.norm>
0

>  <SCORE.RESTR>
0.378576

>  <SCORE.RESTR.CAVITY>
0.378576

>  <SCORE.RESTR.norm>
0.0291213

>  <SCORE.SYSTEM>
0

>  <SCORE.SYSTEM.CONST>
0

>  <SCORE.SYSTEM.DIHEDRAL>
0

>  <SCORE.SYSTEM.SOLV>
0

>  <SCORE.SYSTEM.norm>
0

>  <SCORE.heavy>
13

>  <SCORE.norm>
-0.94811

>  <RMSD>
3.479

$$$$
1o15_lig
 OpenBabel11021811403D
libRbt.so/2013.1/901 2013/11/27
 13 14  0  0  0  0  0  0  0  0999 V2000
   10.0951    5.6996   37.7569 C   0  0  0  0  0  0  0  0  0  0  0  0
    9.6734    4.6456   36.9767 N   0  0  0  0  0  0  0  0  0  0  0  0
    9.4073    3.4663   37.5974 C   0  0  0  0  0  0  0  0  0  0  0  0
    9.5752    3.4498   38.8141 O   0  0  0  0  0  0  0  0  0  0  0  0
    8.7225    1.1471   37.6194 C   0  0  0  0  0  0  0  0  0  0  0  0
    8.9819    2.3319   36.9642 N   0  0  0  0  0  0  0  0  0  0  0  0
    8.8403    2.4937   35.6207 C   0  0  0  0  0  0  0  0  0  0  0  0
    9.1084    3.6841   35.0095 C   0  0  0  0  0  0  0  0  0  0  0  0
    9.5471    4.8574   35.6510 C   0  0  0  0  0  0  0  0  0  0  0  0
    9.8048    5.9548   35.1629 O   0  0  0  0  0  0  0  0  0  0  0  0
    8.8588    3.4805   33.6600 N   0  0  0  0  0  0  0  0  0  0  0  0
    8.4584    2.1895   33.5476 C   0  0  0  0  0  0  0  0  0  0  0  0
    8.4290    1.5499   34.6855 N   0  0  0  0  0  0  0  0  0  0  0  0
  1  2  1  0  0  0  0
  2  3  1  0  0  0  0
  2  9  1  0  0  0  0
  3  4  2  0  0  0  0
  3  6  1  0  0  0  0
  6  5  1  0  0  0  0
  6  7  1  0  0  0  0
  7  8  2  0  0  0  0
  7 13  1  0  0  0  0
  8  9  1  0  0  0  0
  8 11  1  0  0  0  0
  9 10  2  0  0  0  0
 11 12  1  0  0  0  0
 12 13  2  0  0  0  0
M  END
>  <CHROM.1>
9.20722428,3.48844632,36.12167581,-0.56208591,-1.25300240,-1.12814935

>  <Name>
1o15_lig

>  <RI>
0

>  <Rbt.Current_Directory>
/home/itssahil/PROJECTS/Mol_Feturizer/New_Systems/rnas/1o15

>  <Rbt.Executable>
rbdock ($Id: //depot/dev/client3/rdock/2013.1/src/exe/rbdock.cxx#4 $)

>  <Rbt.Library>
libRbt.so (2013.1, Build901 2013/11/27)

>  <Rbt.Parameter_File>
/export/apps/rDock/src/rDock_2013.1_src/data/scripts/dock_solv.prm

>  <Rbt.Receptor>
prm/pocket_docking_5.prm

>  <SCORE>
-23.0579

>  <SCORE.INTER>
-23.0579

>  <SCORE.INTER.CONST>
1

>  <SCORE.INTER.POLAR>
-1.21148

>  <SCORE.INTER.ROT>
0

>  <SCORE.INTER.SOLV>
8.55864

>  <SCORE.INTER.VDW>
-17.7866

>  <SCORE.INTER.norm>
-1.77369

>  <SCORE.INTRA>
0

>  <SCORE.INTRA.DIHEDRAL>
0

>  <SCORE.INTRA.DIHEDRAL.0>
0

>  <SCORE.INTRA.POLAR>
0

>  <SCORE.INTRA.POLAR.0>
0

>  <SCORE.INTRA.REPUL>
0

>  <SCORE.INTRA.REPUL.0>
0

>  <SCORE.INTRA.SOLV>
0

>  <SCORE.INTRA.SOLV.lig_0>
-12.9184

>  <SCORE.INTRA.VDW>
0

>  <SCORE.INTRA.VDW.0>
0

>  <SCORE.INTRA.norm>
0

>  <SCORE.RESTR>
0

>  <SCORE.RESTR.CAVITY>
0

>  <SCORE.RESTR.norm>
0

>  <SCORE.SYSTEM>
0

>  <SCORE.SYSTEM.CONST>
0

>  <SCORE.SYSTEM.DIHEDRAL>
0

>  <SCORE.SYSTEM.SOLV>
0

>  <SCORE.SYSTEM.norm>
0

>  <SCORE.heavy>
13

>  <SCORE.norm>
-1.77369

>  <RMSD>
3.480

$$$$
1o15_lig
 OpenBabel11021811403D
libRbt.so/2013.1/901 2013/11/27
 13 14  0  0  0  0  0  0  0  0999 V2000
   10.1783    5.6700   37.7129 C   0  0  0  0  0  0  0  0  0  0  0  0
    9.7529    4.6267   36.9205 N   0  0  0  0  0  0  0  0  0  0  0  0
    9.5059    3.4344   37.5239 C   0  0  0  0  0  0  0  0  0  0  0  0
    9.6928    3.3975   38.7373 O   0  0  0  0  0  0  0  0  0  0  0  0
    8.8399    1.1096   37.5148 C   0  0  0  0  0  0  0  0  0  0  0  0
    9.0797    2.3080   36.8770 N   0  0  0  0  0  0  0  0  0  0  0  0
    8.9159    2.4926   35.5390 C   0  0  0  0  0  0  0  0  0  0  0  0
    9.1650    3.6959   34.9453 C   0  0  0  0  0  0  0  0  0  0  0  0
    9.6043    4.8611   35.6009 C   0  0  0  0  0  0  0  0  0  0  0  0
    9.8456    5.9691   35.1287 O   0  0  0  0  0  0  0  0  0  0  0  0
    8.8960    3.5143   33.5963 N   0  0  0  0  0  0  0  0  0  0  0  0
    8.5042    2.2223   33.4669 C   0  0  0  0  0  0  0  0  0  0  0  0
    8.4976    1.5623   34.5935 N   0  0  0  0  0  0  0  0  0  0  0  0
  1  2  1  0  0  0  0
  2  3  1  0  0  0  0
  2  9  1  0  0  0  0
  3  4  2  0  0  0  0
  3  6  1  0  0  0  0
  6  5  1  0  0  0  0
  6  7  1  0  0  0  0
  7  8  2  0  0  0  0
  7 13  1  0  0  0  0
  8  9  1  0  0  0  0
  8 11  1  0  0  0  0
  9 10  2  0  0  0  0
 11 12  1  0  0  0  0
 12 13  2  0  0  0  0
M  END
>  <CHROM.1>
9.28266620,3.48117318,36.05208002,-0.50614875,-1.25304741,-1.05710208

>  <Name>
1o15_lig

>  <RI>
224

>  <Rbt.Current_Directory>
/home/itssahil/PROJECTS/Mol_Feturizer/New_Systems/rnas/1o15

>  <Rbt.Executable>
rbdock ($Id: //depot/dev/client3/rdock/2013.1/src/exe/rbdock.cxx#4 $)

>  <Rbt.Library>
libRbt.so (2013.1, Build901 2013/11/27)

>  <Rbt.Parameter_File>
/export/apps/rDock/src/rDock_2013.1_src/data/scripts/dock_solv.prm

>  <Rbt.Receptor>
prm/blind_docking_100.prm

>  <SCORE>
-22.6056

>  <SCORE.INTER>
-22.6385

>  <SCORE.INTER.CONST>
1

>  <SCORE.INTER.POLAR>
-1.19708

>  <SCORE.INTER.ROT>
0

>  <SCORE.INTER.SOLV>
8.54874

>  <SCORE.INTER.VDW>
-17.5516

>  <SCORE.INTER.norm>
-1.74142

>  <SCORE.INTRA>
0

>  <SCORE.INTRA.DIHEDRAL>
0

>  <SCORE.INTRA.DIHEDRAL.0>
0

>  <SCORE.INTRA.POLAR>
0

>  <SCORE.INTRA.POLAR.0>
0

>  <SCORE.INTRA.REPUL>
0

>  <SCORE.INTRA.REPUL.0>
0

>  <SCORE.INTRA.SOLV>
0

>  <SCORE.INTRA.SOLV.lig_0>
-12.9184

>  <SCORE.INTRA.VDW>
0

>  <SCORE.INTRA.VDW.0>
0

>  <SCORE.INTRA.norm>
0

>  <SCORE.RESTR>
0.0328674

>  <SCORE.RESTR.CAVITY>
0.0328674

>  <SCORE.RESTR.norm>
0.00252826

>  <SCORE.SYSTEM>
0

>  <SCORE.SYSTEM.CONST>
0

>  <SCORE.SYSTEM.DIHEDRAL>
0

>  <SCORE.SYSTEM.SOLV>
0

>  <SCORE.SYSTEM.norm>
0

>  <SCORE.heavy>
13

>  <SCORE.norm>
-1.73889

>  <RMSD>
3.485

$$$$
1o15_lig
 OpenBabel11021811403D
libRbt.so/2013.1/901 2013/11/27
 13 14  0  0  0  0  0  0  0  0999 V2000
   10.0714    5.6587   37.7898 C   0  0  0  0  0  0  0  0  0  0  0  0
    9.6454    4.6186   36.9934 N   0  0  0  0  0  0  0  0  0  0  0  0
    9.3529    3.4376   37.5986 C   0  0  0  0  0  0  0  0  0  0  0  0
    9.5029    3.4069   38.8174 O   0  0  0  0  0  0  0  0  0  0  0  0
    8.6334    1.1288   37.5882 C   0  0  0  0  0  0  0  0  0  0  0  0
    8.9199    2.3158   36.9483 N   0  0  0  0  0  0  0  0  0  0  0  0
    8.8002    2.4925   35.6046 C   0  0  0  0  0  0  0  0  0  0  0  0
    9.0947    3.6846   35.0090 C   0  0  0  0  0  0  0  0  0  0  0  0
    9.5415    4.8449   35.6681 C   0  0  0  0  0  0  0  0  0  0  0  0
    9.8224    5.9430   35.1945 O   0  0  0  0  0  0  0  0  0  0  0  0
    8.8616    3.4976   33.6541 N   0  0  0  0  0  0  0  0  0  0  0  0
    8.4438    2.2139   33.5234 C   0  0  0  0  0  0  0  0  0  0  0  0
    8.3884    1.5640   34.6545 N   0  0  0  0  0  0  0  0  0  0  0  0
  1  2  1  0  0  0  0
  2  3  1  0  0  0  0
  2  9  1  0  0  0  0
  3  4  2  0  0  0  0
  3  6  1  0  0  0  0
  6  5  1  0  0  0  0
  6  7  1  0  0  0  0
  7  8  2  0  0  0  0
  7 13  1  0  0  0  0
  8  9  1  0  0  0  0
  8 11  1  0  0  0  0
  9 10  2  0  0  0  0
 11 12  1  0  0  0  0
 12 13  2  0  0  0  0
M  END
>  <CHROM.1>
9.17450618,3.47679409,36.12049467,-0.62286859,-1.24520518,-1.17615267

>  <Name>
1o15_lig

>  <RI>
0

>  <Rbt.Current_Directory>
/home/itssahil/PROJECTS/Mol_Feturizer/New_Systems/rnas/1o15

>  <Rbt.Executable>
rbdock ($Id: //depot/dev/client3/rdock/2013.1/src/exe/rbdock.cxx#4 $)

>  <Rbt.Library>
libRbt.so (2013.1, Build901 2013/11/27)

>  <Rbt.Parameter_File>
/export/apps/rDock/src/rDock_2013.1_src/data/scripts/dock_solv.prm

>  <Rbt.Receptor>
prm/pocket_docking_6.prm

>  <SCORE>
-23.1545

>  <SCORE.INTER>
-23.1545

>  <SCORE.INTER.CONST>
1

>  <SCORE.INTER.POLAR>
-1.21045

>  <SCORE.INTER.ROT>
0

>  <SCORE.INTER.SOLV>
8.64551

>  <SCORE.INTER.VDW>
-17.8834

>  <SCORE.INTER.norm>
-1.78112

>  <SCORE.INTRA>
0

>  <SCORE.INTRA.DIHEDRAL>
0

>  <SCORE.INTRA.DIHEDRAL.0>
0

>  <SCORE.INTRA.POLAR>
0

>  <SCORE.INTRA.POLAR.0>
0

>  <SCORE.INTRA.REPUL>
0

>  <SCORE.INTRA.REPUL.0>
0

>  <SCORE.INTRA.SOLV>
0

>  <SCORE.INTRA.SOLV.lig_0>
-12.9184

>  <SCORE.INTRA.VDW>
0

>  <SCORE.INTRA.VDW.0>
0

>  <SCORE.INTRA.norm>
0

>  <SCORE.RESTR>
0

>  <SCORE.RESTR.CAVITY>
0

>  <SCORE.RESTR.norm>
0

>  <SCORE.SYSTEM>
0

>  <SCORE.SYSTEM.CONST>
0

>  <SCORE.SYSTEM.DIHEDRAL>
0

>  <SCORE.SYSTEM.SOLV>
0

>  <SCORE.SYSTEM.norm>
0

>  <SCORE.heavy>
13

>  <SCORE.norm>
-1.78112

>  <RMSD>
3.485

$$$$
1o15_lig
 OpenBabel11021811403D
libRbt.so/2013.1/901 2013/11/27
 13 14  0  0  0  0  0  0  0  0999 V2000
   10.0608    5.6546   37.7902 C   0  0  0  0  0  0  0  0  0  0  0  0
    9.6379    4.6147   36.9920 N   0  0  0  0  0  0  0  0  0  0  0  0
    9.3491    3.4316   37.5951 C   0  0  0  0  0  0  0  0  0  0  0  0
    9.4995    3.3992   38.8138 O   0  0  0  0  0  0  0  0  0  0  0  0
    8.6368    1.1206   37.5807 C   0  0  0  0  0  0  0  0  0  0  0  0
    8.9195    2.3096   36.9429 N   0  0  0  0  0  0  0  0  0  0  0  0
    8.7990    2.4885   35.5996 C   0  0  0  0  0  0  0  0  0  0  0  0
    9.0897    3.6825   35.0060 C   0  0  0  0  0  0  0  0  0  0  0  0
    9.5330    4.8430   35.6672 C   0  0  0  0  0  0  0  0  0  0  0  0
    9.8105    5.9427   35.1955 O   0  0  0  0  0  0  0  0  0  0  0  0
    8.8570    3.4972   33.6508 N   0  0  0  0  0  0  0  0  0  0  0  0
    8.4431    2.2125   33.5179 C   0  0  0  0  0  0  0  0  0  0  0  0
    8.3899    1.5603   34.6478 N   0  0  0  0  0  0  0  0  0  0  0  0
  1  2  1  0  0  0  0
  2  3  1  0  0  0  0
  2  9  1  0  0  0  0
  3  4  2  0  0  0  0
  3  6  1  0  0  0  0
  6  5  1  0  0  0  0
  6  7  1  0  0  0  0
  7  8  2  0  0  0  0
  7 13  1  0  0  0  0
  8  9  1  0  0  0  0
  8 11  1  0  0  0  0
  9 10  2  0  0  0  0
 11 12  1  0  0  0  0
 12 13  2  0  0  0  0
M  END
>  <CHROM.1>
9.17037174,3.47293408,36.11714227,-0.61858074,-1.24798943,-1.17029521

>  <Name>
1o15_lig

>  <RI>
0

>  <Rbt.Current_Directory>
/home/itssahil/PROJECTS/Mol_Feturizer/New_Systems/rnas/1o15

>  <Rbt.Executable>
rbdock ($Id: //depot/dev/client3/rdock/2013.1/src/exe/rbdock.cxx#4 $)

>  <Rbt.Library>
libRbt.so (2013.1, Build901 2013/11/27)

>  <Rbt.Parameter_File>
/export/apps/rDock/src/rDock_2013.1_src/data/scripts/dock_solv.prm

>  <Rbt.Receptor>
prm/pocket_docking_7.prm

>  <SCORE>
-23.1428

>  <SCORE.INTER>
-23.1428

>  <SCORE.INTER.CONST>
1

>  <SCORE.INTER.POLAR>
-1.20637

>  <SCORE.INTER.ROT>
0

>  <SCORE.INTER.SOLV>
8.63964

>  <SCORE.INTER.VDW>
-17.8871

>  <SCORE.INTER.norm>
-1.78021

>  <SCORE.INTRA>
0

>  <SCORE.INTRA.DIHEDRAL>
0

>  <SCORE.INTRA.DIHEDRAL.0>
0

>  <SCORE.INTRA.POLAR>
0

>  <SCORE.INTRA.POLAR.0>
0

>  <SCORE.INTRA.REPUL>
0

>  <SCORE.INTRA.REPUL.0>
0

>  <SCORE.INTRA.SOLV>
0

>  <SCORE.INTRA.SOLV.lig_0>
-12.9184

>  <SCORE.INTRA.VDW>
0

>  <SCORE.INTRA.VDW.0>
0

>  <SCORE.INTRA.norm>
0

>  <SCORE.RESTR>
0

>  <SCORE.RESTR.CAVITY>
0

>  <SCORE.RESTR.norm>
0

>  <SCORE.SYSTEM>
0

>  <SCORE.SYSTEM.CONST>
0

>  <SCORE.SYSTEM.DIHEDRAL>
0

>  <SCORE.SYSTEM.SOLV>
0

>  <SCORE.SYSTEM.norm>
0

>  <SCORE.heavy>
13

>  <SCORE.norm>
-1.78021

>  <RMSD>
3.485

$$$$
1o15_lig
 OpenBabel11021811403D
libRbt.so/2013.1/901 2013/11/27
 13 14  0  0  0  0  0  0  0  0999 V2000
   10.0452    5.6139   37.8060 C   0  0  0  0  0  0  0  0  0  0  0  0
    9.6273    4.5829   36.9938 N   0  0  0  0  0  0  0  0  0  0  0  0
    9.3428    3.3909   37.5810 C   0  0  0  0  0  0  0  0  0  0  0  0
    9.4922    3.3430   38.7993 O   0  0  0  0  0  0  0  0  0  0  0  0
    8.6399    1.0774   37.5354 C   0  0  0  0  0  0  0  0  0  0  0  0
    8.9184    2.2758   36.9137 N   0  0  0  0  0  0  0  0  0  0  0  0
    8.7983    2.4718   35.5727 C   0  0  0  0  0  0  0  0  0  0  0  0
    9.0847    3.6747   34.9952 C   0  0  0  0  0  0  0  0  0  0  0  0
    9.5227    4.8283   35.6719 C   0  0  0  0  0  0  0  0  0  0  0  0
    9.7961    5.9352   35.2150 O   0  0  0  0  0  0  0  0  0  0  0  0
    8.8539    3.5064   33.6374 N   0  0  0  0  0  0  0  0  0  0  0  0
    8.4454    2.2218   33.4872 C   0  0  0  0  0  0  0  0  0  0  0  0
    8.3939    1.5547   34.6084 N   0  0  0  0  0  0  0  0  0  0  0  0
  1  2  1  0  0  0  0
  2  3  1  0  0  0  0
  2  9  1  0  0  0  0
  3  4  2  0  0  0  0
  3  6  1  0  0  0  0
  6  5  1  0  0  0  0
  6  7  1  0  0  0  0
  7  8  2  0  0  0  0
  7 13  1  0  0  0  0
  8  9  1  0  0  0  0
  8 11  1  0  0  0  0
  9 10  2  0  0  0  0
 11 12  1  0  0  0  0
 12 13  2  0  0  0  0
M  END
>  <CHROM.1>
9.16521621,3.45091996,36.10349796,-0.61614451,-1.25210331,-1.15481274

>  <Name>
1o15_lig

>  <RI>
0

>  <Rbt.Current_Directory>
/home/itssahil/PROJECTS/Mol_Feturizer/New_Systems/rnas/1o15

>  <Rbt.Executable>
rbdock ($Id: //depot/dev/client3/rdock/2013.1/src/exe/rbdock.cxx#4 $)

>  <Rbt.Library>
libRbt.so (2013.1, Build901 2013/11/27)

>  <Rbt.Parameter_File>
/export/apps/rDock/src/rDock_2013.1_src/data/scripts/dock_solv.prm

>  <Rbt.Receptor>
prm/pocket_docking_6.prm

>  <SCORE>
-23.0961

>  <SCORE.INTER>
-23.0961

>  <SCORE.INTER.CONST>
1

>  <SCORE.INTER.POLAR>
-1.19304

>  <SCORE.INTER.ROT>
0

>  <SCORE.INTER.SOLV>
8.61457

>  <SCORE.INTER.VDW>
-17.8921

>  <SCORE.INTER.norm>
-1.77662

>  <SCORE.INTRA>
0

>  <SCORE.INTRA.DIHEDRAL>
0

>  <SCORE.INTRA.DIHEDRAL.0>
0

>  <SCORE.INTRA.POLAR>
0

>  <SCORE.INTRA.POLAR.0>
0

>  <SCORE.INTRA.REPUL>
0

>  <SCORE.INTRA.REPUL.0>
0

>  <SCORE.INTRA.SOLV>
0

>  <SCORE.INTRA.SOLV.lig_0>
-12.9184

>  <SCORE.INTRA.VDW>
0

>  <SCORE.INTRA.VDW.0>
0

>  <SCORE.INTRA.norm>
0

>  <SCORE.RESTR>
0

>  <SCORE.RESTR.CAVITY>
0

>  <SCORE.RESTR.norm>
0

>  <SCORE.SYSTEM>
0

>  <SCORE.SYSTEM.CONST>
0

>  <SCORE.SYSTEM.DIHEDRAL>
0

>  <SCORE.SYSTEM.SOLV>
0

>  <SCORE.SYSTEM.norm>
0

>  <SCORE.heavy>
13

>  <SCORE.norm>
-1.77662

>  <RMSD>
3.486

$$$$
1o15_lig
 OpenBabel11021811403D
libRbt.so/2013.1/901 2013/11/27
 13 14  0  0  0  0  0  0  0  0999 V2000
   10.0695    5.6593   37.7877 C   0  0  0  0  0  0  0  0  0  0  0  0
    9.6441    4.6198   36.9904 N   0  0  0  0  0  0  0  0  0  0  0  0
    9.3488    3.4391   37.5951 C   0  0  0  0  0  0  0  0  0  0  0  0
    9.4960    3.4083   38.8142 O   0  0  0  0  0  0  0  0  0  0  0  0
    8.6264    1.1312   37.5832 C   0  0  0  0  0  0  0  0  0  0  0  0
    8.9159    2.3178   36.9439 N   0  0  0  0  0  0  0  0  0  0  0  0
    8.7994    2.4946   35.5999 C   0  0  0  0  0  0  0  0  0  0  0  0
    9.0968    3.6862   35.0048 C   0  0  0  0  0  0  0  0  0  0  0  0
    9.5435    4.8461   35.6649 C   0  0  0  0  0  0  0  0  0  0  0  0
    9.8269    5.9437   35.1918 O   0  0  0  0  0  0  0  0  0  0  0  0
    8.8666    3.4994   33.6494 N   0  0  0  0  0  0  0  0  0  0  0  0
    8.4475    2.2162   33.5179 C   0  0  0  0  0  0  0  0  0  0  0  0
    8.3887    1.5664   34.6489 N   0  0  0  0  0  0  0  0  0  0  0  0
  1  2  1  0  0  0  0
  2  3  1  0  0  0  0
  2  9  1  0  0  0  0
  3  4  2  0  0  0  0
  3  6  1  0  0  0  0
  6  5  1  0  0  0  0
  6  7  1  0  0  0  0
  7  8  2  0  0  0  0
  7 13  1  0  0  0  0
  8  9  1  0  0  0  0
  8 11  1  0  0  0  0
  9 10  2  0  0  0  0
 11 12  1  0  0  0  0
 12 13  2  0  0  0  0
M  END
>  <CHROM.1>
9.17379469,3.47841712,36.11655013,-0.63093581,-1.24494132,-1.18388365

>  <Name>
1o15_lig

>  <RI>
0

>  <Rbt.Current_Directory>
/home/itssahil/PROJECTS/Mol_Feturizer/New_Systems/rnas/1o15

>  <Rbt.Executable>
rbdock ($Id: //depot/dev/client3/rdock/2013.1/src/exe/rbdock.cxx#4 $)

>  <Rbt.Library>
libRbt.so (2013.1, Build901 2013/11/27)

>  <Rbt.Parameter_File>
/export/apps/rDock/src/rDock_2013.1_src/data/scripts/dock_solv.prm

>  <Rbt.Receptor>
prm/blind_docking_80.prm

>  <SCORE>
-23.1612

>  <SCORE.INTER>
-23.1612

>  <SCORE.INTER.CONST>
1

>  <SCORE.INTER.POLAR>
-1.21314

>  <SCORE.INTER.ROT>
0

>  <SCORE.INTER.SOLV>
8.67114

>  <SCORE.INTER.VDW>
-17.8874

>  <SCORE.INTER.norm>
-1.78163

>  <SCORE.INTRA>
0

>  <SCORE.INTRA.DIHEDRAL>
0

>  <SCORE.INTRA.DIHEDRAL.0>
0

>  <SCORE.INTRA.POLAR>
0

>  <SCORE.INTRA.POLAR.0>
0

>  <SCORE.INTRA.REPUL>
0

>  <SCORE.INTRA.REPUL.0>
0

>  <SCORE.INTRA.SOLV>
0

>  <SCORE.INTRA.SOLV.lig_0>
-12.9184

>  <SCORE.INTRA.VDW>
0

>  <SCORE.INTRA.VDW.0>
0

>  <SCORE.INTRA.norm>
0

>  <SCORE.RESTR>
0

>  <SCORE.RESTR.CAVITY>
0

>  <SCORE.RESTR.norm>
0

>  <SCORE.SYSTEM>
0

>  <SCORE.SYSTEM.CONST>
0

>  <SCORE.SYSTEM.DIHEDRAL>
0

>  <SCORE.SYSTEM.SOLV>
0

>  <SCORE.SYSTEM.norm>
0

>  <SCORE.heavy>
13

>  <SCORE.norm>
-1.78163

>  <RMSD>
3.487

$$$$
1o15_lig
 OpenBabel11021811403D
libRbt.so/2013.1/901 2013/11/27
 13 14  0  0  0  0  0  0  0  0999 V2000
   10.0797    5.6611   37.7855 C   0  0  0  0  0  0  0  0  0  0  0  0
    9.6520    4.6223   36.9883 N   0  0  0  0  0  0  0  0  0  0  0  0
    9.3531    3.4427   37.5932 C   0  0  0  0  0  0  0  0  0  0  0  0
    9.4993    3.4121   38.8125 O   0  0  0  0  0  0  0  0  0  0  0  0
    8.6245    1.1368   37.5818 C   0  0  0  0  0  0  0  0  0  0  0  0
    8.9176    2.3223   36.9422 N   0  0  0  0  0  0  0  0  0  0  0  0
    8.8026    2.4988   35.5981 C   0  0  0  0  0  0  0  0  0  0  0  0
    9.1036    3.6894   35.0027 C   0  0  0  0  0  0  0  0  0  0  0  0
    9.5530    4.8483   35.6626 C   0  0  0  0  0  0  0  0  0  0  0  0
    9.8397    5.9450   35.1893 O   0  0  0  0  0  0  0  0  0  0  0  0
    8.8739    3.5027   33.6472 N   0  0  0  0  0  0  0  0  0  0  0  0
    8.4513    2.2205   33.5159 C   0  0  0  0  0  0  0  0  0  0  0  0
    8.3900    1.5714   34.6472 N   0  0  0  0  0  0  0  0  0  0  0  0
  1  2  1  0  0  0  0
  2  3  1  0  0  0  0
  2  9  1  0  0  0  0
  3  4  2  0  0  0  0
  3  6  1  0  0  0  0
  6  5  1  0  0  0  0
  6  7  1  0  0  0  0
  7  8  2  0  0  0  0
  7 13  1  0  0  0  0
  8  9  1  0  0  0  0
  8 11  1  0  0  0  0
  9 10  2  0  0  0  0
 11 12  1  0  0  0  0
 12 13  2  0  0  0  0
M  END
>  <CHROM.1>
9.17926499,3.48187411,36.11457639,-0.63617183,-1.24268064,-1.18926471

>  <Name>
1o15_lig

>  <RI>
0

>  <Rbt.Current_Directory>
/home/itssahil/PROJECTS/Mol_Feturizer/New_Systems/rnas/1o15

>  <Rbt.Executable>
rbdock ($Id: //depot/dev/client3/rdock/2013.1/src/exe/rbdock.cxx#4 $)

>  <Rbt.Library>
libRbt.so (2013.1, Build901 2013/11/27)

>  <Rbt.Parameter_File>
/export/apps/rDock/src/rDock_2013.1_src/data/scripts/dock_solv.prm

>  <Rbt.Receptor>
prm/pocket_docking_7.prm

>  <SCORE>
-23.1721

>  <SCORE.INTER>
-23.1721

>  <SCORE.INTER.CONST>
1

>  <SCORE.INTER.POLAR>
-1.21699

>  <SCORE.INTER.ROT>
0

>  <SCORE.INTER.SOLV>
8.68739

>  <SCORE.INTER.VDW>
-17.8872

>  <SCORE.INTER.norm>
-1.78247

>  <SCORE.INTRA>
0

>  <SCORE.INTRA.DIHEDRAL>
0

>  <SCORE.INTRA.DIHEDRAL.0>
0

>  <SCORE.INTRA.POLAR>
0

>  <SCORE.INTRA.POLAR.0>
0

>  <SCORE.INTRA.REPUL>
0

>  <SCORE.INTRA.REPUL.0>
0

>  <SCORE.INTRA.SOLV>
0

>  <SCORE.INTRA.SOLV.lig_0>
-12.9184

>  <SCORE.INTRA.VDW>
0

>  <SCORE.INTRA.VDW.0>
0

>  <SCORE.INTRA.norm>
0

>  <SCORE.RESTR>
0

>  <SCORE.RESTR.CAVITY>
0

>  <SCORE.RESTR.norm>
0

>  <SCORE.SYSTEM>
0

>  <SCORE.SYSTEM.CONST>
0

>  <SCORE.SYSTEM.DIHEDRAL>
0

>  <SCORE.SYSTEM.SOLV>
0

>  <SCORE.SYSTEM.norm>
0

>  <SCORE.heavy>
13

>  <SCORE.norm>
-1.78247

>  <RMSD>
3.487

$$$$
1o15_lig
 OpenBabel11021811403D
libRbt.so/2013.1/901 2013/11/27
 13 14  0  0  0  0  0  0  0  0999 V2000
   10.0645    5.6552   37.7896 C   0  0  0  0  0  0  0  0  0  0  0  0
    9.6408    4.6162   36.9908 N   0  0  0  0  0  0  0  0  0  0  0  0
    9.3471    3.4342   37.5937 C   0  0  0  0  0  0  0  0  0  0  0  0
    9.4941    3.4019   38.8128 O   0  0  0  0  0  0  0  0  0  0  0  0
    8.6282    1.1253   37.5784 C   0  0  0  0  0  0  0  0  0  0  0  0
    8.9160    2.3132   36.9409 N   0  0  0  0  0  0  0  0  0  0  0  0
    8.7995    2.4917   35.5971 C   0  0  0  0  0  0  0  0  0  0  0  0
    9.0952    3.6846   35.0038 C   0  0  0  0  0  0  0  0  0  0  0  0
    9.5400    4.8442   35.6655 C   0  0  0  0  0  0  0  0  0  0  0  0
    9.8219    5.9429   35.1941 O   0  0  0  0  0  0  0  0  0  0  0  0
    8.8655    3.4994   33.6480 N   0  0  0  0  0  0  0  0  0  0  0  0
    8.4483    2.2158   33.5146 C   0  0  0  0  0  0  0  0  0  0  0  0
    8.3903    1.5643   34.6447 N   0  0  0  0  0  0  0  0  0  0  0  0
  1  2  1  0  0  0  0
  2  3  1  0  0  0  0
  2  9  1  0  0  0  0
  3  4  2  0  0  0  0
  3  6  1  0  0  0  0
  6  5  1  0  0  0  0
  6  7  1  0  0  0  0
  7  8  2  0  0  0  0
  7 13  1  0  0  0  0
  8  9  1  0  0  0  0
  8 11  1  0  0  0  0
  9 10  2  0  0  0  0
 11 12  1  0  0  0  0
 12 13  2  0  0  0  0
M  END
>  <CHROM.1>
9.17230673,3.47536105,36.11519657,-0.62966639,-1.24637178,-1.18125956

>  <Name>
1o15_lig

>  <RI>
0

>  <Rbt.Current_Directory>
/home/itssahil/PROJECTS/Mol_Feturizer/New_Systems/rnas/1o15

>  <Rbt.Executable>
rbdock ($Id: //depot/dev/client3/rdock/2013.1/src/exe/rbdock.cxx#4 $)

>  <Rbt.Library>
libRbt.so (2013.1, Build901 2013/11/27)

>  <Rbt.Parameter_File>
/export/apps/rDock/src/rDock_2013.1_src/data/scripts/dock_solv.prm

>  <Rbt.Receptor>
prm/pocket_docking_8.prm

>  <SCORE>
-23.1601

>  <SCORE.INTER>
-23.1601

>  <SCORE.INTER.CONST>
1

>  <SCORE.INTER.POLAR>
-1.21175

>  <SCORE.INTER.ROT>
0

>  <SCORE.INTER.SOLV>
8.66675

>  <SCORE.INTER.VDW>
-17.8898

>  <SCORE.INTER.norm>
-1.78154

>  <SCORE.INTRA>
0

>  <SCORE.INTRA.DIHEDRAL>
0

>  <SCORE.INTRA.DIHEDRAL.0>
0

>  <SCORE.INTRA.POLAR>
0

>  <SCORE.INTRA.POLAR.0>
0

>  <SCORE.INTRA.REPUL>
0

>  <SCORE.INTRA.REPUL.0>
0

>  <SCORE.INTRA.SOLV>
0

>  <SCORE.INTRA.SOLV.lig_0>
-12.9184

>  <SCORE.INTRA.VDW>
0

>  <SCORE.INTRA.VDW.0>
0

>  <SCORE.INTRA.norm>
0

>  <SCORE.RESTR>
0

>  <SCORE.RESTR.CAVITY>
0

>  <SCORE.RESTR.norm>
0

>  <SCORE.SYSTEM>
0

>  <SCORE.SYSTEM.CONST>
0

>  <SCORE.SYSTEM.DIHEDRAL>
0

>  <SCORE.SYSTEM.SOLV>
0

>  <SCORE.SYSTEM.norm>
0

>  <SCORE.heavy>
13

>  <SCORE.norm>
-1.78154

>  <RMSD>
3.487

$$$$
1o15_lig
 OpenBabel11021811403D
libRbt.so/2013.1/901 2013/11/27
 13 14  0  0  0  0  0  0  0  0999 V2000
   10.1008    5.6840   37.7597 C   0  0  0  0  0  0  0  0  0  0  0  0
    9.6699    4.6403   36.9707 N   0  0  0  0  0  0  0  0  0  0  0  0
    9.3792    3.4627   37.5834 C   0  0  0  0  0  0  0  0  0  0  0  0
    9.5351    3.4381   38.8016 O   0  0  0  0  0  0  0  0  0  0  0  0
    8.6574    1.1546   37.5884 C   0  0  0  0  0  0  0  0  0  0  0  0
    8.9420    2.3380   36.9411 N   0  0  0  0  0  0  0  0  0  0  0  0
    8.8159    2.5079   35.5971 C   0  0  0  0  0  0  0  0  0  0  0  0
    9.1087    3.6966   34.9939 C   0  0  0  0  0  0  0  0  0  0  0  0
    9.5598    4.8599   35.6448 C   0  0  0  0  0  0  0  0  0  0  0  0
    9.8395    5.9552   35.1642 O   0  0  0  0  0  0  0  0  0  0  0  0
    8.8689    3.5029   33.6411 N   0  0  0  0  0  0  0  0  0  0  0  0
    8.4492    2.2190   33.5190 C   0  0  0  0  0  0  0  0  0  0  0  0
    8.3987    1.5749   34.6537 N   0  0  0  0  0  0  0  0  0  0  0  0
  1  2  1  0  0  0  0
  2  3  1  0  0  0  0
  2  9  1  0  0  0  0
  3  4  2  0  0  0  0
  3  6  1  0  0  0  0
  6  5  1  0  0  0  0
  6  7  1  0  0  0  0
  7  8  2  0  0  0  0
  7 13  1  0  0  0  0
  8  9  1  0  0  0  0
  8 11  1  0  0  0  0
  9 10  2  0  0  0  0
 11 12  1  0  0  0  0
 12 13  2  0  0  0  0
M  END
>  <CHROM.1>
9.19371298,3.49446841,36.10601990,-0.61014383,-1.24241709,-1.16924945

>  <Name>
1o15_lig

>  <RI>
0

>  <Rbt.Current_Directory>
/home/itssahil/PROJECTS/Mol_Feturizer/New_Systems/rnas/1o15

>  <Rbt.Executable>
rbdock ($Id: //depot/dev/client3/rdock/2013.1/src/exe/rbdock.cxx#4 $)

>  <Rbt.Library>
libRbt.so (2013.1, Build901 2013/11/27)

>  <Rbt.Parameter_File>
/export/apps/rDock/src/rDock_2013.1_src/data/scripts/dock_solv.prm

>  <Rbt.Receptor>
prm/blind_docking_80.prm

>  <SCORE>
-23.1247

>  <SCORE.INTER>
-23.1247

>  <SCORE.INTER.CONST>
1

>  <SCORE.INTER.POLAR>
-1.21268

>  <SCORE.INTER.ROT>
0

>  <SCORE.INTER.SOLV>
8.67411

>  <SCORE.INTER.VDW>
-17.8656

>  <SCORE.INTER.norm>
-1.77882

>  <SCORE.INTRA>
0

>  <SCORE.INTRA.DIHEDRAL>
0

>  <SCORE.INTRA.DIHEDRAL.0>
0

>  <SCORE.INTRA.POLAR>
0

>  <SCORE.INTRA.POLAR.0>
0

>  <SCORE.INTRA.REPUL>
0

>  <SCORE.INTRA.REPUL.0>
0

>  <SCORE.INTRA.SOLV>
0

>  <SCORE.INTRA.SOLV.lig_0>
-12.9184

>  <SCORE.INTRA.VDW>
0

>  <SCORE.INTRA.VDW.0>
0

>  <SCORE.INTRA.norm>
0

>  <SCORE.RESTR>
0

>  <SCORE.RESTR.CAVITY>
0

>  <SCORE.RESTR.norm>
0

>  <SCORE.SYSTEM>
0

>  <SCORE.SYSTEM.CONST>
0

>  <SCORE.SYSTEM.DIHEDRAL>
0

>  <SCORE.SYSTEM.SOLV>
0

>  <SCORE.SYSTEM.norm>
0

>  <SCORE.heavy>
13

>  <SCORE.norm>
-1.77882

>  <RMSD>
3.488

$$$$
1o15_lig
 OpenBabel11021811403D
libRbt.so/2013.1/901 2013/11/27
 13 14  0  0  0  0  0  0  0  0999 V2000
   10.1043    5.6771   37.7598 C   0  0  0  0  0  0  0  0  0  0  0  0
    9.6703    4.6360   36.9691 N   0  0  0  0  0  0  0  0  0  0  0  0
    9.3775    3.4578   37.5796 C   0  0  0  0  0  0  0  0  0  0  0  0
    9.5345    3.4304   38.7976 O   0  0  0  0  0  0  0  0  0  0  0  0
    8.6504    1.1514   37.5805 C   0  0  0  0  0  0  0  0  0  0  0  0
    8.9370    2.3354   36.9354 N   0  0  0  0  0  0  0  0  0  0  0  0
    8.8101    2.5085   35.5918 C   0  0  0  0  0  0  0  0  0  0  0  0
    9.1051    3.6977   34.9908 C   0  0  0  0  0  0  0  0  0  0  0  0
    9.5595    4.8586   35.6437 C   0  0  0  0  0  0  0  0  0  0  0  0
    9.8413    5.9542   35.1651 O   0  0  0  0  0  0  0  0  0  0  0  0
    8.8636    3.5073   33.6378 N   0  0  0  0  0  0  0  0  0  0  0  0
    8.4408    2.2246   33.5136 C   0  0  0  0  0  0  0  0  0  0  0  0
    8.3899    1.5783   34.6469 N   0  0  0  0  0  0  0  0  0  0  0  0
  1  2  1  0  0  0  0
  2  3  1  0  0  0  0
  2  9  1  0  0  0  0
  3  4  2  0  0  0  0
  3  6  1  0  0  0  0
  6  5  1  0  0  0  0
  6  7  1  0  0  0  0
  7  8  2  0  0  0  0
  7 13  1  0  0  0  0
  8  9  1  0  0  0  0
  8 11  1  0  0  0  0
  9 10  2  0  0  0  0
 11 12  1  0  0  0  0
 12 13  2  0  0  0  0
M  END
>  <CHROM.1>
9.19066572,3.49305558,36.10246485,-0.61030662,-1.23993600,-1.16735468

>  <Name>
1o15_lig

>  <RI>
0

>  <Rbt.Current_Directory>
/home/itssahil/PROJECTS/Mol_Feturizer/New_Systems/rnas/1o15

>  <Rbt.Executable>
rbdock ($Id: //depot/dev/client3/rdock/2013.1/src/exe/rbdock.cxx#4 $)

>  <Rbt.Library>
libRbt.so (2013.1, Build901 2013/11/27)

>  <Rbt.Parameter_File>
/export/apps/rDock/src/rDock_2013.1_src/data/scripts/dock_solv.prm

>  <Rbt.Receptor>
prm/pocket_docking_4.prm

>  <SCORE>
-23.1492

>  <SCORE.INTER>
-23.1492

>  <SCORE.INTER.CONST>
1

>  <SCORE.INTER.POLAR>
-1.20722

>  <SCORE.INTER.ROT>
0

>  <SCORE.INTER.SOLV>
8.67327

>  <SCORE.INTER.VDW>
-17.8998

>  <SCORE.INTER.norm>
-1.78071

>  <SCORE.INTRA>
0

>  <SCORE.INTRA.DIHEDRAL>
0

>  <SCORE.INTRA.DIHEDRAL.0>
0

>  <SCORE.INTRA.POLAR>
0

>  <SCORE.INTRA.POLAR.0>
0

>  <SCORE.INTRA.REPUL>
0

>  <SCORE.INTRA.REPUL.0>
0

>  <SCORE.INTRA.SOLV>
0

>  <SCORE.INTRA.SOLV.lig_0>
-12.9184

>  <SCORE.INTRA.VDW>
0

>  <SCORE.INTRA.VDW.0>
0

>  <SCORE.INTRA.norm>
0

>  <SCORE.RESTR>
0

>  <SCORE.RESTR.CAVITY>
0

>  <SCORE.RESTR.norm>
0

>  <SCORE.SYSTEM>
0

>  <SCORE.SYSTEM.CONST>
0

>  <SCORE.SYSTEM.DIHEDRAL>
0

>  <SCORE.SYSTEM.SOLV>
0

>  <SCORE.SYSTEM.norm>
0

>  <SCORE.heavy>
13

>  <SCORE.norm>
-1.78071

>  <RMSD>
3.488

$$$$
1o15_lig
 OpenBabel11021811403D
libRbt.so/2013.1/901 2013/11/27
 13 14  0  0  0  0  0  0  0  0999 V2000
   10.0597    5.6550   37.7913 C   0  0  0  0  0  0  0  0  0  0  0  0
    9.6372    4.6158   36.9919 N   0  0  0  0  0  0  0  0  0  0  0  0
    9.3430    3.4339   37.5944 C   0  0  0  0  0  0  0  0  0  0  0  0
    9.4884    3.4016   38.8137 O   0  0  0  0  0  0  0  0  0  0  0  0
    8.6246    1.1247   37.5783 C   0  0  0  0  0  0  0  0  0  0  0  0
    8.9129    2.3127   36.9411 N   0  0  0  0  0  0  0  0  0  0  0  0
    8.7982    2.4912   35.5972 C   0  0  0  0  0  0  0  0  0  0  0  0
    9.0944    3.6841   35.0042 C   0  0  0  0  0  0  0  0  0  0  0  0
    9.5382    4.8438   35.6665 C   0  0  0  0  0  0  0  0  0  0  0  0
    9.8204    5.9426   35.1954 O   0  0  0  0  0  0  0  0  0  0  0  0
    8.8666    3.4989   33.6482 N   0  0  0  0  0  0  0  0  0  0  0  0
    8.4498    2.2151   33.5142 C   0  0  0  0  0  0  0  0  0  0  0  0
    8.3905    1.5637   34.6442 N   0  0  0  0  0  0  0  0  0  0  0  0
  1  2  1  0  0  0  0
  2  3  1  0  0  0  0
  2  9  1  0  0  0  0
  3  4  2  0  0  0  0
  3  6  1  0  0  0  0
  6  5  1  0  0  0  0
  6  7  1  0  0  0  0
  7  8  2  0  0  0  0
  7 13  1  0  0  0  0
  8  9  1  0  0  0  0
  8 11  1  0  0  0  0
  9 10  2  0  0  0  0
 11 12  1  0  0  0  0
 12 13  2  0  0  0  0
M  END
>  <CHROM.1>
9.17014316,3.47492917,36.11573228,-0.63325937,-1.24706865,-1.18468551

>  <Name>
1o15_lig

>  <RI>
0

>  <Rbt.Current_Directory>
/home/itssahil/PROJECTS/Mol_Feturizer/New_Systems/rnas/1o15

>  <Rbt.Executable>
rbdock ($Id: //depot/dev/client3/rdock/2013.1/src/exe/rbdock.cxx#4 $)

>  <Rbt.Library>
libRbt.so (2013.1, Build901 2013/11/27)

>  <Rbt.Parameter_File>
/export/apps/rDock/src/rDock_2013.1_src/data/scripts/dock_solv.prm

>  <Rbt.Receptor>
prm/pocket_docking_6.prm

>  <SCORE>
-23.1613

>  <SCORE.INTER>
-23.1613

>  <SCORE.INTER.CONST>
1

>  <SCORE.INTER.POLAR>
-1.21303

>  <SCORE.INTER.ROT>
0

>  <SCORE.INTER.SOLV>
8.6734

>  <SCORE.INTER.VDW>
-17.8886

>  <SCORE.INTER.norm>
-1.78164

>  <SCORE.INTRA>
0

>  <SCORE.INTRA.DIHEDRAL>
0

>  <SCORE.INTRA.DIHEDRAL.0>
0

>  <SCORE.INTRA.POLAR>
0

>  <SCORE.INTRA.POLAR.0>
0

>  <SCORE.INTRA.REPUL>
0

>  <SCORE.INTRA.REPUL.0>
0

>  <SCORE.INTRA.SOLV>
0

>  <SCORE.INTRA.SOLV.lig_0>
-12.9184

>  <SCORE.INTRA.VDW>
0

>  <SCORE.INTRA.VDW.0>
0

>  <SCORE.INTRA.norm>
0

>  <SCORE.RESTR>
0

>  <SCORE.RESTR.CAVITY>
0

>  <SCORE.RESTR.norm>
0

>  <SCORE.SYSTEM>
0

>  <SCORE.SYSTEM.CONST>
0

>  <SCORE.SYSTEM.DIHEDRAL>
0

>  <SCORE.SYSTEM.SOLV>
0

>  <SCORE.SYSTEM.norm>
0

>  <SCORE.heavy>
13

>  <SCORE.norm>
-1.78164

>  <RMSD>
3.488

$$$$
1o15_lig
 OpenBabel11021811403D
libRbt.so/2013.1/901 2013/11/27
 13 14  0  0  0  0  0  0  0  0999 V2000
   10.0873    5.6740   37.7715 C   0  0  0  0  0  0  0  0  0  0  0  0
    9.6677    4.6301   36.9769 N   0  0  0  0  0  0  0  0  0  0  0  0
    9.3795    3.4492   37.5844 C   0  0  0  0  0  0  0  0  0  0  0  0
    9.5273    3.4222   38.8036 O   0  0  0  0  0  0  0  0  0  0  0  0
    8.6708    1.1370   37.5783 C   0  0  0  0  0  0  0  0  0  0  0  0
    8.9530    2.3237   36.9361 N   0  0  0  0  0  0  0  0  0  0  0  0
    8.8351    2.4966   35.5918 C   0  0  0  0  0  0  0  0  0  0  0  0
    9.1253    3.6885   34.9937 C   0  0  0  0  0  0  0  0  0  0  0  0
    9.5654    4.8526   35.6508 C   0  0  0  0  0  0  0  0  0  0  0  0
    9.8422    5.9507   35.1751 O   0  0  0  0  0  0  0  0  0  0  0  0
    8.8958    3.4971   33.6388 N   0  0  0  0  0  0  0  0  0  0  0  0
    8.4841    2.2112   33.5105 C   0  0  0  0  0  0  0  0  0  0  0  0
    8.4296    1.5638   34.6431 N   0  0  0  0  0  0  0  0  0  0  0  0
  1  2  1  0  0  0  0
  2  3  1  0  0  0  0
  2  9  1  0  0  0  0
  3  4  2  0  0  0  0
  3  6  1  0  0  0  0
  6  5  1  0  0  0  0
  6  7  1  0  0  0  0
  7  8  2  0  0  0  0
  7 13  1  0  0  0  0
  8  9  1  0  0  0  0
  8 11  1  0  0  0  0
  9 10  2  0  0  0  0
 11 12  1  0  0  0  0
 12 13  2  0  0  0  0
M  END
>  <CHROM.1>
9.20386798,3.48388354,36.10590238,-0.62299058,-1.25024583,-1.17875519

>  <Name>
1o15_lig

>  <RI>
0

>  <Rbt.Current_Directory>
/home/itssahil/PROJECTS/Mol_Feturizer/New_Systems/rnas/1o15

>  <Rbt.Executable>
rbdock ($Id: //depot/dev/client3/rdock/2013.1/src/exe/rbdock.cxx#4 $)

>  <Rbt.Library>
libRbt.so (2013.1, Build901 2013/11/27)

>  <Rbt.Parameter_File>
/export/apps/rDock/src/rDock_2013.1_src/data/scripts/dock_solv.prm

>  <Rbt.Receptor>
prm/pocket_docking_8.prm

>  <SCORE>
-23.1447

>  <SCORE.INTER>
-23.1447

>  <SCORE.INTER.CONST>
1

>  <SCORE.INTER.POLAR>
-1.22848

>  <SCORE.INTER.ROT>
0

>  <SCORE.INTER.SOLV>
8.68984

>  <SCORE.INTER.VDW>
-17.8315

>  <SCORE.INTER.norm>
-1.78036

>  <SCORE.INTRA>
0

>  <SCORE.INTRA.DIHEDRAL>
0

>  <SCORE.INTRA.DIHEDRAL.0>
0

>  <SCORE.INTRA.POLAR>
0

>  <SCORE.INTRA.POLAR.0>
0

>  <SCORE.INTRA.REPUL>
0

>  <SCORE.INTRA.REPUL.0>
0

>  <SCORE.INTRA.SOLV>
0

>  <SCORE.INTRA.SOLV.lig_0>
-12.9184

>  <SCORE.INTRA.VDW>
0

>  <SCORE.INTRA.VDW.0>
0

>  <SCORE.INTRA.norm>
0

>  <SCORE.RESTR>
0

>  <SCORE.RESTR.CAVITY>
0

>  <SCORE.RESTR.norm>
0

>  <SCORE.SYSTEM>
0

>  <SCORE.SYSTEM.CONST>
0

>  <SCORE.SYSTEM.DIHEDRAL>
0

>  <SCORE.SYSTEM.SOLV>
0

>  <SCORE.SYSTEM.norm>
0

>  <SCORE.heavy>
13

>  <SCORE.norm>
-1.78036

>  <RMSD>
3.488

$$$$
1o15_lig
 OpenBabel11021811403D
libRbt.so/2013.1/901 2013/11/27
 13 14  0  0  0  0  0  0  0  0999 V2000
   10.0689    5.6576   37.7898 C   0  0  0  0  0  0  0  0  0  0  0  0
    9.6439    4.6188   36.9912 N   0  0  0  0  0  0  0  0  0  0  0  0
    9.3459    3.4383   37.5947 C   0  0  0  0  0  0  0  0  0  0  0  0
    9.4906    3.4068   38.8141 O   0  0  0  0  0  0  0  0  0  0  0  0
    8.6210    1.1312   37.5805 C   0  0  0  0  0  0  0  0  0  0  0  0
    8.9131    2.3177   36.9423 N   0  0  0  0  0  0  0  0  0  0  0  0
    8.7996    2.4951   35.5981 C   0  0  0  0  0  0  0  0  0  0  0  0
    9.0996    3.6866   35.0041 C   0  0  0  0  0  0  0  0  0  0  0  0
    9.5462    4.8457   35.6655 C   0  0  0  0  0  0  0  0  0  0  0  0
    9.8319    5.9432   35.1935 O   0  0  0  0  0  0  0  0  0  0  0  0
    8.8719    3.5006   33.6481 N   0  0  0  0  0  0  0  0  0  0  0  0
    8.4516    2.2180   33.5153 C   0  0  0  0  0  0  0  0  0  0  0  0
    8.3898    1.5678   34.6459 N   0  0  0  0  0  0  0  0  0  0  0  0
  1  2  1  0  0  0  0
  2  3  1  0  0  0  0
  2  9  1  0  0  0  0
  3  4  2  0  0  0  0
  3  6  1  0  0  0  0
  6  5  1  0  0  0  0
  6  7  1  0  0  0  0
  7  8  2  0  0  0  0
  7 13  1  0  0  0  0
  8  9  1  0  0  0  0
  8 11  1  0  0  0  0
  9 10  2  0  0  0  0
 11 12  1  0  0  0  0
 12 13  2  0  0  0  0
M  END
>  <CHROM.1>
9.17406325,3.47832171,36.11588790,-0.63821676,-1.24463537,-1.19039315

>  <Name>
1o15_lig

>  <RI>
0

>  <Rbt.Current_Directory>
/home/itssahil/PROJECTS/Mol_Feturizer/New_Systems/rnas/1o15

>  <Rbt.Executable>
rbdock ($Id: //depot/dev/client3/rdock/2013.1/src/exe/rbdock.cxx#4 $)

>  <Rbt.Library>
libRbt.so (2013.1, Build901 2013/11/27)

>  <Rbt.Parameter_File>
/export/apps/rDock/src/rDock_2013.1_src/data/scripts/dock_solv.prm

>  <Rbt.Receptor>
prm/pocket_docking_8.prm

>  <SCORE>
-23.1702

>  <SCORE.INTER>
-23.1702

>  <SCORE.INTER.CONST>
1

>  <SCORE.INTER.POLAR>
-1.21641

>  <SCORE.INTER.ROT>
0

>  <SCORE.INTER.SOLV>
8.68568

>  <SCORE.INTER.VDW>
-17.8873

>  <SCORE.INTER.norm>
-1.78232

>  <SCORE.INTRA>
0

>  <SCORE.INTRA.DIHEDRAL>
0

>  <SCORE.INTRA.DIHEDRAL.0>
0

>  <SCORE.INTRA.POLAR>
0

>  <SCORE.INTRA.POLAR.0>
0

>  <SCORE.INTRA.REPUL>
0

>  <SCORE.INTRA.REPUL.0>
0

>  <SCORE.INTRA.SOLV>
0

>  <SCORE.INTRA.SOLV.lig_0>
-12.9184

>  <SCORE.INTRA.VDW>
0

>  <SCORE.INTRA.VDW.0>
0

>  <SCORE.INTRA.norm>
0

>  <SCORE.RESTR>
0

>  <SCORE.RESTR.CAVITY>
0

>  <SCORE.RESTR.norm>
0

>  <SCORE.SYSTEM>
0

>  <SCORE.SYSTEM.CONST>
0

>  <SCORE.SYSTEM.DIHEDRAL>
0

>  <SCORE.SYSTEM.SOLV>
0

>  <SCORE.SYSTEM.norm>
0

>  <SCORE.heavy>
13

>  <SCORE.norm>
-1.78232

>  <RMSD>
3.488

$$$$
1o15_lig
 OpenBabel11021811403D
libRbt.so/2013.1/901 2013/11/27
 13 14  0  0  0  0  0  0  0  0999 V2000
   10.1576    5.6974   37.7049 C   0  0  0  0  0  0  0  0  0  0  0  0
    9.7365    4.6472   36.9191 N   0  0  0  0  0  0  0  0  0  0  0  0
    9.4866    3.4600   37.5313 C   0  0  0  0  0  0  0  0  0  0  0  0
    9.6672    3.4335   38.7460 O   0  0  0  0  0  0  0  0  0  0  0  0
    8.8210    1.1351   37.5385 C   0  0  0  0  0  0  0  0  0  0  0  0
    9.0640    2.3281   36.8919 N   0  0  0  0  0  0  0  0  0  0  0  0
    8.9072    2.5013   35.5515 C   0  0  0  0  0  0  0  0  0  0  0  0
    9.1591    3.6995   34.9488 C   0  0  0  0  0  0  0  0  0  0  0  0
    9.5948    4.8703   35.5968 C   0  0  0  0  0  0  0  0  0  0  0  0
    9.8384    5.9743   35.1165 O   0  0  0  0  0  0  0  0  0  0  0  0
    8.8972    3.5065   33.6001 N   0  0  0  0  0  0  0  0  0  0  0  0
    8.5063    2.2133   33.4797 C   0  0  0  0  0  0  0  0  0  0  0  0
    8.4940    1.5629   34.6117 N   0  0  0  0  0  0  0  0  0  0  0  0
  1  2  1  0  0  0  0
  2  3  1  0  0  0  0
  2  9  1  0  0  0  0
  3  4  2  0  0  0  0
  3  6  1  0  0  0  0
  6  5  1  0  0  0  0
  6  7  1  0  0  0  0
  7  8  2  0  0  0  0
  7 13  1  0  0  0  0
  8  9  1  0  0  0  0
  8 11  1  0  0  0  0
  9 10  2  0  0  0  0
 11 12  1  0  0  0  0
 12 13  2  0  0  0  0
M  END
>  <CHROM.1>
9.27103328,3.49426047,36.05804499,-0.52056492,-1.25573722,-1.07930441

>  <Name>
1o15_lig

>  <RI>
224

>  <Rbt.Current_Directory>
/home/itssahil/PROJECTS/Mol_Feturizer/New_Systems/rnas/1o15

>  <Rbt.Executable>
rbdock ($Id: //depot/dev/client3/rdock/2013.1/src/exe/rbdock.cxx#4 $)

>  <Rbt.Library>
libRbt.so (2013.1, Build901 2013/11/27)

>  <Rbt.Parameter_File>
/export/apps/rDock/src/rDock_2013.1_src/data/scripts/dock_solv.prm

>  <Rbt.Receptor>
prm/blind_docking_100.prm

>  <SCORE>
-22.6699

>  <SCORE.INTER>
-22.7185

>  <SCORE.INTER.CONST>
1

>  <SCORE.INTER.POLAR>
-1.20779

>  <SCORE.INTER.ROT>
0

>  <SCORE.INTER.SOLV>
8.60245

>  <SCORE.INTER.VDW>
-17.5872

>  <SCORE.INTER.norm>
-1.74758

>  <SCORE.INTRA>
0

>  <SCORE.INTRA.DIHEDRAL>
0

>  <SCORE.INTRA.DIHEDRAL.0>
0

>  <SCORE.INTRA.POLAR>
0

>  <SCORE.INTRA.POLAR.0>
0

>  <SCORE.INTRA.REPUL>
0

>  <SCORE.INTRA.REPUL.0>
0

>  <SCORE.INTRA.SOLV>
0

>  <SCORE.INTRA.SOLV.lig_0>
-12.9184

>  <SCORE.INTRA.VDW>
0

>  <SCORE.INTRA.VDW.0>
0

>  <SCORE.INTRA.norm>
0

>  <SCORE.RESTR>
0.0486694

>  <SCORE.RESTR.CAVITY>
0.0486694

>  <SCORE.RESTR.norm>
0.0037438

>  <SCORE.SYSTEM>
0

>  <SCORE.SYSTEM.CONST>
0

>  <SCORE.SYSTEM.DIHEDRAL>
0

>  <SCORE.SYSTEM.SOLV>
0

>  <SCORE.SYSTEM.norm>
0

>  <SCORE.heavy>
13

>  <SCORE.norm>
-1.74384

>  <RMSD>
3.489

$$$$
1o15_lig
 OpenBabel11021811403D
libRbt.so/2013.1/901 2013/11/27
 13 14  0  0  0  0  0  0  0  0999 V2000
   10.0690    5.6636   37.7901 C   0  0  0  0  0  0  0  0  0  0  0  0
    9.6461    4.6235   36.9921 N   0  0  0  0  0  0  0  0  0  0  0  0
    9.3452    3.4444   37.5971 C   0  0  0  0  0  0  0  0  0  0  0  0
    9.4856    3.4154   38.8170 O   0  0  0  0  0  0  0  0  0  0  0  0
    8.6187    1.1378   37.5850 C   0  0  0  0  0  0  0  0  0  0  0  0
    8.9139    2.3227   36.9454 N   0  0  0  0  0  0  0  0  0  0  0  0
    8.8052    2.4975   35.6005 C   0  0  0  0  0  0  0  0  0  0  0  0
    9.1081    3.6876   35.0051 C   0  0  0  0  0  0  0  0  0  0  0  0
    9.5532    4.8477   35.6657 C   0  0  0  0  0  0  0  0  0  0  0  0
    9.8413    5.9440   35.1924 O   0  0  0  0  0  0  0  0  0  0  0  0
    8.8851    3.4990   33.6487 N   0  0  0  0  0  0  0  0  0  0  0  0
    8.4643    2.2163   33.5170 C   0  0  0  0  0  0  0  0  0  0  0  0
    8.3981    1.5686   34.6487 N   0  0  0  0  0  0  0  0  0  0  0  0
  1  2  1  0  0  0  0
  2  3  1  0  0  0  0
  2  9  1  0  0  0  0
  3  4  2  0  0  0  0
  3  6  1  0  0  0  0
  6  5  1  0  0  0  0
  6  7  1  0  0  0  0
  7  8  2  0  0  0  0
  7 13  1  0  0  0  0
  8  9  1  0  0  0  0
  8 11  1  0  0  0  0
  9 10  2  0  0  0  0
 11 12  1  0  0  0  0
 12 13  2  0  0  0  0
M  END
>  <CHROM.1>
9.17852943,3.48152796,36.11754537,-0.64921332,-1.24526301,-1.20286878

>  <Name>
1o15_lig

>  <RI>
0

>  <Rbt.Current_Directory>
/home/itssahil/PROJECTS/Mol_Feturizer/New_Systems/rnas/1o15

>  <Rbt.Executable>
rbdock ($Id: //depot/dev/client3/rdock/2013.1/src/exe/rbdock.cxx#4 $)

>  <Rbt.Library>
libRbt.so (2013.1, Build901 2013/11/27)

>  <Rbt.Parameter_File>
/export/apps/rDock/src/rDock_2013.1_src/data/scripts/dock_solv.prm

>  <Rbt.Receptor>
prm/pocket_docking_5.prm

>  <SCORE>
-23.1527

>  <SCORE.INTER>
-23.1527

>  <SCORE.INTER.CONST>
1

>  <SCORE.INTER.POLAR>
-1.22659

>  <SCORE.INTER.ROT>
0

>  <SCORE.INTER.SOLV>
8.71163

>  <SCORE.INTER.VDW>
-17.8503

>  <SCORE.INTER.norm>
-1.78097

>  <SCORE.INTRA>
0

>  <SCORE.INTRA.DIHEDRAL>
0

>  <SCORE.INTRA.DIHEDRAL.0>
0

>  <SCORE.INTRA.POLAR>
0

>  <SCORE.INTRA.POLAR.0>
0

>  <SCORE.INTRA.REPUL>
0

>  <SCORE.INTRA.REPUL.0>
0

>  <SCORE.INTRA.SOLV>
0

>  <SCORE.INTRA.SOLV.lig_0>
-12.9184

>  <SCORE.INTRA.VDW>
0

>  <SCORE.INTRA.VDW.0>
0

>  <SCORE.INTRA.norm>
0

>  <SCORE.RESTR>
0

>  <SCORE.RESTR.CAVITY>
0

>  <SCORE.RESTR.norm>
0

>  <SCORE.SYSTEM>
0

>  <SCORE.SYSTEM.CONST>
0

>  <SCORE.SYSTEM.DIHEDRAL>
0

>  <SCORE.SYSTEM.SOLV>
0

>  <SCORE.SYSTEM.norm>
0

>  <SCORE.heavy>
13

>  <SCORE.norm>
-1.78097

>  <RMSD>
3.489

$$$$
1o15_lig
 OpenBabel11021811403D
libRbt.so/2013.1/901 2013/11/27
 13 14  0  0  0  0  0  0  0  0999 V2000
   10.0792    5.6607   37.7847 C   0  0  0  0  0  0  0  0  0  0  0  0
    9.6516    4.6228   36.9864 N   0  0  0  0  0  0  0  0  0  0  0  0
    9.3496    3.4435   37.5904 C   0  0  0  0  0  0  0  0  0  0  0  0
    9.4932    3.4124   38.8100 O   0  0  0  0  0  0  0  0  0  0  0  0
    8.6175    1.1387   37.5770 C   0  0  0  0  0  0  0  0  0  0  0  0
    8.9138    2.3239   36.9383 N   0  0  0  0  0  0  0  0  0  0  0  0
    8.8019    2.5009   35.5939 C   0  0  0  0  0  0  0  0  0  0  0  0
    9.1060    3.6911   34.9995 C   0  0  0  0  0  0  0  0  0  0  0  0
    9.5557    4.8492   35.6605 C   0  0  0  0  0  0  0  0  0  0  0  0
    9.8452    5.9455   35.1880 O   0  0  0  0  0  0  0  0  0  0  0  0
    8.8789    3.5050   33.6434 N   0  0  0  0  0  0  0  0  0  0  0  0
    8.4547    2.2235   33.5110 C   0  0  0  0  0  0  0  0  0  0  0  0
    8.3900    1.5743   34.6420 N   0  0  0  0  0  0  0  0  0  0  0  0
  1  2  1  0  0  0  0
  2  3  1  0  0  0  0
  2  9  1  0  0  0  0
  3  4  2  0  0  0  0
  3  6  1  0  0  0  0
  6  5  1  0  0  0  0
  6  7  1  0  0  0  0
  7  8  2  0  0  0  0
  7 13  1  0  0  0  0
  8  9  1  0  0  0  0
  8 11  1  0  0  0  0
  9 10  2  0  0  0  0
 11 12  1  0  0  0  0
 12 13  2  0  0  0  0
M  END
>  <CHROM.1>
9.17897664,3.48324125,36.11143041,-0.64407071,-1.24205214,-1.19654542

>  <Name>
1o15_lig

>  <RI>
0

>  <Rbt.Current_Directory>
/home/itssahil/PROJECTS/Mol_Feturizer/New_Systems/rnas/1o15

>  <Rbt.Executable>
rbdock ($Id: //depot/dev/client3/rdock/2013.1/src/exe/rbdock.cxx#4 $)

>  <Rbt.Library>
libRbt.so (2013.1, Build901 2013/11/27)

>  <Rbt.Parameter_File>
/export/apps/rDock/src/rDock_2013.1_src/data/scripts/dock_solv.prm

>  <Rbt.Receptor>
prm/pocket_docking_8.prm

>  <SCORE>
-23.1762

>  <SCORE.INTER>
-23.1762

>  <SCORE.INTER.CONST>
1

>  <SCORE.INTER.POLAR>
-1.21972

>  <SCORE.INTER.ROT>
0

>  <SCORE.INTER.SOLV>
8.71035

>  <SCORE.INTER.VDW>
-17.8885

>  <SCORE.INTER.norm>
-1.78279

>  <SCORE.INTRA>
0

>  <SCORE.INTRA.DIHEDRAL>
0

>  <SCORE.INTRA.DIHEDRAL.0>
0

>  <SCORE.INTRA.POLAR>
0

>  <SCORE.INTRA.POLAR.0>
0

>  <SCORE.INTRA.REPUL>
0

>  <SCORE.INTRA.REPUL.0>
0

>  <SCORE.INTRA.SOLV>
0

>  <SCORE.INTRA.SOLV.lig_0>
-12.9184

>  <SCORE.INTRA.VDW>
0

>  <SCORE.INTRA.VDW.0>
0

>  <SCORE.INTRA.norm>
0

>  <SCORE.RESTR>
0

>  <SCORE.RESTR.CAVITY>
0

>  <SCORE.RESTR.norm>
0

>  <SCORE.SYSTEM>
0

>  <SCORE.SYSTEM.CONST>
0

>  <SCORE.SYSTEM.DIHEDRAL>
0

>  <SCORE.SYSTEM.SOLV>
0

>  <SCORE.SYSTEM.norm>
0

>  <SCORE.heavy>
13

>  <SCORE.norm>
-1.78279

>  <RMSD>
3.489

$$$$
1o15_lig
 OpenBabel11021811403D
libRbt.so/2013.1/901 2013/11/27
 13 14  0  0  0  0  0  0  0  0999 V2000
   10.0873    5.6743   37.7745 C   0  0  0  0  0  0  0  0  0  0  0  0
    9.6688    4.6307   36.9787 N   0  0  0  0  0  0  0  0  0  0  0  0
    9.3760    3.4507   37.5857 C   0  0  0  0  0  0  0  0  0  0  0  0
    9.5189    3.4240   38.8055 O   0  0  0  0  0  0  0  0  0  0  0  0
    8.6629    1.1399   37.5780 C   0  0  0  0  0  0  0  0  0  0  0  0
    8.9499    2.3257   36.9363 N   0  0  0  0  0  0  0  0  0  0  0  0
    8.8377    2.4982   35.5914 C   0  0  0  0  0  0  0  0  0  0  0  0
    9.1324    3.6892   34.9939 C   0  0  0  0  0  0  0  0  0  0  0  0
    9.5721    4.8528   35.6522 C   0  0  0  0  0  0  0  0  0  0  0  0
    9.8529    5.9501   35.1769 O   0  0  0  0  0  0  0  0  0  0  0  0
    8.9079    3.4976   33.6382 N   0  0  0  0  0  0  0  0  0  0  0  0
    8.4944    2.2123   33.5090 C   0  0  0  0  0  0  0  0  0  0  0  0
    8.4341    1.5656   34.6416 N   0  0  0  0  0  0  0  0  0  0  0  0
  1  2  1  0  0  0  0
  2  3  1  0  0  0  0
  2  9  1  0  0  0  0
  3  4  2  0  0  0  0
  3  6  1  0  0  0  0
  6  5  1  0  0  0  0
  6  7  1  0  0  0  0
  7  8  2  0  0  0  0
  7 13  1  0  0  0  0
  8  9  1  0  0  0  0
  8 11  1  0  0  0  0
  9 10  2  0  0  0  0
 11 12  1  0  0  0  0
 12 13  2  0  0  0  0
M  END
>  <CHROM.1>
9.20626731,3.48498394,36.10650294,-0.63684494,-1.24997169,-1.19241094

>  <Name>
1o15_lig

>  <RI>
0

>  <Rbt.Current_Directory>
/home/itssahil/PROJECTS/Mol_Feturizer/New_Systems/rnas/1o15

>  <Rbt.Executable>
rbdock ($Id: //depot/dev/client3/rdock/2013.1/src/exe/rbdock.cxx#4 $)

>  <Rbt.Library>
libRbt.so (2013.1, Build901 2013/11/27)

>  <Rbt.Parameter_File>
/export/apps/rDock/src/rDock_2013.1_src/data/scripts/dock_solv.prm

>  <Rbt.Receptor>
prm/pocket_docking_5.prm

>  <SCORE>
-23.1544

>  <SCORE.INTER>
-23.1544

>  <SCORE.INTER.CONST>
1

>  <SCORE.INTER.POLAR>
-1.23697

>  <SCORE.INTER.ROT>
0

>  <SCORE.INTER.SOLV>
8.71692

>  <SCORE.INTER.VDW>
-17.8187

>  <SCORE.INTER.norm>
-1.7811

>  <SCORE.INTRA>
0

>  <SCORE.INTRA.DIHEDRAL>
0

>  <SCORE.INTRA.DIHEDRAL.0>
0

>  <SCORE.INTRA.POLAR>
0

>  <SCORE.INTRA.POLAR.0>
0

>  <SCORE.INTRA.REPUL>
0

>  <SCORE.INTRA.REPUL.0>
0

>  <SCORE.INTRA.SOLV>
0

>  <SCORE.INTRA.SOLV.lig_0>
-12.9184

>  <SCORE.INTRA.VDW>
0

>  <SCORE.INTRA.VDW.0>
0

>  <SCORE.INTRA.norm>
0

>  <SCORE.RESTR>
0

>  <SCORE.RESTR.CAVITY>
0

>  <SCORE.RESTR.norm>
0

>  <SCORE.SYSTEM>
0

>  <SCORE.SYSTEM.CONST>
0

>  <SCORE.SYSTEM.DIHEDRAL>
0

>  <SCORE.SYSTEM.SOLV>
0

>  <SCORE.SYSTEM.norm>
0

>  <SCORE.heavy>
13

>  <SCORE.norm>
-1.7811

>  <RMSD>
3.490

$$$$
1o15_lig
 OpenBabel11021811403D
libRbt.so/2013.1/901 2013/11/27
 13 14  0  0  0  0  0  0  0  0999 V2000
   10.0921    5.6911   37.7597 C   0  0  0  0  0  0  0  0  0  0  0  0
    9.6709    4.6436   36.9706 N   0  0  0  0  0  0  0  0  0  0  0  0
    9.3832    3.4657   37.5842 C   0  0  0  0  0  0  0  0  0  0  0  0
    9.5328    3.4444   38.8032 O   0  0  0  0  0  0  0  0  0  0  0  0
    8.6735    1.1538   37.5901 C   0  0  0  0  0  0  0  0  0  0  0  0
    8.9553    2.3373   36.9418 N   0  0  0  0  0  0  0  0  0  0  0  0
    8.8354    2.5039   35.5969 C   0  0  0  0  0  0  0  0  0  0  0  0
    9.1251    3.6929   34.9928 C   0  0  0  0  0  0  0  0  0  0  0  0
    9.5666    4.8599   35.6437 C   0  0  0  0  0  0  0  0  0  0  0  0
    9.8431    5.9556   35.1623 O   0  0  0  0  0  0  0  0  0  0  0  0
    8.8935    3.4952   33.6391 N   0  0  0  0  0  0  0  0  0  0  0  0
    8.4812    2.2088   33.5175 C   0  0  0  0  0  0  0  0  0  0  0  0
    8.4281    1.5668   34.6532 N   0  0  0  0  0  0  0  0  0  0  0  0
  1  2  1  0  0  0  0
  2  3  1  0  0  0  0
  2  9  1  0  0  0  0
  3  4  2  0  0  0  0
  3  6  1  0  0  0  0
  6  5  1  0  0  0  0
  6  7  1  0  0  0  0
  7  8  2  0  0  0  0
  7 13  1  0  0  0  0
  8  9  1  0  0  0  0
  8 11  1  0  0  0  0
  9 10  2  0  0  0  0
 11 12  1  0  0  0  0
 12 13  2  0  0  0  0
M  END
>  <CHROM.1>
9.20531053,3.49345903,36.10576090,-0.61903337,-1.24932009,-1.17973139

>  <Name>
1o15_lig

>  <RI>
0

>  <Rbt.Current_Directory>
/home/itssahil/PROJECTS/Mol_Feturizer/New_Systems/rnas/1o15

>  <Rbt.Executable>
rbdock ($Id: //depot/dev/client3/rdock/2013.1/src/exe/rbdock.cxx#4 $)

>  <Rbt.Library>
libRbt.so (2013.1, Build901 2013/11/27)

>  <Rbt.Parameter_File>
/export/apps/rDock/src/rDock_2013.1_src/data/scripts/dock_solv.prm

>  <Rbt.Receptor>
prm/pocket_docking_5.prm

>  <SCORE>
-23.1578

>  <SCORE.INTER>
-23.1578

>  <SCORE.INTER.CONST>
1

>  <SCORE.INTER.POLAR>
-1.23017

>  <SCORE.INTER.ROT>
0

>  <SCORE.INTER.SOLV>
8.70054

>  <SCORE.INTER.VDW>
-17.8381

>  <SCORE.INTER.norm>
-1.78137

>  <SCORE.INTRA>
0

>  <SCORE.INTRA.DIHEDRAL>
0

>  <SCORE.INTRA.DIHEDRAL.0>
0

>  <SCORE.INTRA.POLAR>
0

>  <SCORE.INTRA.POLAR.0>
0

>  <SCORE.INTRA.REPUL>
0

>  <SCORE.INTRA.REPUL.0>
0

>  <SCORE.INTRA.SOLV>
0

>  <SCORE.INTRA.SOLV.lig_0>
-12.9184

>  <SCORE.INTRA.VDW>
0

>  <SCORE.INTRA.VDW.0>
0

>  <SCORE.INTRA.norm>
0

>  <SCORE.RESTR>
0

>  <SCORE.RESTR.CAVITY>
0

>  <SCORE.RESTR.norm>
0

>  <SCORE.SYSTEM>
0

>  <SCORE.SYSTEM.CONST>
0

>  <SCORE.SYSTEM.DIHEDRAL>
0

>  <SCORE.SYSTEM.SOLV>
0

>  <SCORE.SYSTEM.norm>
0

>  <SCORE.heavy>
13

>  <SCORE.norm>
-1.78137

>  <RMSD>
3.490

$$$$
1o15_lig
 OpenBabel11021811403D
libRbt.so/2013.1/901 2013/11/27
 13 14  0  0  0  0  0  0  0  0999 V2000
   10.0559    5.6584   37.7881 C   0  0  0  0  0  0  0  0  0  0  0  0
    9.6344    4.6187   36.9889 N   0  0  0  0  0  0  0  0  0  0  0  0
    9.3392    3.4372   37.5919 C   0  0  0  0  0  0  0  0  0  0  0  0
    9.4828    3.4059   38.8114 O   0  0  0  0  0  0  0  0  0  0  0  0
    8.6205    1.1282   37.5764 C   0  0  0  0  0  0  0  0  0  0  0  0
    8.9100    2.3156   36.9388 N   0  0  0  0  0  0  0  0  0  0  0  0
    8.7972    2.4931   35.5946 C   0  0  0  0  0  0  0  0  0  0  0  0
    9.0944    3.6855   35.0011 C   0  0  0  0  0  0  0  0  0  0  0  0
    9.5373    4.8457   35.6632 C   0  0  0  0  0  0  0  0  0  0  0  0
    9.8204    5.9440   35.1916 O   0  0  0  0  0  0  0  0  0  0  0  0
    8.8685    3.4992   33.6449 N   0  0  0  0  0  0  0  0  0  0  0  0
    8.4518    2.2154   33.5113 C   0  0  0  0  0  0  0  0  0  0  0  0
    8.3908    1.5649   34.6417 N   0  0  0  0  0  0  0  0  0  0  0  0
  1  2  1  0  0  0  0
  2  3  1  0  0  0  0
  2  9  1  0  0  0  0
  3  4  2  0  0  0  0
  3  6  1  0  0  0  0
  6  5  1  0  0  0  0
  6  7  1  0  0  0  0
  7  8  2  0  0  0  0
  7 13  1  0  0  0  0
  8  9  1  0  0  0  0
  8 11  1  0  0  0  0
  9 10  2  0  0  0  0
 11 12  1  0  0  0  0
 12 13  2  0  0  0  0
M  END
>  <CHROM.1>
9.16849670,3.47716203,36.11289494,-0.63763722,-1.24750573,-1.18961092

>  <Name>
1o15_lig

>  <RI>
0

>  <Rbt.Current_Directory>
/home/itssahil/PROJECTS/Mol_Feturizer/New_Systems/rnas/1o15

>  <Rbt.Executable>
rbdock ($Id: //depot/dev/client3/rdock/2013.1/src/exe/rbdock.cxx#4 $)

>  <Rbt.Library>
libRbt.so (2013.1, Build901 2013/11/27)

>  <Rbt.Parameter_File>
/export/apps/rDock/src/rDock_2013.1_src/data/scripts/dock_solv.prm

>  <Rbt.Receptor>
prm/pocket_docking_8.prm

>  <SCORE>
-23.1623

>  <SCORE.INTER>
-23.1623

>  <SCORE.INTER.CONST>
1

>  <SCORE.INTER.POLAR>
-1.21485

>  <SCORE.INTER.ROT>
0

>  <SCORE.INTER.SOLV>
8.69252

>  <SCORE.INTER.VDW>
-17.8895

>  <SCORE.INTER.norm>
-1.78172

>  <SCORE.INTRA>
0

>  <SCORE.INTRA.DIHEDRAL>
0

>  <SCORE.INTRA.DIHEDRAL.0>
0

>  <SCORE.INTRA.POLAR>
0

>  <SCORE.INTRA.POLAR.0>
0

>  <SCORE.INTRA.REPUL>
0

>  <SCORE.INTRA.REPUL.0>
0

>  <SCORE.INTRA.SOLV>
0

>  <SCORE.INTRA.SOLV.lig_0>
-12.9184

>  <SCORE.INTRA.VDW>
0

>  <SCORE.INTRA.VDW.0>
0

>  <SCORE.INTRA.norm>
0

>  <SCORE.RESTR>
0

>  <SCORE.RESTR.CAVITY>
0

>  <SCORE.RESTR.norm>
0

>  <SCORE.SYSTEM>
0

>  <SCORE.SYSTEM.CONST>
0

>  <SCORE.SYSTEM.DIHEDRAL>
0

>  <SCORE.SYSTEM.SOLV>
0

>  <SCORE.SYSTEM.norm>
0

>  <SCORE.heavy>
13

>  <SCORE.norm>
-1.78172

>  <RMSD>
3.490

$$$$
1o15_lig
 OpenBabel11021811403D
libRbt.so/2013.1/901 2013/11/27
 13 14  0  0  0  0  0  0  0  0999 V2000
   10.0659    5.6606   37.7875 C   0  0  0  0  0  0  0  0  0  0  0  0
    9.6417    4.6222   36.9881 N   0  0  0  0  0  0  0  0  0  0  0  0
    9.3391    3.4427   37.5914 C   0  0  0  0  0  0  0  0  0  0  0  0
    9.4792    3.4119   38.8114 O   0  0  0  0  0  0  0  0  0  0  0  0
    8.6094    1.1371   37.5762 C   0  0  0  0  0  0  0  0  0  0  0  0
    8.9063    2.3225   36.9382 N   0  0  0  0  0  0  0  0  0  0  0  0
    8.7982    2.4992   35.5935 C   0  0  0  0  0  0  0  0  0  0  0  0
    9.1028    3.6897   34.9997 C   0  0  0  0  0  0  0  0  0  0  0  0
    9.5495    4.8483   35.6619 C   0  0  0  0  0  0  0  0  0  0  0  0
    9.8391    5.9449   35.1902 O   0  0  0  0  0  0  0  0  0  0  0  0
    8.8798    3.5031   33.6431 N   0  0  0  0  0  0  0  0  0  0  0  0
    8.4573    2.2212   33.5096 C   0  0  0  0  0  0  0  0  0  0  0  0
    8.3900    1.5721   34.6404 N   0  0  0  0  0  0  0  0  0  0  0  0
  1  2  1  0  0  0  0
  2  3  1  0  0  0  0
  2  9  1  0  0  0  0
  3  4  2  0  0  0  0
  3  6  1  0  0  0  0
  6  5  1  0  0  0  0
  6  7  1  0  0  0  0
  7  8  2  0  0  0  0
  7 13  1  0  0  0  0
  8  9  1  0  0  0  0
  8 11  1  0  0  0  0
  9 10  2  0  0  0  0
 11 12  1  0  0  0  0
 12 13  2  0  0  0  0
M  END
>  <CHROM.1>
9.17277493,3.48203790,36.11193771,-0.65133687,-1.24405081,-1.20355906

>  <Name>
1o15_lig

>  <RI>
0

>  <Rbt.Current_Directory>
/home/itssahil/PROJECTS/Mol_Feturizer/New_Systems/rnas/1o15

>  <Rbt.Executable>
rbdock ($Id: //depot/dev/client3/rdock/2013.1/src/exe/rbdock.cxx#4 $)

>  <Rbt.Library>
libRbt.so (2013.1, Build901 2013/11/27)

>  <Rbt.Parameter_File>
/export/apps/rDock/src/rDock_2013.1_src/data/scripts/dock_solv.prm

>  <Rbt.Receptor>
prm/pocket_docking_7.prm

>  <SCORE>
-23.1754

>  <SCORE.INTER>
-23.1754

>  <SCORE.INTER.CONST>
1

>  <SCORE.INTER.POLAR>
-1.22191

>  <SCORE.INTER.ROT>
0

>  <SCORE.INTER.SOLV>
8.72544

>  <SCORE.INTER.VDW>
-17.8857

>  <SCORE.INTER.norm>
-1.78272

>  <SCORE.INTRA>
0

>  <SCORE.INTRA.DIHEDRAL>
0

>  <SCORE.INTRA.DIHEDRAL.0>
0

>  <SCORE.INTRA.POLAR>
0

>  <SCORE.INTRA.POLAR.0>
0

>  <SCORE.INTRA.REPUL>
0

>  <SCORE.INTRA.REPUL.0>
0

>  <SCORE.INTRA.SOLV>
0

>  <SCORE.INTRA.SOLV.lig_0>
-12.9184

>  <SCORE.INTRA.VDW>
0

>  <SCORE.INTRA.VDW.0>
0

>  <SCORE.INTRA.norm>
0

>  <SCORE.RESTR>
0

>  <SCORE.RESTR.CAVITY>
0

>  <SCORE.RESTR.norm>
0

>  <SCORE.SYSTEM>
0

>  <SCORE.SYSTEM.CONST>
0

>  <SCORE.SYSTEM.DIHEDRAL>
0

>  <SCORE.SYSTEM.SOLV>
0

>  <SCORE.SYSTEM.norm>
0

>  <SCORE.heavy>
13

>  <SCORE.norm>
-1.78272

>  <RMSD>
3.491

$$$$
1o15_lig
 OpenBabel11021811403D
libRbt.so/2013.1/901 2013/11/27
 13 14  0  0  0  0  0  0  0  0999 V2000
   10.0972    5.6762   37.7593 C   0  0  0  0  0  0  0  0  0  0  0  0
    9.6651    4.6360   36.9665 N   0  0  0  0  0  0  0  0  0  0  0  0
    9.3689    3.4578   37.5754 C   0  0  0  0  0  0  0  0  0  0  0  0
    9.5214    3.4295   38.7939 O   0  0  0  0  0  0  0  0  0  0  0  0
    8.6395    1.1520   37.5724 C   0  0  0  0  0  0  0  0  0  0  0  0
    8.9297    2.3361   36.9289 N   0  0  0  0  0  0  0  0  0  0  0  0
    8.8079    2.5099   35.5850 C   0  0  0  0  0  0  0  0  0  0  0  0
    9.1062    3.6992   34.9857 C   0  0  0  0  0  0  0  0  0  0  0  0
    9.5594    4.8593   35.6409 C   0  0  0  0  0  0  0  0  0  0  0  0
    9.8440    5.9549   35.1638 O   0  0  0  0  0  0  0  0  0  0  0  0
    8.8695    3.5097   33.6318 N   0  0  0  0  0  0  0  0  0  0  0  0
    8.4459    2.2275   33.5053 C   0  0  0  0  0  0  0  0  0  0  0  0
    8.3902    1.5807   34.6381 N   0  0  0  0  0  0  0  0  0  0  0  0
  1  2  1  0  0  0  0
  2  3  1  0  0  0  0
  2  9  1  0  0  0  0
  3  4  2  0  0  0  0
  3  6  1  0  0  0  0
  6  5  1  0  0  0  0
  6  7  1  0  0  0  0
  7  8  2  0  0  0  0
  7 13  1  0  0  0  0
  8  9  1  0  0  0  0
  8 11  1  0  0  0  0
  9 10  2  0  0  0  0
 11 12  1  0  0  0  0
 12 13  2  0  0  0  0
M  END
>  <CHROM.1>
9.18753425,3.49391563,36.09756117,-0.62186682,-1.24045311,-1.17778193

>  <Name>
1o15_lig

>  <RI>
0

>  <Rbt.Current_Directory>
/home/itssahil/PROJECTS/Mol_Feturizer/New_Systems/rnas/1o15

>  <Rbt.Executable>
rbdock ($Id: //depot/dev/client3/rdock/2013.1/src/exe/rbdock.cxx#4 $)

>  <Rbt.Library>
libRbt.so (2013.1, Build901 2013/11/27)

>  <Rbt.Parameter_File>
/export/apps/rDock/src/rDock_2013.1_src/data/scripts/dock_solv.prm

>  <Rbt.Receptor>
prm/pocket_docking_8.prm

>  <SCORE>
-23.161

>  <SCORE.INTER>
-23.161

>  <SCORE.INTER.CONST>
1

>  <SCORE.INTER.POLAR>
-1.21073

>  <SCORE.INTER.ROT>
0

>  <SCORE.INTER.SOLV>
8.7081

>  <SCORE.INTER.VDW>
-17.9076

>  <SCORE.INTER.norm>
-1.78162

>  <SCORE.INTRA>
0

>  <SCORE.INTRA.DIHEDRAL>
0

>  <SCORE.INTRA.DIHEDRAL.0>
0

>  <SCORE.INTRA.POLAR>
0

>  <SCORE.INTRA.POLAR.0>
0

>  <SCORE.INTRA.REPUL>
0

>  <SCORE.INTRA.REPUL.0>
0

>  <SCORE.INTRA.SOLV>
0

>  <SCORE.INTRA.SOLV.lig_0>
-12.9184

>  <SCORE.INTRA.VDW>
0

>  <SCORE.INTRA.VDW.0>
0

>  <SCORE.INTRA.norm>
0

>  <SCORE.RESTR>
0

>  <SCORE.RESTR.CAVITY>
0

>  <SCORE.RESTR.norm>
0

>  <SCORE.SYSTEM>
0

>  <SCORE.SYSTEM.CONST>
0

>  <SCORE.SYSTEM.DIHEDRAL>
0

>  <SCORE.SYSTEM.SOLV>
0

>  <SCORE.SYSTEM.norm>
0

>  <SCORE.heavy>
13

>  <SCORE.norm>
-1.78162

>  <RMSD>
3.491

$$$$
1o15_lig
 OpenBabel11021811403D
libRbt.so/2013.1/901 2013/11/27
 13 14  0  0  0  0  0  0  0  0999 V2000
   10.0592    5.6643   37.7845 C   0  0  0  0  0  0  0  0  0  0  0  0
    9.6369    4.6245   36.9858 N   0  0  0  0  0  0  0  0  0  0  0  0
    9.3361    3.4450   37.5899 C   0  0  0  0  0  0  0  0  0  0  0  0
    9.4758    3.4154   38.8099 O   0  0  0  0  0  0  0  0  0  0  0  0
    8.6102    1.1382   37.5762 C   0  0  0  0  0  0  0  0  0  0  0  0
    8.9054    2.3236   36.9374 N   0  0  0  0  0  0  0  0  0  0  0  0
    8.7973    2.4991   35.5925 C   0  0  0  0  0  0  0  0  0  0  0  0
    9.1001    3.6896   34.9979 C   0  0  0  0  0  0  0  0  0  0  0  0
    9.5447    4.8495   35.6594 C   0  0  0  0  0  0  0  0  0  0  0  0
    9.8327    5.9462   35.1869 O   0  0  0  0  0  0  0  0  0  0  0  0
    8.8779    3.5017   33.6413 N   0  0  0  0  0  0  0  0  0  0  0  0
    8.4575    2.2190   33.5087 C   0  0  0  0  0  0  0  0  0  0  0  0
    8.3909    1.5706   34.6400 N   0  0  0  0  0  0  0  0  0  0  0  0
  1  2  1  0  0  0  0
  2  3  1  0  0  0  0
  2  9  1  0  0  0  0
  3  4  2  0  0  0  0
  3  6  1  0  0  0  0
  6  5  1  0  0  0  0
  6  7  1  0  0  0  0
  7  8  2  0  0  0  0
  7 13  1  0  0  0  0
  8  9  1  0  0  0  0
  8 11  1  0  0  0  0
  9 10  2  0  0  0  0
 11 12  1  0  0  0  0
 12 13  2  0  0  0  0
M  END
>  <CHROM.1>
9.17011415,3.48296351,36.11030473,-0.65034542,-1.24570533,-1.20337742

>  <Name>
1o15_lig

>  <RI>
0

>  <Rbt.Current_Directory>
/home/itssahil/PROJECTS/Mol_Feturizer/New_Systems/rnas/1o15

>  <Rbt.Executable>
rbdock ($Id: //depot/dev/client3/rdock/2013.1/src/exe/rbdock.cxx#4 $)

>  <Rbt.Library>
libRbt.so (2013.1, Build901 2013/11/27)

>  <Rbt.Parameter_File>
/export/apps/rDock/src/rDock_2013.1_src/data/scripts/dock_solv.prm

>  <Rbt.Receptor>
prm/pocket_docking_5.prm

>  <SCORE>
-23.1709

>  <SCORE.INTER>
-23.1709

>  <SCORE.INTER.CONST>
1

>  <SCORE.INTER.POLAR>
-1.22154

>  <SCORE.INTER.ROT>
0

>  <SCORE.INTER.SOLV>
8.73131

>  <SCORE.INTER.VDW>
-17.8859

>  <SCORE.INTER.norm>
-1.78238

>  <SCORE.INTRA>
0

>  <SCORE.INTRA.DIHEDRAL>
0

>  <SCORE.INTRA.DIHEDRAL.0>
0

>  <SCORE.INTRA.POLAR>
0

>  <SCORE.INTRA.POLAR.0>
0

>  <SCORE.INTRA.REPUL>
0

>  <SCORE.INTRA.REPUL.0>
0

>  <SCORE.INTRA.SOLV>
0

>  <SCORE.INTRA.SOLV.lig_0>
-12.9184

>  <SCORE.INTRA.VDW>
0

>  <SCORE.INTRA.VDW.0>
0

>  <SCORE.INTRA.norm>
0

>  <SCORE.RESTR>
0

>  <SCORE.RESTR.CAVITY>
0

>  <SCORE.RESTR.norm>
0

>  <SCORE.SYSTEM>
0

>  <SCORE.SYSTEM.CONST>
0

>  <SCORE.SYSTEM.DIHEDRAL>
0

>  <SCORE.SYSTEM.SOLV>
0

>  <SCORE.SYSTEM.norm>
0

>  <SCORE.heavy>
13

>  <SCORE.norm>
-1.78238

>  <RMSD>
3.492

$$$$
1o15_lig
 OpenBabel11021811403D
libRbt.so/2013.1/901 2013/11/27
 13 14  0  0  0  0  0  0  0  0999 V2000
   10.0531    5.7213   37.7520 C   0  0  0  0  0  0  0  0  0  0  0  0
    9.6418    4.6633   36.9716 N   0  0  0  0  0  0  0  0  0  0  0  0
    9.3607    3.4892   37.5954 C   0  0  0  0  0  0  0  0  0  0  0  0
    9.5069    3.4804   38.8150 O   0  0  0  0  0  0  0  0  0  0  0  0
    8.6678    1.1724   37.6210 C   0  0  0  0  0  0  0  0  0  0  0  0
    8.9429    2.3518   36.9625 N   0  0  0  0  0  0  0  0  0  0  0  0
    8.8257    2.5049   35.6157 C   0  0  0  0  0  0  0  0  0  0  0  0
    9.1086    3.6902   35.0012 C   0  0  0  0  0  0  0  0  0  0  0  0
    9.5398    4.8664   35.6424 C   0  0  0  0  0  0  0  0  0  0  0  0
    9.8098    5.9596   35.1515 O   0  0  0  0  0  0  0  0  0  0  0  0
    8.8824    3.4781   33.6489 N   0  0  0  0  0  0  0  0  0  0  0  0
    8.4797    2.1877   33.5382 C   0  0  0  0  0  0  0  0  0  0  0  0
    8.4279    1.5560   34.6797 N   0  0  0  0  0  0  0  0  0  0  0  0
  1  2  1  0  0  0  0
  2  3  1  0  0  0  0
  2  9  1  0  0  0  0
  3  4  2  0  0  0  0
  3  6  1  0  0  0  0
  6  5  1  0  0  0  0
  6  7  1  0  0  0  0
  7  8  2  0  0  0  0
  7 13  1  0  0  0  0
  8  9  1  0  0  0  0
  8 11  1  0  0  0  0
  9 10  2  0  0  0  0
 11 12  1  0  0  0  0
 12 13  2  0  0  0  0
M  END
>  <CHROM.1>
9.18699622,3.50180702,36.11628653,-0.61887293,-1.25709534,-1.18897551

>  <Name>
1o15_lig

>  <RI>
0

>  <Rbt.Current_Directory>
/home/itssahil/PROJECTS/Mol_Feturizer/New_Systems/rnas/1o15

>  <Rbt.Executable>
rbdock ($Id: //depot/dev/client3/rdock/2013.1/src/exe/rbdock.cxx#4 $)

>  <Rbt.Library>
libRbt.so (2013.1, Build901 2013/11/27)

>  <Rbt.Parameter_File>
/export/apps/rDock/src/rDock_2013.1_src/data/scripts/dock_solv.prm

>  <Rbt.Receptor>
prm/blind_docking_80.prm

>  <SCORE>
-23.1021

>  <SCORE.INTER>
-23.1021

>  <SCORE.INTER.CONST>
1

>  <SCORE.INTER.POLAR>
-1.23594

>  <SCORE.INTER.ROT>
0

>  <SCORE.INTER.SOLV>
8.71532

>  <SCORE.INTER.VDW>
-17.7867

>  <SCORE.INTER.norm>
-1.77708

>  <SCORE.INTRA>
0

>  <SCORE.INTRA.DIHEDRAL>
0

>  <SCORE.INTRA.DIHEDRAL.0>
0

>  <SCORE.INTRA.POLAR>
0

>  <SCORE.INTRA.POLAR.0>
0

>  <SCORE.INTRA.REPUL>
0

>  <SCORE.INTRA.REPUL.0>
0

>  <SCORE.INTRA.SOLV>
0

>  <SCORE.INTRA.SOLV.lig_0>
-12.9184

>  <SCORE.INTRA.VDW>
0

>  <SCORE.INTRA.VDW.0>
0

>  <SCORE.INTRA.norm>
0

>  <SCORE.RESTR>
0

>  <SCORE.RESTR.CAVITY>
0

>  <SCORE.RESTR.norm>
0

>  <SCORE.SYSTEM>
0

>  <SCORE.SYSTEM.CONST>
0

>  <SCORE.SYSTEM.DIHEDRAL>
0

>  <SCORE.SYSTEM.SOLV>
0

>  <SCORE.SYSTEM.norm>
0

>  <SCORE.heavy>
13

>  <SCORE.norm>
-1.77708

>  <RMSD>
3.493

$$$$
1o15_lig
 OpenBabel11021811403D
libRbt.so/2013.1/901 2013/11/27
 13 14  0  0  0  0  0  0  0  0999 V2000
   10.0327    5.6715   37.7890 C   0  0  0  0  0  0  0  0  0  0  0  0
    9.6246    4.6256   36.9909 N   0  0  0  0  0  0  0  0  0  0  0  0
    9.3330    3.4446   37.5964 C   0  0  0  0  0  0  0  0  0  0  0  0
    9.4674    3.4192   38.8172 O   0  0  0  0  0  0  0  0  0  0  0  0
    8.6305    1.1305   37.5850 C   0  0  0  0  0  0  0  0  0  0  0  0
    8.9166    2.3173   36.9447 N   0  0  0  0  0  0  0  0  0  0  0  0
    8.8130    2.4885   35.5989 C   0  0  0  0  0  0  0  0  0  0  0  0
    9.1066    3.6806   35.0029 C   0  0  0  0  0  0  0  0  0  0  0  0
    9.5363    4.8465   35.6635 C   0  0  0  0  0  0  0  0  0  0  0  0
    9.8153    5.9449   35.1897 O   0  0  0  0  0  0  0  0  0  0  0  0
    8.8924    3.4873   33.6457 N   0  0  0  0  0  0  0  0  0  0  0  0
    8.4857    2.2001   33.5142 C   0  0  0  0  0  0  0  0  0  0  0  0
    8.4204    1.5537   34.6468 N   0  0  0  0  0  0  0  0  0  0  0  0
  1  2  1  0  0  0  0
  2  3  1  0  0  0  0
  2  9  1  0  0  0  0
  3  4  2  0  0  0  0
  3  6  1  0  0  0  0
  6  5  1  0  0  0  0
  6  7  1  0  0  0  0
  7  8  2  0  0  0  0
  7 13  1  0  0  0  0
  8  9  1  0  0  0  0
  8 11  1  0  0  0  0
  9 10  2  0  0  0  0
 11 12  1  0  0  0  0
 12 13  2  0  0  0  0
M  END
>  <CHROM.1>
9.17347614,3.47730556,36.11603035,-0.65252968,-1.25679607,-1.20784245

>  <Name>
1o15_lig

>  <RI>
0

>  <Rbt.Current_Directory>
/home/itssahil/PROJECTS/Mol_Feturizer/New_Systems/rnas/1o15

>  <Rbt.Executable>
rbdock ($Id: //depot/dev/client3/rdock/2013.1/src/exe/rbdock.cxx#4 $)

>  <Rbt.Library>
libRbt.so (2013.1, Build901 2013/11/27)

>  <Rbt.Parameter_File>
/export/apps/rDock/src/rDock_2013.1_src/data/scripts/dock_solv.prm

>  <Rbt.Receptor>
prm/pocket_docking_8.prm

>  <SCORE>
-23.1146

>  <SCORE.INTER>
-23.1146

>  <SCORE.INTER.CONST>
1

>  <SCORE.INTER.POLAR>
-1.23526

>  <SCORE.INTER.ROT>
0

>  <SCORE.INTER.SOLV>
8.73081

>  <SCORE.INTER.VDW>
-17.8025

>  <SCORE.INTER.norm>
-1.77805

>  <SCORE.INTRA>
0

>  <SCORE.INTRA.DIHEDRAL>
0

>  <SCORE.INTRA.DIHEDRAL.0>
0

>  <SCORE.INTRA.POLAR>
0

>  <SCORE.INTRA.POLAR.0>
0

>  <SCORE.INTRA.REPUL>
0

>  <SCORE.INTRA.REPUL.0>
0

>  <SCORE.INTRA.SOLV>
0

>  <SCORE.INTRA.SOLV.lig_0>
-12.9184

>  <SCORE.INTRA.VDW>
0

>  <SCORE.INTRA.VDW.0>
0

>  <SCORE.INTRA.norm>
0

>  <SCORE.RESTR>
0

>  <SCORE.RESTR.CAVITY>
0

>  <SCORE.RESTR.norm>
0

>  <SCORE.SYSTEM>
0

>  <SCORE.SYSTEM.CONST>
0

>  <SCORE.SYSTEM.DIHEDRAL>
0

>  <SCORE.SYSTEM.SOLV>
0

>  <SCORE.SYSTEM.norm>
0

>  <SCORE.heavy>
13

>  <SCORE.norm>
-1.77805

>  <RMSD>
3.493

$$$$
1o15_lig
 OpenBabel11021811403D
libRbt.so/2013.1/901 2013/11/27
 13 14  0  0  0  0  0  0  0  0999 V2000
   10.0707    5.6662   37.7820 C   0  0  0  0  0  0  0  0  0  0  0  0
    9.6452    4.6275   36.9836 N   0  0  0  0  0  0  0  0  0  0  0  0
    9.3392    3.4496   37.5883 C   0  0  0  0  0  0  0  0  0  0  0  0
    9.4776    3.4203   38.8085 O   0  0  0  0  0  0  0  0  0  0  0  0
    8.6044    1.1456   37.5756 C   0  0  0  0  0  0  0  0  0  0  0  0
    8.9048    2.3294   36.9362 N   0  0  0  0  0  0  0  0  0  0  0  0
    8.7988    2.5043   35.5911 C   0  0  0  0  0  0  0  0  0  0  0  0
    9.1069    3.6931   34.9959 C   0  0  0  0  0  0  0  0  0  0  0  0
    9.5552    4.8518   35.6570 C   0  0  0  0  0  0  0  0  0  0  0  0
    9.8479    5.9470   35.1839 O   0  0  0  0  0  0  0  0  0  0  0  0
    8.8852    3.5050   33.6393 N   0  0  0  0  0  0  0  0  0  0  0  0
    8.4600    2.2239   33.5072 C   0  0  0  0  0  0  0  0  0  0  0  0
    8.3898    1.5766   34.6389 N   0  0  0  0  0  0  0  0  0  0  0  0
  1  2  1  0  0  0  0
  2  3  1  0  0  0  0
  2  9  1  0  0  0  0
  3  4  2  0  0  0  0
  3  6  1  0  0  0  0
  6  5  1  0  0  0  0
  6  7  1  0  0  0  0
  7  8  2  0  0  0  0
  7 13  1  0  0  0  0
  8  9  1  0  0  0  0
  8 11  1  0  0  0  0
  9 10  2  0  0  0  0
 11 12  1  0  0  0  0
 12 13  2  0  0  0  0
M  END
>  <CHROM.1>
9.17488749,3.48704704,36.10854988,-0.65762462,-1.24244378,-1.21103322

>  <Name>
1o15_lig

>  <RI>
0

>  <Rbt.Current_Directory>
/home/itssahil/PROJECTS/Mol_Feturizer/New_Systems/rnas/1o15

>  <Rbt.Executable>
rbdock ($Id: //depot/dev/client3/rdock/2013.1/src/exe/rbdock.cxx#4 $)

>  <Rbt.Library>
libRbt.so (2013.1, Build901 2013/11/27)

>  <Rbt.Parameter_File>
/export/apps/rDock/src/rDock_2013.1_src/data/scripts/dock_solv.prm

>  <Rbt.Receptor>
prm/pocket_docking_8.prm

>  <SCORE>
-23.1755

>  <SCORE.INTER>
-23.1755

>  <SCORE.INTER.CONST>
1

>  <SCORE.INTER.POLAR>
-1.22545

>  <SCORE.INTER.ROT>
0

>  <SCORE.INTER.SOLV>
8.75159

>  <SCORE.INTER.VDW>
-17.8827

>  <SCORE.INTER.norm>
-1.78273

>  <SCORE.INTRA>
0

>  <SCORE.INTRA.DIHEDRAL>
0

>  <SCORE.INTRA.DIHEDRAL.0>
0

>  <SCORE.INTRA.POLAR>
0

>  <SCORE.INTRA.POLAR.0>
0

>  <SCORE.INTRA.REPUL>
0

>  <SCORE.INTRA.REPUL.0>
0

>  <SCORE.INTRA.SOLV>
0

>  <SCORE.INTRA.SOLV.lig_0>
-12.9184

>  <SCORE.INTRA.VDW>
0

>  <SCORE.INTRA.VDW.0>
0

>  <SCORE.INTRA.norm>
0

>  <SCORE.RESTR>
0

>  <SCORE.RESTR.CAVITY>
0

>  <SCORE.RESTR.norm>
0

>  <SCORE.SYSTEM>
0

>  <SCORE.SYSTEM.CONST>
0

>  <SCORE.SYSTEM.DIHEDRAL>
0

>  <SCORE.SYSTEM.SOLV>
0

>  <SCORE.SYSTEM.norm>
0

>  <SCORE.heavy>
13

>  <SCORE.norm>
-1.78273

>  <RMSD>
3.493

$$$$
1o15_lig
 OpenBabel11021811403D
libRbt.so/2013.1/901 2013/11/27
 13 14  0  0  0  0  0  0  0  0999 V2000
   10.0872    5.6824   37.7572 C   0  0  0  0  0  0  0  0  0  0  0  0
    9.6576    4.6406   36.9652 N   0  0  0  0  0  0  0  0  0  0  0  0
    9.3597    3.4635   37.5755 C   0  0  0  0  0  0  0  0  0  0  0  0
    9.5086    3.4377   38.7945 O   0  0  0  0  0  0  0  0  0  0  0  0
    8.6308    1.1576   37.5749 C   0  0  0  0  0  0  0  0  0  0  0  0
    8.9227    2.3405   36.9299 N   0  0  0  0  0  0  0  0  0  0  0  0
    8.8049    2.5116   35.5853 C   0  0  0  0  0  0  0  0  0  0  0  0
    9.1048    3.6997   34.9845 C   0  0  0  0  0  0  0  0  0  0  0  0
    9.5558    4.8613   35.6388 C   0  0  0  0  0  0  0  0  0  0  0  0
    9.8417    5.9559   35.1604 O   0  0  0  0  0  0  0  0  0  0  0  0
    8.8722    3.5076   33.6303 N   0  0  0  0  0  0  0  0  0  0  0  0
    8.4492    2.2250   33.5051 C   0  0  0  0  0  0  0  0  0  0  0  0
    8.3901    1.5805   34.6390 N   0  0  0  0  0  0  0  0  0  0  0  0
  1  2  1  0  0  0  0
  2  3  1  0  0  0  0
  2  9  1  0  0  0  0
  3  4  2  0  0  0  0
  3  6  1  0  0  0  0
  6  5  1  0  0  0  0
  6  7  1  0  0  0  0
  7  8  2  0  0  0  0
  7 13  1  0  0  0  0
  8  9  1  0  0  0  0
  8 11  1  0  0  0  0
  9 10  2  0  0  0  0
 11 12  1  0  0  0  0
 12 13  2  0  0  0  0
M  END
>  <CHROM.1>
9.18280633,3.49669115,36.09704970,-0.63024025,-1.24173978,-1.18768504

>  <Name>
1o15_lig

>  <RI>
0

>  <Rbt.Current_Directory>
/home/itssahil/PROJECTS/Mol_Feturizer/New_Systems/rnas/1o15

>  <Rbt.Executable>
rbdock ($Id: //depot/dev/client3/rdock/2013.1/src/exe/rbdock.cxx#4 $)

>  <Rbt.Library>
libRbt.so (2013.1, Build901 2013/11/27)

>  <Rbt.Parameter_File>
/export/apps/rDock/src/rDock_2013.1_src/data/scripts/dock_solv.prm

>  <Rbt.Receptor>
prm/pocket_docking_4.prm

>  <SCORE>
-23.1262

>  <SCORE.INTER>
-23.1262

>  <SCORE.INTER.CONST>
1

>  <SCORE.INTER.POLAR>
-1.21476

>  <SCORE.INTER.ROT>
0

>  <SCORE.INTER.SOLV>
8.73468

>  <SCORE.INTER.VDW>
-17.8799

>  <SCORE.INTER.norm>
-1.77894

>  <SCORE.INTRA>
0

>  <SCORE.INTRA.DIHEDRAL>
0

>  <SCORE.INTRA.DIHEDRAL.0>
0

>  <SCORE.INTRA.POLAR>
0

>  <SCORE.INTRA.POLAR.0>
0

>  <SCORE.INTRA.REPUL>
0

>  <SCORE.INTRA.REPUL.0>
0

>  <SCORE.INTRA.SOLV>
0

>  <SCORE.INTRA.SOLV.lig_0>
-12.9184

>  <SCORE.INTRA.VDW>
0

>  <SCORE.INTRA.VDW.0>
0

>  <SCORE.INTRA.norm>
0

>  <SCORE.RESTR>
0

>  <SCORE.RESTR.CAVITY>
0

>  <SCORE.RESTR.norm>
0

>  <SCORE.SYSTEM>
0

>  <SCORE.SYSTEM.CONST>
0

>  <SCORE.SYSTEM.DIHEDRAL>
0

>  <SCORE.SYSTEM.SOLV>
0

>  <SCORE.SYSTEM.norm>
0

>  <SCORE.heavy>
13

>  <SCORE.norm>
-1.77894

>  <RMSD>
3.494

$$$$
1o15_lig
 OpenBabel11021811403D
libRbt.so/2013.1/901 2013/11/27
 13 14  0  0  0  0  0  0  0  0999 V2000
   10.0805    5.6926   37.7560 C   0  0  0  0  0  0  0  0  0  0  0  0
    9.6524    4.6478   36.9671 N   0  0  0  0  0  0  0  0  0  0  0  0
    9.3546    3.4726   37.5811 C   0  0  0  0  0  0  0  0  0  0  0  0
    9.5022    3.4511   38.8004 O   0  0  0  0  0  0  0  0  0  0  0  0
    8.6270    1.1663   37.5877 C   0  0  0  0  0  0  0  0  0  0  0  0
    8.9189    2.3472   36.9390 N   0  0  0  0  0  0  0  0  0  0  0  0
    8.8024    2.5136   35.5937 C   0  0  0  0  0  0  0  0  0  0  0  0
    9.1023    3.6998   34.9891 C   0  0  0  0  0  0  0  0  0  0  0  0
    9.5519    4.8638   35.6398 C   0  0  0  0  0  0  0  0  0  0  0  0
    9.8376    5.9570   35.1580 O   0  0  0  0  0  0  0  0  0  0  0  0
    8.8712    3.5028   33.6353 N   0  0  0  0  0  0  0  0  0  0  0  0
    8.4490    2.2196   33.5141 C   0  0  0  0  0  0  0  0  0  0  0  0
    8.3892    1.5789   34.6502 N   0  0  0  0  0  0  0  0  0  0  0  0
  1  2  1  0  0  0  0
  2  3  1  0  0  0  0
  2  9  1  0  0  0  0
  3  4  2  0  0  0  0
  3  6  1  0  0  0  0
  6  5  1  0  0  0  0
  6  7  1  0  0  0  0
  7  8  2  0  0  0  0
  7 13  1  0  0  0  0
  8  9  1  0  0  0  0
  8 11  1  0  0  0  0
  9 10  2  0  0  0  0
 11 12  1  0  0  0  0
 12 13  2  0  0  0  0
M  END
>  <CHROM.1>
9.17920019,3.50062631,36.10239601,-0.63262592,-1.24267005,-1.19338772

>  <Name>
1o15_lig

>  <RI>
0

>  <Rbt.Current_Directory>
/home/itssahil/PROJECTS/Mol_Feturizer/New_Systems/rnas/1o15

>  <Rbt.Executable>
rbdock ($Id: //depot/dev/client3/rdock/2013.1/src/exe/rbdock.cxx#4 $)

>  <Rbt.Library>
libRbt.so (2013.1, Build901 2013/11/27)

>  <Rbt.Parameter_File>
/export/apps/rDock/src/rDock_2013.1_src/data/scripts/dock_solv.prm

>  <Rbt.Receptor>
prm/pocket_docking_8.prm

>  <SCORE>
-23.1269

>  <SCORE.INTER>
-23.1269

>  <SCORE.INTER.CONST>
1

>  <SCORE.INTER.POLAR>
-1.2189

>  <SCORE.INTER.ROT>
0

>  <SCORE.INTER.SOLV>
8.74078

>  <SCORE.INTER.VDW>
-17.8685

>  <SCORE.INTER.norm>
-1.779

>  <SCORE.INTRA>
0

>  <SCORE.INTRA.DIHEDRAL>
0

>  <SCORE.INTRA.DIHEDRAL.0>
0

>  <SCORE.INTRA.POLAR>
0

>  <SCORE.INTRA.POLAR.0>
0

>  <SCORE.INTRA.REPUL>
0

>  <SCORE.INTRA.REPUL.0>
0

>  <SCORE.INTRA.SOLV>
0

>  <SCORE.INTRA.SOLV.lig_0>
-12.9184

>  <SCORE.INTRA.VDW>
0

>  <SCORE.INTRA.VDW.0>
0

>  <SCORE.INTRA.norm>
0

>  <SCORE.RESTR>
0

>  <SCORE.RESTR.CAVITY>
0

>  <SCORE.RESTR.norm>
0

>  <SCORE.SYSTEM>
0

>  <SCORE.SYSTEM.CONST>
0

>  <SCORE.SYSTEM.DIHEDRAL>
0

>  <SCORE.SYSTEM.SOLV>
0

>  <SCORE.SYSTEM.norm>
0

>  <SCORE.heavy>
13

>  <SCORE.norm>
-1.779

>  <RMSD>
3.494

$$$$
1o15_lig
 OpenBabel11021811403D
libRbt.so/2013.1/901 2013/11/27
 13 14  0  0  0  0  0  0  0  0999 V2000
   10.0404    5.6765   37.7728 C   0  0  0  0  0  0  0  0  0  0  0  0
    9.6222    4.6320   36.9780 N   0  0  0  0  0  0  0  0  0  0  0  0
    9.3304    3.4523   37.5862 C   0  0  0  0  0  0  0  0  0  0  0  0
    9.4740    3.4267   38.8058 O   0  0  0  0  0  0  0  0  0  0  0  0
    8.6188    1.1410   37.5807 C   0  0  0  0  0  0  0  0  0  0  0  0
    8.9048    2.3265   36.9379 N   0  0  0  0  0  0  0  0  0  0  0  0
    8.7917    2.4978   35.5929 C   0  0  0  0  0  0  0  0  0  0  0  0
    9.0854    3.6886   34.9943 C   0  0  0  0  0  0  0  0  0  0  0  0
    9.5247    4.8529   35.6514 C   0  0  0  0  0  0  0  0  0  0  0  0
    9.8045    5.9501   35.1751 O   0  0  0  0  0  0  0  0  0  0  0  0
    8.8602    3.4957   33.6389 N   0  0  0  0  0  0  0  0  0  0  0  0
    8.4474    2.2101   33.5108 C   0  0  0  0  0  0  0  0  0  0  0  0
    8.3882    1.5643   34.6441 N   0  0  0  0  0  0  0  0  0  0  0  0
  1  2  1  0  0  0  0
  2  3  1  0  0  0  0
  2  9  1  0  0  0  0
  3  4  2  0  0  0  0
  3  6  1  0  0  0  0
  6  5  1  0  0  0  0
  6  7  1  0  0  0  0
  7  8  2  0  0  0  0
  7 13  1  0  0  0  0
  8  9  1  0  0  0  0
  8 11  1  0  0  0  0
  9 10  2  0  0  0  0
 11 12  1  0  0  0  0
 12 13  2  0  0  0  0
M  END
>  <CHROM.1>
9.15990582,3.48528342,36.10698219,-0.63455473,-1.25036897,-1.19104145

>  <Name>
1o15_lig

>  <RI>
0

>  <Rbt.Current_Directory>
/home/itssahil/PROJECTS/Mol_Feturizer/New_Systems/rnas/1o15

>  <Rbt.Executable>
rbdock ($Id: //depot/dev/client3/rdock/2013.1/src/exe/rbdock.cxx#4 $)

>  <Rbt.Library>
libRbt.so (2013.1, Build901 2013/11/27)

>  <Rbt.Parameter_File>
/export/apps/rDock/src/rDock_2013.1_src/data/scripts/dock_solv.prm

>  <Rbt.Receptor>
prm/blind_docking_80.prm

>  <SCORE>
-23.1404

>  <SCORE.INTER>
-23.1404

>  <SCORE.INTER.CONST>
1

>  <SCORE.INTER.POLAR>
-1.21369

>  <SCORE.INTER.ROT>
0

>  <SCORE.INTER.SOLV>
8.72049

>  <SCORE.INTER.VDW>
-17.8881

>  <SCORE.INTER.norm>
-1.78003

>  <SCORE.INTRA>
0

>  <SCORE.INTRA.DIHEDRAL>
0

>  <SCORE.INTRA.DIHEDRAL.0>
0

>  <SCORE.INTRA.POLAR>
0

>  <SCORE.INTRA.POLAR.0>
0

>  <SCORE.INTRA.REPUL>
0

>  <SCORE.INTRA.REPUL.0>
0

>  <SCORE.INTRA.SOLV>
0

>  <SCORE.INTRA.SOLV.lig_0>
-12.9184

>  <SCORE.INTRA.VDW>
0

>  <SCORE.INTRA.VDW.0>
0

>  <SCORE.INTRA.norm>
0

>  <SCORE.RESTR>
0

>  <SCORE.RESTR.CAVITY>
0

>  <SCORE.RESTR.norm>
0

>  <SCORE.SYSTEM>
0

>  <SCORE.SYSTEM.CONST>
0

>  <SCORE.SYSTEM.DIHEDRAL>
0

>  <SCORE.SYSTEM.SOLV>
0

>  <SCORE.SYSTEM.norm>
0

>  <SCORE.heavy>
13

>  <SCORE.norm>
-1.78003

>  <RMSD>
3.495

$$$$
1o15_lig
 OpenBabel11021811403D
libRbt.so/2013.1/901 2013/11/27
 13 14  0  0  0  0  0  0  0  0999 V2000
   10.0600    5.6228   37.7844 C   0  0  0  0  0  0  0  0  0  0  0  0
    9.6339    4.5956   36.9716 N   0  0  0  0  0  0  0  0  0  0  0  0
    9.3335    3.4075   37.5590 C   0  0  0  0  0  0  0  0  0  0  0  0
    9.4772    3.3595   38.7780 O   0  0  0  0  0  0  0  0  0  0  0  0
    8.6047    1.1021   37.5132 C   0  0  0  0  0  0  0  0  0  0  0  0
    8.8993    2.2965   36.8912 N   0  0  0  0  0  0  0  0  0  0  0  0
    8.7871    2.4923   35.5494 C   0  0  0  0  0  0  0  0  0  0  0  0
    9.0895    3.6911   34.9718 C   0  0  0  0  0  0  0  0  0  0  0  0
    9.5376    4.8405   35.6490 C   0  0  0  0  0  0  0  0  0  0  0  0
    9.8255    5.9437   35.1920 O   0  0  0  0  0  0  0  0  0  0  0  0
    8.8626    3.5238   33.6132 N   0  0  0  0  0  0  0  0  0  0  0  0
    8.4402    2.2437   33.4628 C   0  0  0  0  0  0  0  0  0  0  0  0
    8.3764    1.5786   34.5845 N   0  0  0  0  0  0  0  0  0  0  0  0
  1  2  1  0  0  0  0
  2  3  1  0  0  0  0
  2  9  1  0  0  0  0
  3  4  2  0  0  0  0
  3  6  1  0  0  0  0
  6  5  1  0  0  0  0
  6  7  1  0  0  0  0
  7  8  2  0  0  0  0
  7 13  1  0  0  0  0
  8  9  1  0  0  0  0
  8 11  1  0  0  0  0
  9 10  2  0  0  0  0
 11 12  1  0  0  0  0
 12 13  2  0  0  0  0
M  END
>  <CHROM.1>
9.16281347,3.46777960,36.08068181,-0.64233266,-1.24335773,-1.18084017

>  <Name>
1o15_lig

>  <RI>
0

>  <Rbt.Current_Directory>
/home/itssahil/PROJECTS/Mol_Feturizer/New_Systems/rnas/1o15

>  <Rbt.Executable>
rbdock ($Id: //depot/dev/client3/rdock/2013.1/src/exe/rbdock.cxx#4 $)

>  <Rbt.Library>
libRbt.so (2013.1, Build901 2013/11/27)

>  <Rbt.Parameter_File>
/export/apps/rDock/src/rDock_2013.1_src/data/scripts/dock_solv.prm

>  <Rbt.Receptor>
prm/blind_docking_80.prm

>  <SCORE>
-23.1326

>  <SCORE.INTER>
-23.1326

>  <SCORE.INTER.CONST>
1

>  <SCORE.INTER.POLAR>
-1.19507

>  <SCORE.INTER.ROT>
0

>  <SCORE.INTER.SOLV>
8.72995

>  <SCORE.INTER.VDW>
-17.9482

>  <SCORE.INTER.norm>
-1.77943

>  <SCORE.INTRA>
0

>  <SCORE.INTRA.DIHEDRAL>
0

>  <SCORE.INTRA.DIHEDRAL.0>
0

>  <SCORE.INTRA.POLAR>
0

>  <SCORE.INTRA.POLAR.0>
0

>  <SCORE.INTRA.REPUL>
0

>  <SCORE.INTRA.REPUL.0>
0

>  <SCORE.INTRA.SOLV>
0

>  <SCORE.INTRA.SOLV.lig_0>
-12.9184

>  <SCORE.INTRA.VDW>
0

>  <SCORE.INTRA.VDW.0>
0

>  <SCORE.INTRA.norm>
0

>  <SCORE.RESTR>
0

>  <SCORE.RESTR.CAVITY>
0

>  <SCORE.RESTR.norm>
0

>  <SCORE.SYSTEM>
0

>  <SCORE.SYSTEM.CONST>
0

>  <SCORE.SYSTEM.DIHEDRAL>
0

>  <SCORE.SYSTEM.SOLV>
0

>  <SCORE.SYSTEM.norm>
0

>  <SCORE.heavy>
13

>  <SCORE.norm>
-1.77943

>  <RMSD>
3.496

$$$$
1o15_lig
 OpenBabel11021811403D
libRbt.so/2013.1/901 2013/11/27
 13 14  0  0  0  0  0  0  0  0999 V2000
   10.0455    5.6628   37.7814 C   0  0  0  0  0  0  0  0  0  0  0  0
    9.6269    4.6230   36.9807 N   0  0  0  0  0  0  0  0  0  0  0  0
    9.3271    3.4423   37.5829 C   0  0  0  0  0  0  0  0  0  0  0  0
    9.4643    3.4116   38.8032 O   0  0  0  0  0  0  0  0  0  0  0  0
    8.6057    1.1341   37.5653 C   0  0  0  0  0  0  0  0  0  0  0  0
    8.8999    2.3208   36.9283 N   0  0  0  0  0  0  0  0  0  0  0  0
    8.7944    2.4975   35.5834 C   0  0  0  0  0  0  0  0  0  0  0  0
    9.0962    3.6892   34.9907 C   0  0  0  0  0  0  0  0  0  0  0  0
    9.5371    4.8493   35.6544 C   0  0  0  0  0  0  0  0  0  0  0  0
    9.8239    5.9469   35.1836 O   0  0  0  0  0  0  0  0  0  0  0  0
    8.8771    3.5023   33.6335 N   0  0  0  0  0  0  0  0  0  0  0  0
    8.4595    2.2189   33.4986 C   0  0  0  0  0  0  0  0  0  0  0  0
    8.3918    1.5692   34.6291 N   0  0  0  0  0  0  0  0  0  0  0  0
  1  2  1  0  0  0  0
  2  3  1  0  0  0  0
  2  9  1  0  0  0  0
  3  4  2  0  0  0  0
  3  6  1  0  0  0  0
  6  5  1  0  0  0  0
  6  7  1  0  0  0  0
  7  8  2  0  0  0  0
  7 13  1  0  0  0  0
  8  9  1  0  0  0  0
  8 11  1  0  0  0  0
  9 10  2  0  0  0  0
 11 12  1  0  0  0  0
 12 13  2  0  0  0  0
M  END
>  <CHROM.1>
9.16418817,3.48148058,36.10304592,-0.65439106,-1.24826170,-1.20616291

>  <Name>
1o15_lig

>  <RI>
0

>  <Rbt.Current_Directory>
/home/itssahil/PROJECTS/Mol_Feturizer/New_Systems/rnas/1o15

>  <Rbt.Executable>
rbdock ($Id: //depot/dev/client3/rdock/2013.1/src/exe/rbdock.cxx#4 $)

>  <Rbt.Library>
libRbt.so (2013.1, Build901 2013/11/27)

>  <Rbt.Parameter_File>
/export/apps/rDock/src/rDock_2013.1_src/data/scripts/dock_solv.prm

>  <Rbt.Receptor>
prm/blind_docking_80.prm

>  <SCORE>
-23.1246

>  <SCORE.INTER>
-23.1246

>  <SCORE.INTER.CONST>
1

>  <SCORE.INTER.POLAR>
-1.22068

>  <SCORE.INTER.ROT>
0

>  <SCORE.INTER.SOLV>
8.75397

>  <SCORE.INTER.VDW>
-17.8654

>  <SCORE.INTER.norm>
-1.77881

>  <SCORE.INTRA>
0

>  <SCORE.INTRA.DIHEDRAL>
0

>  <SCORE.INTRA.DIHEDRAL.0>
0

>  <SCORE.INTRA.POLAR>
0

>  <SCORE.INTRA.POLAR.0>
0

>  <SCORE.INTRA.REPUL>
0

>  <SCORE.INTRA.REPUL.0>
0

>  <SCORE.INTRA.SOLV>
0

>  <SCORE.INTRA.SOLV.lig_0>
-12.9184

>  <SCORE.INTRA.VDW>
0

>  <SCORE.INTRA.VDW.0>
0

>  <SCORE.INTRA.norm>
0

>  <SCORE.RESTR>
0

>  <SCORE.RESTR.CAVITY>
0

>  <SCORE.RESTR.norm>
0

>  <SCORE.SYSTEM>
0

>  <SCORE.SYSTEM.CONST>
0

>  <SCORE.SYSTEM.DIHEDRAL>
0

>  <SCORE.SYSTEM.SOLV>
0

>  <SCORE.SYSTEM.norm>
0

>  <SCORE.heavy>
13

>  <SCORE.norm>
-1.77881

>  <RMSD>
3.496

$$$$
1o15_lig
 OpenBabel11021811403D
libRbt.so/2013.1/901 2013/11/27
 13 14  0  0  0  0  0  0  0  0999 V2000
   10.0339    5.6450   37.7926 C   0  0  0  0  0  0  0  0  0  0  0  0
    9.6247    4.6073   36.9844 N   0  0  0  0  0  0  0  0  0  0  0  0
    9.3291    3.4216   37.5788 C   0  0  0  0  0  0  0  0  0  0  0  0
    9.4613    3.3849   38.7994 O   0  0  0  0  0  0  0  0  0  0  0  0
    8.6211    1.1094   37.5452 C   0  0  0  0  0  0  0  0  0  0  0  0
    8.9112    2.3013   36.9161 N   0  0  0  0  0  0  0  0  0  0  0  0
    8.8104    2.4848   35.5718 C   0  0  0  0  0  0  0  0  0  0  0  0
    9.1079    3.6815   34.9870 C   0  0  0  0  0  0  0  0  0  0  0  0
    9.5393    4.8404   35.6589 C   0  0  0  0  0  0  0  0  0  0  0  0
    9.8218    5.9423   35.1955 O   0  0  0  0  0  0  0  0  0  0  0  0
    8.8958    3.5009   33.6278 N   0  0  0  0  0  0  0  0  0  0  0  0
    8.4861    2.2159   33.4840 C   0  0  0  0  0  0  0  0  0  0  0  0
    8.4173    1.5595   34.6106 N   0  0  0  0  0  0  0  0  0  0  0  0
  1  2  1  0  0  0  0
  2  3  1  0  0  0  0
  2  9  1  0  0  0  0
  3  4  2  0  0  0  0
  3  6  1  0  0  0  0
  6  5  1  0  0  0  0
  6  7  1  0  0  0  0
  7  8  2  0  0  0  0
  7 13  1  0  0  0  0
  8  9  1  0  0  0  0
  8 11  1  0  0  0  0
  9 10  2  0  0  0  0
 11 12  1  0  0  0  0
 12 13  2  0  0  0  0
M  END
>  <CHROM.1>
9.17234455,3.46803224,36.09842533,-0.66069452,-1.25516190,-1.20660923

>  <Name>
1o15_lig

>  <RI>
0

>  <Rbt.Current_Directory>
/home/itssahil/PROJECTS/Mol_Feturizer/New_Systems/rnas/1o15

>  <Rbt.Executable>
rbdock ($Id: //depot/dev/client3/rdock/2013.1/src/exe/rbdock.cxx#4 $)

>  <Rbt.Library>
libRbt.so (2013.1, Build901 2013/11/27)

>  <Rbt.Parameter_File>
/export/apps/rDock/src/rDock_2013.1_src/data/scripts/dock_solv.prm

>  <Rbt.Receptor>
prm/pocket_docking_7.prm

>  <SCORE>
-23.1264

>  <SCORE.INTER>
-23.1264

>  <SCORE.INTER.CONST>
1

>  <SCORE.INTER.POLAR>
-1.22752

>  <SCORE.INTER.ROT>
0

>  <SCORE.INTER.SOLV>
8.75446

>  <SCORE.INTER.VDW>
-17.844

>  <SCORE.INTER.norm>
-1.77895

>  <SCORE.INTRA>
0

>  <SCORE.INTRA.DIHEDRAL>
0

>  <SCORE.INTRA.DIHEDRAL.0>
0

>  <SCORE.INTRA.POLAR>
0

>  <SCORE.INTRA.POLAR.0>
0

>  <SCORE.INTRA.REPUL>
0

>  <SCORE.INTRA.REPUL.0>
0

>  <SCORE.INTRA.SOLV>
0

>  <SCORE.INTRA.SOLV.lig_0>
-12.9184

>  <SCORE.INTRA.VDW>
0

>  <SCORE.INTRA.VDW.0>
0

>  <SCORE.INTRA.norm>
0

>  <SCORE.RESTR>
0

>  <SCORE.RESTR.CAVITY>
0

>  <SCORE.RESTR.norm>
0

>  <SCORE.SYSTEM>
0

>  <SCORE.SYSTEM.CONST>
0

>  <SCORE.SYSTEM.DIHEDRAL>
0

>  <SCORE.SYSTEM.SOLV>
0

>  <SCORE.SYSTEM.norm>
0

>  <SCORE.heavy>
13

>  <SCORE.norm>
-1.77895

>  <RMSD>
3.496

$$$$
1o15_lig
 OpenBabel11021811403D
libRbt.so/2013.1/901 2013/11/27
 13 14  0  0  0  0  0  0  0  0999 V2000
   10.0585    5.6743   37.7764 C   0  0  0  0  0  0  0  0  0  0  0  0
    9.6364    4.6330   36.9796 N   0  0  0  0  0  0  0  0  0  0  0  0
    9.3325    3.4556   37.5862 C   0  0  0  0  0  0  0  0  0  0  0  0
    9.4696    3.4290   38.8066 O   0  0  0  0  0  0  0  0  0  0  0  0
    8.6032    1.1498   37.5772 C   0  0  0  0  0  0  0  0  0  0  0  0
    8.9015    2.3330   36.9358 N   0  0  0  0  0  0  0  0  0  0  0  0
    8.7966    2.5051   35.5903 C   0  0  0  0  0  0  0  0  0  0  0  0
    9.1026    3.6935   34.9931 C   0  0  0  0  0  0  0  0  0  0  0  0
    9.5474    4.8545   35.6524 C   0  0  0  0  0  0  0  0  0  0  0  0
    9.8381    5.9494   35.1775 O   0  0  0  0  0  0  0  0  0  0  0  0
    8.8829    3.5022   33.6366 N   0  0  0  0  0  0  0  0  0  0  0  0
    8.4609    2.2198   33.5065 C   0  0  0  0  0  0  0  0  0  0  0  0
    8.3909    1.5746   34.6394 N   0  0  0  0  0  0  0  0  0  0  0  0
  1  2  1  0  0  0  0
  2  3  1  0  0  0  0
  2  9  1  0  0  0  0
  3  4  2  0  0  0  0
  3  6  1  0  0  0  0
  6  5  1  0  0  0  0
  6  7  1  0  0  0  0
  7  8  2  0  0  0  0
  7 13  1  0  0  0  0
  8  9  1  0  0  0  0
  8 11  1  0  0  0  0
  9 10  2  0  0  0  0
 11 12  1  0  0  0  0
 12 13  2  0  0  0  0
M  END
>  <CHROM.1>
9.16980233,3.48972634,36.10620503,-0.65836024,-1.24506659,-1.21367880

>  <Name>
1o15_lig

>  <RI>
0

>  <Rbt.Current_Directory>
/home/itssahil/PROJECTS/Mol_Feturizer/New_Systems/rnas/1o15

>  <Rbt.Executable>
rbdock ($Id: //depot/dev/client3/rdock/2013.1/src/exe/rbdock.cxx#4 $)

>  <Rbt.Library>
libRbt.so (2013.1, Build901 2013/11/27)

>  <Rbt.Parameter_File>
/export/apps/rDock/src/rDock_2013.1_src/data/scripts/dock_solv.prm

>  <Rbt.Receptor>
prm/pocket_docking_8.prm

>  <SCORE>
-23.17

>  <SCORE.INTER>
-23.17

>  <SCORE.INTER.CONST>
1

>  <SCORE.INTER.POLAR>
-1.22668

>  <SCORE.INTER.ROT>
0

>  <SCORE.INTER.SOLV>
8.76783

>  <SCORE.INTER.VDW>
-17.8804

>  <SCORE.INTER.norm>
-1.78231

>  <SCORE.INTRA>
0

>  <SCORE.INTRA.DIHEDRAL>
0

>  <SCORE.INTRA.DIHEDRAL.0>
0

>  <SCORE.INTRA.POLAR>
0

>  <SCORE.INTRA.POLAR.0>
0

>  <SCORE.INTRA.REPUL>
0

>  <SCORE.INTRA.REPUL.0>
0

>  <SCORE.INTRA.SOLV>
0

>  <SCORE.INTRA.SOLV.lig_0>
-12.9184

>  <SCORE.INTRA.VDW>
0

>  <SCORE.INTRA.VDW.0>
0

>  <SCORE.INTRA.norm>
0

>  <SCORE.RESTR>
0

>  <SCORE.RESTR.CAVITY>
0

>  <SCORE.RESTR.norm>
0

>  <SCORE.SYSTEM>
0

>  <SCORE.SYSTEM.CONST>
0

>  <SCORE.SYSTEM.DIHEDRAL>
0

>  <SCORE.SYSTEM.SOLV>
0

>  <SCORE.SYSTEM.norm>
0

>  <SCORE.heavy>
13

>  <SCORE.norm>
-1.78231

>  <RMSD>
3.496

$$$$
1o15_lig
 OpenBabel11021811403D
libRbt.so/2013.1/901 2013/11/27
 13 14  0  0  0  0  0  0  0  0999 V2000
   10.0887    5.6497   37.7520 C   0  0  0  0  0  0  0  0  0  0  0  0
    9.6570    4.6172   36.9490 N   0  0  0  0  0  0  0  0  0  0  0  0
    9.3652    3.4317   37.5457 C   0  0  0  0  0  0  0  0  0  0  0  0
    9.5210    3.3905   38.7634 O   0  0  0  0  0  0  0  0  0  0  0  0
    8.6414    1.1243   37.5194 C   0  0  0  0  0  0  0  0  0  0  0  0
    8.9270    2.3161   36.8881 N   0  0  0  0  0  0  0  0  0  0  0  0
    8.8012    2.5043   35.5466 C   0  0  0  0  0  0  0  0  0  0  0  0
    9.0951    3.7008   34.9595 C   0  0  0  0  0  0  0  0  0  0  0  0
    9.5472    4.8548   35.6262 C   0  0  0  0  0  0  0  0  0  0  0  0
    9.8280    5.9562   35.1604 O   0  0  0  0  0  0  0  0  0  0  0  0
    8.8553    3.5256   33.6042 N   0  0  0  0  0  0  0  0  0  0  0  0
    8.4344    2.2438   33.4648 C   0  0  0  0  0  0  0  0  0  0  0  0
    8.3832    1.5845   34.5906 N   0  0  0  0  0  0  0  0  0  0  0  0
  1  2  1  0  0  0  0
  2  3  1  0  0  0  0
  2  9  1  0  0  0  0
  3  4  2  0  0  0  0
  3  6  1  0  0  0  0
  6  5  1  0  0  0  0
  6  7  1  0  0  0  0
  7  8  2  0  0  0  0
  7 13  1  0  0  0  0
  8  9  1  0  0  0  0
  8 11  1  0  0  0  0
  9 10  2  0  0  0  0
 11 12  1  0  0  0  0
 12 13  2  0  0  0  0
M  END
>  <CHROM.1>
9.17985824,3.48355415,36.06882812,-0.61149604,-1.24163029,-1.15702082

>  <Name>
1o15_lig

>  <RI>
0

>  <Rbt.Current_Directory>
/home/itssahil/PROJECTS/Mol_Feturizer/New_Systems/rnas/1o15

>  <Rbt.Executable>
rbdock ($Id: //depot/dev/client3/rdock/2013.1/src/exe/rbdock.cxx#4 $)

>  <Rbt.Library>
libRbt.so (2013.1, Build901 2013/11/27)

>  <Rbt.Parameter_File>
/export/apps/rDock/src/rDock_2013.1_src/data/scripts/dock_solv.prm

>  <Rbt.Receptor>
prm/pocket_docking_4.prm

>  <SCORE>
-23.141

>  <SCORE.INTER>
-23.141

>  <SCORE.INTER.CONST>
1

>  <SCORE.INTER.POLAR>
-1.18884

>  <SCORE.INTER.ROT>
0

>  <SCORE.INTER.SOLV>
8.71597

>  <SCORE.INTER.VDW>
-17.9698

>  <SCORE.INTER.norm>
-1.78008

>  <SCORE.INTRA>
0

>  <SCORE.INTRA.DIHEDRAL>
0

>  <SCORE.INTRA.DIHEDRAL.0>
0

>  <SCORE.INTRA.POLAR>
0

>  <SCORE.INTRA.POLAR.0>
0

>  <SCORE.INTRA.REPUL>
0

>  <SCORE.INTRA.REPUL.0>
0

>  <SCORE.INTRA.SOLV>
0

>  <SCORE.INTRA.SOLV.lig_0>
-12.9184

>  <SCORE.INTRA.VDW>
0

>  <SCORE.INTRA.VDW.0>
0

>  <SCORE.INTRA.norm>
0

>  <SCORE.RESTR>
0

>  <SCORE.RESTR.CAVITY>
0

>  <SCORE.RESTR.norm>
0

>  <SCORE.SYSTEM>
0

>  <SCORE.SYSTEM.CONST>
0

>  <SCORE.SYSTEM.DIHEDRAL>
0

>  <SCORE.SYSTEM.SOLV>
0

>  <SCORE.SYSTEM.norm>
0

>  <SCORE.heavy>
13

>  <SCORE.norm>
-1.78008

>  <RMSD>
3.497

$$$$
1o15_lig
 OpenBabel11021811403D
libRbt.so/2013.1/901 2013/11/27
 13 14  0  0  0  0  0  0  0  0999 V2000
   10.0858    5.6515   37.7496 C   0  0  0  0  0  0  0  0  0  0  0  0
    9.6553    4.6188   36.9461 N   0  0  0  0  0  0  0  0  0  0  0  0
    9.3623    3.4334   37.5426 C   0  0  0  0  0  0  0  0  0  0  0  0
    9.5160    3.3926   38.7606 O   0  0  0  0  0  0  0  0  0  0  0  0
    8.6382    1.1262   37.5156 C   0  0  0  0  0  0  0  0  0  0  0  0
    8.9252    2.3177   36.8846 N   0  0  0  0  0  0  0  0  0  0  0  0
    8.8018    2.5056   35.5427 C   0  0  0  0  0  0  0  0  0  0  0  0
    9.0969    3.7018   34.9558 C   0  0  0  0  0  0  0  0  0  0  0  0
    9.5479    4.8560   35.6230 C   0  0  0  0  0  0  0  0  0  0  0  0
    9.8296    5.9572   35.1574 O   0  0  0  0  0  0  0  0  0  0  0  0
    8.8594    3.5263   33.6002 N   0  0  0  0  0  0  0  0  0  0  0  0
    8.4386    2.2445   33.4604 C   0  0  0  0  0  0  0  0  0  0  0  0
    8.3853    1.5856   34.5863 N   0  0  0  0  0  0  0  0  0  0  0  0
  1  2  1  0  0  0  0
  2  3  1  0  0  0  0
  2  9  1  0  0  0  0
  3  4  2  0  0  0  0
  3  6  1  0  0  0  0
  6  5  1  0  0  0  0
  6  7  1  0  0  0  0
  7  8  2  0  0  0  0
  7 13  1  0  0  0  0
  8  9  1  0  0  0  0
  8 11  1  0  0  0  0
  9 10  2  0  0  0  0
 11 12  1  0  0  0  0
 12 13  2  0  0  0  0
M  END
>  <CHROM.1>
9.17959544,3.48492495,36.06537263,-0.61665967,-1.24222392,-1.16218995

>  <Name>
1o15_lig

>  <RI>
0

>  <Rbt.Current_Directory>
/home/itssahil/PROJECTS/Mol_Feturizer/New_Systems/rnas/1o15

>  <Rbt.Executable>
rbdock ($Id: //depot/dev/client3/rdock/2013.1/src/exe/rbdock.cxx#4 $)

>  <Rbt.Library>
libRbt.so (2013.1, Build901 2013/11/27)

>  <Rbt.Parameter_File>
/export/apps/rDock/src/rDock_2013.1_src/data/scripts/dock_solv.prm

>  <Rbt.Receptor>
prm/blind_docking_80.prm

>  <SCORE>
-23.1456

>  <SCORE.INTER>
-23.1456

>  <SCORE.INTER.CONST>
1

>  <SCORE.INTER.POLAR>
-1.19144

>  <SCORE.INTER.ROT>
0

>  <SCORE.INTER.SOLV>
8.73624

>  <SCORE.INTER.VDW>
-17.971

>  <SCORE.INTER.norm>
-1.78043

>  <SCORE.INTRA>
0

>  <SCORE.INTRA.DIHEDRAL>
0

>  <SCORE.INTRA.DIHEDRAL.0>
0

>  <SCORE.INTRA.POLAR>
0

>  <SCORE.INTRA.POLAR.0>
0

>  <SCORE.INTRA.REPUL>
0

>  <SCORE.INTRA.REPUL.0>
0

>  <SCORE.INTRA.SOLV>
0

>  <SCORE.INTRA.SOLV.lig_0>
-12.9184

>  <SCORE.INTRA.VDW>
0

>  <SCORE.INTRA.VDW.0>
0

>  <SCORE.INTRA.norm>
0

>  <SCORE.RESTR>
0

>  <SCORE.RESTR.CAVITY>
0

>  <SCORE.RESTR.norm>
0

>  <SCORE.SYSTEM>
0

>  <SCORE.SYSTEM.CONST>
0

>  <SCORE.SYSTEM.DIHEDRAL>
0

>  <SCORE.SYSTEM.SOLV>
0

>  <SCORE.SYSTEM.norm>
0

>  <SCORE.heavy>
13

>  <SCORE.norm>
-1.78043

>  <RMSD>
3.499

$$$$
1o15_lig
 OpenBabel11021811403D
libRbt.so/2013.1/901 2013/11/27
 13 14  0  0  0  0  0  0  0  0999 V2000
   10.0279    5.6403   37.7900 C   0  0  0  0  0  0  0  0  0  0  0  0
    9.6142    4.6059   36.9799 N   0  0  0  0  0  0  0  0  0  0  0  0
    9.3135    3.4204   37.5722 C   0  0  0  0  0  0  0  0  0  0  0  0
    9.4456    3.3809   38.7928 O   0  0  0  0  0  0  0  0  0  0  0  0
    8.5954    1.1114   37.5344 C   0  0  0  0  0  0  0  0  0  0  0  0
    8.8906    2.3031   36.9075 N   0  0  0  0  0  0  0  0  0  0  0  0
    8.7906    2.4896   35.5635 C   0  0  0  0  0  0  0  0  0  0  0  0
    9.0932    3.6860   34.9809 C   0  0  0  0  0  0  0  0  0  0  0  0
    9.5296    4.8418   35.6549 C   0  0  0  0  0  0  0  0  0  0  0  0
    9.8170    5.9433   35.1934 O   0  0  0  0  0  0  0  0  0  0  0  0
    8.8802    3.5088   33.6214 N   0  0  0  0  0  0  0  0  0  0  0  0
    8.4649    2.2259   33.4753 C   0  0  0  0  0  0  0  0  0  0  0  0
    8.3933    1.5678   34.6007 N   0  0  0  0  0  0  0  0  0  0  0  0
  1  2  1  0  0  0  0
  2  3  1  0  0  0  0
  2  9  1  0  0  0  0
  3  4  2  0  0  0  0
  3  6  1  0  0  0  0
  6  5  1  0  0  0  0
  6  7  1  0  0  0  0
  7  8  2  0  0  0  0
  7 13  1  0  0  0  0
  8  9  1  0  0  0  0
  8 11  1  0  0  0  0
  9 10  2  0  0  0  0
 11 12  1  0  0  0  0
 12 13  2  0  0  0  0
M  END
>  <CHROM.1>
9.15678404,3.47023071,36.09192143,-0.66539014,-1.25106846,-1.20923531

>  <Name>
1o15_lig

>  <RI>
0

>  <Rbt.Current_Directory>
/home/itssahil/PROJECTS/Mol_Feturizer/New_Systems/rnas/1o15

>  <Rbt.Executable>
rbdock ($Id: //depot/dev/client3/rdock/2013.1/src/exe/rbdock.cxx#4 $)

>  <Rbt.Library>
libRbt.so (2013.1, Build901 2013/11/27)

>  <Rbt.Parameter_File>
/export/apps/rDock/src/rDock_2013.1_src/data/scripts/dock_solv.prm

>  <Rbt.Receptor>
prm/pocket_docking_7.prm

>  <SCORE>
-23.1353

>  <SCORE.INTER>
-23.1353

>  <SCORE.INTER.CONST>
1

>  <SCORE.INTER.POLAR>
-1.21667

>  <SCORE.INTER.ROT>
0

>  <SCORE.INTER.SOLV>
8.77608

>  <SCORE.INTER.VDW>
-17.8933

>  <SCORE.INTER.norm>
-1.77964

>  <SCORE.INTRA>
0

>  <SCORE.INTRA.DIHEDRAL>
0

>  <SCORE.INTRA.DIHEDRAL.0>
0

>  <SCORE.INTRA.POLAR>
0

>  <SCORE.INTRA.POLAR.0>
0

>  <SCORE.INTRA.REPUL>
0

>  <SCORE.INTRA.REPUL.0>
0

>  <SCORE.INTRA.SOLV>
0

>  <SCORE.INTRA.SOLV.lig_0>
-12.9184

>  <SCORE.INTRA.VDW>
0

>  <SCORE.INTRA.VDW.0>
0

>  <SCORE.INTRA.norm>
0

>  <SCORE.RESTR>
0

>  <SCORE.RESTR.CAVITY>
0

>  <SCORE.RESTR.norm>
0

>  <SCORE.SYSTEM>
0

>  <SCORE.SYSTEM.CONST>
0

>  <SCORE.SYSTEM.DIHEDRAL>
0

>  <SCORE.SYSTEM.SOLV>
0

>  <SCORE.SYSTEM.norm>
0

>  <SCORE.heavy>
13

>  <SCORE.norm>
-1.77964

>  <RMSD>
3.499

$$$$
1o15_lig
 OpenBabel11021811403D
libRbt.so/2013.1/901 2013/11/27
 13 14  0  0  0  0  0  0  0  0999 V2000
   10.1361    5.7634   37.6770 C   0  0  0  0  0  0  0  0  0  0  0  0
    9.7177    4.6997   36.9084 N   0  0  0  0  0  0  0  0  0  0  0  0
    9.4558    3.5263   37.5418 C   0  0  0  0  0  0  0  0  0  0  0  0
    9.6242    3.5234   38.7586 O   0  0  0  0  0  0  0  0  0  0  0  0
    8.7788    1.2051   37.5892 C   0  0  0  0  0  0  0  0  0  0  0  0
    9.0340    2.3836   36.9211 N   0  0  0  0  0  0  0  0  0  0  0  0
    8.8915    2.5305   35.5760 C   0  0  0  0  0  0  0  0  0  0  0  0
    9.1553    3.7151   34.9519 C   0  0  0  0  0  0  0  0  0  0  0  0
    9.5903    4.8967   35.5805 C   0  0  0  0  0  0  0  0  0  0  0  0
    9.8441    5.9896   35.0805 O   0  0  0  0  0  0  0  0  0  0  0  0
    8.9060    3.4961   33.6047 N   0  0  0  0  0  0  0  0  0  0  0  0
    8.5099    2.2026   33.5065 C   0  0  0  0  0  0  0  0  0  0  0  0
    8.4830    1.5752   34.6512 N   0  0  0  0  0  0  0  0  0  0  0  0
  1  2  1  0  0  0  0
  2  3  1  0  0  0  0
  2  9  1  0  0  0  0
  3  4  2  0  0  0  0
  3  6  1  0  0  0  0
  6  5  1  0  0  0  0
  6  7  1  0  0  0  0
  7  8  2  0  0  0  0
  7 13  1  0  0  0  0
  8  9  1  0  0  0  0
  8 11  1  0  0  0  0
  9 10  2  0  0  0  0
 11 12  1  0  0  0  0
 12 13  2  0  0  0  0
M  END
>  <CHROM.1>
9.25517108,3.53175772,36.06607674,-0.55648505,-1.25588996,-1.13363507

>  <Name>
1o15_lig

>  <RI>
224

>  <Rbt.Current_Directory>
/home/itssahil/PROJECTS/Mol_Feturizer/New_Systems/rnas/1o15

>  <Rbt.Executable>
rbdock ($Id: //depot/dev/client3/rdock/2013.1/src/exe/rbdock.cxx#4 $)

>  <Rbt.Library>
libRbt.so (2013.1, Build901 2013/11/27)

>  <Rbt.Parameter_File>
/export/apps/rDock/src/rDock_2013.1_src/data/scripts/dock_solv.prm

>  <Rbt.Receptor>
prm/blind_docking_100.prm

>  <SCORE>
-22.7478

>  <SCORE.INTER>
-22.8076

>  <SCORE.INTER.CONST>
1

>  <SCORE.INTER.POLAR>
-1.2344

>  <SCORE.INTER.ROT>
0

>  <SCORE.INTER.SOLV>
8.73933

>  <SCORE.INTER.VDW>
-17.6035

>  <SCORE.INTER.norm>
-1.75443

>  <SCORE.INTRA>
0

>  <SCORE.INTRA.DIHEDRAL>
0

>  <SCORE.INTRA.DIHEDRAL.0>
0

>  <SCORE.INTRA.POLAR>
0

>  <SCORE.INTRA.POLAR.0>
0

>  <SCORE.INTRA.REPUL>
0

>  <SCORE.INTRA.REPUL.0>
0

>  <SCORE.INTRA.SOLV>
0

>  <SCORE.INTRA.SOLV.lig_0>
-12.9184

>  <SCORE.INTRA.VDW>
0

>  <SCORE.INTRA.VDW.0>
0

>  <SCORE.INTRA.norm>
0

>  <SCORE.RESTR>
0.0597976

>  <SCORE.RESTR.CAVITY>
0.0597976

>  <SCORE.RESTR.norm>
0.00459982

>  <SCORE.SYSTEM>
0

>  <SCORE.SYSTEM.CONST>
0

>  <SCORE.SYSTEM.DIHEDRAL>
0

>  <SCORE.SYSTEM.SOLV>
0

>  <SCORE.SYSTEM.norm>
0

>  <SCORE.heavy>
13

>  <SCORE.norm>
-1.74983

>  <RMSD>
3.500

$$$$
1o15_lig
 OpenBabel11021811403D
libRbt.so/2013.1/901 2013/11/27
 13 14  0  0  0  0  0  0  0  0999 V2000
   10.0501    5.6453   37.7813 C   0  0  0  0  0  0  0  0  0  0  0  0
    9.6309    4.6121   36.9724 N   0  0  0  0  0  0  0  0  0  0  0  0
    9.3249    3.4286   37.5659 C   0  0  0  0  0  0  0  0  0  0  0  0
    9.4576    3.3896   38.7865 O   0  0  0  0  0  0  0  0  0  0  0  0
    8.5957    1.1231   37.5308 C   0  0  0  0  0  0  0  0  0  0  0  0
    8.8963    2.3127   36.9026 N   0  0  0  0  0  0  0  0  0  0  0  0
    8.7963    2.4984   35.5584 C   0  0  0  0  0  0  0  0  0  0  0  0
    9.1043    3.6929   34.9746 C   0  0  0  0  0  0  0  0  0  0  0  0
    9.5467    4.8471   35.6472 C   0  0  0  0  0  0  0  0  0  0  0  0
    9.8391    5.9469   35.1846 O   0  0  0  0  0  0  0  0  0  0  0  0
    8.8896    3.5154   33.6153 N   0  0  0  0  0  0  0  0  0  0  0  0
    8.4682    2.2344   33.4707 C   0  0  0  0  0  0  0  0  0  0  0  0
    8.3941    1.5777   34.5967 N   0  0  0  0  0  0  0  0  0  0  0  0
  1  2  1  0  0  0  0
  2  3  1  0  0  0  0
  2  9  1  0  0  0  0
  3  4  2  0  0  0  0
  3  6  1  0  0  0  0
  6  5  1  0  0  0  0
  6  7  1  0  0  0  0
  7  8  2  0  0  0  0
  7 13  1  0  0  0  0
  8  9  1  0  0  0  0
  8 11  1  0  0  0  0
  9 10  2  0  0  0  0
 11 12  1  0  0  0  0
 12 13  2  0  0  0  0
M  END
>  <CHROM.1>
9.16757044,3.47780858,36.08573626,-0.66895346,-1.24636712,-1.21354552

>  <Name>
1o15_lig

>  <RI>
0

>  <Rbt.Current_Directory>
/home/itssahil/PROJECTS/Mol_Feturizer/New_Systems/rnas/1o15

>  <Rbt.Executable>
rbdock ($Id: //depot/dev/client3/rdock/2013.1/src/exe/rbdock.cxx#4 $)

>  <Rbt.Library>
libRbt.so (2013.1, Build901 2013/11/27)

>  <Rbt.Parameter_File>
/export/apps/rDock/src/rDock_2013.1_src/data/scripts/dock_solv.prm

>  <Rbt.Receptor>
prm/pocket_docking_6.prm

>  <SCORE>
-23.1459

>  <SCORE.INTER>
-23.1459

>  <SCORE.INTER.CONST>
1

>  <SCORE.INTER.POLAR>
-1.22034

>  <SCORE.INTER.ROT>
0

>  <SCORE.INTER.SOLV>
8.80052

>  <SCORE.INTER.VDW>
-17.8963

>  <SCORE.INTER.norm>
-1.78046

>  <SCORE.INTRA>
0

>  <SCORE.INTRA.DIHEDRAL>
0

>  <SCORE.INTRA.DIHEDRAL.0>
0

>  <SCORE.INTRA.POLAR>
0

>  <SCORE.INTRA.POLAR.0>
0

>  <SCORE.INTRA.REPUL>
0

>  <SCORE.INTRA.REPUL.0>
0

>  <SCORE.INTRA.SOLV>
0

>  <SCORE.INTRA.SOLV.lig_0>
-12.9184

>  <SCORE.INTRA.VDW>
0

>  <SCORE.INTRA.VDW.0>
0

>  <SCORE.INTRA.norm>
0

>  <SCORE.RESTR>
0

>  <SCORE.RESTR.CAVITY>
0

>  <SCORE.RESTR.norm>
0

>  <SCORE.SYSTEM>
0

>  <SCORE.SYSTEM.CONST>
0

>  <SCORE.SYSTEM.DIHEDRAL>
0

>  <SCORE.SYSTEM.SOLV>
0

>  <SCORE.SYSTEM.norm>
0

>  <SCORE.heavy>
13

>  <SCORE.norm>
-1.78046

>  <RMSD>
3.500

$$$$
1o15_lig
 OpenBabel11021811403D
libRbt.so/2013.1/901 2013/11/27
 13 14  0  0  0  0  0  0  0  0999 V2000
   10.0450    5.6467   37.7803 C   0  0  0  0  0  0  0  0  0  0  0  0
    9.6273    4.6124   36.9720 N   0  0  0  0  0  0  0  0  0  0  0  0
    9.3242    3.4284   37.5661 C   0  0  0  0  0  0  0  0  0  0  0  0
    9.4579    3.3901   38.7866 O   0  0  0  0  0  0  0  0  0  0  0  0
    8.5998    1.1214   37.5322 C   0  0  0  0  0  0  0  0  0  0  0  0
    8.8974    2.3115   36.9034 N   0  0  0  0  0  0  0  0  0  0  0  0
    8.7960    2.4966   35.5593 C   0  0  0  0  0  0  0  0  0  0  0  0
    9.1010    3.6915   34.9748 C   0  0  0  0  0  0  0  0  0  0  0  0
    9.5416    4.8469   35.6468 C   0  0  0  0  0  0  0  0  0  0  0  0
    9.8313    5.9471   35.1836 O   0  0  0  0  0  0  0  0  0  0  0  0
    8.8856    3.5132   33.6159 N   0  0  0  0  0  0  0  0  0  0  0  0
    8.4667    2.2313   33.4719 C   0  0  0  0  0  0  0  0  0  0  0  0
    8.3949    1.5747   34.5982 N   0  0  0  0  0  0  0  0  0  0  0  0
  1  2  1  0  0  0  0
  2  3  1  0  0  0  0
  2  9  1  0  0  0  0
  3  4  2  0  0  0  0
  3  6  1  0  0  0  0
  6  5  1  0  0  0  0
  6  7  1  0  0  0  0
  7  8  2  0  0  0  0
  7 13  1  0  0  0  0
  8  9  1  0  0  0  0
  8 11  1  0  0  0  0
  9 10  2  0  0  0  0
 11 12  1  0  0  0  0
 12 13  2  0  0  0  0
M  END
>  <CHROM.1>
9.16560292,3.47688201,36.08604529,-0.66431113,-1.24802457,-1.20943289

>  <Name>
1o15_lig

>  <RI>
0

>  <Rbt.Current_Directory>
/home/itssahil/PROJECTS/Mol_Feturizer/New_Systems/rnas/1o15

>  <Rbt.Executable>
rbdock ($Id: //depot/dev/client3/rdock/2013.1/src/exe/rbdock.cxx#4 $)

>  <Rbt.Library>
libRbt.so (2013.1, Build901 2013/11/27)

>  <Rbt.Parameter_File>
/export/apps/rDock/src/rDock_2013.1_src/data/scripts/dock_solv.prm

>  <Rbt.Receptor>
prm/pocket_docking_6.prm

>  <SCORE>
-23.144

>  <SCORE.INTER>
-23.144

>  <SCORE.INTER.CONST>
1

>  <SCORE.INTER.POLAR>
-1.21845

>  <SCORE.INTER.ROT>
0

>  <SCORE.INTER.SOLV>
8.7916

>  <SCORE.INTER.VDW>
-17.8984

>  <SCORE.INTER.norm>
-1.78031

>  <SCORE.INTRA>
0

>  <SCORE.INTRA.DIHEDRAL>
0

>  <SCORE.INTRA.DIHEDRAL.0>
0

>  <SCORE.INTRA.POLAR>
0

>  <SCORE.INTRA.POLAR.0>
0

>  <SCORE.INTRA.REPUL>
0

>  <SCORE.INTRA.REPUL.0>
0

>  <SCORE.INTRA.SOLV>
0

>  <SCORE.INTRA.SOLV.lig_0>
-12.9184

>  <SCORE.INTRA.VDW>
0

>  <SCORE.INTRA.VDW.0>
0

>  <SCORE.INTRA.norm>
0

>  <SCORE.RESTR>
0

>  <SCORE.RESTR.CAVITY>
0

>  <SCORE.RESTR.norm>
0

>  <SCORE.SYSTEM>
0

>  <SCORE.SYSTEM.CONST>
0

>  <SCORE.SYSTEM.DIHEDRAL>
0

>  <SCORE.SYSTEM.SOLV>
0

>  <SCORE.SYSTEM.norm>
0

>  <SCORE.heavy>
13

>  <SCORE.norm>
-1.78031

>  <RMSD>
3.500

$$$$
1o15_lig
 OpenBabel11021811403D
libRbt.so/2013.1/901 2013/11/27
 13 14  0  0  0  0  0  0  0  0999 V2000
   10.0652    5.6490   37.7567 C   0  0  0  0  0  0  0  0  0  0  0  0
    9.6380    4.6163   36.9514 N   0  0  0  0  0  0  0  0  0  0  0  0
    9.3424    3.4310   37.5466 C   0  0  0  0  0  0  0  0  0  0  0  0
    9.4910    3.3900   38.7653 O   0  0  0  0  0  0  0  0  0  0  0  0
    8.6182    1.1238   37.5166 C   0  0  0  0  0  0  0  0  0  0  0  0
    8.9078    2.3154   36.8867 N   0  0  0  0  0  0  0  0  0  0  0  0
    8.7900    2.5034   35.5444 C   0  0  0  0  0  0  0  0  0  0  0  0
    9.0876    3.6996   34.9588 C   0  0  0  0  0  0  0  0  0  0  0  0
    9.5360    4.8537   35.6279 C   0  0  0  0  0  0  0  0  0  0  0  0
    9.8197    5.9549   35.1635 O   0  0  0  0  0  0  0  0  0  0  0  0
    8.8556    3.5242   33.6022 N   0  0  0  0  0  0  0  0  0  0  0  0
    8.4353    2.2424   33.4606 C   0  0  0  0  0  0  0  0  0  0  0  0
    8.3774    1.5834   34.5862 N   0  0  0  0  0  0  0  0  0  0  0  0
  1  2  1  0  0  0  0
  2  3  1  0  0  0  0
  2  9  1  0  0  0  0
  3  4  2  0  0  0  0
  3  6  1  0  0  0  0
  6  5  1  0  0  0  0
  6  7  1  0  0  0  0
  7  8  2  0  0  0  0
  7 13  1  0  0  0  0
  8  9  1  0  0  0  0
  8 11  1  0  0  0  0
  9 10  2  0  0  0  0
 11 12  1  0  0  0  0
 12 13  2  0  0  0  0
M  END
>  <CHROM.1>
9.16573524,3.48261633,36.06868030,-0.62852627,-1.24374597,-1.17336287

>  <Name>
1o15_lig

>  <RI>
0

>  <Rbt.Current_Directory>
/home/itssahil/PROJECTS/Mol_Feturizer/New_Systems/rnas/1o15

>  <Rbt.Executable>
rbdock ($Id: //depot/dev/client3/rdock/2013.1/src/exe/rbdock.cxx#4 $)

>  <Rbt.Library>
libRbt.so (2013.1, Build901 2013/11/27)

>  <Rbt.Parameter_File>
/export/apps/rDock/src/rDock_2013.1_src/data/scripts/dock_solv.prm

>  <Rbt.Receptor>
prm/pocket_docking_4.prm

>  <SCORE>
-23.1285

>  <SCORE.INTER>
-23.1285

>  <SCORE.INTER.CONST>
1

>  <SCORE.INTER.POLAR>
-1.19218

>  <SCORE.INTER.ROT>
0

>  <SCORE.INTER.SOLV>
8.75466

>  <SCORE.INTER.VDW>
-17.9633

>  <SCORE.INTER.norm>
-1.77912

>  <SCORE.INTRA>
0

>  <SCORE.INTRA.DIHEDRAL>
0

>  <SCORE.INTRA.DIHEDRAL.0>
0

>  <SCORE.INTRA.POLAR>
0

>  <SCORE.INTRA.POLAR.0>
0

>  <SCORE.INTRA.REPUL>
0

>  <SCORE.INTRA.REPUL.0>
0

>  <SCORE.INTRA.SOLV>
0

>  <SCORE.INTRA.SOLV.lig_0>
-12.9184

>  <SCORE.INTRA.VDW>
0

>  <SCORE.INTRA.VDW.0>
0

>  <SCORE.INTRA.norm>
0

>  <SCORE.RESTR>
0

>  <SCORE.RESTR.CAVITY>
0

>  <SCORE.RESTR.norm>
0

>  <SCORE.SYSTEM>
0

>  <SCORE.SYSTEM.CONST>
0

>  <SCORE.SYSTEM.DIHEDRAL>
0

>  <SCORE.SYSTEM.SOLV>
0

>  <SCORE.SYSTEM.norm>
0

>  <SCORE.heavy>
13

>  <SCORE.norm>
-1.77912

>  <RMSD>
3.501

$$$$
1o15_lig
 OpenBabel11021811403D
libRbt.so/2013.1/901 2013/11/27
 13 14  0  0  0  0  0  0  0  0999 V2000
   10.0323    5.6464   37.7848 C   0  0  0  0  0  0  0  0  0  0  0  0
    9.6180    4.6127   36.9741 N   0  0  0  0  0  0  0  0  0  0  0  0
    9.3089    3.4294   37.5666 C   0  0  0  0  0  0  0  0  0  0  0  0
    9.4347    3.3911   38.7879 O   0  0  0  0  0  0  0  0  0  0  0  0
    8.5805    1.1237   37.5285 C   0  0  0  0  0  0  0  0  0  0  0  0
    8.8843    2.3132   36.9014 N   0  0  0  0  0  0  0  0  0  0  0  0
    8.7918    2.4981   35.5566 C   0  0  0  0  0  0  0  0  0  0  0  0
    9.1028    3.6923   34.9739 C   0  0  0  0  0  0  0  0  0  0  0  0
    9.5411    4.8471   35.6484 C   0  0  0  0  0  0  0  0  0  0  0  0
    9.8358    5.9466   35.1868 O   0  0  0  0  0  0  0  0  0  0  0  0
    8.8957    3.5141   33.6136 N   0  0  0  0  0  0  0  0  0  0  0  0
    8.4754    2.2329   33.4672 C   0  0  0  0  0  0  0  0  0  0  0  0
    8.3951    1.5768   34.5932 N   0  0  0  0  0  0  0  0  0  0  0  0
  1  2  1  0  0  0  0
  2  3  1  0  0  0  0
  2  9  1  0  0  0  0
  3  4  2  0  0  0  0
  3  6  1  0  0  0  0
  6  5  1  0  0  0  0
  6  7  1  0  0  0  0
  7  8  2  0  0  0  0
  7 13  1  0  0  0  0
  8  9  1  0  0  0  0
  8 11  1  0  0  0  0
  9 10  2  0  0  0  0
 11 12  1  0  0  0  0
 12 13  2  0  0  0  0
M  END
>  <CHROM.1>
9.15982238,3.47786612,36.08549261,-0.68523469,-1.24850681,-1.22949892

>  <Name>
1o15_lig

>  <RI>
0

>  <Rbt.Current_Directory>
/home/itssahil/PROJECTS/Mol_Feturizer/New_Systems/rnas/1o15

>  <Rbt.Executable>
rbdock ($Id: //depot/dev/client3/rdock/2013.1/src/exe/rbdock.cxx#4 $)

>  <Rbt.Library>
libRbt.so (2013.1, Build901 2013/11/27)

>  <Rbt.Parameter_File>
/export/apps/rDock/src/rDock_2013.1_src/data/scripts/dock_solv.prm

>  <Rbt.Receptor>
prm/blind_docking_80.prm

>  <SCORE>
-23.1325

>  <SCORE.INTER>
-23.1325

>  <SCORE.INTER.CONST>
1

>  <SCORE.INTER.POLAR>
-1.22643

>  <SCORE.INTER.ROT>
0

>  <SCORE.INTER.SOLV>
8.8381

>  <SCORE.INTER.VDW>
-17.8796

>  <SCORE.INTER.norm>
-1.77942

>  <SCORE.INTRA>
0

>  <SCORE.INTRA.DIHEDRAL>
0

>  <SCORE.INTRA.DIHEDRAL.0>
0

>  <SCORE.INTRA.POLAR>
0

>  <SCORE.INTRA.POLAR.0>
0

>  <SCORE.INTRA.REPUL>
0

>  <SCORE.INTRA.REPUL.0>
0

>  <SCORE.INTRA.SOLV>
0

>  <SCORE.INTRA.SOLV.lig_0>
-12.9184

>  <SCORE.INTRA.VDW>
0

>  <SCORE.INTRA.VDW.0>
0

>  <SCORE.INTRA.norm>
0

>  <SCORE.RESTR>
0

>  <SCORE.RESTR.CAVITY>
0

>  <SCORE.RESTR.norm>
0

>  <SCORE.SYSTEM>
0

>  <SCORE.SYSTEM.CONST>
0

>  <SCORE.SYSTEM.DIHEDRAL>
0

>  <SCORE.SYSTEM.SOLV>
0

>  <SCORE.SYSTEM.norm>
0

>  <SCORE.heavy>
13

>  <SCORE.norm>
-1.77942

>  <RMSD>
3.503

$$$$
1o15_lig
 OpenBabel11021811403D
libRbt.so/2013.1/901 2013/11/27
 13 14  0  0  0  0  0  0  0  0999 V2000
   10.0658    5.6650   37.7435 C   0  0  0  0  0  0  0  0  0  0  0  0
    9.6397    4.6285   36.9426 N   0  0  0  0  0  0  0  0  0  0  0  0
    9.3463    3.4451   37.5427 C   0  0  0  0  0  0  0  0  0  0  0  0
    9.4957    3.4092   38.7614 O   0  0  0  0  0  0  0  0  0  0  0  0
    8.6257    1.1367   37.5223 C   0  0  0  0  0  0  0  0  0  0  0  0
    8.9131    2.3262   36.8876 N   0  0  0  0  0  0  0  0  0  0  0  0
    8.7941    2.5087   35.5446 C   0  0  0  0  0  0  0  0  0  0  0  0
    9.0895    3.7030   34.9540 C   0  0  0  0  0  0  0  0  0  0  0  0
    9.5365    4.8604   35.6182 C   0  0  0  0  0  0  0  0  0  0  0  0
    9.8183    5.9602   35.1493 O   0  0  0  0  0  0  0  0  0  0  0  0
    8.8570    3.5218   33.5982 N   0  0  0  0  0  0  0  0  0  0  0  0
    8.4386    2.2389   33.4620 C   0  0  0  0  0  0  0  0  0  0  0  0
    8.3824    1.5843   34.5903 N   0  0  0  0  0  0  0  0  0  0  0  0
  1  2  1  0  0  0  0
  2  3  1  0  0  0  0
  2  9  1  0  0  0  0
  3  4  2  0  0  0  0
  3  6  1  0  0  0  0
  6  5  1  0  0  0  0
  6  7  1  0  0  0  0
  7  8  2  0  0  0  0
  7 13  1  0  0  0  0
  8  9  1  0  0  0  0
  8 11  1  0  0  0  0
  9 10  2  0  0  0  0
 11 12  1  0  0  0  0
 12 13  2  0  0  0  0
M  END
>  <CHROM.1>
9.16867029,3.49056241,36.06469650,-0.62487125,-1.24493479,-1.17388118

>  <Name>
1o15_lig

>  <RI>
0

>  <Rbt.Current_Directory>
/home/itssahil/PROJECTS/Mol_Feturizer/New_Systems/rnas/1o15

>  <Rbt.Executable>
rbdock ($Id: //depot/dev/client3/rdock/2013.1/src/exe/rbdock.cxx#4 $)

>  <Rbt.Library>
libRbt.so (2013.1, Build901 2013/11/27)

>  <Rbt.Parameter_File>
/export/apps/rDock/src/rDock_2013.1_src/data/scripts/dock_solv.prm

>  <Rbt.Receptor>
prm/pocket_docking_4.prm

>  <SCORE>
-23.1512

>  <SCORE.INTER>
-23.1512

>  <SCORE.INTER.CONST>
1

>  <SCORE.INTER.POLAR>
-1.19527

>  <SCORE.INTER.ROT>
0

>  <SCORE.INTER.SOLV>
8.7729

>  <SCORE.INTER.VDW>
-17.9742

>  <SCORE.INTER.norm>
-1.78086

>  <SCORE.INTRA>
0

>  <SCORE.INTRA.DIHEDRAL>
0

>  <SCORE.INTRA.DIHEDRAL.0>
0

>  <SCORE.INTRA.POLAR>
0

>  <SCORE.INTRA.POLAR.0>
0

>  <SCORE.INTRA.REPUL>
0

>  <SCORE.INTRA.REPUL.0>
0

>  <SCORE.INTRA.SOLV>
0

>  <SCORE.INTRA.SOLV.lig_0>
-12.9184

>  <SCORE.INTRA.VDW>
0

>  <SCORE.INTRA.VDW.0>
0

>  <SCORE.INTRA.norm>
0

>  <SCORE.RESTR>
0

>  <SCORE.RESTR.CAVITY>
0

>  <SCORE.RESTR.norm>
0

>  <SCORE.SYSTEM>
0

>  <SCORE.SYSTEM.CONST>
0

>  <SCORE.SYSTEM.DIHEDRAL>
0

>  <SCORE.SYSTEM.SOLV>
0

>  <SCORE.SYSTEM.norm>
0

>  <SCORE.heavy>
13

>  <SCORE.norm>
-1.78086

>  <RMSD>
3.503

$$$$
1o15_lig
 OpenBabel11021811403D
libRbt.so/2013.1/901 2013/11/27
 13 14  0  0  0  0  0  0  0  0999 V2000
   10.0791    5.6639   37.7409 C   0  0  0  0  0  0  0  0  0  0  0  0
    9.6497    4.6296   36.9388 N   0  0  0  0  0  0  0  0  0  0  0  0
    9.3505    3.4471   37.5379 C   0  0  0  0  0  0  0  0  0  0  0  0
    9.4982    3.4100   38.7568 O   0  0  0  0  0  0  0  0  0  0  0  0
    8.6203    1.1418   37.5152 C   0  0  0  0  0  0  0  0  0  0  0  0
    8.9135    2.3304   36.8815 N   0  0  0  0  0  0  0  0  0  0  0  0
    8.7971    2.5141   35.5385 C   0  0  0  0  0  0  0  0  0  0  0  0
    9.0983    3.7075   34.9490 C   0  0  0  0  0  0  0  0  0  0  0  0
    9.5493    4.8627   35.6144 C   0  0  0  0  0  0  0  0  0  0  0  0
    9.8363    5.9616   35.1465 O   0  0  0  0  0  0  0  0  0  0  0  0
    8.8669    3.5281   33.5928 N   0  0  0  0  0  0  0  0  0  0  0  0
    8.4433    2.2470   33.4553 C   0  0  0  0  0  0  0  0  0  0  0  0
    8.3828    1.5920   34.5832 N   0  0  0  0  0  0  0  0  0  0  0  0
  1  2  1  0  0  0  0
  2  3  1  0  0  0  0
  2  9  1  0  0  0  0
  3  4  2  0  0  0  0
  3  6  1  0  0  0  0
  6  5  1  0  0  0  0
  6  7  1  0  0  0  0
  7  8  2  0  0  0  0
  7 13  1  0  0  0  0
  8  9  1  0  0  0  0
  8 11  1  0  0  0  0
  9 10  2  0  0  0  0
 11 12  1  0  0  0  0
 12 13  2  0  0  0  0
M  END
>  <CHROM.1>
9.17510472,3.49413737,36.05966380,-0.63376692,-1.24157802,-1.18175447

>  <Name>
1o15_lig

>  <RI>
0

>  <Rbt.Current_Directory>
/home/itssahil/PROJECTS/Mol_Feturizer/New_Systems/rnas/1o15

>  <Rbt.Executable>
rbdock ($Id: //depot/dev/client3/rdock/2013.1/src/exe/rbdock.cxx#4 $)

>  <Rbt.Library>
libRbt.so (2013.1, Build901 2013/11/27)

>  <Rbt.Parameter_File>
/export/apps/rDock/src/rDock_2013.1_src/data/scripts/dock_solv.prm

>  <Rbt.Receptor>
prm/blind_docking_80.prm

>  <SCORE>
-23.155

>  <SCORE.INTER>
-23.155

>  <SCORE.INTER.CONST>
1

>  <SCORE.INTER.POLAR>
-1.19894

>  <SCORE.INTER.ROT>
0

>  <SCORE.INTER.SOLV>
8.79989

>  <SCORE.INTER.VDW>
-17.9735

>  <SCORE.INTER.norm>
-1.78116

>  <SCORE.INTRA>
0

>  <SCORE.INTRA.DIHEDRAL>
0

>  <SCORE.INTRA.DIHEDRAL.0>
0

>  <SCORE.INTRA.POLAR>
0

>  <SCORE.INTRA.POLAR.0>
0

>  <SCORE.INTRA.REPUL>
0

>  <SCORE.INTRA.REPUL.0>
0

>  <SCORE.INTRA.SOLV>
0

>  <SCORE.INTRA.SOLV.lig_0>
-12.9184

>  <SCORE.INTRA.VDW>
0

>  <SCORE.INTRA.VDW.0>
0

>  <SCORE.INTRA.norm>
0

>  <SCORE.RESTR>
0

>  <SCORE.RESTR.CAVITY>
0

>  <SCORE.RESTR.norm>
0

>  <SCORE.SYSTEM>
0

>  <SCORE.SYSTEM.CONST>
0

>  <SCORE.SYSTEM.DIHEDRAL>
0

>  <SCORE.SYSTEM.SOLV>
0

>  <SCORE.SYSTEM.norm>
0

>  <SCORE.heavy>
13

>  <SCORE.norm>
-1.78116

>  <RMSD>
3.505

$$$$
1o15_lig
 OpenBabel11021811403D
libRbt.so/2013.1/901 2013/11/27
 13 14  0  0  0  0  0  0  0  0999 V2000
   10.0596    5.6610   37.7452 C   0  0  0  0  0  0  0  0  0  0  0  0
    9.6360    4.6255   36.9416 N   0  0  0  0  0  0  0  0  0  0  0  0
    9.3416    3.4411   37.5393 C   0  0  0  0  0  0  0  0  0  0  0  0
    9.4879    3.4035   38.7583 O   0  0  0  0  0  0  0  0  0  0  0  0
    8.6220    1.1325   37.5136 C   0  0  0  0  0  0  0  0  0  0  0  0
    8.9105    2.3230   36.8814 N   0  0  0  0  0  0  0  0  0  0  0  0
    8.7948    2.5074   35.5383 C   0  0  0  0  0  0  0  0  0  0  0  0
    9.0912    3.7027   34.9503 C   0  0  0  0  0  0  0  0  0  0  0  0
    9.5361    4.8593   35.6173 C   0  0  0  0  0  0  0  0  0  0  0  0
    9.8185    5.9600   35.1508 O   0  0  0  0  0  0  0  0  0  0  0  0
    8.8622    3.5235   33.5937 N   0  0  0  0  0  0  0  0  0  0  0  0
    8.4447    2.2405   33.4545 C   0  0  0  0  0  0  0  0  0  0  0  0
    8.3859    1.5842   34.5817 N   0  0  0  0  0  0  0  0  0  0  0  0
  1  2  1  0  0  0  0
  2  3  1  0  0  0  0
  2  9  1  0  0  0  0
  3  4  2  0  0  0  0
  3  6  1  0  0  0  0
  6  5  1  0  0  0  0
  6  7  1  0  0  0  0
  7  8  2  0  0  0  0
  7 13  1  0  0  0  0
  8  9  1  0  0  0  0
  8 11  1  0  0  0  0
  9 10  2  0  0  0  0
 11 12  1  0  0  0  0
 12 13  2  0  0  0  0
M  END
>  <CHROM.1>
9.16766126,3.48867489,36.06086676,-0.63168151,-1.24629483,-1.17885719

>  <Name>
1o15_lig

>  <RI>
0

>  <Rbt.Current_Directory>
/home/itssahil/PROJECTS/Mol_Feturizer/New_Systems/rnas/1o15

>  <Rbt.Executable>
rbdock ($Id: //depot/dev/client3/rdock/2013.1/src/exe/rbdock.cxx#4 $)

>  <Rbt.Library>
libRbt.so (2013.1, Build901 2013/11/27)

>  <Rbt.Parameter_File>
/export/apps/rDock/src/rDock_2013.1_src/data/scripts/dock_solv.prm

>  <Rbt.Receptor>
prm/pocket_docking_6.prm

>  <SCORE>
-23.1533

>  <SCORE.INTER>
-23.1533

>  <SCORE.INTER.CONST>
1

>  <SCORE.INTER.POLAR>
-1.19727

>  <SCORE.INTER.ROT>
0

>  <SCORE.INTER.SOLV>
8.79102

>  <SCORE.INTER.VDW>
-17.9749

>  <SCORE.INTER.norm>
-1.78102

>  <SCORE.INTRA>
0

>  <SCORE.INTRA.DIHEDRAL>
0

>  <SCORE.INTRA.DIHEDRAL.0>
0

>  <SCORE.INTRA.POLAR>
0

>  <SCORE.INTRA.POLAR.0>
0

>  <SCORE.INTRA.REPUL>
0

>  <SCORE.INTRA.REPUL.0>
0

>  <SCORE.INTRA.SOLV>
0

>  <SCORE.INTRA.SOLV.lig_0>
-12.9184

>  <SCORE.INTRA.VDW>
0

>  <SCORE.INTRA.VDW.0>
0

>  <SCORE.INTRA.norm>
0

>  <SCORE.RESTR>
0

>  <SCORE.RESTR.CAVITY>
0

>  <SCORE.RESTR.norm>
0

>  <SCORE.SYSTEM>
0

>  <SCORE.SYSTEM.CONST>
0

>  <SCORE.SYSTEM.DIHEDRAL>
0

>  <SCORE.SYSTEM.SOLV>
0

>  <SCORE.SYSTEM.norm>
0

>  <SCORE.heavy>
13

>  <SCORE.norm>
-1.78102

>  <RMSD>
3.505

$$$$
1o15_lig
 OpenBabel11021811403D
libRbt.so/2013.1/901 2013/11/27
 13 14  0  0  0  0  0  0  0  0999 V2000
   10.1283    5.7709   37.6764 C   0  0  0  0  0  0  0  0  0  0  0  0
    9.7025    4.7099   36.9080 N   0  0  0  0  0  0  0  0  0  0  0  0
    9.4208    3.5420   37.5432 C   0  0  0  0  0  0  0  0  0  0  0  0
    9.5796    3.5412   38.7613 O   0  0  0  0  0  0  0  0  0  0  0  0
    8.7140    1.2298   37.5929 C   0  0  0  0  0  0  0  0  0  0  0  0
    8.9895    2.4027   36.9230 N   0  0  0  0  0  0  0  0  0  0  0  0
    8.8593    2.5468   35.5763 C   0  0  0  0  0  0  0  0  0  0  0  0
    9.1431    3.7258   34.9504 C   0  0  0  0  0  0  0  0  0  0  0  0
    9.5880    4.9040   35.5785 C   0  0  0  0  0  0  0  0  0  0  0  0
    9.8596    5.9919   35.0769 O   0  0  0  0  0  0  0  0  0  0  0  0
    8.9015    3.5054   33.6020 N   0  0  0  0  0  0  0  0  0  0  0  0
    8.4899    2.2167   33.5049 C   0  0  0  0  0  0  0  0  0  0  0  0
    8.4461    1.5936   34.6515 N   0  0  0  0  0  0  0  0  0  0  0  0
  1  2  1  0  0  0  0
  2  3  1  0  0  0  0
  2  9  1  0  0  0  0
  3  4  2  0  0  0  0
  3  6  1  0  0  0  0
  6  5  1  0  0  0  0
  6  7  1  0  0  0  0
  7  8  2  0  0  0  0
  7 13  1  0  0  0  0
  8  9  1  0  0  0  0
  8 11  1  0  0  0  0
  9 10  2  0  0  0  0
 11 12  1  0  0  0  0
 12 13  2  0  0  0  0
M  END
>  <CHROM.1>
9.23183779,3.54504518,36.06593559,-0.59578074,-1.24750809,-1.17430059

>  <Name>
1o15_lig

>  <RI>
224

>  <Rbt.Current_Directory>
/home/itssahil/PROJECTS/Mol_Feturizer/New_Systems/rnas/1o15

>  <Rbt.Executable>
rbdock ($Id: //depot/dev/client3/rdock/2013.1/src/exe/rbdock.cxx#4 $)

>  <Rbt.Library>
libRbt.so (2013.1, Build901 2013/11/27)

>  <Rbt.Parameter_File>
/export/apps/rDock/src/rDock_2013.1_src/data/scripts/dock_solv.prm

>  <Rbt.Receptor>
prm/blind_docking_100.prm

>  <SCORE>
-22.8941

>  <SCORE.INTER>
-22.9701

>  <SCORE.INTER.CONST>
1

>  <SCORE.INTER.POLAR>
-1.23907

>  <SCORE.INTER.ROT>
0

>  <SCORE.INTER.SOLV>
8.8259

>  <SCORE.INTER.VDW>
-17.7252

>  <SCORE.INTER.norm>
-1.76693

>  <SCORE.INTRA>
0

>  <SCORE.INTRA.DIHEDRAL>
0

>  <SCORE.INTRA.DIHEDRAL.0>
0

>  <SCORE.INTRA.POLAR>
0

>  <SCORE.INTRA.POLAR.0>
0

>  <SCORE.INTRA.REPUL>
0

>  <SCORE.INTRA.REPUL.0>
0

>  <SCORE.INTRA.SOLV>
0

>  <SCORE.INTRA.SOLV.lig_0>
-12.9184

>  <SCORE.INTRA.VDW>
0

>  <SCORE.INTRA.VDW.0>
0

>  <SCORE.INTRA.norm>
0

>  <SCORE.RESTR>
0.0760132

>  <SCORE.RESTR.CAVITY>
0.0760132

>  <SCORE.RESTR.norm>
0.00584717

>  <SCORE.SYSTEM>
0

>  <SCORE.SYSTEM.CONST>
0

>  <SCORE.SYSTEM.DIHEDRAL>
0

>  <SCORE.SYSTEM.SOLV>
0

>  <SCORE.SYSTEM.norm>
0

>  <SCORE.heavy>
13

>  <SCORE.norm>
-1.76108

>  <RMSD>
3.506

$$$$
1o15_lig
 OpenBabel11021811403D
libRbt.so/2013.1/901 2013/11/27
 13 14  0  0  0  0  0  0  0  0999 V2000
   10.1167    5.7692   37.6760 C   0  0  0  0  0  0  0  0  0  0  0  0
    9.6929    4.7074   36.9076 N   0  0  0  0  0  0  0  0  0  0  0  0
    9.4161    3.5382   37.5426 C   0  0  0  0  0  0  0  0  0  0  0  0
    9.5771    3.5370   38.7603 O   0  0  0  0  0  0  0  0  0  0  0  0
    8.7168    1.2237   37.5920 C   0  0  0  0  0  0  0  0  0  0  0  0
    8.9873    2.3979   36.9223 N   0  0  0  0  0  0  0  0  0  0  0  0
    8.8542    2.5425   35.5760 C   0  0  0  0  0  0  0  0  0  0  0  0
    9.1330    3.7228   34.9504 C   0  0  0  0  0  0  0  0  0  0  0  0
    9.5753    4.9020   35.5785 C   0  0  0  0  0  0  0  0  0  0  0  0
    9.8425    5.9911   35.0771 O   0  0  0  0  0  0  0  0  0  0  0  0
    8.8897    3.5025   33.6023 N   0  0  0  0  0  0  0  0  0  0  0  0
    8.4820    2.2126   33.5051 C   0  0  0  0  0  0  0  0  0  0  0  0
    8.4423    1.5886   34.6513 N   0  0  0  0  0  0  0  0  0  0  0  0
  1  2  1  0  0  0  0
  2  3  1  0  0  0  0
  2  9  1  0  0  0  0
  3  4  2  0  0  0  0
  3  6  1  0  0  0  0
  6  5  1  0  0  0  0
  6  7  1  0  0  0  0
  7  8  2  0  0  0  0
  7 13  1  0  0  0  0
  8  9  1  0  0  0  0
  8 11  1  0  0  0  0
  9 10  2  0  0  0  0
 11 12  1  0  0  0  0
 12 13  2  0  0  0  0
M  END
>  <CHROM.1>
9.22438443,3.54157740,36.06563068,-0.58645665,-1.24974016,-1.16478214

>  <Name>
1o15_lig

>  <RI>
224

>  <Rbt.Current_Directory>
/home/itssahil/PROJECTS/Mol_Feturizer/New_Systems/rnas/1o15

>  <Rbt.Executable>
rbdock ($Id: //depot/dev/client3/rdock/2013.1/src/exe/rbdock.cxx#4 $)

>  <Rbt.Library>
libRbt.so (2013.1, Build901 2013/11/27)

>  <Rbt.Parameter_File>
/export/apps/rDock/src/rDock_2013.1_src/data/scripts/dock_solv.prm

>  <Rbt.Receptor>
prm/blind_docking_100.prm

>  <SCORE>
-22.8913

>  <SCORE.INTER>
-22.9699

>  <SCORE.INTER.CONST>
1

>  <SCORE.INTER.POLAR>
-1.23022

>  <SCORE.INTER.ROT>
0

>  <SCORE.INTER.SOLV>
8.8057

>  <SCORE.INTER.VDW>
-17.7477

>  <SCORE.INTER.norm>
-1.76691

>  <SCORE.INTRA>
0

>  <SCORE.INTRA.DIHEDRAL>
0

>  <SCORE.INTRA.DIHEDRAL.0>
0

>  <SCORE.INTRA.POLAR>
0

>  <SCORE.INTRA.POLAR.0>
0

>  <SCORE.INTRA.REPUL>
0

>  <SCORE.INTRA.REPUL.0>
0

>  <SCORE.INTRA.SOLV>
0

>  <SCORE.INTRA.SOLV.lig_0>
-12.9184

>  <SCORE.INTRA.VDW>
0

>  <SCORE.INTRA.VDW.0>
0

>  <SCORE.INTRA.norm>
0

>  <SCORE.RESTR>
0.0785354

>  <SCORE.RESTR.CAVITY>
0.0785354

>  <SCORE.RESTR.norm>
0.00604118

>  <SCORE.SYSTEM>
0

>  <SCORE.SYSTEM.CONST>
0

>  <SCORE.SYSTEM.DIHEDRAL>
0

>  <SCORE.SYSTEM.SOLV>
0

>  <SCORE.SYSTEM.norm>
0

>  <SCORE.heavy>
13

>  <SCORE.norm>
-1.76087

>  <RMSD>
3.506

$$$$
1o15_lig
 OpenBabel11021811403D
libRbt.so/2013.1/901 2013/11/27
 13 14  0  0  0  0  0  0  0  0999 V2000
   10.0557    5.6671   37.7427 C   0  0  0  0  0  0  0  0  0  0  0  0
    9.6321    4.6302   36.9410 N   0  0  0  0  0  0  0  0  0  0  0  0
    9.3367    3.4471   37.5408 C   0  0  0  0  0  0  0  0  0  0  0  0
    9.4822    3.4119   38.7600 O   0  0  0  0  0  0  0  0  0  0  0  0
    8.6159    1.1388   37.5193 C   0  0  0  0  0  0  0  0  0  0  0  0
    8.9054    2.3279   36.8848 N   0  0  0  0  0  0  0  0  0  0  0  0
    8.7908    2.5097   35.5413 C   0  0  0  0  0  0  0  0  0  0  0  0
    9.0882    3.7037   34.9511 C   0  0  0  0  0  0  0  0  0  0  0  0
    9.5332    4.8614   35.6161 C   0  0  0  0  0  0  0  0  0  0  0  0
    9.8165    5.9610   35.1476 O   0  0  0  0  0  0  0  0  0  0  0  0
    8.8600    3.5218   33.5947 N   0  0  0  0  0  0  0  0  0  0  0  0
    8.4419    2.2388   33.4578 C   0  0  0  0  0  0  0  0  0  0  0  0
    8.3820    1.5848   34.5863 N   0  0  0  0  0  0  0  0  0  0  0  0
  1  2  1  0  0  0  0
  2  3  1  0  0  0  0
  2  9  1  0  0  0  0
  3  4  2  0  0  0  0
  3  6  1  0  0  0  0
  6  5  1  0  0  0  0
  6  7  1  0  0  0  0
  7  8  2  0  0  0  0
  7 13  1  0  0  0  0
  8  9  1  0  0  0  0
  8 11  1  0  0  0  0
  9 10  2  0  0  0  0
 11 12  1  0  0  0  0
 12 13  2  0  0  0  0
M  END
>  <CHROM.1>
9.16376917,3.49182642,36.06216725,-0.63425615,-1.24607873,-1.18330367

>  <Name>
1o15_lig

>  <RI>
0

>  <Rbt.Current_Directory>
/home/itssahil/PROJECTS/Mol_Feturizer/New_Systems/rnas/1o15

>  <Rbt.Executable>
rbdock ($Id: //depot/dev/client3/rdock/2013.1/src/exe/rbdock.cxx#4 $)

>  <Rbt.Library>
libRbt.so (2013.1, Build901 2013/11/27)

>  <Rbt.Parameter_File>
/export/apps/rDock/src/rDock_2013.1_src/data/scripts/dock_solv.prm

>  <Rbt.Receptor>
prm/pocket_docking_4.prm

>  <SCORE>
-23.1558

>  <SCORE.INTER>
-23.1558

>  <SCORE.INTER.CONST>
1

>  <SCORE.INTER.POLAR>
-1.19844

>  <SCORE.INTER.ROT>
0

>  <SCORE.INTER.SOLV>
8.80128

>  <SCORE.INTER.VDW>
-17.9762

>  <SCORE.INTER.norm>
-1.78121

>  <SCORE.INTRA>
0

>  <SCORE.INTRA.DIHEDRAL>
0

>  <SCORE.INTRA.DIHEDRAL.0>
0

>  <SCORE.INTRA.POLAR>
0

>  <SCORE.INTRA.POLAR.0>
0

>  <SCORE.INTRA.REPUL>
0

>  <SCORE.INTRA.REPUL.0>
0

>  <SCORE.INTRA.SOLV>
0

>  <SCORE.INTRA.SOLV.lig_0>
-12.9184

>  <SCORE.INTRA.VDW>
0

>  <SCORE.INTRA.VDW.0>
0

>  <SCORE.INTRA.norm>
0

>  <SCORE.RESTR>
0

>  <SCORE.RESTR.CAVITY>
0

>  <SCORE.RESTR.norm>
0

>  <SCORE.SYSTEM>
0

>  <SCORE.SYSTEM.CONST>
0

>  <SCORE.SYSTEM.DIHEDRAL>
0

>  <SCORE.SYSTEM.SOLV>
0

>  <SCORE.SYSTEM.norm>
0

>  <SCORE.heavy>
13

>  <SCORE.norm>
-1.78121

>  <RMSD>
3.506

$$$$
1o15_lig
 OpenBabel11021811403D
libRbt.so/2013.1/901 2013/11/27
 13 14  0  0  0  0  0  0  0  0999 V2000
   10.1236    5.7694   37.6749 C   0  0  0  0  0  0  0  0  0  0  0  0
    9.6989    4.7087   36.9056 N   0  0  0  0  0  0  0  0  0  0  0  0
    9.4190    3.5398   37.5397 C   0  0  0  0  0  0  0  0  0  0  0  0
    9.5782    3.5380   38.7577 O   0  0  0  0  0  0  0  0  0  0  0  0
    8.7153    1.2266   37.5873 C   0  0  0  0  0  0  0  0  0  0  0  0
    8.9889    2.4006   36.9184 N   0  0  0  0  0  0  0  0  0  0  0  0
    8.8580    2.5459   35.5720 C   0  0  0  0  0  0  0  0  0  0  0  0
    9.1400    3.7259   34.9472 C   0  0  0  0  0  0  0  0  0  0  0  0
    9.5837    4.9040   35.5763 C   0  0  0  0  0  0  0  0  0  0  0  0
    9.8536    5.9927   35.0757 O   0  0  0  0  0  0  0  0  0  0  0  0
    8.8982    3.5065   33.5986 N   0  0  0  0  0  0  0  0  0  0  0  0
    8.4882    2.2174   33.5004 C   0  0  0  0  0  0  0  0  0  0  0  0
    8.4457    1.5931   34.6464 N   0  0  0  0  0  0  0  0  0  0  0  0
  1  2  1  0  0  0  0
  2  3  1  0  0  0  0
  2  9  1  0  0  0  0
  3  4  2  0  0  0  0
  3  6  1  0  0  0  0
  6  5  1  0  0  0  0
  6  7  1  0  0  0  0
  7  8  2  0  0  0  0
  7 13  1  0  0  0  0
  8  9  1  0  0  0  0
  8 11  1  0  0  0  0
  9 10  2  0  0  0  0
 11 12  1  0  0  0  0
 12 13  2  0  0  0  0
M  END
>  <CHROM.1>
9.22943369,3.54409970,36.06246896,-0.59303694,-1.24855064,-1.17067821

>  <Name>
1o15_lig

>  <RI>
224

>  <Rbt.Current_Directory>
/home/itssahil/PROJECTS/Mol_Feturizer/New_Systems/rnas/1o15

>  <Rbt.Executable>
rbdock ($Id: //depot/dev/client3/rdock/2013.1/src/exe/rbdock.cxx#4 $)

>  <Rbt.Library>
libRbt.so (2013.1, Build901 2013/11/27)

>  <Rbt.Parameter_File>
/export/apps/rDock/src/rDock_2013.1_src/data/scripts/dock_solv.prm

>  <Rbt.Receptor>
prm/blind_docking_100.prm

>  <SCORE>
-22.8873

>  <SCORE.INTER>
-22.9635

>  <SCORE.INTER.CONST>
1

>  <SCORE.INTER.POLAR>
-1.23515

>  <SCORE.INTER.ROT>
0

>  <SCORE.INTER.SOLV>
8.82682

>  <SCORE.INTER.VDW>
-17.7341

>  <SCORE.INTER.norm>
-1.76642

>  <SCORE.INTRA>
0

>  <SCORE.INTRA.DIHEDRAL>
0

>  <SCORE.INTRA.DIHEDRAL.0>
0

>  <SCORE.INTRA.POLAR>
0

>  <SCORE.INTRA.POLAR.0>
0

>  <SCORE.INTRA.REPUL>
0

>  <SCORE.INTRA.REPUL.0>
0

>  <SCORE.INTRA.SOLV>
0

>  <SCORE.INTRA.SOLV.lig_0>
-12.9184

>  <SCORE.INTRA.VDW>
0

>  <SCORE.INTRA.VDW.0>
0

>  <SCORE.INTRA.norm>
0

>  <SCORE.RESTR>
0.076217

>  <SCORE.RESTR.CAVITY>
0.076217

>  <SCORE.RESTR.norm>
0.00586285

>  <SCORE.SYSTEM>
0

>  <SCORE.SYSTEM.CONST>
0

>  <SCORE.SYSTEM.DIHEDRAL>
0

>  <SCORE.SYSTEM.SOLV>
0

>  <SCORE.SYSTEM.norm>
0

>  <SCORE.heavy>
13

>  <SCORE.norm>
-1.76056

>  <RMSD>
3.507

$$$$
1o15_lig
 OpenBabel11021811403D
libRbt.so/2013.1/901 2013/11/27
 13 14  0  0  0  0  0  0  0  0999 V2000
   10.1261    5.7684   37.6755 C   0  0  0  0  0  0  0  0  0  0  0  0
    9.7010    4.7081   36.9058 N   0  0  0  0  0  0  0  0  0  0  0  0
    9.4188    3.5397   37.5397 C   0  0  0  0  0  0  0  0  0  0  0  0
    9.5764    3.5377   38.7579 O   0  0  0  0  0  0  0  0  0  0  0  0
    8.7120    1.2274   37.5867 C   0  0  0  0  0  0  0  0  0  0  0  0
    8.9880    2.4009   36.9180 N   0  0  0  0  0  0  0  0  0  0  0  0
    8.8591    2.5461   35.5714 C   0  0  0  0  0  0  0  0  0  0  0  0
    9.1434    3.7257   34.9468 C   0  0  0  0  0  0  0  0  0  0  0  0
    9.5877    4.9033   35.5763 C   0  0  0  0  0  0  0  0  0  0  0  0
    9.8597    5.9917   35.0759 O   0  0  0  0  0  0  0  0  0  0  0  0
    8.9031    3.5065   33.5980 N   0  0  0  0  0  0  0  0  0  0  0  0
    8.4916    2.2178   33.4994 C   0  0  0  0  0  0  0  0  0  0  0  0
    8.4467    1.5938   34.6453 N   0  0  0  0  0  0  0  0  0  0  0  0
  1  2  1  0  0  0  0
  2  3  1  0  0  0  0
  2  9  1  0  0  0  0
  3  4  2  0  0  0  0
  3  6  1  0  0  0  0
  6  5  1  0  0  0  0
  6  7  1  0  0  0  0
  7  8  2  0  0  0  0
  7 13  1  0  0  0  0
  8  9  1  0  0  0  0
  8 11  1  0  0  0  0
  9 10  2  0  0  0  0
 11 12  1  0  0  0  0
 12 13  2  0  0  0  0
M  END
>  <CHROM.1>
9.23113449,3.54395163,36.06221224,-0.59838711,-1.24788636,-1.17589216

>  <Name>
1o15_lig

>  <RI>
224

>  <Rbt.Current_Directory>
/home/itssahil/PROJECTS/Mol_Feturizer/New_Systems/rnas/1o15

>  <Rbt.Executable>
rbdock ($Id: //depot/dev/client3/rdock/2013.1/src/exe/rbdock.cxx#4 $)

>  <Rbt.Library>
libRbt.so (2013.1, Build901 2013/11/27)

>  <Rbt.Parameter_File>
/export/apps/rDock/src/rDock_2013.1_src/data/scripts/dock_solv.prm

>  <Rbt.Receptor>
prm/blind_docking_100.prm

>  <SCORE>
-22.8955

>  <SCORE.INTER>
-22.9725

>  <SCORE.INTER.CONST>
1

>  <SCORE.INTER.POLAR>
-1.23884

>  <SCORE.INTER.ROT>
0

>  <SCORE.INTER.SOLV>
8.8358

>  <SCORE.INTER.VDW>
-17.7308

>  <SCORE.INTER.norm>
-1.76712

>  <SCORE.INTRA>
0

>  <SCORE.INTRA.DIHEDRAL>
0

>  <SCORE.INTRA.DIHEDRAL.0>
0

>  <SCORE.INTRA.POLAR>
0

>  <SCORE.INTRA.POLAR.0>
0

>  <SCORE.INTRA.REPUL>
0

>  <SCORE.INTRA.REPUL.0>
0

>  <SCORE.INTRA.SOLV>
0

>  <SCORE.INTRA.SOLV.lig_0>
-12.9184

>  <SCORE.INTRA.VDW>
0

>  <SCORE.INTRA.VDW.0>
0

>  <SCORE.INTRA.norm>
0

>  <SCORE.RESTR>
0.0770665

>  <SCORE.RESTR.CAVITY>
0.0770665

>  <SCORE.RESTR.norm>
0.0059282

>  <SCORE.SYSTEM>
0

>  <SCORE.SYSTEM.CONST>
0

>  <SCORE.SYSTEM.DIHEDRAL>
0

>  <SCORE.SYSTEM.SOLV>
0

>  <SCORE.SYSTEM.norm>
0

>  <SCORE.heavy>
13

>  <SCORE.norm>
-1.76119

>  <RMSD>
3.508

$$$$
1o15_lig
 OpenBabel11021811403D
libRbt.so/2013.1/901 2013/11/27
 13 14  0  0  0  0  0  0  0  0999 V2000
   10.1067    5.7904   37.6787 C   0  0  0  0  0  0  0  0  0  0  0  0
    9.6839    4.7241   36.9161 N   0  0  0  0  0  0  0  0  0  0  0  0
    9.3971    3.5615   37.5587 C   0  0  0  0  0  0  0  0  0  0  0  0
    9.5490    3.5699   38.7776 O   0  0  0  0  0  0  0  0  0  0  0  0
    8.6871    1.2506   37.6221 C   0  0  0  0  0  0  0  0  0  0  0  0
    8.9678    2.4180   36.9447 N   0  0  0  0  0  0  0  0  0  0  0  0
    8.8455    2.5518   35.5963 C   0  0  0  0  0  0  0  0  0  0  0  0
    9.1343    3.7257   34.9630 C   0  0  0  0  0  0  0  0  0  0  0  0
    9.5772    4.9081   35.5845 C   0  0  0  0  0  0  0  0  0  0  0  0
    9.8530    5.9917   35.0761 O   0  0  0  0  0  0  0  0  0  0  0  0
    8.9002    3.4952   33.6150 N   0  0  0  0  0  0  0  0  0  0  0  0
    8.4874    2.2063   33.5255 C   0  0  0  0  0  0  0  0  0  0  0  0
    8.4363    1.5921   34.6765 N   0  0  0  0  0  0  0  0  0  0  0  0
  1  2  1  0  0  0  0
  2  3  1  0  0  0  0
  2  9  1  0  0  0  0
  3  4  2  0  0  0  0
  3  6  1  0  0  0  0
  6  5  1  0  0  0  0
  6  7  1  0  0  0  0
  7  8  2  0  0  0  0
  7 13  1  0  0  0  0
  8  9  1  0  0  0  0
  8 11  1  0  0  0  0
  9 10  2  0  0  0  0
 11 12  1  0  0  0  0
 12 13  2  0  0  0  0
M  END
>  <CHROM.1>
9.21653430,3.55339219,36.08033663,-0.61384691,-1.24846338,-1.19913185

>  <Name>
1o15_lig

>  <RI>
224

>  <Rbt.Current_Directory>
/home/itssahil/PROJECTS/Mol_Feturizer/New_Systems/rnas/1o15

>  <Rbt.Executable>
rbdock ($Id: //depot/dev/client3/rdock/2013.1/src/exe/rbdock.cxx#4 $)

>  <Rbt.Library>
libRbt.so (2013.1, Build901 2013/11/27)

>  <Rbt.Parameter_File>
/export/apps/rDock/src/rDock_2013.1_src/data/scripts/dock_solv.prm

>  <Rbt.Receptor>
prm/blind_docking_100.prm

>  <SCORE>
-22.8681

>  <SCORE.INTER>
-22.9469

>  <SCORE.INTER.CONST>
1

>  <SCORE.INTER.POLAR>
-1.24901

>  <SCORE.INTER.ROT>
0

>  <SCORE.INTER.SOLV>
8.85321

>  <SCORE.INTER.VDW>
-17.6856

>  <SCORE.INTER.norm>
-1.76515

>  <SCORE.INTRA>
0

>  <SCORE.INTRA.DIHEDRAL>
0

>  <SCORE.INTRA.DIHEDRAL.0>
0

>  <SCORE.INTRA.POLAR>
0

>  <SCORE.INTRA.POLAR.0>
0

>  <SCORE.INTRA.REPUL>
0

>  <SCORE.INTRA.REPUL.0>
0

>  <SCORE.INTRA.SOLV>
0

>  <SCORE.INTRA.SOLV.lig_0>
-12.9184

>  <SCORE.INTRA.VDW>
0

>  <SCORE.INTRA.VDW.0>
0

>  <SCORE.INTRA.norm>
0

>  <SCORE.RESTR>
0.0788329

>  <SCORE.RESTR.CAVITY>
0.0788329

>  <SCORE.RESTR.norm>
0.00606407

>  <SCORE.SYSTEM>
0

>  <SCORE.SYSTEM.CONST>
0

>  <SCORE.SYSTEM.DIHEDRAL>
0

>  <SCORE.SYSTEM.SOLV>
0

>  <SCORE.SYSTEM.norm>
0

>  <SCORE.heavy>
13

>  <SCORE.norm>
-1.75908

>  <RMSD>
3.508

$$$$
1o15_lig
 OpenBabel11021811403D
libRbt.so/2013.1/901 2013/11/27
 13 14  0  0  0  0  0  0  0  0999 V2000
   10.0657    5.6622   37.7465 C   0  0  0  0  0  0  0  0  0  0  0  0
    9.6373    4.6294   36.9420 N   0  0  0  0  0  0  0  0  0  0  0  0
    9.3302    3.4481   37.5396 C   0  0  0  0  0  0  0  0  0  0  0  0
    9.4706    3.4107   38.7593 O   0  0  0  0  0  0  0  0  0  0  0  0
    8.5916    1.1455   37.5130 C   0  0  0  0  0  0  0  0  0  0  0  0
    8.8930    2.3329   36.8809 N   0  0  0  0  0  0  0  0  0  0  0  0
    8.7851    2.5167   35.5371 C   0  0  0  0  0  0  0  0  0  0  0  0
    9.0942    3.7089   34.9492 C   0  0  0  0  0  0  0  0  0  0  0  0
    9.5455    4.8625   35.6170 C   0  0  0  0  0  0  0  0  0  0  0  0
    9.8393    5.9603   35.1506 O   0  0  0  0  0  0  0  0  0  0  0  0
    8.8701    3.5300   33.5917 N   0  0  0  0  0  0  0  0  0  0  0  0
    8.4426    2.2505   33.4519 C   0  0  0  0  0  0  0  0  0  0  0  0
    8.3730    1.5959   34.5796 N   0  0  0  0  0  0  0  0  0  0  0  0
  1  2  1  0  0  0  0
  2  3  1  0  0  0  0
  2  9  1  0  0  0  0
  3  4  2  0  0  0  0
  3  6  1  0  0  0  0
  6  5  1  0  0  0  0
  6  7  1  0  0  0  0
  7  8  2  0  0  0  0
  7 13  1  0  0  0  0
  8  9  1  0  0  0  0
  8 11  1  0  0  0  0
  9 10  2  0  0  0  0
 11 12  1  0  0  0  0
 12 13  2  0  0  0  0
M  END
>  <CHROM.1>
9.16365856,3.49548292,36.06032987,-0.65481525,-1.24032423,-1.20186519

>  <Name>
1o15_lig

>  <RI>
0

>  <Rbt.Current_Directory>
/home/itssahil/PROJECTS/Mol_Feturizer/New_Systems/rnas/1o15

>  <Rbt.Executable>
rbdock ($Id: //depot/dev/client3/rdock/2013.1/src/exe/rbdock.cxx#4 $)

>  <Rbt.Library>
libRbt.so (2013.1, Build901 2013/11/27)

>  <Rbt.Parameter_File>
/export/apps/rDock/src/rDock_2013.1_src/data/scripts/dock_solv.prm

>  <Rbt.Receptor>
prm/pocket_docking_6.prm

>  <SCORE>
-23.1634

>  <SCORE.INTER>
-23.1634

>  <SCORE.INTER.CONST>
1

>  <SCORE.INTER.POLAR>
-1.20321

>  <SCORE.INTER.ROT>
0

>  <SCORE.INTER.SOLV>
8.84468

>  <SCORE.INTER.VDW>
-17.9798

>  <SCORE.INTER.norm>
-1.7818

>  <SCORE.INTRA>
0

>  <SCORE.INTRA.DIHEDRAL>
0

>  <SCORE.INTRA.DIHEDRAL.0>
0

>  <SCORE.INTRA.POLAR>
0

>  <SCORE.INTRA.POLAR.0>
0

>  <SCORE.INTRA.REPUL>
0

>  <SCORE.INTRA.REPUL.0>
0

>  <SCORE.INTRA.SOLV>
0

>  <SCORE.INTRA.SOLV.lig_0>
-12.9184

>  <SCORE.INTRA.VDW>
0

>  <SCORE.INTRA.VDW.0>
0

>  <SCORE.INTRA.norm>
0

>  <SCORE.RESTR>
0

>  <SCORE.RESTR.CAVITY>
0

>  <SCORE.RESTR.norm>
0

>  <SCORE.SYSTEM>
0

>  <SCORE.SYSTEM.CONST>
0

>  <SCORE.SYSTEM.DIHEDRAL>
0

>  <SCORE.SYSTEM.SOLV>
0

>  <SCORE.SYSTEM.norm>
0

>  <SCORE.heavy>
13

>  <SCORE.norm>
-1.7818

>  <RMSD>
3.508

$$$$
1o15_lig
 OpenBabel11021811403D
libRbt.so/2013.1/901 2013/11/27
 13 14  0  0  0  0  0  0  0  0999 V2000
    7.7848    6.1409   35.5713 C   0  0  0  0  0  0  0  0  0  0  0  0
    8.2835    5.0200   36.1976 N   0  0  0  0  0  0  0  0  0  0  0  0
    9.3298    5.1843   37.0491 C   0  0  0  0  0  0  0  0  0  0  0  0
    9.7418    6.3342   37.1782 O   0  0  0  0  0  0  0  0  0  0  0  0
   10.9972    4.3694   38.5996 C   0  0  0  0  0  0  0  0  0  0  0  0
    9.9340    4.1740   37.7440 N   0  0  0  0  0  0  0  0  0  0  0  0
    9.3769    2.9561   37.5045 C   0  0  0  0  0  0  0  0  0  0  0  0
    8.3245    2.8046   36.6489 C   0  0  0  0  0  0  0  0  0  0  0  0
    7.6955    3.8368   35.9282 C   0  0  0  0  0  0  0  0  0  0  0  0
    6.7501    3.7687   35.1469 O   0  0  0  0  0  0  0  0  0  0  0  0
    8.0275    1.4492   36.6516 N   0  0  0  0  0  0  0  0  0  0  0  0
    8.9140    0.8771   37.5039 C   0  0  0  0  0  0  0  0  0  0  0  0
    9.7456    1.7276   38.0425 N   0  0  0  0  0  0  0  0  0  0  0  0
  1  2  1  0  0  0  0
  2  3  1  0  0  0  0
  2  9  1  0  0  0  0
  3  4  2  0  0  0  0
  3  6  1  0  0  0  0
  6  5  1  0  0  0  0
  6  7  1  0  0  0  0
  7  8  2  0  0  0  0
  7 13  1  0  0  0  0
  8  9  1  0  0  0  0
  8 11  1  0  0  0  0
  9 10  2  0  0  0  0
 11 12  1  0  0  0  0
 12 13  2  0  0  0  0
M  END
>  <CHROM.1>
8.82992042,3.79053867,36.88846423,1.68143574,-0.68996782,-0.18485416

>  <Name>
1o15_lig

>  <RI>
224

>  <Rbt.Current_Directory>
/home/itssahil/PROJECTS/Mol_Feturizer/New_Systems/rnas/1o15

>  <Rbt.Executable>
rbdock ($Id: //depot/dev/client3/rdock/2013.1/src/exe/rbdock.cxx#4 $)

>  <Rbt.Library>
libRbt.so (2013.1, Build901 2013/11/27)

>  <Rbt.Parameter_File>
/export/apps/rDock/src/rDock_2013.1_src/data/scripts/dock_solv.prm

>  <Rbt.Receptor>
prm/blind_docking_100.prm

>  <SCORE>
-21.3662

>  <SCORE.INTER>
-21.4655

>  <SCORE.INTER.CONST>
1

>  <SCORE.INTER.POLAR>
-1.64632

>  <SCORE.INTER.ROT>
0

>  <SCORE.INTER.SOLV>
6.81817

>  <SCORE.INTER.VDW>
-14.6953

>  <SCORE.INTER.norm>
-1.65119

>  <SCORE.INTRA>
0

>  <SCORE.INTRA.DIHEDRAL>
0

>  <SCORE.INTRA.DIHEDRAL.0>
0

>  <SCORE.INTRA.POLAR>
0

>  <SCORE.INTRA.POLAR.0>
0

>  <SCORE.INTRA.REPUL>
0

>  <SCORE.INTRA.REPUL.0>
0

>  <SCORE.INTRA.SOLV>
0

>  <SCORE.INTRA.SOLV.lig_0>
-12.9184

>  <SCORE.INTRA.VDW>
0

>  <SCORE.INTRA.VDW.0>
0

>  <SCORE.INTRA.norm>
0

>  <SCORE.RESTR>
0.0992668

>  <SCORE.RESTR.CAVITY>
0.0992668

>  <SCORE.RESTR.norm>
0.00763591

>  <SCORE.SYSTEM>
0

>  <SCORE.SYSTEM.CONST>
0

>  <SCORE.SYSTEM.DIHEDRAL>
0

>  <SCORE.SYSTEM.SOLV>
0

>  <SCORE.SYSTEM.norm>
0

>  <SCORE.heavy>
13

>  <SCORE.norm>
-1.64356

>  <RMSD>
3.509

$$$$
1o15_lig
 OpenBabel11021811403D
libRbt.so/2013.1/901 2013/11/27
 13 14  0  0  0  0  0  0  0  0999 V2000
   10.1233    5.7675   37.6739 C   0  0  0  0  0  0  0  0  0  0  0  0
    9.6991    4.7074   36.9034 N   0  0  0  0  0  0  0  0  0  0  0  0
    9.4178    3.5383   37.5364 C   0  0  0  0  0  0  0  0  0  0  0  0
    9.5755    3.5355   38.7546 O   0  0  0  0  0  0  0  0  0  0  0  0
    8.7129    1.2254   37.5816 C   0  0  0  0  0  0  0  0  0  0  0  0
    8.9879    2.3997   36.9138 N   0  0  0  0  0  0  0  0  0  0  0  0
    8.8588    2.5459   35.5673 C   0  0  0  0  0  0  0  0  0  0  0  0
    9.1421    3.7262   34.9436 C   0  0  0  0  0  0  0  0  0  0  0  0
    9.5856    4.9036   35.5741 C   0  0  0  0  0  0  0  0  0  0  0  0
    9.8567    5.9926   35.0745 O   0  0  0  0  0  0  0  0  0  0  0  0
    8.9019    3.5078   33.5947 N   0  0  0  0  0  0  0  0  0  0  0  0
    8.4914    2.2190   33.4951 C   0  0  0  0  0  0  0  0  0  0  0  0
    8.4472    1.5939   34.6406 N   0  0  0  0  0  0  0  0  0  0  0  0
  1  2  1  0  0  0  0
  2  3  1  0  0  0  0
  2  9  1  0  0  0  0
  3  4  2  0  0  0  0
  3  6  1  0  0  0  0
  6  5  1  0  0  0  0
  6  7  1  0  0  0  0
  7  8  2  0  0  0  0
  7 13  1  0  0  0  0
  8  9  1  0  0  0  0
  8 11  1  0  0  0  0
  9 10  2  0  0  0  0
 11 12  1  0  0  0  0
 12 13  2  0  0  0  0
M  END
>  <CHROM.1>
9.23008018,3.54360719,36.05891858,-0.59724364,-1.24860122,-1.17401337

>  <Name>
1o15_lig

>  <RI>
224

>  <Rbt.Current_Directory>
/home/itssahil/PROJECTS/Mol_Feturizer/New_Systems/rnas/1o15

>  <Rbt.Executable>
rbdock ($Id: //depot/dev/client3/rdock/2013.1/src/exe/rbdock.cxx#4 $)

>  <Rbt.Library>
libRbt.so (2013.1, Build901 2013/11/27)

>  <Rbt.Parameter_File>
/export/apps/rDock/src/rDock_2013.1_src/data/scripts/dock_solv.prm

>  <Rbt.Receptor>
prm/blind_docking_100.prm

>  <SCORE>
-22.8921

>  <SCORE.INTER>
-22.9688

>  <SCORE.INTER.CONST>
1

>  <SCORE.INTER.POLAR>
-1.23744

>  <SCORE.INTER.ROT>
0

>  <SCORE.INTER.SOLV>
8.84001

>  <SCORE.INTER.VDW>
-17.7344

>  <SCORE.INTER.norm>
-1.76683

>  <SCORE.INTRA>
0

>  <SCORE.INTRA.DIHEDRAL>
0

>  <SCORE.INTRA.DIHEDRAL.0>
0

>  <SCORE.INTRA.POLAR>
0

>  <SCORE.INTRA.POLAR.0>
0

>  <SCORE.INTRA.REPUL>
0

>  <SCORE.INTRA.REPUL.0>
0

>  <SCORE.INTRA.SOLV>
0

>  <SCORE.INTRA.SOLV.lig_0>
-12.9184

>  <SCORE.INTRA.VDW>
0

>  <SCORE.INTRA.VDW.0>
0

>  <SCORE.INTRA.norm>
0

>  <SCORE.RESTR>
0.0767485

>  <SCORE.RESTR.CAVITY>
0.0767485

>  <SCORE.RESTR.norm>
0.00590373

>  <SCORE.SYSTEM>
0

>  <SCORE.SYSTEM.CONST>
0

>  <SCORE.SYSTEM.DIHEDRAL>
0

>  <SCORE.SYSTEM.SOLV>
0

>  <SCORE.SYSTEM.norm>
0

>  <SCORE.heavy>
13

>  <SCORE.norm>
-1.76093

>  <RMSD>
3.509

$$$$
1o15_lig
 OpenBabel11021811403D
libRbt.so/2013.1/901 2013/11/27
 13 14  0  0  0  0  0  0  0  0999 V2000
   10.0584    5.6646   37.7445 C   0  0  0  0  0  0  0  0  0  0  0  0
    9.6324    4.6306   36.9403 N   0  0  0  0  0  0  0  0  0  0  0  0
    9.3272    3.4490   37.5381 C   0  0  0  0  0  0  0  0  0  0  0  0
    9.4668    3.4124   38.7580 O   0  0  0  0  0  0  0  0  0  0  0  0
    8.5929    1.1450   37.5122 C   0  0  0  0  0  0  0  0  0  0  0  0
    8.8924    2.3326   36.8797 N   0  0  0  0  0  0  0  0  0  0  0  0
    8.7851    2.5156   35.5358 C   0  0  0  0  0  0  0  0  0  0  0  0
    9.0923    3.7081   34.9475 C   0  0  0  0  0  0  0  0  0  0  0  0
    9.5410    4.8629   35.6151 C   0  0  0  0  0  0  0  0  0  0  0  0
    9.8330    5.9610   35.1484 O   0  0  0  0  0  0  0  0  0  0  0  0
    8.8694    3.5282   33.5899 N   0  0  0  0  0  0  0  0  0  0  0  0
    8.4443    2.2477   33.4505 C   0  0  0  0  0  0  0  0  0  0  0  0
    8.3753    1.5936   34.5784 N   0  0  0  0  0  0  0  0  0  0  0  0
  1  2  1  0  0  0  0
  2  3  1  0  0  0  0
  2  9  1  0  0  0  0
  3  4  2  0  0  0  0
  3  6  1  0  0  0  0
  6  5  1  0  0  0  0
  6  7  1  0  0  0  0
  7  8  2  0  0  0  0
  7 13  1  0  0  0  0
  8  9  1  0  0  0  0
  8 11  1  0  0  0  0
  9 10  2  0  0  0  0
 11 12  1  0  0  0  0
 12 13  2  0  0  0  0
M  END
>  <CHROM.1>
9.16145414,3.49533662,36.05878365,-0.65451649,-1.24230233,-1.20205260

>  <Name>
1o15_lig

>  <RI>
0

>  <Rbt.Current_Directory>
/home/itssahil/PROJECTS/Mol_Feturizer/New_Systems/rnas/1o15

>  <Rbt.Executable>
rbdock ($Id: //depot/dev/client3/rdock/2013.1/src/exe/rbdock.cxx#4 $)

>  <Rbt.Library>
libRbt.so (2013.1, Build901 2013/11/27)

>  <Rbt.Parameter_File>
/export/apps/rDock/src/rDock_2013.1_src/data/scripts/dock_solv.prm

>  <Rbt.Receptor>
prm/blind_docking_80.prm

>  <SCORE>
-23.1614

>  <SCORE.INTER>
-23.1614

>  <SCORE.INTER.CONST>
1

>  <SCORE.INTER.POLAR>
-1.20364

>  <SCORE.INTER.ROT>
0

>  <SCORE.INTER.SOLV>
8.84982

>  <SCORE.INTER.VDW>
-17.9787

>  <SCORE.INTER.norm>
-1.78164

>  <SCORE.INTRA>
0

>  <SCORE.INTRA.DIHEDRAL>
0

>  <SCORE.INTRA.DIHEDRAL.0>
0

>  <SCORE.INTRA.POLAR>
0

>  <SCORE.INTRA.POLAR.0>
0

>  <SCORE.INTRA.REPUL>
0

>  <SCORE.INTRA.REPUL.0>
0

>  <SCORE.INTRA.SOLV>
0

>  <SCORE.INTRA.SOLV.lig_0>
-12.9184

>  <SCORE.INTRA.VDW>
0

>  <SCORE.INTRA.VDW.0>
0

>  <SCORE.INTRA.norm>
0

>  <SCORE.RESTR>
0

>  <SCORE.RESTR.CAVITY>
0

>  <SCORE.RESTR.norm>
0

>  <SCORE.SYSTEM>
0

>  <SCORE.SYSTEM.CONST>
0

>  <SCORE.SYSTEM.DIHEDRAL>
0

>  <SCORE.SYSTEM.SOLV>
0

>  <SCORE.SYSTEM.norm>
0

>  <SCORE.heavy>
13

>  <SCORE.norm>
-1.78164

>  <RMSD>
3.509

$$$$
1o15_lig
 OpenBabel11021811403D
libRbt.so/2013.1/901 2013/11/27
 13 14  0  0  0  0  0  0  0  0999 V2000
   10.0293    5.6544   37.7595 C   0  0  0  0  0  0  0  0  0  0  0  0
    9.6080    4.6212   36.9518 N   0  0  0  0  0  0  0  0  0  0  0  0
    9.3020    3.4382   37.5464 C   0  0  0  0  0  0  0  0  0  0  0  0
    9.4368    3.3996   38.7667 O   0  0  0  0  0  0  0  0  0  0  0  0
    8.5711    1.1332   37.5135 C   0  0  0  0  0  0  0  0  0  0  0  0
    8.8715    2.3224   36.8842 N   0  0  0  0  0  0  0  0  0  0  0  0
    8.7693    2.5075   35.5402 C   0  0  0  0  0  0  0  0  0  0  0  0
    9.0773    3.7015   34.9553 C   0  0  0  0  0  0  0  0  0  0  0  0
    9.5217    4.8557   35.6266 C   0  0  0  0  0  0  0  0  0  0  0  0
    9.8141    5.9550   35.1630 O   0  0  0  0  0  0  0  0  0  0  0  0
    8.8601    3.5236   33.5965 N   0  0  0  0  0  0  0  0  0  0  0  0
    8.4374    2.2428   33.4531 C   0  0  0  0  0  0  0  0  0  0  0  0
    8.3647    1.5866   34.5796 N   0  0  0  0  0  0  0  0  0  0  0  0
  1  2  1  0  0  0  0
  2  3  1  0  0  0  0
  2  9  1  0  0  0  0
  3  4  2  0  0  0  0
  3  6  1  0  0  0  0
  6  5  1  0  0  0  0
  6  7  1  0  0  0  0
  7  8  2  0  0  0  0
  7 13  1  0  0  0  0
  8  9  1  0  0  0  0
  8 11  1  0  0  0  0
  9 10  2  0  0  0  0
 11 12  1  0  0  0  0
 12 13  2  0  0  0  0
M  END
>  <CHROM.1>
9.14221600,3.48683754,36.06642212,-0.66477104,-1.24504341,-1.21003241

>  <Name>
1o15_lig

>  <RI>
0

>  <Rbt.Current_Directory>
/home/itssahil/PROJECTS/Mol_Feturizer/New_Systems/rnas/1o15

>  <Rbt.Executable>
rbdock ($Id: //depot/dev/client3/rdock/2013.1/src/exe/rbdock.cxx#4 $)

>  <Rbt.Library>
libRbt.so (2013.1, Build901 2013/11/27)

>  <Rbt.Parameter_File>
/export/apps/rDock/src/rDock_2013.1_src/data/scripts/dock_solv.prm

>  <Rbt.Receptor>
prm/pocket_docking_4.prm

>  <SCORE>
-23.1272

>  <SCORE.INTER>
-23.1272

>  <SCORE.INTER.CONST>
1

>  <SCORE.INTER.POLAR>
-1.20137

>  <SCORE.INTER.ROT>
0

>  <SCORE.INTER.SOLV>
8.84857

>  <SCORE.INTER.VDW>
-17.9631

>  <SCORE.INTER.norm>
-1.77902

>  <SCORE.INTRA>
0

>  <SCORE.INTRA.DIHEDRAL>
0

>  <SCORE.INTRA.DIHEDRAL.0>
0

>  <SCORE.INTRA.POLAR>
0

>  <SCORE.INTRA.POLAR.0>
0

>  <SCORE.INTRA.REPUL>
0

>  <SCORE.INTRA.REPUL.0>
0

>  <SCORE.INTRA.SOLV>
0

>  <SCORE.INTRA.SOLV.lig_0>
-12.9184

>  <SCORE.INTRA.VDW>
0

>  <SCORE.INTRA.VDW.0>
0

>  <SCORE.INTRA.norm>
0

>  <SCORE.RESTR>
0

>  <SCORE.RESTR.CAVITY>
0

>  <SCORE.RESTR.norm>
0

>  <SCORE.SYSTEM>
0

>  <SCORE.SYSTEM.CONST>
0

>  <SCORE.SYSTEM.DIHEDRAL>
0

>  <SCORE.SYSTEM.SOLV>
0

>  <SCORE.SYSTEM.norm>
0

>  <SCORE.heavy>
13

>  <SCORE.norm>
-1.77902

>  <RMSD>
3.509

$$$$
1o15_lig
 OpenBabel11021811403D
libRbt.so/2013.1/901 2013/11/27
 13 14  0  0  0  0  0  0  0  0999 V2000
   10.0213    5.6389   37.7660 C   0  0  0  0  0  0  0  0  0  0  0  0
    9.6050    4.6083   36.9524 N   0  0  0  0  0  0  0  0  0  0  0  0
    9.3025    3.4212   37.5406 C   0  0  0  0  0  0  0  0  0  0  0  0
    9.4354    3.3770   38.7609 O   0  0  0  0  0  0  0  0  0  0  0  0
    8.5799    1.1138   37.4949 C   0  0  0  0  0  0  0  0  0  0  0  0
    8.8770    2.3072   36.8721 N   0  0  0  0  0  0  0  0  0  0  0  0
    8.7763    2.4988   35.5289 C   0  0  0  0  0  0  0  0  0  0  0  0
    9.0808    3.6967   34.9504 C   0  0  0  0  0  0  0  0  0  0  0  0
    9.5200    4.8492   35.6283 C   0  0  0  0  0  0  0  0  0  0  0  0
    9.8091    5.9518   35.1707 O   0  0  0  0  0  0  0  0  0  0  0  0
    8.8665    3.5249   33.5905 N   0  0  0  0  0  0  0  0  0  0  0  0
    8.4487    2.2433   33.4400 C   0  0  0  0  0  0  0  0  0  0  0  0
    8.3766    1.5812   34.5630 N   0  0  0  0  0  0  0  0  0  0  0  0
  1  2  1  0  0  0  0
  2  3  1  0  0  0  0
  2  9  1  0  0  0  0
  3  4  2  0  0  0  0
  3  6  1  0  0  0  0
  6  5  1  0  0  0  0
  6  7  1  0  0  0  0
  7  8  2  0  0  0  0
  7 13  1  0  0  0  0
  8  9  1  0  0  0  0
  8 11  1  0  0  0  0
  9 10  2  0  0  0  0
 11 12  1  0  0  0  0
 12 13  2  0  0  0  0
M  END
>  <CHROM.1>
9.14480362,3.47675175,36.06062742,-0.66540593,-1.24900304,-1.20559775

>  <Name>
1o15_lig

>  <RI>
0

>  <Rbt.Current_Directory>
/home/itssahil/PROJECTS/Mol_Feturizer/New_Systems/rnas/1o15

>  <Rbt.Executable>
rbdock ($Id: //depot/dev/client3/rdock/2013.1/src/exe/rbdock.cxx#4 $)

>  <Rbt.Library>
libRbt.so (2013.1, Build901 2013/11/27)

>  <Rbt.Parameter_File>
/export/apps/rDock/src/rDock_2013.1_src/data/scripts/dock_solv.prm

>  <Rbt.Receptor>
prm/pocket_docking_6.prm

>  <SCORE>
-23.1186

>  <SCORE.INTER>
-23.1186

>  <SCORE.INTER.CONST>
1

>  <SCORE.INTER.POLAR>
-1.20078

>  <SCORE.INTER.ROT>
0

>  <SCORE.INTER.SOLV>
8.84326

>  <SCORE.INTER.VDW>
-17.9575

>  <SCORE.INTER.norm>
-1.77835

>  <SCORE.INTRA>
0

>  <SCORE.INTRA.DIHEDRAL>
0

>  <SCORE.INTRA.DIHEDRAL.0>
0

>  <SCORE.INTRA.POLAR>
0

>  <SCORE.INTRA.POLAR.0>
0

>  <SCORE.INTRA.REPUL>
0

>  <SCORE.INTRA.REPUL.0>
0

>  <SCORE.INTRA.SOLV>
0

>  <SCORE.INTRA.SOLV.lig_0>
-12.9184

>  <SCORE.INTRA.VDW>
0

>  <SCORE.INTRA.VDW.0>
0

>  <SCORE.INTRA.norm>
0

>  <SCORE.RESTR>
0

>  <SCORE.RESTR.CAVITY>
0

>  <SCORE.RESTR.norm>
0

>  <SCORE.SYSTEM>
0

>  <SCORE.SYSTEM.CONST>
0

>  <SCORE.SYSTEM.DIHEDRAL>
0

>  <SCORE.SYSTEM.SOLV>
0

>  <SCORE.SYSTEM.norm>
0

>  <SCORE.heavy>
13

>  <SCORE.norm>
-1.77835

>  <RMSD>
3.510

$$$$
1o15_lig
 OpenBabel11021811403D
libRbt.so/2013.1/901 2013/11/27
 13 14  0  0  0  0  0  0  0  0999 V2000
   10.0593    5.7891   37.6697 C   0  0  0  0  0  0  0  0  0  0  0  0
    9.6493    4.7185   36.9062 N   0  0  0  0  0  0  0  0  0  0  0  0
    9.3861    3.5492   37.5466 C   0  0  0  0  0  0  0  0  0  0  0  0
    9.5458    3.5559   38.7645 O   0  0  0  0  0  0  0  0  0  0  0  0
    8.7149    1.2266   37.6066 C   0  0  0  0  0  0  0  0  0  0  0  0
    8.9718    2.4007   36.9315 N   0  0  0  0  0  0  0  0  0  0  0  0
    8.8384    2.5370   35.5844 C   0  0  0  0  0  0  0  0  0  0  0  0
    9.1035    3.7176   34.9532 C   0  0  0  0  0  0  0  0  0  0  0  0
    9.5308    4.9051   35.5759 C   0  0  0  0  0  0  0  0  0  0  0  0
    9.7852    5.9949   35.0695 O   0  0  0  0  0  0  0  0  0  0  0  0
    8.8643    3.4878   33.6060 N   0  0  0  0  0  0  0  0  0  0  0  0
    8.4725    2.1925   33.5147 C   0  0  0  0  0  0  0  0  0  0  0  0
    8.4391    1.5737   34.6640 N   0  0  0  0  0  0  0  0  0  0  0  0
  1  2  1  0  0  0  0
  2  3  1  0  0  0  0
  2  9  1  0  0  0  0
  3  4  2  0  0  0  0
  3  6  1  0  0  0  0
  6  5  1  0  0  0  0
  6  7  1  0  0  0  0
  7  8  2  0  0  0  0
  7 13  1  0  0  0  0
  8  9  1  0  0  0  0
  8 11  1  0  0  0  0
  9 10  2  0  0  0  0
 11 12  1  0  0  0  0
 12 13  2  0  0  0  0
M  END
>  <CHROM.1>
9.19591560,3.54296592,36.06941529,-0.57394427,-1.26130696,-1.15780349

>  <Name>
1o15_lig

>  <RI>
224

>  <Rbt.Current_Directory>
/home/itssahil/PROJECTS/Mol_Feturizer/New_Systems/rnas/1o15

>  <Rbt.Executable>
rbdock ($Id: //depot/dev/client3/rdock/2013.1/src/exe/rbdock.cxx#4 $)

>  <Rbt.Library>
libRbt.so (2013.1, Build901 2013/11/27)

>  <Rbt.Parameter_File>
/export/apps/rDock/src/rDock_2013.1_src/data/scripts/dock_solv.prm

>  <Rbt.Receptor>
prm/blind_docking_100.prm

>  <SCORE>
-22.8299

>  <SCORE.INTER>
-22.9108

>  <SCORE.INTER.CONST>
1

>  <SCORE.INTER.POLAR>
-1.22218

>  <SCORE.INTER.ROT>
0

>  <SCORE.INTER.SOLV>
8.80181

>  <SCORE.INTER.VDW>
-17.7339

>  <SCORE.INTER.norm>
-1.76237

>  <SCORE.INTRA>
0

>  <SCORE.INTRA.DIHEDRAL>
0

>  <SCORE.INTRA.DIHEDRAL.0>
0

>  <SCORE.INTRA.POLAR>
0

>  <SCORE.INTRA.POLAR.0>
0

>  <SCORE.INTRA.REPUL>
0

>  <SCORE.INTRA.REPUL.0>
0

>  <SCORE.INTRA.SOLV>
0

>  <SCORE.INTRA.SOLV.lig_0>
-12.9184

>  <SCORE.INTRA.VDW>
0

>  <SCORE.INTRA.VDW.0>
0

>  <SCORE.INTRA.norm>
0

>  <SCORE.RESTR>
0.0809504

>  <SCORE.RESTR.CAVITY>
0.0809504

>  <SCORE.RESTR.norm>
0.00622695

>  <SCORE.SYSTEM>
0

>  <SCORE.SYSTEM.CONST>
0

>  <SCORE.SYSTEM.DIHEDRAL>
0

>  <SCORE.SYSTEM.SOLV>
0

>  <SCORE.SYSTEM.norm>
0

>  <SCORE.heavy>
13

>  <SCORE.norm>
-1.75615

>  <RMSD>
3.511

$$$$
1o15_lig
 OpenBabel11021811403D
libRbt.so/2013.1/901 2013/11/27
 13 14  0  0  0  0  0  0  0  0999 V2000
   10.0678    5.7797   37.6639 C   0  0  0  0  0  0  0  0  0  0  0  0
    9.6554    4.7127   36.8966 N   0  0  0  0  0  0  0  0  0  0  0  0
    9.3917    3.5411   37.5326 C   0  0  0  0  0  0  0  0  0  0  0  0
    9.5531    3.5427   38.7503 O   0  0  0  0  0  0  0  0  0  0  0  0
    8.7179    1.2190   37.5842 C   0  0  0  0  0  0  0  0  0  0  0  0
    8.9752    2.3956   36.9135 N   0  0  0  0  0  0  0  0  0  0  0  0
    8.8400    2.5376   35.5671 C   0  0  0  0  0  0  0  0  0  0  0  0
    9.1057    3.7204   34.9404 C   0  0  0  0  0  0  0  0  0  0  0  0
    9.5352    4.9048   35.5673 C   0  0  0  0  0  0  0  0  0  0  0  0
    9.7903    5.9964   35.0649 O   0  0  0  0  0  0  0  0  0  0  0  0
    8.8643    3.4963   33.5926 N   0  0  0  0  0  0  0  0  0  0  0  0
    8.4708    2.2019   33.4966 C   0  0  0  0  0  0  0  0  0  0  0  0
    8.4383    1.5785   34.6433 N   0  0  0  0  0  0  0  0  0  0  0  0
  1  2  1  0  0  0  0
  2  3  1  0  0  0  0
  2  9  1  0  0  0  0
  3  4  2  0  0  0  0
  3  6  1  0  0  0  0
  6  5  1  0  0  0  0
  6  7  1  0  0  0  0
  7  8  2  0  0  0  0
  7 13  1  0  0  0  0
  8  9  1  0  0  0  0
  8 11  1  0  0  0  0
  9 10  2  0  0  0  0
 11 12  1  0  0  0  0
 12 13  2  0  0  0  0
M  END
>  <CHROM.1>
9.19942610,3.54109321,36.05572896,-0.57128068,-1.25964650,-1.15119877

>  <Name>
1o15_lig

>  <RI>
224

>  <Rbt.Current_Directory>
/home/itssahil/PROJECTS/Mol_Feturizer/New_Systems/rnas/1o15

>  <Rbt.Executable>
rbdock ($Id: //depot/dev/client3/rdock/2013.1/src/exe/rbdock.cxx#4 $)

>  <Rbt.Library>
libRbt.so (2013.1, Build901 2013/11/27)

>  <Rbt.Parameter_File>
/export/apps/rDock/src/rDock_2013.1_src/data/scripts/dock_solv.prm

>  <Rbt.Receptor>
prm/blind_docking_100.prm

>  <SCORE>
-22.8442

>  <SCORE.INTER>
-22.9233

>  <SCORE.INTER.CONST>
1

>  <SCORE.INTER.POLAR>
-1.21614

>  <SCORE.INTER.ROT>
0

>  <SCORE.INTER.SOLV>
8.81424

>  <SCORE.INTER.VDW>
-17.7665

>  <SCORE.INTER.norm>
-1.76333

>  <SCORE.INTRA>
0

>  <SCORE.INTRA.DIHEDRAL>
0

>  <SCORE.INTRA.DIHEDRAL.0>
0

>  <SCORE.INTRA.POLAR>
0

>  <SCORE.INTRA.POLAR.0>
0

>  <SCORE.INTRA.REPUL>
0

>  <SCORE.INTRA.REPUL.0>
0

>  <SCORE.INTRA.SOLV>
0

>  <SCORE.INTRA.SOLV.lig_0>
-12.9184

>  <SCORE.INTRA.VDW>
0

>  <SCORE.INTRA.VDW.0>
0

>  <SCORE.INTRA.norm>
0

>  <SCORE.RESTR>
0.0791529

>  <SCORE.RESTR.CAVITY>
0.0791529

>  <SCORE.RESTR.norm>
0.00608868

>  <SCORE.SYSTEM>
0

>  <SCORE.SYSTEM.CONST>
0

>  <SCORE.SYSTEM.DIHEDRAL>
0

>  <SCORE.SYSTEM.SOLV>
0

>  <SCORE.SYSTEM.norm>
0

>  <SCORE.heavy>
13

>  <SCORE.norm>
-1.75724

>  <RMSD>
3.513

$$$$
1o15_lig
 OpenBabel11021811403D
libRbt.so/2013.1/901 2013/11/27
 13 14  0  0  0  0  0  0  0  0999 V2000
   10.0364    5.6376   37.7652 C   0  0  0  0  0  0  0  0  0  0  0  0
    9.6143    4.6109   36.9497 N   0  0  0  0  0  0  0  0  0  0  0  0
    9.2986    3.4265   37.5364 C   0  0  0  0  0  0  0  0  0  0  0  0
    9.4260    3.3809   38.7573 O   0  0  0  0  0  0  0  0  0  0  0  0
    8.5556    1.1256   37.4873 C   0  0  0  0  0  0  0  0  0  0  0  0
    8.8660    2.3164   36.8660 N   0  0  0  0  0  0  0  0  0  0  0  0
    8.7727    2.5090   35.5223 C   0  0  0  0  0  0  0  0  0  0  0  0
    9.0904    3.7043   34.9454 C   0  0  0  0  0  0  0  0  0  0  0  0
    9.5370    4.8527   35.6253 C   0  0  0  0  0  0  0  0  0  0  0  0
    9.8380    5.9527   35.1691 O   0  0  0  0  0  0  0  0  0  0  0  0
    8.8802    3.5346   33.5845 N   0  0  0  0  0  0  0  0  0  0  0  0
    8.4516    2.2568   33.4320 C   0  0  0  0  0  0  0  0  0  0  0  0
    8.3689    1.5953   34.5546 N   0  0  0  0  0  0  0  0  0  0  0  0
  1  2  1  0  0  0  0
  2  3  1  0  0  0  0
  2  9  1  0  0  0  0
  3  4  2  0  0  0  0
  3  6  1  0  0  0  0
  6  5  1  0  0  0  0
  6  7  1  0  0  0  0
  7  8  2  0  0  0  0
  7 13  1  0  0  0  0
  8  9  1  0  0  0  0
  8 11  1  0  0  0  0
  9 10  2  0  0  0  0
 11 12  1  0  0  0  0
 12 13  2  0  0  0  0
M  END
>  <CHROM.1>
9.14772957,3.48361363,36.05578503,-0.68753237,-1.24205190,-1.22642143

>  <Name>
1o15_lig

>  <RI>
0

>  <Rbt.Current_Directory>
/home/itssahil/PROJECTS/Mol_Feturizer/New_Systems/rnas/1o15

>  <Rbt.Executable>
rbdock ($Id: //depot/dev/client3/rdock/2013.1/src/exe/rbdock.cxx#4 $)

>  <Rbt.Library>
libRbt.so (2013.1, Build901 2013/11/27)

>  <Rbt.Parameter_File>
/export/apps/rDock/src/rDock_2013.1_src/data/scripts/dock_solv.prm

>  <Rbt.Receptor>
prm/pocket_docking_6.prm

>  <SCORE>
-23.1179

>  <SCORE.INTER>
-23.1179

>  <SCORE.INTER.CONST>
1

>  <SCORE.INTER.POLAR>
-1.20784

>  <SCORE.INTER.ROT>
0

>  <SCORE.INTER.SOLV>
8.89971

>  <SCORE.INTER.VDW>
-17.9524

>  <SCORE.INTER.norm>
-1.7783

>  <SCORE.INTRA>
0

>  <SCORE.INTRA.DIHEDRAL>
0

>  <SCORE.INTRA.DIHEDRAL.0>
0

>  <SCORE.INTRA.POLAR>
0

>  <SCORE.INTRA.POLAR.0>
0

>  <SCORE.INTRA.REPUL>
0

>  <SCORE.INTRA.REPUL.0>
0

>  <SCORE.INTRA.SOLV>
0

>  <SCORE.INTRA.SOLV.lig_0>
-12.9184

>  <SCORE.INTRA.VDW>
0

>  <SCORE.INTRA.VDW.0>
0

>  <SCORE.INTRA.norm>
0

>  <SCORE.RESTR>
0

>  <SCORE.RESTR.CAVITY>
0

>  <SCORE.RESTR.norm>
0

>  <SCORE.SYSTEM>
0

>  <SCORE.SYSTEM.CONST>
0

>  <SCORE.SYSTEM.DIHEDRAL>
0

>  <SCORE.SYSTEM.SOLV>
0

>  <SCORE.SYSTEM.norm>
0

>  <SCORE.heavy>
13

>  <SCORE.norm>
-1.7783

>  <RMSD>
3.513

$$$$
1o15_lig
 OpenBabel11021811403D
libRbt.so/2013.1/901 2013/11/27
 13 14  0  0  0  0  0  0  0  0999 V2000
   10.0333    5.6780   37.7403 C   0  0  0  0  0  0  0  0  0  0  0  0
    9.6119    4.6404   36.9383 N   0  0  0  0  0  0  0  0  0  0  0  0
    9.3047    3.4611   37.5396 C   0  0  0  0  0  0  0  0  0  0  0  0
    9.4384    3.4297   38.7603 O   0  0  0  0  0  0  0  0  0  0  0  0
    8.5720    1.1565   37.5197 C   0  0  0  0  0  0  0  0  0  0  0  0
    8.8738    2.3417   36.8837 N   0  0  0  0  0  0  0  0  0  0  0  0
    8.7729    2.5190   35.5385 C   0  0  0  0  0  0  0  0  0  0  0  0
    9.0822    3.7093   34.9468 C   0  0  0  0  0  0  0  0  0  0  0  0
    9.5269    4.8671   35.6118 C   0  0  0  0  0  0  0  0  0  0  0  0
    9.8205    5.9635   35.1419 O   0  0  0  0  0  0  0  0  0  0  0  0
    8.8660    3.5236   33.5889 N   0  0  0  0  0  0  0  0  0  0  0  0
    8.4426    2.2423   33.4528 C   0  0  0  0  0  0  0  0  0  0  0  0
    8.3685    1.5928   34.5830 N   0  0  0  0  0  0  0  0  0  0  0  0
  1  2  1  0  0  0  0
  2  3  1  0  0  0  0
  2  9  1  0  0  0  0
  3  4  2  0  0  0  0
  3  6  1  0  0  0  0
  6  5  1  0  0  0  0
  6  7  1  0  0  0  0
  7  8  2  0  0  0  0
  7 13  1  0  0  0  0
  8  9  1  0  0  0  0
  8 11  1  0  0  0  0
  9 10  2  0  0  0  0
 11 12  1  0  0  0  0
 12 13  2  0  0  0  0
M  END
>  <CHROM.1>
9.14610066,3.50117759,36.05927283,-0.66798806,-1.24466292,-1.21896854

>  <Name>
1o15_lig

>  <RI>
0

>  <Rbt.Current_Directory>
/home/itssahil/PROJECTS/Mol_Feturizer/New_Systems/rnas/1o15

>  <Rbt.Executable>
rbdock ($Id: //depot/dev/client3/rdock/2013.1/src/exe/rbdock.cxx#4 $)

>  <Rbt.Library>
libRbt.so (2013.1, Build901 2013/11/27)

>  <Rbt.Parameter_File>
/export/apps/rDock/src/rDock_2013.1_src/data/scripts/dock_solv.prm

>  <Rbt.Receptor>
prm/pocket_docking_5.prm

>  <SCORE>
-23.1125

>  <SCORE.INTER>
-23.1125

>  <SCORE.INTER.CONST>
1

>  <SCORE.INTER.POLAR>
-1.20809

>  <SCORE.INTER.ROT>
0

>  <SCORE.INTER.SOLV>
8.89558

>  <SCORE.INTER.VDW>
-17.9466

>  <SCORE.INTER.norm>
-1.77788

>  <SCORE.INTRA>
0

>  <SCORE.INTRA.DIHEDRAL>
0

>  <SCORE.INTRA.DIHEDRAL.0>
0

>  <SCORE.INTRA.POLAR>
0

>  <SCORE.INTRA.POLAR.0>
0

>  <SCORE.INTRA.REPUL>
0

>  <SCORE.INTRA.REPUL.0>
0

>  <SCORE.INTRA.SOLV>
0

>  <SCORE.INTRA.SOLV.lig_0>
-12.9184

>  <SCORE.INTRA.VDW>
0

>  <SCORE.INTRA.VDW.0>
0

>  <SCORE.INTRA.norm>
0

>  <SCORE.RESTR>
0

>  <SCORE.RESTR.CAVITY>
0

>  <SCORE.RESTR.norm>
0

>  <SCORE.SYSTEM>
0

>  <SCORE.SYSTEM.CONST>
0

>  <SCORE.SYSTEM.DIHEDRAL>
0

>  <SCORE.SYSTEM.SOLV>
0

>  <SCORE.SYSTEM.norm>
0

>  <SCORE.heavy>
13

>  <SCORE.norm>
-1.77788

>  <RMSD>
3.514

$$$$
1o15_lig
 OpenBabel11021811403D
libRbt.so/2013.1/901 2013/11/27
 13 14  0  0  0  0  0  0  0  0999 V2000
   10.0728    5.8148   37.6778 C   0  0  0  0  0  0  0  0  0  0  0  0
    9.6574    4.7422   36.9198 N   0  0  0  0  0  0  0  0  0  0  0  0
    9.3626    3.5854   37.5692 C   0  0  0  0  0  0  0  0  0  0  0  0
    9.5012    3.6041   38.7895 O   0  0  0  0  0  0  0  0  0  0  0  0
    8.6500    1.2757   37.6446 C   0  0  0  0  0  0  0  0  0  0  0  0
    8.9391    2.4370   36.9604 N   0  0  0  0  0  0  0  0  0  0  0  0
    8.8316    2.5594   35.6096 C   0  0  0  0  0  0  0  0  0  0  0  0
    9.1283    3.7275   34.9694 C   0  0  0  0  0  0  0  0  0  0  0  0
    9.5654    4.9149   35.5856 C   0  0  0  0  0  0  0  0  0  0  0  0
    9.8477    5.9939   35.0710 O   0  0  0  0  0  0  0  0  0  0  0  0
    8.9087    3.4857   33.6210 N   0  0  0  0  0  0  0  0  0  0  0  0
    8.4959    2.1964   33.5380 C   0  0  0  0  0  0  0  0  0  0  0  0
    8.4317    1.5921   34.6937 N   0  0  0  0  0  0  0  0  0  0  0  0
  1  2  1  0  0  0  0
  2  3  1  0  0  0  0
  2  9  1  0  0  0  0
  3  4  2  0  0  0  0
  3  6  1  0  0  0  0
  6  5  1  0  0  0  0
  6  7  1  0  0  0  0
  7  8  2  0  0  0  0
  7 13  1  0  0  0  0
  8  9  1  0  0  0  0
  8 11  1  0  0  0  0
  9 10  2  0  0  0  0
 11 12  1  0  0  0  0
 12 13  2  0  0  0  0
M  END
>  <CHROM.1>
9.19818928,3.56476587,36.08907359,-0.64723139,-1.25147567,-1.23938153

>  <Name>
1o15_lig

>  <RI>
224

>  <Rbt.Current_Directory>
/home/itssahil/PROJECTS/Mol_Feturizer/New_Systems/rnas/1o15

>  <Rbt.Executable>
rbdock ($Id: //depot/dev/client3/rdock/2013.1/src/exe/rbdock.cxx#4 $)

>  <Rbt.Library>
libRbt.so (2013.1, Build901 2013/11/27)

>  <Rbt.Parameter_File>
/export/apps/rDock/src/rDock_2013.1_src/data/scripts/dock_solv.prm

>  <Rbt.Receptor>
prm/blind_docking_100.prm

>  <SCORE>
-22.8524

>  <SCORE.INTER>
-22.9289

>  <SCORE.INTER.CONST>
1

>  <SCORE.INTER.POLAR>
-1.26698

>  <SCORE.INTER.ROT>
0

>  <SCORE.INTER.SOLV>
8.92935

>  <SCORE.INTER.VDW>
-17.6391

>  <SCORE.INTER.norm>
-1.76376

>  <SCORE.INTRA>
0

>  <SCORE.INTRA.DIHEDRAL>
0

>  <SCORE.INTRA.DIHEDRAL.0>
0

>  <SCORE.INTRA.POLAR>
0

>  <SCORE.INTRA.POLAR.0>
0

>  <SCORE.INTRA.REPUL>
0

>  <SCORE.INTRA.REPUL.0>
0

>  <SCORE.INTRA.SOLV>
0

>  <SCORE.INTRA.SOLV.lig_0>
-12.9184

>  <SCORE.INTRA.VDW>
0

>  <SCORE.INTRA.VDW.0>
0

>  <SCORE.INTRA.norm>
0

>  <SCORE.RESTR>
0.0764586

>  <SCORE.RESTR.CAVITY>
0.0764586

>  <SCORE.RESTR.norm>
0.00588143

>  <SCORE.SYSTEM>
0

>  <SCORE.SYSTEM.CONST>
0

>  <SCORE.SYSTEM.DIHEDRAL>
0

>  <SCORE.SYSTEM.SOLV>
0

>  <SCORE.SYSTEM.norm>
0

>  <SCORE.heavy>
13

>  <SCORE.norm>
-1.75788

>  <RMSD>
3.515

$$$$
1o15_lig
 OpenBabel11021811403D
libRbt.so/2013.1/901 2013/11/27
 13 14  0  0  0  0  0  0  0  0999 V2000
   10.0710    5.8179   37.6771 C   0  0  0  0  0  0  0  0  0  0  0  0
    9.6574    4.7442   36.9198 N   0  0  0  0  0  0  0  0  0  0  0  0
    9.3637    3.5876   37.5700 C   0  0  0  0  0  0  0  0  0  0  0  0
    9.5015    3.6075   38.7905 O   0  0  0  0  0  0  0  0  0  0  0  0
    8.6538    1.2771   37.6471 C   0  0  0  0  0  0  0  0  0  0  0  0
    8.9419    2.4381   36.9620 N   0  0  0  0  0  0  0  0  0  0  0  0
    8.8350    2.5592   35.6111 C   0  0  0  0  0  0  0  0  0  0  0  0
    9.1307    3.7271   34.9700 C   0  0  0  0  0  0  0  0  0  0  0  0
    9.5660    4.9155   35.5854 C   0  0  0  0  0  0  0  0  0  0  0  0
    9.8472    5.9945   35.0700 O   0  0  0  0  0  0  0  0  0  0  0  0
    8.9121    3.4838   33.6217 N   0  0  0  0  0  0  0  0  0  0  0  0
    8.5009    2.1939   33.5396 C   0  0  0  0  0  0  0  0  0  0  0  0
    8.4368    1.5906   34.6957 N   0  0  0  0  0  0  0  0  0  0  0  0
  1  2  1  0  0  0  0
  2  3  1  0  0  0  0
  2  9  1  0  0  0  0
  3  4  2  0  0  0  0
  3  6  1  0  0  0  0
  6  5  1  0  0  0  0
  6  7  1  0  0  0  0
  7  8  2  0  0  0  0
  7 13  1  0  0  0  0
  8  9  1  0  0  0  0
  8 11  1  0  0  0  0
  9 10  2  0  0  0  0
 11 12  1  0  0  0  0
 12 13  2  0  0  0  0
M  END
>  <CHROM.1>
9.20009012,3.56542072,36.08985010,-0.64766430,-1.25280525,-1.24066617

>  <Name>
1o15_lig

>  <RI>
224

>  <Rbt.Current_Directory>
/home/itssahil/PROJECTS/Mol_Feturizer/New_Systems/rnas/1o15

>  <Rbt.Executable>
rbdock ($Id: //depot/dev/client3/rdock/2013.1/src/exe/rbdock.cxx#4 $)

>  <Rbt.Library>
libRbt.so (2013.1, Build901 2013/11/27)

>  <Rbt.Parameter_File>
/export/apps/rDock/src/rDock_2013.1_src/data/scripts/dock_solv.prm

>  <Rbt.Receptor>
prm/blind_docking_100.prm

>  <SCORE>
-22.8453

>  <SCORE.INTER>
-22.9198

>  <SCORE.INTER.CONST>
1

>  <SCORE.INTER.POLAR>
-1.26992

>  <SCORE.INTER.ROT>
0

>  <SCORE.INTER.SOLV>
8.93189

>  <SCORE.INTER.VDW>
-17.6241

>  <SCORE.INTER.norm>
-1.76306

>  <SCORE.INTRA>
0

>  <SCORE.INTRA.DIHEDRAL>
0

>  <SCORE.INTRA.DIHEDRAL.0>
0

>  <SCORE.INTRA.POLAR>
0

>  <SCORE.INTRA.POLAR.0>
0

>  <SCORE.INTRA.REPUL>
0

>  <SCORE.INTRA.REPUL.0>
0

>  <SCORE.INTRA.SOLV>
0

>  <SCORE.INTRA.SOLV.lig_0>
-12.9184

>  <SCORE.INTRA.VDW>
0

>  <SCORE.INTRA.VDW.0>
0

>  <SCORE.INTRA.norm>
0

>  <SCORE.RESTR>
0.0745287

>  <SCORE.RESTR.CAVITY>
0.0745287

>  <SCORE.RESTR.norm>
0.00573298

>  <SCORE.SYSTEM>
0

>  <SCORE.SYSTEM.CONST>
0

>  <SCORE.SYSTEM.DIHEDRAL>
0

>  <SCORE.SYSTEM.SOLV>
0

>  <SCORE.SYSTEM.norm>
0

>  <SCORE.heavy>
13

>  <SCORE.norm>
-1.75733

>  <RMSD>
3.515

$$$$
1o15_lig
 OpenBabel11021811403D
libRbt.so/2013.1/901 2013/11/27
 13 14  0  0  0  0  0  0  0  0999 V2000
    7.8621    6.1951   35.5353 C   0  0  0  0  0  0  0  0  0  0  0  0
    8.3176    5.0057   36.0598 N   0  0  0  0  0  0  0  0  0  0  0  0
    9.3674    5.0554   36.9213 C   0  0  0  0  0  0  0  0  0  0  0  0
    9.8213    6.1735   37.1510 O   0  0  0  0  0  0  0  0  0  0  0  0
   11.0001    4.0459   38.3922 C   0  0  0  0  0  0  0  0  0  0  0  0
    9.9324    3.9661   37.5238 N   0  0  0  0  0  0  0  0  0  0  0  0
    9.3312    2.7955   37.1784 C   0  0  0  0  0  0  0  0  0  0  0  0
    8.2759    2.7590   36.3138 C   0  0  0  0  0  0  0  0  0  0  0  0
    7.6869    3.8733   35.6877 C   0  0  0  0  0  0  0  0  0  0  0  0
    6.7414    3.9094   34.9044 O   0  0  0  0  0  0  0  0  0  0  0  0
    7.9290    1.4207   36.1973 N   0  0  0  0  0  0  0  0  0  0  0  0
    8.7919    0.7433   36.9949 C   0  0  0  0  0  0  0  0  0  0  0  0
    9.6531    1.5116   37.6055 N   0  0  0  0  0  0  0  0  0  0  0  0
  1  2  1  0  0  0  0
  2  3  1  0  0  0  0
  2  9  1  0  0  0  0
  3  4  2  0  0  0  0
  3  6  1  0  0  0  0
  6  5  1  0  0  0  0
  6  7  1  0  0  0  0
  7  8  2  0  0  0  0
  7 13  1  0  0  0  0
  8  9  1  0  0  0  0
  8 11  1  0  0  0  0
  9 10  2  0  0  0  0
 11 12  1  0  0  0  0
 12 13  2  0  0  0  0
M  END
>  <CHROM.1>
8.81679332,3.70069475,36.63890959,1.63403686,-0.68480701,-0.12657792

>  <Name>
1o15_lig

>  <RI>
0

>  <Rbt.Current_Directory>
/home/itssahil/PROJECTS/Mol_Feturizer/New_Systems/rnas/1o15

>  <Rbt.Executable>
rbdock ($Id: //depot/dev/client3/rdock/2013.1/src/exe/rbdock.cxx#4 $)

>  <Rbt.Library>
libRbt.so (2013.1, Build901 2013/11/27)

>  <Rbt.Parameter_File>
/export/apps/rDock/src/rDock_2013.1_src/data/scripts/dock_solv.prm

>  <Rbt.Receptor>
prm/blind_docking_40.prm

>  <SCORE>
-19.3113

>  <SCORE.INTER>
-19.8949

>  <SCORE.INTER.CONST>
1

>  <SCORE.INTER.POLAR>
-1.7131

>  <SCORE.INTER.ROT>
0

>  <SCORE.INTER.SOLV>
6.34115

>  <SCORE.INTER.VDW>
-13.2667

>  <SCORE.INTER.norm>
-1.53038

>  <SCORE.INTRA>
0

>  <SCORE.INTRA.DIHEDRAL>
0

>  <SCORE.INTRA.DIHEDRAL.0>
0

>  <SCORE.INTRA.POLAR>
0

>  <SCORE.INTRA.POLAR.0>
0

>  <SCORE.INTRA.REPUL>
0

>  <SCORE.INTRA.REPUL.0>
0

>  <SCORE.INTRA.SOLV>
0

>  <SCORE.INTRA.SOLV.lig_0>
-12.9184

>  <SCORE.INTRA.VDW>
0

>  <SCORE.INTRA.VDW.0>
0

>  <SCORE.INTRA.norm>
0

>  <SCORE.RESTR>
0.5836

>  <SCORE.RESTR.CAVITY>
0.5836

>  <SCORE.RESTR.norm>
0.0448923

>  <SCORE.SYSTEM>
0

>  <SCORE.SYSTEM.CONST>
0

>  <SCORE.SYSTEM.DIHEDRAL>
0

>  <SCORE.SYSTEM.SOLV>
0

>  <SCORE.SYSTEM.norm>
0

>  <SCORE.heavy>
13

>  <SCORE.norm>
-1.48549

>  <RMSD>
3.520

$$$$
1o15_lig
 OpenBabel11021811403D
libRbt.so/2013.1/901 2013/11/27
 13 14  0  0  0  0  0  0  0  0999 V2000
    7.8804    6.2173   35.5401 C   0  0  0  0  0  0  0  0  0  0  0  0
    8.3294    5.0243   36.0621 N   0  0  0  0  0  0  0  0  0  0  0  0
    9.3762    5.0670   36.9277 C   0  0  0  0  0  0  0  0  0  0  0  0
    9.8335    6.1825   37.1629 O   0  0  0  0  0  0  0  0  0  0  0  0
   10.9996    4.0461   38.4010 C   0  0  0  0  0  0  0  0  0  0  0  0
    9.9348    3.9734   37.5284 N   0  0  0  0  0  0  0  0  0  0  0  0
    9.3304    2.8064   37.1767 C   0  0  0  0  0  0  0  0  0  0  0  0
    8.2782    2.7770   36.3081 C   0  0  0  0  0  0  0  0  0  0  0  0
    7.6958    3.8957   35.6837 C   0  0  0  0  0  0  0  0  0  0  0  0
    6.7533    3.9381   34.8971 O   0  0  0  0  0  0  0  0  0  0  0  0
    7.9267    1.4404   36.1856 N   0  0  0  0  0  0  0  0  0  0  0  0
    8.7840    0.7569   36.9840 C   0  0  0  0  0  0  0  0  0  0  0  0
    9.6458    1.5197   37.6005 N   0  0  0  0  0  0  0  0  0  0  0  0
  1  2  1  0  0  0  0
  2  3  1  0  0  0  0
  2  9  1  0  0  0  0
  3  4  2  0  0  0  0
  3  6  1  0  0  0  0
  6  5  1  0  0  0  0
  6  7  1  0  0  0  0
  7  8  2  0  0  0  0
  7 13  1  0  0  0  0
  8  9  1  0  0  0  0
  8 11  1  0  0  0  0
  9 10  2  0  0  0  0
 11 12  1  0  0  0  0
 12 13  2  0  0  0  0
M  END
>  <CHROM.1>
8.82146679,3.71539349,36.63847961,1.62854318,-0.68797552,-0.12656489

>  <Name>
1o15_lig

>  <RI>
0

>  <Rbt.Current_Directory>
/home/itssahil/PROJECTS/Mol_Feturizer/New_Systems/rnas/1o15

>  <Rbt.Executable>
rbdock ($Id: //depot/dev/client3/rdock/2013.1/src/exe/rbdock.cxx#4 $)

>  <Rbt.Library>
libRbt.so (2013.1, Build901 2013/11/27)

>  <Rbt.Parameter_File>
/export/apps/rDock/src/rDock_2013.1_src/data/scripts/dock_solv.prm

>  <Rbt.Receptor>
prm/blind_docking_40.prm

>  <SCORE>
-19.278

>  <SCORE.INTER>
-19.8599

>  <SCORE.INTER.CONST>
1

>  <SCORE.INTER.POLAR>
-1.70295

>  <SCORE.INTER.ROT>
0

>  <SCORE.INTER.SOLV>
6.33547

>  <SCORE.INTER.VDW>
-13.2753

>  <SCORE.INTER.norm>
-1.52769

>  <SCORE.INTRA>
0

>  <SCORE.INTRA.DIHEDRAL>
0

>  <SCORE.INTRA.DIHEDRAL.0>
0

>  <SCORE.INTRA.POLAR>
0

>  <SCORE.INTRA.POLAR.0>
0

>  <SCORE.INTRA.REPUL>
0

>  <SCORE.INTRA.REPUL.0>
0

>  <SCORE.INTRA.SOLV>
0

>  <SCORE.INTRA.SOLV.lig_0>
-12.9184

>  <SCORE.INTRA.VDW>
0

>  <SCORE.INTRA.VDW.0>
0

>  <SCORE.INTRA.norm>
0

>  <SCORE.RESTR>
0.581899

>  <SCORE.RESTR.CAVITY>
0.581899

>  <SCORE.RESTR.norm>
0.0447615

>  <SCORE.SYSTEM>
0

>  <SCORE.SYSTEM.CONST>
0

>  <SCORE.SYSTEM.DIHEDRAL>
0

>  <SCORE.SYSTEM.SOLV>
0

>  <SCORE.SYSTEM.norm>
0

>  <SCORE.heavy>
13

>  <SCORE.norm>
-1.48293

>  <RMSD>
3.521

$$$$
1o15_lig
 OpenBabel11021811403D
libRbt.so/2013.1/901 2013/11/27
 13 14  0  0  0  0  0  0  0  0999 V2000
    7.8670    6.2112   35.5431 C   0  0  0  0  0  0  0  0  0  0  0  0
    8.3193    5.0187   36.0634 N   0  0  0  0  0  0  0  0  0  0  0  0
    9.3731    5.0618   36.9203 C   0  0  0  0  0  0  0  0  0  0  0  0
    9.8334    6.1773   37.1499 O   0  0  0  0  0  0  0  0  0  0  0  0
   11.0077    4.0418   38.3819 C   0  0  0  0  0  0  0  0  0  0  0  0
    9.9357    3.9687   37.5182 N   0  0  0  0  0  0  0  0  0  0  0  0
    9.3273    2.8017   37.1734 C   0  0  0  0  0  0  0  0  0  0  0  0
    8.2679    2.7718   36.3136 C   0  0  0  0  0  0  0  0  0  0  0  0
    7.6815    3.8900   35.6921 C   0  0  0  0  0  0  0  0  0  0  0  0
    6.7326    3.9320   34.9132 O   0  0  0  0  0  0  0  0  0  0  0  0
    7.9142    1.4353   36.1962 N   0  0  0  0  0  0  0  0  0  0  0  0
    8.7775    0.7523   36.9886 C   0  0  0  0  0  0  0  0  0  0  0  0
    9.6450    1.5154   37.5968 N   0  0  0  0  0  0  0  0  0  0  0  0
  1  2  1  0  0  0  0
  2  3  1  0  0  0  0
  2  9  1  0  0  0  0
  3  4  2  0  0  0  0
  3  6  1  0  0  0  0
  6  5  1  0  0  0  0
  6  7  1  0  0  0  0
  7  8  2  0  0  0  0
  7 13  1  0  0  0  0
  8  9  1  0  0  0  0
  8 11  1  0  0  0  0
  9 10  2  0  0  0  0
 11 12  1  0  0  0  0
 12 13  2  0  0  0  0
M  END
>  <CHROM.1>
8.81481320,3.71027215,36.63789244,1.62868900,-0.67970573,-0.12813586

>  <Name>
1o15_lig

>  <RI>
0

>  <Rbt.Current_Directory>
/home/itssahil/PROJECTS/Mol_Feturizer/New_Systems/rnas/1o15

>  <Rbt.Executable>
rbdock ($Id: //depot/dev/client3/rdock/2013.1/src/exe/rbdock.cxx#4 $)

>  <Rbt.Library>
libRbt.so (2013.1, Build901 2013/11/27)

>  <Rbt.Parameter_File>
/export/apps/rDock/src/rDock_2013.1_src/data/scripts/dock_solv.prm

>  <Rbt.Receptor>
prm/blind_docking_40.prm

>  <SCORE>
-19.2986

>  <SCORE.INTER>
-19.8776

>  <SCORE.INTER.CONST>
1

>  <SCORE.INTER.POLAR>
-1.71006

>  <SCORE.INTER.ROT>
0

>  <SCORE.INTER.SOLV>
6.36394

>  <SCORE.INTER.VDW>
-13.2728

>  <SCORE.INTER.norm>
-1.52904

>  <SCORE.INTRA>
0

>  <SCORE.INTRA.DIHEDRAL>
0

>  <SCORE.INTRA.DIHEDRAL.0>
0

>  <SCORE.INTRA.POLAR>
0

>  <SCORE.INTRA.POLAR.0>
0

>  <SCORE.INTRA.REPUL>
0

>  <SCORE.INTRA.REPUL.0>
0

>  <SCORE.INTRA.SOLV>
0

>  <SCORE.INTRA.SOLV.lig_0>
-12.9184

>  <SCORE.INTRA.VDW>
0

>  <SCORE.INTRA.VDW.0>
0

>  <SCORE.INTRA.norm>
0

>  <SCORE.RESTR>
0.578977

>  <SCORE.RESTR.CAVITY>
0.578977

>  <SCORE.RESTR.norm>
0.0445367

>  <SCORE.SYSTEM>
0

>  <SCORE.SYSTEM.CONST>
0

>  <SCORE.SYSTEM.DIHEDRAL>
0

>  <SCORE.SYSTEM.SOLV>
0

>  <SCORE.SYSTEM.norm>
0

>  <SCORE.heavy>
13

>  <SCORE.norm>
-1.48451

>  <RMSD>
3.522

$$$$
1o15_lig
 OpenBabel11021811403D
libRbt.so/2013.1/901 2013/11/27
 13 14  0  0  0  0  0  0  0  0999 V2000
    7.8761    6.2203   35.5455 C   0  0  0  0  0  0  0  0  0  0  0  0
    8.3251    5.0265   36.0659 N   0  0  0  0  0  0  0  0  0  0  0  0
    9.3742    5.0676   36.9287 C   0  0  0  0  0  0  0  0  0  0  0  0
    9.8335    6.1825   37.1631 O   0  0  0  0  0  0  0  0  0  0  0  0
   11.0003    4.0442   38.3973 C   0  0  0  0  0  0  0  0  0  0  0  0
    9.9331    3.9732   37.5275 N   0  0  0  0  0  0  0  0  0  0  0  0
    9.3263    2.8070   37.1769 C   0  0  0  0  0  0  0  0  0  0  0  0
    8.2717    2.7792   36.3112 C   0  0  0  0  0  0  0  0  0  0  0  0
    7.6891    3.8988   35.6888 C   0  0  0  0  0  0  0  0  0  0  0  0
    6.7446    3.9427   34.9047 O   0  0  0  0  0  0  0  0  0  0  0  0
    7.9183    1.4430   36.1891 N   0  0  0  0  0  0  0  0  0  0  0  0
    8.7769    0.7582   36.9849 C   0  0  0  0  0  0  0  0  0  0  0  0
    9.6413    1.5198   37.5995 N   0  0  0  0  0  0  0  0  0  0  0  0
  1  2  1  0  0  0  0
  2  3  1  0  0  0  0
  2  9  1  0  0  0  0
  3  4  2  0  0  0  0
  3  6  1  0  0  0  0
  6  5  1  0  0  0  0
  6  7  1  0  0  0  0
  7  8  2  0  0  0  0
  7 13  1  0  0  0  0
  8  9  1  0  0  0  0
  8 11  1  0  0  0  0
  9 10  2  0  0  0  0
 11 12  1  0  0  0  0
 12 13  2  0  0  0  0
M  END
>  <CHROM.1>
8.81706528,3.71681219,36.64046493,1.62741583,-0.68518258,-0.12690442

>  <Name>
1o15_lig

>  <RI>
0

>  <Rbt.Current_Directory>
/home/itssahil/PROJECTS/Mol_Feturizer/New_Systems/rnas/1o15

>  <Rbt.Executable>
rbdock ($Id: //depot/dev/client3/rdock/2013.1/src/exe/rbdock.cxx#4 $)

>  <Rbt.Library>
libRbt.so (2013.1, Build901 2013/11/27)

>  <Rbt.Parameter_File>
/export/apps/rDock/src/rDock_2013.1_src/data/scripts/dock_solv.prm

>  <Rbt.Receptor>
prm/blind_docking_40.prm

>  <SCORE>
-19.3058

>  <SCORE.INTER>
-19.8855

>  <SCORE.INTER.CONST>
1

>  <SCORE.INTER.POLAR>
-1.70216

>  <SCORE.INTER.ROT>
0

>  <SCORE.INTER.SOLV>
6.35841

>  <SCORE.INTER.VDW>
-13.3026

>  <SCORE.INTER.norm>
-1.52966

>  <SCORE.INTRA>
0

>  <SCORE.INTRA.DIHEDRAL>
0

>  <SCORE.INTRA.DIHEDRAL.0>
0

>  <SCORE.INTRA.POLAR>
0

>  <SCORE.INTRA.POLAR.0>
0

>  <SCORE.INTRA.REPUL>
0

>  <SCORE.INTRA.REPUL.0>
0

>  <SCORE.INTRA.SOLV>
0

>  <SCORE.INTRA.SOLV.lig_0>
-12.9184

>  <SCORE.INTRA.VDW>
0

>  <SCORE.INTRA.VDW.0>
0

>  <SCORE.INTRA.norm>
0

>  <SCORE.RESTR>
0.579724

>  <SCORE.RESTR.CAVITY>
0.579724

>  <SCORE.RESTR.norm>
0.0445942

>  <SCORE.SYSTEM>
0

>  <SCORE.SYSTEM.CONST>
0

>  <SCORE.SYSTEM.DIHEDRAL>
0

>  <SCORE.SYSTEM.SOLV>
0

>  <SCORE.SYSTEM.norm>
0

>  <SCORE.heavy>
13

>  <SCORE.norm>
-1.48506

>  <RMSD>
3.522

$$$$
1o15_lig
 OpenBabel11021811403D
libRbt.so/2013.1/901 2013/11/27
 13 14  0  0  0  0  0  0  0  0999 V2000
    9.9678    5.7643   37.6358 C   0  0  0  0  0  0  0  0  0  0  0  0
    9.5828    4.6992   36.8518 N   0  0  0  0  0  0  0  0  0  0  0  0
    9.3432    3.5130   37.4702 C   0  0  0  0  0  0  0  0  0  0  0  0
    9.4997    3.5011   38.6884 O   0  0  0  0  0  0  0  0  0  0  0  0
    8.7221    1.1759   37.4862 C   0  0  0  0  0  0  0  0  0  0  0  0
    8.9553    2.3673   36.8332 N   0  0  0  0  0  0  0  0  0  0  0  0
    8.8224    2.5252   35.4884 C   0  0  0  0  0  0  0  0  0  0  0  0
    9.0636    3.7225   34.8795 C   0  0  0  0  0  0  0  0  0  0  0  0
    9.4637    4.9073   35.5248 C   0  0  0  0  0  0  0  0  0  0  0  0
    9.6959    6.0114   35.0389 O   0  0  0  0  0  0  0  0  0  0  0  0
    8.8328    3.5120   33.5276 N   0  0  0  0  0  0  0  0  0  0  0  0
    8.4692    2.2105   33.4118 C   0  0  0  0  0  0  0  0  0  0  0  0
    8.4463    1.5704   34.5495 N   0  0  0  0  0  0  0  0  0  0  0  0
  1  2  1  0  0  0  0
  2  3  1  0  0  0  0
  2  9  1  0  0  0  0
  3  4  2  0  0  0  0
  3  6  1  0  0  0  0
  6  5  1  0  0  0  0
  6  7  1  0  0  0  0
  7  8  2  0  0  0  0
  7 13  1  0  0  0  0
  8  9  1  0  0  0  0
  8 11  1  0  0  0  0
  9 10  2  0  0  0  0
 11 12  1  0  0  0  0
 12 13  2  0  0  0  0
M  END
>  <CHROM.1>
9.15697211,3.52957485,35.99259346,-0.55167728,-1.28195561,-1.11837889

>  <Name>
1o15_lig

>  <RI>
0

>  <Rbt.Current_Directory>
/home/itssahil/PROJECTS/Mol_Feturizer/New_Systems/rnas/1o15

>  <Rbt.Executable>
rbdock ($Id: //depot/dev/client3/rdock/2013.1/src/exe/rbdock.cxx#4 $)

>  <Rbt.Library>
libRbt.so (2013.1, Build901 2013/11/27)

>  <Rbt.Parameter_File>
/export/apps/rDock/src/rDock_2013.1_src/data/scripts/dock_solv.prm

>  <Rbt.Receptor>
prm/blind_docking_40.prm

>  <SCORE>
-22.3491

>  <SCORE.INTER>
-22.6309

>  <SCORE.INTER.CONST>
1

>  <SCORE.INTER.POLAR>
-1.17505

>  <SCORE.INTER.ROT>
0

>  <SCORE.INTER.SOLV>
8.90719

>  <SCORE.INTER.VDW>
-17.7395

>  <SCORE.INTER.norm>
-1.74084

>  <SCORE.INTRA>
0

>  <SCORE.INTRA.DIHEDRAL>
0

>  <SCORE.INTRA.DIHEDRAL.0>
0

>  <SCORE.INTRA.POLAR>
0

>  <SCORE.INTRA.POLAR.0>
0

>  <SCORE.INTRA.REPUL>
0

>  <SCORE.INTRA.REPUL.0>
0

>  <SCORE.INTRA.SOLV>
0

>  <SCORE.INTRA.SOLV.lig_0>
-12.9184

>  <SCORE.INTRA.VDW>
0

>  <SCORE.INTRA.VDW.0>
0

>  <SCORE.INTRA.norm>
0

>  <SCORE.RESTR>
0.281822

>  <SCORE.RESTR.CAVITY>
0.281822

>  <SCORE.RESTR.norm>
0.0216786

>  <SCORE.SYSTEM>
0

>  <SCORE.SYSTEM.CONST>
0

>  <SCORE.SYSTEM.DIHEDRAL>
0

>  <SCORE.SYSTEM.SOLV>
0

>  <SCORE.SYSTEM.norm>
0

>  <SCORE.heavy>
13

>  <SCORE.norm>
-1.71916

>  <RMSD>
3.537

$$$$
1o15_lig
 OpenBabel11021811403D
libRbt.so/2013.1/901 2013/11/27
 13 14  0  0  0  0  0  0  0  0999 V2000
    9.9974    5.7594   37.6292 C   0  0  0  0  0  0  0  0  0  0  0  0
    9.6040    4.6997   36.8421 N   0  0  0  0  0  0  0  0  0  0  0  0
    9.3488    3.5154   37.4578 C   0  0  0  0  0  0  0  0  0  0  0  0
    9.5000    3.5000   38.6767 O   0  0  0  0  0  0  0  0  0  0  0  0
    8.7020    1.1852   37.4679 C   0  0  0  0  0  0  0  0  0  0  0  0
    8.9510    2.3749   36.8176 N   0  0  0  0  0  0  0  0  0  0  0  0
    8.8254    2.5360   35.4725 C   0  0  0  0  0  0  0  0  0  0  0  0
    9.0823    3.7315   34.8663 C   0  0  0  0  0  0  0  0  0  0  0  0
    9.4927    4.9110   35.5150 C   0  0  0  0  0  0  0  0  0  0  0  0
    9.7390    6.0131   35.0316 O   0  0  0  0  0  0  0  0  0  0  0  0
    8.8549    3.5254   33.5132 N   0  0  0  0  0  0  0  0  0  0  0  0
    8.4774    2.2282   33.3939 C   0  0  0  0  0  0  0  0  0  0  0  0
    8.4427    1.5868   34.5307 N   0  0  0  0  0  0  0  0  0  0  0  0
  1  2  1  0  0  0  0
  2  3  1  0  0  0  0
  2  9  1  0  0  0  0
  3  4  2  0  0  0  0
  3  6  1  0  0  0  0
  6  5  1  0  0  0  0
  6  7  1  0  0  0  0
  7  8  2  0  0  0  0
  7 13  1  0  0  0  0
  8  9  1  0  0  0  0
  8 11  1  0  0  0  0
  9 10  2  0  0  0  0
 11 12  1  0  0  0  0
 12 13  2  0  0  0  0
M  END
>  <CHROM.1>
9.16889525,3.53601836,35.97950110,-0.58093323,-1.27378416,-1.14498443

>  <Name>
1o15_lig

>  <RI>
0

>  <Rbt.Current_Directory>
/home/itssahil/PROJECTS/Mol_Feturizer/New_Systems/rnas/1o15

>  <Rbt.Executable>
rbdock ($Id: //depot/dev/client3/rdock/2013.1/src/exe/rbdock.cxx#4 $)

>  <Rbt.Library>
libRbt.so (2013.1, Build901 2013/11/27)

>  <Rbt.Parameter_File>
/export/apps/rDock/src/rDock_2013.1_src/data/scripts/dock_solv.prm

>  <Rbt.Receptor>
prm/blind_docking_40.prm

>  <SCORE>
-22.3894

>  <SCORE.INTER>
-22.6725

>  <SCORE.INTER.CONST>
1

>  <SCORE.INTER.POLAR>
-1.19063

>  <SCORE.INTER.ROT>
0

>  <SCORE.INTER.SOLV>
8.97592

>  <SCORE.INTER.VDW>
-17.7382

>  <SCORE.INTER.norm>
-1.74404

>  <SCORE.INTRA>
0

>  <SCORE.INTRA.DIHEDRAL>
0

>  <SCORE.INTRA.DIHEDRAL.0>
0

>  <SCORE.INTRA.POLAR>
0

>  <SCORE.INTRA.POLAR.0>
0

>  <SCORE.INTRA.REPUL>
0

>  <SCORE.INTRA.REPUL.0>
0

>  <SCORE.INTRA.SOLV>
0

>  <SCORE.INTRA.SOLV.lig_0>
-12.9184

>  <SCORE.INTRA.VDW>
0

>  <SCORE.INTRA.VDW.0>
0

>  <SCORE.INTRA.norm>
0

>  <SCORE.RESTR>
0.283108

>  <SCORE.RESTR.CAVITY>
0.283108

>  <SCORE.RESTR.norm>
0.0217775

>  <SCORE.SYSTEM>
0

>  <SCORE.SYSTEM.CONST>
0

>  <SCORE.SYSTEM.DIHEDRAL>
0

>  <SCORE.SYSTEM.SOLV>
0

>  <SCORE.SYSTEM.norm>
0

>  <SCORE.heavy>
13

>  <SCORE.norm>
-1.72226

>  <RMSD>
3.542

$$$$
1o15_lig
 OpenBabel11021811403D
libRbt.so/2013.1/901 2013/11/27
 13 14  0  0  0  0  0  0  0  0999 V2000
    9.9946    5.7619   37.6171 C   0  0  0  0  0  0  0  0  0  0  0  0
    9.6019    4.7028   36.8288 N   0  0  0  0  0  0  0  0  0  0  0  0
    9.3478    3.5175   37.4430 C   0  0  0  0  0  0  0  0  0  0  0  0
    9.4993    3.5008   38.6619 O   0  0  0  0  0  0  0  0  0  0  0  0
    8.7030    1.1867   37.4504 C   0  0  0  0  0  0  0  0  0  0  0  0
    8.9509    2.3775   36.8015 N   0  0  0  0  0  0  0  0  0  0  0  0
    8.8249    2.5402   35.4566 C   0  0  0  0  0  0  0  0  0  0  0  0
    9.0807    3.7366   34.8518 C   0  0  0  0  0  0  0  0  0  0  0  0
    9.4902    4.9157   35.5019 C   0  0  0  0  0  0  0  0  0  0  0  0
    9.7355    6.0185   35.0199 O   0  0  0  0  0  0  0  0  0  0  0  0
    8.8532    3.5321   33.4985 N   0  0  0  0  0  0  0  0  0  0  0  0
    8.4769    2.2346   33.3777 C   0  0  0  0  0  0  0  0  0  0  0  0
    8.4429    1.5918   34.5136 N   0  0  0  0  0  0  0  0  0  0  0  0
  1  2  1  0  0  0  0
  2  3  1  0  0  0  0
  2  9  1  0  0  0  0
  3  4  2  0  0  0  0
  3  6  1  0  0  0  0
  6  5  1  0  0  0  0
  6  7  1  0  0  0  0
  7  8  2  0  0  0  0
  7 13  1  0  0  0  0
  8  9  1  0  0  0  0
  8 11  1  0  0  0  0
  9 10  2  0  0  0  0
 11 12  1  0  0  0  0
 12 13  2  0  0  0  0
M  END
>  <CHROM.1>
9.16765775,3.53984930,35.96477926,-0.57919553,-1.27448363,-1.14207634

>  <Name>
1o15_lig

>  <RI>
0

>  <Rbt.Current_Directory>
/home/itssahil/PROJECTS/Mol_Feturizer/New_Systems/rnas/1o15

>  <Rbt.Executable>
rbdock ($Id: //depot/dev/client3/rdock/2013.1/src/exe/rbdock.cxx#4 $)

>  <Rbt.Library>
libRbt.so (2013.1, Build901 2013/11/27)

>  <Rbt.Parameter_File>
/export/apps/rDock/src/rDock_2013.1_src/data/scripts/dock_solv.prm

>  <Rbt.Receptor>
prm/blind_docking_40.prm

>  <SCORE>
-22.3049

>  <SCORE.INTER>
-22.5649

>  <SCORE.INTER.CONST>
1

>  <SCORE.INTER.POLAR>
-1.18138

>  <SCORE.INTER.ROT>
0

>  <SCORE.INTER.SOLV>
9.00536

>  <SCORE.INTER.VDW>
-17.7071

>  <SCORE.INTER.norm>
-1.73576

>  <SCORE.INTRA>
0

>  <SCORE.INTRA.DIHEDRAL>
0

>  <SCORE.INTRA.DIHEDRAL.0>
0

>  <SCORE.INTRA.POLAR>
0

>  <SCORE.INTRA.POLAR.0>
0

>  <SCORE.INTRA.REPUL>
0

>  <SCORE.INTRA.REPUL.0>
0

>  <SCORE.INTRA.SOLV>
0

>  <SCORE.INTRA.SOLV.lig_0>
-12.9184

>  <SCORE.INTRA.VDW>
0

>  <SCORE.INTRA.VDW.0>
0

>  <SCORE.INTRA.norm>
0

>  <SCORE.RESTR>
0.25996

>  <SCORE.RESTR.CAVITY>
0.25996

>  <SCORE.RESTR.norm>
0.0199969

>  <SCORE.SYSTEM>
0

>  <SCORE.SYSTEM.CONST>
0

>  <SCORE.SYSTEM.DIHEDRAL>
0

>  <SCORE.SYSTEM.SOLV>
0

>  <SCORE.SYSTEM.norm>
0

>  <SCORE.heavy>
13

>  <SCORE.norm>
-1.71576

>  <RMSD>
3.547

$$$$
1o15_lig
 OpenBabel11021811403D
libRbt.so/2013.1/901 2013/11/27
 13 14  0  0  0  0  0  0  0  0999 V2000
   10.0004    5.7606   37.6149 C   0  0  0  0  0  0  0  0  0  0  0  0
    9.5941    4.7074   36.8256 N   0  0  0  0  0  0  0  0  0  0  0  0
    9.3215    3.5259   37.4391 C   0  0  0  0  0  0  0  0  0  0  0  0
    9.4700    3.5068   38.6583 O   0  0  0  0  0  0  0  0  0  0  0  0
    8.6428    1.2047   37.4448 C   0  0  0  0  0  0  0  0  0  0  0  0
    8.9094    2.3918   36.7966 N   0  0  0  0  0  0  0  0  0  0  0  0
    8.7888    2.5564   35.4514 C   0  0  0  0  0  0  0  0  0  0  0  0
    9.0633    3.7490   34.8473 C   0  0  0  0  0  0  0  0  0  0  0  0
    9.4885    4.9219   35.4985 C   0  0  0  0  0  0  0  0  0  0  0  0
    9.7509    6.0212   35.0171 O   0  0  0  0  0  0  0  0  0  0  0  0
    8.8358    3.5479   33.4935 N   0  0  0  0  0  0  0  0  0  0  0  0
    8.4409    2.2561   33.3718 C   0  0  0  0  0  0  0  0  0  0  0  0
    8.3951    1.6137   34.5075 N   0  0  0  0  0  0  0  0  0  0  0  0
  1  2  1  0  0  0  0
  2  3  1  0  0  0  0
  2  9  1  0  0  0  0
  3  4  2  0  0  0  0
  3  6  1  0  0  0  0
  6  5  1  0  0  0  0
  6  7  1  0  0  0  0
  7  8  2  0  0  0  0
  7 13  1  0  0  0  0
  8  9  1  0  0  0  0
  8 11  1  0  0  0  0
  9 10  2  0  0  0  0
 11 12  1  0  0  0  0
 12 13  2  0  0  0  0
M  END
>  <CHROM.1>
9.14491736,3.55093641,35.96047834,-0.60565549,-1.26206524,-1.16723848

>  <Name>
1o15_lig

>  <RI>
0

>  <Rbt.Current_Directory>
/home/itssahil/PROJECTS/Mol_Feturizer/New_Systems/rnas/1o15

>  <Rbt.Executable>
rbdock ($Id: //depot/dev/client3/rdock/2013.1/src/exe/rbdock.cxx#4 $)

>  <Rbt.Library>
libRbt.so (2013.1, Build901 2013/11/27)

>  <Rbt.Parameter_File>
/export/apps/rDock/src/rDock_2013.1_src/data/scripts/dock_solv.prm

>  <Rbt.Receptor>
prm/blind_docking_40.prm

>  <SCORE>
-22.3782

>  <SCORE.INTER>
-22.6657

>  <SCORE.INTER.CONST>
1

>  <SCORE.INTER.POLAR>
-1.16938

>  <SCORE.INTER.ROT>
0

>  <SCORE.INTER.SOLV>
9.06363

>  <SCORE.INTER.VDW>
-17.8338

>  <SCORE.INTER.norm>
-1.74352

>  <SCORE.INTRA>
0

>  <SCORE.INTRA.DIHEDRAL>
0

>  <SCORE.INTRA.DIHEDRAL.0>
0

>  <SCORE.INTRA.POLAR>
0

>  <SCORE.INTRA.POLAR.0>
0

>  <SCORE.INTRA.REPUL>
0

>  <SCORE.INTRA.REPUL.0>
0

>  <SCORE.INTRA.SOLV>
0

>  <SCORE.INTRA.SOLV.lig_0>
-12.9184

>  <SCORE.INTRA.VDW>
0

>  <SCORE.INTRA.VDW.0>
0

>  <SCORE.INTRA.norm>
0

>  <SCORE.RESTR>
0.287559

>  <SCORE.RESTR.CAVITY>
0.287559

>  <SCORE.RESTR.norm>
0.0221199

>  <SCORE.SYSTEM>
0

>  <SCORE.SYSTEM.CONST>
0

>  <SCORE.SYSTEM.DIHEDRAL>
0

>  <SCORE.SYSTEM.SOLV>
0

>  <SCORE.SYSTEM.norm>
0

>  <SCORE.heavy>
13

>  <SCORE.norm>
-1.7214

>  <RMSD>
3.552

$$$$
1o15_lig
 OpenBabel11021811403D
libRbt.so/2013.1/901 2013/11/27
 13 14  0  0  0  0  0  0  0  0999 V2000
    9.9951    5.7587   37.6147 C   0  0  0  0  0  0  0  0  0  0  0  0
    9.5921    4.7048   36.8246 N   0  0  0  0  0  0  0  0  0  0  0  0
    9.3219    3.5223   37.4374 C   0  0  0  0  0  0  0  0  0  0  0  0
    9.4695    3.5031   38.6567 O   0  0  0  0  0  0  0  0  0  0  0  0
    8.6491    1.1994   37.4413 C   0  0  0  0  0  0  0  0  0  0  0  0
    8.9133    2.3875   36.7939 N   0  0  0  0  0  0  0  0  0  0  0  0
    8.7934    2.5525   35.4487 C   0  0  0  0  0  0  0  0  0  0  0  0
    9.0654    3.7460   34.8455 C   0  0  0  0  0  0  0  0  0  0  0  0
    9.4871    4.9197   35.4975 C   0  0  0  0  0  0  0  0  0  0  0  0
    9.7471    6.0198   35.0169 O   0  0  0  0  0  0  0  0  0  0  0  0
    8.8396    3.5450   33.4913 N   0  0  0  0  0  0  0  0  0  0  0  0
    8.4480    2.2522   33.3687 C   0  0  0  0  0  0  0  0  0  0  0  0
    8.4029    1.6092   34.5041 N   0  0  0  0  0  0  0  0  0  0  0  0
  1  2  1  0  0  0  0
  2  3  1  0  0  0  0
  2  9  1  0  0  0  0
  3  4  2  0  0  0  0
  3  6  1  0  0  0  0
  6  5  1  0  0  0  0
  6  7  1  0  0  0  0
  7  8  2  0  0  0  0
  7 13  1  0  0  0  0
  8  9  1  0  0  0  0
  8 11  1  0  0  0  0
  9 10  2  0  0  0  0
 11 12  1  0  0  0  0
 12 13  2  0  0  0  0
M  END
>  <CHROM.1>
9.14657275,3.54761751,35.95858699,-0.60498162,-1.26472875,-1.16612855

>  <Name>
1o15_lig

>  <RI>
0

>  <Rbt.Current_Directory>
/home/itssahil/PROJECTS/Mol_Feturizer/New_Systems/rnas/1o15

>  <Rbt.Executable>
rbdock ($Id: //depot/dev/client3/rdock/2013.1/src/exe/rbdock.cxx#4 $)

>  <Rbt.Library>
libRbt.so (2013.1, Build901 2013/11/27)

>  <Rbt.Parameter_File>
/export/apps/rDock/src/rDock_2013.1_src/data/scripts/dock_solv.prm

>  <Rbt.Receptor>
prm/blind_docking_40.prm

>  <SCORE>
-22.3505

>  <SCORE.INTER>
-22.6328

>  <SCORE.INTER.CONST>
1

>  <SCORE.INTER.POLAR>
-1.17189

>  <SCORE.INTER.ROT>
0

>  <SCORE.INTER.SOLV>
9.06306

>  <SCORE.INTER.VDW>
-17.8033

>  <SCORE.INTER.norm>
-1.74099

>  <SCORE.INTRA>
0

>  <SCORE.INTRA.DIHEDRAL>
0

>  <SCORE.INTRA.DIHEDRAL.0>
0

>  <SCORE.INTRA.POLAR>
0

>  <SCORE.INTRA.POLAR.0>
0

>  <SCORE.INTRA.REPUL>
0

>  <SCORE.INTRA.REPUL.0>
0

>  <SCORE.INTRA.SOLV>
0

>  <SCORE.INTRA.SOLV.lig_0>
-12.9184

>  <SCORE.INTRA.VDW>
0

>  <SCORE.INTRA.VDW.0>
0

>  <SCORE.INTRA.norm>
0

>  <SCORE.RESTR>
0.282291

>  <SCORE.RESTR.CAVITY>
0.282291

>  <SCORE.RESTR.norm>
0.0217147

>  <SCORE.SYSTEM>
0

>  <SCORE.SYSTEM.CONST>
0

>  <SCORE.SYSTEM.DIHEDRAL>
0

>  <SCORE.SYSTEM.SOLV>
0

>  <SCORE.SYSTEM.norm>
0

>  <SCORE.heavy>
13

>  <SCORE.norm>
-1.71927

>  <RMSD>
3.553

$$$$
1o15_lig
 OpenBabel11021811403D
libRbt.so/2013.1/901 2013/11/27
 13 14  0  0  0  0  0  0  0  0999 V2000
    9.9909    5.7629   37.6035 C   0  0  0  0  0  0  0  0  0  0  0  0
    9.5973    4.7057   36.8131 N   0  0  0  0  0  0  0  0  0  0  0  0
    9.3423    3.5194   37.4249 C   0  0  0  0  0  0  0  0  0  0  0  0
    9.4939    3.5000   38.6437 O   0  0  0  0  0  0  0  0  0  0  0  0
    8.6956    1.1891   37.4274 C   0  0  0  0  0  0  0  0  0  0  0  0
    8.9444    2.3810   36.7810 N   0  0  0  0  0  0  0  0  0  0  0  0
    8.8184    2.5466   35.4364 C   0  0  0  0  0  0  0  0  0  0  0  0
    9.0752    3.7441   34.8341 C   0  0  0  0  0  0  0  0  0  0  0  0
    9.4857    4.9214   35.4866 C   0  0  0  0  0  0  0  0  0  0  0  0
    9.7319    6.0251   35.0069 O   0  0  0  0  0  0  0  0  0  0  0  0
    8.8474    3.5425   33.4804 N   0  0  0  0  0  0  0  0  0  0  0  0
    8.4699    2.2457   33.3570 C   0  0  0  0  0  0  0  0  0  0  0  0
    8.4355    1.6005   34.4916 N   0  0  0  0  0  0  0  0  0  0  0  0
  1  2  1  0  0  0  0
  2  3  1  0  0  0  0
  2  9  1  0  0  0  0
  3  4  2  0  0  0  0
  3  6  1  0  0  0  0
  6  5  1  0  0  0  0
  6  7  1  0  0  0  0
  7  8  2  0  0  0  0
  7 13  1  0  0  0  0
  8  9  1  0  0  0  0
  8 11  1  0  0  0  0
  9 10  2  0  0  0  0
 11 12  1  0  0  0  0
 12 13  2  0  0  0  0
M  END
>  <CHROM.1>
9.16203229,3.54493995,35.94668489,-0.58003696,-1.27369429,-1.14081236

>  <Name>
1o15_lig

>  <RI>
0

>  <Rbt.Current_Directory>
/home/itssahil/PROJECTS/Mol_Feturizer/New_Systems/rnas/1o15

>  <Rbt.Executable>
rbdock ($Id: //depot/dev/client3/rdock/2013.1/src/exe/rbdock.cxx#4 $)

>  <Rbt.Library>
libRbt.so (2013.1, Build901 2013/11/27)

>  <Rbt.Parameter_File>
/export/apps/rDock/src/rDock_2013.1_src/data/scripts/dock_solv.prm

>  <Rbt.Receptor>
prm/blind_docking_40.prm

>  <SCORE>
-22.2046

>  <SCORE.INTER>
-22.4406

>  <SCORE.INTER.CONST>
1

>  <SCORE.INTER.POLAR>
-1.16708

>  <SCORE.INTER.ROT>
0

>  <SCORE.INTER.SOLV>
9.0445

>  <SCORE.INTER.VDW>
-17.685

>  <SCORE.INTER.norm>
-1.7262

>  <SCORE.INTRA>
0

>  <SCORE.INTRA.DIHEDRAL>
0

>  <SCORE.INTRA.DIHEDRAL.0>
0

>  <SCORE.INTRA.POLAR>
0

>  <SCORE.INTRA.POLAR.0>
0

>  <SCORE.INTRA.REPUL>
0

>  <SCORE.INTRA.REPUL.0>
0

>  <SCORE.INTRA.SOLV>
0

>  <SCORE.INTRA.SOLV.lig_0>
-12.9184

>  <SCORE.INTRA.VDW>
0

>  <SCORE.INTRA.VDW.0>
0

>  <SCORE.INTRA.norm>
0

>  <SCORE.RESTR>
0.236003

>  <SCORE.RESTR.CAVITY>
0.236003

>  <SCORE.RESTR.norm>
0.0181541

>  <SCORE.SYSTEM>
0

>  <SCORE.SYSTEM.CONST>
0

>  <SCORE.SYSTEM.DIHEDRAL>
0

>  <SCORE.SYSTEM.SOLV>
0

>  <SCORE.SYSTEM.norm>
0

>  <SCORE.heavy>
13

>  <SCORE.norm>
-1.70805

>  <RMSD>
3.554

$$$$
1o15_lig
 OpenBabel11021811403D
libRbt.so/2013.1/901 2013/11/27
 13 14  0  0  0  0  0  0  0  0999 V2000
    9.9831    5.7654   37.6011 C   0  0  0  0  0  0  0  0  0  0  0  0
    9.5931    4.7065   36.8111 N   0  0  0  0  0  0  0  0  0  0  0  0
    9.3447    3.5189   37.4231 C   0  0  0  0  0  0  0  0  0  0  0  0
    9.4983    3.5001   38.6417 O   0  0  0  0  0  0  0  0  0  0  0  0
    8.7088    1.1856   37.4264 C   0  0  0  0  0  0  0  0  0  0  0  0
    8.9510    2.3787   36.7797 N   0  0  0  0  0  0  0  0  0  0  0  0
    8.8221    2.5440   35.4354 C   0  0  0  0  0  0  0  0  0  0  0  0
    9.0723    3.7427   34.8328 C   0  0  0  0  0  0  0  0  0  0  0  0
    9.4783    4.9219   35.4849 C   0  0  0  0  0  0  0  0  0  0  0  0
    9.7186    6.0267   35.0049 O   0  0  0  0  0  0  0  0  0  0  0  0
    8.8432    3.5402   33.4795 N   0  0  0  0  0  0  0  0  0  0  0  0
    8.4717    2.2416   33.3565 C   0  0  0  0  0  0  0  0  0  0  0  0
    8.4421    1.5962   34.4910 N   0  0  0  0  0  0  0  0  0  0  0  0
  1  2  1  0  0  0  0
  2  3  1  0  0  0  0
  2  9  1  0  0  0  0
  3  4  2  0  0  0  0
  3  6  1  0  0  0  0
  6  5  1  0  0  0  0
  6  7  1  0  0  0  0
  7  8  2  0  0  0  0
  7 13  1  0  0  0  0
  8  9  1  0  0  0  0
  8 11  1  0  0  0  0
  9 10  2  0  0  0  0
 11 12  1  0  0  0  0
 12 13  2  0  0  0  0
M  END
>  <CHROM.1>
9.16188213,3.54378811,35.94523415,-0.56823906,-1.27725190,-1.12938357

>  <Name>
1o15_lig

>  <RI>
0

>  <Rbt.Current_Directory>
/home/itssahil/PROJECTS/Mol_Feturizer/New_Systems/rnas/1o15

>  <Rbt.Executable>
rbdock ($Id: //depot/dev/client3/rdock/2013.1/src/exe/rbdock.cxx#4 $)

>  <Rbt.Library>
libRbt.so (2013.1, Build901 2013/11/27)

>  <Rbt.Parameter_File>
/export/apps/rDock/src/rDock_2013.1_src/data/scripts/dock_solv.prm

>  <Rbt.Receptor>
prm/blind_docking_40.prm

>  <SCORE>
-22.1697

>  <SCORE.INTER>
-22.3931

>  <SCORE.INTER.CONST>
1

>  <SCORE.INTER.POLAR>
-1.16112

>  <SCORE.INTER.ROT>
0

>  <SCORE.INTER.SOLV>
9.03003

>  <SCORE.INTER.VDW>
-17.6684

>  <SCORE.INTER.norm>
-1.72255

>  <SCORE.INTRA>
0

>  <SCORE.INTRA.DIHEDRAL>
0

>  <SCORE.INTRA.DIHEDRAL.0>
0

>  <SCORE.INTRA.POLAR>
0

>  <SCORE.INTRA.POLAR.0>
0

>  <SCORE.INTRA.REPUL>
0

>  <SCORE.INTRA.REPUL.0>
0

>  <SCORE.INTRA.SOLV>
0

>  <SCORE.INTRA.SOLV.lig_0>
-12.9184

>  <SCORE.INTRA.VDW>
0

>  <SCORE.INTRA.VDW.0>
0

>  <SCORE.INTRA.norm>
0

>  <SCORE.RESTR>
0.223464

>  <SCORE.RESTR.CAVITY>
0.223464

>  <SCORE.RESTR.norm>
0.0171895

>  <SCORE.SYSTEM>
0

>  <SCORE.SYSTEM.CONST>
0

>  <SCORE.SYSTEM.DIHEDRAL>
0

>  <SCORE.SYSTEM.SOLV>
0

>  <SCORE.SYSTEM.norm>
0

>  <SCORE.heavy>
13

>  <SCORE.norm>
-1.70536

>  <RMSD>
3.554

$$$$
1o15_lig
 OpenBabel11021811403D
libRbt.so/2013.1/901 2013/11/27
 13 14  0  0  0  0  0  0  0  0999 V2000
    9.9825    5.7784   37.6083 C   0  0  0  0  0  0  0  0  0  0  0  0
    9.5824    4.7193   36.8237 N   0  0  0  0  0  0  0  0  0  0  0  0
    9.3152    3.5394   37.4427 C   0  0  0  0  0  0  0  0  0  0  0  0
    9.4626    3.5271   38.6622 O   0  0  0  0  0  0  0  0  0  0  0  0
    8.6483    1.2149   37.4591 C   0  0  0  0  0  0  0  0  0  0  0  0
    8.9095    2.4002   36.8053 N   0  0  0  0  0  0  0  0  0  0  0  0
    8.7894    2.5577   35.4593 C   0  0  0  0  0  0  0  0  0  0  0  0
    9.0584    3.7487   34.8497 C   0  0  0  0  0  0  0  0  0  0  0  0
    9.4770    4.9269   35.4955 C   0  0  0  0  0  0  0  0  0  0  0  0
    9.7342    6.0251   35.0091 O   0  0  0  0  0  0  0  0  0  0  0  0
    8.8333    3.5399   33.4966 N   0  0  0  0  0  0  0  0  0  0  0  0
    8.4451    2.2455   33.3808 C   0  0  0  0  0  0  0  0  0  0  0  0
    8.4014    1.6084   34.5196 N   0  0  0  0  0  0  0  0  0  0  0  0
  1  2  1  0  0  0  0
  2  3  1  0  0  0  0
  2  9  1  0  0  0  0
  3  4  2  0  0  0  0
  3  6  1  0  0  0  0
  6  5  1  0  0  0  0
  6  7  1  0  0  0  0
  7  8  2  0  0  0  0
  7 13  1  0  0  0  0
  8  9  1  0  0  0  0
  8 11  1  0  0  0  0
  9 10  2  0  0  0  0
 11 12  1  0  0  0  0
 12 13  2  0  0  0  0
M  END
>  <CHROM.1>
9.13992659,3.55642178,35.96384937,-0.60201595,-1.26713542,-1.16863077

>  <Name>
1o15_lig

>  <RI>
0

>  <Rbt.Current_Directory>
/home/itssahil/PROJECTS/Mol_Feturizer/New_Systems/rnas/1o15

>  <Rbt.Executable>
rbdock ($Id: //depot/dev/client3/rdock/2013.1/src/exe/rbdock.cxx#4 $)

>  <Rbt.Library>
libRbt.so (2013.1, Build901 2013/11/27)

>  <Rbt.Parameter_File>
/export/apps/rDock/src/rDock_2013.1_src/data/scripts/dock_solv.prm

>  <Rbt.Receptor>
prm/blind_docking_40.prm

>  <SCORE>
-22.3391

>  <SCORE.INTER>
-22.6262

>  <SCORE.INTER.CONST>
1

>  <SCORE.INTER.POLAR>
-1.16997

>  <SCORE.INTER.ROT>
0

>  <SCORE.INTER.SOLV>
9.07308

>  <SCORE.INTER.VDW>
-17.8086

>  <SCORE.INTER.norm>
-1.74048

>  <SCORE.INTRA>
0

>  <SCORE.INTRA.DIHEDRAL>
0

>  <SCORE.INTRA.DIHEDRAL.0>
0

>  <SCORE.INTRA.POLAR>
0

>  <SCORE.INTRA.POLAR.0>
0

>  <SCORE.INTRA.REPUL>
0

>  <SCORE.INTRA.REPUL.0>
0

>  <SCORE.INTRA.SOLV>
0

>  <SCORE.INTRA.SOLV.lig_0>
-12.9184

>  <SCORE.INTRA.VDW>
0

>  <SCORE.INTRA.VDW.0>
0

>  <SCORE.INTRA.norm>
0

>  <SCORE.RESTR>
0.287128

>  <SCORE.RESTR.CAVITY>
0.287128

>  <SCORE.RESTR.norm>
0.0220868

>  <SCORE.SYSTEM>
0

>  <SCORE.SYSTEM.CONST>
0

>  <SCORE.SYSTEM.DIHEDRAL>
0

>  <SCORE.SYSTEM.SOLV>
0

>  <SCORE.SYSTEM.norm>
0

>  <SCORE.heavy>
13

>  <SCORE.norm>
-1.71839

>  <RMSD>
3.554

$$$$
1o15_lig
 OpenBabel11021811403D
libRbt.so/2013.1/901 2013/11/27
 13 14  0  0  0  0  0  0  0  0999 V2000
    9.9809    5.7665   37.6027 C   0  0  0  0  0  0  0  0  0  0  0  0
    9.5933    4.7066   36.8129 N   0  0  0  0  0  0  0  0  0  0  0  0
    9.3455    3.5191   37.4254 C   0  0  0  0  0  0  0  0  0  0  0  0
    9.4976    3.5013   38.6442 O   0  0  0  0  0  0  0  0  0  0  0  0
    8.7126    1.1850   37.4295 C   0  0  0  0  0  0  0  0  0  0  0  0
    8.9541    2.3780   36.7823 N   0  0  0  0  0  0  0  0  0  0  0  0
    8.8268    2.5422   35.4377 C   0  0  0  0  0  0  0  0  0  0  0  0
    9.0762    3.7408   34.8346 C   0  0  0  0  0  0  0  0  0  0  0  0
    9.4800    4.9209   35.4864 C   0  0  0  0  0  0  0  0  0  0  0  0
    9.7195    6.0258   35.0060 O   0  0  0  0  0  0  0  0  0  0  0  0
    8.8492    3.5371   33.4811 N   0  0  0  0  0  0  0  0  0  0  0  0
    8.4794    2.2380   33.3585 C   0  0  0  0  0  0  0  0  0  0  0  0
    8.4492    1.5932   34.4935 N   0  0  0  0  0  0  0  0  0  0  0  0
  1  2  1  0  0  0  0
  2  3  1  0  0  0  0
  2  9  1  0  0  0  0
  3  4  2  0  0  0  0
  3  6  1  0  0  0  0
  6  5  1  0  0  0  0
  6  7  1  0  0  0  0
  7  8  2  0  0  0  0
  7 13  1  0  0  0  0
  8  9  1  0  0  0  0
  8 11  1  0  0  0  0
  9 10  2  0  0  0  0
 11 12  1  0  0  0  0
 12 13  2  0  0  0  0
M  END
>  <CHROM.1>
9.16462057,3.54275802,35.94728861,-0.57049648,-1.27893546,-1.13222596

>  <Name>
1o15_lig

>  <RI>
0

>  <Rbt.Current_Directory>
/home/itssahil/PROJECTS/Mol_Feturizer/New_Systems/rnas/1o15

>  <Rbt.Executable>
rbdock ($Id: //depot/dev/client3/rdock/2013.1/src/exe/rbdock.cxx#4 $)

>  <Rbt.Library>
libRbt.so (2013.1, Build901 2013/11/27)

>  <Rbt.Parameter_File>
/export/apps/rDock/src/rDock_2013.1_src/data/scripts/dock_solv.prm

>  <Rbt.Receptor>
prm/blind_docking_40.prm

>  <SCORE>
-22.19

>  <SCORE.INTER>
-22.4166

>  <SCORE.INTER.CONST>
1

>  <SCORE.INTER.POLAR>
-1.1671

>  <SCORE.INTER.ROT>
0

>  <SCORE.INTER.SOLV>
9.03138

>  <SCORE.INTER.VDW>
-17.6645

>  <SCORE.INTER.norm>
-1.72435

>  <SCORE.INTRA>
0

>  <SCORE.INTRA.DIHEDRAL>
0

>  <SCORE.INTRA.DIHEDRAL.0>
0

>  <SCORE.INTRA.POLAR>
0

>  <SCORE.INTRA.POLAR.0>
0

>  <SCORE.INTRA.REPUL>
0

>  <SCORE.INTRA.REPUL.0>
0

>  <SCORE.INTRA.SOLV>
0

>  <SCORE.INTRA.SOLV.lig_0>
-12.9184

>  <SCORE.INTRA.VDW>
0

>  <SCORE.INTRA.VDW.0>
0

>  <SCORE.INTRA.norm>
0

>  <SCORE.RESTR>
0.22658

>  <SCORE.RESTR.CAVITY>
0.22658

>  <SCORE.RESTR.norm>
0.0174292

>  <SCORE.SYSTEM>
0

>  <SCORE.SYSTEM.CONST>
0

>  <SCORE.SYSTEM.DIHEDRAL>
0

>  <SCORE.SYSTEM.SOLV>
0

>  <SCORE.SYSTEM.norm>
0

>  <SCORE.heavy>
13

>  <SCORE.norm>
-1.70692

>  <RMSD>
3.554

$$$$
1o15_lig
 OpenBabel11021811403D
libRbt.so/2013.1/901 2013/11/27
 13 14  0  0  0  0  0  0  0  0999 V2000
    9.9709    5.7665   37.6023 C   0  0  0  0  0  0  0  0  0  0  0  0
    9.5847    4.7062   36.8123 N   0  0  0  0  0  0  0  0  0  0  0  0
    9.3397    3.5180   37.4245 C   0  0  0  0  0  0  0  0  0  0  0  0
    9.4928    3.4999   38.6432 O   0  0  0  0  0  0  0  0  0  0  0  0
    8.7113    1.1827   37.4280 C   0  0  0  0  0  0  0  0  0  0  0  0
    8.9500    2.3765   36.7812 N   0  0  0  0  0  0  0  0  0  0  0  0
    8.8213    2.5410   35.4367 C   0  0  0  0  0  0  0  0  0  0  0  0
    9.0679    3.7403   34.8341 C   0  0  0  0  0  0  0  0  0  0  0  0
    9.4699    4.9210   35.4860 C   0  0  0  0  0  0  0  0  0  0  0  0
    9.7068    6.0265   35.0059 O   0  0  0  0  0  0  0  0  0  0  0  0
    8.8401    3.5369   33.4806 N   0  0  0  0  0  0  0  0  0  0  0  0
    8.4727    2.2371   33.3577 C   0  0  0  0  0  0  0  0  0  0  0  0
    8.4447    1.5918   34.4924 N   0  0  0  0  0  0  0  0  0  0  0  0
  1  2  1  0  0  0  0
  2  3  1  0  0  0  0
  2  9  1  0  0  0  0
  3  4  2  0  0  0  0
  3  6  1  0  0  0  0
  6  5  1  0  0  0  0
  6  7  1  0  0  0  0
  7  8  2  0  0  0  0
  7 13  1  0  0  0  0
  8  9  1  0  0  0  0
  8 11  1  0  0  0  0
  9 10  2  0  0  0  0
 11 12  1  0  0  0  0
 12 13  2  0  0  0  0
M  END
>  <CHROM.1>
9.15756878,3.54198880,35.94654507,-0.56500008,-1.28032479,-1.12648923

>  <Name>
1o15_lig

>  <RI>
0

>  <Rbt.Current_Directory>
/home/itssahil/PROJECTS/Mol_Feturizer/New_Systems/rnas/1o15

>  <Rbt.Executable>
rbdock ($Id: //depot/dev/client3/rdock/2013.1/src/exe/rbdock.cxx#4 $)

>  <Rbt.Library>
libRbt.so (2013.1, Build901 2013/11/27)

>  <Rbt.Parameter_File>
/export/apps/rDock/src/rDock_2013.1_src/data/scripts/dock_solv.prm

>  <Rbt.Receptor>
prm/blind_docking_40.prm

>  <SCORE>
-22.1918

>  <SCORE.INTER>
-22.4154

>  <SCORE.INTER.CONST>
1

>  <SCORE.INTER.POLAR>
-1.159

>  <SCORE.INTER.ROT>
0

>  <SCORE.INTER.SOLV>
9.02487

>  <SCORE.INTER.VDW>
-17.6886

>  <SCORE.INTER.norm>
-1.72426

>  <SCORE.INTRA>
0

>  <SCORE.INTRA.DIHEDRAL>
0

>  <SCORE.INTRA.DIHEDRAL.0>
0

>  <SCORE.INTRA.POLAR>
0

>  <SCORE.INTRA.POLAR.0>
0

>  <SCORE.INTRA.REPUL>
0

>  <SCORE.INTRA.REPUL.0>
0

>  <SCORE.INTRA.SOLV>
0

>  <SCORE.INTRA.SOLV.lig_0>
-12.9184

>  <SCORE.INTRA.VDW>
0

>  <SCORE.INTRA.VDW.0>
0

>  <SCORE.INTRA.norm>
0

>  <SCORE.RESTR>
0.223634

>  <SCORE.RESTR.CAVITY>
0.223634

>  <SCORE.RESTR.norm>
0.0172026

>  <SCORE.SYSTEM>
0

>  <SCORE.SYSTEM.CONST>
0

>  <SCORE.SYSTEM.DIHEDRAL>
0

>  <SCORE.SYSTEM.SOLV>
0

>  <SCORE.SYSTEM.norm>
0

>  <SCORE.heavy>
13

>  <SCORE.norm>
-1.70706

>  <RMSD>
3.554

$$$$
1o15_lig
 OpenBabel11021811403D
libRbt.so/2013.1/901 2013/11/27
 13 14  0  0  0  0  0  0  0  0999 V2000
    9.9810    5.7677   37.6148 C   0  0  0  0  0  0  0  0  0  0  0  0
    9.5815    4.7110   36.8265 N   0  0  0  0  0  0  0  0  0  0  0  0
    9.3098    3.5304   37.4421 C   0  0  0  0  0  0  0  0  0  0  0  0
    9.4530    3.5151   38.6620 O   0  0  0  0  0  0  0  0  0  0  0  0
    8.6382    1.2071   37.4511 C   0  0  0  0  0  0  0  0  0  0  0  0
    8.9040    2.3933   36.8008 N   0  0  0  0  0  0  0  0  0  0  0  0
    8.7888    2.5539   35.4547 C   0  0  0  0  0  0  0  0  0  0  0  0
    9.0622    3.7457   34.8486 C   0  0  0  0  0  0  0  0  0  0  0  0
    9.4809    4.9217   35.4984 C   0  0  0  0  0  0  0  0  0  0  0  0
    9.7420    6.0205   35.0153 O   0  0  0  0  0  0  0  0  0  0  0  0
    8.8413    3.5403   33.4943 N   0  0  0  0  0  0  0  0  0  0  0  0
    8.4509    2.2469   33.3744 C   0  0  0  0  0  0  0  0  0  0  0  0
    8.4021    1.6075   34.5117 N   0  0  0  0  0  0  0  0  0  0  0  0
  1  2  1  0  0  0  0
  2  3  1  0  0  0  0
  2  9  1  0  0  0  0
  3  4  2  0  0  0  0
  3  6  1  0  0  0  0
  6  5  1  0  0  0  0
  6  7  1  0  0  0  0
  7  8  2  0  0  0  0
  7 13  1  0  0  0  0
  8  9  1  0  0  0  0
  8 11  1  0  0  0  0
  9 10  2  0  0  0  0
 11 12  1  0  0  0  0
 12 13  2  0  0  0  0
M  END
>  <CHROM.1>
9.13957183,3.55089595,35.96263349,-0.61506002,-1.26659833,-1.17890806

>  <Name>
1o15_lig

>  <RI>
0

>  <Rbt.Current_Directory>
/home/itssahil/PROJECTS/Mol_Feturizer/New_Systems/rnas/1o15

>  <Rbt.Executable>
rbdock ($Id: //depot/dev/client3/rdock/2013.1/src/exe/rbdock.cxx#4 $)

>  <Rbt.Library>
libRbt.so (2013.1, Build901 2013/11/27)

>  <Rbt.Parameter_File>
/export/apps/rDock/src/rDock_2013.1_src/data/scripts/dock_solv.prm

>  <Rbt.Receptor>
prm/blind_docking_40.prm

>  <SCORE>
-22.4002

>  <SCORE.INTER>
-22.6964

>  <SCORE.INTER.CONST>
1

>  <SCORE.INTER.POLAR>
-1.17816

>  <SCORE.INTER.ROT>
0

>  <SCORE.INTER.SOLV>
9.08655

>  <SCORE.INTER.VDW>
-17.8326

>  <SCORE.INTER.norm>
-1.74588

>  <SCORE.INTRA>
0

>  <SCORE.INTRA.DIHEDRAL>
0

>  <SCORE.INTRA.DIHEDRAL.0>
0

>  <SCORE.INTRA.POLAR>
0

>  <SCORE.INTRA.POLAR.0>
0

>  <SCORE.INTRA.REPUL>
0

>  <SCORE.INTRA.REPUL.0>
0

>  <SCORE.INTRA.SOLV>
0

>  <SCORE.INTRA.SOLV.lig_0>
-12.9184

>  <SCORE.INTRA.VDW>
0

>  <SCORE.INTRA.VDW.0>
0

>  <SCORE.INTRA.norm>
0

>  <SCORE.RESTR>
0.296224

>  <SCORE.RESTR.CAVITY>
0.296224

>  <SCORE.RESTR.norm>
0.0227865

>  <SCORE.SYSTEM>
0

>  <SCORE.SYSTEM.CONST>
0

>  <SCORE.SYSTEM.DIHEDRAL>
0

>  <SCORE.SYSTEM.SOLV>
0

>  <SCORE.SYSTEM.norm>
0

>  <SCORE.heavy>
13

>  <SCORE.norm>
-1.72309

>  <RMSD>
3.555

$$$$
1o15_lig
 OpenBabel11021811403D
libRbt.so/2013.1/901 2013/11/27
 13 14  0  0  0  0  0  0  0  0999 V2000
    9.9780    5.7644   37.6044 C   0  0  0  0  0  0  0  0  0  0  0  0
    9.5900    4.7056   36.8133 N   0  0  0  0  0  0  0  0  0  0  0  0
    9.3378    3.5185   37.4248 C   0  0  0  0  0  0  0  0  0  0  0  0
    9.4868    3.5000   38.6440 O   0  0  0  0  0  0  0  0  0  0  0  0
    8.6994    1.1860   37.4266 C   0  0  0  0  0  0  0  0  0  0  0  0
    8.9454    2.3786   36.7804 N   0  0  0  0  0  0  0  0  0  0  0  0
    8.8219    2.5435   35.4355 C   0  0  0  0  0  0  0  0  0  0  0  0
    9.0756    3.7416   34.8335 C   0  0  0  0  0  0  0  0  0  0  0  0
    9.4805    4.9206   35.4866 C   0  0  0  0  0  0  0  0  0  0  0  0
    9.7238    6.0251   35.0071 O   0  0  0  0  0  0  0  0  0  0  0  0
    8.8515    3.5390   33.4793 N   0  0  0  0  0  0  0  0  0  0  0  0
    8.4790    2.2407   33.3554 C   0  0  0  0  0  0  0  0  0  0  0  0
    8.4444    1.5957   34.4900 N   0  0  0  0  0  0  0  0  0  0  0  0
  1  2  1  0  0  0  0
  2  3  1  0  0  0  0
  2  9  1  0  0  0  0
  3  4  2  0  0  0  0
  3  6  1  0  0  0  0
  6  5  1  0  0  0  0
  6  7  1  0  0  0  0
  7  8  2  0  0  0  0
  7 13  1  0  0  0  0
  8  9  1  0  0  0  0
  8 11  1  0  0  0  0
  9 10  2  0  0  0  0
 11 12  1  0  0  0  0
 12 13  2  0  0  0  0
M  END
>  <CHROM.1>
9.16073755,3.54309471,35.94625916,-0.58187192,-1.27786246,-1.14280921

>  <Name>
1o15_lig

>  <RI>
0

>  <Rbt.Current_Directory>
/home/itssahil/PROJECTS/Mol_Feturizer/New_Systems/rnas/1o15

>  <Rbt.Executable>
rbdock ($Id: //depot/dev/client3/rdock/2013.1/src/exe/rbdock.cxx#4 $)

>  <Rbt.Library>
libRbt.so (2013.1, Build901 2013/11/27)

>  <Rbt.Parameter_File>
/export/apps/rDock/src/rDock_2013.1_src/data/scripts/dock_solv.prm

>  <Rbt.Receptor>
prm/blind_docking_40.prm

>  <SCORE>
-22.2393

>  <SCORE.INTER>
-22.4748

>  <SCORE.INTER.CONST>
1

>  <SCORE.INTER.POLAR>
-1.1705

>  <SCORE.INTER.ROT>
0

>  <SCORE.INTER.SOLV>
9.0519

>  <SCORE.INTER.VDW>
-17.6988

>  <SCORE.INTER.norm>
-1.72883

>  <SCORE.INTRA>
0

>  <SCORE.INTRA.DIHEDRAL>
0

>  <SCORE.INTRA.DIHEDRAL.0>
0

>  <SCORE.INTRA.POLAR>
0

>  <SCORE.INTRA.POLAR.0>
0

>  <SCORE.INTRA.REPUL>
0

>  <SCORE.INTRA.REPUL.0>
0

>  <SCORE.INTRA.SOLV>
0

>  <SCORE.INTRA.SOLV.lig_0>
-12.9184

>  <SCORE.INTRA.VDW>
0

>  <SCORE.INTRA.VDW.0>
0

>  <SCORE.INTRA.norm>
0

>  <SCORE.RESTR>
0.235446

>  <SCORE.RESTR.CAVITY>
0.235446

>  <SCORE.RESTR.norm>
0.0181112

>  <SCORE.SYSTEM>
0

>  <SCORE.SYSTEM.CONST>
0

>  <SCORE.SYSTEM.DIHEDRAL>
0

>  <SCORE.SYSTEM.SOLV>
0

>  <SCORE.SYSTEM.norm>
0

>  <SCORE.heavy>
13

>  <SCORE.norm>
-1.71072

>  <RMSD>
3.555

$$$$
1o15_lig
 OpenBabel11021811403D
libRbt.so/2013.1/901 2013/11/27
 13 14  0  0  0  0  0  0  0  0999 V2000
    9.9795    5.7672   37.6014 C   0  0  0  0  0  0  0  0  0  0  0  0
    9.5907    4.7079   36.8112 N   0  0  0  0  0  0  0  0  0  0  0  0
    9.3401    3.5209   37.4236 C   0  0  0  0  0  0  0  0  0  0  0  0
    9.4910    3.5029   38.6425 O   0  0  0  0  0  0  0  0  0  0  0  0
    8.7028    1.1881   37.4271 C   0  0  0  0  0  0  0  0  0  0  0  0
    8.9472    2.3806   36.7801 N   0  0  0  0  0  0  0  0  0  0  0  0
    8.8215    2.5449   35.4354 C   0  0  0  0  0  0  0  0  0  0  0  0
    9.0737    3.7430   34.8325 C   0  0  0  0  0  0  0  0  0  0  0  0
    9.4790    4.9224   35.4846 C   0  0  0  0  0  0  0  0  0  0  0  0
    9.7210    6.0268   35.0044 O   0  0  0  0  0  0  0  0  0  0  0  0
    8.8476    3.5398   33.4788 N   0  0  0  0  0  0  0  0  0  0  0  0
    8.4754    2.2414   33.3559 C   0  0  0  0  0  0  0  0  0  0  0  0
    8.4430    1.5967   34.4909 N   0  0  0  0  0  0  0  0  0  0  0  0
  1  2  1  0  0  0  0
  2  3  1  0  0  0  0
  2  9  1  0  0  0  0
  3  4  2  0  0  0  0
  3  6  1  0  0  0  0
  6  5  1  0  0  0  0
  6  7  1  0  0  0  0
  7  8  2  0  0  0  0
  7 13  1  0  0  0  0
  8  9  1  0  0  0  0
  8 11  1  0  0  0  0
  9 10  2  0  0  0  0
 11 12  1  0  0  0  0
 12 13  2  0  0  0  0
M  END
>  <CHROM.1>
9.16067286,3.54491169,35.94527142,-0.57617960,-1.27763627,-1.13769553

>  <Name>
1o15_lig

>  <RI>
0

>  <Rbt.Current_Directory>
/home/itssahil/PROJECTS/Mol_Feturizer/New_Systems/rnas/1o15

>  <Rbt.Executable>
rbdock ($Id: //depot/dev/client3/rdock/2013.1/src/exe/rbdock.cxx#4 $)

>  <Rbt.Library>
libRbt.so (2013.1, Build901 2013/11/27)

>  <Rbt.Parameter_File>
/export/apps/rDock/src/rDock_2013.1_src/data/scripts/dock_solv.prm

>  <Rbt.Receptor>
prm/blind_docking_40.prm

>  <SCORE>
-22.2126

>  <SCORE.INTER>
-22.4424

>  <SCORE.INTER.CONST>
1

>  <SCORE.INTER.POLAR>
-1.16598

>  <SCORE.INTER.ROT>
0

>  <SCORE.INTER.SOLV>
9.04683

>  <SCORE.INTER.VDW>
-17.6906

>  <SCORE.INTER.norm>
-1.72634

>  <SCORE.INTRA>
0

>  <SCORE.INTRA.DIHEDRAL>
0

>  <SCORE.INTRA.DIHEDRAL.0>
0

>  <SCORE.INTRA.POLAR>
0

>  <SCORE.INTRA.POLAR.0>
0

>  <SCORE.INTRA.REPUL>
0

>  <SCORE.INTRA.REPUL.0>
0

>  <SCORE.INTRA.SOLV>
0

>  <SCORE.INTRA.SOLV.lig_0>
-12.9184

>  <SCORE.INTRA.VDW>
0

>  <SCORE.INTRA.VDW.0>
0

>  <SCORE.INTRA.norm>
0

>  <SCORE.RESTR>
0.229812

>  <SCORE.RESTR.CAVITY>
0.229812

>  <SCORE.RESTR.norm>
0.0176779

>  <SCORE.SYSTEM>
0

>  <SCORE.SYSTEM.CONST>
0

>  <SCORE.SYSTEM.DIHEDRAL>
0

>  <SCORE.SYSTEM.SOLV>
0

>  <SCORE.SYSTEM.norm>
0

>  <SCORE.heavy>
13

>  <SCORE.norm>
-1.70866

>  <RMSD>
3.555

$$$$
1o15_lig
 OpenBabel11021811403D
libRbt.so/2013.1/901 2013/11/27
 13 14  0  0  0  0  0  0  0  0999 V2000
    9.9605    5.7682   37.6025 C   0  0  0  0  0  0  0  0  0  0  0  0
    9.5783    4.7067   36.8122 N   0  0  0  0  0  0  0  0  0  0  0  0
    9.3362    3.5178   37.4243 C   0  0  0  0  0  0  0  0  0  0  0  0
    9.4882    3.5003   38.6431 O   0  0  0  0  0  0  0  0  0  0  0  0
    8.7147    1.1807   37.4274 C   0  0  0  0  0  0  0  0  0  0  0  0
    8.9505    2.3751   36.7807 N   0  0  0  0  0  0  0  0  0  0  0  0
    8.8225    2.5391   35.4361 C   0  0  0  0  0  0  0  0  0  0  0  0
    9.0662    3.7391   34.8336 C   0  0  0  0  0  0  0  0  0  0  0  0
    9.4640    4.9210   35.4858 C   0  0  0  0  0  0  0  0  0  0  0  0
    9.6981    6.0272   35.0058 O   0  0  0  0  0  0  0  0  0  0  0  0
    8.8403    3.5349   33.4799 N   0  0  0  0  0  0  0  0  0  0  0  0
    8.4769    2.2340   33.3568 C   0  0  0  0  0  0  0  0  0  0  0  0
    8.4497    1.5887   34.4915 N   0  0  0  0  0  0  0  0  0  0  0  0
  1  2  1  0  0  0  0
  2  3  1  0  0  0  0
  2  9  1  0  0  0  0
  3  4  2  0  0  0  0
  3  6  1  0  0  0  0
  6  5  1  0  0  0  0
  6  7  1  0  0  0  0
  7  8  2  0  0  0  0
  7 13  1  0  0  0  0
  8  9  1  0  0  0  0
  8 11  1  0  0  0  0
  9 10  2  0  0  0  0
 11 12  1  0  0  0  0
 12 13  2  0  0  0  0
M  END
>  <CHROM.1>
9.15539133,3.54111925,35.94616089,-0.56350876,-1.28342014,-1.12515760

>  <Name>
1o15_lig

>  <RI>
0

>  <Rbt.Current_Directory>
/home/itssahil/PROJECTS/Mol_Feturizer/New_Systems/rnas/1o15

>  <Rbt.Executable>
rbdock ($Id: //depot/dev/client3/rdock/2013.1/src/exe/rbdock.cxx#4 $)

>  <Rbt.Library>
libRbt.so (2013.1, Build901 2013/11/27)

>  <Rbt.Parameter_File>
/export/apps/rDock/src/rDock_2013.1_src/data/scripts/dock_solv.prm

>  <Rbt.Receptor>
prm/blind_docking_40.prm

>  <SCORE>
-22.1763

>  <SCORE.INTER>
-22.3979

>  <SCORE.INTER.CONST>
1

>  <SCORE.INTER.POLAR>
-1.15871

>  <SCORE.INTER.ROT>
0

>  <SCORE.INTER.SOLV>
9.0273

>  <SCORE.INTER.VDW>
-17.6786

>  <SCORE.INTER.norm>
-1.72291

>  <SCORE.INTRA>
0

>  <SCORE.INTRA.DIHEDRAL>
0

>  <SCORE.INTRA.DIHEDRAL.0>
0

>  <SCORE.INTRA.POLAR>
0

>  <SCORE.INTRA.POLAR.0>
0

>  <SCORE.INTRA.REPUL>
0

>  <SCORE.INTRA.REPUL.0>
0

>  <SCORE.INTRA.SOLV>
0

>  <SCORE.INTRA.SOLV.lig_0>
-12.9184

>  <SCORE.INTRA.VDW>
0

>  <SCORE.INTRA.VDW.0>
0

>  <SCORE.INTRA.norm>
0

>  <SCORE.RESTR>
0.221569

>  <SCORE.RESTR.CAVITY>
0.221569

>  <SCORE.RESTR.norm>
0.0170437

>  <SCORE.SYSTEM>
0

>  <SCORE.SYSTEM.CONST>
0

>  <SCORE.SYSTEM.DIHEDRAL>
0

>  <SCORE.SYSTEM.SOLV>
0

>  <SCORE.SYSTEM.norm>
0

>  <SCORE.heavy>
13

>  <SCORE.norm>
-1.70587

>  <RMSD>
3.555

$$$$
1o15_lig
 OpenBabel11021811403D
libRbt.so/2013.1/901 2013/11/27
 13 14  0  0  0  0  0  0  0  0999 V2000
    7.8223    6.1941   35.5407 C   0  0  0  0  0  0  0  0  0  0  0  0
    8.2046    5.0913   36.2722 N   0  0  0  0  0  0  0  0  0  0  0  0
    9.1035    5.2779   37.2741 C   0  0  0  0  0  0  0  0  0  0  0  0
    9.5002    6.4296   37.4324 O   0  0  0  0  0  0  0  0  0  0  0  0
   10.4954    4.5051   39.0946 C   0  0  0  0  0  0  0  0  0  0  0  0
    9.5803    4.2874   38.0868 N   0  0  0  0  0  0  0  0  0  0  0  0
    9.0573    3.0649   37.7986 C   0  0  0  0  0  0  0  0  0  0  0  0
    8.1532    2.8910   36.7912 C   0  0  0  0  0  0  0  0  0  0  0  0
    7.6563    3.9027   35.9485 C   0  0  0  0  0  0  0  0  0  0  0  0
    6.8467    3.8140   35.0290 O   0  0  0  0  0  0  0  0  0  0  0  0
    7.8472    1.5377   36.7877 N   0  0  0  0  0  0  0  0  0  0  0  0
    8.5815    0.9889   37.7873 C   0  0  0  0  0  0  0  0  0  0  0  0
    9.3244    1.8524   38.4255 N   0  0  0  0  0  0  0  0  0  0  0  0
  1  2  1  0  0  0  0
  2  3  1  0  0  0  0
  2  9  1  0  0  0  0
  3  4  2  0  0  0  0
  3  6  1  0  0  0  0
  6  5  1  0  0  0  0
  6  7  1  0  0  0  0
  7  8  2  0  0  0  0
  7 13  1  0  0  0  0
  8  9  1  0  0  0  0
  8 11  1  0  0  0  0
  9 10  2  0  0  0  0
 11 12  1  0  0  0  0
 12 13  2  0  0  0  0
M  END
>  <CHROM.1>
8.62295433,3.88188107,37.07823952,1.62385675,-0.84465820,-0.25601338

>  <Name>
1o15_lig

>  <RI>
0

>  <Rbt.Current_Directory>
/home/itssahil/PROJECTS/Mol_Feturizer/New_Systems/rnas/1o15

>  <Rbt.Executable>
rbdock ($Id: //depot/dev/client3/rdock/2013.1/src/exe/rbdock.cxx#4 $)

>  <Rbt.Library>
libRbt.so (2013.1, Build901 2013/11/27)

>  <Rbt.Parameter_File>
/export/apps/rDock/src/rDock_2013.1_src/data/scripts/dock_solv.prm

>  <Rbt.Receptor>
prm/pocket_docking_8.prm

>  <SCORE>
-23.3393

>  <SCORE.INTER>
-23.3393

>  <SCORE.INTER.CONST>
1

>  <SCORE.INTER.POLAR>
-1.47245

>  <SCORE.INTER.ROT>
0

>  <SCORE.INTER.SOLV>
8.34287

>  <SCORE.INTER.VDW>
-17.0323

>  <SCORE.INTER.norm>
-1.79533

>  <SCORE.INTRA>
0

>  <SCORE.INTRA.DIHEDRAL>
0

>  <SCORE.INTRA.DIHEDRAL.0>
0

>  <SCORE.INTRA.POLAR>
0

>  <SCORE.INTRA.POLAR.0>
0

>  <SCORE.INTRA.REPUL>
0

>  <SCORE.INTRA.REPUL.0>
0

>  <SCORE.INTRA.SOLV>
0

>  <SCORE.INTRA.SOLV.lig_0>
-12.9184

>  <SCORE.INTRA.VDW>
0

>  <SCORE.INTRA.VDW.0>
0

>  <SCORE.INTRA.norm>
0

>  <SCORE.RESTR>
0

>  <SCORE.RESTR.CAVITY>
0

>  <SCORE.RESTR.norm>
0

>  <SCORE.SYSTEM>
0

>  <SCORE.SYSTEM.CONST>
0

>  <SCORE.SYSTEM.DIHEDRAL>
0

>  <SCORE.SYSTEM.SOLV>
0

>  <SCORE.SYSTEM.norm>
0

>  <SCORE.heavy>
13

>  <SCORE.norm>
-1.79533

>  <RMSD>
3.555

$$$$
1o15_lig
 OpenBabel11021811403D
libRbt.so/2013.1/901 2013/11/27
 13 14  0  0  0  0  0  0  0  0999 V2000
    7.8082    6.1973   35.5360 C   0  0  0  0  0  0  0  0  0  0  0  0
    8.1942    5.0918   36.2614 N   0  0  0  0  0  0  0  0  0  0  0  0
    9.0937    5.2754   37.2633 C   0  0  0  0  0  0  0  0  0  0  0  0
    9.4876    6.4274   37.4271 O   0  0  0  0  0  0  0  0  0  0  0  0
   10.4896    4.4969   39.0782 C   0  0  0  0  0  0  0  0  0  0  0  0
    9.5739    4.2820   38.0703 N   0  0  0  0  0  0  0  0  0  0  0  0
    9.0538    3.0597   37.7763 C   0  0  0  0  0  0  0  0  0  0  0  0
    8.1490    2.8886   36.7690 C   0  0  0  0  0  0  0  0  0  0  0  0
    7.6486    3.9034   35.9322 C   0  0  0  0  0  0  0  0  0  0  0  0
    6.8382    3.8174   35.0130 O   0  0  0  0  0  0  0  0  0  0  0  0
    7.8465    1.5346   36.7588 N   0  0  0  0  0  0  0  0  0  0  0  0
    8.5834    0.9825   37.7547 C   0  0  0  0  0  0  0  0  0  0  0  0
    9.3247    1.8446   38.3966 N   0  0  0  0  0  0  0  0  0  0  0  0
  1  2  1  0  0  0  0
  2  3  1  0  0  0  0
  2  9  1  0  0  0  0
  3  4  2  0  0  0  0
  3  6  1  0  0  0  0
  6  5  1  0  0  0  0
  6  7  1  0  0  0  0
  7  8  2  0  0  0  0
  7 13  1  0  0  0  0
  8  9  1  0  0  0  0
  8 11  1  0  0  0  0
  9 10  2  0  0  0  0
 11 12  1  0  0  0  0
 12 13  2  0  0  0  0
M  END
>  <CHROM.1>
8.61655486,3.87924400,37.06067835,1.62804896,-0.84424154,-0.24768323

>  <Name>
1o15_lig

>  <RI>
0

>  <Rbt.Current_Directory>
/home/itssahil/PROJECTS/Mol_Feturizer/New_Systems/rnas/1o15

>  <Rbt.Executable>
rbdock ($Id: //depot/dev/client3/rdock/2013.1/src/exe/rbdock.cxx#4 $)

>  <Rbt.Library>
libRbt.so (2013.1, Build901 2013/11/27)

>  <Rbt.Parameter_File>
/export/apps/rDock/src/rDock_2013.1_src/data/scripts/dock_solv.prm

>  <Rbt.Receptor>
prm/blind_docking_80.prm

>  <SCORE>
-23.3388

>  <SCORE.INTER>
-23.3388

>  <SCORE.INTER.CONST>
1

>  <SCORE.INTER.POLAR>
-1.48498

>  <SCORE.INTER.ROT>
0

>  <SCORE.INTER.SOLV>
8.31753

>  <SCORE.INTER.VDW>
-16.9818

>  <SCORE.INTER.norm>
-1.79529

>  <SCORE.INTRA>
0

>  <SCORE.INTRA.DIHEDRAL>
0

>  <SCORE.INTRA.DIHEDRAL.0>
0

>  <SCORE.INTRA.POLAR>
0

>  <SCORE.INTRA.POLAR.0>
0

>  <SCORE.INTRA.REPUL>
0

>  <SCORE.INTRA.REPUL.0>
0

>  <SCORE.INTRA.SOLV>
0

>  <SCORE.INTRA.SOLV.lig_0>
-12.9184

>  <SCORE.INTRA.VDW>
0

>  <SCORE.INTRA.VDW.0>
0

>  <SCORE.INTRA.norm>
0

>  <SCORE.RESTR>
0

>  <SCORE.RESTR.CAVITY>
0

>  <SCORE.RESTR.norm>
0

>  <SCORE.SYSTEM>
0

>  <SCORE.SYSTEM.CONST>
0

>  <SCORE.SYSTEM.DIHEDRAL>
0

>  <SCORE.SYSTEM.SOLV>
0

>  <SCORE.SYSTEM.norm>
0

>  <SCORE.heavy>
13

>  <SCORE.norm>
-1.79529

>  <RMSD>
3.557

$$$$
1o15_lig
 OpenBabel11021811403D
libRbt.so/2013.1/901 2013/11/27
 13 14  0  0  0  0  0  0  0  0999 V2000
    7.8085    6.1949   35.5331 C   0  0  0  0  0  0  0  0  0  0  0  0
    8.1941    5.0900   36.2596 N   0  0  0  0  0  0  0  0  0  0  0  0
    9.0927    5.2746   37.2622 C   0  0  0  0  0  0  0  0  0  0  0  0
    9.4862    6.4267   37.4254 O   0  0  0  0  0  0  0  0  0  0  0  0
   10.4871    4.4977   39.0789 C   0  0  0  0  0  0  0  0  0  0  0  0
    9.5724    4.2819   38.0704 N   0  0  0  0  0  0  0  0  0  0  0  0
    9.0527    3.0592   37.7768 C   0  0  0  0  0  0  0  0  0  0  0  0
    8.1489    2.8872   36.7689 C   0  0  0  0  0  0  0  0  0  0  0  0
    7.6490    3.9012   35.9308 C   0  0  0  0  0  0  0  0  0  0  0  0
    6.8395    3.8144   35.0110 O   0  0  0  0  0  0  0  0  0  0  0  0
    7.8468    1.5331   36.7594 N   0  0  0  0  0  0  0  0  0  0  0  0
    8.5828    0.9820   37.7564 C   0  0  0  0  0  0  0  0  0  0  0  0
    9.3234    1.8447   38.3983 N   0  0  0  0  0  0  0  0  0  0  0  0
  1  2  1  0  0  0  0
  2  3  1  0  0  0  0
  2  9  1  0  0  0  0
  3  4  2  0  0  0  0
  3  6  1  0  0  0  0
  6  5  1  0  0  0  0
  6  7  1  0  0  0  0
  7  8  2  0  0  0  0
  7 13  1  0  0  0  0
  8  9  1  0  0  0  0
  8 11  1  0  0  0  0
  9 10  2  0  0  0  0
 11 12  1  0  0  0  0
 12 13  2  0  0  0  0
M  END
>  <CHROM.1>
8.61598233,3.87815845,37.06019764,1.62804457,-0.84516077,-0.24844167

>  <Name>
1o15_lig

>  <RI>
0

>  <Rbt.Current_Directory>
/home/itssahil/PROJECTS/Mol_Feturizer/New_Systems/rnas/1o15

>  <Rbt.Executable>
rbdock ($Id: //depot/dev/client3/rdock/2013.1/src/exe/rbdock.cxx#4 $)

>  <Rbt.Library>
libRbt.so (2013.1, Build901 2013/11/27)

>  <Rbt.Parameter_File>
/export/apps/rDock/src/rDock_2013.1_src/data/scripts/dock_solv.prm

>  <Rbt.Receptor>
prm/pocket_docking_6.prm

>  <SCORE>
-23.3365

>  <SCORE.INTER>
-23.3365

>  <SCORE.INTER.CONST>
1

>  <SCORE.INTER.POLAR>
-1.48683

>  <SCORE.INTER.ROT>
0

>  <SCORE.INTER.SOLV>
8.31829

>  <SCORE.INTER.VDW>
-16.9743

>  <SCORE.INTER.norm>
-1.79511

>  <SCORE.INTRA>
0

>  <SCORE.INTRA.DIHEDRAL>
0

>  <SCORE.INTRA.DIHEDRAL.0>
0

>  <SCORE.INTRA.POLAR>
0

>  <SCORE.INTRA.POLAR.0>
0

>  <SCORE.INTRA.REPUL>
0

>  <SCORE.INTRA.REPUL.0>
0

>  <SCORE.INTRA.SOLV>
0

>  <SCORE.INTRA.SOLV.lig_0>
-12.9184

>  <SCORE.INTRA.VDW>
0

>  <SCORE.INTRA.VDW.0>
0

>  <SCORE.INTRA.norm>
0

>  <SCORE.RESTR>
0

>  <SCORE.RESTR.CAVITY>
0

>  <SCORE.RESTR.norm>
0

>  <SCORE.SYSTEM>
0

>  <SCORE.SYSTEM.CONST>
0

>  <SCORE.SYSTEM.DIHEDRAL>
0

>  <SCORE.SYSTEM.SOLV>
0

>  <SCORE.SYSTEM.norm>
0

>  <SCORE.heavy>
13

>  <SCORE.norm>
-1.79511

>  <RMSD>
3.557

$$$$
1o15_lig
 OpenBabel11021811403D
libRbt.so/2013.1/901 2013/11/27
 13 14  0  0  0  0  0  0  0  0999 V2000
    9.9895    5.7596   37.6106 C   0  0  0  0  0  0  0  0  0  0  0  0
    9.5837    4.7078   36.8192 N   0  0  0  0  0  0  0  0  0  0  0  0
    9.3054    3.5267   37.4311 C   0  0  0  0  0  0  0  0  0  0  0  0
    9.4489    3.5068   38.6509 O   0  0  0  0  0  0  0  0  0  0  0  0
    8.6205    1.2074   37.4330 C   0  0  0  0  0  0  0  0  0  0  0  0
    8.8929    2.3940   36.7864 N   0  0  0  0  0  0  0  0  0  0  0  0
    8.7783    2.5596   35.4408 C   0  0  0  0  0  0  0  0  0  0  0  0
    9.0584    3.7517   34.8384 C   0  0  0  0  0  0  0  0  0  0  0  0
    9.4840    4.9232   35.4918 C   0  0  0  0  0  0  0  0  0  0  0  0
    9.7512    6.0219   35.0120 O   0  0  0  0  0  0  0  0  0  0  0  0
    8.8359    3.5517   33.4835 N   0  0  0  0  0  0  0  0  0  0  0  0
    8.4380    2.2610   33.3596 C   0  0  0  0  0  0  0  0  0  0  0  0
    8.3859    1.6183   34.4950 N   0  0  0  0  0  0  0  0  0  0  0  0
  1  2  1  0  0  0  0
  2  3  1  0  0  0  0
  2  9  1  0  0  0  0
  3  4  2  0  0  0  0
  3  6  1  0  0  0  0
  6  5  1  0  0  0  0
  6  7  1  0  0  0  0
  7  8  2  0  0  0  0
  7 13  1  0  0  0  0
  8  9  1  0  0  0  0
  8 11  1  0  0  0  0
  9 10  2  0  0  0  0
 11 12  1  0  0  0  0
 12 13  2  0  0  0  0
M  END
>  <CHROM.1>
9.13490934,3.55290535,35.95176623,-0.62141486,-1.26120117,-1.18183236

>  <Name>
1o15_lig

>  <RI>
0

>  <Rbt.Current_Directory>
/home/itssahil/PROJECTS/Mol_Feturizer/New_Systems/rnas/1o15

>  <Rbt.Executable>
rbdock ($Id: //depot/dev/client3/rdock/2013.1/src/exe/rbdock.cxx#4 $)

>  <Rbt.Library>
libRbt.so (2013.1, Build901 2013/11/27)

>  <Rbt.Parameter_File>
/export/apps/rDock/src/rDock_2013.1_src/data/scripts/dock_solv.prm

>  <Rbt.Receptor>
prm/blind_docking_40.prm

>  <SCORE>
-22.3732

>  <SCORE.INTER>
-22.664

>  <SCORE.INTER.CONST>
1

>  <SCORE.INTER.POLAR>
-1.16888

>  <SCORE.INTER.ROT>
0

>  <SCORE.INTER.SOLV>
9.11155

>  <SCORE.INTER.VDW>
-17.8502

>  <SCORE.INTER.norm>
-1.74339

>  <SCORE.INTRA>
0

>  <SCORE.INTRA.DIHEDRAL>
0

>  <SCORE.INTRA.DIHEDRAL.0>
0

>  <SCORE.INTRA.POLAR>
0

>  <SCORE.INTRA.POLAR.0>
0

>  <SCORE.INTRA.REPUL>
0

>  <SCORE.INTRA.REPUL.0>
0

>  <SCORE.INTRA.SOLV>
0

>  <SCORE.INTRA.SOLV.lig_0>
-12.9184

>  <SCORE.INTRA.VDW>
0

>  <SCORE.INTRA.VDW.0>
0

>  <SCORE.INTRA.norm>
0

>  <SCORE.RESTR>
0.290846

>  <SCORE.RESTR.CAVITY>
0.290846

>  <SCORE.RESTR.norm>
0.0223728

>  <SCORE.SYSTEM>
0

>  <SCORE.SYSTEM.CONST>
0

>  <SCORE.SYSTEM.DIHEDRAL>
0

>  <SCORE.SYSTEM.SOLV>
0

>  <SCORE.SYSTEM.norm>
0

>  <SCORE.heavy>
13

>  <SCORE.norm>
-1.72101

>  <RMSD>
3.558

$$$$
1o15_lig
 OpenBabel11021811403D
libRbt.so/2013.1/901 2013/11/27
 13 14  0  0  0  0  0  0  0  0999 V2000
    7.8164    6.2116   35.5469 C   0  0  0  0  0  0  0  0  0  0  0  0
    8.1991    5.1028   36.2691 N   0  0  0  0  0  0  0  0  0  0  0  0
    9.1033    5.2800   37.2680 C   0  0  0  0  0  0  0  0  0  0  0  0
    9.5041    6.4295   37.4320 O   0  0  0  0  0  0  0  0  0  0  0  0
   10.5016    4.4909   39.0764 C   0  0  0  0  0  0  0  0  0  0  0  0
    9.5810    4.2826   38.0717 N   0  0  0  0  0  0  0  0  0  0  0  0
    9.0530    3.0636   37.7777 C   0  0  0  0  0  0  0  0  0  0  0  0
    8.1436    2.8992   36.7735 C   0  0  0  0  0  0  0  0  0  0  0  0
    7.6456    3.9180   35.9401 C   0  0  0  0  0  0  0  0  0  0  0  0
    6.8314    3.8379   35.0239 O   0  0  0  0  0  0  0  0  0  0  0  0
    7.8337    1.5468   36.7624 N   0  0  0  0  0  0  0  0  0  0  0  0
    8.5711    0.9892   37.7547 C   0  0  0  0  0  0  0  0  0  0  0  0
    9.3196    1.8462   38.3951 N   0  0  0  0  0  0  0  0  0  0  0  0
  1  2  1  0  0  0  0
  2  3  1  0  0  0  0
  2  9  1  0  0  0  0
  3  4  2  0  0  0  0
  3  6  1  0  0  0  0
  6  5  1  0  0  0  0
  6  7  1  0  0  0  0
  7  8  2  0  0  0  0
  7 13  1  0  0  0  0
  8  9  1  0  0  0  0
  8 11  1  0  0  0  0
  9 10  2  0  0  0  0
 11 12  1  0  0  0  0
 12 13  2  0  0  0  0
M  END
>  <CHROM.1>
8.61767901,3.88673657,37.06498296,1.62142305,-0.83927881,-0.25108050

>  <Name>
1o15_lig

>  <RI>
0

>  <Rbt.Current_Directory>
/home/itssahil/PROJECTS/Mol_Feturizer/New_Systems/rnas/1o15

>  <Rbt.Executable>
rbdock ($Id: //depot/dev/client3/rdock/2013.1/src/exe/rbdock.cxx#4 $)

>  <Rbt.Library>
libRbt.so (2013.1, Build901 2013/11/27)

>  <Rbt.Parameter_File>
/export/apps/rDock/src/rDock_2013.1_src/data/scripts/dock_solv.prm

>  <Rbt.Receptor>
prm/pocket_docking_5.prm

>  <SCORE>
-23.3351

>  <SCORE.INTER>
-23.3351

>  <SCORE.INTER.CONST>
1

>  <SCORE.INTER.POLAR>
-1.48478

>  <SCORE.INTER.ROT>
0

>  <SCORE.INTER.SOLV>
8.33686

>  <SCORE.INTER.VDW>
-16.9864

>  <SCORE.INTER.norm>
-1.79501

>  <SCORE.INTRA>
0

>  <SCORE.INTRA.DIHEDRAL>
0

>  <SCORE.INTRA.DIHEDRAL.0>
0

>  <SCORE.INTRA.POLAR>
0

>  <SCORE.INTRA.POLAR.0>
0

>  <SCORE.INTRA.REPUL>
0

>  <SCORE.INTRA.REPUL.0>
0

>  <SCORE.INTRA.SOLV>
0

>  <SCORE.INTRA.SOLV.lig_0>
-12.9184

>  <SCORE.INTRA.VDW>
0

>  <SCORE.INTRA.VDW.0>
0

>  <SCORE.INTRA.norm>
0

>  <SCORE.RESTR>
0

>  <SCORE.RESTR.CAVITY>
0

>  <SCORE.RESTR.norm>
0

>  <SCORE.SYSTEM>
0

>  <SCORE.SYSTEM.CONST>
0

>  <SCORE.SYSTEM.DIHEDRAL>
0

>  <SCORE.SYSTEM.SOLV>
0

>  <SCORE.SYSTEM.norm>
0

>  <SCORE.heavy>
13

>  <SCORE.norm>
-1.79501

>  <RMSD>
3.558

$$$$
1o15_lig
 OpenBabel11021811403D
libRbt.so/2013.1/901 2013/11/27
 13 14  0  0  0  0  0  0  0  0999 V2000
    7.8085    6.1972   35.5345 C   0  0  0  0  0  0  0  0  0  0  0  0
    8.1936    5.0924   36.2615 N   0  0  0  0  0  0  0  0  0  0  0  0
    9.0917    5.2771   37.2645 C   0  0  0  0  0  0  0  0  0  0  0  0
    9.4852    6.4292   37.4278 O   0  0  0  0  0  0  0  0  0  0  0  0
   10.4850    4.5003   39.0821 C   0  0  0  0  0  0  0  0  0  0  0  0
    9.5708    4.2844   38.0731 N   0  0  0  0  0  0  0  0  0  0  0  0
    9.0512    3.0617   37.7795 C   0  0  0  0  0  0  0  0  0  0  0  0
    8.1479    2.8897   36.7711 C   0  0  0  0  0  0  0  0  0  0  0  0
    7.6485    3.9036   35.9326 C   0  0  0  0  0  0  0  0  0  0  0  0
    6.8395    3.8167   35.0123 O   0  0  0  0  0  0  0  0  0  0  0  0
    7.8456    1.5356   36.7617 N   0  0  0  0  0  0  0  0  0  0  0  0
    8.5810    0.9846   37.7592 C   0  0  0  0  0  0  0  0  0  0  0  0
    9.3214    1.8473   38.4014 N   0  0  0  0  0  0  0  0  0  0  0  0
  1  2  1  0  0  0  0
  2  3  1  0  0  0  0
  2  9  1  0  0  0  0
  3  4  2  0  0  0  0
  3  6  1  0  0  0  0
  6  5  1  0  0  0  0
  6  7  1  0  0  0  0
  7  8  2  0  0  0  0
  7 13  1  0  0  0  0
  8  9  1  0  0  0  0
  8 11  1  0  0  0  0
  9 10  2  0  0  0  0
 11 12  1  0  0  0  0
 12 13  2  0  0  0  0
M  END
>  <CHROM.1>
8.61490699,3.88061238,37.06250767,1.62765230,-0.84566661,-0.24891582

>  <Name>
1o15_lig

>  <RI>
0

>  <Rbt.Current_Directory>
/home/itssahil/PROJECTS/Mol_Feturizer/New_Systems/rnas/1o15

>  <Rbt.Executable>
rbdock ($Id: //depot/dev/client3/rdock/2013.1/src/exe/rbdock.cxx#4 $)

>  <Rbt.Library>
libRbt.so (2013.1, Build901 2013/11/27)

>  <Rbt.Parameter_File>
/export/apps/rDock/src/rDock_2013.1_src/data/scripts/dock_solv.prm

>  <Rbt.Receptor>
prm/pocket_docking_7.prm

>  <SCORE>
-23.3375

>  <SCORE.INTER>
-23.3375

>  <SCORE.INTER.CONST>
1

>  <SCORE.INTER.POLAR>
-1.48418

>  <SCORE.INTER.ROT>
0

>  <SCORE.INTER.SOLV>
8.33256

>  <SCORE.INTER.VDW>
-16.9886

>  <SCORE.INTER.norm>
-1.79519

>  <SCORE.INTRA>
0

>  <SCORE.INTRA.DIHEDRAL>
0

>  <SCORE.INTRA.DIHEDRAL.0>
0

>  <SCORE.INTRA.POLAR>
0

>  <SCORE.INTRA.POLAR.0>
0

>  <SCORE.INTRA.REPUL>
0

>  <SCORE.INTRA.REPUL.0>
0

>  <SCORE.INTRA.SOLV>
0

>  <SCORE.INTRA.SOLV.lig_0>
-12.9184

>  <SCORE.INTRA.VDW>
0

>  <SCORE.INTRA.VDW.0>
0

>  <SCORE.INTRA.norm>
0

>  <SCORE.RESTR>
0

>  <SCORE.RESTR.CAVITY>
0

>  <SCORE.RESTR.norm>
0

>  <SCORE.SYSTEM>
0

>  <SCORE.SYSTEM.CONST>
0

>  <SCORE.SYSTEM.DIHEDRAL>
0

>  <SCORE.SYSTEM.SOLV>
0

>  <SCORE.SYSTEM.norm>
0

>  <SCORE.heavy>
13

>  <SCORE.norm>
-1.79519

>  <RMSD>
3.558

$$$$
1o15_lig
 OpenBabel11021811403D
libRbt.so/2013.1/901 2013/11/27
 13 14  0  0  0  0  0  0  0  0999 V2000
    9.9988    5.7647   37.6083 C   0  0  0  0  0  0  0  0  0  0  0  0
    9.5918    4.7125   36.8180 N   0  0  0  0  0  0  0  0  0  0  0  0
    9.3094    3.5332   37.4315 C   0  0  0  0  0  0  0  0  0  0  0  0
    9.4507    3.5151   38.6516 O   0  0  0  0  0  0  0  0  0  0  0  0
    8.6187    1.2156   37.4363 C   0  0  0  0  0  0  0  0  0  0  0  0
    8.8953    2.4004   36.7881 N   0  0  0  0  0  0  0  0  0  0  0  0
    8.7834    2.5639   35.4420 C   0  0  0  0  0  0  0  0  0  0  0  0
    9.0676    3.7542   34.8380 C   0  0  0  0  0  0  0  0  0  0  0  0
    9.4950    4.9258   35.4901 C   0  0  0  0  0  0  0  0  0  0  0  0
    9.7658    6.0231   35.0088 O   0  0  0  0  0  0  0  0  0  0  0  0
    8.8470    3.5525   33.4831 N   0  0  0  0  0  0  0  0  0  0  0  0
    8.4461    2.2626   33.3607 C   0  0  0  0  0  0  0  0  0  0  0  0
    8.3904    1.6220   34.4971 N   0  0  0  0  0  0  0  0  0  0  0  0
  1  2  1  0  0  0  0
  2  3  1  0  0  0  0
  2  9  1  0  0  0  0
  3  4  2  0  0  0  0
  3  6  1  0  0  0  0
  6  5  1  0  0  0  0
  6  7  1  0  0  0  0
  7  8  2  0  0  0  0
  7 13  1  0  0  0  0
  8  9  1  0  0  0  0
  8 11  1  0  0  0  0
  9 10  2  0  0  0  0
 11 12  1  0  0  0  0
 12 13  2  0  0  0  0
M  END
>  <CHROM.1>
9.14165478,3.55722514,35.95185095,-0.62988160,-1.25954084,-1.19164240

>  <Name>
1o15_lig

>  <RI>
0

>  <Rbt.Current_Directory>
/home/itssahil/PROJECTS/Mol_Feturizer/New_Systems/rnas/1o15

>  <Rbt.Executable>
rbdock ($Id: //depot/dev/client3/rdock/2013.1/src/exe/rbdock.cxx#4 $)

>  <Rbt.Library>
libRbt.so (2013.1, Build901 2013/11/27)

>  <Rbt.Parameter_File>
/export/apps/rDock/src/rDock_2013.1_src/data/scripts/dock_solv.prm

>  <Rbt.Receptor>
prm/blind_docking_40.prm

>  <SCORE>
-22.409

>  <SCORE.INTER>
-22.7046

>  <SCORE.INTER.CONST>
1

>  <SCORE.INTER.POLAR>
-1.18109

>  <SCORE.INTER.ROT>
0

>  <SCORE.INTER.SOLV>
9.13192

>  <SCORE.INTER.VDW>
-17.8434

>  <SCORE.INTER.norm>
-1.74651

>  <SCORE.INTRA>
0

>  <SCORE.INTRA.DIHEDRAL>
0

>  <SCORE.INTRA.DIHEDRAL.0>
0

>  <SCORE.INTRA.POLAR>
0

>  <SCORE.INTRA.POLAR.0>
0

>  <SCORE.INTRA.REPUL>
0

>  <SCORE.INTRA.REPUL.0>
0

>  <SCORE.INTRA.SOLV>
0

>  <SCORE.INTRA.SOLV.lig_0>
-12.9184

>  <SCORE.INTRA.VDW>
0

>  <SCORE.INTRA.VDW.0>
0

>  <SCORE.INTRA.norm>
0

>  <SCORE.RESTR>
0.295576

>  <SCORE.RESTR.CAVITY>
0.295576

>  <SCORE.RESTR.norm>
0.0227366

>  <SCORE.SYSTEM>
0

>  <SCORE.SYSTEM.CONST>
0

>  <SCORE.SYSTEM.DIHEDRAL>
0

>  <SCORE.SYSTEM.SOLV>
0

>  <SCORE.SYSTEM.norm>
0

>  <SCORE.heavy>
13

>  <SCORE.norm>
-1.72377

>  <RMSD>
3.559

$$$$
1o15_lig
 OpenBabel11021811403D
libRbt.so/2013.1/901 2013/11/27
 13 14  0  0  0  0  0  0  0  0999 V2000
    7.8058    6.2058   35.5360 C   0  0  0  0  0  0  0  0  0  0  0  0
    8.1892    5.1026   36.2664 N   0  0  0  0  0  0  0  0  0  0  0  0
    9.0806    5.2906   37.2748 C   0  0  0  0  0  0  0  0  0  0  0  0
    9.4701    6.4439   37.4394 O   0  0  0  0  0  0  0  0  0  0  0  0
   10.4646    4.5192   39.1017 C   0  0  0  0  0  0  0  0  0  0  0  0
    9.5572    4.2999   38.0873 N   0  0  0  0  0  0  0  0  0  0  0  0
    9.0426    3.0757   37.7917 C   0  0  0  0  0  0  0  0  0  0  0  0
    8.1460    2.9003   36.7779 C   0  0  0  0  0  0  0  0  0  0  0  0
    7.6492    3.9122   35.9353 C   0  0  0  0  0  0  0  0  0  0  0  0
    6.8462    3.8223   35.0102 O   0  0  0  0  0  0  0  0  0  0  0  0
    7.8472    1.5454   36.7679 N   0  0  0  0  0  0  0  0  0  0  0  0
    8.5779    0.9973   37.7705 C   0  0  0  0  0  0  0  0  0  0  0  0
    9.3120    1.8625   38.4164 N   0  0  0  0  0  0  0  0  0  0  0  0
  1  2  1  0  0  0  0
  2  3  1  0  0  0  0
  2  9  1  0  0  0  0
  3  4  2  0  0  0  0
  3  6  1  0  0  0  0
  6  5  1  0  0  0  0
  6  7  1  0  0  0  0
  7  8  2  0  0  0  0
  7 13  1  0  0  0  0
  8  9  1  0  0  0  0
  8 11  1  0  0  0  0
  9 10  2  0  0  0  0
 11 12  1  0  0  0  0
 12 13  2  0  0  0  0
M  END
>  <CHROM.1>
8.60865816,3.89272726,37.07119957,1.62912216,-0.85229398,-0.24877849

>  <Name>
1o15_lig

>  <RI>
0

>  <Rbt.Current_Directory>
/home/itssahil/PROJECTS/Mol_Feturizer/New_Systems/rnas/1o15

>  <Rbt.Executable>
rbdock ($Id: //depot/dev/client3/rdock/2013.1/src/exe/rbdock.cxx#4 $)

>  <Rbt.Library>
libRbt.so (2013.1, Build901 2013/11/27)

>  <Rbt.Parameter_File>
/export/apps/rDock/src/rDock_2013.1_src/data/scripts/dock_solv.prm

>  <Rbt.Receptor>
prm/pocket_docking_5.prm

>  <SCORE>
-23.3156

>  <SCORE.INTER>
-23.3156

>  <SCORE.INTER.CONST>
1

>  <SCORE.INTER.POLAR>
-1.47052

>  <SCORE.INTER.ROT>
0

>  <SCORE.INTER.SOLV>
8.39865

>  <SCORE.INTER.VDW>
-17.0416

>  <SCORE.INTER.norm>
-1.79351

>  <SCORE.INTRA>
0

>  <SCORE.INTRA.DIHEDRAL>
0

>  <SCORE.INTRA.DIHEDRAL.0>
0

>  <SCORE.INTRA.POLAR>
0

>  <SCORE.INTRA.POLAR.0>
0

>  <SCORE.INTRA.REPUL>
0

>  <SCORE.INTRA.REPUL.0>
0

>  <SCORE.INTRA.SOLV>
0

>  <SCORE.INTRA.SOLV.lig_0>
-12.9184

>  <SCORE.INTRA.VDW>
0

>  <SCORE.INTRA.VDW.0>
0

>  <SCORE.INTRA.norm>
0

>  <SCORE.RESTR>
0

>  <SCORE.RESTR.CAVITY>
0

>  <SCORE.RESTR.norm>
0

>  <SCORE.SYSTEM>
0

>  <SCORE.SYSTEM.CONST>
0

>  <SCORE.SYSTEM.DIHEDRAL>
0

>  <SCORE.SYSTEM.SOLV>
0

>  <SCORE.SYSTEM.norm>
0

>  <SCORE.heavy>
13

>  <SCORE.norm>
-1.79351

>  <RMSD>
3.561

$$$$
1o15_lig
 OpenBabel11021811403D
libRbt.so/2013.1/901 2013/11/27
 13 14  0  0  0  0  0  0  0  0999 V2000
    9.9713    5.7636   37.6007 C   0  0  0  0  0  0  0  0  0  0  0  0
    9.5739    4.7099   36.8075 N   0  0  0  0  0  0  0  0  0  0  0  0
    9.3027    3.5263   37.4176 C   0  0  0  0  0  0  0  0  0  0  0  0
    9.4444    3.5060   38.6376 O   0  0  0  0  0  0  0  0  0  0  0  0
    8.6338    1.2023   37.4159 C   0  0  0  0  0  0  0  0  0  0  0  0
    8.8991    2.3915   36.7710 N   0  0  0  0  0  0  0  0  0  0  0  0
    8.7855    2.5578   35.4254 C   0  0  0  0  0  0  0  0  0  0  0  0
    9.0584    3.7524   34.8248 C   0  0  0  0  0  0  0  0  0  0  0  0
    9.4749    4.9261   35.4801 C   0  0  0  0  0  0  0  0  0  0  0  0
    9.7354    6.0272   35.0020 O   0  0  0  0  0  0  0  0  0  0  0  0
    8.8395    3.5525   33.4694 N   0  0  0  0  0  0  0  0  0  0  0  0
    8.4506    2.2592   33.3434 C   0  0  0  0  0  0  0  0  0  0  0  0
    8.4011    1.6149   34.4779 N   0  0  0  0  0  0  0  0  0  0  0  0
  1  2  1  0  0  0  0
  2  3  1  0  0  0  0
  2  9  1  0  0  0  0
  3  4  2  0  0  0  0
  3  6  1  0  0  0  0
  6  5  1  0  0  0  0
  6  7  1  0  0  0  0
  7  8  2  0  0  0  0
  7 13  1  0  0  0  0
  8  9  1  0  0  0  0
  8 11  1  0  0  0  0
  9 10  2  0  0  0  0
 11 12  1  0  0  0  0
 12 13  2  0  0  0  0
M  END
>  <CHROM.1>
9.13448193,3.55296386,35.93806213,-0.61769478,-1.26814117,-1.17717361

>  <Name>
1o15_lig

>  <RI>
0

>  <Rbt.Current_Directory>
/home/itssahil/PROJECTS/Mol_Feturizer/New_Systems/rnas/1o15

>  <Rbt.Executable>
rbdock ($Id: //depot/dev/client3/rdock/2013.1/src/exe/rbdock.cxx#4 $)

>  <Rbt.Library>
libRbt.so (2013.1, Build901 2013/11/27)

>  <Rbt.Parameter_File>
/export/apps/rDock/src/rDock_2013.1_src/data/scripts/dock_solv.prm

>  <Rbt.Receptor>
prm/blind_docking_40.prm

>  <SCORE>
-22.2833

>  <SCORE.INTER>
-22.548

>  <SCORE.INTER.CONST>
1

>  <SCORE.INTER.POLAR>
-1.16367

>  <SCORE.INTER.ROT>
0

>  <SCORE.INTER.SOLV>
9.1367

>  <SCORE.INTER.VDW>
-17.7987

>  <SCORE.INTER.norm>
-1.73446

>  <SCORE.INTRA>
0

>  <SCORE.INTRA.DIHEDRAL>
0

>  <SCORE.INTRA.DIHEDRAL.0>
0

>  <SCORE.INTRA.POLAR>
0

>  <SCORE.INTRA.POLAR.0>
0

>  <SCORE.INTRA.REPUL>
0

>  <SCORE.INTRA.REPUL.0>
0

>  <SCORE.INTRA.SOLV>
0

>  <SCORE.INTRA.SOLV.lig_0>
-12.9184

>  <SCORE.INTRA.VDW>
0

>  <SCORE.INTRA.VDW.0>
0

>  <SCORE.INTRA.norm>
0

>  <SCORE.RESTR>
0.264703

>  <SCORE.RESTR.CAVITY>
0.264703

>  <SCORE.RESTR.norm>
0.0203618

>  <SCORE.SYSTEM>
0

>  <SCORE.SYSTEM.CONST>
0

>  <SCORE.SYSTEM.DIHEDRAL>
0

>  <SCORE.SYSTEM.SOLV>
0

>  <SCORE.SYSTEM.norm>
0

>  <SCORE.heavy>
13

>  <SCORE.norm>
-1.7141

>  <RMSD>
3.564

$$$$
1o15_lig
 OpenBabel11021811403D
libRbt.so/2013.1/901 2013/11/27
 13 14  0  0  0  0  0  0  0  0999 V2000
    7.7486    6.2037   35.5515 C   0  0  0  0  0  0  0  0  0  0  0  0
    8.1518    5.1018   36.2730 N   0  0  0  0  0  0  0  0  0  0  0  0
    9.0512    5.2954   37.2732 C   0  0  0  0  0  0  0  0  0  0  0  0
    9.4294    6.4523   37.4390 O   0  0  0  0  0  0  0  0  0  0  0  0
   10.4623    4.5318   39.0826 C   0  0  0  0  0  0  0  0  0  0  0  0
    9.5472    4.3067   38.0765 N   0  0  0  0  0  0  0  0  0  0  0  0
    9.0433    3.0780   37.7806 C   0  0  0  0  0  0  0  0  0  0  0  0
    8.1386    2.8970   36.7751 C   0  0  0  0  0  0  0  0  0  0  0  0
    7.6219    3.9068   35.9421 C   0  0  0  0  0  0  0  0  0  0  0  0
    6.8106    3.8119   35.0247 O   0  0  0  0  0  0  0  0  0  0  0  0
    7.8549    1.5388   36.7621 N   0  0  0  0  0  0  0  0  0  0  0  0
    8.6019    0.9946   37.7548 C   0  0  0  0  0  0  0  0  0  0  0  0
    9.3328    1.8653   38.3971 N   0  0  0  0  0  0  0  0  0  0  0  0
  1  2  1  0  0  0  0
  2  3  1  0  0  0  0
  2  9  1  0  0  0  0
  3  4  2  0  0  0  0
  3  6  1  0  0  0  0
  6  5  1  0  0  0  0
  6  7  1  0  0  0  0
  7  8  2  0  0  0  0
  7 13  1  0  0  0  0
  8  9  1  0  0  0  0
  8 11  1  0  0  0  0
  9 10  2  0  0  0  0
 11 12  1  0  0  0  0
 12 13  2  0  0  0  0
M  END
>  <CHROM.1>
8.59298158,3.89324117,37.06815766,1.64930660,-0.84511515,-0.22922952

>  <Name>
1o15_lig

>  <RI>
0

>  <Rbt.Current_Directory>
/home/itssahil/PROJECTS/Mol_Feturizer/New_Systems/rnas/1o15

>  <Rbt.Executable>
rbdock ($Id: //depot/dev/client3/rdock/2013.1/src/exe/rbdock.cxx#4 $)

>  <Rbt.Library>
libRbt.so (2013.1, Build901 2013/11/27)

>  <Rbt.Parameter_File>
/export/apps/rDock/src/rDock_2013.1_src/data/scripts/dock_solv.prm

>  <Rbt.Receptor>
prm/blind_docking_80.prm

>  <SCORE>
-23.32

>  <SCORE.INTER>
-23.32

>  <SCORE.INTER.CONST>
1

>  <SCORE.INTER.POLAR>
-1.44622

>  <SCORE.INTER.ROT>
0

>  <SCORE.INTER.SOLV>
8.43517

>  <SCORE.INTER.VDW>
-17.1377

>  <SCORE.INTER.norm>
-1.79385

>  <SCORE.INTRA>
0

>  <SCORE.INTRA.DIHEDRAL>
0

>  <SCORE.INTRA.DIHEDRAL.0>
0

>  <SCORE.INTRA.POLAR>
0

>  <SCORE.INTRA.POLAR.0>
0

>  <SCORE.INTRA.REPUL>
0

>  <SCORE.INTRA.REPUL.0>
0

>  <SCORE.INTRA.SOLV>
0

>  <SCORE.INTRA.SOLV.lig_0>
-12.9184

>  <SCORE.INTRA.VDW>
0

>  <SCORE.INTRA.VDW.0>
0

>  <SCORE.INTRA.norm>
0

>  <SCORE.RESTR>
0

>  <SCORE.RESTR.CAVITY>
0

>  <SCORE.RESTR.norm>
0

>  <SCORE.SYSTEM>
0

>  <SCORE.SYSTEM.CONST>
0

>  <SCORE.SYSTEM.DIHEDRAL>
0

>  <SCORE.SYSTEM.SOLV>
0

>  <SCORE.SYSTEM.norm>
0

>  <SCORE.heavy>
13

>  <SCORE.norm>
-1.79385

>  <RMSD>
3.567

$$$$
1o15_lig
 OpenBabel11021811403D
libRbt.so/2013.1/901 2013/11/27
 13 14  0  0  0  0  0  0  0  0999 V2000
    7.7587    6.2103   35.5505 C   0  0  0  0  0  0  0  0  0  0  0  0
    8.1569    5.1084   36.2748 N   0  0  0  0  0  0  0  0  0  0  0  0
    9.0528    5.3013   37.2782 C   0  0  0  0  0  0  0  0  0  0  0  0
    9.4328    6.4576   37.4441 O   0  0  0  0  0  0  0  0  0  0  0  0
   10.4554    4.5368   39.0939 C   0  0  0  0  0  0  0  0  0  0  0  0
    9.5437    4.3125   38.0845 N   0  0  0  0  0  0  0  0  0  0  0  0
    9.0384    3.0845   37.7881 C   0  0  0  0  0  0  0  0  0  0  0  0
    8.1371    2.9041   36.7794 C   0  0  0  0  0  0  0  0  0  0  0  0
    7.6258    3.9141   35.9433 C   0  0  0  0  0  0  0  0  0  0  0  0
    6.8177    3.8197   35.0229 O   0  0  0  0  0  0  0  0  0  0  0  0
    7.8507    1.5466   36.7669 N   0  0  0  0  0  0  0  0  0  0  0  0
    8.5927    1.0020   37.7631 C   0  0  0  0  0  0  0  0  0  0  0  0
    9.3230    1.8719   38.4071 N   0  0  0  0  0  0  0  0  0  0  0  0
  1  2  1  0  0  0  0
  2  3  1  0  0  0  0
  2  9  1  0  0  0  0
  3  4  2  0  0  0  0
  3  6  1  0  0  0  0
  6  5  1  0  0  0  0
  6  7  1  0  0  0  0
  7  8  2  0  0  0  0
  7 13  1  0  0  0  0
  8  9  1  0  0  0  0
  8 11  1  0  0  0  0
  9 10  2  0  0  0  0
 11 12  1  0  0  0  0
 12 13  2  0  0  0  0
M  END
>  <CHROM.1>
8.59249046,3.89983049,37.07303323,1.64494601,-0.84836660,-0.23365150

>  <Name>
1o15_lig

>  <RI>
0

>  <Rbt.Current_Directory>
/home/itssahil/PROJECTS/Mol_Feturizer/New_Systems/rnas/1o15

>  <Rbt.Executable>
rbdock ($Id: //depot/dev/client3/rdock/2013.1/src/exe/rbdock.cxx#4 $)

>  <Rbt.Library>
libRbt.so (2013.1, Build901 2013/11/27)

>  <Rbt.Parameter_File>
/export/apps/rDock/src/rDock_2013.1_src/data/scripts/dock_solv.prm

>  <Rbt.Receptor>
prm/pocket_docking_5.prm

>  <SCORE>
-23.3181

>  <SCORE.INTER>
-23.3181

>  <SCORE.INTER.CONST>
1

>  <SCORE.INTER.POLAR>
-1.44561

>  <SCORE.INTER.ROT>
0

>  <SCORE.INTER.SOLV>
8.46364

>  <SCORE.INTER.VDW>
-17.1479

>  <SCORE.INTER.norm>
-1.7937

>  <SCORE.INTRA>
0

>  <SCORE.INTRA.DIHEDRAL>
0

>  <SCORE.INTRA.DIHEDRAL.0>
0

>  <SCORE.INTRA.POLAR>
0

>  <SCORE.INTRA.POLAR.0>
0

>  <SCORE.INTRA.REPUL>
0

>  <SCORE.INTRA.REPUL.0>
0

>  <SCORE.INTRA.SOLV>
0

>  <SCORE.INTRA.SOLV.lig_0>
-12.9184

>  <SCORE.INTRA.VDW>
0

>  <SCORE.INTRA.VDW.0>
0

>  <SCORE.INTRA.norm>
0

>  <SCORE.RESTR>
0

>  <SCORE.RESTR.CAVITY>
0

>  <SCORE.RESTR.norm>
0

>  <SCORE.SYSTEM>
0

>  <SCORE.SYSTEM.CONST>
0

>  <SCORE.SYSTEM.DIHEDRAL>
0

>  <SCORE.SYSTEM.SOLV>
0

>  <SCORE.SYSTEM.norm>
0

>  <SCORE.heavy>
13

>  <SCORE.norm>
-1.7937

>  <RMSD>
3.568

$$$$
1o15_lig
 OpenBabel11021811403D
libRbt.so/2013.1/901 2013/11/27
 13 14  0  0  0  0  0  0  0  0999 V2000
    7.7506    6.2170   35.5599 C   0  0  0  0  0  0  0  0  0  0  0  0
    8.1543    5.1127   36.2774 N   0  0  0  0  0  0  0  0  0  0  0  0
    9.0550    5.3028   37.2771 C   0  0  0  0  0  0  0  0  0  0  0  0
    9.4338    6.4590   37.4462 O   0  0  0  0  0  0  0  0  0  0  0  0
   10.4680    4.5328   39.0824 C   0  0  0  0  0  0  0  0  0  0  0  0
    9.5516    4.3113   38.0766 N   0  0  0  0  0  0  0  0  0  0  0  0
    9.0470    3.0837   37.7774 C   0  0  0  0  0  0  0  0  0  0  0  0
    8.1409    2.9062   36.7724 C   0  0  0  0  0  0  0  0  0  0  0  0
    7.6236    3.9189   35.9433 C   0  0  0  0  0  0  0  0  0  0  0  0
    6.8111    3.8272   35.0266 O   0  0  0  0  0  0  0  0  0  0  0  0
    7.8568    1.5482   36.7554 N   0  0  0  0  0  0  0  0  0  0  0  0
    8.6048    1.0006   37.7455 C   0  0  0  0  0  0  0  0  0  0  0  0
    9.3367    1.8689   38.3897 N   0  0  0  0  0  0  0  0  0  0  0  0
  1  2  1  0  0  0  0
  2  3  1  0  0  0  0
  2  9  1  0  0  0  0
  3  4  2  0  0  0  0
  3  6  1  0  0  0  0
  6  5  1  0  0  0  0
  6  7  1  0  0  0  0
  7  8  2  0  0  0  0
  7 13  1  0  0  0  0
  8  9  1  0  0  0  0
  8 11  1  0  0  0  0
  9 10  2  0  0  0  0
 11 12  1  0  0  0  0
 12 13  2  0  0  0  0
M  END
>  <CHROM.1>
8.59604325,3.90140628,37.06812742,1.64923354,-0.84387345,-0.22606848

>  <Name>
1o15_lig

>  <RI>
0

>  <Rbt.Current_Directory>
/home/itssahil/PROJECTS/Mol_Feturizer/New_Systems/rnas/1o15

>  <Rbt.Executable>
rbdock ($Id: //depot/dev/client3/rdock/2013.1/src/exe/rbdock.cxx#4 $)

>  <Rbt.Library>
libRbt.so (2013.1, Build901 2013/11/27)

>  <Rbt.Parameter_File>
/export/apps/rDock/src/rDock_2013.1_src/data/scripts/dock_solv.prm

>  <Rbt.Receptor>
prm/pocket_docking_8.prm

>  <SCORE>
-23.3143

>  <SCORE.INTER>
-23.3143

>  <SCORE.INTER.CONST>
1

>  <SCORE.INTER.POLAR>
-1.43926

>  <SCORE.INTER.ROT>
0

>  <SCORE.INTER.SOLV>
8.43019

>  <SCORE.INTER.VDW>
-17.1554

>  <SCORE.INTER.norm>
-1.79341

>  <SCORE.INTRA>
0

>  <SCORE.INTRA.DIHEDRAL>
0

>  <SCORE.INTRA.DIHEDRAL.0>
0

>  <SCORE.INTRA.POLAR>
0

>  <SCORE.INTRA.POLAR.0>
0

>  <SCORE.INTRA.REPUL>
0

>  <SCORE.INTRA.REPUL.0>
0

>  <SCORE.INTRA.SOLV>
0

>  <SCORE.INTRA.SOLV.lig_0>
-12.9184

>  <SCORE.INTRA.VDW>
0

>  <SCORE.INTRA.VDW.0>
0

>  <SCORE.INTRA.norm>
0

>  <SCORE.RESTR>
0

>  <SCORE.RESTR.CAVITY>
0

>  <SCORE.RESTR.norm>
0

>  <SCORE.SYSTEM>
0

>  <SCORE.SYSTEM.CONST>
0

>  <SCORE.SYSTEM.DIHEDRAL>
0

>  <SCORE.SYSTEM.SOLV>
0

>  <SCORE.SYSTEM.norm>
0

>  <SCORE.heavy>
13

>  <SCORE.norm>
-1.79341

>  <RMSD>
3.568

$$$$
1o15_lig
 OpenBabel11021811403D
libRbt.so/2013.1/901 2013/11/27
 13 14  0  0  0  0  0  0  0  0999 V2000
    9.9517    5.7476   37.6673 C   0  0  0  0  0  0  0  0  0  0  0  0
    9.5368    4.7082   36.8643 N   0  0  0  0  0  0  0  0  0  0  0  0
    9.1790    3.5454   37.4697 C   0  0  0  0  0  0  0  0  0  0  0  0
    9.2653    3.5290   38.6949 O   0  0  0  0  0  0  0  0  0  0  0  0
    8.3934    1.2583   37.4539 C   0  0  0  0  0  0  0  0  0  0  0  0
    8.7472    2.4266   36.8134 N   0  0  0  0  0  0  0  0  0  0  0  0
    8.7018    2.5862   35.4630 C   0  0  0  0  0  0  0  0  0  0  0  0
    9.0615    3.7601   34.8671 C   0  0  0  0  0  0  0  0  0  0  0  0
    9.5078    4.9171   35.5324 C   0  0  0  0  0  0  0  0  0  0  0  0
    9.8448    5.9993   35.0589 O   0  0  0  0  0  0  0  0  0  0  0  0
    8.8929    3.5592   33.5046 N   0  0  0  0  0  0  0  0  0  0  0  0
    8.4447    2.2862   33.3702 C   0  0  0  0  0  0  0  0  0  0  0  0
    8.3123    1.6554   34.5057 N   0  0  0  0  0  0  0  0  0  0  0  0
  1  2  1  0  0  0  0
  2  3  1  0  0  0  0
  2  9  1  0  0  0  0
  3  4  2  0  0  0  0
  3  6  1  0  0  0  0
  6  5  1  0  0  0  0
  6  7  1  0  0  0  0
  7  8  2  0  0  0  0
  7 13  1  0  0  0  0
  8  9  1  0  0  0  0
  8 11  1  0  0  0  0
  9 10  2  0  0  0  0
 11 12  1  0  0  0  0
 12 13  2  0  0  0  0
M  END
>  <CHROM.1>
9.07798013,3.56711341,35.98397589,-0.80084697,-1.23283305,-1.35901584

>  <Name>
1o15_lig

>  <RI>
0

>  <Rbt.Current_Directory>
/home/itssahil/PROJECTS/Mol_Feturizer/New_Systems/rnas/1o15

>  <Rbt.Executable>
rbdock ($Id: //depot/dev/client3/rdock/2013.1/src/exe/rbdock.cxx#4 $)

>  <Rbt.Library>
libRbt.so (2013.1, Build901 2013/11/27)

>  <Rbt.Parameter_File>
/export/apps/rDock/src/rDock_2013.1_src/data/scripts/dock_solv.prm

>  <Rbt.Receptor>
prm/blind_docking_60.prm

>  <SCORE>
-22.6634

>  <SCORE.INTER>
-22.736

>  <SCORE.INTER.CONST>
1

>  <SCORE.INTER.POLAR>
-1.24265

>  <SCORE.INTER.ROT>
0

>  <SCORE.INTER.SOLV>
9.42314

>  <SCORE.INTER.VDW>
-17.7562

>  <SCORE.INTER.norm>
-1.74892

>  <SCORE.INTRA>
0

>  <SCORE.INTRA.DIHEDRAL>
0

>  <SCORE.INTRA.DIHEDRAL.0>
0

>  <SCORE.INTRA.POLAR>
0

>  <SCORE.INTRA.POLAR.0>
0

>  <SCORE.INTRA.REPUL>
0

>  <SCORE.INTRA.REPUL.0>
0

>  <SCORE.INTRA.SOLV>
0

>  <SCORE.INTRA.SOLV.lig_0>
-12.9184

>  <SCORE.INTRA.VDW>
0

>  <SCORE.INTRA.VDW.0>
0

>  <SCORE.INTRA.norm>
0

>  <SCORE.RESTR>
0.0726577

>  <SCORE.RESTR.CAVITY>
0.0726577

>  <SCORE.RESTR.norm>
0.00558906

>  <SCORE.SYSTEM>
0

>  <SCORE.SYSTEM.CONST>
0

>  <SCORE.SYSTEM.DIHEDRAL>
0

>  <SCORE.SYSTEM.SOLV>
0

>  <SCORE.SYSTEM.norm>
0

>  <SCORE.heavy>
13

>  <SCORE.norm>
-1.74333

>  <RMSD>
3.573

$$$$
1o15_lig
 OpenBabel11021811403D
libRbt.so/2013.1/901 2013/11/27
 13 14  0  0  0  0  0  0  0  0999 V2000
    9.9753    5.7338   37.6356 C   0  0  0  0  0  0  0  0  0  0  0  0
    9.5554    4.7019   36.8255 N   0  0  0  0  0  0  0  0  0  0  0  0
    9.2067    3.5317   37.4219 C   0  0  0  0  0  0  0  0  0  0  0  0
    9.3049    3.5024   38.6460 O   0  0  0  0  0  0  0  0  0  0  0  0
    8.4271    1.2427   37.3891 C   0  0  0  0  0  0  0  0  0  0  0  0
    8.7715    2.4188   36.7578 N   0  0  0  0  0  0  0  0  0  0  0  0
    8.7127    2.5928   35.4097 C   0  0  0  0  0  0  0  0  0  0  0  0
    9.0634    3.7739   34.8230 C   0  0  0  0  0  0  0  0  0  0  0  0
    9.5130    4.9250   35.4963 C   0  0  0  0  0  0  0  0  0  0  0  0
    9.8425    6.0131   35.0312 O   0  0  0  0  0  0  0  0  0  0  0  0
    8.8821    3.5872   33.4601 N   0  0  0  0  0  0  0  0  0  0  0  0
    8.4361    2.3144   33.3164 C   0  0  0  0  0  0  0  0  0  0  0  0
    8.3164    1.6712   34.4463 N   0  0  0  0  0  0  0  0  0  0  0  0
  1  2  1  0  0  0  0
  2  3  1  0  0  0  0
  2  9  1  0  0  0  0
  3  4  2  0  0  0  0
  3  6  1  0  0  0  0
  6  5  1  0  0  0  0
  6  7  1  0  0  0  0
  7  8  2  0  0  0  0
  7 13  1  0  0  0  0
  8  9  1  0  0  0  0
  8 11  1  0  0  0  0
  9 10  2  0  0  0  0
 11 12  1  0  0  0  0
 12 13  2  0  0  0  0
M  END
>  <CHROM.1>
9.09120716,3.56905679,35.93751633,-0.77055834,-1.23328614,-1.31971104

>  <Name>
1o15_lig

>  <RI>
0

>  <Rbt.Current_Directory>
/home/itssahil/PROJECTS/Mol_Feturizer/New_Systems/rnas/1o15

>  <Rbt.Executable>
rbdock ($Id: //depot/dev/client3/rdock/2013.1/src/exe/rbdock.cxx#4 $)

>  <Rbt.Library>
libRbt.so (2013.1, Build901 2013/11/27)

>  <Rbt.Parameter_File>
/export/apps/rDock/src/rDock_2013.1_src/data/scripts/dock_solv.prm

>  <Rbt.Receptor>
prm/blind_docking_60.prm

>  <SCORE>
-22.7932

>  <SCORE.INTER>
-22.8642

>  <SCORE.INTER.CONST>
1

>  <SCORE.INTER.POLAR>
-1.21505

>  <SCORE.INTER.ROT>
0

>  <SCORE.INTER.SOLV>
9.43306

>  <SCORE.INTER.VDW>
-17.937

>  <SCORE.INTER.norm>
-1.75879

>  <SCORE.INTRA>
0

>  <SCORE.INTRA.DIHEDRAL>
0

>  <SCORE.INTRA.DIHEDRAL.0>
0

>  <SCORE.INTRA.POLAR>
0

>  <SCORE.INTRA.POLAR.0>
0

>  <SCORE.INTRA.REPUL>
0

>  <SCORE.INTRA.REPUL.0>
0

>  <SCORE.INTRA.SOLV>
0

>  <SCORE.INTRA.SOLV.lig_0>
-12.9184

>  <SCORE.INTRA.VDW>
0

>  <SCORE.INTRA.VDW.0>
0

>  <SCORE.INTRA.norm>
0

>  <SCORE.RESTR>
0.0710379

>  <SCORE.RESTR.CAVITY>
0.0710379

>  <SCORE.RESTR.norm>
0.00546446

>  <SCORE.SYSTEM>
0

>  <SCORE.SYSTEM.CONST>
0

>  <SCORE.SYSTEM.DIHEDRAL>
0

>  <SCORE.SYSTEM.SOLV>
0

>  <SCORE.SYSTEM.norm>
0

>  <SCORE.heavy>
13

>  <SCORE.norm>
-1.75332

>  <RMSD>
3.581

$$$$
1o15_lig
 OpenBabel11021811403D
libRbt.so/2013.1/901 2013/11/27
 13 14  0  0  0  0  0  0  0  0999 V2000
    9.9604    5.7825   37.6356 C   0  0  0  0  0  0  0  0  0  0  0  0
    9.5458    4.7368   36.8405 N   0  0  0  0  0  0  0  0  0  0  0  0
    9.1896    3.5781   37.4548 C   0  0  0  0  0  0  0  0  0  0  0  0
    9.2768    3.5708   38.6800 O   0  0  0  0  0  0  0  0  0  0  0  0
    8.4061    1.2902   37.4563 C   0  0  0  0  0  0  0  0  0  0  0  0
    8.7583    2.4542   36.8070 N   0  0  0  0  0  0  0  0  0  0  0  0
    8.7117    2.6038   35.4555 C   0  0  0  0  0  0  0  0  0  0  0  0
    9.0698    3.7736   34.8507 C   0  0  0  0  0  0  0  0  0  0  0  0
    9.5155    4.9359   35.5072 C   0  0  0  0  0  0  0  0  0  0  0  0
    9.8513    6.0149   35.0255 O   0  0  0  0  0  0  0  0  0  0  0  0
    8.9004    3.5626   33.4899 N   0  0  0  0  0  0  0  0  0  0  0  0
    8.4533    2.2882   33.3651 C   0  0  0  0  0  0  0  0  0  0  0  0
    8.3223    1.6657   34.5054 N   0  0  0  0  0  0  0  0  0  0  0  0
  1  2  1  0  0  0  0
  2  3  1  0  0  0  0
  2  9  1  0  0  0  0
  3  4  2  0  0  0  0
  3  6  1  0  0  0  0
  6  5  1  0  0  0  0
  6  7  1  0  0  0  0
  7  8  2  0  0  0  0
  7 13  1  0  0  0  0
  8  9  1  0  0  0  0
  8 11  1  0  0  0  0
  9 10  2  0  0  0  0
 11 12  1  0  0  0  0
 12 13  2  0  0  0  0
M  END
>  <CHROM.1>
9.08738001,3.58884312,35.96897607,-0.79798939,-1.23358832,-1.36364731

>  <Name>
1o15_lig

>  <RI>
0

>  <Rbt.Current_Directory>
/home/itssahil/PROJECTS/Mol_Feturizer/New_Systems/rnas/1o15

>  <Rbt.Executable>
rbdock ($Id: //depot/dev/client3/rdock/2013.1/src/exe/rbdock.cxx#4 $)

>  <Rbt.Library>
libRbt.so (2013.1, Build901 2013/11/27)

>  <Rbt.Parameter_File>
/export/apps/rDock/src/rDock_2013.1_src/data/scripts/dock_solv.prm

>  <Rbt.Receptor>
prm/blind_docking_60.prm

>  <SCORE>
-22.6441

>  <SCORE.INTER>
-22.6996

>  <SCORE.INTER.CONST>
1

>  <SCORE.INTER.POLAR>
-1.25342

>  <SCORE.INTER.ROT>
0

>  <SCORE.INTER.SOLV>
9.47878

>  <SCORE.INTER.VDW>
-17.7146

>  <SCORE.INTER.norm>
-1.74612

>  <SCORE.INTRA>
0

>  <SCORE.INTRA.DIHEDRAL>
0

>  <SCORE.INTRA.DIHEDRAL.0>
0

>  <SCORE.INTRA.POLAR>
0

>  <SCORE.INTRA.POLAR.0>
0

>  <SCORE.INTRA.REPUL>
0

>  <SCORE.INTRA.REPUL.0>
0

>  <SCORE.INTRA.SOLV>
0

>  <SCORE.INTRA.SOLV.lig_0>
-12.9184

>  <SCORE.INTRA.VDW>
0

>  <SCORE.INTRA.VDW.0>
0

>  <SCORE.INTRA.norm>
0

>  <SCORE.RESTR>
0.0555098

>  <SCORE.RESTR.CAVITY>
0.0555098

>  <SCORE.RESTR.norm>
0.00426999

>  <SCORE.SYSTEM>
0

>  <SCORE.SYSTEM.CONST>
0

>  <SCORE.SYSTEM.DIHEDRAL>
0

>  <SCORE.SYSTEM.SOLV>
0

>  <SCORE.SYSTEM.norm>
0

>  <SCORE.heavy>
13

>  <SCORE.norm>
-1.74185

>  <RMSD>
3.581

$$$$
1o15_lig
 OpenBabel11021811403D
libRbt.so/2013.1/901 2013/11/27
 13 14  0  0  0  0  0  0  0  0999 V2000
    9.9762    5.7755   37.6173 C   0  0  0  0  0  0  0  0  0  0  0  0
    9.5558    4.7352   36.8183 N   0  0  0  0  0  0  0  0  0  0  0  0
    9.2076    3.5712   37.4271 C   0  0  0  0  0  0  0  0  0  0  0  0
    9.3068    3.5547   38.6513 O   0  0  0  0  0  0  0  0  0  0  0  0
    8.4282    1.2819   37.4187 C   0  0  0  0  0  0  0  0  0  0  0  0
    8.7720    2.4515   36.7750 N   0  0  0  0  0  0  0  0  0  0  0  0
    8.7121    2.6114   35.4252 C   0  0  0  0  0  0  0  0  0  0  0  0
    9.0622    3.7864   34.8259 C   0  0  0  0  0  0  0  0  0  0  0  0
    9.5122    4.9445   35.4869 C   0  0  0  0  0  0  0  0  0  0  0  0
    9.8413    6.0277   35.0103 O   0  0  0  0  0  0  0  0  0  0  0  0
    8.8799    3.5855   33.4652 N   0  0  0  0  0  0  0  0  0  0  0  0
    8.4339    2.3113   33.3350 C   0  0  0  0  0  0  0  0  0  0  0  0
    8.3151    1.6798   34.4717 N   0  0  0  0  0  0  0  0  0  0  0  0
  1  2  1  0  0  0  0
  2  3  1  0  0  0  0
  2  9  1  0  0  0  0
  3  4  2  0  0  0  0
  3  6  1  0  0  0  0
  6  5  1  0  0  0  0
  6  7  1  0  0  0  0
  7  8  2  0  0  0  0
  7 13  1  0  0  0  0
  8  9  1  0  0  0  0
  8 11  1  0  0  0  0
  9 10  2  0  0  0  0
 11 12  1  0  0  0  0
 12 13  2  0  0  0  0
M  END
>  <CHROM.1>
9.09093086,3.59313689,35.94248712,-0.76816984,-1.23317647,-1.32784803

>  <Name>
1o15_lig

>  <RI>
0

>  <Rbt.Current_Directory>
/home/itssahil/PROJECTS/Mol_Feturizer/New_Systems/rnas/1o15

>  <Rbt.Executable>
rbdock ($Id: //depot/dev/client3/rdock/2013.1/src/exe/rbdock.cxx#4 $)

>  <Rbt.Library>
libRbt.so (2013.1, Build901 2013/11/27)

>  <Rbt.Parameter_File>
/export/apps/rDock/src/rDock_2013.1_src/data/scripts/dock_solv.prm

>  <Rbt.Receptor>
prm/blind_docking_60.prm

>  <SCORE>
-22.6485

>  <SCORE.INTER>
-22.7049

>  <SCORE.INTER.CONST>
1

>  <SCORE.INTER.POLAR>
-1.22137

>  <SCORE.INTER.ROT>
0

>  <SCORE.INTER.SOLV>
9.46853

>  <SCORE.INTER.VDW>
-17.8215

>  <SCORE.INTER.norm>
-1.74653

>  <SCORE.INTRA>
0

>  <SCORE.INTRA.DIHEDRAL>
0

>  <SCORE.INTRA.DIHEDRAL.0>
0

>  <SCORE.INTRA.POLAR>
0

>  <SCORE.INTRA.POLAR.0>
0

>  <SCORE.INTRA.REPUL>
0

>  <SCORE.INTRA.REPUL.0>
0

>  <SCORE.INTRA.SOLV>
0

>  <SCORE.INTRA.SOLV.lig_0>
-12.9184

>  <SCORE.INTRA.VDW>
0

>  <SCORE.INTRA.VDW.0>
0

>  <SCORE.INTRA.norm>
0

>  <SCORE.RESTR>
0.0563818

>  <SCORE.RESTR.CAVITY>
0.0563818

>  <SCORE.RESTR.norm>
0.00433706

>  <SCORE.SYSTEM>
0

>  <SCORE.SYSTEM.CONST>
0

>  <SCORE.SYSTEM.DIHEDRAL>
0

>  <SCORE.SYSTEM.SOLV>
0

>  <SCORE.SYSTEM.norm>
0

>  <SCORE.heavy>
13

>  <SCORE.norm>
-1.74219

>  <RMSD>
3.584

$$$$
1o15_lig
 OpenBabel11021811403D
libRbt.so/2013.1/901 2013/11/27
 13 14  0  0  0  0  0  0  0  0999 V2000
    9.9535    5.7359   37.6363 C   0  0  0  0  0  0  0  0  0  0  0  0
    9.5351    4.7043   36.8250 N   0  0  0  0  0  0  0  0  0  0  0  0
    9.1789    3.5360   37.4206 C   0  0  0  0  0  0  0  0  0  0  0  0
    9.2696    3.5079   38.6453 O   0  0  0  0  0  0  0  0  0  0  0  0
    8.3922    1.2495   37.3859 C   0  0  0  0  0  0  0  0  0  0  0  0
    8.7442    2.4237   36.7553 N   0  0  0  0  0  0  0  0  0  0  0  0
    8.6941    2.5961   35.4067 C   0  0  0  0  0  0  0  0  0  0  0  0
    9.0522    3.7754   34.8206 C   0  0  0  0  0  0  0  0  0  0  0  0
    9.5014    4.9259   35.4952 C   0  0  0  0  0  0  0  0  0  0  0  0
    9.8374    6.0123   35.0308 O   0  0  0  0  0  0  0  0  0  0  0  0
    8.8786    3.5876   33.4569 N   0  0  0  0  0  0  0  0  0  0  0  0
    8.4294    2.3161   33.3120 C   0  0  0  0  0  0  0  0  0  0  0  0
    8.3007    1.6747   34.4419 N   0  0  0  0  0  0  0  0  0  0  0  0
  1  2  1  0  0  0  0
  2  3  1  0  0  0  0
  2  9  1  0  0  0  0
  3  4  2  0  0  0  0
  3  6  1  0  0  0  0
  6  5  1  0  0  0  0
  6  7  1  0  0  0  0
  7  8  2  0  0  0  0
  7 13  1  0  0  0  0
  8  9  1  0  0  0  0
  8 11  1  0  0  0  0
  9 10  2  0  0  0  0
 11 12  1  0  0  0  0
 12 13  2  0  0  0  0
M  END
>  <CHROM.1>
9.07261242,3.57185455,35.93552579,-0.79065751,-1.23158553,-1.33991748

>  <Name>
1o15_lig

>  <RI>
0

>  <Rbt.Current_Directory>
/home/itssahil/PROJECTS/Mol_Feturizer/New_Systems/rnas/1o15

>  <Rbt.Executable>
rbdock ($Id: //depot/dev/client3/rdock/2013.1/src/exe/rbdock.cxx#4 $)

>  <Rbt.Library>
libRbt.so (2013.1, Build901 2013/11/27)

>  <Rbt.Parameter_File>
/export/apps/rDock/src/rDock_2013.1_src/data/scripts/dock_solv.prm

>  <Rbt.Receptor>
prm/blind_docking_60.prm

>  <SCORE>
-22.6854

>  <SCORE.INTER>
-22.7371

>  <SCORE.INTER.CONST>
1

>  <SCORE.INTER.POLAR>
-1.21711

>  <SCORE.INTER.ROT>
0

>  <SCORE.INTER.SOLV>
9.48622

>  <SCORE.INTER.VDW>
-17.8631

>  <SCORE.INTER.norm>
-1.74901

>  <SCORE.INTRA>
0

>  <SCORE.INTRA.DIHEDRAL>
0

>  <SCORE.INTRA.DIHEDRAL.0>
0

>  <SCORE.INTRA.POLAR>
0

>  <SCORE.INTRA.POLAR.0>
0

>  <SCORE.INTRA.REPUL>
0

>  <SCORE.INTRA.REPUL.0>
0

>  <SCORE.INTRA.SOLV>
0

>  <SCORE.INTRA.SOLV.lig_0>
-12.9184

>  <SCORE.INTRA.VDW>
0

>  <SCORE.INTRA.VDW.0>
0

>  <SCORE.INTRA.norm>
0

>  <SCORE.RESTR>
0.0516535

>  <SCORE.RESTR.CAVITY>
0.0516535

>  <SCORE.RESTR.norm>
0.00397335

>  <SCORE.SYSTEM>
0

>  <SCORE.SYSTEM.CONST>
0

>  <SCORE.SYSTEM.DIHEDRAL>
0

>  <SCORE.SYSTEM.SOLV>
0

>  <SCORE.SYSTEM.norm>
0

>  <SCORE.heavy>
13

>  <SCORE.norm>
-1.74503

>  <RMSD>
3.587

$$$$
1o15_lig
 OpenBabel11021811403D
libRbt.so/2013.1/901 2013/11/27
 13 14  0  0  0  0  0  0  0  0999 V2000
    9.9352    5.6762   37.6668 C   0  0  0  0  0  0  0  0  0  0  0  0
    9.5133    4.6606   36.8374 N   0  0  0  0  0  0  0  0  0  0  0  0
    9.1484    3.4848   37.4127 C   0  0  0  0  0  0  0  0  0  0  0  0
    9.2352    3.4361   38.6370 O   0  0  0  0  0  0  0  0  0  0  0  0
    8.3482    1.2039   37.3380 C   0  0  0  0  0  0  0  0  0  0  0  0
    8.7091    2.3862   36.7279 N   0  0  0  0  0  0  0  0  0  0  0  0
    8.6641    2.5811   35.3821 C   0  0  0  0  0  0  0  0  0  0  0  0
    9.0310    3.7677   34.8166 C   0  0  0  0  0  0  0  0  0  0  0  0
    9.4849    4.9042   35.5114 C   0  0  0  0  0  0  0  0  0  0  0  0
    9.8287    5.9961   35.0659 O   0  0  0  0  0  0  0  0  0  0  0  0
    8.8604    3.6034   33.4495 N   0  0  0  0  0  0  0  0  0  0  0  0
    8.4041    2.3371   33.2823 C   0  0  0  0  0  0  0  0  0  0  0  0
    8.2682    1.6780   34.4012 N   0  0  0  0  0  0  0  0  0  0  0  0
  1  2  1  0  0  0  0
  2  3  1  0  0  0  0
  2  9  1  0  0  0  0
  3  4  2  0  0  0  0
  3  6  1  0  0  0  0
  6  5  1  0  0  0  0
  6  7  1  0  0  0  0
  7  8  2  0  0  0  0
  7 13  1  0  0  0  0
  8  9  1  0  0  0  0
  8 11  1  0  0  0  0
  9 10  2  0  0  0  0
 11 12  1  0  0  0  0
 12 13  2  0  0  0  0
M  END
>  <CHROM.1>
9.04677896,3.54572504,35.92806785,-0.80340753,-1.22649507,-1.33546860

>  <Name>
1o15_lig

>  <RI>
0

>  <Rbt.Current_Directory>
/home/itssahil/PROJECTS/Mol_Feturizer/New_Systems/rnas/1o15

>  <Rbt.Executable>
rbdock ($Id: //depot/dev/client3/rdock/2013.1/src/exe/rbdock.cxx#4 $)

>  <Rbt.Library>
libRbt.so (2013.1, Build901 2013/11/27)

>  <Rbt.Parameter_File>
/export/apps/rDock/src/rDock_2013.1_src/data/scripts/dock_solv.prm

>  <Rbt.Receptor>
prm/blind_docking_60.prm

>  <SCORE>
-22.6458

>  <SCORE.INTER>
-22.6852

>  <SCORE.INTER.CONST>
1

>  <SCORE.INTER.POLAR>
-1.18742

>  <SCORE.INTER.ROT>
0

>  <SCORE.INTER.SOLV>
9.4804

>  <SCORE.INTER.VDW>
-17.9256

>  <SCORE.INTER.norm>
-1.74502

>  <SCORE.INTRA>
0

>  <SCORE.INTRA.DIHEDRAL>
0

>  <SCORE.INTRA.DIHEDRAL.0>
0

>  <SCORE.INTRA.POLAR>
0

>  <SCORE.INTRA.POLAR.0>
0

>  <SCORE.INTRA.REPUL>
0

>  <SCORE.INTRA.REPUL.0>
0

>  <SCORE.INTRA.SOLV>
0

>  <SCORE.INTRA.SOLV.lig_0>
-12.9184

>  <SCORE.INTRA.VDW>
0

>  <SCORE.INTRA.VDW.0>
0

>  <SCORE.INTRA.norm>
0

>  <SCORE.RESTR>
0.0393979

>  <SCORE.RESTR.CAVITY>
0.0393979

>  <SCORE.RESTR.norm>
0.00303061

>  <SCORE.SYSTEM>
0

>  <SCORE.SYSTEM.CONST>
0

>  <SCORE.SYSTEM.DIHEDRAL>
0

>  <SCORE.SYSTEM.SOLV>
0

>  <SCORE.SYSTEM.norm>
0

>  <SCORE.heavy>
13

>  <SCORE.norm>
-1.74199

>  <RMSD>
3.587

$$$$
1o15_lig
 OpenBabel11021811403D
libRbt.so/2013.1/901 2013/11/27
 13 14  0  0  0  0  0  0  0  0999 V2000
    9.9495    5.7380   37.6361 C   0  0  0  0  0  0  0  0  0  0  0  0
    9.5336    4.7052   36.8251 N   0  0  0  0  0  0  0  0  0  0  0  0
    9.1787    3.5367   37.4213 C   0  0  0  0  0  0  0  0  0  0  0  0
    9.2682    3.5097   38.6461 O   0  0  0  0  0  0  0  0  0  0  0  0
    8.3956    1.2489   37.3874 C   0  0  0  0  0  0  0  0  0  0  0  0
    8.7464    2.4232   36.7563 N   0  0  0  0  0  0  0  0  0  0  0  0
    8.6974    2.5946   35.4075 C   0  0  0  0  0  0  0  0  0  0  0  0
    9.0542    3.7740   34.8209 C   0  0  0  0  0  0  0  0  0  0  0  0
    9.5009    4.9257   35.4952 C   0  0  0  0  0  0  0  0  0  0  0  0
    9.8356    6.0123   35.0303 O   0  0  0  0  0  0  0  0  0  0  0  0
    8.8823    3.5849   33.4572 N   0  0  0  0  0  0  0  0  0  0  0  0
    8.4352    2.3126   33.3128 C   0  0  0  0  0  0  0  0  0  0  0  0
    8.3064    1.6718   34.4431 N   0  0  0  0  0  0  0  0  0  0  0  0
  1  2  1  0  0  0  0
  2  3  1  0  0  0  0
  2  9  1  0  0  0  0
  3  4  2  0  0  0  0
  3  6  1  0  0  0  0
  6  5  1  0  0  0  0
  6  7  1  0  0  0  0
  7  8  2  0  0  0  0
  7 13  1  0  0  0  0
  8  9  1  0  0  0  0
  8 11  1  0  0  0  0
  9 10  2  0  0  0  0
 11 12  1  0  0  0  0
 12 13  2  0  0  0  0
M  END
>  <CHROM.1>
9.07379523,3.57131031,35.93603703,-0.79252745,-1.23336917,-1.34241115

>  <Name>
1o15_lig

>  <RI>
0

>  <Rbt.Current_Directory>
/home/itssahil/PROJECTS/Mol_Feturizer/New_Systems/rnas/1o15

>  <Rbt.Executable>
rbdock ($Id: //depot/dev/client3/rdock/2013.1/src/exe/rbdock.cxx#4 $)

>  <Rbt.Library>
libRbt.so (2013.1, Build901 2013/11/27)

>  <Rbt.Parameter_File>
/export/apps/rDock/src/rDock_2013.1_src/data/scripts/dock_solv.prm

>  <Rbt.Receptor>
prm/blind_docking_60.prm

>  <SCORE>
-22.6917

>  <SCORE.INTER>
-22.7456

>  <SCORE.INTER.CONST>
1

>  <SCORE.INTER.POLAR>
-1.22047

>  <SCORE.INTER.ROT>
0

>  <SCORE.INTER.SOLV>
9.48866

>  <SCORE.INTER.VDW>
-17.8584

>  <SCORE.INTER.norm>
-1.74966

>  <SCORE.INTRA>
0

>  <SCORE.INTRA.DIHEDRAL>
0

>  <SCORE.INTRA.DIHEDRAL.0>
0

>  <SCORE.INTRA.POLAR>
0

>  <SCORE.INTRA.POLAR.0>
0

>  <SCORE.INTRA.REPUL>
0

>  <SCORE.INTRA.REPUL.0>
0

>  <SCORE.INTRA.SOLV>
0

>  <SCORE.INTRA.SOLV.lig_0>
-12.9184

>  <SCORE.INTRA.VDW>
0

>  <SCORE.INTRA.VDW.0>
0

>  <SCORE.INTRA.norm>
0

>  <SCORE.RESTR>
0.0539284

>  <SCORE.RESTR.CAVITY>
0.0539284

>  <SCORE.RESTR.norm>
0.00414834

>  <SCORE.SYSTEM>
0

>  <SCORE.SYSTEM.CONST>
0

>  <SCORE.SYSTEM.DIHEDRAL>
0

>  <SCORE.SYSTEM.SOLV>
0

>  <SCORE.SYSTEM.norm>
0

>  <SCORE.heavy>
13

>  <SCORE.norm>
-1.74552

>  <RMSD>
3.587

$$$$
1o15_lig
 OpenBabel11021811403D
libRbt.so/2013.1/901 2013/11/27
 13 14  0  0  0  0  0  0  0  0999 V2000
    9.9523    5.7383   37.6357 C   0  0  0  0  0  0  0  0  0  0  0  0
    9.5336    4.7070   36.8242 N   0  0  0  0  0  0  0  0  0  0  0  0
    9.1749    3.5394   37.4199 C   0  0  0  0  0  0  0  0  0  0  0  0
    9.2638    3.5118   38.6447 O   0  0  0  0  0  0  0  0  0  0  0  0
    8.3848    1.2541   37.3850 C   0  0  0  0  0  0  0  0  0  0  0  0
    8.7394    2.4275   36.7544 N   0  0  0  0  0  0  0  0  0  0  0  0
    8.6914    2.5995   35.4056 C   0  0  0  0  0  0  0  0  0  0  0  0
    9.0520    3.7780   34.8196 C   0  0  0  0  0  0  0  0  0  0  0  0
    9.5020    4.9281   35.4944 C   0  0  0  0  0  0  0  0  0  0  0  0
    9.8401    6.0138   35.0300 O   0  0  0  0  0  0  0  0  0  0  0  0
    8.8800    3.5898   33.4557 N   0  0  0  0  0  0  0  0  0  0  0  0
    8.4291    2.3189   33.3107 C   0  0  0  0  0  0  0  0  0  0  0  0
    8.2979    1.6782   34.4408 N   0  0  0  0  0  0  0  0  0  0  0  0
  1  2  1  0  0  0  0
  2  3  1  0  0  0  0
  2  9  1  0  0  0  0
  3  4  2  0  0  0  0
  3  6  1  0  0  0  0
  6  5  1  0  0  0  0
  6  7  1  0  0  0  0
  7  8  2  0  0  0  0
  7 13  1  0  0  0  0
  8  9  1  0  0  0  0
  8 11  1  0  0  0  0
  9 10  2  0  0  0  0
 11 12  1  0  0  0  0
 12 13  2  0  0  0  0
M  END
>  <CHROM.1>
9.07059180,3.57485476,35.93462755,-0.79562033,-1.23047013,-1.34500586

>  <Name>
1o15_lig

>  <RI>
0

>  <Rbt.Current_Directory>
/home/itssahil/PROJECTS/Mol_Feturizer/New_Systems/rnas/1o15

>  <Rbt.Executable>
rbdock ($Id: //depot/dev/client3/rdock/2013.1/src/exe/rbdock.cxx#4 $)

>  <Rbt.Library>
libRbt.so (2013.1, Build901 2013/11/27)

>  <Rbt.Parameter_File>
/export/apps/rDock/src/rDock_2013.1_src/data/scripts/dock_solv.prm

>  <Rbt.Receptor>
prm/blind_docking_60.prm

>  <SCORE>
-22.6615

>  <SCORE.INTER>
-22.7072

>  <SCORE.INTER.CONST>
1

>  <SCORE.INTER.POLAR>
-1.2184

>  <SCORE.INTER.ROT>
0

>  <SCORE.INTER.SOLV>
9.50264

>  <SCORE.INTER.VDW>
-17.8444

>  <SCORE.INTER.norm>
-1.74671

>  <SCORE.INTRA>
0

>  <SCORE.INTRA.DIHEDRAL>
0

>  <SCORE.INTRA.DIHEDRAL.0>
0

>  <SCORE.INTRA.POLAR>
0

>  <SCORE.INTRA.POLAR.0>
0

>  <SCORE.INTRA.REPUL>
0

>  <SCORE.INTRA.REPUL.0>
0

>  <SCORE.INTRA.SOLV>
0

>  <SCORE.INTRA.SOLV.lig_0>
-12.9184

>  <SCORE.INTRA.VDW>
0

>  <SCORE.INTRA.VDW.0>
0

>  <SCORE.INTRA.norm>
0

>  <SCORE.RESTR>
0.0457398

>  <SCORE.RESTR.CAVITY>
0.0457398

>  <SCORE.RESTR.norm>
0.00351845

>  <SCORE.SYSTEM>
0

>  <SCORE.SYSTEM.CONST>
0

>  <SCORE.SYSTEM.DIHEDRAL>
0

>  <SCORE.SYSTEM.SOLV>
0

>  <SCORE.SYSTEM.norm>
0

>  <SCORE.heavy>
13

>  <SCORE.norm>
-1.74319

>  <RMSD>
3.588

$$$$
1o15_lig
 OpenBabel11021811403D
libRbt.so/2013.1/901 2013/11/27
 13 14  0  0  0  0  0  0  0  0999 V2000
    9.9375    5.6853   37.6585 C   0  0  0  0  0  0  0  0  0  0  0  0
    9.5146    4.6679   36.8317 N   0  0  0  0  0  0  0  0  0  0  0  0
    9.1508    3.4932   37.4099 C   0  0  0  0  0  0  0  0  0  0  0  0
    9.2394    3.4469   38.6342 O   0  0  0  0  0  0  0  0  0  0  0  0
    8.3511    1.2119   37.3409 C   0  0  0  0  0  0  0  0  0  0  0  0
    8.7108    2.3931   36.7279 N   0  0  0  0  0  0  0  0  0  0  0  0
    8.6638    2.5853   35.3818 C   0  0  0  0  0  0  0  0  0  0  0  0
    9.0295    3.7709   34.8134 C   0  0  0  0  0  0  0  0  0  0  0  0
    9.4842    4.9089   35.5053 C   0  0  0  0  0  0  0  0  0  0  0  0
    9.8271    6.0000   35.0571 O   0  0  0  0  0  0  0  0  0  0  0  0
    8.8570    3.6038   33.4469 N   0  0  0  0  0  0  0  0  0  0  0  0
    8.4008    2.3371   33.2829 C   0  0  0  0  0  0  0  0  0  0  0  0
    8.2667    1.6801   34.4033 N   0  0  0  0  0  0  0  0  0  0  0  0
  1  2  1  0  0  0  0
  2  3  1  0  0  0  0
  2  9  1  0  0  0  0
  3  4  2  0  0  0  0
  3  6  1  0  0  0  0
  6  5  1  0  0  0  0
  6  7  1  0  0  0  0
  7  8  2  0  0  0  0
  7 13  1  0  0  0  0
  8  9  1  0  0  0  0
  8 11  1  0  0  0  0
  9 10  2  0  0  0  0
 11 12  1  0  0  0  0
 12 13  2  0  0  0  0
M  END
>  <CHROM.1>
9.04702938,3.55109255,35.92529516,-0.79903544,-1.22639954,-1.33334601

>  <Name>
1o15_lig

>  <RI>
0

>  <Rbt.Current_Directory>
/home/itssahil/PROJECTS/Mol_Feturizer/New_Systems/rnas/1o15

>  <Rbt.Executable>
rbdock ($Id: //depot/dev/client3/rdock/2013.1/src/exe/rbdock.cxx#4 $)

>  <Rbt.Library>
libRbt.so (2013.1, Build901 2013/11/27)

>  <Rbt.Parameter_File>
/export/apps/rDock/src/rDock_2013.1_src/data/scripts/dock_solv.prm

>  <Rbt.Receptor>
prm/blind_docking_60.prm

>  <SCORE>
-22.6078

>  <SCORE.INTER>
-22.6457

>  <SCORE.INTER.CONST>
1

>  <SCORE.INTER.POLAR>
-1.18719

>  <SCORE.INTER.ROT>
0

>  <SCORE.INTER.SOLV>
9.48594

>  <SCORE.INTER.VDW>
-17.9018

>  <SCORE.INTER.norm>
-1.74198

>  <SCORE.INTRA>
0

>  <SCORE.INTRA.DIHEDRAL>
0

>  <SCORE.INTRA.DIHEDRAL.0>
0

>  <SCORE.INTRA.POLAR>
0

>  <SCORE.INTRA.POLAR.0>
0

>  <SCORE.INTRA.REPUL>
0

>  <SCORE.INTRA.REPUL.0>
0

>  <SCORE.INTRA.SOLV>
0

>  <SCORE.INTRA.SOLV.lig_0>
-12.9184

>  <SCORE.INTRA.VDW>
0

>  <SCORE.INTRA.VDW.0>
0

>  <SCORE.INTRA.norm>
0

>  <SCORE.RESTR>
0.0379349

>  <SCORE.RESTR.CAVITY>
0.0379349

>  <SCORE.RESTR.norm>
0.00291807

>  <SCORE.SYSTEM>
0

>  <SCORE.SYSTEM.CONST>
0

>  <SCORE.SYSTEM.DIHEDRAL>
0

>  <SCORE.SYSTEM.SOLV>
0

>  <SCORE.SYSTEM.norm>
0

>  <SCORE.heavy>
13

>  <SCORE.norm>
-1.73906

>  <RMSD>
3.588

$$$$
1o15_lig
 OpenBabel11021811403D
libRbt.so/2013.1/901 2013/11/27
 13 14  0  0  0  0  0  0  0  0999 V2000
    9.9721    5.7654   37.6083 C   0  0  0  0  0  0  0  0  0  0  0  0
    9.5527    4.7283   36.8045 N   0  0  0  0  0  0  0  0  0  0  0  0
    9.2009    3.5628   37.4083 C   0  0  0  0  0  0  0  0  0  0  0  0
    9.2960    3.5421   38.6328 O   0  0  0  0  0  0  0  0  0  0  0  0
    8.4182    1.2747   37.3897 C   0  0  0  0  0  0  0  0  0  0  0  0
    8.7658    2.4459   36.7510 N   0  0  0  0  0  0  0  0  0  0  0  0
    8.7104    2.6103   35.4016 C   0  0  0  0  0  0  0  0  0  0  0  0
    9.0642    3.7868   34.8073 C   0  0  0  0  0  0  0  0  0  0  0  0
    9.5138    4.9420   35.4736 C   0  0  0  0  0  0  0  0  0  0  0  0
    9.8460    6.0264   35.0016 O   0  0  0  0  0  0  0  0  0  0  0  0
    8.8860    3.5907   33.4454 N   0  0  0  0  0  0  0  0  0  0  0  0
    8.4386    2.3175   33.3096 C   0  0  0  0  0  0  0  0  0  0  0  0
    8.3152    1.6825   34.4437 N   0  0  0  0  0  0  0  0  0  0  0  0
  1  2  1  0  0  0  0
  2  3  1  0  0  0  0
  2  9  1  0  0  0  0
  3  4  2  0  0  0  0
  3  6  1  0  0  0  0
  6  5  1  0  0  0  0
  6  7  1  0  0  0  0
  7  8  2  0  0  0  0
  7 13  1  0  0  0  0
  8  9  1  0  0  0  0
  8 11  1  0  0  0  0
  9 10  2  0  0  0  0
 11 12  1  0  0  0  0
 12 13  2  0  0  0  0
M  END
>  <CHROM.1>
9.08905746,3.58982614,35.92337428,-0.77871322,-1.23253076,-1.33449269

>  <Name>
1o15_lig

>  <RI>
0

>  <Rbt.Current_Directory>
/home/itssahil/PROJECTS/Mol_Feturizer/New_Systems/rnas/1o15

>  <Rbt.Executable>
rbdock ($Id: //depot/dev/client3/rdock/2013.1/src/exe/rbdock.cxx#4 $)

>  <Rbt.Library>
libRbt.so (2013.1, Build901 2013/11/27)

>  <Rbt.Parameter_File>
/export/apps/rDock/src/rDock_2013.1_src/data/scripts/dock_solv.prm

>  <Rbt.Receptor>
prm/blind_docking_60.prm

>  <SCORE>
-22.6223

>  <SCORE.INTER>
-22.6692

>  <SCORE.INTER.CONST>
1

>  <SCORE.INTER.POLAR>
-1.22448

>  <SCORE.INTER.ROT>
0

>  <SCORE.INTER.SOLV>
9.50946

>  <SCORE.INTER.VDW>
-17.801

>  <SCORE.INTER.norm>
-1.74378

>  <SCORE.INTRA>
0

>  <SCORE.INTRA.DIHEDRAL>
0

>  <SCORE.INTRA.DIHEDRAL.0>
0

>  <SCORE.INTRA.POLAR>
0

>  <SCORE.INTRA.POLAR.0>
0

>  <SCORE.INTRA.REPUL>
0

>  <SCORE.INTRA.REPUL.0>
0

>  <SCORE.INTRA.SOLV>
0

>  <SCORE.INTRA.SOLV.lig_0>
-12.9184

>  <SCORE.INTRA.VDW>
0

>  <SCORE.INTRA.VDW.0>
0

>  <SCORE.INTRA.norm>
0

>  <SCORE.RESTR>
0.0468698

>  <SCORE.RESTR.CAVITY>
0.0468698

>  <SCORE.RESTR.norm>
0.00360537

>  <SCORE.SYSTEM>
0

>  <SCORE.SYSTEM.CONST>
0

>  <SCORE.SYSTEM.DIHEDRAL>
0

>  <SCORE.SYSTEM.SOLV>
0

>  <SCORE.SYSTEM.norm>
0

>  <SCORE.heavy>
13

>  <SCORE.norm>
-1.74018

>  <RMSD>
3.591

$$$$
1o15_lig
 OpenBabel11021811403D
libRbt.so/2013.1/901 2013/11/27
 13 14  0  0  0  0  0  0  0  0999 V2000
    9.9397    5.7028   37.6426 C   0  0  0  0  0  0  0  0  0  0  0  0
    9.5189    4.6809   36.8203 N   0  0  0  0  0  0  0  0  0  0  0  0
    9.1601    3.5071   37.4034 C   0  0  0  0  0  0  0  0  0  0  0  0
    9.2508    3.4657   38.6278 O   0  0  0  0  0  0  0  0  0  0  0  0
    8.3682    1.2229   37.3443 C   0  0  0  0  0  0  0  0  0  0  0  0
    8.7228    2.4030   36.7263 N   0  0  0  0  0  0  0  0  0  0  0  0
    8.6730    2.5899   35.3796 C   0  0  0  0  0  0  0  0  0  0  0  0
    9.0338    3.7746   34.8061 C   0  0  0  0  0  0  0  0  0  0  0  0
    9.4857    4.9168   35.4930 C   0  0  0  0  0  0  0  0  0  0  0  0
    9.8240    6.0074   35.0402 O   0  0  0  0  0  0  0  0  0  0  0  0
    8.8597    3.6018   33.4405 N   0  0  0  0  0  0  0  0  0  0  0  0
    8.4075    2.3329   33.2820 C   0  0  0  0  0  0  0  0  0  0  0  0
    8.2775    1.6797   34.4051 N   0  0  0  0  0  0  0  0  0  0  0  0
  1  2  1  0  0  0  0
  2  3  1  0  0  0  0
  2  9  1  0  0  0  0
  3  4  2  0  0  0  0
  3  6  1  0  0  0  0
  6  5  1  0  0  0  0
  6  7  1  0  0  0  0
  7  8  2  0  0  0  0
  7 13  1  0  0  0  0
  8  9  1  0  0  0  0
  8 11  1  0  0  0  0
  9 10  2  0  0  0  0
 11 12  1  0  0  0  0
 12 13  2  0  0  0  0
M  END
>  <CHROM.1>
9.05379253,3.55909252,35.91881083,-0.79200625,-1.22935976,-1.33048346

>  <Name>
1o15_lig

>  <RI>
0

>  <Rbt.Current_Directory>
/home/itssahil/PROJECTS/Mol_Feturizer/New_Systems/rnas/1o15

>  <Rbt.Executable>
rbdock ($Id: //depot/dev/client3/rdock/2013.1/src/exe/rbdock.cxx#4 $)

>  <Rbt.Library>
libRbt.so (2013.1, Build901 2013/11/27)

>  <Rbt.Parameter_File>
/export/apps/rDock/src/rDock_2013.1_src/data/scripts/dock_solv.prm

>  <Rbt.Receptor>
prm/blind_docking_60.prm

>  <SCORE>
-22.6137

>  <SCORE.INTER>
-22.6542

>  <SCORE.INTER.CONST>
1

>  <SCORE.INTER.POLAR>
-1.19112

>  <SCORE.INTER.ROT>
0

>  <SCORE.INTER.SOLV>
9.49575

>  <SCORE.INTER.VDW>
-17.8976

>  <SCORE.INTER.norm>
-1.74263

>  <SCORE.INTRA>
0

>  <SCORE.INTRA.DIHEDRAL>
0

>  <SCORE.INTRA.DIHEDRAL.0>
0

>  <SCORE.INTRA.POLAR>
0

>  <SCORE.INTRA.POLAR.0>
0

>  <SCORE.INTRA.REPUL>
0

>  <SCORE.INTRA.REPUL.0>
0

>  <SCORE.INTRA.SOLV>
0

>  <SCORE.INTRA.SOLV.lig_0>
-12.9184

>  <SCORE.INTRA.VDW>
0

>  <SCORE.INTRA.VDW.0>
0

>  <SCORE.INTRA.norm>
0

>  <SCORE.RESTR>
0.0405209

>  <SCORE.RESTR.CAVITY>
0.0405209

>  <SCORE.RESTR.norm>
0.003117

>  <SCORE.SYSTEM>
0

>  <SCORE.SYSTEM.CONST>
0

>  <SCORE.SYSTEM.DIHEDRAL>
0

>  <SCORE.SYSTEM.SOLV>
0

>  <SCORE.SYSTEM.norm>
0

>  <SCORE.heavy>
13

>  <SCORE.norm>
-1.73951

>  <RMSD>
3.591

$$$$
1o15_lig
 OpenBabel11021811403D
libRbt.so/2013.1/901 2013/11/27
 13 14  0  0  0  0  0  0  0  0999 V2000
    9.9339    5.7014   37.6433 C   0  0  0  0  0  0  0  0  0  0  0  0
    9.5094    4.6819   36.8199 N   0  0  0  0  0  0  0  0  0  0  0  0
    9.1429    3.5100   37.4020 C   0  0  0  0  0  0  0  0  0  0  0  0
    9.2307    3.4679   38.6265 O   0  0  0  0  0  0  0  0  0  0  0  0
    8.3387    1.2301   37.3407 C   0  0  0  0  0  0  0  0  0  0  0  0
    8.7011    2.4084   36.7237 N   0  0  0  0  0  0  0  0  0  0  0  0
    8.6554    2.5958   35.3769 C   0  0  0  0  0  0  0  0  0  0  0  0
    9.0239    3.7787   34.8045 C   0  0  0  0  0  0  0  0  0  0  0  0
    9.4804    4.9182   35.4926 C   0  0  0  0  0  0  0  0  0  0  0  0
    9.8257    6.0070   35.0407 O   0  0  0  0  0  0  0  0  0  0  0  0
    8.8519    3.6070   33.4384 N   0  0  0  0  0  0  0  0  0  0  0  0
    8.3932    2.3406   33.2787 C   0  0  0  0  0  0  0  0  0  0  0  0
    8.2570    1.6880   34.4013 N   0  0  0  0  0  0  0  0  0  0  0  0
  1  2  1  0  0  0  0
  2  3  1  0  0  0  0
  2  9  1  0  0  0  0
  3  4  2  0  0  0  0
  3  6  1  0  0  0  0
  6  5  1  0  0  0  0
  6  7  1  0  0  0  0
  7  8  2  0  0  0  0
  7 13  1  0  0  0  0
  8  9  1  0  0  0  0
  8 11  1  0  0  0  0
  9 10  2  0  0  0  0
 11 12  1  0  0  0  0
 12 13  2  0  0  0  0
M  END
>  <CHROM.1>
9.04020344,3.56280635,35.91716556,-0.80226069,-1.22457692,-1.33995720

>  <Name>
1o15_lig

>  <RI>
0

>  <Rbt.Current_Directory>
/home/itssahil/PROJECTS/Mol_Feturizer/New_Systems/rnas/1o15

>  <Rbt.Executable>
rbdock ($Id: //depot/dev/client3/rdock/2013.1/src/exe/rbdock.cxx#4 $)

>  <Rbt.Library>
libRbt.so (2013.1, Build901 2013/11/27)

>  <Rbt.Parameter_File>
/export/apps/rDock/src/rDock_2013.1_src/data/scripts/dock_solv.prm

>  <Rbt.Receptor>
prm/blind_docking_60.prm

>  <SCORE>
-22.5922

>  <SCORE.INTER>
-22.6167

>  <SCORE.INTER.CONST>
1

>  <SCORE.INTER.POLAR>
-1.18699

>  <SCORE.INTER.ROT>
0

>  <SCORE.INTER.SOLV>
9.52707

>  <SCORE.INTER.VDW>
-17.8969

>  <SCORE.INTER.norm>
-1.73975

>  <SCORE.INTRA>
0

>  <SCORE.INTRA.DIHEDRAL>
0

>  <SCORE.INTRA.DIHEDRAL.0>
0

>  <SCORE.INTRA.POLAR>
0

>  <SCORE.INTRA.POLAR.0>
0

>  <SCORE.INTRA.REPUL>
0

>  <SCORE.INTRA.REPUL.0>
0

>  <SCORE.INTRA.SOLV>
0

>  <SCORE.INTRA.SOLV.lig_0>
-12.9184

>  <SCORE.INTRA.VDW>
0

>  <SCORE.INTRA.VDW.0>
0

>  <SCORE.INTRA.norm>
0

>  <SCORE.RESTR>
0.0245491

>  <SCORE.RESTR.CAVITY>
0.0245491

>  <SCORE.RESTR.norm>
0.00188839

>  <SCORE.SYSTEM>
0

>  <SCORE.SYSTEM.CONST>
0

>  <SCORE.SYSTEM.DIHEDRAL>
0

>  <SCORE.SYSTEM.SOLV>
0

>  <SCORE.SYSTEM.norm>
0

>  <SCORE.heavy>
13

>  <SCORE.norm>
-1.73786

>  <RMSD>
3.594

$$$$
1o15_lig
 OpenBabel11021811403D
libRbt.so/2013.1/901 2013/11/27
 13 14  0  0  0  0  0  0  0  0999 V2000
    9.9411    5.7521   37.6200 C   0  0  0  0  0  0  0  0  0  0  0  0
    9.5181    4.7207   36.8108 N   0  0  0  0  0  0  0  0  0  0  0  0
    9.1525    3.5568   37.4093 C   0  0  0  0  0  0  0  0  0  0  0  0
    9.2396    3.5321   38.6343 O   0  0  0  0  0  0  0  0  0  0  0  0
    8.3505    1.2755   37.3798 C   0  0  0  0  0  0  0  0  0  0  0  0
    8.7121    2.4453   36.7464 N   0  0  0  0  0  0  0  0  0  0  0  0
    8.6669    2.6136   35.3970 C   0  0  0  0  0  0  0  0  0  0  0  0
    9.0345    3.7886   34.8081 C   0  0  0  0  0  0  0  0  0  0  0  0
    9.4896    4.9382   35.4803 C   0  0  0  0  0  0  0  0  0  0  0  0
    9.8340    6.0208   35.0133 O   0  0  0  0  0  0  0  0  0  0  0  0
    8.8634    3.5975   33.4446 N   0  0  0  0  0  0  0  0  0  0  0  0
    8.4060    2.3285   33.3026 C   0  0  0  0  0  0  0  0  0  0  0  0
    8.2699    1.6917   34.4342 N   0  0  0  0  0  0  0  0  0  0  0  0
  1  2  1  0  0  0  0
  2  3  1  0  0  0  0
  2  9  1  0  0  0  0
  3  4  2  0  0  0  0
  3  6  1  0  0  0  0
  6  5  1  0  0  0  0
  6  7  1  0  0  0  0
  7  8  2  0  0  0  0
  7 13  1  0  0  0  0
  8  9  1  0  0  0  0
  8 11  1  0  0  0  0
  9 10  2  0  0  0  0
 11 12  1  0  0  0  0
 12 13  2  0  0  0  0
M  END
>  <CHROM.1>
9.05045153,3.58850803,35.92379299,-0.80310721,-1.22565669,-1.35488996

>  <Name>
1o15_lig

>  <RI>
0

>  <Rbt.Current_Directory>
/home/itssahil/PROJECTS/Mol_Feturizer/New_Systems/rnas/1o15

>  <Rbt.Executable>
rbdock ($Id: //depot/dev/client3/rdock/2013.1/src/exe/rbdock.cxx#4 $)

>  <Rbt.Library>
libRbt.so (2013.1, Build901 2013/11/27)

>  <Rbt.Parameter_File>
/export/apps/rDock/src/rDock_2013.1_src/data/scripts/dock_solv.prm

>  <Rbt.Receptor>
prm/blind_docking_60.prm

>  <SCORE>
-22.4784

>  <SCORE.INTER>
-22.4979

>  <SCORE.INTER.CONST>
1

>  <SCORE.INTER.POLAR>
-1.21087

>  <SCORE.INTER.ROT>
0

>  <SCORE.INTER.SOLV>
9.5631

>  <SCORE.INTER.VDW>
-17.7501

>  <SCORE.INTER.norm>
-1.73061

>  <SCORE.INTRA>
0

>  <SCORE.INTRA.DIHEDRAL>
0

>  <SCORE.INTRA.DIHEDRAL.0>
0

>  <SCORE.INTRA.POLAR>
0

>  <SCORE.INTRA.POLAR.0>
0

>  <SCORE.INTRA.REPUL>
0

>  <SCORE.INTRA.REPUL.0>
0

>  <SCORE.INTRA.SOLV>
0

>  <SCORE.INTRA.SOLV.lig_0>
-12.9184

>  <SCORE.INTRA.VDW>
0

>  <SCORE.INTRA.VDW.0>
0

>  <SCORE.INTRA.norm>
0

>  <SCORE.RESTR>
0.0195326

>  <SCORE.RESTR.CAVITY>
0.0195326

>  <SCORE.RESTR.norm>
0.00150251

>  <SCORE.SYSTEM>
0

>  <SCORE.SYSTEM.CONST>
0

>  <SCORE.SYSTEM.DIHEDRAL>
0

>  <SCORE.SYSTEM.SOLV>
0

>  <SCORE.SYSTEM.norm>
0

>  <SCORE.heavy>
13

>  <SCORE.norm>
-1.72911

>  <RMSD>
3.597

$$$$
1o15_lig
 OpenBabel11021811403D
libRbt.so/2013.1/901 2013/11/27
 13 14  0  0  0  0  0  0  0  0999 V2000
    7.4287    4.5127   35.3964 C   0  0  0  0  0  0  0  0  0  0  0  0
    8.5207    4.2373   36.1895 N   0  0  0  0  0  0  0  0  0  0  0  0
    8.5800    3.0155   36.7816 C   0  0  0  0  0  0  0  0  0  0  0  0
    7.6371    2.2619   36.5539 O   0  0  0  0  0  0  0  0  0  0  0  0
    9.6272    1.3474   38.1849 C   0  0  0  0  0  0  0  0  0  0  0  0
    9.5946    2.5927   37.5944 N   0  0  0  0  0  0  0  0  0  0  0  0
   10.5690    3.5278   37.7594 C   0  0  0  0  0  0  0  0  0  0  0  0
   10.4990    4.7505   37.1573 C   0  0  0  0  0  0  0  0  0  0  0  0
    9.4597    5.1963   36.3196 C   0  0  0  0  0  0  0  0  0  0  0  0
    9.3364    6.2775   35.7498 O   0  0  0  0  0  0  0  0  0  0  0  0
   11.6450    5.4292   37.5460 N   0  0  0  0  0  0  0  0  0  0  0  0
   12.3262    4.5760   38.3507 C   0  0  0  0  0  0  0  0  0  0  0  0
   11.7317    3.4253   38.5158 N   0  0  0  0  0  0  0  0  0  0  0  0
  1  2  1  0  0  0  0
  2  3  1  0  0  0  0
  2  9  1  0  0  0  0
  3  4  2  0  0  0  0
  3  6  1  0  0  0  0
  6  5  1  0  0  0  0
  6  7  1  0  0  0  0
  7  8  2  0  0  0  0
  7 13  1  0  0  0  0
  8  9  1  0  0  0  0
  8 11  1  0  0  0  0
  9 10  2  0  0  0  0
 11 12  1  0  0  0  0
 12 13  2  0  0  0  0
M  END
>  <CHROM.1>
9.72067434,3.93235009,37.05816231,-3.08341779,0.50582681,2.71223248

>  <Name>
1o15_lig

>  <RI>
0

>  <Rbt.Current_Directory>
/home/itssahil/PROJECTS/Mol_Feturizer/New_Systems/rnas/1o15

>  <Rbt.Executable>
rbdock ($Id: //depot/dev/client3/rdock/2013.1/src/exe/rbdock.cxx#4 $)

>  <Rbt.Library>
libRbt.so (2013.1, Build901 2013/11/27)

>  <Rbt.Parameter_File>
/export/apps/rDock/src/rDock_2013.1_src/data/scripts/dock_solv.prm

>  <Rbt.Receptor>
prm/pocket_docking_5.prm

>  <SCORE>
-23.8628

>  <SCORE.INTER>
-23.8628

>  <SCORE.INTER.CONST>
1

>  <SCORE.INTER.POLAR>
-2.03961

>  <SCORE.INTER.ROT>
0

>  <SCORE.INTER.SOLV>
6.36516

>  <SCORE.INTER.VDW>
-14.8315

>  <SCORE.INTER.norm>
-1.8356

>  <SCORE.INTRA>
0

>  <SCORE.INTRA.DIHEDRAL>
0

>  <SCORE.INTRA.DIHEDRAL.0>
0

>  <SCORE.INTRA.POLAR>
0

>  <SCORE.INTRA.POLAR.0>
0

>  <SCORE.INTRA.REPUL>
0

>  <SCORE.INTRA.REPUL.0>
0

>  <SCORE.INTRA.SOLV>
0

>  <SCORE.INTRA.SOLV.lig_0>
-12.9184

>  <SCORE.INTRA.VDW>
0

>  <SCORE.INTRA.VDW.0>
0

>  <SCORE.INTRA.norm>
0

>  <SCORE.RESTR>
0

>  <SCORE.RESTR.CAVITY>
0

>  <SCORE.RESTR.norm>
0

>  <SCORE.SYSTEM>
0

>  <SCORE.SYSTEM.CONST>
0

>  <SCORE.SYSTEM.DIHEDRAL>
0

>  <SCORE.SYSTEM.SOLV>
0

>  <SCORE.SYSTEM.norm>
0

>  <SCORE.heavy>
13

>  <SCORE.norm>
-1.8356

>  <RMSD>
3.748

$$$$
1o15_lig
 OpenBabel11021811403D
libRbt.so/2013.1/901 2013/11/27
 13 14  0  0  0  0  0  0  0  0999 V2000
    7.4247    4.5071   35.4136 C   0  0  0  0  0  0  0  0  0  0  0  0
    8.5256    4.2238   36.1914 N   0  0  0  0  0  0  0  0  0  0  0  0
    8.5922    2.9958   36.7696 C   0  0  0  0  0  0  0  0  0  0  0  0
    7.6471    2.2441   36.5444 O   0  0  0  0  0  0  0  0  0  0  0  0
    9.6558    1.3133   38.1431 C   0  0  0  0  0  0  0  0  0  0  0  0
    9.6160    2.5649   37.5664 N   0  0  0  0  0  0  0  0  0  0  0  0
   10.5917    3.4987   37.7305 C   0  0  0  0  0  0  0  0  0  0  0  0
   10.5144    4.7278   37.1424 C   0  0  0  0  0  0  0  0  0  0  0  0
    9.4656    5.1819   36.3212 C   0  0  0  0  0  0  0  0  0  0  0  0
    9.3354    6.2691   35.7644 O   0  0  0  0  0  0  0  0  0  0  0  0
   11.6644    5.4029   37.5254 N   0  0  0  0  0  0  0  0  0  0  0  0
   12.3550    4.5415   38.3132 C   0  0  0  0  0  0  0  0  0  0  0  0
   11.7629    3.3888   38.4726 N   0  0  0  0  0  0  0  0  0  0  0  0
  1  2  1  0  0  0  0
  2  3  1  0  0  0  0
  2  9  1  0  0  0  0
  3  4  2  0  0  0  0
  3  6  1  0  0  0  0
  6  5  1  0  0  0  0
  6  7  1  0  0  0  0
  7  8  2  0  0  0  0
  7 13  1  0  0  0  0
  8  9  1  0  0  0  0
  8 11  1  0  0  0  0
  9 10  2  0  0  0  0
 11 12  1  0  0  0  0
 12 13  2  0  0  0  0
M  END
>  <CHROM.1>
9.73543095,3.91025210,37.04317192,-3.08920520,0.49580306,2.72574729

>  <Name>
1o15_lig

>  <RI>
0

>  <Rbt.Current_Directory>
/home/itssahil/PROJECTS/Mol_Feturizer/New_Systems/rnas/1o15

>  <Rbt.Executable>
rbdock ($Id: //depot/dev/client3/rdock/2013.1/src/exe/rbdock.cxx#4 $)

>  <Rbt.Library>
libRbt.so (2013.1, Build901 2013/11/27)

>  <Rbt.Parameter_File>
/export/apps/rDock/src/rDock_2013.1_src/data/scripts/dock_solv.prm

>  <Rbt.Receptor>
prm/pocket_docking_8.prm

>  <SCORE>
-23.9307

>  <SCORE.INTER>
-23.9307

>  <SCORE.INTER.CONST>
1

>  <SCORE.INTER.POLAR>
-2.0394

>  <SCORE.INTER.ROT>
0

>  <SCORE.INTER.SOLV>
6.36108

>  <SCORE.INTER.VDW>
-14.8761

>  <SCORE.INTER.norm>
-1.84082

>  <SCORE.INTRA>
0

>  <SCORE.INTRA.DIHEDRAL>
0

>  <SCORE.INTRA.DIHEDRAL.0>
0

>  <SCORE.INTRA.POLAR>
0

>  <SCORE.INTRA.POLAR.0>
0

>  <SCORE.INTRA.REPUL>
0

>  <SCORE.INTRA.REPUL.0>
0

>  <SCORE.INTRA.SOLV>
0

>  <SCORE.INTRA.SOLV.lig_0>
-12.9184

>  <SCORE.INTRA.VDW>
0

>  <SCORE.INTRA.VDW.0>
0

>  <SCORE.INTRA.norm>
0

>  <SCORE.RESTR>
0

>  <SCORE.RESTR.CAVITY>
0

>  <SCORE.RESTR.norm>
0

>  <SCORE.SYSTEM>
0

>  <SCORE.SYSTEM.CONST>
0

>  <SCORE.SYSTEM.DIHEDRAL>
0

>  <SCORE.SYSTEM.SOLV>
0

>  <SCORE.SYSTEM.norm>
0

>  <SCORE.heavy>
13

>  <SCORE.norm>
-1.84082

>  <RMSD>
3.749

$$$$
1o15_lig
 OpenBabel11021811403D
libRbt.so/2013.1/901 2013/11/27
 13 14  0  0  0  0  0  0  0  0999 V2000
   10.6569    5.6544   38.7282 C   0  0  0  0  0  0  0  0  0  0  0  0
    9.9054    4.6475   38.1636 N   0  0  0  0  0  0  0  0  0  0  0  0
    9.1503    4.9556   37.0766 C   0  0  0  0  0  0  0  0  0  0  0  0
    9.2062    6.1225   36.6969 O   0  0  0  0  0  0  0  0  0  0  0  0
    7.5946    4.4117   35.3068 C   0  0  0  0  0  0  0  0  0  0  0  0
    8.3533    4.0703   36.4059 N   0  0  0  0  0  0  0  0  0  0  0  0
    8.3872    2.8173   36.9352 C   0  0  0  0  0  0  0  0  0  0  0  0
    9.1517    2.5199   38.0258 C   0  0  0  0  0  0  0  0  0  0  0  0
    9.9749    3.4229   38.7239 C   0  0  0  0  0  0  0  0  0  0  0  0
   10.6839    3.2212   39.7065 O   0  0  0  0  0  0  0  0  0  0  0  0
    8.9393    1.1725   38.2800 N   0  0  0  0  0  0  0  0  0  0  0  0
    8.0672    0.7493   37.3314 C   0  0  0  0  0  0  0  0  0  0  0  0
    7.7012    1.6880   36.5009 N   0  0  0  0  0  0  0  0  0  0  0  0
  1  2  1  0  0  0  0
  2  3  1  0  0  0  0
  2  9  1  0  0  0  0
  3  4  2  0  0  0  0
  3  6  1  0  0  0  0
  6  5  1  0  0  0  0
  6  7  1  0  0  0  0
  7  8  2  0  0  0  0
  7 13  1  0  0  0  0
  8  9  1  0  0  0  0
  8 11  1  0  0  0  0
  9 10  2  0  0  0  0
 11 12  1  0  0  0  0
 12 13  2  0  0  0  0
M  END
>  <CHROM.1>
9.08221268,3.54205147,37.54073866,-0.93911099,0.87125573,2.77114173

>  <Name>
1o15_lig

>  <RI>
0

>  <Rbt.Current_Directory>
/home/itssahil/PROJECTS/Mol_Feturizer/New_Systems/rnas/1o15

>  <Rbt.Executable>
rbdock ($Id: //depot/dev/client3/rdock/2013.1/src/exe/rbdock.cxx#4 $)

>  <Rbt.Library>
libRbt.so (2013.1, Build901 2013/11/27)

>  <Rbt.Parameter_File>
/export/apps/rDock/src/rDock_2013.1_src/data/scripts/dock_solv.prm

>  <Rbt.Receptor>
prm/pocket_docking_6.prm

>  <SCORE>
-20.7344

>  <SCORE.INTER>
-20.7344

>  <SCORE.INTER.CONST>
1

>  <SCORE.INTER.POLAR>
-1.0198

>  <SCORE.INTER.ROT>
0

>  <SCORE.INTER.SOLV>
6.32588

>  <SCORE.INTER.VDW>
-16.1322

>  <SCORE.INTER.norm>
-1.59495

>  <SCORE.INTRA>
0

>  <SCORE.INTRA.DIHEDRAL>
0

>  <SCORE.INTRA.DIHEDRAL.0>
0

>  <SCORE.INTRA.POLAR>
0

>  <SCORE.INTRA.POLAR.0>
0

>  <SCORE.INTRA.REPUL>
0

>  <SCORE.INTRA.REPUL.0>
0

>  <SCORE.INTRA.SOLV>
0

>  <SCORE.INTRA.SOLV.lig_0>
-12.9184

>  <SCORE.INTRA.VDW>
0

>  <SCORE.INTRA.VDW.0>
0

>  <SCORE.INTRA.norm>
0

>  <SCORE.RESTR>
0

>  <SCORE.RESTR.CAVITY>
0

>  <SCORE.RESTR.norm>
0

>  <SCORE.SYSTEM>
0

>  <SCORE.SYSTEM.CONST>
0

>  <SCORE.SYSTEM.DIHEDRAL>
0

>  <SCORE.SYSTEM.SOLV>
0

>  <SCORE.SYSTEM.norm>
0

>  <SCORE.heavy>
13

>  <SCORE.norm>
-1.59495

>  <RMSD>
3.991

$$$$
1o15_lig
 OpenBabel11021811403D
libRbt.so/2013.1/901 2013/11/27
 13 14  0  0  0  0  0  0  0  0999 V2000
    8.7391   -4.7316   35.5311 C   0  0  0  0  0  0  0  0  0  0  0  0
    8.9097   -3.3953   35.8185 N   0  0  0  0  0  0  0  0  0  0  0  0
    9.8074   -2.6980   35.0738 C   0  0  0  0  0  0  0  0  0  0  0  0
   10.3948   -3.3362   34.2041 O   0  0  0  0  0  0  0  0  0  0  0  0
   11.0077   -0.6882   34.4669 C   0  0  0  0  0  0  0  0  0  0  0  0
   10.0887   -1.3700   35.2357 N   0  0  0  0  0  0  0  0  0  0  0  0
    9.3672   -0.7911   36.2333 C   0  0  0  0  0  0  0  0  0  0  0  0
    8.4667   -1.5017   36.9726 C   0  0  0  0  0  0  0  0  0  0  0  0
    8.1697   -2.8683   36.8151 C   0  0  0  0  0  0  0  0  0  0  0  0
    7.3754   -3.5638   37.4429 O   0  0  0  0  0  0  0  0  0  0  0  0
    7.9305   -0.6016   37.8821 N   0  0  0  0  0  0  0  0  0  0  0  0
    8.5385    0.5847   37.6321 C   0  0  0  0  0  0  0  0  0  0  0  0
    9.4073    0.5325   36.6588 N   0  0  0  0  0  0  0  0  0  0  0  0
  1  2  1  0  0  0  0
  2  3  1  0  0  0  0
  2  9  1  0  0  0  0
  3  4  2  0  0  0  0
  3  6  1  0  0  0  0
  6  5  1  0  0  0  0
  6  7  1  0  0  0  0
  7  8  2  0  0  0  0
  7 13  1  0  0  0  0
  8  9  1  0  0  0  0
  8 11  1  0  0  0  0
  9 10  2  0  0  0  0
 11 12  1  0  0  0  0
 12 13  2  0  0  0  0
M  END
>  <CHROM.1>
9.09563702,-1.92719039,36.13089737,1.37204754,-0.80338861,-2.80158389

>  <Name>
1o15_lig

>  <RI>
0

>  <Rbt.Current_Directory>
/home/itssahil/PROJECTS/Mol_Feturizer/New_Systems/rnas/1o15

>  <Rbt.Executable>
rbdock ($Id: //depot/dev/client3/rdock/2013.1/src/exe/rbdock.cxx#4 $)

>  <Rbt.Library>
libRbt.so (2013.1, Build901 2013/11/27)

>  <Rbt.Parameter_File>
/export/apps/rDock/src/rDock_2013.1_src/data/scripts/dock_solv.prm

>  <Rbt.Receptor>
prm/pocket_docking_8.prm

>  <SCORE>
-11.8525

>  <SCORE.INTER>
-11.8525

>  <SCORE.INTER.CONST>
1

>  <SCORE.INTER.POLAR>
-0.916515

>  <SCORE.INTER.ROT>
0

>  <SCORE.INTER.SOLV>
4.94538

>  <SCORE.INTER.VDW>
-10.0951

>  <SCORE.INTER.norm>
-0.911728

>  <SCORE.INTRA>
0

>  <SCORE.INTRA.DIHEDRAL>
0

>  <SCORE.INTRA.DIHEDRAL.0>
0

>  <SCORE.INTRA.POLAR>
0

>  <SCORE.INTRA.POLAR.0>
0

>  <SCORE.INTRA.REPUL>
0

>  <SCORE.INTRA.REPUL.0>
0

>  <SCORE.INTRA.SOLV>
0

>  <SCORE.INTRA.SOLV.lig_0>
-12.9184

>  <SCORE.INTRA.VDW>
0

>  <SCORE.INTRA.VDW.0>
0

>  <SCORE.INTRA.norm>
0

>  <SCORE.RESTR>
0

>  <SCORE.RESTR.CAVITY>
0

>  <SCORE.RESTR.norm>
0

>  <SCORE.SYSTEM>
0

>  <SCORE.SYSTEM.CONST>
0

>  <SCORE.SYSTEM.DIHEDRAL>
0

>  <SCORE.SYSTEM.SOLV>
0

>  <SCORE.SYSTEM.norm>
0

>  <SCORE.heavy>
13

>  <SCORE.norm>
-0.911728

>  <RMSD>
5.660

$$$$
1o15_lig
 OpenBabel11021811403D
libRbt.so/2013.1/901 2013/11/27
 13 14  0  0  0  0  0  0  0  0999 V2000
   -2.5428   -0.1775   39.2945 C   0  0  0  0  0  0  0  0  0  0  0  0
   -1.5227    0.7480   39.3074 N   0  0  0  0  0  0  0  0  0  0  0  0
   -1.5444    1.6994   40.2775 C   0  0  0  0  0  0  0  0  0  0  0  0
   -2.4890    1.6464   41.0609 O   0  0  0  0  0  0  0  0  0  0  0  0
   -0.6562    3.6392   41.4162 C   0  0  0  0  0  0  0  0  0  0  0  0
   -0.6073    2.6840   40.4234 N   0  0  0  0  0  0  0  0  0  0  0  0
    0.3788    2.6229   39.4880 C   0  0  0  0  0  0  0  0  0  0  0  0
    0.3906    1.6608   38.5202 C   0  0  0  0  0  0  0  0  0  0  0  0
   -0.5685    0.6434   38.3603 C   0  0  0  0  0  0  0  0  0  0  0  0
   -0.6164   -0.2477   37.5162 O   0  0  0  0  0  0  0  0  0  0  0  0
    1.5233    1.9062   37.7573 N   0  0  0  0  0  0  0  0  0  0  0  0
    2.1161    2.9924   38.3127 C   0  0  0  0  0  0  0  0  0  0  0  0
    1.4772    3.4647   39.3488 N   0  0  0  0  0  0  0  0  0  0  0  0
  1  2  1  0  0  0  0
  2  3  1  0  0  0  0
  2  9  1  0  0  0  0
  3  4  2  0  0  0  0
  3  6  1  0  0  0  0
  6  5  1  0  0  0  0
  6  7  1  0  0  0  0
  7  8  2  0  0  0  0
  7 13  1  0  0  0  0
  8  9  1  0  0  0  0
  8 11  1  0  0  0  0
  9 10  2  0  0  0  0
 11 12  1  0  0  0  0
 12 13  2  0  0  0  0
M  END
>  <CHROM.1>
-0.40156563,1.76306246,39.32450069,-3.01446911,0.56167420,0.78265975

>  <Name>
1o15_lig

>  <RI>
224

>  <Rbt.Current_Directory>
/home/itssahil/PROJECTS/Mol_Feturizer/New_Systems/rnas/1o15

>  <Rbt.Executable>
rbdock ($Id: //depot/dev/client3/rdock/2013.1/src/exe/rbdock.cxx#4 $)

>  <Rbt.Library>
libRbt.so (2013.1, Build901 2013/11/27)

>  <Rbt.Parameter_File>
/export/apps/rDock/src/rDock_2013.1_src/data/scripts/dock_solv.prm

>  <Rbt.Receptor>
prm/blind_docking_100.prm

>  <SCORE>
-15.3978

>  <SCORE.INTER>
-16.1589

>  <SCORE.INTER.CONST>
1

>  <SCORE.INTER.POLAR>
-1.51173

>  <SCORE.INTER.ROT>
0

>  <SCORE.INTER.SOLV>
5.15792

>  <SCORE.INTER.VDW>
-11.0528

>  <SCORE.INTER.norm>
-1.243

>  <SCORE.INTRA>
0

>  <SCORE.INTRA.DIHEDRAL>
0

>  <SCORE.INTRA.DIHEDRAL.0>
0

>  <SCORE.INTRA.POLAR>
0

>  <SCORE.INTRA.POLAR.0>
0

>  <SCORE.INTRA.REPUL>
0

>  <SCORE.INTRA.REPUL.0>
0

>  <SCORE.INTRA.SOLV>
0

>  <SCORE.INTRA.SOLV.lig_0>
-12.9184

>  <SCORE.INTRA.VDW>
0

>  <SCORE.INTRA.VDW.0>
0

>  <SCORE.INTRA.norm>
0

>  <SCORE.RESTR>
0.761147

>  <SCORE.RESTR.CAVITY>
0.761147

>  <SCORE.RESTR.norm>
0.0585498

>  <SCORE.SYSTEM>
0

>  <SCORE.SYSTEM.CONST>
0

>  <SCORE.SYSTEM.DIHEDRAL>
0

>  <SCORE.SYSTEM.SOLV>
0

>  <SCORE.SYSTEM.norm>
0

>  <SCORE.heavy>
13

>  <SCORE.norm>
-1.18445

>  <RMSD>
10.502

$$$$
1o15_lig
 OpenBabel11021811403D
libRbt.so/2013.1/901 2013/11/27
 13 14  0  0  0  0  0  0  0  0999 V2000
   -0.9708   -4.6629   37.5949 C   0  0  0  0  0  0  0  0  0  0  0  0
   -1.4297   -3.3915   37.3300 N   0  0  0  0  0  0  0  0  0  0  0  0
   -2.7277   -3.1142   37.6219 C   0  0  0  0  0  0  0  0  0  0  0  0
   -3.3808   -4.0394   38.0975 O   0  0  0  0  0  0  0  0  0  0  0  0
   -4.6511   -1.6516   37.7211 C   0  0  0  0  0  0  0  0  0  0  0  0
   -3.3301   -1.9041   37.4182 N   0  0  0  0  0  0  0  0  0  0  0  0
   -2.4907   -0.9747   36.8864 C   0  0  0  0  0  0  0  0  0  0  0  0
   -1.1884   -1.2649   36.5999 C   0  0  0  0  0  0  0  0  0  0  0  0
   -0.5583   -2.5065   36.8049 C   0  0  0  0  0  0  0  0  0  0  0  0
    0.6027   -2.8319   36.5703 O   0  0  0  0  0  0  0  0  0  0  0  0
   -0.6471   -0.0983   36.0790 N   0  0  0  0  0  0  0  0  0  0  0  0
   -1.6522    0.8124   36.0868 C   0  0  0  0  0  0  0  0  0  0  0  0
   -2.7774    0.3459   36.5570 N   0  0  0  0  0  0  0  0  0  0  0  0
  1  2  1  0  0  0  0
  2  3  1  0  0  0  0
  2  9  1  0  0  0  0
  3  4  2  0  0  0  0
  3  6  1  0  0  0  0
  6  5  1  0  0  0  0
  6  7  1  0  0  0  0
  7  8  2  0  0  0  0
  7 13  1  0  0  0  0
  8  9  1  0  0  0  0
  8 11  1  0  0  0  0
  9 10  2  0  0  0  0
 11 12  1  0  0  0  0
 12 13  2  0  0  0  0
M  END
>  <CHROM.1>
-1.93412828,-1.99486793,37.04259040,-1.59513173,0.26933136,-0.30193384

>  <Name>
1o15_lig

>  <RI>
224

>  <Rbt.Current_Directory>
/home/itssahil/PROJECTS/Mol_Feturizer/New_Systems/rnas/1o15

>  <Rbt.Executable>
rbdock ($Id: //depot/dev/client3/rdock/2013.1/src/exe/rbdock.cxx#4 $)

>  <Rbt.Library>
libRbt.so (2013.1, Build901 2013/11/27)

>  <Rbt.Parameter_File>
/export/apps/rDock/src/rDock_2013.1_src/data/scripts/dock_solv.prm

>  <Rbt.Receptor>
prm/blind_docking_100.prm

>  <SCORE>
-10.8551

>  <SCORE.INTER>
-10.9207

>  <SCORE.INTER.CONST>
1

>  <SCORE.INTER.POLAR>
-0.823245

>  <SCORE.INTER.ROT>
0

>  <SCORE.INTER.SOLV>
4.75475

>  <SCORE.INTER.VDW>
-9.72126

>  <SCORE.INTER.norm>
-0.840057

>  <SCORE.INTRA>
0

>  <SCORE.INTRA.DIHEDRAL>
0

>  <SCORE.INTRA.DIHEDRAL.0>
0

>  <SCORE.INTRA.POLAR>
0

>  <SCORE.INTRA.POLAR.0>
0

>  <SCORE.INTRA.REPUL>
0

>  <SCORE.INTRA.REPUL.0>
0

>  <SCORE.INTRA.SOLV>
0

>  <SCORE.INTRA.SOLV.lig_0>
-12.9184

>  <SCORE.INTRA.VDW>
0

>  <SCORE.INTRA.VDW.0>
0

>  <SCORE.INTRA.norm>
0

>  <SCORE.RESTR>
0.0656478

>  <SCORE.RESTR.CAVITY>
0.0656478

>  <SCORE.RESTR.norm>
0.00504983

>  <SCORE.SYSTEM>
0

>  <SCORE.SYSTEM.CONST>
0

>  <SCORE.SYSTEM.DIHEDRAL>
0

>  <SCORE.SYSTEM.SOLV>
0

>  <SCORE.SYSTEM.norm>
0

>  <SCORE.heavy>
13

>  <SCORE.norm>
-0.835007

>  <RMSD>
12.824

$$$$
1o15_lig
 OpenBabel11021811403D
libRbt.so/2013.1/901 2013/11/27
 13 14  0  0  0  0  0  0  0  0999 V2000
    7.4663    4.4360   25.0961 C   0  0  0  0  0  0  0  0  0  0  0  0
    8.1852    5.5401   24.6940 N   0  0  0  0  0  0  0  0  0  0  0  0
    9.2393    5.9222   25.4618 C   0  0  0  0  0  0  0  0  0  0  0  0
    9.4522    5.2391   26.4603 O   0  0  0  0  0  0  0  0  0  0  0  0
   11.1093    7.3595   25.9966 C   0  0  0  0  0  0  0  0  0  0  0  0
   10.0476    6.9926   25.1975 N   0  0  0  0  0  0  0  0  0  0  0  0
    9.6961    7.6575   24.0637 C   0  0  0  0  0  0  0  0  0  0  0  0
    8.6366    7.2622   23.2997 C   0  0  0  0  0  0  0  0  0  0  0  0
    7.7980    6.1631   23.5625 C   0  0  0  0  0  0  0  0  0  0  0  0
    6.8337    5.7557   22.9197 O   0  0  0  0  0  0  0  0  0  0  0  0
    8.5772    8.1595   22.2430 N   0  0  0  0  0  0  0  0  0  0  0  0
    9.5988    9.0301   22.4380 C   0  0  0  0  0  0  0  0  0  0  0  0
   10.3011    8.7809   23.5102 N   0  0  0  0  0  0  0  0  0  0  0  0
  1  2  1  0  0  0  0
  2  3  1  0  0  0  0
  2  9  1  0  0  0  0
  3  4  2  0  0  0  0
  3  6  1  0  0  0  0
  6  5  1  0  0  0  0
  6  7  1  0  0  0  0
  7  8  2  0  0  0  0
  7 13  1  0  0  0  0
  8  9  1  0  0  0  0
  8 11  1  0  0  0  0
  9 10  2  0  0  0  0
 11 12  1  0  0  0  0
 12 13  2  0  0  0  0
M  END
>  <CHROM.1>
8.97727734,6.75036931,24.25200046,1.91006751,0.65042218,2.30644409

>  <Name>
1o15_lig

>  <RI>
0

>  <Rbt.Current_Directory>
/home/itssahil/PROJECTS/Mol_Feturizer/New_Systems/rnas/1o15

>  <Rbt.Executable>
rbdock ($Id: //depot/dev/client3/rdock/2013.1/src/exe/rbdock.cxx#4 $)

>  <Rbt.Library>
libRbt.so (2013.1, Build901 2013/11/27)

>  <Rbt.Parameter_File>
/export/apps/rDock/src/rDock_2013.1_src/data/scripts/dock_solv.prm

>  <Rbt.Receptor>
prm/blind_docking_60.prm

>  <SCORE>
-18.6424

>  <SCORE.INTER>
-18.6424

>  <SCORE.INTER.CONST>
1

>  <SCORE.INTER.POLAR>
-1.62384

>  <SCORE.INTER.ROT>
0

>  <SCORE.INTER.SOLV>
5.71506

>  <SCORE.INTER.VDW>
-12.5205

>  <SCORE.INTER.norm>
-1.43403

>  <SCORE.INTRA>
0

>  <SCORE.INTRA.DIHEDRAL>
0

>  <SCORE.INTRA.DIHEDRAL.0>
0

>  <SCORE.INTRA.POLAR>
0

>  <SCORE.INTRA.POLAR.0>
0

>  <SCORE.INTRA.REPUL>
0

>  <SCORE.INTRA.REPUL.0>
0

>  <SCORE.INTRA.SOLV>
0

>  <SCORE.INTRA.SOLV.lig_0>
-12.9184

>  <SCORE.INTRA.VDW>
0

>  <SCORE.INTRA.VDW.0>
0

>  <SCORE.INTRA.norm>
0

>  <SCORE.RESTR>
0

>  <SCORE.RESTR.CAVITY>
0

>  <SCORE.RESTR.norm>
0

>  <SCORE.SYSTEM>
0

>  <SCORE.SYSTEM.CONST>
0

>  <SCORE.SYSTEM.DIHEDRAL>
0

>  <SCORE.SYSTEM.SOLV>
0

>  <SCORE.SYSTEM.norm>
0

>  <SCORE.heavy>
13

>  <SCORE.norm>
-1.43403

>  <RMSD>
13.516

$$$$
1o15_lig
 OpenBabel11021811403D
libRbt.so/2013.1/901 2013/11/27
 13 14  0  0  0  0  0  0  0  0999 V2000
    8.2190    7.3225   24.8696 C   0  0  0  0  0  0  0  0  0  0  0  0
    9.4236    7.9905   24.8574 N   0  0  0  0  0  0  0  0  0  0  0  0
   10.4392    7.4762   25.5995 C   0  0  0  0  0  0  0  0  0  0  0  0
   10.1819    6.4507   26.2248 O   0  0  0  0  0  0  0  0  0  0  0  0
   12.7012    7.4787   26.4550 C   0  0  0  0  0  0  0  0  0  0  0  0
   11.6899    8.0207   25.6910 N   0  0  0  0  0  0  0  0  0  0  0  0
   11.8330    9.1522   24.9491 C   0  0  0  0  0  0  0  0  0  0  0  0
   10.8059    9.6573   24.2060 C   0  0  0  0  0  0  0  0  0  0  0  0
    9.5151    9.1058   24.1050 C   0  0  0  0  0  0  0  0  0  0  0  0
    8.5514    9.5079   23.4582 O   0  0  0  0  0  0  0  0  0  0  0  0
   11.3069   10.7978   23.5950 N   0  0  0  0  0  0  0  0  0  0  0  0
   12.5949   10.9036   24.0067 C   0  0  0  0  0  0  0  0  0  0  0  0
   12.9650    9.9497   24.8178 N   0  0  0  0  0  0  0  0  0  0  0  0
  1  2  1  0  0  0  0
  2  3  1  0  0  0  0
  2  9  1  0  0  0  0
  3  4  2  0  0  0  0
  3  6  1  0  0  0  0
  6  5  1  0  0  0  0
  6  7  1  0  0  0  0
  7  8  2  0  0  0  0
  7 13  1  0  0  0  0
  8  9  1  0  0  0  0
  8 11  1  0  0  0  0
  9 10  2  0  0  0  0
 11 12  1  0  0  0  0
 12 13  2  0  0  0  0
M  END
>  <CHROM.1>
10.74774189,8.72115179,24.84248962,2.35117614,0.30006113,2.52885296

>  <Name>
1o15_lig

>  <RI>
0

>  <Rbt.Current_Directory>
/home/itssahil/PROJECTS/Mol_Feturizer/New_Systems/rnas/1o15

>  <Rbt.Executable>
rbdock ($Id: //depot/dev/client3/rdock/2013.1/src/exe/rbdock.cxx#4 $)

>  <Rbt.Library>
libRbt.so (2013.1, Build901 2013/11/27)

>  <Rbt.Parameter_File>
/export/apps/rDock/src/rDock_2013.1_src/data/scripts/dock_solv.prm

>  <Rbt.Receptor>
prm/blind_docking_40.prm

>  <SCORE>
-22.4724

>  <SCORE.INTER>
-22.4724

>  <SCORE.INTER.CONST>
1

>  <SCORE.INTER.POLAR>
-2.65082

>  <SCORE.INTER.ROT>
0

>  <SCORE.INTER.SOLV>
3.52888

>  <SCORE.INTER.VDW>
-10.9218

>  <SCORE.INTER.norm>
-1.72865

>  <SCORE.INTRA>
0

>  <SCORE.INTRA.DIHEDRAL>
0

>  <SCORE.INTRA.DIHEDRAL.0>
0

>  <SCORE.INTRA.POLAR>
0

>  <SCORE.INTRA.POLAR.0>
0

>  <SCORE.INTRA.REPUL>
0

>  <SCORE.INTRA.REPUL.0>
0

>  <SCORE.INTRA.SOLV>
0

>  <SCORE.INTRA.SOLV.lig_0>
-12.9184

>  <SCORE.INTRA.VDW>
0

>  <SCORE.INTRA.VDW.0>
0

>  <SCORE.INTRA.norm>
0

>  <SCORE.RESTR>
0

>  <SCORE.RESTR.CAVITY>
0

>  <SCORE.RESTR.norm>
0

>  <SCORE.SYSTEM>
0

>  <SCORE.SYSTEM.CONST>
0

>  <SCORE.SYSTEM.DIHEDRAL>
0

>  <SCORE.SYSTEM.SOLV>
0

>  <SCORE.SYSTEM.norm>
0

>  <SCORE.heavy>
13

>  <SCORE.norm>
-1.72865

>  <RMSD>
13.800

$$$$
1o15_lig
 OpenBabel11021811403D
libRbt.so/2013.1/901 2013/11/27
 13 14  0  0  0  0  0  0  0  0999 V2000
   10.9018    8.8571   26.3795 C   0  0  0  0  0  0  0  0  0  0  0  0
   10.1306    8.1441   25.4883 N   0  0  0  0  0  0  0  0  0  0  0  0
    9.6407    8.8047   24.4064 C   0  0  0  0  0  0  0  0  0  0  0  0
    9.9325    9.9952   24.3265 O   0  0  0  0  0  0  0  0  0  0  0  0
    8.3760    8.9347   22.3492 C   0  0  0  0  0  0  0  0  0  0  0  0
    8.8622    8.2390   23.4355 N   0  0  0  0  0  0  0  0  0  0  0  0
    8.6180    6.9181   23.6518 C   0  0  0  0  0  0  0  0  0  0  0  0
    9.1178    6.2653   24.7411 C   0  0  0  0  0  0  0  0  0  0  0  0
    9.9192    6.8375   25.7465 C   0  0  0  0  0  0  0  0  0  0  0  0
   10.3987    6.3094   26.7465 O   0  0  0  0  0  0  0  0  0  0  0  0
    8.6711    4.9560   24.6348 N   0  0  0  0  0  0  0  0  0  0  0  0
    7.9372    4.9061   23.4953 C   0  0  0  0  0  0  0  0  0  0  0  0
    7.8690    6.0483   22.8663 N   0  0  0  0  0  0  0  0  0  0  0  0
  1  2  1  0  0  0  0
  2  3  1  0  0  0  0
  2  9  1  0  0  0  0
  3  4  2  0  0  0  0
  3  6  1  0  0  0  0
  6  5  1  0  0  0  0
  6  7  1  0  0  0  0
  7  8  2  0  0  0  0
  7 13  1  0  0  0  0
  8  9  1  0  0  0  0
  8 11  1  0  0  0  0
  9 10  2  0  0  0  0
 11 12  1  0  0  0  0
 12 13  2  0  0  0  0
M  END
>  <CHROM.1>
9.28623533,7.36164700,24.50723047,-0.58031622,0.96334699,2.71306425

>  <Name>
1o15_lig

>  <RI>
0

>  <Rbt.Current_Directory>
/home/itssahil/PROJECTS/Mol_Feturizer/New_Systems/rnas/1o15

>  <Rbt.Executable>
rbdock ($Id: //depot/dev/client3/rdock/2013.1/src/exe/rbdock.cxx#4 $)

>  <Rbt.Library>
libRbt.so (2013.1, Build901 2013/11/27)

>  <Rbt.Parameter_File>
/export/apps/rDock/src/rDock_2013.1_src/data/scripts/dock_solv.prm

>  <Rbt.Receptor>
prm/blind_docking_60.prm

>  <SCORE>
-20.3197

>  <SCORE.INTER>
-20.3197

>  <SCORE.INTER.CONST>
1

>  <SCORE.INTER.POLAR>
-2.18908

>  <SCORE.INTER.ROT>
0

>  <SCORE.INTER.SOLV>
4.36742

>  <SCORE.INTER.VDW>
-11.3053

>  <SCORE.INTER.norm>
-1.56305

>  <SCORE.INTRA>
0

>  <SCORE.INTRA.DIHEDRAL>
0

>  <SCORE.INTRA.DIHEDRAL.0>
0

>  <SCORE.INTRA.POLAR>
0

>  <SCORE.INTRA.POLAR.0>
0

>  <SCORE.INTRA.REPUL>
0

>  <SCORE.INTRA.REPUL.0>
0

>  <SCORE.INTRA.SOLV>
0

>  <SCORE.INTRA.SOLV.lig_0>
-12.9184

>  <SCORE.INTRA.VDW>
0

>  <SCORE.INTRA.VDW.0>
0

>  <SCORE.INTRA.norm>
0

>  <SCORE.RESTR>
0

>  <SCORE.RESTR.CAVITY>
0

>  <SCORE.RESTR.norm>
0

>  <SCORE.SYSTEM>
0

>  <SCORE.SYSTEM.CONST>
0

>  <SCORE.SYSTEM.DIHEDRAL>
0

>  <SCORE.SYSTEM.SOLV>
0

>  <SCORE.SYSTEM.norm>
0

>  <SCORE.heavy>
13

>  <SCORE.norm>
-1.56305

>  <RMSD>
13.834

$$$$
1o15_lig
 OpenBabel11021811403D
libRbt.so/2013.1/901 2013/11/27
 13 14  0  0  0  0  0  0  0  0999 V2000
    8.2149    7.2795   24.7289 C   0  0  0  0  0  0  0  0  0  0  0  0
    9.4161    7.9529   24.7575 N   0  0  0  0  0  0  0  0  0  0  0  0
   10.4110    7.4387   25.5272 C   0  0  0  0  0  0  0  0  0  0  0  0
   10.1395    6.4083   26.1383 O   0  0  0  0  0  0  0  0  0  0  0  0
   12.6458    7.4462   26.4515 C   0  0  0  0  0  0  0  0  0  0  0  0
   11.6557    7.9882   25.6601 N   0  0  0  0  0  0  0  0  0  0  0  0
   11.8162    9.1248   24.9296 C   0  0  0  0  0  0  0  0  0  0  0  0
   10.8099    9.6298   24.1583 C   0  0  0  0  0  0  0  0  0  0  0  0
    9.5254    9.0731   24.0148 C   0  0  0  0  0  0  0  0  0  0  0  0
    8.5800    9.4747   23.3411 O   0  0  0  0  0  0  0  0  0  0  0  0
   11.3241   10.7762   23.5697 N   0  0  0  0  0  0  0  0  0  0  0  0
   12.5984   10.8853   24.0212 C   0  0  0  0  0  0  0  0  0  0  0  0
   12.9479    9.9281   24.8376 N   0  0  0  0  0  0  0  0  0  0  0  0
  1  2  1  0  0  0  0
  2  3  1  0  0  0  0
  2  9  1  0  0  0  0
  3  4  2  0  0  0  0
  3  6  1  0  0  0  0
  6  5  1  0  0  0  0
  6  7  1  0  0  0  0
  7  8  2  0  0  0  0
  7 13  1  0  0  0  0
  8  9  1  0  0  0  0
  8 11  1  0  0  0  0
  9 10  2  0  0  0  0
 11 12  1  0  0  0  0
 12 13  2  0  0  0  0
M  END
>  <CHROM.1>
10.73671578,8.68954772,24.78730068,2.36571378,0.32770859,2.53029007

>  <Name>
1o15_lig

>  <RI>
0

>  <Rbt.Current_Directory>
/home/itssahil/PROJECTS/Mol_Feturizer/New_Systems/rnas/1o15

>  <Rbt.Executable>
rbdock ($Id: //depot/dev/client3/rdock/2013.1/src/exe/rbdock.cxx#4 $)

>  <Rbt.Library>
libRbt.so (2013.1, Build901 2013/11/27)

>  <Rbt.Parameter_File>
/export/apps/rDock/src/rDock_2013.1_src/data/scripts/dock_solv.prm

>  <Rbt.Receptor>
prm/blind_docking_40.prm

>  <SCORE>
-22.4105

>  <SCORE.INTER>
-22.4105

>  <SCORE.INTER.CONST>
1

>  <SCORE.INTER.POLAR>
-2.63

>  <SCORE.INTER.ROT>
0

>  <SCORE.INTER.SOLV>
3.62884

>  <SCORE.INTER.VDW>
-10.9833

>  <SCORE.INTER.norm>
-1.72388

>  <SCORE.INTRA>
0

>  <SCORE.INTRA.DIHEDRAL>
0

>  <SCORE.INTRA.DIHEDRAL.0>
0

>  <SCORE.INTRA.POLAR>
0

>  <SCORE.INTRA.POLAR.0>
0

>  <SCORE.INTRA.REPUL>
0

>  <SCORE.INTRA.REPUL.0>
0

>  <SCORE.INTRA.SOLV>
0

>  <SCORE.INTRA.SOLV.lig_0>
-12.9184

>  <SCORE.INTRA.VDW>
0

>  <SCORE.INTRA.VDW.0>
0

>  <SCORE.INTRA.norm>
0

>  <SCORE.RESTR>
0

>  <SCORE.RESTR.CAVITY>
0

>  <SCORE.RESTR.norm>
0

>  <SCORE.SYSTEM>
0

>  <SCORE.SYSTEM.CONST>
0

>  <SCORE.SYSTEM.DIHEDRAL>
0

>  <SCORE.SYSTEM.SOLV>
0

>  <SCORE.SYSTEM.norm>
0

>  <SCORE.heavy>
13

>  <SCORE.norm>
-1.72388

>  <RMSD>
13.836

$$$$
1o15_lig
 OpenBabel11021811403D
libRbt.so/2013.1/901 2013/11/27
 13 14  0  0  0  0  0  0  0  0999 V2000
    8.2371    7.2725   24.7389 C   0  0  0  0  0  0  0  0  0  0  0  0
    9.4329    7.9562   24.7426 N   0  0  0  0  0  0  0  0  0  0  0  0
   10.4441    7.4574   25.5011 C   0  0  0  0  0  0  0  0  0  0  0  0
   10.1910    6.4303   26.1256 O   0  0  0  0  0  0  0  0  0  0  0  0
   12.6929    7.4919   26.3900 C   0  0  0  0  0  0  0  0  0  0  0  0
   11.6860    8.0185   25.6095 N   0  0  0  0  0  0  0  0  0  0  0  0
   11.8253    9.1497   24.8665 C   0  0  0  0  0  0  0  0  0  0  0  0
   10.8028    9.6393   24.1067 C   0  0  0  0  0  0  0  0  0  0  0  0
    9.5210    9.0705   23.9883 C   0  0  0  0  0  0  0  0  0  0  0  0
    8.5618    9.4581   23.3261 O   0  0  0  0  0  0  0  0  0  0  0  0
   11.2979   10.7846   23.4999 N   0  0  0  0  0  0  0  0  0  0  0  0
   12.5781   10.9084   23.9303 C   0  0  0  0  0  0  0  0  0  0  0  0
   12.9485    9.9617   24.7496 N   0  0  0  0  0  0  0  0  0  0  0  0
  1  2  1  0  0  0  0
  2  3  1  0  0  0  0
  2  9  1  0  0  0  0
  3  4  2  0  0  0  0
  3  6  1  0  0  0  0
  6  5  1  0  0  0  0
  6  7  1  0  0  0  0
  7  8  2  0  0  0  0
  7 13  1  0  0  0  0
  8  9  1  0  0  0  0
  8 11  1  0  0  0  0
  9 10  2  0  0  0  0
 11 12  1  0  0  0  0
 12 13  2  0  0  0  0
M  END
>  <CHROM.1>
10.74747708,8.70417156,24.74508937,2.34887419,0.31973447,2.52669496

>  <Name>
1o15_lig

>  <RI>
0

>  <Rbt.Current_Directory>
/home/itssahil/PROJECTS/Mol_Feturizer/New_Systems/rnas/1o15

>  <Rbt.Executable>
rbdock ($Id: //depot/dev/client3/rdock/2013.1/src/exe/rbdock.cxx#4 $)

>  <Rbt.Library>
libRbt.so (2013.1, Build901 2013/11/27)

>  <Rbt.Parameter_File>
/export/apps/rDock/src/rDock_2013.1_src/data/scripts/dock_solv.prm

>  <Rbt.Receptor>
prm/blind_docking_60.prm

>  <SCORE>
-21.9527

>  <SCORE.INTER>
-22.0938

>  <SCORE.INTER.CONST>
1

>  <SCORE.INTER.POLAR>
-2.62496

>  <SCORE.INTER.ROT>
0

>  <SCORE.INTER.SOLV>
3.79133

>  <SCORE.INTER.VDW>
-10.8431

>  <SCORE.INTER.norm>
-1.69952

>  <SCORE.INTRA>
0

>  <SCORE.INTRA.DIHEDRAL>
0

>  <SCORE.INTRA.DIHEDRAL.0>
0

>  <SCORE.INTRA.POLAR>
0

>  <SCORE.INTRA.POLAR.0>
0

>  <SCORE.INTRA.REPUL>
0

>  <SCORE.INTRA.REPUL.0>
0

>  <SCORE.INTRA.SOLV>
0

>  <SCORE.INTRA.SOLV.lig_0>
-12.9184

>  <SCORE.INTRA.VDW>
0

>  <SCORE.INTRA.VDW.0>
0

>  <SCORE.INTRA.norm>
0

>  <SCORE.RESTR>
0.141108

>  <SCORE.RESTR.CAVITY>
0.141108

>  <SCORE.RESTR.norm>
0.0108545

>  <SCORE.SYSTEM>
0

>  <SCORE.SYSTEM.CONST>
0

>  <SCORE.SYSTEM.DIHEDRAL>
0

>  <SCORE.SYSTEM.SOLV>
0

>  <SCORE.SYSTEM.norm>
0

>  <SCORE.heavy>
13

>  <SCORE.norm>
-1.68867

>  <RMSD>
13.877

$$$$
