ligand
  PyMOL2.2          3D                             0

 14 13  0  0  0  0  0  0  0  0999 V2000
   59.5060   -1.1990    4.0850 N   0  0  0  0  0  0  0  0  0  0  0  0
   58.6040   -0.1040    3.8030 C   0  0  0  0  0  0  0  0  0  0  0  0
   59.1560    0.7120    2.6160 C   0  0  0  0  0  0  0  0  0  0  0  0
   58.7670    0.1520    1.2390 C   0  0  0  0  0  0  0  0  0  0  0  0
   57.4520    0.5670    0.7270 N   0  0  0  0  0  0  0  0  0  0  0  0
   56.6860    1.6840    1.2770 C   0  0  0  0  0  0  0  0  0  0  0  0
   55.1840    1.5470    1.0500 C   0  0  0  0  0  0  0  0  0  0  0  0
   54.4120    2.8560    1.2450 C   0  0  0  0  0  0  0  0  0  0  0  0
   54.2300    3.6180   -0.0730 C   0  0  0  0  0  0  0  0  0  0  0  0
   53.2670    2.9090   -0.9130 N   0  0  0  0  0  0  0  0  0  0  0  0
   53.2060    3.0140   -2.3720 C   0  0  0  0  0  0  0  0  0  0  0  0
   51.9230    3.6960   -2.8670 C   0  0  0  0  0  0  0  0  0  0  0  0
   51.5900    3.2850   -4.3050 C   0  0  0  0  0  0  0  0  0  0  0  0
   50.1870    2.8890   -4.3830 N   0  0  0  0  0  0  0  0  0  0  0  0
  1  2  1  0  0  0  0
  2  3  1  0  0  0  0
  3  4  1  0  0  0  0
  4  5  1  0  0  0  0
  5  6  1  0  0  0  0
  6  7  1  0  0  0  0
  7  8  1  0  0  0  0
  8  9  1  0  0  0  0
  9 10  1  0  0  0  0
 10 11  1  0  0  0  0
 11 12  1  0  0  0  0
 12 13  1  0  0  0  0
 13 14  1  0  0  0  0
M  END
$$$$
